
 OpenBabel03252502333D

 23 24  0  0  0  0  0  0  0  0999 V2000
   35.6490   29.1210   39.8580 C   0  0  0  0  0  0  0  0  0  0  0  0
   36.4620   30.2690   39.7320 C   0  0  0  0  0  0  0  0  0  0  0  0
   37.4700   30.4780   40.6890 C   0  0  0  0  0  0  0  0  0  0  0  0
   37.5930   29.5540   41.6740 N   0  0  0  0  0  0  0  0  0  0  0  0
   36.8170   28.4730   41.7820 C   0  0  0  0  0  0  0  0  0  0  0  0
   35.8450   28.2640   40.8660 N   0  0  0  0  0  0  0  0  0  0  0  0
   36.3040   30.9620   38.9180 H   0  0  0  0  0  0  0  0  0  0  0  0
   38.3140   31.6200   40.6040 N   0  0  0  0  0  0  0  0  0  0  0  0
   37.7370   32.8870   40.2830 C   0  0  0  0  0  3  0  0  0  0  0  0
   37.1190   33.2200   41.1640 H   0  0  0  0  0  0  0  0  0  0  0  0
   38.7520   33.9490   40.0060 C   0  0  0  0  0  3  0  0  0  0  0  0
   38.7360   34.7630   40.7840 H   0  0  0  0  0  0  0  0  0  0  0  0
   40.0410   33.5000   39.8270 O   0  0  0  0  0  0  0  0  0  0  0  0
   40.4830   32.7260   40.8950 C   0  0  0  0  0  2  0  0  0  0  0  0
   39.7230   31.4280   40.8490 C   0  0  0  0  0  2  0  0  0  0  0  0
   34.5850   28.9160   38.8350 C   0  0  0  0  0  0  0  0  0  0  0  0
   33.3490   29.2430   39.2970 F   0  0  0  0  0  0  0  0  0  0  0  0
   34.9180   29.6520   37.7040 F   0  0  0  0  0  0  0  0  0  0  0  0
   34.6220   27.5630   38.4250 F   0  0  0  0  0  0  0  0  0  0  0  0
   36.9950   27.4930   42.8820 C   0  0  0  0  0  0  0  0  0  0  0  0
   35.8880   27.4260   43.6790 F   0  0  0  0  0  0  0  0  0  0  0  0
   38.1400   27.8080   43.6400 F   0  0  0  0  0  0  0  0  0  0  0  0
   37.2330   26.2220   42.3910 F   0  0  0  0  0  0  0  0  0  0  0  0
  1  6  1  0  0  0  0
  2  1  2  0  0  0  0
  2  3  1  0  0  0  0
  3  4  2  0  0  0  0
  4  5  1  0  0  0  0
  5 20  1  0  0  0  0
  6  5  2  0  0  0  0
  7  2  1  0  0  0  0
  8  3  1  0  0  0  0
  8 15  1  0  0  0  0
  9  8  1  0  0  0  0
  9 10  1  0  0  0  0
 11  9  1  0  0  0  0
 11 12  1  0  0  0  0
 13 11  1  0  0  0  0
 13 14  1  0  0  0  0
 15 14  1  0  0  0  0
 16 17  1  0  0  0  0
 16  1  1  0  0  0  0
 18 16  1  0  0  0  0
 19 16  1  0  0  0  0
 20 22  1  0  0  0  0
 20 21  1  0  0  0  0
 23 20  1  0  0  0  0
M  END
>  <minimizedAffinity>
-5.42134237

$$$$

 OpenBabel03252502333D

 23 24  0  0  0  0  0  0  0  0999 V2000
   36.8400   28.3660   41.7860 C   0  0  0  0  0  0  0  0  0  0  0  0
   37.7030   29.4850   41.7780 C   0  0  0  0  0  0  0  0  0  0  0  0
   37.5840   30.4080   40.7240 C   0  0  0  0  0  0  0  0  0  0  0  0
   36.6410   30.1580   39.7820 N   0  0  0  0  0  0  0  0  0  0  0  0
   35.8320   29.0960   39.8020 C   0  0  0  0  0  0  0  0  0  0  0  0
   35.9390   28.2030   40.8110 N   0  0  0  0  0  0  0  0  0  0  0  0
   38.4310   29.6180   42.5650 H   0  0  0  0  0  0  0  0  0  0  0  0
   38.4300   31.5510   40.6730 N   0  0  0  0  0  0  0  0  0  0  0  0
   37.8450   32.8390   40.4720 C   0  0  0  0  0  3  0  0  0  0  0  0
   37.2760   33.1130   41.4040 H   0  0  0  0  0  0  0  0  0  0  0  0
   38.8510   33.9150   40.2150 C   0  0  0  0  0  3  0  0  0  0  0  0
   38.8810   34.6730   41.0470 H   0  0  0  0  0  0  0  0  0  0  0  0
   40.1270   33.4740   39.9390 O   0  0  0  0  0  0  0  0  0  0  0  0
   40.6190   32.6270   40.9260 C   0  0  0  0  0  2  0  0  0  0  0  0
   39.8480   31.3380   40.8310 C   0  0  0  0  0  2  0  0  0  0  0  0
   36.9800   27.3980   42.9100 C   0  0  0  0  0  0  0  0  0  0  0  0
   38.0890   27.6300   43.6610 F   0  0  0  0  0  0  0  0  0  0  0  0
   35.8230   27.4500   43.6790 F   0  0  0  0  0  0  0  0  0  0  0  0
   37.0080   26.0930   42.3670 F   0  0  0  0  0  0  0  0  0  0  0  0
   34.8170   28.8710   38.7430 C   0  0  0  0  0  0  0  0  0  0  0  0
   35.0830   29.6100   37.6250 F   0  0  0  0  0  0  0  0  0  0  0  0
   33.5260   29.1510   39.2330 F   0  0  0  0  0  0  0  0  0  0  0  0
   34.7720   27.5420   38.3630 F   0  0  0  0  0  0  0  0  0  0  0  0
  1 16  1  0  0  0  0
  2  1  1  0  0  0  0
  2  7  1  0  0  0  0
  3  2  2  0  0  0  0
  4  5  2  0  0  0  0
  4  3  1  0  0  0  0
  5  6  1  0  0  0  0
  6  1  2  0  0  0  0
  8  3  1  0  0  0  0
  8 15  1  0  0  0  0
  9  8  1  0  0  0  0
  9 10  1  0  0  0  0
 11  9  1  0  0  0  0
 11 12  1  0  0  0  0
 13 11  1  0  0  0  0
 13 14  1  0  0  0  0
 15 14  1  0  0  0  0
 16 17  1  0  0  0  0
 16 18  1  0  0  0  0
 19 16  1  0  0  0  0
 20 22  1  0  0  0  0
 20  5  1  0  0  0  0
 21 20  1  0  0  0  0
 23 20  1  0  0  0  0
M  END
>  <minimizedAffinity>
-5.32690048

$$$$

 OpenBabel03252502333D

 23 24  0  0  0  0  0  0  0  0999 V2000
   35.6370   29.0020   39.6870 C   0  0  0  0  0  0  0  0  0  0  0  0
   36.4750   30.1260   39.5100 C   0  0  0  0  0  0  0  0  0  0  0  0
   37.4710   30.3690   40.4730 C   0  0  0  0  0  0  0  0  0  0  0  0
   37.5590   29.5010   41.5100 N   0  0  0  0  0  0  0  0  0  0  0  0
   36.7600   28.4430   41.6650 C   0  0  0  0  0  0  0  0  0  0  0  0
   35.7990   28.2000   40.7450 N   0  0  0  0  0  0  0  0  0  0  0  0
   36.3450   30.7740   38.6560 H   0  0  0  0  0  0  0  0  0  0  0  0
   38.3390   31.4880   40.3380 N   0  0  0  0  0  0  0  0  0  0  0  0
   39.7420   31.2640   40.1880 C   0  0  0  0  0  3  0  0  0  0  0  0
   39.9160   30.8130   39.1710 H   0  0  0  0  0  0  0  0  0  0  0  0
   40.5580   32.5140   40.2820 C   0  0  0  0  0  3  0  0  0  0  0  0
   41.0580   32.7670   39.3060 H   0  0  0  0  0  0  0  0  0  0  0  0
   39.8890   33.6180   40.7640 O   0  0  0  0  0  0  0  0  0  0  0  0
   38.7320   33.8910   40.0430 C   0  0  0  0  0  2  0  0  0  0  0  0
   37.7430   32.8020   40.3590 C   0  0  0  0  0  2  0  0  0  0  0  0
   34.5870   28.7590   38.6580 C   0  0  0  0  0  0  0  0  0  0  0  0
   34.5940   27.4800   38.1990 F   0  0  0  0  0  0  0  0  0  0  0  0
   33.3540   29.0990   39.2030 F   0  0  0  0  0  0  0  0  0  0  0  0
   34.7900   29.6720   37.5970 F   0  0  0  0  0  0  0  0  0  0  0  0
   36.9000   27.5230   42.8220 C   0  0  0  0  0  0  0  0  0  0  0  0
   35.8240   27.6040   43.6600 F   0  0  0  0  0  0  0  0  0  0  0  0
   38.0970   27.7860   43.5160 F   0  0  0  0  0  0  0  0  0  0  0  0
   37.0100   26.2080   42.4100 F   0  0  0  0  0  0  0  0  0  0  0  0
  1  6  1  0  0  0  0
  2  1  2  0  0  0  0
  2  3  1  0  0  0  0
  3  4  2  0  0  0  0
  4  5  1  0  0  0  0
  5 20  1  0  0  0  0
  6  5  2  0  0  0  0
  7  2  1  0  0  0  0
  8 15  1  0  0  0  0
  8  3  1  0  0  0  0
  9 11  1  0  0  0  0
  9  8  1  0  0  0  0
 10  9  1  0  0  0  0
 11 13  1  0  0  0  0
 12 11  1  0  0  0  0
 14 15  1  0  0  0  0
 14 13  1  0  0  0  0
 16 18  1  0  0  0  0
 16  1  1  0  0  0  0
 17 16  1  0  0  0  0
 19 16  1  0  0  0  0
 20 22  1  0  0  0  0
 20 21  1  0  0  0  0
 23 20  1  0  0  0  0
M  END
>  <minimizedAffinity>
-5.22601175

$$$$

 OpenBabel03252502333D

 23 24  0  0  0  0  0  0  0  0999 V2000
   37.5030   31.5510   40.1620 C   0  0  0  0  0  0  0  0  0  0  0  0
   36.7590   31.1130   39.0430 C   0  0  0  0  0  0  0  0  0  0  0  0
   36.2260   29.8110   39.0690 C   0  0  0  0  0  0  0  0  0  0  0  0
   36.4650   29.0630   40.1740 N   0  0  0  0  0  0  0  0  0  0  0  0
   37.1700   29.4890   41.2240 C   0  0  0  0  0  0  0  0  0  0  0  0
   37.6870   30.7390   41.2090 N   0  0  0  0  0  0  0  0  0  0  0  0
   36.6110   31.7670   38.1970 H   0  0  0  0  0  0  0  0  0  0  0  0
   35.4700   29.3260   37.9660 N   0  0  0  0  0  0  0  0  0  0  0  0
   36.0390   29.3820   36.6560 C   0  0  0  0  0  3  0  0  0  0  0  0
   36.8770   28.6320   36.6080 H   0  0  0  0  0  0  0  0  0  0  0  0
   35.0640   29.0530   35.5700 C   0  0  0  0  0  3  0  0  0  0  0  0
   35.3300   28.0960   35.0400 H   0  0  0  0  0  0  0  0  0  0  0  0
   33.7420   29.0220   35.9560 O   0  0  0  0  0  0  0  0  0  0  0  0
   33.5240   28.1650   37.0290 C   0  0  0  0  0  2  0  0  0  0  0  0
   34.1560   28.7970   38.2390 C   0  0  0  0  0  2  0  0  0  0  0  0
   38.0610   32.9320   40.1180 C   0  0  0  0  0  0  0  0  0  0  0  0
   37.1220   33.8620   39.8020 F   0  0  0  0  0  0  0  0  0  0  0  0
   38.6550   33.2030   41.3460 F   0  0  0  0  0  0  0  0  0  0  0  0
   39.1190   32.9500   39.1800 F   0  0  0  0  0  0  0  0  0  0  0  0
   37.4010   28.6270   42.4090 C   0  0  0  0  0  0  0  0  0  0  0  0
   37.7800   29.3600   43.4980 F   0  0  0  0  0  0  0  0  0  0  0  0
   38.3580   27.6360   42.1160 F   0  0  0  0  0  0  0  0  0  0  0  0
   36.2600   27.9280   42.7540 F   0  0  0  0  0  0  0  0  0  0  0  0
  1  6  1  0  0  0  0
  2  3  1  0  0  0  0
  2  1  2  0  0  0  0
  3  4  2  0  0  0  0
  4  5  1  0  0  0  0
  5 20  1  0  0  0  0
  6  5  2  0  0  0  0
  7  2  1  0  0  0  0
  8 15  1  0  0  0  0
  8  3  1  0  0  0  0
  9  8  1  0  0  0  0
 10  9  1  0  0  0  0
 11 13  1  0  0  0  0
 11  9  1  0  0  0  0
 12 11  1  0  0  0  0
 13 14  1  0  0  0  0
 14 15  1  0  0  0  0
 16  1  1  0  0  0  0
 16 18  1  0  0  0  0
 17 16  1  0  0  0  0
 19 16  1  0  0  0  0
 20 23  1  0  0  0  0
 20 21  1  0  0  0  0
 22 20  1  0  0  0  0
M  END
>  <minimizedAffinity>
-4.93224001

$$$$

 OpenBabel03252502333D

 23 24  0  0  0  0  0  0  0  0999 V2000
   36.5240   27.8830   39.3580 C   0  0  0  0  0  0  0  0  0  0  0  0
   37.0310   29.1970   39.2420 C   0  0  0  0  0  0  0  0  0  0  0  0
   37.5560   29.8100   40.3930 C   0  0  0  0  0  0  0  0  0  0  0  0
   37.5380   29.0920   41.5430 N   0  0  0  0  0  0  0  0  0  0  0  0
   37.0550   27.8510   41.6390 C   0  0  0  0  0  0  0  0  0  0  0  0
   36.5480   27.2530   40.5370 N   0  0  0  0  0  0  0  0  0  0  0  0
   37.0120   29.7070   38.2890 H   0  0  0  0  0  0  0  0  0  0  0  0
   38.0790   31.1320   40.3260 N   0  0  0  0  0  0  0  0  0  0  0  0
   39.4920   31.3240   40.4190 C   0  0  0  0  0  3  0  0  0  0  0  0
   39.9600   30.9270   39.4750 H   0  0  0  0  0  0  0  0  0  0  0  0
   39.8880   32.7590   40.5600 C   0  0  0  0  0  3  0  0  0  0  0  0
   40.4570   33.1310   39.6620 H   0  0  0  0  0  0  0  0  0  0  0  0
   38.8600   33.6280   40.8540 O   0  0  0  0  0  0  0  0  0  0  0  0
   37.8160   33.5390   39.9400 C   0  0  0  0  0  2  0  0  0  0  0  0
   37.1380   32.2140   40.1650 C   0  0  0  0  0  2  0  0  0  0  0  0
   35.9710   27.2490   38.1280 C   0  0  0  0  0  0  0  0  0  0  0  0
   35.8350   25.9020   38.2530 F   0  0  0  0  0  0  0  0  0  0  0  0
   34.7580   27.8580   37.8280 F   0  0  0  0  0  0  0  0  0  0  0  0
   36.8250   27.5660   37.0460 F   0  0  0  0  0  0  0  0  0  0  0  0
   37.0600   27.1100   42.9250 C   0  0  0  0  0  0  0  0  0  0  0  0
   38.1550   27.4210   43.6800 F   0  0  0  0  0  0  0  0  0  0  0  0
   36.9900   25.7230   42.6920 F   0  0  0  0  0  0  0  0  0  0  0  0
   35.9380   27.4010   43.6780 F   0  0  0  0  0  0  0  0  0  0  0  0
  1  6  1  0  0  0  0
  2  1  2  0  0  0  0
  2  3  1  0  0  0  0
  3  4  2  0  0  0  0
  4  5  1  0  0  0  0
  5 20  1  0  0  0  0
  6  5  2  0  0  0  0
  7  2  1  0  0  0  0
  8  3  1  0  0  0  0
  8  9  1  0  0  0  0
  9 11  1  0  0  0  0
 10  9  1  0  0  0  0
 11 13  1  0  0  0  0
 12 11  1  0  0  0  0
 14 15  1  0  0  0  0
 14 13  1  0  0  0  0
 15  8  1  0  0  0  0
 16 17  1  0  0  0  0
 16  1  1  0  0  0  0
 18 16  1  0  0  0  0
 19 16  1  0  0  0  0
 20 23  1  0  0  0  0
 20 21  1  0  0  0  0
 22 20  1  0  0  0  0
M  END
>  <minimizedAffinity>
-4.91837883

$$$$

 OpenBabel03252502333D

 23 24  0  0  0  0  0  0  0  0999 V2000
   37.0500   30.3040   37.9980 C   0  0  0  0  0  0  0  0  0  0  0  0
   37.0280   29.2890   38.9810 C   0  0  0  0  0  0  0  0  0  0  0  0
   37.3820   29.6320   40.2980 C   0  0  0  0  0  0  0  0  0  0  0  0
   37.7210   30.9230   40.5350 N   0  0  0  0  0  0  0  0  0  0  0  0
   37.7380   31.8730   39.5960 C   0  0  0  0  0  0  0  0  0  0  0  0
   37.4000   31.5530   38.3270 N   0  0  0  0  0  0  0  0  0  0  0  0
   36.7470   28.2800   38.7170 H   0  0  0  0  0  0  0  0  0  0  0  0
   37.3740   28.6450   41.3230 N   0  0  0  0  0  0  0  0  0  0  0  0
   37.3160   27.2650   40.9550 C   0  0  0  0  0  3  0  0  0  0  0  0
   38.3010   26.9880   40.4850 H   0  0  0  0  0  0  0  0  0  0  0  0
   37.0890   26.3500   42.1160 C   0  0  0  0  0  3  0  0  0  0  0  0
   37.9770   25.6870   42.3120 H   0  0  0  0  0  0  0  0  0  0  0  0
   36.7000   26.9670   43.2850 O   0  0  0  0  0  0  0  0  0  0  0  0
   37.5810   27.9710   43.6710 C   0  0  0  0  0  2  0  0  0  0  0  0
   37.4270   29.1010   42.6900 C   0  0  0  0  0  2  0  0  0  0  0  0
   36.6740   29.9220   36.6080 C   0  0  0  0  0  0  0  0  0  0  0  0
   35.3710   29.5500   36.5060 F   0  0  0  0  0  0  0  0  0  0  0  0
   36.9660   30.9910   35.7670 F   0  0  0  0  0  0  0  0  0  0  0  0
   37.5280   28.8750   36.1910 F   0  0  0  0  0  0  0  0  0  0  0  0
   38.1180   33.2730   39.9110 C   0  0  0  0  0  0  0  0  0  0  0  0
   38.3900   33.4330   41.2400 F   0  0  0  0  0  0  0  0  0  0  0  0
   37.1060   34.1610   39.4960 F   0  0  0  0  0  0  0  0  0  0  0  0
   39.2420   33.6600   39.2050 F   0  0  0  0  0  0  0  0  0  0  0  0
  1  6  2  0  0  0  0
  1  2  1  0  0  0  0
  2  3  2  0  0  0  0
  3  4  1  0  0  0  0
  3  8  1  0  0  0  0
  5 20  1  0  0  0  0
  5  4  2  0  0  0  0
  6  5  1  0  0  0  0
  7  2  1  0  0  0  0
  8 15  1  0  0  0  0
  9  8  1  0  0  0  0
  9 11  1  0  0  0  0
 10  9  1  0  0  0  0
 11 12  1  0  0  0  0
 11 13  1  0  0  0  0
 13 14  1  0  0  0  0
 15 14  1  0  0  0  0
 16  1  1  0  0  0  0
 17 16  1  0  0  0  0
 18 16  1  0  0  0  0
 19 16  1  0  0  0  0
 20 21  1  0  0  0  0
 22 20  1  0  0  0  0
 23 20  1  0  0  0  0
M  END
>  <minimizedAffinity>
-4.87749004

$$$$

 OpenBabel03252502333D

 23 24  0  0  0  0  0  0  0  0999 V2000
   37.0720   27.6380   41.6410 C   0  0  0  0  0  0  0  0  0  0  0  0
   37.5440   28.9700   41.6510 C   0  0  0  0  0  0  0  0  0  0  0  0
   37.6330   29.6520   40.4250 C   0  0  0  0  0  0  0  0  0  0  0  0
   37.2570   28.9790   39.3100 N   0  0  0  0  0  0  0  0  0  0  0  0
   36.8130   27.7200   39.3140 C   0  0  0  0  0  0  0  0  0  0  0  0
   36.7230   27.0550   40.4880 N   0  0  0  0  0  0  0  0  0  0  0  0
   37.8260   29.4410   42.5820 H   0  0  0  0  0  0  0  0  0  0  0  0
   38.1020   30.9950   40.3850 N   0  0  0  0  0  0  0  0  0  0  0  0
   39.4900   31.2520   40.6090 C   0  0  0  0  0  3  0  0  0  0  0  0
   40.0640   30.8640   39.7220 H   0  0  0  0  0  0  0  0  0  0  0  0
   39.8080   32.7050   40.7630 C   0  0  0  0  0  3  0  0  0  0  0  0
   40.4430   33.0900   39.9170 H   0  0  0  0  0  0  0  0  0  0  0  0
   38.7190   33.5300   40.9420 O   0  0  0  0  0  0  0  0  0  0  0  0
   37.7720   33.3820   39.9340 C   0  0  0  0  0  2  0  0  0  0  0  0
   37.1350   32.0320   40.1160 C   0  0  0  0  0  2  0  0  0  0  0  0
   36.9850   26.9290   42.9490 C   0  0  0  0  0  0  0  0  0  0  0  0
   38.1250   27.0430   43.6800 F   0  0  0  0  0  0  0  0  0  0  0  0
   35.8840   27.4220   43.6400 F   0  0  0  0  0  0  0  0  0  0  0  0
   36.6880   25.5700   42.6950 F   0  0  0  0  0  0  0  0  0  0  0  0
   36.4130   27.0300   38.0620 C   0  0  0  0  0  0  0  0  0  0  0  0
   36.5650   27.8400   36.9720 F   0  0  0  0  0  0  0  0  0  0  0  0
   35.0880   26.5650   38.1600 F   0  0  0  0  0  0  0  0  0  0  0  0
   37.1730   25.8960   37.8480 F   0  0  0  0  0  0  0  0  0  0  0  0
  1  2  1  0  0  0  0
  1 16  1  0  0  0  0
  2  7  1  0  0  0  0
  3  2  2  0  0  0  0
  4  5  2  0  0  0  0
  4  3  1  0  0  0  0
  5  6  1  0  0  0  0
  6  1  2  0  0  0  0
  8  3  1  0  0  0  0
  8  9  1  0  0  0  0
  9 11  1  0  0  0  0
 10  9  1  0  0  0  0
 11 13  1  0  0  0  0
 12 11  1  0  0  0  0
 14 15  1  0  0  0  0
 14 13  1  0  0  0  0
 15  8  1  0  0  0  0
 16 18  1  0  0  0  0
 16 17  1  0  0  0  0
 19 16  1  0  0  0  0
 20 22  1  0  0  0  0
 20  5  1  0  0  0  0
 21 20  1  0  0  0  0
 23 20  1  0  0  0  0
M  END
>  <minimizedAffinity>
-4.86622477

$$$$

 OpenBabel03252502333D

 23 24  0  0  0  0  0  0  0  0999 V2000
   37.0900   30.2300   38.0570 C   0  0  0  0  0  0  0  0  0  0  0  0
   37.1090   29.2250   39.0510 C   0  0  0  0  0  0  0  0  0  0  0  0
   37.4790   29.5900   40.3570 C   0  0  0  0  0  0  0  0  0  0  0  0
   37.7940   30.8910   40.5740 N   0  0  0  0  0  0  0  0  0  0  0  0
   37.7720   31.8300   39.6260 C   0  0  0  0  0  0  0  0  0  0  0  0
   37.4180   31.4900   38.3670 N   0  0  0  0  0  0  0  0  0  0  0  0
   36.8440   28.2080   38.8020 H   0  0  0  0  0  0  0  0  0  0  0  0
   37.5120   28.6130   41.3910 N   0  0  0  0  0  0  0  0  0  0  0  0
   37.7930   29.0290   42.7290 C   0  0  0  0  0  3  0  0  0  0  0  0
   36.9080   29.6170   43.1040 H   0  0  0  0  0  0  0  0  0  0  0  0
   38.0190   27.8890   43.6710 C   0  0  0  0  0  3  0  0  0  0  0  0
   37.2110   27.8200   44.4530 H   0  0  0  0  0  0  0  0  0  0  0  0
   38.1980   26.6600   43.0750 O   0  0  0  0  0  0  0  0  0  0  0  0
   37.1540   26.3320   42.2160 C   0  0  0  0  0  2  0  0  0  0  0  0
   37.2570   27.2420   41.0220 C   0  0  0  0  0  2  0  0  0  0  0  0
   36.6960   29.8260   36.6780 C   0  0  0  0  0  0  0  0  0  0  0  0
   36.9820   30.7820   35.7550 F   0  0  0  0  0  0  0  0  0  0  0  0
   37.3240   28.6230   36.3790 F   0  0  0  0  0  0  0  0  0  0  0  0
   35.3120   29.5340   36.6830 F   0  0  0  0  0  0  0  0  0  0  0  0
   38.1270   33.2410   39.9190 C   0  0  0  0  0  0  0  0  0  0  0  0
   37.0920   34.0880   39.6400 F   0  0  0  0  0  0  0  0  0  0  0  0
   39.2850   33.6140   39.2090 F   0  0  0  0  0  0  0  0  0  0  0  0
   38.4580   33.4110   41.2510 F   0  0  0  0  0  0  0  0  0  0  0  0
  1  6  2  0  0  0  0
  1  2  1  0  0  0  0
  2  3  2  0  0  0  0
  3  4  1  0  0  0  0
  3  8  1  0  0  0  0
  5 20  1  0  0  0  0
  5  4  2  0  0  0  0
  6  5  1  0  0  0  0
  7  2  1  0  0  0  0
  8  9  1  0  0  0  0
  9 10  1  0  0  0  0
  9 11  1  0  0  0  0
 11 12  1  0  0  0  0
 13 11  1  0  0  0  0
 14 13  1  0  0  0  0
 15  8  1  0  0  0  0
 15 14  1  0  0  0  0
 16 19  1  0  0  0  0
 16  1  1  0  0  0  0
 17 16  1  0  0  0  0
 18 16  1  0  0  0  0
 20 23  1  0  0  0  0
 21 20  1  0  0  0  0
 22 20  1  0  0  0  0
M  END
>  <minimizedAffinity>
-4.79830265

$$$$

 OpenBabel03252502333D

 23 24  0  0  0  0  0  0  0  0999 V2000
   36.9230   27.7980   39.3090 C   0  0  0  0  0  0  0  0  0  0  0  0
   37.4220   29.1190   39.2520 C   0  0  0  0  0  0  0  0  0  0  0  0
   37.7810   29.7450   40.4590 C   0  0  0  0  0  0  0  0  0  0  0  0
   37.6230   29.0320   41.6010 N   0  0  0  0  0  0  0  0  0  0  0  0
   37.1500   27.7840   41.6400 C   0  0  0  0  0  0  0  0  0  0  0  0
   36.8010   27.1730   40.4860 N   0  0  0  0  0  0  0  0  0  0  0  0
   37.5200   29.6240   38.3030 H   0  0  0  0  0  0  0  0  0  0  0  0
   38.2890   31.0740   40.4530 N   0  0  0  0  0  0  0  0  0  0  0  0
   37.3720   32.1660   40.3570 C   0  0  0  0  0  3  0  0  0  0  0  0
   36.8010   32.2270   41.3250 H   0  0  0  0  0  0  0  0  0  0  0  0
   38.0410   33.4850   40.1350 C   0  0  0  0  0  3  0  0  0  0  0  0
   37.9110   34.1780   41.0130 H   0  0  0  0  0  0  0  0  0  0  0  0
   39.3720   33.4190   39.7850 O   0  0  0  0  0  0  0  0  0  0  0  0
   40.1220   32.6840   40.6970 C   0  0  0  0  0  2  0  0  0  0  0  0
   39.7190   31.2430   40.5450 C   0  0  0  0  0  2  0  0  0  0  0  0
   36.5460   27.1500   38.0210 C   0  0  0  0  0  0  0  0  0  0  0  0
   35.9050   28.0020   37.1780 F   0  0  0  0  0  0  0  0  0  0  0  0
   37.6970   26.6270   37.4420 F   0  0  0  0  0  0  0  0  0  0  0  0
   35.7330   26.0290   38.3130 F   0  0  0  0  0  0  0  0  0  0  0  0
   36.9970   27.0490   42.9200 C   0  0  0  0  0  0  0  0  0  0  0  0
   35.9280   27.5060   43.6380 F   0  0  0  0  0  0  0  0  0  0  0  0
   38.1810   27.1310   43.6790 F   0  0  0  0  0  0  0  0  0  0  0  0
   36.8070   25.6960   42.7050 F   0  0  0  0  0  0  0  0  0  0  0  0
  1  6  1  0  0  0  0
  2  1  2  0  0  0  0
  2  3  1  0  0  0  0
  3  4  2  0  0  0  0
  4  5  1  0  0  0  0
  5 20  1  0  0  0  0
  6  5  2  0  0  0  0
  7  2  1  0  0  0  0
  8  3  1  0  0  0  0
  8 15  1  0  0  0  0
  9  8  1  0  0  0  0
  9 10  1  0  0  0  0
 11  9  1  0  0  0  0
 11 12  1  0  0  0  0
 13 11  1  0  0  0  0
 13 14  1  0  0  0  0
 15 14  1  0  0  0  0
 16 19  1  0  0  0  0
 16  1  1  0  0  0  0
 17 16  1  0  0  0  0
 18 16  1  0  0  0  0
 20 21  1  0  0  0  0
 20 22  1  0  0  0  0
 23 20  1  0  0  0  0
M  END
>  <minimizedAffinity>
-4.71476507

$$$$
