
     RDKit          3D

 52 55  0  0  0  0  0  0  0  0999 V2000
   47.3281   33.6260   42.8417 C   0  0  0  0  0  0  0  0  0  0  0  0
   48.4209   33.4041   43.4391 O   0  0  0  0  0  0  0  0  0  0  0  0
   47.0355   33.1273   41.5479 N   0  0  0  0  0  0  0  0  0  0  0  0
   45.8111   32.4943   41.0248 C   0  0  0  0  0  0  0  0  0  0  0  0
   45.3841   33.1923   39.7476 C   0  0  0  0  0  0  0  0  0  0  0  0
   46.4280   33.0104   38.6795 C   0  0  0  0  0  0  0  0  0  0  0  0
   47.6983   32.4723   39.3018 C   0  0  0  0  0  0  0  0  0  0  0  0
   48.0616   33.2084   40.5428 C   0  0  2  0  0  0  0  0  0  0  0  0
   45.9608   35.6607   42.9203 C   0  0  0  0  0  0  0  0  0  0  0  0
   46.3317   34.4286   43.5171 C   0  0  0  0  0  0  0  0  0  0  0  0
   45.7450   34.0398   44.6979 C   0  0  0  0  0  0  0  0  0  0  0  0
   44.8286   34.8501   45.2527 N   0  0  0  0  0  0  0  0  0  0  0  0
   44.4549   36.0369   44.6998 C   0  0  0  0  0  0  0  0  0  0  0  0
   45.0365   36.4167   43.5352 N   0  0  0  0  0  0  0  0  0  0  0  0
   46.1503   32.7714   45.2907 C   0  0  0  0  0  0  0  0  0  0  0  0
   45.7697   31.6052   44.7212 C   0  0  0  0  0  0  0  0  0  0  0  0
   46.1680   30.4088   45.2974 C   0  0  0  0  0  0  0  0  0  0  0  0
   46.9472   30.3545   46.4434 C   0  0  0  0  0  0  0  0  0  0  0  0
   47.3052   31.5782   46.9801 C   0  0  0  0  0  0  0  0  0  0  0  0
   46.9091   32.7300   46.4076 N   0  0  0  0  0  0  0  0  0  0  0  0
   49.4084   32.7831   41.0173 C   0  0  0  0  0  0  0  0  0  0  0  0
   45.9420   31.4121   40.9136 H   0  0  0  0  0  0  0  0  0  0  0  0
   45.0084   32.7460   41.7763 H   0  0  0  0  0  0  0  0  0  0  0  0
   44.3718   32.8582   39.4530 H   0  0  0  0  0  0  0  0  0  0  0  0
   45.3696   34.2880   39.9795 H   0  0  0  0  0  0  0  0  0  0  0  0
   46.5903   33.9404   38.0938 H   0  0  0  0  0  0  0  0  0  0  0  0
   46.0311   32.2205   37.9800 H   0  0  0  0  0  0  0  0  0  0  0  0
   47.4827   31.4058   39.5740 H   0  0  0  0  0  0  0  0  0  0  0  0
   48.5196   32.4517   38.5769 H   0  0  0  0  0  0  0  0  0  0  0  0
   48.1246   34.3068   40.2577 H   0  0  0  0  0  0  0  0  0  0  0  0
   46.3930   36.0018   42.0007 H   0  0  0  0  0  0  0  0  0  0  0  0
   43.7095   36.5665   45.2716 H   0  0  0  0  0  0  0  0  0  0  0  0
   45.1670   31.5131   43.8310 H   0  0  0  0  0  0  0  0  0  0  0  0
   45.9026   29.4361   44.8922 H   0  0  0  0  0  0  0  0  0  0  0  0
   47.2831   29.4538   46.9313 H   0  0  0  0  0  0  0  0  0  0  0  0
   47.9215   31.6627   47.8815 H   0  0  0  0  0  0  0  0  0  0  0  0
   49.4131   31.8161   41.5160 H   0  0  0  0  0  0  0  0  0  0  0  0
   49.7299   33.5638   41.7722 H   0  0  0  0  0  0  0  0  0  0  0  0
   50.4375   32.7985   40.0034 N   0  0  0  0  0  0  0  0  0  0  0  0
   50.6107   31.5286   39.4026 C   0  0  2  0  0  0  0  0  0  0  0  0
   50.4738   30.7020   40.1080 H   0  0  0  0  0  0  0  0  0  0  0  0
   49.8110   31.3202   38.1260 C   0  0  1  0  0  0  0  0  0  0  0  0
   50.1130   30.3116   37.7487 H   0  0  0  0  0  0  0  0  0  0  0  0
   50.1982   32.2348   37.1802 O   0  0  0  0  0  0  0  0  0  0  0  0
   50.5668   33.4725   37.6437 C   0  0  0  0  0  0  0  0  0  0  0  0
   50.0542   33.7732   39.0227 C   0  0  0  0  0  0  0  0  0  0  0  0
   51.6814   31.4695   39.0682 H   0  0  0  0  0  0  0  0  0  0  0  0
   48.7326   31.2960   38.2673 H   0  0  0  0  0  0  0  0  0  0  0  0
   51.6721   33.5927   37.5785 H   0  0  0  0  0  0  0  0  0  0  0  0
   50.1339   34.2514   36.9663 H   0  0  0  0  0  0  0  0  0  0  0  0
   50.4386   34.7958   39.2851 H   0  0  0  0  0  0  0  0  0  0  0  0
   48.9416   33.8925   38.9463 H   0  0  0  0  0  0  0  0  0  0  0  0
  1  2  2  0
  1 10  1  0
  3  1  1  0
  4  3  1  0
  5  4  1  0
  6  7  1  0
  6  5  1  0
  7  8  1  0
  8 21  1  0
  8  3  1  0
  9 10  2  0
  9 14  1  0
 10 11  1  0
 11 12  2  0
 11 15  1  0
 13 12  1  0
 14 13  2  0
 15 20  1  0
 16 15  2  0
 16 17  1  0
 17 18  2  0
 18 19  1  0
 20 19  2  0
  4 22  1  0
  4 23  1  0
  5 24  1  0
  5 25  1  0
  6 26  1  0
  6 27  1  0
  7 28  1  0
  7 29  1  0
  8 30  1  6
  9 31  1  0
 13 32  1  0
 16 33  1  0
 17 34  1  0
 18 35  1  0
 19 36  1  0
 21 37  1  0
 21 38  1  0
 39 40  1  0
 40 41  1  1
 40 42  1  0
 42 43  1  6
 42 44  1  0
 44 45  1  0
 45 46  1  0
 46 39  1  0
 40 47  1  0
 42 48  1  0
 45 49  1  0
 45 50  1  0
 46 51  1  0
 46 52  1  0
 21 39  1  0
M  ISO  8  22  13  23  13  24  13  25  13  26  13  27  13  28  13  29  13
M  ISO  8  30  13  31  14  32  14  33  14  34  14  35  14  36  14  37   8
M  ISO  3  38   8  41   8  43  15
M  END
>  <DihAtoms>  (1) 
7,20,38,39

>  <DihDeg>  (1) 
69.90107008046132

$$$$
