
 OpenBabel03252502303D

 23 24  0  0  0  0  0  0  0  0999 V2000
   47.9320   34.5290   42.3920 C   0  0  0  0  0  0  0  0  0  0  0  0
   48.0300   33.5060   43.3620 C   0  0  0  0  0  0  0  0  0  0  0  0
   46.9880   33.3770   44.2980 C   0  0  0  0  0  0  0  0  0  0  0  0
   45.9550   34.2490   44.2030 N   0  0  0  0  0  0  0  0  0  0  0  0
   45.8750   35.2110   43.2810 C   0  0  0  0  0  0  0  0  0  0  0  0
   46.8710   35.3430   42.3760 N   0  0  0  0  0  0  0  0  0  0  0  0
   48.8860   32.8480   43.3750 H   0  0  0  0  0  0  0  0  0  0  0  0
   47.0430   32.3630   45.2940 N   0  0  0  0  0  0  0  0  0  0  0  0
   46.7450   32.7050   46.6500 C   0  0  0  0  0  0  0  0  0  0  0  0
   45.6430   32.9270   46.7190 H   0  0  0  0  0  0  0  0  0  0  0  0
   47.0540   31.6100   47.6200 C   0  0  0  0  0  0  0  0  0  0  0  0
   46.1250   31.1980   48.1040 H   0  0  0  0  0  0  0  0  0  0  0  0
   47.8170   30.5780   47.1200 O   0  0  0  0  0  0  0  0  0  0  0  0
   47.2610   30.0170   45.9750 C   0  0  0  0  0  0  0  0  0  0  0  0
   47.3990   31.0300   44.8710 C   0  0  0  0  0  0  0  0  0  0  0  0
   49.0440   34.6520   41.4080 C   0  0  0  0  0  0  0  0  0  0  0  0
   49.1100   33.5900   40.5620 F   0  0  0  0  0  0  0  0  0  0  0  0
   48.8850   35.8470   40.7150 F   0  0  0  0  0  0  0  0  0  0  0  0
   50.2540   34.7950   42.1260 F   0  0  0  0  0  0  0  0  0  0  0  0
   44.7190   36.1400   43.2220 C   0  0  0  0  0  0  0  0  0  0  0  0
   44.0180   35.9970   42.0580 F   0  0  0  0  0  0  0  0  0  0  0  0
   45.1490   37.4710   43.3870 F   0  0  0  0  0  0  0  0  0  0  0  0
   43.8410   35.9180   44.2670 F   0  0  0  0  0  0  0  0  0  0  0  0
  1  2  1  0  0  0  0
  2  7  1  0  0  0  0
  2  3  2  0  0  0  0
  3  8  1  0  0  0  0
  4  3  1  0  0  0  0
  5  4  2  0  0  0  0
  6  1  2  0  0  0  0
  6  5  1  0  0  0  0
  8  9  1  0  0  0  0
  9 10  1  0  0  0  0
  9 11  1  0  0  0  0
 11 12  1  0  0  0  0
 13 11  1  0  0  0  0
 14 13  1  0  0  0  0
 15  8  1  0  0  0  0
 15 14  1  0  0  0  0
 16 19  1  0  0  0  0
 16  1  1  0  0  0  0
 17 16  1  0  0  0  0
 18 16  1  0  0  0  0
 20  5  1  0  0  0  0
 20 22  1  0  0  0  0
 20 23  1  0  0  0  0
 21 20  1  0  0  0  0
M  END
>  <minimizedAffinity>
-5.7684536

>  <minimizedRMSD>
1.15724909

$$$$
