
 OpenBabel03242519233D

 33 35  0  0  0  0  0  0  0  0999 V2000
   37.3010   27.4460   42.5710 C   0  0  0  0  0  0  0  0  0  0  0  0
   38.2820   27.7300   43.6390 C   0  0  0  0  0  0  0  0  0  0  0  0
   39.6120   27.0690   43.4180 C   0  0  0  0  0  0  0  0  0  0  0  0
   39.4700   25.5670   43.2460 C   0  0  0  0  0  0  0  0  0  0  0  0
   38.3060   25.1670   42.3770 C   0  0  0  0  0  0  0  0  0  0  0  0
   37.7470   26.3490   41.6130 C   0  0  0  0  0  0  0  0  0  0  0  0
   36.3100   27.0780   42.9750 H   0  0  0  0  0  0  0  0  0  0  0  0
   38.4370   28.7860   43.8780 H   0  0  0  0  0  0  0  0  0  0  0  0
   37.8810   27.2790   44.5940 H   0  0  0  0  0  0  0  0  0  0  0  0
   40.2310   27.4740   42.6250 H   0  0  0  0  0  0  0  0  0  0  0  0
   40.1870   27.2100   44.3810 H   0  0  0  0  0  0  0  0  0  0  0  0
   39.3080   25.1410   44.2680 H   0  0  0  0  0  0  0  0  0  0  0  0
   40.3920   25.1600   42.8150 H   0  0  0  0  0  0  0  0  0  0  0  0
   38.5950   24.3990   41.6470 H   0  0  0  0  0  0  0  0  0  0  0  0
   37.4620   24.7510   42.9880 H   0  0  0  0  0  0  0  0  0  0  0  0
   36.8880   25.9930   41.0310 H   0  0  0  0  0  0  0  0  0  0  0  0
   38.5360   26.6910   40.9130 H   0  0  0  0  0  0  0  0  0  0  0  0
   36.9880   28.6310   41.7500 C   0  0  0  0  0  0  0  0  0  0  0  0
   35.7910   28.5680   41.0100 C   0  0  0  0  0  0  0  0  0  0  0  0
   35.4170   29.6480   40.2060 C   0  0  0  0  0  0  0  0  0  0  0  0
   36.2640   30.7260   40.1930 N   0  0  0  0  0  0  0  0  0  0  0  0
   37.4140   30.7610   40.9180 C   0  0  0  0  0  0  0  0  0  0  0  0
   37.7650   29.7250   41.6830 N   0  0  0  0  0  0  0  0  0  0  0  0
   35.0850   27.7790   40.9650 H   0  0  0  0  0  0  0  0  0  0  0  0
   34.5170   29.6770   39.6100 H   0  0  0  0  0  0  0  0  0  0  0  0
   38.2660   31.8990   40.8760 N   0  0  0  0  0  0  0  0  0  0  0  0
   37.8040   33.1650   40.3360 C   0  0  0  0  0  3  0  0  0  0  0  0
   37.2030   32.9960   39.3970 H   0  0  0  0  0  0  0  0  0  0  0  0
   38.8840   34.1600   40.1410 C   0  0  0  0  0  3  0  0  0  0  0  0
   38.6080   34.7500   39.2170 H   0  0  0  0  0  0  0  0  0  0  0  0
   40.1490   33.7210   39.9480 O   0  0  0  0  0  0  0  0  0  0  0  0
   40.4290   32.4060   40.1540 C   0  0  0  0  0  2  0  0  0  0  0  0
   39.6370   31.8890   41.3590 C   0  0  0  0  0  2  0  0  0  0  0  0
  1  7  1  0  0  0  0
  1  2  1  0  0  0  0
  2  8  1  0  0  0  0
  2  9  1  0  0  0  0
  3  2  1  0  0  0  0
  3 11  1  0  0  0  0
  4  3  1  0  0  0  0
  4 12  1  0  0  0  0
  5 15  1  0  0  0  0
  5  4  1  0  0  0  0
  6  5  1  0  0  0  0
  6  1  1  0  0  0  0
 10  3  1  0  0  0  0
 13  4  1  0  0  0  0
 14  5  1  0  0  0  0
 16  6  1  0  0  0  0
 17  6  1  0  0  0  0
 18  1  1  0  0  0  0
 19 18  2  0  0  0  0
 20 19  1  0  0  0  0
 21 20  2  0  0  0  0
 21 22  1  0  0  0  0
 22 23  2  0  0  0  0
 23 18  1  0  0  0  0
 24 19  1  0  0  0  0
 25 20  1  0  0  0  0
 26 22  1  0  0  0  0
 26 33  1  0  0  0  0
 27 26  1  0  0  0  0
 28 27  1  0  0  0  0
 29 27  1  0  0  0  0
 30 29  1  0  0  0  0
 31 29  1  0  0  0  0
 31 32  1  0  0  0  0
 32 33  1  0  0  0  0
M  END
>  <minimizedAffinity>
-5.65055084

$$$$

 OpenBabel03242519233D

 33 35  0  0  0  0  0  0  0  0999 V2000
   36.9330   25.2320   41.8530 C   0  0  0  0  0  0  0  0  0  0  0  0
   38.0750   24.4120   42.3080 C   0  0  0  0  0  0  0  0  0  0  0  0
   38.8230   23.7540   41.1850 C   0  0  0  0  0  0  0  0  0  0  0  0
   37.9050   22.9090   40.3180 C   0  0  0  0  0  0  0  0  0  0  0  0
   36.5810   23.5650   40.0250 C   0  0  0  0  0  0  0  0  0  0  0  0
   36.5960   25.0380   40.3810 C   0  0  0  0  0  0  0  0  0  0  0  0
   35.9720   24.9820   42.3950 H   0  0  0  0  0  0  0  0  0  0  0  0
   38.7850   24.9080   42.9750 H   0  0  0  0  0  0  0  0  0  0  0  0
   37.6560   23.5620   42.9240 H   0  0  0  0  0  0  0  0  0  0  0  0
   39.4280   24.4000   40.5590 H   0  0  0  0  0  0  0  0  0  0  0  0
   39.5320   23.0230   41.6760 H   0  0  0  0  0  0  0  0  0  0  0  0
   37.7100   21.9640   40.8840 H   0  0  0  0  0  0  0  0  0  0  0  0
   38.4060   22.6800   39.3710 H   0  0  0  0  0  0  0  0  0  0  0  0
   36.3150   23.4770   38.9630 H   0  0  0  0  0  0  0  0  0  0  0  0
   35.7520   23.1000   40.6200 H   0  0  0  0  0  0  0  0  0  0  0  0
   35.5970   25.4410   40.1730 H   0  0  0  0  0  0  0  0  0  0  0  0
   37.3270   25.5310   39.7080 H   0  0  0  0  0  0  0  0  0  0  0  0
   37.1490   26.6770   42.0570 C   0  0  0  0  0  0  0  0  0  0  0  0
   37.1260   27.1190   43.3950 C   0  0  0  0  0  0  0  0  0  0  0  0
   37.3230   28.4730   43.6790 C   0  0  0  0  0  0  0  0  0  0  0  0
   37.5310   29.3020   42.6070 N   0  0  0  0  0  0  0  0  0  0  0  0
   37.5480   28.8490   41.3250 C   0  0  0  0  0  0  0  0  0  0  0  0
   37.3590   27.5540   41.0610 N   0  0  0  0  0  0  0  0  0  0  0  0
   36.9730   26.5490   44.2750 H   0  0  0  0  0  0  0  0  0  0  0  0
   37.3200   28.8890   44.6760 H   0  0  0  0  0  0  0  0  0  0  0  0
   37.7680   29.7420   40.2400 N   0  0  0  0  0  0  0  0  0  0  0  0
   38.2920   31.0780   40.4600 C   0  0  0  0  0  3  0  0  0  0  0  0
   37.8050   31.5480   41.3630 H   0  0  0  0  0  0  0  0  0  0  0  0
   38.2230   31.9510   39.2660 C   0  0  0  0  0  3  0  0  0  0  0  0
   38.0200   32.9950   39.6480 H   0  0  0  0  0  0  0  0  0  0  0  0
   37.2800   31.6990   38.3270 O   0  0  0  0  0  0  0  0  0  0  0  0
   36.5750   30.5390   38.3960 C   0  0  0  0  0  2  0  0  0  0  0  0
   37.4910   29.4010   38.8550 C   0  0  0  0  0  2  0  0  0  0  0  0
  1 18  1  0  0  0  0
  1  2  1  0  0  0  0
  1  7  1  0  0  0  0
  2  9  1  0  0  0  0
  2  8  1  0  0  0  0
  3 11  1  0  0  0  0
  3  2  1  0  0  0  0
  4 12  1  0  0  0  0
  4  3  1  0  0  0  0
  5  4  1  0  0  0  0
  5  6  1  0  0  0  0
  5 15  1  0  0  0  0
  6  1  1  0  0  0  0
 10  3  1  0  0  0  0
 13  4  1  0  0  0  0
 14  5  1  0  0  0  0
 16  6  1  0  0  0  0
 17  6  1  0  0  0  0
 18 19  1  0  0  0  0
 19 20  2  0  0  0  0
 19 24  1  0  0  0  0
 20 25  1  0  0  0  0
 21 20  1  0  0  0  0
 22 21  2  0  0  0  0
 23 22  1  0  0  0  0
 23 18  2  0  0  0  0
 26 27  1  0  0  0  0
 26 22  1  0  0  0  0
 27 28  1  0  0  0  0
 29 30  1  0  0  0  0
 29 27  1  0  0  0  0
 31 32  1  0  0  0  0
 31 29  1  0  0  0  0
 32 33  1  0  0  0  0
 33 26  1  0  0  0  0
M  END
>  <minimizedAffinity>
-5.21879816

$$$$

 OpenBabel03242519233D

 33 35  0  0  0  0  0  0  0  0999 V2000
   37.4760   29.7030   42.1780 C   0  0  0  0  0  0  0  0  0  0  0  0
   38.6660   29.4040   43.0010 C   0  0  0  0  0  0  0  0  0  0  0  0
   39.0710   27.9580   42.9630 C   0  0  0  0  0  0  0  0  0  0  0  0
   37.9270   27.0450   43.3720 C   0  0  0  0  0  0  0  0  0  0  0  0
   36.5970   27.4450   42.7870 C   0  0  0  0  0  0  0  0  0  0  0  0
   36.7590   28.4580   41.6730 C   0  0  0  0  0  0  0  0  0  0  0  0
   36.6820   30.2710   42.7490 H   0  0  0  0  0  0  0  0  0  0  0  0
   39.5440   30.0310   42.8200 H   0  0  0  0  0  0  0  0  0  0  0  0
   38.3920   29.6070   44.0780 H   0  0  0  0  0  0  0  0  0  0  0  0
   39.5140   27.6020   42.0400 H   0  0  0  0  0  0  0  0  0  0  0  0
   39.8550   27.8390   43.7670 H   0  0  0  0  0  0  0  0  0  0  0  0
   37.8520   27.1050   44.4870 H   0  0  0  0  0  0  0  0  0  0  0  0
   38.1550   26.0170   43.0680 H   0  0  0  0  0  0  0  0  0  0  0  0
   36.0610   26.5780   42.3800 H   0  0  0  0  0  0  0  0  0  0  0  0
   35.9360   27.9200   43.5590 H   0  0  0  0  0  0  0  0  0  0  0  0
   35.7560   28.7270   41.3190 H   0  0  0  0  0  0  0  0  0  0  0  0
   37.3060   27.9580   40.8490 H   0  0  0  0  0  0  0  0  0  0  0  0
   37.7910   30.5280   40.9960 C   0  0  0  0  0  0  0  0  0  0  0  0
   36.7760   31.4100   40.5740 C   0  0  0  0  0  0  0  0  0  0  0  0
   36.9900   32.2290   39.4620 C   0  0  0  0  0  0  0  0  0  0  0  0
   38.2070   32.1140   38.8400 N   0  0  0  0  0  0  0  0  0  0  0  0
   39.1690   31.2540   39.2680 C   0  0  0  0  0  0  0  0  0  0  0  0
   38.9570   30.4740   40.3310 N   0  0  0  0  0  0  0  0  0  0  0  0
   35.8150   31.5590   40.9950 H   0  0  0  0  0  0  0  0  0  0  0  0
   36.2640   32.9300   39.0770 H   0  0  0  0  0  0  0  0  0  0  0  0
   40.4180   31.1660   38.5950 N   0  0  0  0  0  0  0  0  0  0  0  0
   40.8380   32.1870   37.6520 C   0  0  0  0  0  3  0  0  0  0  0  0
   39.9740   32.4960   36.9960 H   0  0  0  0  0  0  0  0  0  0  0  0
   42.0370   31.8160   36.8650 C   0  0  0  0  0  3  0  0  0  0  0  0
   41.8960   32.2720   35.8400 H   0  0  0  0  0  0  0  0  0  0  0  0
   42.3050   30.5040   36.6630 O   0  0  0  0  0  0  0  0  0  0  0  0
   41.6030   29.5730   37.3630 C   0  0  0  0  0  2  0  0  0  0  0  0
   41.3560   30.0730   38.7890 C   0  0  0  0  0  2  0  0  0  0  0  0
  1  7  1  0  0  0  0
  1  2  1  0  0  0  0
  2  9  1  0  0  0  0
  3  2  1  0  0  0  0
  3  4  1  0  0  0  0
  3 11  1  0  0  0  0
  4 12  1  0  0  0  0
  5  4  1  0  0  0  0
  5 15  1  0  0  0  0
  6  1  1  0  0  0  0
  6  5  1  0  0  0  0
  8  2  1  0  0  0  0
 10  3  1  0  0  0  0
 13  4  1  0  0  0  0
 14  5  1  0  0  0  0
 16  6  1  0  0  0  0
 17  6  1  0  0  0  0
 18  1  1  0  0  0  0
 19 24  1  0  0  0  0
 19 18  1  0  0  0  0
 20 19  2  0  0  0  0
 21 22  2  0  0  0  0
 21 20  1  0  0  0  0
 22 23  1  0  0  0  0
 23 18  2  0  0  0  0
 25 20  1  0  0  0  0
 26 33  1  0  0  0  0
 26 22  1  0  0  0  0
 27 26  1  0  0  0  0
 28 27  1  0  0  0  0
 29 27  1  0  0  0  0
 30 29  1  0  0  0  0
 31 29  1  0  0  0  0
 31 32  1  0  0  0  0
 32 33  1  0  0  0  0
M  END
>  <minimizedAffinity>
-5.20239305

$$$$

 OpenBabel03242519233D

 33 35  0  0  0  0  0  0  0  0999 V2000
   37.7920   27.0040   40.9660 C   0  0  0  0  0  0  0  0  0  0  0  0
   37.6290   26.2160   39.7270 C   0  0  0  0  0  0  0  0  0  0  0  0
   36.5250   25.2010   39.8060 C   0  0  0  0  0  0  0  0  0  0  0  0
   36.7110   24.2610   40.9850 C   0  0  0  0  0  0  0  0  0  0  0  0
   37.1520   24.9560   42.2470 C   0  0  0  0  0  0  0  0  0  0  0  0
   36.9920   26.4590   42.1420 C   0  0  0  0  0  0  0  0  0  0  0  0
   38.8600   27.0180   41.3380 H   0  0  0  0  0  0  0  0  0  0  0  0
   37.5270   26.7920   38.8030 H   0  0  0  0  0  0  0  0  0  0  0  0
   38.5750   25.6150   39.5820 H   0  0  0  0  0  0  0  0  0  0  0  0
   35.5110   25.5830   39.7960 H   0  0  0  0  0  0  0  0  0  0  0  0
   36.6370   24.5560   38.8840 H   0  0  0  0  0  0  0  0  0  0  0  0
   37.5060   23.5310   40.6910 H   0  0  0  0  0  0  0  0  0  0  0  0
   35.7720   23.7310   41.1800 H   0  0  0  0  0  0  0  0  0  0  0  0
   36.5740   24.6150   43.1160 H   0  0  0  0  0  0  0  0  0  0  0  0
   38.2350   24.7630   42.4640 H   0  0  0  0  0  0  0  0  0  0  0  0
   37.3590   26.8990   43.0770 H   0  0  0  0  0  0  0  0  0  0  0  0
   35.9070   26.6690   42.0510 H   0  0  0  0  0  0  0  0  0  0  0  0
   37.4030   28.4180   40.8010 C   0  0  0  0  0  0  0  0  0  0  0  0
   36.0180   28.6760   40.7810 C   0  0  0  0  0  0  0  0  0  0  0  0
   35.5610   29.9880   40.6290 C   0  0  0  0  0  0  0  0  0  0  0  0
   36.5200   30.9620   40.5070 N   0  0  0  0  0  0  0  0  0  0  0  0
   37.8510   30.6840   40.5290 C   0  0  0  0  0  0  0  0  0  0  0  0
   38.2800   29.4280   40.6740 N   0  0  0  0  0  0  0  0  0  0  0  0
   35.2180   27.9870   40.8690 H   0  0  0  0  0  0  0  0  0  0  0  0
   34.5190   30.2670   40.6040 H   0  0  0  0  0  0  0  0  0  0  0  0
   38.8120   31.7240   40.3990 N   0  0  0  0  0  0  0  0  0  0  0  0
   38.4400   33.1180   40.5600 C   0  0  0  0  0  3  0  0  0  0  0  0
   37.4560   33.3240   40.0480 H   0  0  0  0  0  0  0  0  0  0  0  0
   39.4980   34.0700   40.1500 C   0  0  0  0  0  3  0  0  0  0  0  0
   38.9650   34.9630   39.7070 H   0  0  0  0  0  0  0  0  0  0  0  0
   40.4080   33.6760   39.2290 O   0  0  0  0  0  0  0  0  0  0  0  0
   40.4610   32.3640   38.8730 C   0  0  0  0  0  2  0  0  0  0  0  0
   40.2140   31.4830   40.1010 C   0  0  0  0  0  2  0  0  0  0  0  0
  1  7  1  0  0  0  0
  1  6  1  0  0  0  0
  2  3  1  0  0  0  0
  2  1  1  0  0  0  0
  3  4  1  0  0  0  0
  4 13  1  0  0  0  0
  4  5  1  0  0  0  0
  5 15  1  0  0  0  0
  5 14  1  0  0  0  0
  6  5  1  0  0  0  0
  6 16  1  0  0  0  0
  8  2  1  0  0  0  0
  9  2  1  0  0  0  0
 10  3  1  0  0  0  0
 11  3  1  0  0  0  0
 12  4  1  0  0  0  0
 17  6  1  0  0  0  0
 18  1  1  0  0  0  0
 19 18  1  0  0  0  0
 19 24  1  0  0  0  0
 20 19  2  0  0  0  0
 21 22  2  0  0  0  0
 21 20  1  0  0  0  0
 22 23  1  0  0  0  0
 23 18  2  0  0  0  0
 25 20  1  0  0  0  0
 26 22  1  0  0  0  0
 26 27  1  0  0  0  0
 28 27  1  0  0  0  0
 29 27  1  0  0  0  0
 30 29  1  0  0  0  0
 31 29  1  0  0  0  0
 32 31  1  0  0  0  0
 32 33  1  0  0  0  0
 33 26  1  0  0  0  0
M  END
>  <minimizedAffinity>
-5.11278772

$$$$

 OpenBabel03242519233D

 33 35  0  0  0  0  0  0  0  0999 V2000
   36.4830   30.3910   40.5680 C   0  0  0  0  0  0  0  0  0  0  0  0
   36.2080   30.1640   39.1340 C   0  0  0  0  0  0  0  0  0  0  0  0
   37.2040   30.8220   38.2230 C   0  0  0  0  0  0  0  0  0  0  0  0
   37.3070   32.3140   38.4900 C   0  0  0  0  0  0  0  0  0  0  0  0
   37.3170   32.6650   39.9550 C   0  0  0  0  0  0  0  0  0  0  0  0
   37.5530   31.4450   40.8200 C   0  0  0  0  0  0  0  0  0  0  0  0
   35.5780   30.7710   41.1310 H   0  0  0  0  0  0  0  0  0  0  0  0
   36.0730   29.1220   38.8310 H   0  0  0  0  0  0  0  0  0  0  0  0
   35.2190   30.6560   38.8980 H   0  0  0  0  0  0  0  0  0  0  0  0
   38.1950   30.3850   38.1880 H   0  0  0  0  0  0  0  0  0  0  0  0
   36.7730   30.7310   37.1820 H   0  0  0  0  0  0  0  0  0  0  0  0
   36.4060   32.7870   38.0230 H   0  0  0  0  0  0  0  0  0  0  0  0
   38.2180   32.7060   38.0230 H   0  0  0  0  0  0  0  0  0  0  0  0
   38.1000   33.4000   40.1860 H   0  0  0  0  0  0  0  0  0  0  0  0
   36.3370   33.1030   40.2790 H   0  0  0  0  0  0  0  0  0  0  0  0
   37.5160   31.7670   41.8680 H   0  0  0  0  0  0  0  0  0  0  0  0
   38.5750   31.0750   40.5970 H   0  0  0  0  0  0  0  0  0  0  0  0
   36.9120   29.1660   41.2690 C   0  0  0  0  0  0  0  0  0  0  0  0
   37.4030   29.3470   42.5770 C   0  0  0  0  0  0  0  0  0  0  0  0
   37.8300   28.2390   43.3150 C   0  0  0  0  0  0  0  0  0  0  0  0
   37.7390   27.0180   42.6980 N   0  0  0  0  0  0  0  0  0  0  0  0
   37.2610   26.8720   41.4330 C   0  0  0  0  0  0  0  0  0  0  0  0
   36.8550   27.9350   40.7340 N   0  0  0  0  0  0  0  0  0  0  0  0
   37.5060   30.2490   43.1240 H   0  0  0  0  0  0  0  0  0  0  0  0
   38.2180   28.2950   44.3210 H   0  0  0  0  0  0  0  0  0  0  0  0
   37.1820   25.5870   40.8290 N   0  0  0  0  0  0  0  0  0  0  0  0
   37.2970   24.3750   41.6210 C   0  0  0  0  0  3  0  0  0  0  0  0
   38.1160   24.4830   42.3880 H   0  0  0  0  0  0  0  0  0  0  0  0
   37.4420   23.1440   40.8110 C   0  0  0  0  0  3  0  0  0  0  0  0
   38.1230   22.4580   41.3970 H   0  0  0  0  0  0  0  0  0  0  0  0
   37.9750   23.2390   39.5700 O   0  0  0  0  0  0  0  0  0  0  0  0
   38.1550   24.4710   39.0230 C   0  0  0  0  0  2  0  0  0  0  0  0
   36.9870   25.3850   39.4040 C   0  0  0  0  0  2  0  0  0  0  0  0
  1  6  1  0  0  0  0
  1  7  1  0  0  0  0
  1 18  1  0  0  0  0
  2  1  1  0  0  0  0
  3  4  1  0  0  0  0
  3  2  1  0  0  0  0
  4  5  1  0  0  0  0
  5 14  1  0  0  0  0
  5 15  1  0  0  0  0
  5  6  1  0  0  0  0
  6 16  1  0  0  0  0
  8  2  1  0  0  0  0
  9  2  1  0  0  0  0
 10  3  1  0  0  0  0
 11  3  1  0  0  0  0
 12  4  1  0  0  0  0
 13  4  1  0  0  0  0
 17  6  1  0  0  0  0
 18 19  1  0  0  0  0
 19 24  1  0  0  0  0
 19 20  2  0  0  0  0
 20 25  1  0  0  0  0
 21 20  1  0  0  0  0
 22 21  2  0  0  0  0
 23 18  2  0  0  0  0
 23 22  1  0  0  0  0
 26 22  1  0  0  0  0
 26 27  1  0  0  0  0
 27 28  1  0  0  0  0
 29 30  1  0  0  0  0
 29 27  1  0  0  0  0
 31 29  1  0  0  0  0
 32 33  1  0  0  0  0
 32 31  1  0  0  0  0
 33 26  1  0  0  0  0
M  END
>  <minimizedAffinity>
-5.05275869

$$$$

 OpenBabel03242519233D

 33 35  0  0  0  0  0  0  0  0999 V2000
   38.0690   31.2840   39.7430 C   0  0  0  0  0  0  0  0  0  0  0  0
   39.3810   31.7480   40.2380 C   0  0  0  0  0  0  0  0  0  0  0  0
   39.2990   33.0010   41.0610 C   0  0  0  0  0  0  0  0  0  0  0  0
   38.6150   34.1260   40.3030 C   0  0  0  0  0  0  0  0  0  0  0  0
   37.4000   33.6820   39.5310 C   0  0  0  0  0  0  0  0  0  0  0  0
   36.9500   32.2970   39.9470 C   0  0  0  0  0  0  0  0  0  0  0  0
   38.0670   31.0860   38.6290 H   0  0  0  0  0  0  0  0  0  0  0  0
   39.9840   31.0050   40.7680 H   0  0  0  0  0  0  0  0  0  0  0  0
   40.0030   32.0250   39.3370 H   0  0  0  0  0  0  0  0  0  0  0  0
   38.8650   32.9070   42.0500 H   0  0  0  0  0  0  0  0  0  0  0  0
   40.3670   33.3410   41.2080 H   0  0  0  0  0  0  0  0  0  0  0  0
   39.3660   34.5260   39.5760 H   0  0  0  0  0  0  0  0  0  0  0  0
   38.3220   34.9140   41.0060 H   0  0  0  0  0  0  0  0  0  0  0  0
   36.5570   34.3700   39.6790 H   0  0  0  0  0  0  0  0  0  0  0  0
   37.6090   33.6340   38.4300 H   0  0  0  0  0  0  0  0  0  0  0  0
   36.0870   32.0260   39.3260 H   0  0  0  0  0  0  0  0  0  0  0  0
   36.6220   32.3610   41.0040 H   0  0  0  0  0  0  0  0  0  0  0  0
   37.6300   30.0260   40.3770 C   0  0  0  0  0  0  0  0  0  0  0  0
   36.2370   29.8380   40.4690 C   0  0  0  0  0  0  0  0  0  0  0  0
   35.7340   28.6720   41.0550 C   0  0  0  0  0  0  0  0  0  0  0  0
   36.6570   27.7670   41.5120 N   0  0  0  0  0  0  0  0  0  0  0  0
   37.9970   27.9750   41.4100 C   0  0  0  0  0  0  0  0  0  0  0  0
   38.4700   29.0900   40.8500 N   0  0  0  0  0  0  0  0  0  0  0  0
   35.4610   30.4820   40.1440 H   0  0  0  0  0  0  0  0  0  0  0  0
   34.6820   28.4540   41.1640 H   0  0  0  0  0  0  0  0  0  0  0  0
   38.9220   27.0090   41.8970 N   0  0  0  0  0  0  0  0  0  0  0  0
   38.5000   25.6580   42.2180 C   0  0  0  0  0  3  0  0  0  0  0  0
   37.5100   25.6730   42.7590 H   0  0  0  0  0  0  0  0  0  0  0  0
   39.5240   24.8680   42.9390 C   0  0  0  0  0  3  0  0  0  0  0  0
   38.9610   24.1980   43.6550 H   0  0  0  0  0  0  0  0  0  0  0  0
   40.4500   25.5210   43.6800 O   0  0  0  0  0  0  0  0  0  0  0  0
   40.5500   26.8730   43.5670 C   0  0  0  0  0  2  0  0  0  0  0  0
   40.3320   27.2900   42.1100 C   0  0  0  0  0  2  0  0  0  0  0  0
  1  6  1  0  0  0  0
  1  2  1  0  0  0  0
  1 18  1  0  0  0  0
  2  8  1  0  0  0  0
  2  3  1  0  0  0  0
  3 11  1  0  0  0  0
  3 10  1  0  0  0  0
  4 13  1  0  0  0  0
  4  3  1  0  0  0  0
  5 14  1  0  0  0  0
  5  6  1  0  0  0  0
  5  4  1  0  0  0  0
  6 17  1  0  0  0  0
  7  1  1  0  0  0  0
  9  2  1  0  0  0  0
 12  4  1  0  0  0  0
 15  5  1  0  0  0  0
 16  6  1  0  0  0  0
 18 19  2  0  0  0  0
 18 23  1  0  0  0  0
 19 20  1  0  0  0  0
 20 25  1  0  0  0  0
 20 21  2  0  0  0  0
 22 21  1  0  0  0  0
 22 26  1  0  0  0  0
 23 22  2  0  0  0  0
 24 19  1  0  0  0  0
 26 33  1  0  0  0  0
 26 27  1  0  0  0  0
 27 28  1  0  0  0  0
 27 29  1  0  0  0  0
 29 30  1  0  0  0  0
 29 31  1  0  0  0  0
 32 31  1  0  0  0  0
 33 32  1  0  0  0  0
M  END
>  <minimizedAffinity>
-4.96521902

$$$$

 OpenBabel03242519233D

 33 35  0  0  0  0  0  0  0  0999 V2000
   37.9970   25.9920   40.8650 C   0  0  0  0  0  0  0  0  0  0  0  0
   37.6520   26.0160   39.4280 C   0  0  0  0  0  0  0  0  0  0  0  0
   36.2860   25.4670   39.1330 C   0  0  0  0  0  0  0  0  0  0  0  0
   36.1190   24.0570   39.6720 C   0  0  0  0  0  0  0  0  0  0  0  0
   36.6990   23.8650   41.0490 C   0  0  0  0  0  0  0  0  0  0  0  0
   37.0170   25.1900   41.7110 C   0  0  0  0  0  0  0  0  0  0  0  0
   39.0000   25.5080   41.0650 H   0  0  0  0  0  0  0  0  0  0  0  0
   37.7740   26.9780   38.9220 H   0  0  0  0  0  0  0  0  0  0  0  0
   38.3700   25.3250   38.8970 H   0  0  0  0  0  0  0  0  0  0  0  0
   35.4410   26.0780   39.4320 H   0  0  0  0  0  0  0  0  0  0  0  0
   36.2320   25.3690   38.0080 H   0  0  0  0  0  0  0  0  0  0  0  0
   36.6610   23.3780   38.9660 H   0  0  0  0  0  0  0  0  0  0  0  0
   35.0550   23.7980   39.6940 H   0  0  0  0  0  0  0  0  0  0  0  0
   36.0060   23.3190   41.7040 H   0  0  0  0  0  0  0  0  0  0  0  0
   37.6590   23.2860   41.0140 H   0  0  0  0  0  0  0  0  0  0  0  0
   37.4620   24.9760   42.6900 H   0  0  0  0  0  0  0  0  0  0  0  0
   36.0560   25.7210   41.8650 H   0  0  0  0  0  0  0  0  0  0  0  0
   38.0730   27.3410   41.4580 C   0  0  0  0  0  0  0  0  0  0  0  0
   38.0280   27.3970   42.8650 C   0  0  0  0  0  0  0  0  0  0  0  0
   38.0960   28.6350   43.5100 C   0  0  0  0  0  0  0  0  0  0  0  0
   38.2040   29.7410   42.7060 N   0  0  0  0  0  0  0  0  0  0  0  0
   38.2440   29.6580   41.3490 C   0  0  0  0  0  0  0  0  0  0  0  0
   38.1790   28.4720   40.7400 N   0  0  0  0  0  0  0  0  0  0  0  0
   37.9470   26.5960   43.5540 H   0  0  0  0  0  0  0  0  0  0  0  0
   38.0680   28.7620   44.5820 H   0  0  0  0  0  0  0  0  0  0  0  0
   38.3570   30.8310   40.5520 N   0  0  0  0  0  0  0  0  0  0  0  0
   38.7510   32.1010   41.1340 C   0  0  0  0  0  3  0  0  0  0  0  0
   38.2350   32.2570   42.1250 H   0  0  0  0  0  0  0  0  0  0  0  0
   38.5770   33.2550   40.2220 C   0  0  0  0  0  3  0  0  0  0  0  0
   38.2790   34.1300   40.8720 H   0  0  0  0  0  0  0  0  0  0  0  0
   37.6490   33.1760   39.2400 O   0  0  0  0  0  0  0  0  0  0  0  0
   37.0620   31.9770   38.9820 C   0  0  0  0  0  2  0  0  0  0  0  0
   38.0930   30.8530   39.1240 C   0  0  0  0  0  2  0  0  0  0  0  0
  1  7  1  0  0  0  0
  1 18  1  0  0  0  0
  1  6  1  0  0  0  0
  2  1  1  0  0  0  0
  3  2  1  0  0  0  0
  3 10  1  0  0  0  0
  3  4  1  0  0  0  0
  4 13  1  0  0  0  0
  4  5  1  0  0  0  0
  5 14  1  0  0  0  0
  5  6  1  0  0  0  0
  6 17  1  0  0  0  0
  6 16  1  0  0  0  0
  8  2  1  0  0  0  0
  9  2  1  0  0  0  0
 11  3  1  0  0  0  0
 12  4  1  0  0  0  0
 15  5  1  0  0  0  0
 18 19  1  0  0  0  0
 19 20  2  0  0  0  0
 19 24  1  0  0  0  0
 20 25  1  0  0  0  0
 21 20  1  0  0  0  0
 22 21  2  0  0  0  0
 23 22  1  0  0  0  0
 23 18  2  0  0  0  0
 26 27  1  0  0  0  0
 26 22  1  0  0  0  0
 27 28  1  0  0  0  0
 29 30  1  0  0  0  0
 29 27  1  0  0  0  0
 31 29  1  0  0  0  0
 32 33  1  0  0  0  0
 32 31  1  0  0  0  0
 33 26  1  0  0  0  0
M  END
>  <minimizedAffinity>
-4.93061829

$$$$

 OpenBabel03242519233D

 33 35  0  0  0  0  0  0  0  0999 V2000
   37.4420   26.8180   42.5160 C   0  0  0  0  0  0  0  0  0  0  0  0
   38.1990   27.3880   43.6490 C   0  0  0  0  0  0  0  0  0  0  0  0
   39.6620   27.0490   43.6210 C   0  0  0  0  0  0  0  0  0  0  0  0
   39.8880   25.5480   43.5620 C   0  0  0  0  0  0  0  0  0  0  0  0
   38.9570   24.8340   42.6170 C   0  0  0  0  0  0  0  0  0  0  0  0
   38.2370   25.8040   41.7040 C   0  0  0  0  0  0  0  0  0  0  0  0
   36.5210   26.2510   42.8470 H   0  0  0  0  0  0  0  0  0  0  0  0
   38.0790   28.4620   43.8140 H   0  0  0  0  0  0  0  0  0  0  0  0
   37.8020   26.9120   44.5940 H   0  0  0  0  0  0  0  0  0  0  0  0
   40.2610   27.5410   42.8640 H   0  0  0  0  0  0  0  0  0  0  0  0
   40.0710   27.3770   44.6220 H   0  0  0  0  0  0  0  0  0  0  0  0
   39.7080   25.1550   44.5950 H   0  0  0  0  0  0  0  0  0  0  0  0
   40.9230   25.3460   43.2630 H   0  0  0  0  0  0  0  0  0  0  0  0
   39.4980   24.1150   41.9870 H   0  0  0  0  0  0  0  0  0  0  0  0
   38.1640   24.2670   43.1730 H   0  0  0  0  0  0  0  0  0  0  0  0
   37.5570   25.2220   41.0690 H   0  0  0  0  0  0  0  0  0  0  0  0
   39.0030   26.2820   41.0600 H   0  0  0  0  0  0  0  0  0  0  0  0
   36.9650   27.8460   41.5710 C   0  0  0  0  0  0  0  0  0  0  0  0
   36.9510   29.1680   42.0580 C   0  0  0  0  0  0  0  0  0  0  0  0
   36.5150   30.2060   41.2290 C   0  0  0  0  0  0  0  0  0  0  0  0
   36.1210   29.8560   39.9630 N   0  0  0  0  0  0  0  0  0  0  0  0
   36.1450   28.5710   39.5190 C   0  0  0  0  0  0  0  0  0  0  0  0
   36.5620   27.5850   40.3160 N   0  0  0  0  0  0  0  0  0  0  0  0
   37.2360   29.5220   43.0150 H   0  0  0  0  0  0  0  0  0  0  0  0
   36.4740   31.2430   41.5270 H   0  0  0  0  0  0  0  0  0  0  0  0
   35.7280   28.2500   38.1970 N   0  0  0  0  0  0  0  0  0  0  0  0
   35.5720   29.2810   37.1860 C   0  0  0  0  0  3  0  0  0  0  0  0
   35.0730   30.1910   37.6260 H   0  0  0  0  0  0  0  0  0  0  0  0
   34.8990   28.8110   35.9540 C   0  0  0  0  0  3  0  0  0  0  0  0
   34.2840   29.6810   35.5780 H   0  0  0  0  0  0  0  0  0  0  0  0
   34.0550   27.7550   36.0330 O   0  0  0  0  0  0  0  0  0  0  0  0
   34.0170   27.0260   37.1800 C   0  0  0  0  0  2  0  0  0  0  0  0
   35.4290   26.8970   37.7600 C   0  0  0  0  0  2  0  0  0  0  0  0
  1  7  1  0  0  0  0
  1  2  1  0  0  0  0
  2  8  1  0  0  0  0
  2  9  1  0  0  0  0
  3  2  1  0  0  0  0
  3 11  1  0  0  0  0
  4  3  1  0  0  0  0
  4 12  1  0  0  0  0
  5 15  1  0  0  0  0
  5  4  1  0  0  0  0
  6  1  1  0  0  0  0
  6  5  1  0  0  0  0
 10  3  1  0  0  0  0
 13  4  1  0  0  0  0
 14  5  1  0  0  0  0
 16  6  1  0  0  0  0
 17  6  1  0  0  0  0
 18 19  1  0  0  0  0
 18  1  1  0  0  0  0
 19 24  1  0  0  0  0
 20 25  1  0  0  0  0
 20 19  2  0  0  0  0
 21 20  1  0  0  0  0
 22 21  2  0  0  0  0
 22 23  1  0  0  0  0
 23 18  2  0  0  0  0
 26 22  1  0  0  0  0
 27 28  1  0  0  0  0
 27 26  1  0  0  0  0
 29 31  1  0  0  0  0
 29 27  1  0  0  0  0
 30 29  1  0  0  0  0
 31 32  1  0  0  0  0
 32 33  1  0  0  0  0
 33 26  1  0  0  0  0
M  END
>  <minimizedAffinity>
-4.9245162

$$$$

 OpenBabel03242519233D

 33 35  0  0  0  0  0  0  0  0999 V2000
   37.3780   30.1550   39.6820 C   0  0  0  0  0  0  0  0  0  0  0  0
   37.1650   29.6100   38.3250 C   0  0  0  0  0  0  0  0  0  0  0  0
   35.7290   29.6440   37.8870 C   0  0  0  0  0  0  0  0  0  0  0  0
   34.8250   28.9230   38.8720 C   0  0  0  0  0  0  0  0  0  0  0  0
   35.1530   29.2120   40.3140 C   0  0  0  0  0  0  0  0  0  0  0  0
   36.0850   30.3980   40.4480 C   0  0  0  0  0  0  0  0  0  0  0  0
   37.9700   29.4560   40.3460 H   0  0  0  0  0  0  0  0  0  0  0  0
   37.7950   30.0290   37.5360 H   0  0  0  0  0  0  0  0  0  0  0  0
   37.4400   28.5140   38.3540 H   0  0  0  0  0  0  0  0  0  0  0  0
   35.3150   30.6170   37.6510 H   0  0  0  0  0  0  0  0  0  0  0  0
   35.6850   29.0350   36.9350 H   0  0  0  0  0  0  0  0  0  0  0  0
   34.9650   27.8270   38.6930 H   0  0  0  0  0  0  0  0  0  0  0  0
   33.7820   29.2010   38.6810 H   0  0  0  0  0  0  0  0  0  0  0  0
   34.2470   29.4260   40.8960 H   0  0  0  0  0  0  0  0  0  0  0  0
   35.6690   28.3420   40.7990 H   0  0  0  0  0  0  0  0  0  0  0  0
   36.3050   30.5300   41.5140 H   0  0  0  0  0  0  0  0  0  0  0  0
   35.5360   31.2910   40.0840 H   0  0  0  0  0  0  0  0  0  0  0  0
   38.1200   31.4310   39.6750 C   0  0  0  0  0  0  0  0  0  0  0  0
   37.3770   32.5750   40.0280 C   0  0  0  0  0  0  0  0  0  0  0  0
   38.0010   33.8260   40.0490 C   0  0  0  0  0  0  0  0  0  0  0  0
   39.3310   33.8530   39.7160 N   0  0  0  0  0  0  0  0  0  0  0  0
   40.0240   32.7330   39.3790 C   0  0  0  0  0  0  0  0  0  0  0  0
   39.4210   31.5420   39.3610 N   0  0  0  0  0  0  0  0  0  0  0  0
   36.3540   32.6400   40.2970 H   0  0  0  0  0  0  0  0  0  0  0  0
   37.5020   34.7470   40.3080 H   0  0  0  0  0  0  0  0  0  0  0  0
   41.4040   32.8050   39.0400 N   0  0  0  0  0  0  0  0  0  0  0  0
   42.1920   33.9860   39.3430 C   0  0  0  0  0  3  0  0  0  0  0  0
   41.6040   34.9210   39.1150 H   0  0  0  0  0  0  0  0  0  0  0  0
   43.5290   33.9920   38.7050 C   0  0  0  0  0  3  0  0  0  0  0  0
   43.7530   35.0700   38.4500 H   0  0  0  0  0  0  0  0  0  0  0  0
   43.7100   33.2860   37.5640 O   0  0  0  0  0  0  0  0  0  0  0  0
   42.7370   32.4260   37.1590 C   0  0  0  0  0  2  0  0  0  0  0  0
   42.1210   31.7300   38.3760 C   0  0  0  0  0  2  0  0  0  0  0  0
  1  7  1  0  0  0  0
  1  6  1  0  0  0  0
  2  9  1  0  0  0  0
  2  1  1  0  0  0  0
  3  2  1  0  0  0  0
  3  4  1  0  0  0  0
  4  5  1  0  0  0  0
  5  6  1  0  0  0  0
  5 15  1  0  0  0  0
  5 14  1  0  0  0  0
  6 16  1  0  0  0  0
  8  2  1  0  0  0  0
 10  3  1  0  0  0  0
 11  3  1  0  0  0  0
 12  4  1  0  0  0  0
 13  4  1  0  0  0  0
 17  6  1  0  0  0  0
 18  1  1  0  0  0  0
 18 19  1  0  0  0  0
 19 20  2  0  0  0  0
 19 24  1  0  0  0  0
 20 25  1  0  0  0  0
 21 20  1  0  0  0  0
 22 21  2  0  0  0  0
 23 22  1  0  0  0  0
 23 18  2  0  0  0  0
 26 27  1  0  0  0  0
 26 22  1  0  0  0  0
 28 27  1  0  0  0  0
 29 27  1  0  0  0  0
 30 29  1  0  0  0  0
 31 29  1  0  0  0  0
 32 31  1  0  0  0  0
 32 33  1  0  0  0  0
 33 26  1  0  0  0  0
M  END
>  <minimizedAffinity>
-4.92055035

$$$$
