
 OpenBabel03242510073D

 27 29  0  0  0  0  0  0  0  0999 V2000
   44.7560   32.8840   41.2260 Br  0  0  0  0  0  0  0  0  0  0  0  0
   46.3820   33.8510   40.9340 C   0  0  0  0  0  0  0  0  0  0  0  0
   46.8650   34.6950   41.8970 C   0  0  0  0  0  0  0  0  0  0  0  0
   48.0490   35.4090   41.7030 C   0  0  0  0  0  0  0  0  0  0  0  0
   48.7120   35.2380   40.5130 C   0  0  0  0  0  0  0  0  0  0  0  0
   48.1900   34.3810   39.5740 C   0  0  0  0  0  0  0  0  0  0  0  0
   47.0370   33.6770   39.7470 C   0  0  0  0  0  0  0  0  0  0  0  0
   48.3860   36.0680   42.5070 H   0  0  0  0  0  0  0  0  0  0  0  0
   49.6340   35.7850   40.3440 H   0  0  0  0  0  0  0  0  0  0  0  0
   48.7550   34.2790   38.6440 H   0  0  0  0  0  0  0  0  0  0  0  0
   45.6290   34.0570   45.2870 C   0  0  0  0  0  0  0  0  0  0  0  0
   44.7140   35.1020   45.5110 C   0  0  0  0  0  0  0  0  0  0  0  0
   44.5360   36.0290   44.4640 C   0  0  0  0  0  0  0  0  0  0  0  0
   45.2470   35.8610   43.3210 N   0  0  0  0  0  0  0  0  0  0  0  0
   46.1210   34.8400   43.1440 C   0  0  0  0  0  0  0  0  0  0  0  0
   46.2920   33.9540   44.1410 N   0  0  0  0  0  0  0  0  0  0  0  0
   45.8220   33.3040   46.0410 H   0  0  0  0  0  0  0  0  0  0  0  0
   44.2090   35.1320   46.4570 H   0  0  0  0  0  0  0  0  0  0  0  0
   43.8410   36.8240   44.6300 H   0  0  0  0  0  0  0  0  0  0  0  0
   46.5970   32.8190   38.6990 N   0  0  0  0  0  0  0  0  0  0  0  0
   46.8720   31.4030   38.5450 C   0  0  0  0  0  3  0  0  0  0  0  0
   47.8100   31.1650   39.1250 H   0  0  0  0  0  0  0  0  0  0  0  0
   47.1330   30.9840   37.1350 C   0  0  0  0  0  3  0  0  0  0  0  0
   46.4820   30.0880   36.9260 H   0  0  0  0  0  0  0  0  0  0  0  0
   46.7820   31.9450   36.2150 O   0  0  0  0  0  0  0  0  0  0  0  0
   45.5560   32.4810   36.5460 C   0  0  0  0  0  2  0  0  0  0  0  0
   45.7750   33.4910   37.6810 C   0  0  0  0  0  2  0  0  0  0  0  0
  2  1  1  0  0  0  0
  2  3  1  0  0  0  0
  3 15  1  0  0  0  0
  4  3  2  0  0  0  0
  4  8  1  0  0  0  0
  5  4  1  0  0  0  0
  6  7  1  0  0  0  0
  6  5  2  0  0  0  0
  7  2  2  0  0  0  0
  9  5  1  0  0  0  0
 10  6  1  0  0  0  0
 11 12  1  0  0  0  0
 11 17  1  0  0  0  0
 12 18  1  0  0  0  0
 13 19  1  0  0  0  0
 13 12  2  0  0  0  0
 14 13  1  0  0  0  0
 15 14  2  0  0  0  0
 15 16  1  0  0  0  0
 16 11  2  0  0  0  0
 20  7  1  0  0  0  0
 21 20  1  0  0  0  0
 21 22  1  0  0  0  0
 23 21  1  0  0  0  0
 24 23  1  0  0  0  0
 25 26  1  0  0  0  0
 25 23  1  0  0  0  0
 26 27  1  0  0  0  0
 27 20  1  0  0  0  0
M  END
>  <minimizedAffinity>
-5.24718475

>  <minimizedRMSD>
0.264369637

$$$$
