REMARK  Name = 
REMARK  2 active torsions:
REMARK  status: ('A' for Active; 'I' for Inactive)
REMARK    1  A    between atoms: C_5  and  C_9
REMARK    2  A    between atoms: C_13  and  N_20
REMARK                            x       y       z     vdW  Elec       q    Type
REMARK                         _______ _______ _______ _____ _____    ______ ____
ROOT
ATOM      1 BR   UNL     1      44.589  33.135  41.183  0.00  0.00    +0.000 Br
ATOM      2  C   UNL     1      46.283  33.993  40.946  0.00  0.00    +0.000 A 
ATOM      3  C   UNL     1      46.826  34.739  41.957  0.00  0.00    +0.000 A 
ATOM      4  C   UNL     1      48.060  35.373  41.803  0.00  0.00    +0.000 A 
ATOM      5  C   UNL     1      48.712  35.224  40.604  0.00  0.00    +0.000 A 
ATOM      6  C   UNL     1      48.129  34.466  39.616  0.00  0.00    +0.000 A 
ATOM      7  C   UNL     1      46.926  33.841  39.749  0.00  0.00    +0.000 A 
ATOM      8  H   UNL     1      48.444  35.956  42.645  0.00  0.00    +0.000 HD
ATOM      9  H   UNL     1      49.672  35.710  40.466  0.00  0.00    +0.000 HD
ATOM     10  H   UNL     1      48.687  34.378  38.681  0.00  0.00    +0.000 HD
ENDROOT
BRANCH   3  15
ATOM     11  C   UNL     1      45.598  34.035  45.337  0.00  0.00    +0.000 A 
ATOM     12  C   UNL     1      44.703  35.090  45.593  0.00  0.00    +0.000 A 
ATOM     13  C   UNL     1      44.535  36.047  44.572  0.00  0.00    +0.000 A 
ATOM     14  N   UNL     1      45.237  35.896  43.420  0.00  0.00    +0.000 NA
ATOM     15  C   UNL     1      46.091  34.865  43.212  0.00  0.00    +0.000 A 
ATOM     16  N   UNL     1      46.252  33.951  44.184  0.00  0.00    +0.000 NA
ATOM     17  H   UNL     1      45.782  33.260  46.070  0.00  0.00    +0.000 HD
ATOM     18  H   UNL     1      44.204  35.105  46.543  0.00  0.00    +0.000 HD
ATOM     19  H   UNL     1      43.856  36.850  44.762  0.00  0.00    +0.000 HD
ENDBRANCH   3  15
BRANCH   7  20
ATOM     20  N   UNL     1      46.426  33.083  38.653  0.00  0.00    +0.000 N 
ATOM     21  C   UNL     1      45.570  31.913  38.708  0.00  0.00    +0.000 C 
ATOM     22  H   UNL     1      45.693  31.439  39.725  0.00  0.00    +0.000 HD
ATOM     23  C   UNL     1      45.917  30.858  37.709  0.00  0.00    +0.000 C 
ATOM     24  H   UNL     1      44.963  30.572  37.180  0.00  0.00    +0.000 HD
ATOM     25  O   UNL     1      46.784  31.302  36.738  0.00  0.00    +0.000 OA
ATOM     26  C   UNL     1      46.392  32.548  36.298  0.00  0.00    +0.000 C 
ATOM     27  C   UNL     1      46.853  33.581  37.336  0.00  0.00    +0.000 C 
ENDBRANCH   7  20
TORSDOF 2
