REMARK  Name = 
REMARK  6 active torsions:
REMARK  status: ('A' for Active; 'I' for Inactive)
REMARK    1  A    between atoms: C_1  and  O_14
REMARK    2  A    between atoms: C_2  and  C_11
REMARK    3  A    between atoms: C_6  and  O_15
REMARK    4  A    between atoms: C_7  and  O_13
REMARK    5  A    between atoms: O_15  and  C_18
REMARK    6  A    between atoms: C_22  and  N_37
REMARK                            x       y       z     vdW  Elec       q    Type
REMARK                         _______ _______ _______ _____ _____    ______ ____
ROOT
ATOM      1  C   UNL     1      47.409  33.016  44.403  0.00  0.00    +0.000 C 
ATOM      2  C   UNL     1      47.230  33.290  42.954  0.00  0.00    +0.000 C 
ATOM      3  C   UNL     1      47.048  32.010  42.139  0.00  0.00    +0.000 C 
ATOM      4  O   UNL     1      48.165  31.236  42.469  0.00  0.00    +0.000 OA
ATOM      5  C   UNL     1      48.069  30.722  43.743  0.00  0.00    +0.000 C 
ATOM      6  C   UNL     1      47.192  31.513  44.662  0.00  0.00    +0.000 C 
ATOM      7  H   UNL     1      48.442  33.237  44.727  0.00  0.00    +0.000 HD
ATOM      8  H   UNL     1      48.170  33.771  42.572  0.00  0.00    +0.000 HD
ATOM      9  H   UNL     1      47.092  32.210  41.069  0.00  0.00    +0.000 HD
ATOM     10  H   UNL     1      46.102  31.501  42.402  0.00  0.00    +0.000 HD
ATOM     11  H   UNL     1      49.105  30.779  44.180  0.00  0.00    +0.000 HD
ATOM     12  H   UNL     1      47.786  29.657  43.777  0.00  0.00    +0.000 HD
ATOM     13  H   UNL     1      46.114  31.361  44.467  0.00  0.00    +0.000 HD
ENDROOT
BRANCH   2  18
ATOM     14  C   UNL     1      44.978  36.175  42.776  0.00  0.00    +0.000 A 
ATOM     15  C   UNL     1      43.883  35.711  41.984  0.00  0.00    +0.000 A 
ATOM     16  C   UNL     1      43.978  34.371  41.531  0.00  0.00    +0.000 A 
ATOM     17  N   UNL     1      45.062  33.636  41.863  0.00  0.00    +0.000 NA
ATOM     18  C   UNL     1      46.065  34.135  42.615  0.00  0.00    +0.000 A 
ATOM     19  N   UNL     1      46.025  35.406  43.073  0.00  0.00    +0.000 NA
ATOM     20  H   UNL     1      43.052  36.344  41.756  0.00  0.00    +0.000 HD
ATOM     21  H   UNL     1      43.184  33.972  40.933  0.00  0.00    +0.000 HD
BRANCH  14  22
ATOM     22  O   UNL     1      44.899  37.458  43.217  0.00  0.00    +0.000 OA
ATOM     23  H   UNL     1      45.395  38.199  42.731  0.00  0.00    +0.000 HD
ENDBRANCH  14  22
ENDBRANCH   2  18
BRANCH   1  24
ATOM     24  O   UNL     1      46.532  33.726  45.227  0.00  0.00    +0.000 OA
ATOM     25  H   UNL     1      45.715  33.182  45.386  0.00  0.00    +0.000 HD
ENDBRANCH   1  24
BRANCH   6  26
ATOM     26  O   UNL     1      47.457  31.301  45.996  0.00  0.00    +0.000 OA
BRANCH  26  29
ATOM     27  F   UNL     1      45.923  29.095  46.280  0.00  0.00    +0.000 F 
ATOM     28  C   UNL     1      45.999  30.102  47.173  0.00  0.00    +0.000 A 
ATOM     29  C   UNL     1      46.750  31.256  47.113  0.00  0.00    +0.000 A 
ATOM     30  C   UNL     1      46.617  32.105  48.200  0.00  0.00    +0.000 A 
ATOM     31  C   UNL     1      45.818  31.889  49.300  0.00  0.00    +0.000 A 
ATOM     32  C   UNL     1      45.097  30.734  49.310  0.00  0.00    +0.000 A 
ATOM     33  C   UNL     1      45.164  29.826  48.269  0.00  0.00    +0.000 A 
ATOM     34  H   UNL     1      47.248  33.004  48.078  0.00  0.00    +0.000 HD
ATOM     35  H   UNL     1      45.825  32.653  50.071  0.00  0.00    +0.000 HD
ATOM     36  H   UNL     1      44.464  30.568  50.186  0.00  0.00    +0.000 HD
BRANCH  33  37
ATOM     37  N   UNL     1      44.349  28.670  48.433  0.00  0.00    +0.000 N 
ATOM     38  C   UNL     1      43.983  28.059  49.697  0.00  0.00    +0.000 C 
ATOM     39  H   UNL     1      44.627  28.327  50.537  0.00  0.00    +0.000 HD
ATOM     40  C   UNL     1      44.131  26.552  49.452  0.00  0.00    +0.000 C 
ATOM     41  H   UNL     1      44.087  25.958  50.362  0.00  0.00    +0.000 HD
ATOM     42  O   UNL     1      43.111  26.229  48.590  0.00  0.00    +0.000 OA
ATOM     43  C   UNL     1      43.242  26.747  47.330  0.00  0.00    +0.000 C 
ATOM     44  C   UNL     1      43.866  28.086  47.215  0.00  0.00    +0.000 C 
ENDBRANCH  33  37
ENDBRANCH  26  29
ENDBRANCH   6  26
TORSDOF 6
