
     RDKit          3D

 39 41  0  0  0  0  0  0  0  0999 V2000
   46.3504   32.6743   45.0364 C   0  0  0  0  0  0  0  0  0  0  0  0
   44.5661   35.8586   44.6110 C   0  0  0  0  0  0  0  0  0  0  0  0
   45.0210   36.2967   43.3429 C   0  0  0  0  0  0  0  0  0  0  0  0
   45.9522   35.4720   42.6901 C   0  0  0  0  0  0  0  0  0  0  0  0
   46.3655   34.3368   43.2674 N   0  0  0  0  0  0  0  0  0  0  0  0
   45.8822   33.9769   44.4932 C   0  0  0  0  0  0  0  0  0  0  0  0
   45.0112   34.7083   45.1517 N   0  0  0  0  0  0  0  0  0  0  0  0
   46.8494   32.9365   46.4403 C   0  0  0  0  0  0  0  0  0  0  0  0
   46.2131   32.0420   47.4292 C   0  0  0  0  0  0  0  0  0  0  0  0
   45.8413   32.2647   48.7268 C   0  0  0  0  0  0  0  0  0  0  0  0
   45.2299   31.3580   49.5367 C   0  0  0  0  0  0  0  0  0  0  0  0
   44.9735   30.1309   48.9948 C   0  0  0  0  0  0  0  0  0  0  0  0
   45.3357   29.8553   47.6762 C   0  0  0  0  0  0  0  0  0  0  0  0
   45.9635   30.8150   46.8795 C   0  0  0  0  0  0  0  0  0  0  0  0
   45.3398   32.1699   45.2196 H   0  0  0  0  0  0  0  0  0  0  0  0
   47.0311   32.1399   44.4115 H   0  0  0  0  0  0  0  0  0  0  0  0
   43.8476   36.4171   45.2036 H   0  0  0  0  0  0  0  0  0  0  0  0
   44.6191   37.2299   42.9730 H   0  0  0  0  0  0  0  0  0  0  0  0
   46.2918   35.8184   41.7226 H   0  0  0  0  0  0  0  0  0  0  0  0
   47.9515   32.7436   46.4197 H   0  0  0  0  0  0  0  0  0  0  0  0
   46.7039   33.9589   46.7684 H   0  0  0  0  0  0  0  0  0  0  0  0
   46.1094   33.2875   49.0214 H   0  0  0  0  0  0  0  0  0  0  0  0
   45.0320   31.7553   50.5181 H   0  0  0  0  0  0  0  0  0  0  0  0
   44.4770   29.4985   49.7538 H   0  0  0  0  0  0  0  0  0  0  0  0
   45.0068   28.8123   47.5336 H   0  0  0  0  0  0  0  0  0  0  0  0
   46.1100   30.0358   45.6766 N   0  0  0  0  0  0  0  0  0  0  0  0
   45.3435   29.1814   44.7923 C   0  0  2  0  0  0  0  0  0  0  0  0
   44.2413   29.3083   44.9319 H   0  0  0  0  0  0  0  0  0  0  0  0
   45.6789   29.4623   43.3691 C   0  0  1  0  0  0  0  0  0  0  0  0
   45.5457   28.5434   42.7184 H   0  0  0  0  0  0  0  0  0  0  0  0
   46.9403   29.9397   43.1183 O   0  0  0  0  0  0  0  0  0  0  0  0
   47.8402   29.4589   44.0690 C   0  0  0  0  0  0  0  0  0  0  0  0
   47.5309   30.2345   45.3334 C   0  0  0  0  0  0  0  0  0  0  0  0
   45.6440   28.1214   44.9943 H   0  0  0  0  0  0  0  0  0  0  0  0
   44.9526   30.2541   43.0147 H   0  0  0  0  0  0  0  0  0  0  0  0
   47.6481   28.3969   44.2180 H   0  0  0  0  0  0  0  0  0  0  0  0
   48.8740   29.6248   43.7728 H   0  0  0  0  0  0  0  0  0  0  0  0
   48.1083   29.7425   46.1433 H   0  0  0  0  0  0  0  0  0  0  0  0
   47.8237   31.2790   45.2772 H   0  0  0  0  0  0  0  0  0  0  0  0
  1  8  1  0
  2  7  2  0
  3  2  1  0
  4  5  1  0
  4  3  2  0
  5  6  2  0
  6  1  1  0
  6  7  1  0
  8  9  1  0
  9 10  2  0
 10 11  1  0
 12 11  2  0
 13 12  1  0
 14  9  1  0
 14 13  2  0
  1 15  1  0
  1 16  1  0
  2 17  1  0
  3 18  1  0
  4 19  1  0
  8 20  1  0
  8 21  1  0
 10 22  1  0
 11 23  1  0
 12 24  1  0
 13 25  1  0
 26 27  1  0
 27 28  1  6
 27 29  1  0
 29 30  1  6
 29 31  1  0
 31 32  1  0
 32 33  1  0
 33 26  1  0
 27 34  1  0
 29 35  1  0
 32 36  1  0
 32 37  1  0
 33 38  1  0
 33 39  1  0
 14 26  1  0
M  ISO  8  15   8  16   8  17  14  18  14  19  14  20   8  21   8  22  14
M  ISO  5  23  14  24  14  25  14  28   8  30  15
M  END
>  <DihAtoms>  (1) 
8,13,25,26

>  <DihDeg>  (1) 
-101.36340475816405

$$$$
