
 OpenBabel03242510073D

 27 29  0  0  0  0  0  0  0  0999 V2000
   44.7560   32.8840   41.2260 Br  0  0  0  0  0  0  0  0  0  0  0  0
   46.3820   33.8510   40.9340 C   0  0  0  0  0  0  0  0  0  0  0  0
   46.8650   34.6950   41.8980 C   0  0  0  0  0  0  0  0  0  0  0  0
   48.0480   35.4090   41.7030 C   0  0  0  0  0  0  0  0  0  0  0  0
   48.7120   35.2380   40.5130 C   0  0  0  0  0  0  0  0  0  0  0  0
   48.1900   34.3810   39.5740 C   0  0  0  0  0  0  0  0  0  0  0  0
   47.0370   33.6770   39.7470 C   0  0  0  0  0  0  0  0  0  0  0  0
   48.3860   36.0680   42.5080 H   0  0  0  0  0  0  0  0  0  0  0  0
   49.6330   35.7860   40.3440 H   0  0  0  0  0  0  0  0  0  0  0  0
   48.7540   34.2790   38.6440 H   0  0  0  0  0  0  0  0  0  0  0  0
   45.6290   34.0570   45.2880 C   0  0  0  0  0  0  0  0  0  0  0  0
   44.7140   35.1020   45.5110 C   0  0  0  0  0  0  0  0  0  0  0  0
   44.5350   36.0280   44.4650 C   0  0  0  0  0  0  0  0  0  0  0  0
   45.2470   35.8600   43.3210 N   0  0  0  0  0  0  0  0  0  0  0  0
   46.1200   34.8400   43.1450 C   0  0  0  0  0  0  0  0  0  0  0  0
   46.2920   33.9550   44.1410 N   0  0  0  0  0  0  0  0  0  0  0  0
   45.8230   33.3040   46.0420 H   0  0  0  0  0  0  0  0  0  0  0  0
   44.2090   35.1320   46.4580 H   0  0  0  0  0  0  0  0  0  0  0  0
   43.8400   36.8240   44.6300 H   0  0  0  0  0  0  0  0  0  0  0  0
   46.5970   32.8190   38.6990 N   0  0  0  0  0  0  0  0  0  0  0  0
   46.8710   31.4030   38.5450 C   0  0  0  0  0  3  0  0  0  0  0  0
   47.8100   31.1660   39.1260 H   0  0  0  0  0  0  0  0  0  0  0  0
   47.1330   30.9840   37.1360 C   0  0  0  0  0  3  0  0  0  0  0  0
   46.4810   30.0880   36.9270 H   0  0  0  0  0  0  0  0  0  0  0  0
   46.7830   31.9440   36.2150 O   0  0  0  0  0  0  0  0  0  0  0  0
   45.5560   32.4810   36.5460 C   0  0  0  0  0  2  0  0  0  0  0  0
   45.7740   33.4910   37.6810 C   0  0  0  0  0  2  0  0  0  0  0  0
  2  1  1  0  0  0  0
  2  3  1  0  0  0  0
  3 15  1  0  0  0  0
  4  3  2  0  0  0  0
  4  8  1  0  0  0  0
  5  4  1  0  0  0  0
  6  7  1  0  0  0  0
  6  5  2  0  0  0  0
  7  2  2  0  0  0  0
  9  5  1  0  0  0  0
 10  6  1  0  0  0  0
 11 12  1  0  0  0  0
 11 17  1  0  0  0  0
 12 18  1  0  0  0  0
 13 19  1  0  0  0  0
 13 12  2  0  0  0  0
 14 13  1  0  0  0  0
 15 14  2  0  0  0  0
 15 16  1  0  0  0  0
 16 11  2  0  0  0  0
 20  7  1  0  0  0  0
 21 20  1  0  0  0  0
 21 22  1  0  0  0  0
 23 21  1  0  0  0  0
 24 23  1  0  0  0  0
 25 26  1  0  0  0  0
 25 23  1  0  0  0  0
 26 27  1  0  0  0  0
 27 20  1  0  0  0  0
M  END
>  <minimizedAffinity>
-5.24686337

>  <minimizedRMSD>
0.866890609

$$$$
