
     RDKit          3D

 33 35  0  0  0  0  0  0  0  0999 V2000
   45.5983   34.0347   45.3373 C   0  0  0  0  0  0  0  0  0  0  0  0
   44.7033   35.0896   45.5929 C   0  0  0  0  0  0  0  0  0  0  0  0
   44.5351   36.0474   44.5720 C   0  0  0  0  0  0  0  0  0  0  0  0
   45.2371   35.8958   43.4201 N   0  0  0  0  0  0  0  0  0  0  0  0
   46.0906   34.8646   43.2115 C   0  0  0  0  0  0  0  0  0  0  0  0
   46.2519   33.9506   44.1842 N   0  0  0  0  0  0  0  0  0  0  0  0
   44.5894   33.1349   41.1832 Br  0  0  0  0  0  0  0  0  0  0  0  0
   46.2830   33.9935   40.9456 C   0  0  0  0  0  0  0  0  0  0  0  0
   46.8260   34.7394   41.9574 C   0  0  0  0  0  0  0  0  0  0  0  0
   48.0601   35.3731   41.8027 C   0  0  0  0  0  0  0  0  0  0  0  0
   48.7120   35.2244   40.6039 C   0  0  0  0  0  0  0  0  0  0  0  0
   48.1288   34.4661   39.6164 C   0  0  0  0  0  0  0  0  0  0  0  0
   46.9263   33.8408   39.7489 C   0  0  0  0  0  0  0  0  0  0  0  0
   45.7821   33.2602   46.0698 H   0  0  0  0  0  0  0  0  0  0  0  0
   44.2038   35.1050   46.5427 H   0  0  0  0  0  0  0  0  0  0  0  0
   43.8563   36.8502   44.7622 H   0  0  0  0  0  0  0  0  0  0  0  0
   48.4444   35.9558   42.6455 H   0  0  0  0  0  0  0  0  0  0  0  0
   49.6720   35.7098   40.4663 H   0  0  0  0  0  0  0  0  0  0  0  0
   48.6867   34.3780   38.6809 H   0  0  0  0  0  0  0  0  0  0  0  0
   46.4263   33.0829   38.6530 N   0  0  0  0  0  0  0  0  0  0  0  0
   45.1782   32.3459   38.5871 C   0  0  1  0  0  0  0  0  0  0  0  0
   44.8586   32.1078   39.6432 H   0  0  0  0  0  0  0  0  0  0  0  0
   45.2815   31.0369   37.8747 C   0  0  2  0  0  0  0  0  0  0  0  0
   44.4437   30.9998   37.1208 H   0  0  0  0  0  0  0  0  0  0  0  0
   46.4524   30.9025   37.1653 O   0  0  0  0  0  0  0  0  0  0  0  0
   46.7189   32.0689   36.4804 C   0  0  0  0  0  0  0  0  0  0  0  0
   47.3100   33.0756   37.4771 C   0  0  0  0  0  0  0  0  0  0  0  0
   44.3541   32.9958   38.1973 H   0  0  0  0  0  0  0  0  0  0  0  0
   45.0956   30.1525   38.5374 H   0  0  0  0  0  0  0  0  0  0  0  0
   45.7391   32.5046   36.1350 H   0  0  0  0  0  0  0  0  0  0  0  0
   47.4181   31.9510   35.6256 H   0  0  0  0  0  0  0  0  0  0  0  0
   47.3192   34.0471   36.9587 H   0  0  0  0  0  0  0  0  0  0  0  0
   48.3157   32.7029   37.7145 H   0  0  0  0  0  0  0  0  0  0  0  0
  1  2  2  0
  3  2  1  0
  4  3  2  0
  5  4  1  0
  5  6  2  0
  6  1  1  0
  8  7  1  0
  8  9  2  0
  9  5  1  0
 10  9  1  0
 11 10  2  0
 12 13  2  0
 12 11  1  0
 13  8  1  0
  1 14  1  0
  2 15  1  0
  3 16  1  0
 10 17  1  0
 11 18  1  0
 12 19  1  0
 20 21  1  0
 21 22  1  1
 21 23  1  0
 23 24  1  6
 23 25  1  0
 25 26  1  0
 26 27  1  0
 27 20  1  0
 21 28  1  0
 23 29  1  0
 26 30  1  0
 26 31  1  0
 27 32  1  0
 27 33  1  0
 13 20  1  0
M  ISO  8  14  14  15  14  16  14  17  14  18  14  19  14  22   8  24  15
M  END
>  <DihAtoms>  (1) 
11,12,19,20

>  <DihDeg>  (1) 
-119.99892948098385

$$$$
