
 OpenBabel03252507463D

 40 42  0  0  1  0  0  0  0  0999 V2000
   48.7500   33.4410   40.4120 C   0  0  0  0  0  0  0  0  0  0  0  0
   48.7910   32.7370   39.2240 C   0  0  0  0  0  0  0  0  0  0  0  0
   49.6160   31.6330   39.0650 C   0  0  0  0  0  0  0  0  0  0  0  0
   50.3870   31.2780   40.1460 N   0  0  0  0  0  0  0  0  0  0  0  0
   50.3200   31.9880   41.2860 C   0  0  0  0  0  0  0  0  0  0  0  0
   49.5240   33.0390   41.4150 N   0  0  0  0  0  0  0  0  0  0  0  0
   49.6510   31.0800   38.1370 H   0  0  0  0  0  0  0  0  0  0  0  0
   50.9090   31.7410   42.1600 H   0  0  0  0  0  0  0  0  0  0  0  0
   47.8400   34.5990   40.4800 C   0  0  0  0  0  0  0  0  0  0  0  0
   47.0400   34.5270   39.7130 H   0  0  0  0  0  0  0  0  0  0  0  0
   48.3800   35.5530   40.2780 H   0  0  0  0  0  0  0  0  0  0  0  0
   47.1250   34.7030   41.8040 C   0  0  0  0  0  0  0  0  0  0  0  0
   47.5050   35.6030   42.3350 H   0  0  0  0  0  0  0  0  0  0  0  0
   47.3760   33.7940   42.3870 H   0  0  0  0  0  0  0  0  0  0  0  0
   45.6430   34.7220   41.6930 C   0  0  0  0  0  0  0  0  0  0  0  0
   44.8900   35.6550   42.4660 C   0  0  0  0  0  0  0  0  0  0  0  0
   43.1550   35.2850   41.9820 S   0  0  0  0  0  0  0  0  0  0  0  0
   43.7500   33.9120   40.8000 C   0  0  0  0  0  0  0  0  0  0  0  0
   44.8790   33.9610   40.9420 N   0  0  0  0  0  0  0  0  0  0  0  0
   45.2690   36.3860   43.1560 H   0  0  0  0  0  0  0  0  0  0  0  0
   42.8770   33.1420   40.0310 O   0  0  0  0  0  0  0  0  0  0  0  0
   41.3340   32.9310   37.8900 O   0  0  0  0  0  0  0  0  0  0  0  0
   41.9700   33.9430   38.8400 P   0  0  0  0  0  0  0  0  0  0  0  0
   40.7650   34.8320   39.6110 O   0  0  0  0  0  0  0  0  0  0  0  0
   40.0050   34.8980   38.9960 H   0  0  0  0  0  0  0  0  0  0  0  0
   42.9790   35.0140   37.9880 O   0  0  0  0  0  0  0  0  0  0  0  0
   42.6270   35.2880   37.1260 H   0  0  0  0  0  0  0  0  0  0  0  0
   47.7510   33.2540   37.8350 S   0  0  0  0  0  0  0  0  0  0  0  0
   48.0670   32.8150   35.2070 C   0  0  2  0  0  3  0  0  0  0  0  0
   47.8500   32.0540   36.5180 C   0  0  2  0  0  3  0  0  0  0  0  0
   46.6400   31.3600   36.4910 O   0  0  0  0  0  0  0  0  0  0  0  0
   45.6890   32.2160   35.9340 C   0  0  0  0  0  2  0  0  0  0  0  0
   45.8010   32.0610   34.4350 C   0  0  2  0  0  3  0  0  0  0  0  0
   47.2710   32.1910   34.0840 C   0  0  1  0  0  3  0  0  0  0  0  0
   49.4120   32.7450   34.8430 O   0  0  0  0  0  0  0  0  0  0  0  0
   49.5030   33.1790   33.9810 H   0  0  0  0  0  0  0  0  0  0  0  0
   45.0070   32.9970   33.7710 O   0  0  0  0  0  0  0  0  0  0  0  0
   45.3200   33.1450   32.8480 H   0  0  0  0  0  0  0  0  0  0  0  0
   47.4040   33.0110   32.9720 O   0  0  0  0  0  0  0  0  0  0  0  0
   47.7530   33.9030   33.1530 H   0  0  0  0  0  0  0  0  0  0  0  0
  1  9  1  0  0  0  0
  1  6  1  0  0  0  0
  2  1  2  0  0  0  0
  3  2  1  0  0  0  0
  3  4  2  0  0  0  0
  4  5  1  0  0  0  0
  5  6  2  0  0  0  0
  5  8  1  0  0  0  0
  7  3  1  0  0  0  0
  9 12  1  0  0  0  0
 10  9  1  0  0  0  0
 11  9  1  0  0  0  0
 12 13  1  0  0  0  0
 12 14  1  0  0  0  0
 15 12  1  0  0  0  0
 15 16  2  0  0  0  0
 16 20  1  0  0  0  0
 17 16  1  0  0  0  0
 18 19  2  0  0  0  0
 18 17  1  0  0  0  0
 19 15  1  0  0  0  0
 21 18  1  0  0  0  0
 22 23  2  0  0  0  0
 23 24  1  0  0  0  0
 23 21  1  0  0  0  0
 25 24  1  0  0  0  0
 26 23  1  0  0  0  0
 27 26  1  0  0  0  0
 28  2  1  0  0  0  0
 29 35  1  6  0  0  0
 29 30  1  0  0  0  0
 30 28  1  1  0  0  0
 31 30  1  0  0  0  0
 32 31  1  0  0  0  0
 33 37  1  6  0  0  0
 33 32  1  0  0  0  0
 34 39  1  6  0  0  0
 34 33  1  0  0  0  0
 34 29  1  0  0  0  0
 36 35  1  0  0  0  0
 38 37  1  0  0  0  0
 39 40  1  0  0  0  0
M  END
>  <minimizedAffinity>
-6.5911274

>  <minimizedRMSD>
3.90917611

$$$$
