
     RDKit          3D

 45 47  0  0  0  0  0  0  0  0999 V2000
   45.1355   33.5000   41.1541 F   0  0  0  0  0  0  0  0  0  0  0  0
   46.3348   34.0834   41.0483 C   0  0  0  0  0  0  0  0  0  0  0  0
   46.8406   34.8012   42.1184 C   0  0  0  0  0  0  0  0  0  0  0  0
   48.0762   35.4354   42.0900 C   0  0  0  0  0  0  0  0  0  0  0  0
   48.8529   35.3512   40.9336 C   0  0  0  0  0  0  0  0  0  0  0  0
   48.3153   34.6258   39.8857 C   0  0  0  0  0  0  0  0  0  0  0  0
   47.1092   34.0005   39.8976 C   0  0  0  0  0  0  0  0  0  0  0  0
   45.4519   34.0156   45.4232 C   0  0  0  0  0  0  0  0  0  0  0  0
   44.6041   35.1321   45.6541 C   0  0  0  0  0  0  0  0  0  0  0  0
   44.5196   36.1465   44.6663 C   0  0  0  0  0  0  0  0  0  0  0  0
   45.2749   35.9750   43.5393 N   0  0  0  0  0  0  0  0  0  0  0  0
   46.0607   34.9132   43.3553 C   0  0  0  0  0  0  0  0  0  0  0  0
   46.1444   33.9487   44.2885 N   0  0  0  0  0  0  0  0  0  0  0  0
   45.5168   33.0246   46.4202 N   0  0  0  0  0  0  0  0  0  0  0  0
   46.6780   33.3102   38.7991 O   0  0  0  0  0  0  0  0  0  0  0  0
   48.0627   34.6735   36.9986 O   0  0  0  0  0  0  0  0  0  0  0  0
   47.3294   33.3754   37.2495 P   0  0  2  0  0  0  0  0  0  0  0  0
   46.0542   33.1929   36.1246 O   0  0  0  0  0  0  0  0  0  0  0  0
   48.3797   32.0968   36.9317 O   0  0  0  0  0  0  0  0  0  0  0  0
   48.4102   35.9838   42.9717 H   0  0  0  0  0  0  0  0  0  0  0  0
   49.8056   35.8582   40.9542 H   0  0  0  0  0  0  0  0  0  0  0  0
   49.0221   34.6365   39.0603 H   0  0  0  0  0  0  0  0  0  0  0  0
   44.0340   35.2173   46.5544 H   0  0  0  0  0  0  0  0  0  0  0  0
   43.8904   36.9984   44.8118 H   0  0  0  0  0  0  0  0  0  0  0  0
   46.3782   32.6822   46.9404 H   0  0  0  0  0  0  0  0  0  0  0  0
   44.6729   32.4867   46.7770 H   0  0  0  0  0  0  0  0  0  0  0  0
   45.3767   32.6127   36.5415 H   0  0  0  0  0  0  0  0  0  0  0  0
   49.4578   31.8633   34.0405 O   0  0  0  0  0  0  0  0  0  0  0  0
   49.1578   30.8838   35.0009 C   0  0  1  0  0  0  0  0  0  0  0  0
   48.0139   31.2869   35.8985 C   0  0  2  0  0  0  0  0  0  0  0  0
   47.0131   31.8009   35.0879 O   0  0  0  0  0  0  0  0  0  0  0  0
   46.4138   30.6896   34.4693 C   0  0  0  0  0  0  0  0  0  0  0  0
   47.3739   29.9419   33.5939 C   0  0  1  0  0  0  0  0  0  0  0  0
   47.4678   30.5562   32.3677 O   0  0  0  0  0  0  0  0  0  0  0  0
   48.6962   29.6658   34.2251 C   0  0  2  0  0  0  0  0  0  0  0  0
   48.7321   28.5072   34.9973 O   0  0  0  0  0  0  0  0  0  0  0  0
   49.2240   32.7413   34.4327 H   0  0  0  0  0  0  0  0  0  0  0  0
   50.0628   30.6295   35.5898 H   0  0  0  0  0  0  0  0  0  0  0  0
   47.6231   30.3414   36.3322 H   0  0  0  0  0  0  0  0  0  0  0  0
   45.5371   30.9696   33.8613 H   0  0  0  0  0  0  0  0  0  0  0  0
   46.1423   29.9808   35.2993 H   0  0  0  0  0  0  0  0  0  0  0  0
   46.8929   28.9380   33.4128 H   0  0  0  0  0  0  0  0  0  0  0  0
   48.3244   30.9755   32.1835 H   0  0  0  0  0  0  0  0  0  0  0  0
   49.4496   29.5358   33.3984 H   0  0  0  0  0  0  0  0  0  0  0  0
   48.7709   27.7604   34.3485 H   0  0  0  0  0  0  0  0  0  0  0  0
  2  1  1  0
  2  3  2  0
  3 12  1  0
  4  3  1  0
  5  4  2  0
  6  7  2  0
  6  5  1  0
  7  2  1  0
  8  9  2  0
  8 14  1  0
 10  9  1  0
 11 10  2  0
 12 11  1  0
 12 13  2  0
 13  8  1  0
 15  7  1  0
 16 17  2  0
 17 15  1  1
 18 17  1  0
 19 17  1  0
  4 20  1  0
  5 21  1  0
  6 22  1  0
  9 23  1  0
 10 24  1  0
 14 25  1  0
 14 26  1  0
 18 27  1  0
 28 29  1  0
 29 30  1  0
 30 31  1  0
 31 32  1  0
 32 33  1  0
 33 34  1  0
 33 35  1  0
 35 36  1  0
 35 29  1  0
 28 37  1  0
 29 38  1  1
 30 39  1  1
 32 40  1  0
 32 41  1  0
 33 42  1  6
 34 43  1  0
 35 44  1  6
 36 45  1  0
 19 30  1  0
M  ISO  6  20  14  21  14  22  14  23  14  24  14  27   3
M  END
>  <DihAtoms>  (1) 
16,18,29,28

>  <DihDeg>  (1) 
-116.99691791199146

$$$$
