
 OpenBabel03252502563D

 40 42  0  0  1  0  0  0  0  0999 V2000
   45.5960   29.9440   44.7000 Br  0  0  0  0  0  0  0  0  0  0  0  0
   45.6620   30.5360   46.5390 C   0  0  0  0  0  0  0  0  0  0  0  0
   46.3530   31.6980   46.7620 C   0  0  0  0  0  0  0  0  0  0  0  0
   46.3850   32.1030   48.0960 C   0  0  0  0  0  0  0  0  0  0  0  0
   45.7710   31.3960   49.1230 C   0  0  0  0  0  0  0  0  0  0  0  0
   45.1020   30.2440   48.8050 C   0  0  0  0  0  0  0  0  0  0  0  0
   45.0370   29.7950   47.5070 C   0  0  0  0  0  0  0  0  0  0  0  0
   46.9040   33.0070   48.3770 H   0  0  0  0  0  0  0  0  0  0  0  0
   45.8270   31.7570   50.1490 H   0  0  0  0  0  0  0  0  0  0  0  0
   44.6140   29.6760   49.6010 H   0  0  0  0  0  0  0  0  0  0  0  0
   47.0400   32.5340   45.7760 C   0  0  0  0  0  0  0  0  0  0  0  0
   47.3010   31.8680   44.9140 H   0  0  0  0  0  0  0  0  0  0  0  0
   48.0080   32.9130   46.1650 H   0  0  0  0  0  0  0  0  0  0  0  0
   44.5360   35.2920   45.4560 C   0  0  0  0  0  0  0  0  0  0  0  0
   44.7560   35.6980   44.1340 C   0  0  0  0  0  0  0  0  0  0  0  0
   45.7240   35.0480   43.3900 C   0  0  0  0  0  0  0  0  0  0  0  0
   46.4160   34.0510   43.9670 N   0  0  0  0  0  0  0  0  0  0  0  0
   46.2040   33.6550   45.2540 C   0  0  0  0  0  0  0  0  0  0  0  0
   45.2530   34.3020   45.9630 N   0  0  0  0  0  0  0  0  0  0  0  0
   43.8240   35.6900   46.1690 H   0  0  0  0  0  0  0  0  0  0  0  0
   44.1320   36.5040   43.8070 H   0  0  0  0  0  0  0  0  0  0  0  0
   45.8750   35.3790   42.3760 H   0  0  0  0  0  0  0  0  0  0  0  0
   44.3480   28.6150   47.1980 O   0  0  0  0  0  0  0  0  0  0  0  0
   44.1520   26.0450   46.8100 O   0  0  0  0  0  0  0  0  0  0  0  0
   44.9000   27.0720   47.6520 P   0  0  2  0  0  0  0  0  0  0  0  0
   44.5610   26.8660   49.2840 O   0  0  0  0  0  0  0  0  0  0  0  0
   44.1600   25.9730   49.4690 H   0  0  0  0  0  0  0  0  0  0  0  0
   46.5560   26.8740   47.3580 O   0  0  0  0  0  0  0  0  0  0  0  0
   48.6850   26.2410   48.2710 C   0  0  2  0  0  0  0  0  0  0  0  0
   47.1780   26.1740   48.3890 C   0  0  2  0  0  0  0  0  0  0  0  0
   46.7770   24.8440   48.4060 O   0  0  0  0  0  0  0  0  0  0  0  0
   47.3310   24.0840   47.3870 C   0  0  0  0  0  0  0  0  0  0  0  0
   48.8210   23.9580   47.4610 C   0  0  1  0  0  0  0  0  0  0  0  0
   49.2900   24.8820   48.5810 C   0  0  2  0  0  0  0  0  0  0  0  0
   49.2540   27.1400   49.1900 O   0  0  0  0  0  0  0  0  0  0  0  0
   50.2170   26.9130   49.2040 H   0  0  0  0  0  0  0  0  0  0  0  0
   49.2540   22.6840   47.7530 O   0  0  0  0  0  0  0  0  0  0  0  0
   50.1960   22.7720   48.0510 H   0  0  0  0  0  0  0  0  0  0  0  0
   48.8410   24.4760   49.8300 O   0  0  0  0  0  0  0  0  0  0  0  0
   48.5740   23.5290   49.8780 H   0  0  0  0  0  0  0  0  0  0  0  0
  1  2  1  0  0  0  0
  2  3  2  0  0  0  0
  2  7  1  0  0  0  0
  3  4  1  0  0  0  0
  4  8  1  0  0  0  0
  4  5  2  0  0  0  0
  5  9  1  0  0  0  0
  6  5  1  0  0  0  0
  6 10  1  0  0  0  0
  7  6  2  0  0  0  0
 11 13  1  0  0  0  0
 11  3  1  0  0  0  0
 12 11  1  0  0  0  0
 14 19  1  0  0  0  0
 14 20  1  0  0  0  0
 15 14  2  0  0  0  0
 16 17  2  0  0  0  0
 16 15  1  0  0  0  0
 17 18  1  0  0  0  0
 18 11  1  0  0  0  0
 18 19  2  0  0  0  0
 21 15  1  0  0  0  0
 22 16  1  0  0  0  0
 23  7  1  0  0  0  0
 23 25  1  0  0  0  0
 25 24  2  6  0  0  0
 25 26  1  0  0  0  0
 26 27  1  0  0  0  0
 28 25  1  0  0  0  0
 29 30  1  0  0  0  0
 29 34  1  0  0  0  0
 29 35  1  1  0  0  0
 30 28  1  6  0  0  0
 30 31  1  0  0  0  0
 32 33  1  0  0  0  0
 32 31  1  0  0  0  0
 33 37  1  1  0  0  0
 33 34  1  0  0  0  0
 34 39  1  1  0  0  0
 35 36  1  0  0  0  0
 37 38  1  0  0  0  0
 39 40  1  0  0  0  0
M  END
>  <minimizedAffinity>
-5.45759726

>  <minimizedRMSD>
0.811412513

$$$$
