
 OpenBabel03242510473D

 25 26  0  0  1  0  0  0  0  0999 V2000
   47.1770   33.4500   40.7010 O   0  0  0  0  0  0  0  0  0  0  0  0
   49.6430   32.3390   38.3410 C   0  0  0  0  0  0  0  0  0  0  0  0
   49.3030   33.0320   37.1650 C   0  0  0  0  0  0  0  0  0  0  0  0
   48.2050   33.8890   37.2110 C   0  0  0  0  0  0  0  0  0  0  0  0
   47.5260   34.0060   38.3850 N   0  0  0  0  0  0  0  0  0  0  0  0
   47.8660   33.3360   39.4950 C   0  0  0  0  0  0  0  0  0  0  0  0
   48.9260   32.5020   39.4720 N   0  0  0  0  0  0  0  0  0  0  0  0
   49.8820   32.9000   36.2570 H   0  0  0  0  0  0  0  0  0  0  0  0
   47.9000   34.4480   36.3300 H   0  0  0  0  0  0  0  0  0  0  0  0
   50.8250   31.4220   38.2820 C   0  0  0  0  0  0  0  0  0  0  0  0
   51.7240   31.6970   39.2810 F   0  0  0  0  0  0  0  0  0  0  0  0
   50.3690   30.1250   38.3500 F   0  0  0  0  0  0  0  0  0  0  0  0
   51.4340   31.5490   37.0150 F   0  0  0  0  0  0  0  0  0  0  0  0
   45.4800   34.7710   41.8620 C   0  0  1  0  0  0  0  0  0  0  0  0
   45.8680   33.9900   40.6500 C   0  0  2  0  0  0  0  0  0  0  0  0
   44.9610   32.9400   40.3980 O   0  0  0  0  0  0  0  0  0  0  0  0
   45.2020   32.0130   41.4380 C   0  0  0  0  0  0  0  0  0  0  0  0
   44.6650   32.5530   42.7470 C   0  0  1  0  0  0  0  0  0  0  0  0
   44.4560   34.0390   42.7040 C   0  0  1  0  0  0  0  0  0  0  0  0
   46.5900   35.1580   42.6150 O   0  0  0  0  0  0  0  0  0  0  0  0
   46.9400   35.9980   42.2270 H   0  0  0  0  0  0  0  0  0  0  0  0
   43.4120   31.9450   42.9270 O   0  0  0  0  0  0  0  0  0  0  0  0
   42.6590   32.5850   42.8480 H   0  0  0  0  0  0  0  0  0  0  0  0
   44.5840   34.5260   44.0210 O   0  0  0  0  0  0  0  0  0  0  0  0
   45.4580   34.1620   44.3570 H   0  0  0  0  0  0  0  0  0  0  0  0
  2  7  1  0  0  0  0
  3  4  1  0  0  0  0
  3  2  2  0  0  0  0
  4  5  2  0  0  0  0
  5  6  1  0  0  0  0
  6  1  1  0  0  0  0
  7  6  2  0  0  0  0
  8  3  1  0  0  0  0
  9  4  1  0  0  0  0
 10  2  1  0  0  0  0
 10 12  1  0  0  0  0
 10 11  1  0  0  0  0
 13 10  1  0  0  0  0
 14 20  1  1  0  0  0
 14 19  1  0  0  0  0
 15  1  1  1  0  0  0
 15 14  1  0  0  0  0
 16 15  1  0  0  0  0
 16 17  1  0  0  0  0
 17 18  1  0  0  0  0
 18 22  1  6  0  0  0
 19 18  1  0  0  0  0
 19 24  1  1  0  0  0
 21 20  1  0  0  0  0
 23 22  1  0  0  0  0
 24 25  1  0  0  0  0
M  END
>  <minimizedAffinity>
-4.17537785

>  <minimizedRMSD>
5.41388655

$$$$
