
 OpenBabel03252505283D

 27 28  0  0  1  0  0  0  0  0999 V2000
   36.8490   31.6190   38.5000 O   0  0  0  0  0  0  0  0  0  0  0  0
   37.3900   31.9840   39.8860 P   0  0  1  0  0  0  0  0  0  0  0  0
   37.2300   33.6110   40.2140 O   0  0  0  0  0  0  0  0  0  0  0  0
   36.4720   33.9670   39.6880 H   0  0  0  0  0  0  0  0  0  0  0  0
   36.5370   31.0300   40.9920 O   0  0  0  0  0  0  0  0  0  0  0  0
   36.7590   27.6360   42.0160 C   0  0  0  0  0  0  0  0  0  0  0  0
   37.8670   27.5950   42.8990 C   0  0  0  0  0  0  0  0  0  0  0  0
   38.5350   28.8180   43.1190 C   0  0  0  0  0  0  0  0  0  0  0  0
   38.0840   29.9300   42.4860 N   0  0  0  0  0  0  0  0  0  0  0  0
   37.0220   29.9120   41.6540 C   0  0  0  0  0  0  0  0  0  0  0  0
   36.3590   28.7610   41.4190 N   0  0  0  0  0  0  0  0  0  0  0  0
   36.2300   26.6990   41.8330 H   0  0  0  0  0  0  0  0  0  0  0  0
   38.1920   26.6840   43.3830 H   0  0  0  0  0  0  0  0  0  0  0  0
   39.3900   28.8600   43.7820 H   0  0  0  0  0  0  0  0  0  0  0  0
   39.0300   31.5830   39.8520 O   0  0  0  0  0  0  0  0  0  0  0  0
   39.9810   31.7570   37.6700 C   0  0  2  0  0  3  0  0  0  0  0  0
   39.6370   32.4880   38.9540 C   0  0  2  0  0  3  0  0  0  0  0  0
   40.7240   33.0170   39.6060 O   0  0  0  0  0  0  0  0  0  0  0  0
   41.4750   33.8900   38.8520 C   0  0  0  0  0  2  0  0  0  0  0  0
   41.7530   33.3940   37.4610 C   0  0  2  0  0  3  0  0  0  0  0  0
   41.4790   31.8880   37.4770 C   0  0  1  0  0  3  0  0  0  0  0  0
   39.3860   32.3480   36.5510 O   0  0  0  0  0  0  0  0  0  0  0  0
   39.0100   33.2400   36.7260 H   0  0  0  0  0  0  0  0  0  0  0  0
   43.0200   33.6720   36.9950 O   0  0  0  0  0  0  0  0  0  0  0  0
   42.9920   33.4810   36.0110 H   0  0  0  0  0  0  0  0  0  0  0  0
   42.1060   31.3310   38.5830 O   0  0  0  0  0  0  0  0  0  0  0  0
   41.5940   30.5530   38.9270 H   0  0  0  0  0  0  0  0  0  0  0  0
  2  1  2  6  0  0  0
  2  3  1  0  0  0  0
  2  5  1  0  0  0  0
  4  3  1  0  0  0  0
  5 10  1  0  0  0  0
  6  7  1  0  0  0  0
  7  8  2  0  0  0  0
  7 13  1  0  0  0  0
  8 14  1  0  0  0  0
  9  8  1  0  0  0  0
 10  9  2  0  0  0  0
 11 10  1  0  0  0  0
 11  6  2  0  0  0  0
 12  6  1  0  0  0  0
 15  2  1  0  0  0  0
 16 22  1  6  0  0  0
 16 17  1  0  0  0  0
 17 18  1  0  0  0  0
 17 15  1  1  0  0  0
 19 18  1  0  0  0  0
 20 24  1  1  0  0  0
 20 21  1  0  0  0  0
 20 19  1  0  0  0  0
 21 16  1  0  0  0  0
 21 26  1  1  0  0  0
 22 23  1  0  0  0  0
 25 24  1  0  0  0  0
 26 27  1  0  0  0  0
M  END
>  <minimizedAffinity>
-5.96523476

$$$$

 OpenBabel03252505283D

 27 28  0  0  1  0  0  0  0  0999 V2000
   35.7790   28.7650   41.3780 O   0  0  0  0  0  0  0  0  0  0  0  0
   37.1490   29.2380   41.8750 P   0  0  1  0  0  0  0  0  0  0  0  0
   37.2220   29.3080   43.5390 O   0  0  0  0  0  0  0  0  0  0  0  0
   36.5730   28.6620   43.9120 H   0  0  0  0  0  0  0  0  0  0  0  0
   38.2820   28.1570   41.2380 O   0  0  0  0  0  0  0  0  0  0  0  0
   40.0530   26.2800   43.6800 C   0  0  0  0  0  0  0  0  0  0  0  0
   39.9060   24.9300   43.2750 C   0  0  0  0  0  0  0  0  0  0  0  0
   39.1550   24.7070   42.1020 C   0  0  0  0  0  0  0  0  0  0  0  0
   38.6320   25.7770   41.4500 N   0  0  0  0  0  0  0  0  0  0  0  0
   38.8030   27.0440   41.8810 C   0  0  0  0  0  0  0  0  0  0  0  0
   39.5150   27.2950   42.9980 N   0  0  0  0  0  0  0  0  0  0  0  0
   40.6300   26.4720   44.5850 H   0  0  0  0  0  0  0  0  0  0  0  0
   40.3410   24.1070   43.8270 H   0  0  0  0  0  0  0  0  0  0  0  0
   39.0030   23.7000   41.7350 H   0  0  0  0  0  0  0  0  0  0  0  0
   37.3470   30.7920   41.2440 O   0  0  0  0  0  0  0  0  0  0  0  0
   39.3820   31.1580   40.0500 C   0  0  2  0  0  3  0  0  0  0  0  0
   37.9610   30.6280   39.9820 C   0  0  2  0  0  3  0  0  0  0  0  0
   37.1650   31.2760   39.0710 O   0  0  0  0  0  0  0  0  0  0  0  0
   37.6440   31.2660   37.7810 C   0  0  0  0  0  2  0  0  0  0  0  0
   39.1070   31.5910   37.6830 C   0  0  2  0  0  3  0  0  0  0  0  0
   39.4920   32.2540   39.0090 C   0  0  1  0  0  3  0  0  0  0  0  0
   40.3240   30.1860   39.7010 O   0  0  0  0  0  0  0  0  0  0  0  0
   39.9330   29.3870   39.2790 H   0  0  0  0  0  0  0  0  0  0  0  0
   39.4500   32.3800   36.6070 O   0  0  0  0  0  0  0  0  0  0  0  0
   40.4500   32.3370   36.5490 H   0  0  0  0  0  0  0  0  0  0  0  0
   38.5520   33.2300   39.3100 O   0  0  0  0  0  0  0  0  0  0  0  0
   38.4370   33.3210   40.2920 H   0  0  0  0  0  0  0  0  0  0  0  0
  2  1  2  6  0  0  0
  2  3  1  0  0  0  0
  3  4  1  0  0  0  0
  5  2  1  0  0  0  0
  5 10  1  0  0  0  0
  6 12  1  0  0  0  0
  7  6  1  0  0  0  0
  7 13  1  0  0  0  0
  8  7  2  0  0  0  0
  9 10  2  0  0  0  0
  9  8  1  0  0  0  0
 10 11  1  0  0  0  0
 11  6  2  0  0  0  0
 14  8  1  0  0  0  0
 15  2  1  0  0  0  0
 16 22  1  6  0  0  0
 17 16  1  0  0  0  0
 17 15  1  1  0  0  0
 18 17  1  0  0  0  0
 19 18  1  0  0  0  0
 20 24  1  6  0  0  0
 20 19  1  0  0  0  0
 20 21  1  0  0  0  0
 21 26  1  1  0  0  0
 21 16  1  0  0  0  0
 23 22  1  0  0  0  0
 25 24  1  0  0  0  0
 26 27  1  0  0  0  0
M  END
>  <minimizedAffinity>
-5.45017433

$$$$

 OpenBabel03252505283D

 27 28  0  0  1  0  0  0  0  0999 V2000
   36.2820   28.3310   39.2790 O   0  0  0  0  0  0  0  0  0  0  0  0
   35.5930   29.1820   40.3510 P   0  0  1  0  0  0  0  0  0  0  0  0
   33.9480   29.2940   40.1010 O   0  0  0  0  0  0  0  0  0  0  0  0
   33.6480   28.4960   39.6010 H   0  0  0  0  0  0  0  0  0  0  0  0
   35.9580   28.4590   41.8350 O   0  0  0  0  0  0  0  0  0  0  0  0
   38.5540   26.2170   42.7600 C   0  0  0  0  0  0  0  0  0  0  0  0
   39.6540   27.0500   43.0830 C   0  0  0  0  0  0  0  0  0  0  0  0
   39.4420   28.4400   42.9610 C   0  0  0  0  0  0  0  0  0  0  0  0
   38.2260   28.8800   42.5510 N   0  0  0  0  0  0  0  0  0  0  0  0
   37.2120   28.0410   42.2560 C   0  0  0  0  0  0  0  0  0  0  0  0
   37.3770   26.7070   42.3600 N   0  0  0  0  0  0  0  0  0  0  0  0
   38.6990   25.1390   42.8480 H   0  0  0  0  0  0  0  0  0  0  0  0
   40.6080   26.6550   43.4060 H   0  0  0  0  0  0  0  0  0  0  0  0
   40.2400   29.1340   43.1910 H   0  0  0  0  0  0  0  0  0  0  0  0
   36.2810   30.7180   40.2200 O   0  0  0  0  0  0  0  0  0  0  0  0
   38.6170   31.0780   39.8870 C   0  0  2  0  0  3  0  0  0  0  0  0
   37.3170   30.6050   39.2660 C   0  0  2  0  0  3  0  0  0  0  0  0
   36.9210   31.3330   38.1710 O   0  0  0  0  0  0  0  0  0  0  0  0
   37.8440   31.3800   37.1510 C   0  0  0  0  0  2  0  0  0  0  0  0
   39.2430   31.6570   37.6200 C   0  0  2  0  0  3  0  0  0  0  0  0
   39.1180   32.2280   39.0350 C   0  0  1  0  0  3  0  0  0  0  0  0
   39.6100   30.0950   39.8460 O   0  0  0  0  0  0  0  0  0  0  0  0
   39.3930   29.3370   39.2580 H   0  0  0  0  0  0  0  0  0  0  0  0
   39.9690   32.4940   36.8010 O   0  0  0  0  0  0  0  0  0  0  0  0
   40.9190   32.4180   37.1130 H   0  0  0  0  0  0  0  0  0  0  0  0
   38.1460   33.2180   39.0340 O   0  0  0  0  0  0  0  0  0  0  0  0
   37.6770   33.2580   39.9080 H   0  0  0  0  0  0  0  0  0  0  0  0
  2  1  2  6  0  0  0
  2  5  1  0  0  0  0
  3  2  1  0  0  0  0
  4  3  1  0  0  0  0
  5 10  1  0  0  0  0
  6 12  1  0  0  0  0
  6  7  1  0  0  0  0
  7 13  1  0  0  0  0
  8  7  2  0  0  0  0
  8 14  1  0  0  0  0
  9  8  1  0  0  0  0
 10 11  1  0  0  0  0
 10  9  2  0  0  0  0
 11  6  2  0  0  0  0
 15  2  1  0  0  0  0
 16 22  1  6  0  0  0
 17 16  1  0  0  0  0
 17 15  1  1  0  0  0
 18 17  1  0  0  0  0
 19 20  1  0  0  0  0
 19 18  1  0  0  0  0
 20 24  1  6  0  0  0
 20 21  1  0  0  0  0
 21 26  1  6  0  0  0
 21 16  1  0  0  0  0
 23 22  1  0  0  0  0
 24 25  1  0  0  0  0
 26 27  1  0  0  0  0
M  END
>  <minimizedAffinity>
-5.4044838

$$$$

 OpenBabel03252505283D

 27 28  0  0  1  0  0  0  0  0999 V2000
   37.6770   32.4610   40.6580 O   0  0  0  0  0  0  0  0  0  0  0  0
   37.1370   31.0320   40.7720 P   0  0  1  0  0  0  0  0  0  0  0  0
   35.5760   30.9970   41.3600 O   0  0  0  0  0  0  0  0  0  0  0  0
   35.1340   31.8520   41.1360 H   0  0  0  0  0  0  0  0  0  0  0  0
   37.2430   30.3610   39.2240 O   0  0  0  0  0  0  0  0  0  0  0  0
   35.4460   29.1350   36.4150 C   0  0  0  0  0  0  0  0  0  0  0  0
   34.2290   28.6440   36.9490 C   0  0  0  0  0  0  0  0  0  0  0  0
   34.0670   28.7630   38.3460 C   0  0  0  0  0  0  0  0  0  0  0  0
   35.0650   29.3280   39.0720 N   0  0  0  0  0  0  0  0  0  0  0  0
   36.2050   29.7800   38.5100 C   0  0  0  0  0  0  0  0  0  0  0  0
   36.3960   29.6820   37.1790 N   0  0  0  0  0  0  0  0  0  0  0  0
   35.5900   29.0510   35.3360 H   0  0  0  0  0  0  0  0  0  0  0  0
   33.4600   28.2000   36.3320 H   0  0  0  0  0  0  0  0  0  0  0  0
   33.1620   28.4080   38.8210 H   0  0  0  0  0  0  0  0  0  0  0  0
   38.1590   30.2470   41.8620 O   0  0  0  0  0  0  0  0  0  0  0  0
   37.5270   28.4220   43.2650 C   0  0  2  0  0  3  0  0  0  0  0  0
   37.7820   28.8850   41.8430 C   0  0  2  0  0  3  0  0  0  0  0  0
   38.7930   28.2080   41.2070 O   0  0  0  0  0  0  0  0  0  0  0  0
   38.6180   26.8440   41.1440 C   0  0  0  0  0  2  0  0  0  0  0  0
   38.1730   26.2370   42.4440 C   0  0  2  0  0  3  0  0  0  0  0  0
   38.4790   27.2720   43.5300 C   0  0  1  0  0  3  0  0  0  0  0  0
   36.2350   27.9110   43.4290 O   0  0  0  0  0  0  0  0  0  0  0  0
   35.7650   27.7430   42.5810 H   0  0  0  0  0  0  0  0  0  0  0  0
   38.7450   25.0180   42.7330 O   0  0  0  0  0  0  0  0  0  0  0  0
   38.2120   24.6450   43.4960 H   0  0  0  0  0  0  0  0  0  0  0  0
   39.7740   27.7370   43.3540 O   0  0  0  0  0  0  0  0  0  0  0  0
   39.8550   28.6830   43.6430 H   0  0  0  0  0  0  0  0  0  0  0  0
  2  1  2  6  0  0  0
  2  3  1  0  0  0  0
  2 15  1  0  0  0  0
  4  3  1  0  0  0  0
  5  2  1  0  0  0  0
  6  7  2  0  0  0  0
  6 11  1  0  0  0  0
  7  8  1  0  0  0  0
  8 14  1  0  0  0  0
  8  9  2  0  0  0  0
 10  9  1  0  0  0  0
 10  5  1  0  0  0  0
 11 10  2  0  0  0  0
 12  6  1  0  0  0  0
 13  7  1  0  0  0  0
 16 22  1  6  0  0  0
 16 21  1  0  0  0  0
 17 15  1  1  0  0  0
 17 16  1  0  0  0  0
 18 17  1  0  0  0  0
 19 18  1  0  0  0  0
 19 20  1  0  0  0  0
 20 24  1  1  0  0  0
 20 21  1  0  0  0  0
 21 26  1  6  0  0  0
 23 22  1  0  0  0  0
 24 25  1  0  0  0  0
 26 27  1  0  0  0  0
M  END
>  <minimizedAffinity>
-5.35473013

$$$$

 OpenBabel03252505283D

 27 28  0  0  1  0  0  0  0  0999 V2000
   34.4960   29.1410   39.2430 O   0  0  0  0  0  0  0  0  0  0  0  0
   35.7790   29.4730   40.0110 P   0  0  1  0  0  0  0  0  0  0  0  0
   35.4650   30.2810   41.4360 O   0  0  0  0  0  0  0  0  0  0  0  0
   34.5570   30.0390   41.7440 H   0  0  0  0  0  0  0  0  0  0  0  0
   36.5650   28.0010   40.2800 O   0  0  0  0  0  0  0  0  0  0  0  0
   37.5660   27.7510   43.6800 C   0  0  0  0  0  0  0  0  0  0  0  0
   38.8340   27.1200   43.6390 C   0  0  0  0  0  0  0  0  0  0  0  0
   39.3240   26.7850   42.3590 C   0  0  0  0  0  0  0  0  0  0  0  0
   38.5660   27.0820   41.2730 N   0  0  0  0  0  0  0  0  0  0  0  0
   37.3630   27.6850   41.3700 C   0  0  0  0  0  0  0  0  0  0  0  0
   36.8630   28.0190   42.5760 N   0  0  0  0  0  0  0  0  0  0  0  0
   37.1700   28.0180   44.6610 H   0  0  0  0  0  0  0  0  0  0  0  0
   39.4040   26.9020   44.5320 H   0  0  0  0  0  0  0  0  0  0  0  0
   40.2860   26.3010   42.2540 H   0  0  0  0  0  0  0  0  0  0  0  0
   36.6710   30.4780   38.9890 O   0  0  0  0  0  0  0  0  0  0  0  0
   37.6230   32.6660   38.9130 C   0  0  2  0  0  3  0  0  0  0  0  0
   37.1690   31.5220   39.8000 C   0  0  2  0  0  3  0  0  0  0  0  0
   38.1690   30.9780   40.5680 O   0  0  0  0  0  0  0  0  0  0  0  0
   38.8110   31.8750   41.3910 C   0  0  0  0  0  2  0  0  0  0  0  0
   39.1710   33.1640   40.7080 C   0  0  2  0  0  3  0  0  0  0  0  0
   39.0940   32.8900   39.2030 C   0  0  1  0  0  3  0  0  0  0  0  0
   36.9720   33.8640   39.2230 O   0  0  0  0  0  0  0  0  0  0  0  0
   36.4820   33.8400   40.0760 H   0  0  0  0  0  0  0  0  0  0  0  0
   40.3980   33.6800   41.0640 O   0  0  0  0  0  0  0  0  0  0  0  0
   40.4090   34.6170   40.7070 H   0  0  0  0  0  0  0  0  0  0  0  0
   39.7720   31.7110   38.9270 O   0  0  0  0  0  0  0  0  0  0  0  0
   39.3600   31.2360   38.1590 H   0  0  0  0  0  0  0  0  0  0  0  0
  2  1  2  6  0  0  0
  2  5  1  0  0  0  0
  2  3  1  0  0  0  0
  3  4  1  0  0  0  0
  5 10  1  0  0  0  0
  6 12  1  0  0  0  0
  7  6  1  0  0  0  0
  7 13  1  0  0  0  0
  8  7  2  0  0  0  0
  9 10  2  0  0  0  0
  9  8  1  0  0  0  0
 10 11  1  0  0  0  0
 11  6  2  0  0  0  0
 14  8  1  0  0  0  0
 15  2  1  0  0  0  0
 16 21  1  0  0  0  0
 16 22  1  1  0  0  0
 16 17  1  0  0  0  0
 17 15  1  6  0  0  0
 17 18  1  0  0  0  0
 18 19  1  0  0  0  0
 20 24  1  6  0  0  0
 20 19  1  0  0  0  0
 21 26  1  1  0  0  0
 21 20  1  0  0  0  0
 22 23  1  0  0  0  0
 25 24  1  0  0  0  0
 27 26  1  0  0  0  0
M  END
>  <minimizedAffinity>
-5.34258604

$$$$

 OpenBabel03252505283D

 27 28  0  0  1  0  0  0  0  0999 V2000
   35.1570   29.1920   40.6790 O   0  0  0  0  0  0  0  0  0  0  0  0
   36.5570   28.9640   41.2570 P   0  0  1  0  0  0  0  0  0  0  0  0
   36.8860   29.9940   42.5270 O   0  0  0  0  0  0  0  0  0  0  0  0
   36.0320   30.2550   42.9520 H   0  0  0  0  0  0  0  0  0  0  0  0
   36.6160   27.3410   41.7290 O   0  0  0  0  0  0  0  0  0  0  0  0
   39.5510   26.8750   43.6750 C   0  0  0  0  0  0  0  0  0  0  0  0
   39.9230   25.5260   43.4530 C   0  0  0  0  0  0  0  0  0  0  0  0
   39.0930   24.7840   42.5860 C   0  0  0  0  0  0  0  0  0  0  0  0
   38.0160   25.3970   42.0320 N   0  0  0  0  0  0  0  0  0  0  0  0
   37.7090   26.6870   42.2780 C   0  0  0  0  0  0  0  0  0  0  0  0
   38.4780   27.4270   43.1020 N   0  0  0  0  0  0  0  0  0  0  0  0
   40.1810   27.4650   44.3430 H   0  0  0  0  0  0  0  0  0  0  0  0
   40.7910   25.0780   43.9170 H   0  0  0  0  0  0  0  0  0  0  0  0
   39.3180   23.7470   42.3720 H   0  0  0  0  0  0  0  0  0  0  0  0
   37.6270   29.2840   39.9910 O   0  0  0  0  0  0  0  0  0  0  0  0
   37.3690   31.6330   39.6570 C   0  0  2  0  0  3  0  0  0  0  0  0
   38.2130   30.5370   40.2790 C   0  0  2  0  0  3  0  0  0  0  0  0
   39.5010   30.4850   39.8060 O   0  0  0  0  0  0  0  0  0  0  0  0
   40.2130   31.6540   39.9550 C   0  0  0  0  0  2  0  0  0  0  0  0
   39.4430   32.8800   39.5540 C   0  0  2  0  0  3  0  0  0  0  0  0
   38.2690   32.3920   38.7000 C   0  0  1  0  0  3  0  0  0  0  0  0
   36.9280   32.5620   40.6040 O   0  0  0  0  0  0  0  0  0  0  0  0
   37.3820   32.4870   41.4740 H   0  0  0  0  0  0  0  0  0  0  0  0
   40.1850   33.8330   38.8920 O   0  0  0  0  0  0  0  0  0  0  0  0
   39.6140   34.6570   38.8790 H   0  0  0  0  0  0  0  0  0  0  0  0
   38.7450   31.4950   37.7550 O   0  0  0  0  0  0  0  0  0  0  0  0
   38.0630   30.8050   37.5440 H   0  0  0  0  0  0  0  0  0  0  0  0
  2  1  2  6  0  0  0
  2  5  1  0  0  0  0
  2  3  1  0  0  0  0
  3  4  1  0  0  0  0
  5 10  1  0  0  0  0
  6 12  1  0  0  0  0
  7  6  1  0  0  0  0
  7 13  1  0  0  0  0
  8  7  2  0  0  0  0
  9 10  2  0  0  0  0
  9  8  1  0  0  0  0
 10 11  1  0  0  0  0
 11  6  2  0  0  0  0
 14  8  1  0  0  0  0
 15  2  1  0  0  0  0
 16 17  1  0  0  0  0
 16 22  1  1  0  0  0
 17 15  1  6  0  0  0
 18 19  1  0  0  0  0
 18 17  1  0  0  0  0
 20 24  1  6  0  0  0
 20 19  1  0  0  0  0
 21 26  1  6  0  0  0
 21 20  1  0  0  0  0
 21 16  1  0  0  0  0
 22 23  1  0  0  0  0
 25 24  1  0  0  0  0
 27 26  1  0  0  0  0
M  END
>  <minimizedAffinity>
-5.33213854

$$$$

 OpenBabel03252505283D

 27 28  0  0  1  0  0  0  0  0999 V2000
   42.6700   29.3250   40.5490 O   0  0  0  0  0  0  0  0  0  0  0  0
   41.1730   29.5340   40.7950 P   0  0  1  0  0  0  0  0  0  0  0  0
   40.2520   29.0710   39.4840 O   0  0  0  0  0  0  0  0  0  0  0  0
   40.7460   28.3810   38.9770 H   0  0  0  0  0  0  0  0  0  0  0  0
   40.7920   28.6420   42.1800 O   0  0  0  0  0  0  0  0  0  0  0  0
   37.4900   28.6720   43.4910 C   0  0  0  0  0  0  0  0  0  0  0  0
   37.0020   27.3590   43.2760 C   0  0  0  0  0  0  0  0  0  0  0  0
   37.8890   26.4590   42.6470 C   0  0  0  0  0  0  0  0  0  0  0  0
   39.1240   26.8990   42.2960 N   0  0  0  0  0  0  0  0  0  0  0  0
   39.5370   28.1620   42.5260 C   0  0  0  0  0  0  0  0  0  0  0  0
   38.7170   29.0500   43.1240 N   0  0  0  0  0  0  0  0  0  0  0  0
   36.8190   29.3820   43.9760 H   0  0  0  0  0  0  0  0  0  0  0  0
   36.0080   27.0520   43.5720 H   0  0  0  0  0  0  0  0  0  0  0  0
   37.5820   25.4400   42.4510 H   0  0  0  0  0  0  0  0  0  0  0  0
   40.9820   31.1920   41.0500 O   0  0  0  0  0  0  0  0  0  0  0  0
   40.1950   33.0280   39.7430 C   0  0  2  0  0  3  0  0  0  0  0  0
   39.9350   31.6030   40.1960 C   0  0  2  0  0  3  0  0  0  0  0  0
   38.7680   31.4440   40.9010 O   0  0  0  0  0  0  0  0  0  0  0  0
   37.6350   31.8510   40.2340 C   0  0  0  0  0  2  0  0  0  0  0  0
   37.7860   33.1840   39.5570 C   0  0  2  0  0  3  0  0  0  0  0  0
   39.0060   33.8550   40.1920 C   0  0  1  0  0  3  0  0  0  0  0  0
   40.2500   33.1370   38.3510 O   0  0  0  0  0  0  0  0  0  0  0  0
   39.9200   32.3410   37.8770 H   0  0  0  0  0  0  0  0  0  0  0  0
   36.6720   33.9920   39.6270 O   0  0  0  0  0  0  0  0  0  0  0  0
   36.8360   34.7320   38.9700 H   0  0  0  0  0  0  0  0  0  0  0  0
   38.9070   33.7520   41.5720 O   0  0  0  0  0  0  0  0  0  0  0  0
   39.8050   33.6870   41.9900 H   0  0  0  0  0  0  0  0  0  0  0  0
  2  1  2  6  0  0  0
  2 15  1  0  0  0  0
  2  5  1  0  0  0  0
  3  2  1  0  0  0  0
  4  3  1  0  0  0  0
  5 10  1  0  0  0  0
  6 12  1  0  0  0  0
  7  6  1  0  0  0  0
  7 13  1  0  0  0  0
  8  7  2  0  0  0  0
  9 10  2  0  0  0  0
  9  8  1  0  0  0  0
 10 11  1  0  0  0  0
 11  6  2  0  0  0  0
 14  8  1  0  0  0  0
 16 22  1  6  0  0  0
 16 21  1  0  0  0  0
 16 17  1  0  0  0  0
 17 18  1  0  0  0  0
 17 15  1  1  0  0  0
 19 18  1  0  0  0  0
 20 24  1  1  0  0  0
 20 21  1  0  0  0  0
 20 19  1  0  0  0  0
 21 26  1  1  0  0  0
 23 22  1  0  0  0  0
 25 24  1  0  0  0  0
 26 27  1  0  0  0  0
M  END
>  <minimizedAffinity>
-5.02872515

$$$$

 OpenBabel03252505283D

 27 28  0  0  1  0  0  0  0  0999 V2000
   39.3540   31.9810   41.8780 O   0  0  0  0  0  0  0  0  0  0  0  0
   40.6160   31.1160   41.9540 P   0  0  1  0  0  0  0  0  0  0  0  0
   41.8940   31.9320   42.6480 O   0  0  0  0  0  0  0  0  0  0  0  0
   41.5360   32.6280   43.2520 H   0  0  0  0  0  0  0  0  0  0  0  0
   40.1920   29.7380   42.8380 O   0  0  0  0  0  0  0  0  0  0  0  0
   37.0160   28.1740   43.1370 C   0  0  0  0  0  0  0  0  0  0  0  0
   36.9910   27.2060   42.1030 C   0  0  0  0  0  0  0  0  0  0  0  0
   38.1430   27.1260   41.2930 C   0  0  0  0  0  0  0  0  0  0  0  0
   39.1800   27.9630   41.5510 N   0  0  0  0  0  0  0  0  0  0  0  0
   39.1510   28.8690   42.5500 C   0  0  0  0  0  0  0  0  0  0  0  0
   38.0660   28.9740   43.3440 N   0  0  0  0  0  0  0  0  0  0  0  0
   36.1340   28.2510   43.7740 H   0  0  0  0  0  0  0  0  0  0  0  0
   36.1410   26.5570   41.9340 H   0  0  0  0  0  0  0  0  0  0  0  0
   38.1920   26.4080   40.4850 H   0  0  0  0  0  0  0  0  0  0  0  0
   41.0020   30.7360   40.3550 O   0  0  0  0  0  0  0  0  0  0  0  0
   40.4050   31.7620   38.2840 C   0  0  2  0  0  3  0  0  0  0  0  0
   41.0250   31.9620   39.6540 C   0  0  2  0  0  3  0  0  0  0  0  0
   42.3350   32.3710   39.6220 O   0  0  0  0  0  0  0  0  0  0  0  0
   42.5550   33.5360   38.9240 C   0  0  0  0  0  2  0  0  0  0  0  0
   41.8470   33.5830   37.5990 C   0  0  2  0  0  3  0  0  0  0  0  0
   41.4620   32.1400   37.2640 C   0  0  1  0  0  3  0  0  0  0  0  0
   39.3220   32.6180   38.0650 O   0  0  0  0  0  0  0  0  0  0  0  0
   39.2480   33.3420   38.7260 H   0  0  0  0  0  0  0  0  0  0  0  0
   42.5730   34.1610   36.5810 O   0  0  0  0  0  0  0  0  0  0  0  0
   41.9170   34.3150   35.8370 H   0  0  0  0  0  0  0  0  0  0  0  0
   42.5660   31.3240   37.4660 O   0  0  0  0  0  0  0  0  0  0  0  0
   42.2890   30.4170   37.7600 H   0  0  0  0  0  0  0  0  0  0  0  0
  2  1  2  6  0  0  0
  2  3  1  0  0  0  0
  2  5  1  0  0  0  0
  3  4  1  0  0  0  0
  6 11  1  0  0  0  0
  6 12  1  0  0  0  0
  7  6  2  0  0  0  0
  8  9  2  0  0  0  0
  8  7  1  0  0  0  0
  9 10  1  0  0  0  0
 10  5  1  0  0  0  0
 10 11  2  0  0  0  0
 13  7  1  0  0  0  0
 14  8  1  0  0  0  0
 15  2  1  0  0  0  0
 16 22  1  1  0  0  0
 16 17  1  0  0  0  0
 17 15  1  1  0  0  0
 18 17  1  0  0  0  0
 19 18  1  0  0  0  0
 20 24  1  6  0  0  0
 20 19  1  0  0  0  0
 21 26  1  1  0  0  0
 21 20  1  0  0  0  0
 21 16  1  0  0  0  0
 22 23  1  0  0  0  0
 25 24  1  0  0  0  0
 26 27  1  0  0  0  0
M  END
>  <minimizedAffinity>
-4.99693012

$$$$

 OpenBabel03252505283D

 27 28  0  0  1  0  0  0  0  0999 V2000
   38.7650   29.9240   37.4240 O   0  0  0  0  0  0  0  0  0  0  0  0
   37.6910   30.9280   36.9950 P   0  0  1  0  0  0  0  0  0  0  0  0
   38.3440   32.2480   36.2120 O   0  0  0  0  0  0  0  0  0  0  0  0
   39.1980   31.9780   35.7930 H   0  0  0  0  0  0  0  0  0  0  0  0
   36.6150   30.0770   36.0060 O   0  0  0  0  0  0  0  0  0  0  0  0
   35.6570   26.7510   36.8050 C   0  0  0  0  0  0  0  0  0  0  0  0
   34.2900   26.8440   37.1650 C   0  0  0  0  0  0  0  0  0  0  0  0
   33.7170   28.1320   37.1130 C   0  0  0  0  0  0  0  0  0  0  0  0
   34.4950   29.1770   36.7320 N   0  0  0  0  0  0  0  0  0  0  0  0
   35.7940   29.0310   36.3990 C   0  0  0  0  0  0  0  0  0  0  0  0
   36.3760   27.8150   36.4370 N   0  0  0  0  0  0  0  0  0  0  0  0
   36.1180   25.7620   36.8390 H   0  0  0  0  0  0  0  0  0  0  0  0
   33.7060   25.9830   37.4630 H   0  0  0  0  0  0  0  0  0  0  0  0
   32.6760   28.2760   37.3750 H   0  0  0  0  0  0  0  0  0  0  0  0
   36.9520   31.4390   38.4240 O   0  0  0  0  0  0  0  0  0  0  0  0
   36.4170   29.5400   39.7680 C   0  0  2  0  0  3  0  0  0  0  0  0
   37.4520   30.6020   39.4460 C   0  0  2  0  0  3  0  0  0  0  0  0
   37.7630   31.4190   40.5050 O   0  0  0  0  0  0  0  0  0  0  0  0
   38.2200   30.7590   41.6230 C   0  0  0  0  0  2  0  0  0  0  0  0
   37.4050   29.5490   41.9790 C   0  0  2  0  0  3  0  0  0  0  0  0
   36.0730   29.6920   41.2370 C   0  0  1  0  0  3  0  0  0  0  0  0
   36.9240   28.2460   39.6130 O   0  0  0  0  0  0  0  0  0  0  0  0
   37.9030   28.2120   39.5190 H   0  0  0  0  0  0  0  0  0  0  0  0
   37.2110   29.3640   43.3310 O   0  0  0  0  0  0  0  0  0  0  0  0
   36.8480   28.4340   43.4260 H   0  0  0  0  0  0  0  0  0  0  0  0
   35.5870   30.9760   41.4340 O   0  0  0  0  0  0  0  0  0  0  0  0
   35.0710   31.2860   40.6450 H   0  0  0  0  0  0  0  0  0  0  0  0
  2  1  2  1  0  0  0
  2 15  1  0  0  0  0
  3  2  1  0  0  0  0
  4  3  1  0  0  0  0
  5 10  1  0  0  0  0
  5  2  1  0  0  0  0
  6 12  1  0  0  0  0
  6  7  1  0  0  0  0
  7 13  1  0  0  0  0
  8  7  2  0  0  0  0
  8 14  1  0  0  0  0
  9  8  1  0  0  0  0
 10 11  1  0  0  0  0
 10  9  2  0  0  0  0
 11  6  2  0  0  0  0
 16 22  1  1  0  0  0
 16 21  1  0  0  0  0
 17 15  1  6  0  0  0
 17 16  1  0  0  0  0
 17 18  1  0  0  0  0
 18 19  1  0  0  0  0
 19 20  1  0  0  0  0
 20 24  1  1  0  0  0
 21 26  1  6  0  0  0
 21 20  1  0  0  0  0
 23 22  1  0  0  0  0
 24 25  1  0  0  0  0
 27 26  1  0  0  0  0
M  END
>  <minimizedAffinity>
-4.99349594

$$$$
