
 OpenBabel03252500253D

 40 42  0  0  1  0  0  0  0  0999 V2000
   48.5380   30.1950   48.7580 C   0  0  2  0  0  0  0  0  0  0  0  0
   47.0990   29.8780   48.6330 C   0  0  2  0  0  0  0  0  0  0  0  0
   47.0210   29.0210   47.4260 C   0  0  0  0  0  0  0  0  0  0  0  0
   48.2240   28.3390   47.3170 O   0  0  0  0  0  0  0  0  0  0  0  0
   49.0940   28.8490   48.2170 C   0  0  0  0  0  0  0  0  0  0  0  0
   49.0730   30.8880   48.1710 H   0  0  0  0  0  0  0  0  0  0  0  0
   46.8010   29.3390   49.5430 H   0  0  0  0  0  0  0  0  0  0  0  0
   46.6130   29.4340   46.5120 H   0  0  0  0  0  0  0  0  0  0  0  0
   46.2880   28.1900   47.6690 H   0  0  0  0  0  0  0  0  0  0  0  0
   50.0940   28.9400   47.8060 H   0  0  0  0  0  0  0  0  0  0  0  0
   49.1720   28.1550   49.0900 H   0  0  0  0  0  0  0  0  0  0  0  0
   46.2940   30.9920   48.5640 O   0  0  0  0  0  0  0  0  0  0  0  0
   47.9150   32.9130   48.0470 O   0  0  0  0  0  0  0  0  0  0  0  0
   46.8730   32.0390   47.4070 P   0  0  1  0  0  0  0  0  0  0  0  0
   47.5990   31.1530   46.1580 O   0  0  0  0  0  0  0  0  0  0  0  0
   47.0980   31.2860   45.3380 H   0  0  0  0  0  0  0  0  0  0  0  0
   45.6530   33.0620   46.7910 O   0  0  0  0  0  0  0  0  0  0  0  0
   44.9710   35.4150   44.2060 C   0  0  0  0  0  0  0  0  0  0  0  0
   45.9460   35.1210   43.1970 C   0  0  0  0  0  0  0  0  0  0  0  0
   46.8390   34.0700   43.4740 C   0  0  0  0  0  0  0  0  0  0  0  0
   46.7230   33.4180   44.6480 N   0  0  0  0  0  0  0  0  0  0  0  0
   45.7850   33.7310   45.5700 C   0  0  0  0  0  0  0  0  0  0  0  0
   44.9180   34.7280   45.3380 N   0  0  0  0  0  0  0  0  0  0  0  0
   45.9860   35.6840   42.2770 H   0  0  0  0  0  0  0  0  0  0  0  0
   47.5930   33.8110   42.7440 H   0  0  0  0  0  0  0  0  0  0  0  0
   44.0970   36.4450   43.9370 O   0  0  0  0  0  0  0  0  0  0  0  0
   44.5060   37.3590   43.7720 H   0  0  0  0  0  0  0  0  0  0  0  0
   48.9860   30.4400   50.0220 O   0  0  0  0  0  0  0  0  0  0  0  0
   50.8260   30.6290   51.4420 C   0  0  2  0  0  0  0  0  0  0  0  0
   50.0090   31.2380   50.3130 C   0  0  1  0  0  0  0  0  0  0  0  0
   50.8950   31.4310   49.2250 O   0  0  0  0  0  0  0  0  0  0  0  0
   51.9610   32.2220   49.5730 C   0  0  0  0  0  0  0  0  0  0  0  0
   52.9620   31.3390   50.2830 C   0  0  2  0  0  0  0  0  0  0  0  0
   52.2210   30.2640   51.0010 C   0  0  1  0  0  0  0  0  0  0  0  0
   50.2370   29.4490   51.8900 O   0  0  0  0  0  0  0  0  0  0  0  0
   50.0460   29.5550   52.8520 H   0  0  0  0  0  0  0  0  0  0  0  0
   53.8010   32.0750   51.1150 O   0  0  0  0  0  0  0  0  0  0  0  0
   53.2670   32.8980   51.3500 H   0  0  0  0  0  0  0  0  0  0  0  0
   52.9340   30.0030   52.1960 O   0  0  0  0  0  0  0  0  0  0  0  0
   53.9060   30.0570   52.0110 H   0  0  0  0  0  0  0  0  0  0  0  0
  1  6  1  6  0  0  0
  1 28  1  0  0  0  0
  2  1  1  0  0  0  0
  2  7  1  1  0  0  0
  3  9  1  0  0  0  0
  3  2  1  0  0  0  0
  4  3  1  0  0  0  0
  4  5  1  0  0  0  0
  5  1  1  0  0  0  0
  5 11  1  0  0  0  0
  8  3  1  0  0  0  0
 10  5  1  0  0  0  0
 12  2  1  0  0  0  0
 14 13  2  1  0  0  0
 14 12  1  0  0  0  0
 15 14  1  0  0  0  0
 16 15  1  0  0  0  0
 17 14  1  0  0  0  0
 18 23  1  0  0  0  0
 19 20  1  0  0  0  0
 19 18  2  0  0  0  0
 20 21  2  0  0  0  0
 21 22  1  0  0  0  0
 22 17  1  0  0  0  0
 23 22  2  0  0  0  0
 24 19  1  0  0  0  0
 25 20  1  0  0  0  0
 26 18  1  0  0  0  0
 27 26  1  0  0  0  0
 29 35  1  6  0  0  0
 30 28  1  6  0  0  0
 30 29  1  0  0  0  0
 31 32  1  0  0  0  0
 31 30  1  0  0  0  0
 32 33  1  0  0  0  0
 33 34  1  0  0  0  0
 33 37  1  1  0  0  0
 34 29  1  0  0  0  0
 34 39  1  1  0  0  0
 35 36  1  0  0  0  0
 37 38  1  0  0  0  0
 40 39  1  0  0  0  0
M  END
>  <minimizedAffinity>
-5.49882698

>  <minimizedRMSD>
2.46318579

$$$$
