
 OpenBabel03242521443D

 41 43  0  0  1  0  0  0  0  0999 V2000
   45.7660   35.1640   43.3960 C   0  0  0  0  0  0  0  0  0  0  0  0
   46.8850   34.4240   43.0190 C   0  0  0  0  0  0  0  0  0  0  0  0
   47.3820   33.4330   43.8820 C   0  0  0  0  0  0  0  0  0  0  0  0
   46.7350   33.2590   45.0410 N   0  0  0  0  0  0  0  0  0  0  0  0
   45.6510   33.9860   45.3920 C   0  0  0  0  0  0  0  0  0  0  0  0
   45.1630   34.9400   44.5740 N   0  0  0  0  0  0  0  0  0  0  0  0
   47.3250   34.6460   42.0660 H   0  0  0  0  0  0  0  0  0  0  0  0
   45.1930   33.7790   46.3450 H   0  0  0  0  0  0  0  0  0  0  0  0
   49.4820   33.4530   42.5670 C   0  0  2  0  0  0  0  0  0  0  0  0
   48.5520   32.6860   43.4420 C   0  0  2  0  0  0  0  0  0  0  0  0
   48.2440   31.5780   42.6000 O   0  0  0  0  0  0  0  0  0  0  0  0
   49.5020   31.1420   42.2360 C   0  0  0  0  0  0  0  0  0  0  0  0
   50.4520   32.3010   42.2230 C   0  0  1  0  0  0  0  0  0  0  0  0
   49.0470   33.7130   41.5780 H   0  0  0  0  0  0  0  0  0  0  0  0
   49.0740   32.2380   44.2870 H   0  0  0  0  0  0  0  0  0  0  0  0
   49.4920   30.5520   41.3030 H   0  0  0  0  0  0  0  0  0  0  0  0
   49.8510   30.4460   43.0350 H   0  0  0  0  0  0  0  0  0  0  0  0
   51.2450   32.2550   42.9800 H   0  0  0  0  0  0  0  0  0  0  0  0
   50.0740   34.5270   43.1550 O   0  0  0  0  0  0  0  0  0  0  0  0
   50.9240   34.7650   42.6740 H   0  0  0  0  0  0  0  0  0  0  0  0
   51.0330   32.5610   40.9870 O   0  0  0  0  0  0  0  0  0  0  0  0
   51.8380   32.0390   40.8370 H   0  0  0  0  0  0  0  0  0  0  0  0
   45.2590   36.2260   42.4540 C   0  0  0  0  0  0  0  0  0  0  0  0
   46.0770   36.5820   41.8270 H   0  0  0  0  0  0  0  0  0  0  0  0
   44.4360   35.7830   41.8550 H   0  0  0  0  0  0  0  0  0  0  0  0
   45.4500   38.4840   43.6310 C   0  0  0  0  0  0  0  0  0  0  0  0
   46.6470   38.5980   43.2450 O   0  0  0  0  0  0  0  0  0  0  0  0
   44.7520   37.3040   43.2980 N   0  0  0  0  0  0  0  0  0  0  0  0
   43.7870   37.1930   43.6900 H   0  0  0  0  0  0  0  0  0  0  0  0
   45.2900   39.6840   45.8200 C   0  0  2  0  0  3  0  0  0  0  0  0
   44.7510   39.5540   44.4270 C   0  0  1  0  0  3  0  0  0  0  0  0
   44.7340   40.7510   43.7350 O   0  0  0  0  0  0  0  0  0  0  0  0
   45.1780   41.8490   44.4190 C   0  0  0  0  0  2  0  0  0  0  0  0
   44.5730   42.0020   45.7920 C   0  0  2  0  0  3  0  0  0  0  0  0
   44.3660   40.7040   46.4970 C   0  0  2  0  0  3  0  0  0  0  0  0
   46.5940   40.1550   45.8760 O   0  0  0  0  0  0  0  0  0  0  0  0
   46.7720   40.4490   46.8030 H   0  0  0  0  0  0  0  0  0  0  0  0
   43.3500   42.6610   45.7590 O   0  0  0  0  0  0  0  0  0  0  0  0
   42.8320   42.3360   44.9800 H   0  0  0  0  0  0  0  0  0  0  0  0
   44.7520   40.7380   47.8320 O   0  0  0  0  0  0  0  0  0  0  0  0
   43.9620   40.5640   48.4230 H   0  0  0  0  0  0  0  0  0  0  0  0
  1  6  1  0  0  0  0
  2  1  2  0  0  0  0
  2  3  1  0  0  0  0
  3  4  2  0  0  0  0
  4  5  1  0  0  0  0
  5  8  1  0  0  0  0
  6  5  2  0  0  0  0
  7  2  1  0  0  0  0
  9 14  1  6  0  0  0
  9 19  1  0  0  0  0
  9 10  1  0  0  0  0
 10  3  1  0  0  0  0
 10 15  1  1  0  0  0
 11 10  1  0  0  0  0
 12 11  1  0  0  0  0
 12 17  1  0  0  0  0
 13 12  1  0  0  0  0
 13  9  1  0  0  0  0
 13 18  1  1  0  0  0
 16 12  1  0  0  0  0
 20 19  1  0  0  0  0
 21 13  1  0  0  0  0
 22 21  1  0  0  0  0
 23 28  1  0  0  0  0
 23  1  1  0  0  0  0
 24 23  1  0  0  0  0
 25 23  1  0  0  0  0
 27 26  2  0  0  0  0
 28 26  1  0  0  0  0
 28 29  1  0  0  0  0
 30 36  1  6  0  0  0
 30 35  1  0  0  0  0
 31 26  1  6  0  0  0
 31 30  1  0  0  0  0
 32 33  1  0  0  0  0
 32 31  1  0  0  0  0
 33 34  1  0  0  0  0
 34 38  1  6  0  0  0
 34 35  1  0  0  0  0
 35 40  1  1  0  0  0
 36 37  1  0  0  0  0
 39 38  1  0  0  0  0
 40 41  1  0  0  0  0
M  END
>  <minimizedAffinity>
-1.6337651

>  <minimizedRMSD>
1.46325219

$$$$
