
     RDKit          3D

 51 54  0  0  0  0  0  0  0  0999 V2000
   43.9642   34.6409   42.3712 C   0  0  1  0  0  0  0  0  0  0  0  0
   44.1522   36.1284   41.9139 C   0  0  0  0  0  0  0  0  0  0  0  0
   44.0039   34.9391   40.9703 C   0  0  2  0  0  0  0  0  0  0  0  0
   45.1083   34.1078   43.1412 C   0  0  0  0  0  0  0  0  0  0  0  0
   46.3567   34.0379   42.4869 C   0  0  0  0  0  0  0  0  0  0  0  0
   47.4483   33.5434   43.1880 C   0  0  0  0  0  0  0  0  0  0  0  0
   47.2536   33.1518   44.4736 N   0  0  0  0  0  0  0  0  0  0  0  0
   46.0576   33.2327   45.0603 C   0  0  0  0  0  0  0  0  0  0  0  0
   45.0143   33.7100   44.3752 N   0  0  0  0  0  0  0  0  0  0  0  0
   46.0519   32.7542   46.4864 C   0  0  0  0  0  0  0  0  0  0  0  0
   45.0917   33.4158   47.2366 F   0  0  0  0  0  0  0  0  0  0  0  0
   47.2941   33.0834   47.0775 F   0  0  0  0  0  0  0  0  0  0  0  0
   45.9440   31.3907   46.5185 F   0  0  0  0  0  0  0  0  0  0  0  0
   42.6717   34.8019   40.2666 C   0  0  0  0  0  0  0  0  0  0  0  0
   42.4959   35.2136   38.9668 C   0  0  0  0  0  0  0  0  0  0  0  0
   41.3089   35.0837   38.2950 C   0  0  0  0  0  0  0  0  0  0  0  0
   40.2680   34.5200   38.9575 N   0  0  0  0  0  0  0  0  0  0  0  0
   40.4267   34.1053   40.2494 C   0  0  0  0  0  0  0  0  0  0  0  0
   41.6017   34.2402   40.8987 N   0  0  0  0  0  0  0  0  0  0  0  0
   39.3173   33.4821   40.9938 C   0  0  0  0  0  0  0  0  0  0  0  0
   38.4199   32.6781   40.0974 C   0  0  0  0  0  0  0  0  0  0  0  0
   42.9812   34.5212   42.9034 H   0  0  0  0  0  0  0  0  0  0  0  0
   45.1628   36.5522   42.0461 H   0  0  0  0  0  0  0  0  0  0  0  0
   43.2738   36.7843   41.9576 H   0  0  0  0  0  0  0  0  0  0  0  0
   44.8295   34.8289   40.2713 H   0  0  0  0  0  0  0  0  0  0  0  0
   46.4539   34.3679   41.4506 H   0  0  0  0  0  0  0  0  0  0  0  0
   48.4409   33.4711   42.7160 H   0  0  0  0  0  0  0  0  0  0  0  0
   43.3180   35.6574   38.4461 H   0  0  0  0  0  0  0  0  0  0  0  0
   41.1746   35.4116   37.2662 H   0  0  0  0  0  0  0  0  0  0  0  0
   38.6885   34.3348   41.3772 H   0  0  0  0  0  0  0  0  0  0  0  0
   39.6742   32.8958   41.8388 H   0  0  0  0  0  0  0  0  0  0  0  0
   37.5677   32.2435   40.6380 H   0  0  0  0  0  0  0  0  0  0  0  0
   38.0613   33.3597   39.2746 H   0  0  0  0  0  0  0  0  0  0  0  0
   38.6930   30.3419   41.4329 O   0  0  0  0  0  0  0  0  0  0  0  0
   38.8184   30.2184   40.0516 C   0  0  1  0  0  0  0  0  0  0  0  0
   39.1529   31.5611   39.4336 C   0  0  1  0  0  0  0  0  0  0  0  0
   39.0883   31.5078   38.0719 O   0  0  0  0  0  0  0  0  0  0  0  0
   39.0263   30.2175   37.5594 C   0  0  0  0  0  0  0  0  0  0  0  0
   40.0254   29.2836   38.1581 C   0  0  1  0  0  0  0  0  0  0  0  0
   41.3151   29.4831   37.6761 O   0  0  0  0  0  0  0  0  0  0  0  0
   39.9241   29.2629   39.6527 C   0  0  2  0  0  0  0  0  0  0  0  0
   39.7258   27.9933   40.1891 O   0  0  0  0  0  0  0  0  0  0  0  0
   37.8475   29.8783   41.6813 H   0  0  0  0  0  0  0  0  0  0  0  0
   37.8747   29.8697   39.5789 H   0  0  0  0  0  0  0  0  0  0  0  0
   40.2449   31.7166   39.6862 H   0  0  0  0  0  0  0  0  0  0  0  0
   38.0021   29.7975   37.5441 H   0  0  0  0  0  0  0  0  0  0  0  0
   39.3086   30.3147   36.4712 H   0  0  0  0  0  0  0  0  0  0  0  0
   39.7226   28.2497   37.8187 H   0  0  0  0  0  0  0  0  0  0  0  0
   41.9540   29.7888   38.3707 H   0  0  0  0  0  0  0  0  0  0  0  0
   40.8810   29.7131   40.0385 H   0  0  0  0  0  0  0  0  0  0  0  0
   40.1229   27.9943   41.1142 H   0  0  0  0  0  0  0  0  0  0  0  0
  1  4  1  0
  2  1  1  0
  3  2  1  0
  3  1  1  0
  4  9  1  0
  5  4  2  0
  5  6  1  0
  6  7  2  0
  7  8  1  0
  8 10  1  0
  9  8  2  0
 10 13  1  0
 10 12  1  0
 10 11  1  0
 14 19  1  0
 14  3  1  0
 15 14  2  0
 16 17  2  0
 16 15  1  0
 17 18  1  0
 18 19  2  0
 18 20  1  0
 21 20  1  0
  1 22  1  6
  2 23  1  0
  2 24  1  0
  3 25  1  6
  5 26  1  0
  6 27  1  0
 15 28  1  0
 16 29  1  0
 20 30  1  0
 20 31  1  0
 21 32  1  0
 21 33  1  0
 34 35  1  0
 35 36  1  0
 36 37  1  0
 37 38  1  0
 38 39  1  0
 39 40  1  0
 39 41  1  0
 41 42  1  0
 41 35  1  0
 34 43  1  0
 35 44  1  6
 36 45  1  6
 38 46  1  0
 38 47  1  0
 39 48  1  6
 40 49  1  0
 41 50  1  1
 42 51  1  0
 21 36  1  0
M  ISO  8  22  13  23  13  24  13  25  13  26  14  27  14  28  14  29  14
M  ISO  4  30   8  31   8  32   8  33   8
M  END
>  <DihAtoms>  (1) 
19,20,35,34

>  <DihDeg>  (1) 
-179.94701182247056

$$$$
