
 OpenBabel03252509003D

 48 50  0  0  1  0  0  0  0  0999 V2000
   46.7360   34.4340   43.6460 N   0  0  0  0  0  0  0  0  0  0  0  0
   46.2800   35.4790   42.8010 C   0  0  0  0  0  0  0  0  0  0  0  0
   44.7830   35.7000   42.8000 C   0  0  0  0  0  0  0  0  0  0  0  0
   44.1090   35.4100   44.1090 C   0  0  0  0  0  0  0  0  0  0  0  0
   45.1100   35.0590   45.1850 C   0  0  0  0  0  0  0  0  0  0  0  0
   45.8880   33.8420   44.5680 C   0  0  2  0  0  0  0  0  0  0  0  0
   46.5880   35.4220   41.7540 H   0  0  0  0  0  0  0  0  0  0  0  0
   46.7310   36.4390   43.1870 H   0  0  0  0  0  0  0  0  0  0  0  0
   44.3320   35.1280   41.9530 H   0  0  0  0  0  0  0  0  0  0  0  0
   44.5760   36.7690   42.5370 H   0  0  0  0  0  0  0  0  0  0  0  0
   43.4220   36.2300   44.4290 H   0  0  0  0  0  0  0  0  0  0  0  0
   43.4690   34.5140   43.9690 H   0  0  0  0  0  0  0  0  0  0  0  0
   45.8070   35.8600   45.4370 H   0  0  0  0  0  0  0  0  0  0  0  0
   44.5410   34.6310   46.0230 H   0  0  0  0  0  0  0  0  0  0  0  0
   45.1040   33.1520   44.2100 H   0  0  0  0  0  0  0  0  0  0  0  0
   47.8090   33.6590   43.0950 C   0  0  0  0  0  0  0  0  0  0  0  0
   48.5220   34.3420   42.6160 H   0  0  0  0  0  0  0  0  0  0  0  0
   48.3240   33.1550   43.9510 H   0  0  0  0  0  0  0  0  0  0  0  0
   47.2350   32.6020   42.2040 C   0  0  0  0  0  0  0  0  0  0  0  0
   46.1340   32.7180   42.1170 H   0  0  0  0  0  0  0  0  0  0  0  0
   47.4110   31.5840   42.5540 H   0  0  0  0  0  0  0  0  0  0  0  0
   49.3390   32.1270   39.1290 C   0  0  0  0  0  0  0  0  0  0  0  0
   48.8180   31.9730   40.4270 C   0  0  0  0  0  0  0  0  0  0  0  0
   47.7750   32.7750   40.8290 C   0  0  0  0  0  0  0  0  0  0  0  0
   47.3060   33.6730   39.9500 N   0  0  0  0  0  0  0  0  0  0  0  0
   47.8120   33.8100   38.7150 C   0  0  0  0  0  0  0  0  0  0  0  0
   48.8230   33.0470   38.2910 N   0  0  0  0  0  0  0  0  0  0  0  0
   50.1480   31.4620   38.8980 H   0  0  0  0  0  0  0  0  0  0  0  0
   49.2220   31.2370   41.1100 H   0  0  0  0  0  0  0  0  0  0  0  0
   47.3240   34.5810   38.1210 H   0  0  0  0  0  0  0  0  0  0  0  0
   46.5840   33.3640   45.6730 O   0  0  0  0  0  0  0  0  0  0  0  0
   45.6030   31.0400   44.8390 O   0  0  0  0  0  0  0  0  0  0  0  0
   46.1990   31.7660   46.0390 P   0  0  2  0  0  0  0  0  0  0  0  0
   44.9350   31.8380   47.1900 O   0  0  0  0  0  0  0  0  0  0  0  0
   44.0610   31.8710   46.7250 H   0  0  0  0  0  0  0  0  0  0  0  0
   47.4610   30.9280   46.7250 O   0  0  0  0  0  0  0  0  0  0  0  0
   47.0090   28.6300   46.6970 C   0  0  2  0  0  3  0  0  0  0  0  0
   47.8140   29.7670   46.0680 C   0  0  2  0  0  3  0  0  0  0  0  0
   49.1820   29.5640   46.2420 O   0  0  0  0  0  0  0  0  0  0  0  0
   49.5510   28.2710   45.8830 C   0  0  0  0  0  2  0  0  0  0  0  0
   48.9950   27.2270   46.8210 C   0  0  1  0  0  3  0  0  0  0  0  0
   47.9180   27.9030   47.6590 C   0  0  1  0  0  3  0  0  0  0  0  0
   46.5740   27.7920   45.6570 O   0  0  0  0  0  0  0  0  0  0  0  0
   46.7880   28.1910   44.7590 H   0  0  0  0  0  0  0  0  0  0  0  0
   48.4080   26.1690   46.1030 O   0  0  0  0  0  0  0  0  0  0  0  0
   47.7970   25.7320   46.7530 H   0  0  0  0  0  0  0  0  0  0  0  0
   48.5940   28.8720   48.4150 O   0  0  0  0  0  0  0  0  0  0  0  0
   48.2930   28.8800   49.3590 H   0  0  0  0  0  0  0  0  0  0  0  0
  1  6  1  0  0  0  0
  2  8  1  0  0  0  0
  2  1  1  0  0  0  0
  3  2  1  0  0  0  0
  3  4  1  0  0  0  0
  4 11  1  0  0  0  0
  4  5  1  0  0  0  0
  5 13  1  0  0  0  0
  5 14  1  0  0  0  0
  6 15  1  6  0  0  0
  6  5  1  0  0  0  0
  6 31  1  0  0  0  0
  7  2  1  0  0  0  0
  9  3  1  0  0  0  0
 10  3  1  0  0  0  0
 12  4  1  0  0  0  0
 16  1  1  0  0  0  0
 16 18  1  0  0  0  0
 17 16  1  0  0  0  0
 19 21  1  0  0  0  0
 19 16  1  0  0  0  0
 20 19  1  0  0  0  0
 22 23  1  0  0  0  0
 23 24  2  0  0  0  0
 23 29  1  0  0  0  0
 24 19  1  0  0  0  0
 25 24  1  0  0  0  0
 26 25  2  0  0  0  0
 27 26  1  0  0  0  0
 27 22  2  0  0  0  0
 28 22  1  0  0  0  0
 30 26  1  0  0  0  0
 31 33  1  0  0  0  0
 33 32  2  6  0  0  0
 33 36  1  0  0  0  0
 33 34  1  0  0  0  0
 35 34  1  0  0  0  0
 37 43  1  6  0  0  0
 37 42  1  0  0  0  0
 38 39  1  0  0  0  0
 38 37  1  0  0  0  0
 38 36  1  1  0  0  0
 40 39  1  0  0  0  0
 40 41  1  0  0  0  0
 41 45  1  6  0  0  0
 41 42  1  0  0  0  0
 42 47  1  1  0  0  0
 44 43  1  0  0  0  0
 45 46  1  0  0  0  0
 47 48  1  0  0  0  0
M  END
>  <minimizedAffinity>
-4.44782257

>  <minimizedRMSD>
2.25866294

$$$$
