
 OpenBabel03252508463D

 48 50  0  0  1  0  0  0  0  0999 V2000
   42.7460   31.5650   42.6030 N   0  0  0  0  0  0  0  0  0  0  0  0
   42.8750   31.9710   43.5710 H   0  0  0  0  0  0  0  0  0  0  0  0
   43.1050   32.5660   41.6530 C   0  0  0  0  0  0  0  0  0  0  0  0
   43.6020   32.1530   40.7430 H   0  0  0  0  0  0  0  0  0  0  0  0
   42.1440   33.0340   41.3040 H   0  0  0  0  0  0  0  0  0  0  0  0
   43.6730   34.9870   41.8900 C   0  0  0  0  0  0  0  0  0  0  0  0
   43.9470   33.6680   42.1940 C   0  0  0  0  0  0  0  0  0  0  0  0
   45.0260   33.3960   43.0170 C   0  0  0  0  0  0  0  0  0  0  0  0
   45.7950   34.4120   43.5100 C   0  0  0  0  0  0  0  0  0  0  0  0
   45.5320   35.7290   43.2140 C   0  0  0  0  0  0  0  0  0  0  0  0
   44.4490   35.9580   42.3910 C   0  0  0  0  0  0  0  0  0  0  0  0
   45.2420   32.3530   43.2570 H   0  0  0  0  0  0  0  0  0  0  0  0
   46.6200   34.1110   44.1440 H   0  0  0  0  0  0  0  0  0  0  0  0
   46.1550   36.5270   43.6140 H   0  0  0  0  0  0  0  0  0  0  0  0
   44.1860   36.9790   42.1170 H   0  0  0  0  0  0  0  0  0  0  0  0
   40.2330   35.7670   40.5330 C   0  0  0  0  0  0  0  0  0  0  0  0
   41.2690   35.5700   41.4630 C   0  0  0  0  0  0  0  0  0  0  0  0
   42.5240   35.2160   41.0190 C   0  0  0  0  0  0  0  0  0  0  0  0
   42.6890   35.0720   39.6720 N   0  0  0  0  0  0  0  0  0  0  0  0
   41.6820   35.2650   38.7850 C   0  0  0  0  0  0  0  0  0  0  0  0
   40.4650   35.6100   39.2290 N   0  0  0  0  0  0  0  0  0  0  0  0
   39.2500   36.0480   40.9370 H   0  0  0  0  0  0  0  0  0  0  0  0
   41.1550   35.6800   42.5250 H   0  0  0  0  0  0  0  0  0  0  0  0
   41.8700   35.1360   37.7180 H   0  0  0  0  0  0  0  0  0  0  0  0
   41.0820   31.1450   42.5280 S   0  0  0  0  0  0  0  0  0  0  0  0
   40.2240   32.3730   42.4200 O   0  0  0  0  0  0  0  0  0  0  0  0
   39.6000   32.6160   43.1260 H   0  0  0  0  0  0  0  0  0  0  0  0
   40.6810   30.3160   43.7050 O   0  0  0  0  0  0  0  0  0  0  0  0
   40.7390   30.6760   44.6130 H   0  0  0  0  0  0  0  0  0  0  0  0
   40.8860   30.2240   41.1370 O   0  0  0  0  0  0  0  0  0  0  0  0
   39.7190   29.4730   41.2660 C   0  0  0  0  0  0  0  0  0  0  0  0
   39.0150   29.8880   40.5150 H   0  0  0  0  0  0  0  0  0  0  0  0
   39.2650   29.5230   42.2630 H   0  0  0  0  0  0  0  0  0  0  0  0
   40.0220   28.0420   40.8460 C   0  0  0  0  0  0  0  0  0  0  0  0
   39.4470   27.8160   39.9350 H   0  0  0  0  0  0  0  0  0  0  0  0
   41.1200   27.9170   40.6730 H   0  0  0  0  0  0  0  0  0  0  0  0
   40.7500   27.0180   43.0010 C   0  0  2  0  0  3  0  0  0  0  0  0
   39.6520   27.1470   42.0060 C   0  0  2  0  0  3  0  0  0  0  0  0
   39.2420   25.9400   41.4510 O   0  0  0  0  0  0  0  0  0  0  0  0
   39.1240   24.9140   42.3550 C   0  0  0  0  0  2  0  0  0  0  0  0
   40.4580   24.5250   42.9460 C   0  0  1  0  0  3  0  0  0  0  0  0
   41.4130   25.6640   43.0450 C   0  0  2  0  0  3  0  0  0  0  0  0
   40.2900   27.3280   44.3060 O   0  0  0  0  0  0  0  0  0  0  0  0
   39.4410   27.8120   44.2730 H   0  0  0  0  0  0  0  0  0  0  0  0
   40.3130   23.9220   44.1950 O   0  0  0  0  0  0  0  0  0  0  0  0
   41.2180   23.8770   44.5950 H   0  0  0  0  0  0  0  0  0  0  0  0
   42.0720   25.6170   44.2950 O   0  0  0  0  0  0  0  0  0  0  0  0
   42.6160   26.4680   44.3040 H   0  0  0  0  0  0  0  0  0  0  0  0
  1  2  1  0  0  0  0
  3  7  1  0  0  0  0
  3  1  1  0  0  0  0
  4  3  1  0  0  0  0
  5  3  1  0  0  0  0
  6  7  2  0  0  0  0
  6 11  1  0  0  0  0
  7  8  1  0  0  0  0
  8 12  1  0  0  0  0
  8  9  2  0  0  0  0
  9 13  1  0  0  0  0
 10  9  1  0  0  0  0
 10 14  1  0  0  0  0
 11 10  2  0  0  0  0
 15 11  1  0  0  0  0
 16 22  1  0  0  0  0
 16 17  1  0  0  0  0
 17 23  1  0  0  0  0
 18 17  2  0  0  0  0
 18  6  1  0  0  0  0
 19 18  1  0  0  0  0
 20 21  1  0  0  0  0
 20 19  2  0  0  0  0
 21 16  2  0  0  0  0
 24 20  1  0  0  0  0
 25  1  1  0  0  0  0
 25 28  1  0  0  0  0
 26 25  1  0  0  0  0
 26 27  1  0  0  0  0
 28 29  1  0  0  0  0
 30 31  1  0  0  0  0
 30 25  1  0  0  0  0
 31 33  1  0  0  0  0
 32 31  1  0  0  0  0
 34 31  1  0  0  0  0
 35 34  1  0  0  0  0
 36 34  1  0  0  0  0
 37 42  1  0  0  0  0
 37 43  1  1  0  0  0
 38 34  1  6  0  0  0
 38 37  1  0  0  0  0
 39 38  1  0  0  0  0
 39 40  1  0  0  0  0
 40 41  1  0  0  0  0
 41 42  1  0  0  0  0
 41 45  1  1  0  0  0
 42 47  1  1  0  0  0
 44 43  1  0  0  0  0
 45 46  1  0  0  0  0
 47 48  1  0  0  0  0
M  END
>  <minimizedAffinity>
-5.28673363

>  <minimizedRMSD>
1.51955545

$$$$
