
     RDKit          3D

 45 47  0  0  0  0  0  0  0  0999 V2000
   44.5706   35.5884   44.7509 C   0  0  0  0  0  0  0  0  0  0  0  0
   45.1502   35.7321   43.4787 C   0  0  0  0  0  0  0  0  0  0  0  0
   46.1942   34.8825   43.1605 C   0  0  0  0  0  0  0  0  0  0  0  0
   46.6056   33.9700   44.0643 N   0  0  0  0  0  0  0  0  0  0  0  0
   46.0432   33.8460   45.2709 C   0  0  0  0  0  0  0  0  0  0  0  0
   45.0155   34.6629   45.6181 N   0  0  0  0  0  0  0  0  0  0  0  0
   45.4055   32.5468   47.3217 C   0  0  1  0  0  0  0  0  0  0  0  0
   46.4538   32.8787   46.3039 C   0  0  1  0  0  0  0  0  0  0  0  0
   46.6328   31.4863   45.6756 C   0  0  0  0  0  0  0  0  0  0  0  0
   46.3300   30.5651   46.6294 O   0  0  0  0  0  0  0  0  0  0  0  0
   45.9689   31.2150   47.8074 C   0  0  0  0  0  0  0  0  0  0  0  0
   45.2404   33.4856   48.2972 O   0  0  0  0  0  0  0  0  0  0  0  0
   46.7601   35.0303   41.9024 O   0  0  0  0  0  0  0  0  0  0  0  0
   48.5764   33.2513   41.1278 O   0  0  0  0  0  0  0  0  0  0  0  0
   48.4210   34.6663   41.6561 P   0  0  1  0  0  0  0  0  0  0  0  0
   49.0404   35.7948   40.5880 O   0  0  0  0  0  0  0  0  0  0  0  0
   49.1564   34.7748   43.1800 O   0  0  0  0  0  0  0  0  0  0  0  0
   43.7532   36.2563   44.9956 H   0  0  0  0  0  0  0  0  0  0  0  0
   44.7720   36.4785   42.8133 H   0  0  0  0  0  0  0  0  0  0  0  0
   44.4386   32.3291   46.7805 H   0  0  0  0  0  0  0  0  0  0  0  0
   47.3983   33.1867   46.7981 H   0  0  0  0  0  0  0  0  0  0  0  0
   46.1163   31.3862   44.7131 H   0  0  0  0  0  0  0  0  0  0  0  0
   47.7239   31.4095   45.4491 H   0  0  0  0  0  0  0  0  0  0  0  0
   46.8019   31.4047   48.4962 H   0  0  0  0  0  0  0  0  0  0  0  0
   45.1445   30.5991   48.2608 H   0  0  0  0  0  0  0  0  0  0  0  0
   44.5141   34.1018   48.0226 H   0  0  0  0  0  0  0  0  0  0  0  0
   48.3287   35.9655   39.8974 H   0  0  0  0  0  0  0  0  0  0  0  0
   50.5352   35.3327   40.6574 O   0  0  0  0  0  0  0  0  0  0  0  0
   50.8423   34.3115   41.5395 C   0  0  2  0  0  0  0  0  0  0  0  0
   50.5450   34.6259   42.9692 C   0  0  1  0  0  0  0  0  0  0  0  0
   51.2464   35.6925   43.4708 O   0  0  0  0  0  0  0  0  0  0  0  0
   52.4041   35.9771   42.7711 C   0  0  0  0  0  0  0  0  0  0  0  0
   53.1220   34.7310   42.2928 C   0  0  2  0  0  0  0  0  0  0  0  0
   54.2752   35.1041   41.6359 O   0  0  0  0  0  0  0  0  0  0  0  0
   52.2671   33.8492   41.4250 C   0  0  1  0  0  0  0  0  0  0  0  0
   52.3100   32.5316   41.9344 O   0  0  0  0  0  0  0  0  0  0  0  0
   50.0335   36.0687   41.0611 H   0  0  0  0  0  0  0  0  0  0  0  0
   50.1986   33.4210   41.2796 H   0  0  0  0  0  0  0  0  0  0  0  0
   50.8183   33.7286   43.5616 H   0  0  0  0  0  0  0  0  0  0  0  0
   52.2723   36.7354   41.9712 H   0  0  0  0  0  0  0  0  0  0  0  0
   53.0913   36.4646   43.5035 H   0  0  0  0  0  0  0  0  0  0  0  0
   53.4413   34.1750   43.2105 H   0  0  0  0  0  0  0  0  0  0  0  0
   54.3048   36.0831   41.5082 H   0  0  0  0  0  0  0  0  0  0  0  0
   52.6257   33.8294   40.3757 H   0  0  0  0  0  0  0  0  0  0  0  0
   53.2468   32.1894   41.8647 H   0  0  0  0  0  0  0  0  0  0  0  0
  1  6  2  0
  2  1  1  0
  3  2  2  0
  3  4  1  0
  4  5  2  0
  5  6  1  0
  7 11  1  0
  7 12  1  0
  8  5  1  0
  8  7  1  0
  9  8  1  0
  9 10  1  0
 10 11  1  0
 13  3  1  0
 14 15  2  0
 15 13  1  1
 15 17  1  0
 16 15  1  0
  1 18  1  0
  2 19  1  0
  7 20  1  6
  8 21  1  1
  9 22  1  0
  9 23  1  0
 11 24  1  0
 11 25  1  0
 12 26  1  0
 16 27  1  0
 28 29  1  0
 29 30  1  0
 30 31  1  0
 31 32  1  0
 32 33  1  0
 33 34  1  0
 33 35  1  0
 35 36  1  0
 35 29  1  0
 28 37  1  0
 29 38  1  6
 30 39  1  1
 32 40  1  0
 32 41  1  0
 33 42  1  1
 34 43  1  0
 35 44  1  6
 36 45  1  0
 17 30  1  0
M  ISO  8  18  14  19  14  20  13  21  13  22  13  23  13  24  13  25  13
M  ISO  2  26   3  27   3
M  END
>  <DihAtoms>  (1) 
14,16,29,28

>  <DihDeg>  (1) 
114.94981519321846

$$$$
