
     RDKit          3D

 56 59  0  0  0  0  0  0  0  0999 V2000
   46.0837   33.8395   43.1365 C   0  0  2  0  0  0  0  0  0  0  0  0
   45.3488   34.9586   42.4834 C   0  0  2  0  0  0  0  0  0  0  0  0
   45.1890   36.1409   43.3659 C   0  0  0  0  0  0  0  0  0  0  0  0
   44.6076   35.8327   44.7217 C   0  0  0  0  0  0  0  0  0  0  0  0
   45.0381   34.5095   45.2840 C   0  0  0  0  0  0  0  0  0  0  0  0
   46.3016   33.9986   44.6152 C   0  0  0  0  0  0  0  0  0  0  0  0
   47.3882   33.5747   42.4975 C   0  0  0  0  0  0  0  0  0  0  0  0
   48.4321   34.3914   42.9332 C   0  0  0  0  0  0  0  0  0  0  0  0
   49.7220   34.2349   42.4036 C   0  0  0  0  0  0  0  0  0  0  0  0
   49.8584   33.2355   41.4456 N   0  0  0  0  0  0  0  0  0  0  0  0
   48.8193   32.4662   41.0507 C   0  0  0  0  0  0  0  0  0  0  0  0
   47.5780   32.6292   41.5725 N   0  0  0  0  0  0  0  0  0  0  0  0
   43.2584   35.4547   41.1518 C   0  0  1  0  0  0  0  0  0  0  0  0
   44.0082   34.4747   41.9759 C   0  0  1  0  0  0  0  0  0  0  0  0
   44.2221   33.3293   41.2188 O   0  0  0  0  0  0  0  0  0  0  0  0
   44.0718   33.6597   39.8836 C   0  0  0  0  0  0  0  0  0  0  0  0
   42.8657   34.5863   39.9475 C   0  0  2  0  0  0  0  0  0  0  0  0
   42.1024   35.9187   41.7407 O   0  0  0  0  0  0  0  0  0  0  0  0
   42.7647   35.3810   38.8149 O   0  0  0  0  0  0  0  0  0  0  0  0
   45.4864   32.8887   42.9951 H   0  0  0  0  0  0  0  0  0  0  0  0
   45.9278   35.2858   41.5966 H   0  0  0  0  0  0  0  0  0  0  0  0
   44.5398   36.8972   42.8763 H   0  0  0  0  0  0  0  0  0  0  0  0
   46.1620   36.6551   43.5357 H   0  0  0  0  0  0  0  0  0  0  0  0
   44.7496   36.6745   45.4016 H   0  0  0  0  0  0  0  0  0  0  0  0
   43.4963   35.7433   44.5514 H   0  0  0  0  0  0  0  0  0  0  0  0
   45.3207   34.6835   46.3591 H   0  0  0  0  0  0  0  0  0  0  0  0
   44.2693   33.7205   45.2463 H   0  0  0  0  0  0  0  0  0  0  0  0
   47.1312   34.6225   44.9242 H   0  0  0  0  0  0  0  0  0  0  0  0
   46.4865   32.9834   45.0487 H   0  0  0  0  0  0  0  0  0  0  0  0
   48.4804   35.1985   43.6459 H   0  0  0  0  0  0  0  0  0  0  0  0
   50.6018   34.7785   42.6391 H   0  0  0  0  0  0  0  0  0  0  0  0
   49.0488   31.7212   40.2978 H   0  0  0  0  0  0  0  0  0  0  0  0
   43.8548   36.3175   40.8076 H   0  0  0  0  0  0  0  0  0  0  0  0
   43.4240   34.1583   42.8882 H   0  0  0  0  0  0  0  0  0  0  0  0
   44.9517   34.2512   39.5771 H   0  0  0  0  0  0  0  0  0  0  0  0
   43.8888   32.7758   39.2783 H   0  0  0  0  0  0  0  0  0  0  0  0
   41.9697   33.9878   40.1406 H   0  0  0  0  0  0  0  0  0  0  0  0
   41.5739   35.1231   42.0304 H   0  0  0  0  0  0  0  0  0  0  0  0
   40.6158   33.5641   39.5769 O   0  0  0  0  0  0  0  0  0  0  0  0
   40.9231   33.9200   38.2844 C   0  0  2  0  0  0  0  0  0  0  0  0
   41.5721   35.2748   38.1476 C   0  0  1  0  0  0  0  0  0  0  0  0
   40.7077   36.2344   38.6807 O   0  0  0  0  0  0  0  0  0  0  0  0
   39.7021   36.4383   37.7377 C   0  0  0  0  0  0  0  0  0  0  0  0
   38.8445   35.1938   37.7016 C   0  0  2  0  0  0  0  0  0  0  0  0
   38.1309   35.1008   38.8793 O   0  0  0  0  0  0  0  0  0  0  0  0
   39.6458   33.9378   37.4769 C   0  0  2  0  0  0  0  0  0  0  0  0
   38.8361   32.8537   37.8135 O   0  0  0  0  0  0  0  0  0  0  0  0
   40.6802   32.5992   39.7571 H   0  0  0  0  0  0  0  0  0  0  0  0
   41.5944   33.1445   37.8513 H   0  0  0  0  0  0  0  0  0  0  0  0
   41.6936   35.4542   37.0629 H   0  0  0  0  0  0  0  0  0  0  0  0
   39.0279   37.2699   38.0266 H   0  0  0  0  0  0  0  0  0  0  0  0
   40.1856   36.6296   36.7612 H   0  0  0  0  0  0  0  0  0  0  0  0
   38.1493   35.3397   36.8364 H   0  0  0  0  0  0  0  0  0  0  0  0
   37.7586   34.1689   38.9592 H   0  0  0  0  0  0  0  0  0  0  0  0
   39.9042   33.8702   36.4022 H   0  0  0  0  0  0  0  0  0  0  0  0
   39.0462   32.0402   37.2616 H   0  0  0  0  0  0  0  0  0  0  0  0
  1  6  1  0
  2  1  1  0
  2  3  1  0
  3  4  1  0
  4  5  1  0
  6  5  1  0
  7  8  2  0
  7  1  1  0
  9  8  1  0
 10  9  2  0
 11 10  1  0
 11 12  2  0
 12  7  1  0
 13 18  1  0
 13 14  1  0
 14 15  1  0
 14  2  1  0
 16 17  1  0
 16 15  1  0
 17 19  1  0
 17 13  1  0
  1 20  1  1
  2 21  1  6
  3 22  1  0
  3 23  1  0
  4 24  1  0
  4 25  1  0
  5 26  1  0
  5 27  1  0
  6 28  1  0
  6 29  1  0
  8 30  1  0
  9 31  1  0
 11 32  1  0
 13 33  1  6
 14 34  1  1
 16 35  1  0
 16 36  1  0
 17 37  1  1
 18 38  1  0
 39 40  1  0
 40 41  1  0
 41 42  1  0
 42 43  1  0
 43 44  1  0
 44 45  1  0
 44 46  1  0
 46 47  1  0
 46 40  1  0
 39 48  1  0
 40 49  1  6
 41 50  1  6
 43 51  1  0
 43 52  1  0
 44 53  1  6
 45 54  1  0
 46 55  1  6
 47 56  1  0
 19 41  1  0
M  ISO  8  20  13  21  13  22  13  23  13  24  13  25  13  26  13  27  13
M  ISO  8  28  13  29  13  30  14  31  14  32  14  33  13  34  13  35  13
M  ISO  3  36  13  37  13  38   3
M  END
>  <DihAtoms>  (1) 
16,18,40,39

>  <DihDeg>  (1) 
120.27306919375776

$$$$
