
 OpenBabel03252509003D

 48 50  0  0  1  0  0  0  0  0999 V2000
   47.1770   34.0970   43.0290 N   0  0  0  0  0  0  0  0  0  0  0  0
   46.7640   35.3880   42.6100 C   0  0  0  0  0  0  0  0  0  0  0  0
   45.3050   35.7090   42.8520 C   0  0  0  0  0  0  0  0  0  0  0  0
   44.7200   35.0660   44.0740 C   0  0  0  0  0  0  0  0  0  0  0  0
   45.7650   34.3150   44.8630 C   0  0  0  0  0  0  0  0  0  0  0  0
   46.3520   33.3060   43.8130 C   0  0  2  0  0  0  0  0  0  0  0  0
   46.9740   35.6480   41.5690 H   0  0  0  0  0  0  0  0  0  0  0  0
   47.3480   36.1370   43.2210 H   0  0  0  0  0  0  0  0  0  0  0  0
   44.7240   35.4750   41.9260 H   0  0  0  0  0  0  0  0  0  0  0  0
   45.1930   36.8180   42.9600 H   0  0  0  0  0  0  0  0  0  0  0  0
   44.1550   35.7890   44.7100 H   0  0  0  0  0  0  0  0  0  0  0  0
   43.9780   34.3120   43.7370 H   0  0  0  0  0  0  0  0  0  0  0  0
   46.5630   34.9380   45.2700 H   0  0  0  0  0  0  0  0  0  0  0  0
   45.2280   33.6840   45.5860 H   0  0  0  0  0  0  0  0  0  0  0  0
   45.4710   32.8270   43.3510 H   0  0  0  0  0  0  0  0  0  0  0  0
   48.1090   33.4620   42.1440 C   0  0  0  0  0  0  0  0  0  0  0  0
   48.8120   34.2200   41.7760 H   0  0  0  0  0  0  0  0  0  0  0  0
   48.6820   32.7150   42.7500 H   0  0  0  0  0  0  0  0  0  0  0  0
   47.3470   32.7240   41.0870 C   0  0  0  0  0  0  0  0  0  0  0  0
   46.3000   33.0890   41.0310 H   0  0  0  0  0  0  0  0  0  0  0  0
   47.2900   31.6480   41.2530 H   0  0  0  0  0  0  0  0  0  0  0  0
   49.3400   32.3130   37.9300 C   0  0  0  0  0  0  0  0  0  0  0  0
   48.7610   32.0550   39.1870 C   0  0  0  0  0  0  0  0  0  0  0  0
   47.9530   33.0100   39.7590 C   0  0  0  0  0  0  0  0  0  0  0  0
   47.7590   34.1510   39.0800 N   0  0  0  0  0  0  0  0  0  0  0  0
   48.3190   34.3840   37.8830 C   0  0  0  0  0  0  0  0  0  0  0  0
   49.1070   33.4790   37.2970 N   0  0  0  0  0  0  0  0  0  0  0  0
   49.9540   31.5170   37.5570 H   0  0  0  0  0  0  0  0  0  0  0  0
   48.9390   31.1220   39.7060 H   0  0  0  0  0  0  0  0  0  0  0  0
   48.0660   35.3550   37.4600 H   0  0  0  0  0  0  0  0  0  0  0  0
   47.0860   32.4480   44.6260 O   0  0  0  0  0  0  0  0  0  0  0  0
   45.3060   30.6690   43.7740 O   0  0  0  0  0  0  0  0  0  0  0  0
   46.3100   30.9750   44.8770 P   0  0  2  0  0  0  0  0  0  0  0  0
   45.3700   31.1730   46.2940 O   0  0  0  0  0  0  0  0  0  0  0  0
   44.4750   31.5250   46.0540 H   0  0  0  0  0  0  0  0  0  0  0  0
   47.3640   29.7160   45.1430 O   0  0  0  0  0  0  0  0  0  0  0  0
   48.7040   29.3710   43.2520 C   0  0  2  0  0  3  0  0  0  0  0  0
   48.6460   29.9230   44.6770 C   0  0  2  0  0  3  0  0  0  0  0  0
   49.5300   29.2400   45.5110 O   0  0  0  0  0  0  0  0  0  0  0  0
   50.7940   29.1400   44.9350 C   0  0  0  0  0  2  0  0  0  0  0  0
   50.8100   28.2430   43.7220 C   0  0  1  0  0  3  0  0  0  0  0  0
   49.3610   28.0140   43.3130 C   0  0  1  0  0  3  0  0  0  0  0  0
   49.4490   30.2770   42.4760 O   0  0  0  0  0  0  0  0  0  0  0  0
   49.6620   31.1090   43.0000 H   0  0  0  0  0  0  0  0  0  0  0  0
   51.4860   28.8580   42.6510 O   0  0  0  0  0  0  0  0  0  0  0  0
   51.1640   28.3800   41.8430 H   0  0  0  0  0  0  0  0  0  0  0  0
   48.7840   27.3130   44.3820 O   0  0  0  0  0  0  0  0  0  0  0  0
   48.2180   26.5620   44.0700 H   0  0  0  0  0  0  0  0  0  0  0  0
  1  6  1  0  0  0  0
  2  3  1  0  0  0  0
  2  1  1  0  0  0  0
  2  8  1  0  0  0  0
  3 10  1  0  0  0  0
  3  4  1  0  0  0  0
  4 11  1  0  0  0  0
  4  5  1  0  0  0  0
  5 13  1  0  0  0  0
  5 14  1  0  0  0  0
  6 15  1  6  0  0  0
  6 31  1  0  0  0  0
  6  5  1  0  0  0  0
  7  2  1  0  0  0  0
  9  3  1  0  0  0  0
 12  4  1  0  0  0  0
 16 18  1  0  0  0  0
 16  1  1  0  0  0  0
 17 16  1  0  0  0  0
 19 21  1  0  0  0  0
 19 16  1  0  0  0  0
 20 19  1  0  0  0  0
 22 23  1  0  0  0  0
 23 29  1  0  0  0  0
 23 24  2  0  0  0  0
 24 19  1  0  0  0  0
 25 24  1  0  0  0  0
 26 25  2  0  0  0  0
 27 26  1  0  0  0  0
 27 22  2  0  0  0  0
 28 22  1  0  0  0  0
 30 26  1  0  0  0  0
 31 33  1  0  0  0  0
 33 32  2  6  0  0  0
 33 36  1  0  0  0  0
 33 34  1  0  0  0  0
 35 34  1  0  0  0  0
 37 43  1  6  0  0  0
 37 42  1  0  0  0  0
 37 38  1  0  0  0  0
 38 36  1  1  0  0  0
 38 39  1  0  0  0  0
 40 39  1  0  0  0  0
 41 45  1  6  0  0  0
 41 40  1  0  0  0  0
 42 41  1  0  0  0  0
 42 47  1  1  0  0  0
 43 44  1  0  0  0  0
 46 45  1  0  0  0  0
 48 47  1  0  0  0  0
M  END
>  <minimizedAffinity>
-3.9505527

>  <minimizedRMSD>
1.05142415

$$$$
