
 OpenBabel03252508003D

 32 34  0  0  1  0  0  0  0  0999 V2000
   45.9910   34.0630   43.7080 C   0  0  0  0  0  0  0  0  0  0  0  0
   45.1070   35.0920   44.1590 C   0  0  0  0  0  0  0  0  0  0  0  0
   44.7480   35.0590   45.5120 C   0  0  0  0  0  0  0  0  0  0  0  0
   45.2520   34.0740   46.2900 N   0  0  0  0  0  0  0  0  0  0  0  0
   46.0980   33.1140   45.7850 C   0  0  0  0  0  0  0  0  0  0  0  0
   46.4660   33.1030   44.5170 N   0  0  0  0  0  0  0  0  0  0  0  0
   44.7440   35.8500   43.4790 H   0  0  0  0  0  0  0  0  0  0  0  0
   44.0860   35.8060   45.9120 H   0  0  0  0  0  0  0  0  0  0  0  0
   46.6280   32.0700   46.7150 C   0  0  1  0  0  0  0  0  0  0  0  0
   47.4470   32.5030   47.9110 C   0  0  0  0  0  0  0  0  0  0  0  0
   46.0090   32.0860   48.0560 C   0  0  1  0  0  0  0  0  0  0  0  0
   46.9360   31.1000   46.2910 H   0  0  0  0  0  0  0  0  0  0  0  0
   47.7100   33.5890   47.8860 H   0  0  0  0  0  0  0  0  0  0  0  0
   48.2620   31.8550   48.2450 H   0  0  0  0  0  0  0  0  0  0  0  0
   45.8820   31.1730   48.6600 H   0  0  0  0  0  0  0  0  0  0  0  0
   45.1490   33.1760   48.4510 N   0  0  0  0  0  0  0  0  0  0  0  0
   45.5680   34.0920   48.5330 H   0  0  0  0  0  0  0  0  0  0  0  0
   44.1590   33.0650   48.2740 H   0  0  0  0  0  0  0  0  0  0  0  0
   46.3370   34.1510   42.3110 C   0  0  0  0  0  0  0  0  0  0  0  0
   47.0870   35.0730   41.8310 O   0  0  0  0  0  0  0  0  0  0  0  0
   45.2910   33.9910   40.1520 C   0  0  1  0  0  3  0  0  0  0  0  0
   45.8500   33.1710   41.2970 C   0  0  2  0  0  3  0  0  0  0  0  0
   44.8660   32.4120   41.9210 O   0  0  0  0  0  0  0  0  0  0  0  0
   44.1740   31.6020   41.0360 C   0  0  0  0  0  2  0  0  0  0  0  0
   43.4660   32.3750   39.9610 C   0  0  1  0  0  3  0  0  0  0  0  0
   44.4860   33.1680   39.1950 C   0  0  1  0  0  3  0  0  0  0  0  0
   44.4860   35.0070   40.6590 O   0  0  0  0  0  0  0  0  0  0  0  0
   43.5920   34.6870   40.9480 H   0  0  0  0  0  0  0  0  0  0  0  0
   42.9290   31.4460   39.0580 O   0  0  0  0  0  0  0  0  0  0  0  0
   41.9960   31.6800   38.8360 H   0  0  0  0  0  0  0  0  0  0  0  0
   43.8090   34.0870   38.3640 O   0  0  0  0  0  0  0  0  0  0  0  0
   43.6290   34.9400   38.8500 H   0  0  0  0  0  0  0  0  0  0  0  0
  1  2  2  0  0  0  0
  1  6  1  0  0  0  0
  2  3  1  0  0  0  0
  3  8  1  0  0  0  0
  3  4  2  0  0  0  0
  5  4  1  0  0  0  0
  5  9  1  0  0  0  0
  6  5  2  0  0  0  0
  7  2  1  0  0  0  0
  9 12  1  6  0  0  0
  9 10  1  0  0  0  0
  9 11  1  0  0  0  0
 10 11  1  0  0  0  0
 10 14  1  0  0  0  0
 11 16  1  0  0  0  0
 11 15  1  1  0  0  0
 13 10  1  0  0  0  0
 16 17  1  0  0  0  0
 18 16  1  0  0  0  0
 19  1  1  0  0  0  0
 20 19  2  0  0  0  0
 21 27  1  1  0  0  0
 21 22  1  0  0  0  0
 22 23  1  0  0  0  0
 22 19  1  1  0  0  0
 24 23  1  0  0  0  0
 25 29  1  6  0  0  0
 25 24  1  0  0  0  0
 26 31  1  6  0  0  0
 26 25  1  0  0  0  0
 26 21  1  0  0  0  0
 27 28  1  0  0  0  0
 30 29  1  0  0  0  0
 31 32  1  0  0  0  0
M  END
>  <minimizedAffinity>
-5.23153639

>  <minimizedRMSD>
1.53706467

$$$$
