
 OpenBabel03252506123D

 39 41  0  0  1  0  0  0  0  0999 V2000
   45.2090   33.5190   41.0990 F   0  0  0  0  0  0  0  0  0  0  0  0
   46.4060   34.1070   41.0040 C   0  0  0  0  0  0  0  0  0  0  0  0
   46.8840   34.8550   42.0670 C   0  0  0  0  0  0  0  0  0  0  0  0
   48.1160   35.4960   42.0500 C   0  0  0  0  0  0  0  0  0  0  0  0
   48.9190   35.3890   40.9140 C   0  0  0  0  0  0  0  0  0  0  0  0
   48.4080   34.6350   39.8730 C   0  0  0  0  0  0  0  0  0  0  0  0
   47.2060   34.0020   39.8740 C   0  0  0  0  0  0  0  0  0  0  0  0
   48.4270   36.0690   42.9260 H   0  0  0  0  0  0  0  0  0  0  0  0
   49.8680   35.9020   40.9420 H   0  0  0  0  0  0  0  0  0  0  0  0
   49.1330   34.6290   39.0630 H   0  0  0  0  0  0  0  0  0  0  0  0
   45.4850   34.1840   45.3930 C   0  0  0  0  0  0  0  0  0  0  0  0
   44.5680   35.2580   45.5440 C   0  0  0  0  0  0  0  0  0  0  0  0
   44.4410   36.2060   44.4950 C   0  0  0  0  0  0  0  0  0  0  0  0
   45.2250   36.0130   43.3920 N   0  0  0  0  0  0  0  0  0  0  0  0
   46.0770   34.9920   43.2840 C   0  0  0  0  0  0  0  0  0  0  0  0
   46.2000   34.0920   44.2740 N   0  0  0  0  0  0  0  0  0  0  0  0
   43.9770   35.3610   46.4280 H   0  0  0  0  0  0  0  0  0  0  0  0
   43.7590   37.0240   44.5810 H   0  0  0  0  0  0  0  0  0  0  0  0
   45.5910   33.2590   46.4480 N   0  0  0  0  0  0  0  0  0  0  0  0
   46.4610   33.0010   47.0010 H   0  0  0  0  0  0  0  0  0  0  0  0
   44.7740   32.6930   46.8250 H   0  0  0  0  0  0  0  0  0  0  0  0
   46.8040   33.2810   38.7830 O   0  0  0  0  0  0  0  0  0  0  0  0
   48.0690   34.7540   36.9820 O   0  0  0  0  0  0  0  0  0  0  0  0
   47.3830   33.4270   37.2100 P   0  0  2  0  0  0  0  0  0  0  0  0
   46.0640   33.2520   36.1370 O   0  0  0  0  0  0  0  0  0  0  0  0
   45.4230   32.6360   36.5580 H   0  0  0  0  0  0  0  0  0  0  0  0
   48.4530   32.1930   36.7960 O   0  0  0  0  0  0  0  0  0  0  0  0
   49.5090   30.8200   35.1210 C   0  0  1  0  0  3  0  0  0  0  0  0
   48.5050   31.8910   35.4670 C   0  0  2  0  0  3  0  0  0  0  0  0
   48.7500   32.9750   34.6380 O   0  0  0  0  0  0  0  0  0  0  0  0
   48.2460   32.6120   33.3760 C   0  0  0  0  0  2  0  0  0  0  0  0
   48.9550   31.4230   32.8010 C   0  0  2  0  0  3  0  0  0  0  0  0
   49.1260   30.2880   33.7540 C   0  0  2  0  0  3  0  0  0  0  0  0
   50.8120   31.3290   34.9880 O   0  0  0  0  0  0  0  0  0  0  0  0
   50.8840   32.1120   35.5890 H   0  0  0  0  0  0  0  0  0  0  0  0
   50.1270   31.8200   32.2030 O   0  0  0  0  0  0  0  0  0  0  0  0
   50.9370   31.5240   32.6500 H   0  0  0  0  0  0  0  0  0  0  0  0
   48.0390   29.4210   33.8130 O   0  0  0  0  0  0  0  0  0  0  0  0
   48.0940   28.8730   32.9910 H   0  0  0  0  0  0  0  0  0  0  0  0
  2  1  1  0  0  0  0
  2  3  1  0  0  0  0
  3 15  1  0  0  0  0
  4  3  2  0  0  0  0
  4  8  1  0  0  0  0
  5  9  1  0  0  0  0
  5  4  1  0  0  0  0
  6  7  1  0  0  0  0
  6  5  2  0  0  0  0
  7  2  2  0  0  0  0
 10  6  1  0  0  0  0
 11 12  1  0  0  0  0
 11 19  1  0  0  0  0
 12 17  1  0  0  0  0
 13 18  1  0  0  0  0
 13 12  2  0  0  0  0
 14 13  1  0  0  0  0
 15 14  2  0  0  0  0
 15 16  1  0  0  0  0
 16 11  2  0  0  0  0
 19 21  1  0  0  0  0
 19 20  1  0  0  0  0
 22  7  1  0  0  0  0
 24 23  2  6  0  0  0
 24 22  1  0  0  0  0
 25 26  1  0  0  0  0
 25 24  1  0  0  0  0
 27 24  1  0  0  0  0
 28 34  1  6  0  0  0
 28 29  1  0  0  0  0
 29 27  1  1  0  0  0
 30 29  1  0  0  0  0
 31 30  1  0  0  0  0
 32 36  1  1  0  0  0
 32 31  1  0  0  0  0
 32 33  1  0  0  0  0
 33 38  1  1  0  0  0
 33 28  1  0  0  0  0
 34 35  1  0  0  0  0
 36 37  1  0  0  0  0
 39 38  1  0  0  0  0
M  END
>  <minimizedAffinity>
-7.07021713

>  <minimizedRMSD>
1.03838229

$$$$
