
 OpenBabel03252504283D

 25 26  0  0  1  0  0  0  0  0999 V2000
   37.3740   28.6150   41.3900 O   0  0  0  0  0  0  0  0  0  0  0  0
   36.6470   30.9110   41.5220 C   0  0  1  0  0  3  0  0  0  0  0  0
   37.3780   29.7510   42.1430 C   0  0  2  0  0  3  0  0  0  0  0  0
   38.6220   30.1860   42.5750 O   0  0  0  0  0  0  0  0  0  0  0  0
   39.3870   30.4720   41.4460 C   0  0  0  0  0  2  0  0  0  0  0  0
   38.8610   31.6760   40.6930 C   0  0  1  0  0  3  0  0  0  0  0  0
   37.4330   31.4300   40.3360 C   0  0  2  0  0  3  0  0  0  0  0  0
   35.3980   30.5850   41.0460 O   0  0  0  0  0  0  0  0  0  0  0  0
   34.7120   31.2940   41.1420 H   0  0  0  0  0  0  0  0  0  0  0  0
   39.0850   32.8590   41.3670 O   0  0  0  0  0  0  0  0  0  0  0  0
   39.9570   33.2780   41.1420 H   0  0  0  0  0  0  0  0  0  0  0  0
   36.8020   32.6150   39.9330 O   0  0  0  0  0  0  0  0  0  0  0  0
   36.5490   33.0990   40.7800 H   0  0  0  0  0  0  0  0  0  0  0  0
   36.8550   27.5010   42.0560 C   0  0  0  0  0  0  0  0  0  0  0  0
   36.4020   27.8930   42.9930 H   0  0  0  0  0  0  0  0  0  0  0  0
   36.1080   26.9920   41.4100 H   0  0  0  0  0  0  0  0  0  0  0  0
   37.8060   25.2790   41.9480 C   0  0  0  0  0  0  0  0  0  0  0  0
   37.8910   26.5540   42.4870 C   0  0  0  0  0  0  0  0  0  0  0  0
   38.9330   26.7980   43.3660 C   0  0  0  0  0  0  0  0  0  0  0  0
   39.7950   25.8060   43.6480 N   0  0  0  0  0  0  0  0  0  0  0  0
   39.6780   24.5690   43.1000 C   0  0  0  0  0  0  0  0  0  0  0  0
   38.6680   24.2650   42.2230 N   0  0  0  0  0  0  0  0  0  0  0  0
   37.0330   24.9750   41.2510 H   0  0  0  0  0  0  0  0  0  0  0  0
   38.9730   27.7930   43.7660 H   0  0  0  0  0  0  0  0  0  0  0  0
   40.4170   23.8260   43.3820 H   0  0  0  0  0  0  0  0  0  0  0  0
  1 14  1  0  0  0  0
  2  8  1  6  0  0  0
  2  3  1  0  0  0  0
  3  1  1  6  0  0  0
  3  4  1  0  0  0  0
  5  4  1  0  0  0  0
  6 10  1  1  0  0  0
  6  5  1  0  0  0  0
  7 12  1  1  0  0  0
  7  6  1  0  0  0  0
  7  2  1  0  0  0  0
  8  9  1  0  0  0  0
 11 10  1  0  0  0  0
 12 13  1  0  0  0  0
 14 18  1  0  0  0  0
 14 15  1  0  0  0  0
 16 14  1  0  0  0  0
 17 22  2  0  0  0  0
 17 18  1  0  0  0  0
 18 19  2  0  0  0  0
 19 20  1  0  0  0  0
 19 24  1  0  0  0  0
 21 25  1  0  0  0  0
 21 20  2  0  0  0  0
 22 21  1  0  0  0  0
 23 17  1  0  0  0  0
M  END
>  <minimizedAffinity>
-5.15760946

$$$$

 OpenBabel03252504283D

 25 26  0  0  1  0  0  0  0  0999 V2000
   38.5360   31.1180   41.7590 O   0  0  0  0  0  0  0  0  0  0  0  0
   38.6690   33.0440   40.3120 C   0  0  1  0  0  3  0  0  0  0  0  0
   39.1900   31.6880   40.7070 C   0  0  2  0  0  3  0  0  0  0  0  0
   39.3050   30.9030   39.5690 O   0  0  0  0  0  0  0  0  0  0  0  0
   38.0170   30.6250   39.1140 C   0  0  0  0  0  2  0  0  0  0  0  0
   37.3200   31.8640   38.5920 C   0  0  1  0  0  3  0  0  0  0  0  0
   37.3060   32.8960   39.6690 C   0  0  2  0  0  3  0  0  0  0  0  0
   38.5060   33.9020   41.3740 O   0  0  0  0  0  0  0  0  0  0  0  0
   38.7040   34.8540   41.1800 H   0  0  0  0  0  0  0  0  0  0  0  0
   37.8450   32.2980   37.3910 O   0  0  0  0  0  0  0  0  0  0  0  0
   37.4040   31.8900   36.6010 H   0  0  0  0  0  0  0  0  0  0  0  0
   36.9740   34.1580   39.1560 O   0  0  0  0  0  0  0  0  0  0  0  0
   37.8210   34.5280   38.7560 H   0  0  0  0  0  0  0  0  0  0  0  0
   39.3220   30.2250   42.4920 C   0  0  0  0  0  0  0  0  0  0  0  0
   40.2320   30.0470   41.8770 H   0  0  0  0  0  0  0  0  0  0  0  0
   39.5650   30.6650   43.4840 H   0  0  0  0  0  0  0  0  0  0  0  0
   37.3460   28.8360   42.3410 C   0  0  0  0  0  0  0  0  0  0  0  0
   38.6950   28.9070   42.6560 C   0  0  0  0  0  0  0  0  0  0  0  0
   39.3040   27.7390   43.0870 C   0  0  0  0  0  0  0  0  0  0  0  0
   38.5710   26.6170   43.1770 N   0  0  0  0  0  0  0  0  0  0  0  0
   37.2520   26.5870   42.8600 C   0  0  0  0  0  0  0  0  0  0  0  0
   36.5910   27.7090   42.4270 N   0  0  0  0  0  0  0  0  0  0  0  0
   36.7680   29.6850   41.9950 H   0  0  0  0  0  0  0  0  0  0  0  0
   40.3470   27.8270   43.3220 H   0  0  0  0  0  0  0  0  0  0  0  0
   36.7340   25.6380   42.9600 H   0  0  0  0  0  0  0  0  0  0  0  0
  1 14  1  0  0  0  0
  2  3  1  0  0  0  0
  2  8  1  1  0  0  0
  3  1  1  1  0  0  0
  4  3  1  0  0  0  0
  5  4  1  0  0  0  0
  6 10  1  6  0  0  0
  6  5  1  0  0  0  0
  6  7  1  0  0  0  0
  7 12  1  6  0  0  0
  7  2  1  0  0  0  0
  9  8  1  0  0  0  0
 11 10  1  0  0  0  0
 13 12  1  0  0  0  0
 14 18  1  0  0  0  0
 14 16  1  0  0  0  0
 15 14  1  0  0  0  0
 17 22  2  0  0  0  0
 17 18  1  0  0  0  0
 18 19  2  0  0  0  0
 19 20  1  0  0  0  0
 19 24  1  0  0  0  0
 21 25  1  0  0  0  0
 21 20  2  0  0  0  0
 22 21  1  0  0  0  0
 23 17  1  0  0  0  0
M  END
>  <minimizedAffinity>
-5.09815407

$$$$

 OpenBabel03252504283D

 25 26  0  0  1  0  0  0  0  0999 V2000
   38.8930   31.2550   41.2340 O   0  0  0  0  0  0  0  0  0  0  0  0
   38.3780   32.9610   39.6080 C   0  0  1  0  0  3  0  0  0  0  0  0
   39.3820   32.3090   40.5210 C   0  0  2  0  0  3  0  0  0  0  0  0
   40.5460   32.0670   39.8060 O   0  0  0  0  0  0  0  0  0  0  0  0
   40.2720   31.0670   38.8740 C   0  0  0  0  0  2  0  0  0  0  0  0
   39.3170   31.5400   37.7980 C   0  0  1  0  0  3  0  0  0  0  0  0
   38.0690   32.0350   38.4500 C   0  0  2  0  0  3  0  0  0  0  0  0
   37.1760   33.2350   40.2160 O   0  0  0  0  0  0  0  0  0  0  0  0
   36.7310   34.0680   39.9150 H   0  0  0  0  0  0  0  0  0  0  0  0
   39.9030   32.4390   36.9310 O   0  0  0  0  0  0  0  0  0  0  0  0
   40.3400   32.0030   36.1520 H   0  0  0  0  0  0  0  0  0  0  0  0
   37.2900   32.7770   37.5510 O   0  0  0  0  0  0  0  0  0  0  0  0
   37.6920   33.6990   37.5270 H   0  0  0  0  0  0  0  0  0  0  0  0
   39.6390   30.9560   42.3770 C   0  0  0  0  0  0  0  0  0  0  0  0
   40.7050   31.0880   42.0860 H   0  0  0  0  0  0  0  0  0  0  0  0
   39.3430   31.6340   43.2070 H   0  0  0  0  0  0  0  0  0  0  0  0
   38.2550   29.1510   43.2040 C   0  0  0  0  0  0  0  0  0  0  0  0
   39.5180   29.5530   42.7930 C   0  0  0  0  0  0  0  0  0  0  0  0
   40.5210   28.5980   42.8170 C   0  0  0  0  0  0  0  0  0  0  0  0
   40.2270   27.3530   43.2300 N   0  0  0  0  0  0  0  0  0  0  0  0
   38.9780   26.9980   43.6250 C   0  0  0  0  0  0  0  0  0  0  0  0
   37.9420   27.8970   43.6240 N   0  0  0  0  0  0  0  0  0  0  0  0
   37.3960   29.8120   43.2270 H   0  0  0  0  0  0  0  0  0  0  0  0
   41.4860   28.9390   42.4930 H   0  0  0  0  0  0  0  0  0  0  0  0
   38.8270   25.9710   43.9430 H   0  0  0  0  0  0  0  0  0  0  0  0
  1 14  1  0  0  0  0
  2  8  1  1  0  0  0
  2  3  1  0  0  0  0
  3  1  1  6  0  0  0
  4  3  1  0  0  0  0
  5  4  1  0  0  0  0
  6 10  1  1  0  0  0
  6  7  1  0  0  0  0
  6  5  1  0  0  0  0
  7 12  1  6  0  0  0
  7  2  1  0  0  0  0
  9  8  1  0  0  0  0
 11 10  1  0  0  0  0
 13 12  1  0  0  0  0
 14 18  1  0  0  0  0
 14 16  1  0  0  0  0
 15 14  1  0  0  0  0
 17 23  1  0  0  0  0
 17 22  1  0  0  0  0
 18 19  1  0  0  0  0
 18 17  2  0  0  0  0
 19 20  2  0  0  0  0
 20 21  1  0  0  0  0
 21 25  1  0  0  0  0
 22 21  2  0  0  0  0
 24 19  1  0  0  0  0
M  END
>  <minimizedAffinity>
-5.06620455

$$$$

 OpenBabel03252504283D

 25 26  0  0  1  0  0  0  0  0999 V2000
   37.4460   29.9750   39.2630 O   0  0  0  0  0  0  0  0  0  0  0  0
   37.9070   31.7600   37.7070 C   0  0  1  0  0  3  0  0  0  0  0  0
   37.2610   31.2970   38.9850 C   0  0  2  0  0  3  0  0  0  0  0  0
   37.5940   32.1800   40.0020 O   0  0  0  0  0  0  0  0  0  0  0  0
   38.9550   32.0300   40.2640 C   0  0  0  0  0  2  0  0  0  0  0  0
   39.8120   32.5130   39.1130 C   0  0  1  0  0  3  0  0  0  0  0  0
   39.4120   31.7790   37.8770 C   0  0  2  0  0  3  0  0  0  0  0  0
   37.6490   30.9430   36.6310 O   0  0  0  0  0  0  0  0  0  0  0  0
   37.5520   31.4100   35.7620 H   0  0  0  0  0  0  0  0  0  0  0  0
   39.8030   33.8880   38.9890 O   0  0  0  0  0  0  0  0  0  0  0  0
   40.5150   34.3330   39.5190 H   0  0  0  0  0  0  0  0  0  0  0  0
   39.9300   32.3990   36.7310 O   0  0  0  0  0  0  0  0  0  0  0  0
   39.3110   33.1660   36.5250 H   0  0  0  0  0  0  0  0  0  0  0  0
   36.3940   29.3990   39.9800 C   0  0  0  0  0  0  0  0  0  0  0  0
   35.7990   30.2500   40.3810 H   0  0  0  0  0  0  0  0  0  0  0  0
   35.7940   28.7470   39.3090 H   0  0  0  0  0  0  0  0  0  0  0  0
   37.2670   29.4100   42.2380 C   0  0  0  0  0  0  0  0  0  0  0  0
   36.8450   28.6470   41.1580 C   0  0  0  0  0  0  0  0  0  0  0  0
   36.8930   27.2700   41.3030 C   0  0  0  0  0  0  0  0  0  0  0  0
   37.3370   26.7500   42.4600 N   0  0  0  0  0  0  0  0  0  0  0  0
   37.7420   27.5310   43.4950 C   0  0  0  0  0  0  0  0  0  0  0  0
   37.7180   28.9000   43.4140 N   0  0  0  0  0  0  0  0  0  0  0  0
   37.2730   30.4930   42.2370 H   0  0  0  0  0  0  0  0  0  0  0  0
   36.5600   26.7080   40.4520 H   0  0  0  0  0  0  0  0  0  0  0  0
   38.0860   27.0300   44.3950 H   0  0  0  0  0  0  0  0  0  0  0  0
  1 14  1  0  0  0  0
  2  8  1  6  0  0  0
  2  7  1  0  0  0  0
  2  3  1  0  0  0  0
  3  1  1  1  0  0  0
  3  4  1  0  0  0  0
  4  5  1  0  0  0  0
  6 10  1  6  0  0  0
  6  5  1  0  0  0  0
  7 12  1  6  0  0  0
  7  6  1  0  0  0  0
  9  8  1  0  0  0  0
 10 11  1  0  0  0  0
 13 12  1  0  0  0  0
 14 15  1  0  0  0  0
 14 18  1  0  0  0  0
 16 14  1  0  0  0  0
 17 22  1  0  0  0  0
 18 19  1  0  0  0  0
 18 17  2  0  0  0  0
 19 20  2  0  0  0  0
 20 21  1  0  0  0  0
 21 25  1  0  0  0  0
 22 21  2  0  0  0  0
 23 17  1  0  0  0  0
 24 19  1  0  0  0  0
M  END
>  <minimizedAffinity>
-5.00729275

$$$$

 OpenBabel03252504283D

 25 26  0  0  1  0  0  0  0  0999 V2000
   38.8970   28.5080   40.6990 O   0  0  0  0  0  0  0  0  0  0  0  0
   37.5220   30.0130   41.9890 C   0  0  1  0  0  3  0  0  0  0  0  0
   38.8800   29.6410   41.4570 C   0  0  2  0  0  3  0  0  0  0  0  0
   39.4580   30.7630   40.8810 O   0  0  0  0  0  0  0  0  0  0  0  0
   38.7380   31.0640   39.7250 C   0  0  0  0  0  2  0  0  0  0  0  0
   37.3340   31.5390   40.0370 C   0  0  1  0  0  3  0  0  0  0  0  0
   36.6460   30.4950   40.8510 C   0  0  2  0  0  3  0  0  0  0  0  0
   36.8530   28.9630   42.5740 O   0  0  0  0  0  0  0  0  0  0  0  0
   36.2940   29.2040   43.3570 H   0  0  0  0  0  0  0  0  0  0  0  0
   37.3170   32.8010   40.5940 O   0  0  0  0  0  0  0  0  0  0  0  0
   37.2590   33.5260   39.9180 H   0  0  0  0  0  0  0  0  0  0  0  0
   35.4790   31.0020   41.4400 O   0  0  0  0  0  0  0  0  0  0  0  0
   35.7770   31.5040   42.2610 H   0  0  0  0  0  0  0  0  0  0  0  0
   39.4910   27.4150   41.3360 C   0  0  0  0  0  0  0  0  0  0  0  0
   40.4230   27.2030   40.7660 H   0  0  0  0  0  0  0  0  0  0  0  0
   39.6970   27.6650   42.3990 H   0  0  0  0  0  0  0  0  0  0  0  0
   39.3130   25.0240   41.6620 C   0  0  0  0  0  0  0  0  0  0  0  0
   38.6880   26.1890   41.2440 C   0  0  0  0  0  0  0  0  0  0  0  0
   37.3840   26.0760   40.7880 C   0  0  0  0  0  0  0  0  0  0  0  0
   36.8010   24.8650   40.7740 N   0  0  0  0  0  0  0  0  0  0  0  0
   37.4470   23.7470   41.1920 C   0  0  0  0  0  0  0  0  0  0  0  0
   38.7370   23.7930   41.6540 N   0  0  0  0  0  0  0  0  0  0  0  0
   40.3290   24.9930   42.0370 H   0  0  0  0  0  0  0  0  0  0  0  0
   36.9280   26.9940   40.4710 H   0  0  0  0  0  0  0  0  0  0  0  0
   36.9020   22.8080   41.1480 H   0  0  0  0  0  0  0  0  0  0  0  0
  1 14  1  0  0  0  0
  2  8  1  6  0  0  0
  3  1  1  6  0  0  0
  3  2  1  0  0  0  0
  4  3  1  0  0  0  0
  5  6  1  0  0  0  0
  5  4  1  0  0  0  0
  6 10  1  1  0  0  0
  6  7  1  0  0  0  0
  7 12  1  1  0  0  0
  7  2  1  0  0  0  0
  8  9  1  0  0  0  0
 11 10  1  0  0  0  0
 12 13  1  0  0  0  0
 14 16  1  0  0  0  0
 15 14  1  0  0  0  0
 17 23  1  0  0  0  0
 18 14  1  0  0  0  0
 18 17  2  0  0  0  0
 19 18  1  0  0  0  0
 20 19  2  0  0  0  0
 20 21  1  0  0  0  0
 21 22  2  0  0  0  0
 22 17  1  0  0  0  0
 24 19  1  0  0  0  0
 25 21  1  0  0  0  0
M  END
>  <minimizedAffinity>
-4.76430559

$$$$

 OpenBabel03252504283D

 25 26  0  0  1  0  0  0  0  0999 V2000
   37.5540   30.3490   40.0370 O   0  0  0  0  0  0  0  0  0  0  0  0
   37.8220   31.9870   38.2860 C   0  0  1  0  0  3  0  0  0  0  0  0
   37.4530   31.6680   39.7100 C   0  0  2  0  0  3  0  0  0  0  0  0
   38.1140   32.5520   40.5520 O   0  0  0  0  0  0  0  0  0  0  0  0
   39.4740   32.2470   40.5020 C   0  0  0  0  0  2  0  0  0  0  0  0
   40.0780   32.5640   39.1500 C   0  0  1  0  0  3  0  0  0  0  0  0
   39.3160   31.8270   38.1000 C   0  0  2  0  0  3  0  0  0  0  0  0
   37.2260   31.1570   37.3640 O   0  0  0  0  0  0  0  0  0  0  0  0
   36.9750   31.5900   36.5080 H   0  0  0  0  0  0  0  0  0  0  0  0
   40.1890   33.9220   38.9280 O   0  0  0  0  0  0  0  0  0  0  0  0
   41.0520   34.3000   39.2430 H   0  0  0  0  0  0  0  0  0  0  0  0
   39.6090   32.3220   36.8220 O   0  0  0  0  0  0  0  0  0  0  0  0
   39.0460   33.1500   36.7080 H   0  0  0  0  0  0  0  0  0  0  0  0
   36.5850   29.9200   40.9480 C   0  0  0  0  0  0  0  0  0  0  0  0
   36.7340   30.5380   41.8620 H   0  0  0  0  0  0  0  0  0  0  0  0
   35.5720   30.0550   40.5110 H   0  0  0  0  0  0  0  0  0  0  0  0
   36.7350   27.5740   40.3740 C   0  0  0  0  0  0  0  0  0  0  0  0
   36.7760   28.5300   41.3790 C   0  0  0  0  0  0  0  0  0  0  0  0
   36.9920   28.0760   42.6710 C   0  0  0  0  0  0  0  0  0  0  0  0
   37.1470   26.7590   42.8830 N   0  0  0  0  0  0  0  0  0  0  0  0
   37.1000   25.8530   41.8720 C   0  0  0  0  0  0  0  0  0  0  0  0
   36.8900   26.2380   40.5720 N   0  0  0  0  0  0  0  0  0  0  0  0
   36.5720   27.8120   39.3300 H   0  0  0  0  0  0  0  0  0  0  0  0
   37.0190   28.8390   43.4250 H   0  0  0  0  0  0  0  0  0  0  0  0
   37.2360   24.8080   42.1310 H   0  0  0  0  0  0  0  0  0  0  0  0
  1 14  1  0  0  0  0
  2  8  1  6  0  0  0
  2  3  1  0  0  0  0
  3  1  1  1  0  0  0
  3  4  1  0  0  0  0
  5  4  1  0  0  0  0
  6 10  1  6  0  0  0
  6  5  1  0  0  0  0
  7 12  1  6  0  0  0
  7  2  1  0  0  0  0
  7  6  1  0  0  0  0
  9  8  1  0  0  0  0
 10 11  1  0  0  0  0
 13 12  1  0  0  0  0
 14 18  1  0  0  0  0
 14 15  1  0  0  0  0
 16 14  1  0  0  0  0
 17 22  2  0  0  0  0
 17 18  1  0  0  0  0
 18 19  2  0  0  0  0
 19 20  1  0  0  0  0
 19 24  1  0  0  0  0
 21 25  1  0  0  0  0
 21 20  2  0  0  0  0
 22 21  1  0  0  0  0
 23 17  1  0  0  0  0
M  END
>  <minimizedAffinity>
-4.72498083

$$$$

 OpenBabel03252504283D

 25 26  0  0  1  0  0  0  0  0999 V2000
   39.8660   31.0390   40.6580 O   0  0  0  0  0  0  0  0  0  0  0  0
   39.0670   32.5060   38.9170 C   0  0  1  0  0  3  0  0  0  0  0  0
   39.8300   32.3230   40.2020 C   0  0  2  0  0  3  0  0  0  0  0  0
   41.0580   32.9590   40.0890 O   0  0  0  0  0  0  0  0  0  0  0  0
   41.8210   32.2450   39.1650 C   0  0  0  0  0  2  0  0  0  0  0  0
   41.2620   32.3540   37.7620 C   0  0  1  0  0  3  0  0  0  0  0  0
   39.8440   31.8870   37.7740 C   0  0  2  0  0  3  0  0  0  0  0  0
   37.8330   31.9000   38.9190 O   0  0  0  0  0  0  0  0  0  0  0  0
   37.1240   32.3860   38.4240 H   0  0  0  0  0  0  0  0  0  0  0  0
   41.4450   33.6090   37.2170 O   0  0  0  0  0  0  0  0  0  0  0  0
   42.3050   33.7000   36.7280 H   0  0  0  0  0  0  0  0  0  0  0  0
   39.1790   32.2630   36.5980 O   0  0  0  0  0  0  0  0  0  0  0  0
   38.9070   33.2240   36.7260 H   0  0  0  0  0  0  0  0  0  0  0  0
   39.5190   30.9110   42.0060 C   0  0  0  0  0  0  0  0  0  0  0  0
   40.4750   30.7380   42.5490 H   0  0  0  0  0  0  0  0  0  0  0  0
   39.0020   31.8320   42.3500 H   0  0  0  0  0  0  0  0  0  0  0  0
   37.4360   29.7190   41.6920 C   0  0  0  0  0  0  0  0  0  0  0  0
   38.6940   29.7270   42.2780 C   0  0  0  0  0  0  0  0  0  0  0  0
   39.0360   28.6280   43.0490 C   0  0  0  0  0  0  0  0  0  0  0  0
   38.1500   27.6280   43.1900 N   0  0  0  0  0  0  0  0  0  0  0  0
   36.9270   27.6570   42.6000 C   0  0  0  0  0  0  0  0  0  0  0  0
   36.5290   28.7160   41.8240 N   0  0  0  0  0  0  0  0  0  0  0  0
   37.0630   30.5240   41.0690 H   0  0  0  0  0  0  0  0  0  0  0  0
   40.0150   28.6630   43.4880 H   0  0  0  0  0  0  0  0  0  0  0  0
   36.2720   26.8070   42.7650 H   0  0  0  0  0  0  0  0  0  0  0  0
  1 14  1  0  0  0  0
  2  8  1  1  0  0  0
  2  3  1  0  0  0  0
  3  1  1  6  0  0  0
  4  3  1  0  0  0  0
  5  4  1  0  0  0  0
  6 10  1  1  0  0  0
  6  7  1  0  0  0  0
  6  5  1  0  0  0  0
  7 12  1  6  0  0  0
  7  2  1  0  0  0  0
  9  8  1  0  0  0  0
 11 10  1  0  0  0  0
 12 13  1  0  0  0  0
 14 18  1  0  0  0  0
 14 16  1  0  0  0  0
 14 15  1  0  0  0  0
 17 22  2  0  0  0  0
 17 18  1  0  0  0  0
 18 19  2  0  0  0  0
 19 20  1  0  0  0  0
 19 24  1  0  0  0  0
 21 25  1  0  0  0  0
 21 20  2  0  0  0  0
 22 21  1  0  0  0  0
 23 17  1  0  0  0  0
M  END
>  <minimizedAffinity>
-4.70430279

$$$$

 OpenBabel03252504283D

 25 26  0  0  1  0  0  0  0  0999 V2000
   37.5680   28.8740   38.8940 O   0  0  0  0  0  0  0  0  0  0  0  0
   37.2810   30.6070   37.2400 C   0  0  1  0  0  3  0  0  0  0  0  0
   36.7470   29.8600   38.4320 C   0  0  2  0  0  3  0  0  0  0  0  0
   36.3120   30.7770   39.3780 O   0  0  0  0  0  0  0  0  0  0  0  0
   37.4370   31.4240   39.8890 C   0  0  0  0  0  2  0  0  0  0  0  0
   38.1040   32.3060   38.8550 C   0  0  1  0  0  3  0  0  0  0  0  0
   38.4480   31.4730   37.6650 C   0  0  2  0  0  3  0  0  0  0  0  0
   37.7520   29.7860   36.2410 O   0  0  0  0  0  0  0  0  0  0  0  0
   37.6000   30.1150   35.3180 H   0  0  0  0  0  0  0  0  0  0  0  0
   37.3630   33.4340   38.5670 O   0  0  0  0  0  0  0  0  0  0  0  0
   37.5790   34.2040   39.1560 H   0  0  0  0  0  0  0  0  0  0  0  0
   38.7650   32.2770   36.5610 O   0  0  0  0  0  0  0  0  0  0  0  0
   37.8860   32.5590   36.1600 H   0  0  0  0  0  0  0  0  0  0  0  0
   36.9050   27.8900   39.6320 C   0  0  0  0  0  0  0  0  0  0  0  0
   35.8680   28.2690   39.7790 H   0  0  0  0  0  0  0  0  0  0  0  0
   36.9240   26.9270   39.0780 H   0  0  0  0  0  0  0  0  0  0  0  0
   36.5930   28.0160   42.0290 C   0  0  0  0  0  0  0  0  0  0  0  0
   37.4540   27.7160   40.9830 C   0  0  0  0  0  0  0  0  0  0  0  0
   38.7280   27.2880   41.3190 C   0  0  0  0  0  0  0  0  0  0  0  0
   39.0610   27.1860   42.6170 N   0  0  0  0  0  0  0  0  0  0  0  0
   38.1900   27.4900   43.6130 C   0  0  0  0  0  0  0  0  0  0  0  0
   36.9140   27.9190   43.3460 N   0  0  0  0  0  0  0  0  0  0  0  0
   35.5750   28.3590   41.8850 H   0  0  0  0  0  0  0  0  0  0  0  0
   39.3700   27.0640   40.4890 H   0  0  0  0  0  0  0  0  0  0  0  0
   38.5400   27.3790   44.6350 H   0  0  0  0  0  0  0  0  0  0  0  0
  1 14  1  0  0  0  0
  2  8  1  6  0  0  0
  2  7  1  0  0  0  0
  2  3  1  0  0  0  0
  3  1  1  1  0  0  0
  3  4  1  0  0  0  0
  4  5  1  0  0  0  0
  6 10  1  6  0  0  0
  6  5  1  0  0  0  0
  7 12  1  6  0  0  0
  7  6  1  0  0  0  0
  9  8  1  0  0  0  0
 10 11  1  0  0  0  0
 13 12  1  0  0  0  0
 14 15  1  0  0  0  0
 14 18  1  0  0  0  0
 16 14  1  0  0  0  0
 17 22  1  0  0  0  0
 18 19  1  0  0  0  0
 18 17  2  0  0  0  0
 19 20  2  0  0  0  0
 20 21  1  0  0  0  0
 21 25  1  0  0  0  0
 22 21  2  0  0  0  0
 23 17  1  0  0  0  0
 24 19  1  0  0  0  0
M  END
>  <minimizedAffinity>
-4.66417837

$$$$

 OpenBabel03252504283D

 25 26  0  0  1  0  0  0  0  0999 V2000
   36.9560   29.5260   40.1890 O   0  0  0  0  0  0  0  0  0  0  0  0
   37.7710   31.7750   39.8810 C   0  0  1  0  0  3  0  0  0  0  0  0
   38.0640   30.3150   40.0980 C   0  0  2  0  0  3  0  0  0  0  0  0
   39.0210   29.9090   39.1790 O   0  0  0  0  0  0  0  0  0  0  0  0
   38.4320   29.9280   37.9160 C   0  0  0  0  0  2  0  0  0  0  0  0
   38.1120   31.3360   37.4590 C   0  0  1  0  0  3  0  0  0  0  0  0
   37.2360   31.9830   38.4790 C   0  0  2  0  0  3  0  0  0  0  0  0
   36.8200   32.2800   40.7370 O   0  0  0  0  0  0  0  0  0  0  0  0
   36.9660   33.2180   41.0230 H   0  0  0  0  0  0  0  0  0  0  0  0
   39.2460   32.0560   37.1400 O   0  0  0  0  0  0  0  0  0  0  0  0
   39.5140   31.9610   36.1890 H   0  0  0  0  0  0  0  0  0  0  0  0
   37.1720   33.3700   38.2830 O   0  0  0  0  0  0  0  0  0  0  0  0
   38.0070   33.7490   38.7000 H   0  0  0  0  0  0  0  0  0  0  0  0
   36.8050   28.9110   41.4350 C   0  0  0  0  0  0  0  0  0  0  0  0
   37.6950   29.2130   42.0310 H   0  0  0  0  0  0  0  0  0  0  0  0
   35.8540   29.2420   41.9040 H   0  0  0  0  0  0  0  0  0  0  0  0
   36.6450   26.8920   40.1100 C   0  0  0  0  0  0  0  0  0  0  0  0
   36.8600   27.4460   41.3640 C   0  0  0  0  0  0  0  0  0  0  0  0
   37.1030   26.5660   42.4070 C   0  0  0  0  0  0  0  0  0  0  0  0
   37.1180   25.2460   42.1570 N   0  0  0  0  0  0  0  0  0  0  0  0
   36.9020   24.7420   40.9150 C   0  0  0  0  0  0  0  0  0  0  0  0
   36.6560   25.5600   39.8410 N   0  0  0  0  0  0  0  0  0  0  0  0
   36.4460   27.4830   39.2230 H   0  0  0  0  0  0  0  0  0  0  0  0
   37.2660   27.0240   43.3630 H   0  0  0  0  0  0  0  0  0  0  0  0
   36.9310   23.6630   40.8000 H   0  0  0  0  0  0  0  0  0  0  0  0
  1 14  1  0  0  0  0
  2  3  1  0  0  0  0
  2  8  1  1  0  0  0
  3  1  1  6  0  0  0
  4  3  1  0  0  0  0
  5  4  1  0  0  0  0
  6 10  1  1  0  0  0
  6  5  1  0  0  0  0
  6  7  1  0  0  0  0
  7 12  1  6  0  0  0
  7  2  1  0  0  0  0
  8  9  1  0  0  0  0
 11 10  1  0  0  0  0
 12 13  1  0  0  0  0
 14 16  1  0  0  0  0
 14 15  1  0  0  0  0
 17 18  1  0  0  0  0
 18 14  1  0  0  0  0
 18 19  2  0  0  0  0
 19 24  1  0  0  0  0
 20 19  1  0  0  0  0
 21 20  2  0  0  0  0
 22 17  2  0  0  0  0
 22 21  1  0  0  0  0
 23 17  1  0  0  0  0
 25 21  1  0  0  0  0
M  END
>  <minimizedAffinity>
-4.63001347

$$$$
