
 OpenBabel03252508473D

 48 50  0  0  1  0  0  0  0  0999 V2000
   42.7660   31.5810   42.5950 N   0  0  0  0  0  0  0  0  0  0  0  0
   42.8910   31.9870   43.5630 H   0  0  0  0  0  0  0  0  0  0  0  0
   43.1280   32.5830   41.6460 C   0  0  0  0  0  0  0  0  0  0  0  0
   43.6320   32.1700   40.7390 H   0  0  0  0  0  0  0  0  0  0  0  0
   42.1680   33.0470   41.2900 H   0  0  0  0  0  0  0  0  0  0  0  0
   43.6810   35.0060   41.8910 C   0  0  0  0  0  0  0  0  0  0  0  0
   43.9620   33.6880   42.1920 C   0  0  0  0  0  0  0  0  0  0  0  0
   45.0420   33.4190   43.0140 C   0  0  0  0  0  0  0  0  0  0  0  0
   45.8050   34.4380   43.5120 C   0  0  0  0  0  0  0  0  0  0  0  0
   45.5340   35.7550   43.2190 C   0  0  0  0  0  0  0  0  0  0  0  0
   44.4510   35.9790   42.3970 C   0  0  0  0  0  0  0  0  0  0  0  0
   45.2640   32.3770   43.2520 H   0  0  0  0  0  0  0  0  0  0  0  0
   46.6310   34.1400   44.1460 H   0  0  0  0  0  0  0  0  0  0  0  0
   46.1520   36.5550   43.6230 H   0  0  0  0  0  0  0  0  0  0  0  0
   44.1820   37.0000   42.1250 H   0  0  0  0  0  0  0  0  0  0  0  0
   40.2400   35.7760   40.5330 C   0  0  0  0  0  0  0  0  0  0  0  0
   41.2760   35.5830   41.4640 C   0  0  0  0  0  0  0  0  0  0  0  0
   42.5320   35.2310   41.0200 C   0  0  0  0  0  0  0  0  0  0  0  0
   42.6970   35.0860   39.6730 N   0  0  0  0  0  0  0  0  0  0  0  0
   41.6900   35.2740   38.7850 C   0  0  0  0  0  0  0  0  0  0  0  0
   40.4720   35.6170   39.2290 N   0  0  0  0  0  0  0  0  0  0  0  0
   39.2560   36.0550   40.9360 H   0  0  0  0  0  0  0  0  0  0  0  0
   41.1610   35.6930   42.5250 H   0  0  0  0  0  0  0  0  0  0  0  0
   41.8780   35.1450   37.7190 H   0  0  0  0  0  0  0  0  0  0  0  0
   41.1020   31.1620   42.5140 S   0  0  0  0  0  0  0  0  0  0  0  0
   40.2410   32.3910   42.4530 O   0  0  0  0  0  0  0  0  0  0  0  0
   39.6210   32.6080   43.1700 H   0  0  0  0  0  0  0  0  0  0  0  0
   40.7090   30.2920   43.6650 O   0  0  0  0  0  0  0  0  0  0  0  0
   40.7700   30.6200   44.5840 H   0  0  0  0  0  0  0  0  0  0  0  0
   40.9000   30.2890   41.0930 O   0  0  0  0  0  0  0  0  0  0  0  0
   39.8500   29.3890   41.2750 C   0  0  0  0  0  0  0  0  0  0  0  0
   39.1300   29.6060   40.4590 H   0  0  0  0  0  0  0  0  0  0  0  0
   39.3470   29.4810   42.2440 H   0  0  0  0  0  0  0  0  0  0  0  0
   40.3800   27.9820   41.0350 C   0  0  0  0  0  0  0  0  0  0  0  0
   40.3140   27.7630   39.9590 H   0  0  0  0  0  0  0  0  0  0  0  0
   41.4340   27.9010   41.4010 H   0  0  0  0  0  0  0  0  0  0  0  0
   40.3680   26.0060   42.5560 C   0  0  2  0  0  3  0  0  0  0  0  0
   39.5470   27.0410   41.8740 C   0  0  2  0  0  3  0  0  0  0  0  0
   38.5700   26.5270   41.0290 O   0  0  0  0  0  0  0  0  0  0  0  0
   37.8870   25.4530   41.5420 C   0  0  0  0  0  2  0  0  0  0  0  0
   38.7790   24.2500   41.7220 C   0  0  1  0  0  3  0  0  0  0  0  0
   40.1950   24.6050   42.0260 C   0  0  2  0  0  3  0  0  0  0  0  0
   40.1030   25.9870   43.9490 O   0  0  0  0  0  0  0  0  0  0  0  0
   39.6500   26.8060   44.2310 H   0  0  0  0  0  0  0  0  0  0  0  0
   38.2910   23.3860   42.7020 O   0  0  0  0  0  0  0  0  0  0  0  0
   39.0140   22.7370   42.8960 H   0  0  0  0  0  0  0  0  0  0  0  0
   40.6810   23.7600   43.0510 O   0  0  0  0  0  0  0  0  0  0  0  0
   41.5970   24.1370   43.2470 H   0  0  0  0  0  0  0  0  0  0  0  0
  1  2  1  0  0  0  0
  3  7  1  0  0  0  0
  3  1  1  0  0  0  0
  4  3  1  0  0  0  0
  5  3  1  0  0  0  0
  6  7  2  0  0  0  0
  6 11  1  0  0  0  0
  7  8  1  0  0  0  0
  8 12  1  0  0  0  0
  8  9  2  0  0  0  0
  9 13  1  0  0  0  0
 10  9  1  0  0  0  0
 10 14  1  0  0  0  0
 11 10  2  0  0  0  0
 15 11  1  0  0  0  0
 16 22  1  0  0  0  0
 16 17  1  0  0  0  0
 17 23  1  0  0  0  0
 18 17  2  0  0  0  0
 18  6  1  0  0  0  0
 19 18  1  0  0  0  0
 20 21  1  0  0  0  0
 20 19  2  0  0  0  0
 21 16  2  0  0  0  0
 24 20  1  0  0  0  0
 25  1  1  0  0  0  0
 25 28  1  0  0  0  0
 26 25  1  0  0  0  0
 26 27  1  0  0  0  0
 28 29  1  0  0  0  0
 30 31  1  0  0  0  0
 30 25  1  0  0  0  0
 31 33  1  0  0  0  0
 32 31  1  0  0  0  0
 34 31  1  0  0  0  0
 34 36  1  0  0  0  0
 35 34  1  0  0  0  0
 37 43  1  1  0  0  0
 38 34  1  6  0  0  0
 38 37  1  0  0  0  0
 39 40  1  0  0  0  0
 39 38  1  0  0  0  0
 40 41  1  0  0  0  0
 41 42  1  0  0  0  0
 41 45  1  1  0  0  0
 42 37  1  0  0  0  0
 42 47  1  1  0  0  0
 43 44  1  0  0  0  0
 45 46  1  0  0  0  0
 47 48  1  0  0  0  0
M  END
>  <minimizedAffinity>
-5.23092413

>  <minimizedRMSD>
0.756317258

$$$$
