
     RDKit          3D

 35 36  0  0  0  0  0  0  0  0999 V2000
   46.5399   33.6288   44.3406 C   0  0  0  0  0  0  0  0  0  0  0  0
   46.2445   33.2158   45.6520 C   0  0  0  0  0  0  0  0  0  0  0  0
   45.2930   33.9062   46.3646 C   0  0  0  0  0  0  0  0  0  0  0  0
   44.6873   34.9533   45.7600 N   0  0  0  0  0  0  0  0  0  0  0  0
   44.9643   35.3499   44.5129 C   0  0  0  0  0  0  0  0  0  0  0  0
   45.9034   34.6767   43.7974 N   0  0  0  0  0  0  0  0  0  0  0  0
   45.0399   33.4644   47.6464 O   0  0  0  0  0  0  0  0  0  0  0  0
   45.3433   30.8665   47.4686 O   0  0  0  0  0  0  0  0  0  0  0  0
   45.8126   32.1015   48.2704 P   0  0  2  0  0  0  0  0  0  0  0  0
   45.3281   31.8254   49.8546 O   0  0  0  0  0  0  0  0  0  0  0  0
   47.4551   32.2572   48.1441 O   0  0  0  0  0  0  0  0  0  0  0  0
   48.4682   31.4420   48.5209 C   0  0  0  0  0  0  0  0  0  0  0  0
   49.2104   31.9543   49.4304 O   0  0  0  0  0  0  0  0  0  0  0  0
   47.2703   33.1530   43.7004 H   0  0  0  0  0  0  0  0  0  0  0  0
   46.8286   32.3772   45.9276 H   0  0  0  0  0  0  0  0  0  0  0  0
   44.4654   36.1845   44.0629 H   0  0  0  0  0  0  0  0  0  0  0  0
   44.6523   32.4676   50.1890 H   0  0  0  0  0  0  0  0  0  0  0  0
   51.5344   31.3082   48.4451 O   0  0  0  0  0  0  0  0  0  0  0  0
   50.6174   30.4710   47.7677 C   0  0  2  0  0  0  0  0  0  0  0  0
   49.3740   30.2806   48.6086 C   0  0  2  0  0  0  0  0  0  0  0  0
   48.7208   29.0902   48.3166 O   0  0  0  0  0  0  0  0  0  0  0  0
   48.8930   28.6321   47.0327 C   0  0  0  0  0  0  0  0  0  0  0  0
   50.3063   28.4057   46.6017 C   0  0  1  0  0  0  0  0  0  0  0  0
   50.5613   29.0998   45.3973 O   0  0  0  0  0  0  0  0  0  0  0  0
   51.2050   29.0714   47.6297 C   0  0  1  0  0  0  0  0  0  0  0  0
   52.5264   29.0885   47.2154 O   0  0  0  0  0  0  0  0  0  0  0  0
   52.1871   30.7350   48.9268 H   0  0  0  0  0  0  0  0  0  0  0  0
   50.4189   30.9487   46.7904 H   0  0  0  0  0  0  0  0  0  0  0  0
   49.7840   30.1156   49.6355 H   0  0  0  0  0  0  0  0  0  0  0  0
   48.3282   29.2035   46.2535 H   0  0  0  0  0  0  0  0  0  0  0  0
   48.4058   27.6267   47.0090 H   0  0  0  0  0  0  0  0  0  0  0  0
   50.6128   27.3494   46.5392 H   0  0  0  0  0  0  0  0  0  0  0  0
   49.8819   28.9191   44.7140 H   0  0  0  0  0  0  0  0  0  0  0  0
   51.1086   28.5913   48.6227 H   0  0  0  0  0  0  0  0  0  0  0  0
   52.8685   29.9997   47.1497 H   0  0  0  0  0  0  0  0  0  0  0  0
  1  2  2  0
  2  3  1  0
  3  7  1  0
  4  3  2  0
  5  4  1  0
  6  1  1  0
  6  5  2  0
  9  7  1  6
  9  8  2  0
  9 10  1  0
 11  9  1  0
 11 12  1  0
 12 13  2  0
  1 14  1  0
  2 15  1  0
  5 16  1  0
 10 17  1  0
 18 19  1  0
 19 20  1  0
 20 21  1  0
 21 22  1  0
 22 23  1  0
 23 24  1  0
 23 25  1  0
 25 26  1  0
 25 19  1  0
 18 27  1  0
 19 28  1  6
 20 29  1  1
 22 30  1  0
 22 31  1  0
 23 32  1  6
 24 33  1  0
 25 34  1  1
 26 35  1  0
 12 20  1  0
M  ISO  4  14  14  15  14  16  14  17   3
M  END
>  <DihAtoms>  (1) 
10,11,19,18

>  <DihDeg>  (1) 
-53.916810135461034

$$$$
