
     RDKit          3D

 31 32  0  0  0  0  0  0  0  0999 V2000
   44.9179   35.1202   44.9443 C   0  0  0  0  0  0  0  0  0  0  0  0
   45.8337   34.7526   43.9467 C   0  0  0  0  0  0  0  0  0  0  0  0
   46.6846   33.6891   44.2076 C   0  0  0  0  0  0  0  0  0  0  0  0
   46.5883   33.0610   45.4090 N   0  0  0  0  0  0  0  0  0  0  0  0
   45.7024   33.4343   46.3448 C   0  0  0  0  0  0  0  0  0  0  0  0
   44.8655   34.4559   46.1285 N   0  0  0  0  0  0  0  0  0  0  0  0
   45.7977   35.5531   42.6929 C   0  0  0  0  0  0  0  0  0  0  0  0
   45.3398   36.8064   43.0357 F   0  0  0  0  0  0  0  0  0  0  0  0
   44.9179   34.9276   41.8203 F   0  0  0  0  0  0  0  0  0  0  0  0
   47.0717   35.5585   42.1580 F   0  0  0  0  0  0  0  0  0  0  0  0
   45.6265   32.7761   47.5602 O   0  0  0  0  0  0  0  0  0  0  0  0
   44.2271   35.9533   44.7826 H   0  0  0  0  0  0  0  0  0  0  0  0
   47.3773   33.4291   43.4234 H   0  0  0  0  0  0  0  0  0  0  0  0
   44.7044   30.1430   47.4230 O   0  0  0  0  0  0  0  0  0  0  0  0
   46.0324   30.4331   47.1562 C   0  0  1  0  0  0  0  0  0  0  0  0
   46.4589   31.6864   47.8963 C   0  0  1  0  0  0  0  0  0  0  0  0
   47.7303   31.9974   47.4312 O   0  0  0  0  0  0  0  0  0  0  0  0
   48.6981   31.1175   47.8865 C   0  0  0  0  0  0  0  0  0  0  0  0
   48.3689   29.6771   47.6314 C   0  0  1  0  0  0  0  0  0  0  0  0
   48.9799   28.9395   48.6557 O   0  0  0  0  0  0  0  0  0  0  0  0
   46.9278   29.3248   47.6325 C   0  0  1  0  0  0  0  0  0  0  0  0
   46.5057   29.0088   48.9371 O   0  0  0  0  0  0  0  0  0  0  0  0
   44.3518   29.5408   46.7514 H   0  0  0  0  0  0  0  0  0  0  0  0
   46.2160   30.6626   46.0748 H   0  0  0  0  0  0  0  0  0  0  0  0
   46.4571   31.4458   48.9823 H   0  0  0  0  0  0  0  0  0  0  0  0
   48.9176   31.3176   48.9598 H   0  0  0  0  0  0  0  0  0  0  0  0
   49.6331   31.3469   47.3319 H   0  0  0  0  0  0  0  0  0  0  0  0
   48.8317   29.3001   46.6733 H   0  0  0  0  0  0  0  0  0  0  0  0
   49.7264   28.3969   48.3542 H   0  0  0  0  0  0  0  0  0  0  0  0
   46.7846   28.4092   46.9883 H   0  0  0  0  0  0  0  0  0  0  0  0
   47.1551   29.3468   49.5970 H   0  0  0  0  0  0  0  0  0  0  0  0
  1  6  2  0
  2  3  2  0
  2  1  1  0
  3  4  1  0
  4  5  2  0
  5 11  1  0
  6  5  1  0
  7  8  1  0
  7  2  1  0
  9  7  1  0
 10  7  1  0
  1 12  1  0
  3 13  1  0
 14 15  1  0
 15 16  1  0
 16 17  1  0
 17 18  1  0
 18 19  1  0
 19 20  1  0
 19 21  1  0
 21 22  1  0
 21 15  1  0
 14 23  1  0
 15 24  1  6
 16 25  1  1
 18 26  1  0
 18 27  1  0
 19 28  1  6
 20 29  1  0
 21 30  1  6
 22 31  1  0
 11 16  1  0
M  ISO  2  12  14  13  14
M  END
>  <DihAtoms>  (1) 
4,10,15,14

>  <DihDeg>  (1) 
120.79974470779318

$$$$
