
 OpenBabel03252508033D

 45 48  0  0  1  0  0  0  0  0999 V2000
   42.2200   33.1080   40.9760 C   0  0  0  0  0  0  0  0  0  0  0  0
   42.8030   34.2950   41.3830 C   0  0  0  0  0  0  0  0  0  0  0  0
   41.9870   35.4000   41.5930 C   0  0  0  0  0  0  0  0  0  0  0  0
   40.6240   35.3350   41.4040 C   0  0  0  0  0  0  0  0  0  0  0  0
   40.0370   34.1670   41.0000 C   0  0  0  0  0  0  0  0  0  0  0  0
   40.8390   33.0830   40.7940 C   0  0  0  0  0  0  0  0  0  0  0  0
   42.3530   36.3770   41.9110 H   0  0  0  0  0  0  0  0  0  0  0  0
   39.9990   36.1870   41.5680 H   0  0  0  0  0  0  0  0  0  0  0  0
   38.9920   34.0860   40.8440 H   0  0  0  0  0  0  0  0  0  0  0  0
   40.3780   32.1560   40.4740 H   0  0  0  0  0  0  0  0  0  0  0  0
   43.1430   31.7620   40.6140 S   0  0  0  0  0  0  0  0  0  0  0  0
   42.1790   30.6700   40.3030 O   0  0  0  0  0  0  0  0  0  0  0  0
   43.9280   31.4080   41.9320 O   0  0  0  0  0  0  0  0  0  0  0  0
   44.0480   31.6330   38.1940 C   0  0  2  0  0  0  0  0  0  0  0  0
   44.3890   31.3210   39.6480 C   0  0  1  0  0  0  0  0  0  0  0  0
   45.6200   32.0190   39.7920 O   0  0  0  0  0  0  0  0  0  0  0  0
   46.5560   31.6630   38.8540 C   0  0  0  0  0  0  0  0  0  0  0  0
   46.3100   32.5900   37.6740 C   0  0  1  0  0  0  0  0  0  0  0  0
   44.8110   32.7710   37.5880 C   0  0  2  0  0  0  0  0  0  0  0  0
   42.6860   32.0060   38.0750 O   0  0  0  0  0  0  0  0  0  0  0  0
   42.5560   32.9430   37.8640 H   0  0  0  0  0  0  0  0  0  0  0  0
   46.8570   33.8450   37.9390 O   0  0  0  0  0  0  0  0  0  0  0  0
   46.9720   34.3030   37.0500 H   0  0  0  0  0  0  0  0  0  0  0  0
   44.4100   33.9740   38.1240 O   0  0  0  0  0  0  0  0  0  0  0  0
   45.1340   34.5430   38.4410 H   0  0  0  0  0  0  0  0  0  0  0  0
   44.2490   34.4380   41.6050 C   0  0  0  0  0  0  0  0  0  0  0  0
   45.1190   34.4940   40.6770 O   0  0  0  0  0  0  0  0  0  0  0  0
   44.5950   34.5120   42.9910 C   0  0  0  0  0  0  0  0  0  0  0  0
   44.2940   35.7440   43.6510 C   0  0  0  0  0  0  0  0  0  0  0  0
   44.6060   35.8270   45.0100 C   0  0  0  0  0  0  0  0  0  0  0  0
   45.1700   34.7440   45.6080 N   0  0  0  0  0  0  0  0  0  0  0  0
   45.4390   33.5830   44.9270 C   0  0  0  0  0  0  0  0  0  0  0  0
   45.1450   33.5320   43.6830 N   0  0  0  0  0  0  0  0  0  0  0  0
   43.8570   36.6190   43.2400 H   0  0  0  0  0  0  0  0  0  0  0  0
   44.4170   36.7230   45.6050 H   0  0  0  0  0  0  0  0  0  0  0  0
   46.0320   32.4500   45.6650 C   0  0  1  0  0  0  0  0  0  0  0  0
   46.9730   32.7360   46.8120 C   0  0  0  0  0  0  0  0  0  0  0  0
   45.5630   32.3050   47.0660 C   0  0  1  0  0  0  0  0  0  0  0  0
   46.2270   31.5220   45.1210 H   0  0  0  0  0  0  0  0  0  0  0  0
   47.3080   33.7730   46.9850 H   0  0  0  0  0  0  0  0  0  0  0  0
   47.7560   32.0010   47.0670 H   0  0  0  0  0  0  0  0  0  0  0  0
   45.3790   31.3160   47.5120 H   0  0  0  0  0  0  0  0  0  0  0  0
   44.7740   33.3570   47.6820 N   0  0  0  0  0  0  0  0  0  0  0  0
   43.9910   32.9690   48.2670 H   0  0  0  0  0  0  0  0  0  0  0  0
   45.3310   33.9450   48.3590 H   0  0  0  0  0  0  0  0  0  0  0  0
  1  2  1  0  0  0  0
  2  3  2  0  0  0  0
  2 26  1  0  0  0  0
  3  7  1  0  0  0  0
  4  8  1  0  0  0  0
  4  3  1  0  0  0  0
  5  4  2  0  0  0  0
  6  1  2  0  0  0  0
  6  5  1  0  0  0  0
  9  5  1  0  0  0  0
 10  6  1  0  0  0  0
 11  1  1  0  0  0  0
 11 13  2  0  0  0  0
 12 11  2  0  0  0  0
 14 20  1  1  0  0  0
 14 15  1  0  0  0  0
 15 16  1  0  0  0  0
 15 11  1  1  0  0  0
 17 16  1  0  0  0  0
 18 22  1  1  0  0  0
 18 17  1  0  0  0  0
 19 18  1  0  0  0  0
 19 24  1  1  0  0  0
 19 14  1  0  0  0  0
 21 20  1  0  0  0  0
 23 22  1  0  0  0  0
 24 25  1  0  0  0  0
 26 28  1  0  0  0  0
 27 26  2  0  0  0  0
 28 29  2  0  0  0  0
 28 33  1  0  0  0  0
 29 30  1  0  0  0  0
 30 35  1  0  0  0  0
 30 31  2  0  0  0  0
 32 31  1  0  0  0  0
 32 36  1  0  0  0  0
 33 32  2  0  0  0  0
 34 29  1  0  0  0  0
 36 39  1  6  0  0  0
 36 37  1  0  0  0  0
 36 38  1  0  0  0  0
 37 40  1  0  0  0  0
 37 38  1  0  0  0  0
 37 41  1  0  0  0  0
 38 42  1  1  0  0  0
 38 43  1  0  0  0  0
 43 44  1  0  0  0  0
 43 45  1  0  0  0  0
M  END
>  <minimizedAffinity>
-6.57058525

>  <minimizedRMSD>
2.07235408

$$$$
