
     RDKit          3D

 28 29  0  0  0  0  0  0  0  0999 V2000
   44.5179   36.0423   44.5413 C   0  0  0  0  0  0  0  0  0  0  0  0
   45.1765   36.0571   43.3099 C   0  0  0  0  0  0  0  0  0  0  0  0
   46.0801   35.0382   43.0144 C   0  0  0  0  0  0  0  0  0  0  0  0
   46.2768   34.0645   43.9586 N   0  0  0  0  0  0  0  0  0  0  0  0
   45.6274   34.0760   45.1377 C   0  0  0  0  0  0  0  0  0  0  0  0
   44.7467   35.0674   45.4280 N   0  0  0  0  0  0  0  0  0  0  0  0
   46.8016   34.9295   41.8330 O   0  0  0  0  0  0  0  0  0  0  0  0
   43.8223   36.8339   44.7592 H   0  0  0  0  0  0  0  0  0  0  0  0
   45.0331   36.8208   42.5494 H   0  0  0  0  0  0  0  0  0  0  0  0
   45.8932   33.2328   45.7797 H   0  0  0  0  0  0  0  0  0  0  0  0
   49.8599   34.8622   41.4372 O   0  0  0  0  0  0  0  0  0  0  0  0
   49.0234   34.0916   42.2484 C   0  0  1  0  0  0  0  0  0  0  0  0
   47.7076   33.8634   41.5963 C   0  0  1  0  0  0  0  0  0  0  0  0
   47.0673   32.6935   41.8191 O   0  0  0  0  0  0  0  0  0  0  0  0
   47.6837   31.7725   42.6305 C   0  0  0  0  0  0  0  0  0  0  0  0
   49.0932   31.6274   42.0794 C   0  0  2  0  0  0  0  0  0  0  0  0
   49.6720   30.4614   42.4924 O   0  0  0  0  0  0  0  0  0  0  0  0
   49.7921   32.8624   42.6195 C   0  0  1  0  0  0  0  0  0  0  0  0
   51.0841   32.8412   42.0821 O   0  0  0  0  0  0  0  0  0  0  0  0
   50.6344   35.2405   41.8829 H   0  0  0  0  0  0  0  0  0  0  0  0
   48.8580   34.6772   43.1772 H   0  0  0  0  0  0  0  0  0  0  0  0
   47.8877   33.9193   40.4826 H   0  0  0  0  0  0  0  0  0  0  0  0
   47.1334   30.8240   42.5827 H   0  0  0  0  0  0  0  0  0  0  0  0
   47.7196   32.1444   43.6887 H   0  0  0  0  0  0  0  0  0  0  0  0
   49.0875   31.7589   40.9659 H   0  0  0  0  0  0  0  0  0  0  0  0
   50.6070   30.6224   42.7623 H   0  0  0  0  0  0  0  0  0  0  0  0
   49.9173   32.7550   43.7215 H   0  0  0  0  0  0  0  0  0  0  0  0
   51.7828   32.9769   42.7874 H   0  0  0  0  0  0  0  0  0  0  0  0
  1  6  2  0
  2  1  1  0
  3  2  2  0
  3  4  1  0
  4  5  2  0
  5  6  1  0
  7  3  1  0
  1  8  1  0
  2  9  1  0
  5 10  1  0
 11 12  1  0
 12 13  1  0
 13 14  1  0
 14 15  1  0
 15 16  1  0
 16 17  1  0
 16 18  1  0
 18 19  1  0
 18 12  1  0
 11 20  1  0
 12 21  1  1
 13 22  1  6
 15 23  1  0
 15 24  1  0
 16 25  1  6
 17 26  1  0
 18 27  1  1
 19 28  1  0
  7 13  1  0
M  ISO  3   8  14   9  14  10  14
M  END
>  <DihAtoms>  (1) 
2,6,12,11

>  <DihDeg>  (1) 
114.2406486629493

$$$$
