
 OpenBabel03252502233D

 37 39  0  0  1  0  0  0  0  0999 V2000
   47.0690   34.6780   42.1990 N   0  0  0  0  0  0  0  0  0  0  0  0
   48.5070   34.8340   42.3030 C   0  0  0  0  0  0  0  0  0  0  0  0
   48.8780   35.7040   41.0850 C   0  0  0  0  0  0  0  0  0  0  0  0
   48.6480   34.8860   39.8360 C   0  0  0  0  0  0  0  0  0  0  0  0
   47.3810   34.0950   39.8410 C   0  0  0  0  0  0  0  0  0  0  0  0
   46.4310   34.4110   40.9560 C   0  0  1  0  0  0  0  0  0  0  0  0
   48.8380   35.2830   43.2330 H   0  0  0  0  0  0  0  0  0  0  0  0
   48.9580   33.8440   42.0740 H   0  0  0  0  0  0  0  0  0  0  0  0
   48.1570   36.5680   41.1080 H   0  0  0  0  0  0  0  0  0  0  0  0
   49.9180   36.0320   41.1090 H   0  0  0  0  0  0  0  0  0  0  0  0
   48.7460   35.5670   38.9660 H   0  0  0  0  0  0  0  0  0  0  0  0
   49.5200   34.1790   39.7740 H   0  0  0  0  0  0  0  0  0  0  0  0
   47.6060   32.9960   39.9070 H   0  0  0  0  0  0  0  0  0  0  0  0
   46.8980   34.2350   38.8530 H   0  0  0  0  0  0  0  0  0  0  0  0
   45.8770   35.3410   40.6810 H   0  0  0  0  0  0  0  0  0  0  0  0
   44.5260   35.8300   44.6910 C   0  0  0  0  0  0  0  0  0  0  0  0
   45.2900   35.8190   43.5110 C   0  0  0  0  0  0  0  0  0  0  0  0
   46.2390   34.7880   43.3570 C   0  0  0  0  0  0  0  0  0  0  0  0
   46.3460   33.8820   44.3590 N   0  0  0  0  0  0  0  0  0  0  0  0
   45.5920   33.9270   45.4800 C   0  0  0  0  0  0  0  0  0  0  0  0
   44.6700   34.9220   45.6370 N   0  0  0  0  0  0  0  0  0  0  0  0
   43.7960   36.6140   44.8220 H   0  0  0  0  0  0  0  0  0  0  0  0
   45.1880   36.5510   42.7250 H   0  0  0  0  0  0  0  0  0  0  0  0
   45.7060   33.1840   46.2600 H   0  0  0  0  0  0  0  0  0  0  0  0
   45.5640   33.3170   41.1070 O   0  0  0  0  0  0  0  0  0  0  0  0
   43.7910   32.8290   39.5210 C   0  0  2  0  0  3  0  0  0  0  0  0
   44.2760   33.5720   40.7150 C   0  0  1  0  0  3  0  0  0  0  0  0
   43.3230   33.5320   41.7060 O   0  0  0  0  0  0  0  0  0  0  0  0
   43.4710   32.2890   42.3700 C   0  0  0  0  0  2  0  0  0  0  0  0
   43.3780   31.1670   41.3720 C   0  0  1  0  0  3  0  0  0  0  0  0
   42.9390   31.6750   40.0080 C   0  0  2  0  0  3  0  0  0  0  0  0
   44.8070   32.2720   38.7550 O   0  0  0  0  0  0  0  0  0  0  0  0
   44.4500   31.9470   37.9060 H   0  0  0  0  0  0  0  0  0  0  0  0
   44.6160   30.5520   41.2880 O   0  0  0  0  0  0  0  0  0  0  0  0
   44.5720   29.7870   40.6380 H   0  0  0  0  0  0  0  0  0  0  0  0
   43.0340   30.6340   39.0890 O   0  0  0  0  0  0  0  0  0  0  0  0
   42.6880   30.9320   38.2300 H   0  0  0  0  0  0  0  0  0  0  0  0
  1  2  1  0  0  0  0
  1 18  1  0  0  0  0
  2  7  1  0  0  0  0
  3  9  1  0  0  0  0
  3 10  1  0  0  0  0
  3  2  1  0  0  0  0
  4  5  1  0  0  0  0
  4  3  1  0  0  0  0
  5 13  1  0  0  0  0
  5  6  1  0  0  0  0
  6 15  1  6  0  0  0
  6 25  1  0  0  0  0
  6  1  1  0  0  0  0
  8  2  1  0  0  0  0
 11  4  1  0  0  0  0
 12  4  1  0  0  0  0
 14  5  1  0  0  0  0
 16 22  1  0  0  0  0
 16 21  1  0  0  0  0
 17 16  2  0  0  0  0
 18 17  1  0  0  0  0
 18 19  2  0  0  0  0
 19 20  1  0  0  0  0
 20 21  2  0  0  0  0
 20 24  1  0  0  0  0
 23 17  1  0  0  0  0
 26 32  1  1  0  0  0
 26 31  1  0  0  0  0
 26 27  1  0  0  0  0
 27 25  1  1  0  0  0
 27 28  1  0  0  0  0
 28 29  1  0  0  0  0
 30 34  1  6  0  0  0
 30 29  1  0  0  0  0
 31 36  1  6  0  0  0
 31 30  1  0  0  0  0
 33 32  1  0  0  0  0
 35 34  1  0  0  0  0
 37 36  1  0  0  0  0
M  END
>  <minimizedAffinity>
-5.09342909

>  <minimizedRMSD>
1.04526198

$$$$
