
 OpenBabel03242522513D

 29 30  0  0  1  0  0  0  0  0999 V2000
   47.5200   32.1570   48.5020 O   0  0  0  0  0  0  0  0  0  0  0  0
   45.5600   30.6220   47.6910 O   0  0  0  0  0  0  0  0  0  0  0  0
   45.8810   31.9390   48.4350 P   0  0  1  0  0  0  0  0  0  0  0  0
   45.2060   31.7710   49.9640 O   0  0  0  0  0  0  0  0  0  0  0  0
   44.4720   32.4090   50.1540 H   0  0  0  0  0  0  0  0  0  0  0  0
   45.1490   33.2100   47.6030 O   0  0  0  0  0  0  0  0  0  0  0  0
   47.0400   33.1560   44.5010 C   0  0  0  0  0  0  0  0  0  0  0  0
   46.5940   32.8400   45.7960 C   0  0  0  0  0  0  0  0  0  0  0  0
   45.5490   33.5570   46.3300 C   0  0  0  0  0  0  0  0  0  0  0  0
   45.0030   34.5360   45.5730 N   0  0  0  0  0  0  0  0  0  0  0  0
   45.4240   34.8410   44.3410 C   0  0  0  0  0  0  0  0  0  0  0  0
   46.4560   34.1400   43.8010 N   0  0  0  0  0  0  0  0  0  0  0  0
   47.8510   32.6520   43.9940 H   0  0  0  0  0  0  0  0  0  0  0  0
   47.1540   32.0410   46.2080 H   0  0  0  0  0  0  0  0  0  0  0  0
   44.9690   35.6230   43.7670 H   0  0  0  0  0  0  0  0  0  0  0  0
   48.5000   31.4350   49.0930 C   0  0  0  0  0  0  0  0  0  0  0  0
   49.6080   32.0720   49.1790 O   0  0  0  0  0  0  0  0  0  0  0  0
   50.5520   30.7900   50.3200 C   0  0  2  0  0  0  0  0  0  0  0  0
   49.2250   30.3340   49.7560 C   0  0  2  0  0  0  0  0  0  0  0  0
   49.3600   29.2290   48.9250 O   0  0  0  0  0  0  0  0  0  0  0  0
   50.5750   29.1230   48.2900 C   0  0  0  0  0  0  0  0  0  0  0  0
   51.7770   29.0810   49.1780 C   0  0  2  0  0  0  0  0  0  0  0  0
   51.3270   29.5020   50.5670 C   0  0  1  0  0  0  0  0  0  0  0  0
   50.3490   31.4680   51.5440 O   0  0  0  0  0  0  0  0  0  0  0  0
   50.4800   30.8210   52.2870 H   0  0  0  0  0  0  0  0  0  0  0  0
   52.7040   30.0710   48.7840 O   0  0  0  0  0  0  0  0  0  0  0  0
   52.8930   30.0410   47.8230 H   0  0  0  0  0  0  0  0  0  0  0  0
   52.4060   29.6850   51.4170 O   0  0  0  0  0  0  0  0  0  0  0  0
   52.4390   30.5980   51.7610 H   0  0  0  0  0  0  0  0  0  0  0  0
  1 16  1  0  0  0  0
  3  2  2  6  0  0  0
  3  1  1  0  0  0  0
  3  4  1  0  0  0  0
  4  5  1  0  0  0  0
  6  3  1  0  0  0  0
  7  8  1  0  0  0  0
  8 14  1  0  0  0  0
  8  9  2  0  0  0  0
  9  6  1  0  0  0  0
 10  9  1  0  0  0  0
 11 10  2  0  0  0  0
 12 11  1  0  0  0  0
 12  7  2  0  0  0  0
 13  7  1  0  0  0  0
 15 11  1  0  0  0  0
 16 17  2  0  0  0  0
 18 23  1  0  0  0  0
 18 24  1  1  0  0  0
 19 16  1  6  0  0  0
 19 18  1  0  0  0  0
 20 19  1  0  0  0  0
 21 20  1  0  0  0  0
 21 22  1  0  0  0  0
 22 26  1  6  0  0  0
 22 23  1  0  0  0  0
 23 28  1  1  0  0  0
 24 25  1  0  0  0  0
 27 26  1  0  0  0  0
 28 29  1  0  0  0  0
M  END
>  <minimizedAffinity>
-5.35800838

>  <minimizedRMSD>
1.1201719

$$$$
