
 OpenBabel03252505303D

 30 31  0  0  1  0  0  0  0  0999 V2000
   45.3520   30.8400   46.8850 O   0  0  0  0  0  0  0  0  0  0  0  0
   45.0730   30.1150   48.0340 C   0  0  0  0  0  0  0  0  0  0  0  0
   44.0810   30.4200   48.4240 H   0  0  0  0  0  0  0  0  0  0  0  0
   45.8710   30.3080   48.7770 H   0  0  0  0  0  0  0  0  0  0  0  0
   46.4460   28.2560   47.0970 C   0  0  2  0  0  0  0  0  0  0  0  0
   45.1040   28.6510   47.6710 C   0  0  1  0  0  0  0  0  0  0  0  0
   44.6950   27.8280   48.6910 O   0  0  0  0  0  0  0  0  0  0  0  0
   44.4840   26.5450   48.2310 C   0  0  0  0  0  0  0  0  0  0  0  0
   45.8180   26.0080   47.7530 C   0  0  1  0  0  0  0  0  0  0  0  0
   46.2280   26.8400   46.5640 C   0  0  2  0  0  0  0  0  0  0  0  0
   47.4060   28.2350   48.1290 O   0  0  0  0  0  0  0  0  0  0  0  0
   48.2920   28.1270   47.7130 H   0  0  0  0  0  0  0  0  0  0  0  0
   46.7320   26.2180   48.7990 O   0  0  0  0  0  0  0  0  0  0  0  0
   47.6010   25.7490   48.5960 H   0  0  0  0  0  0  0  0  0  0  0  0
   47.3230   26.3430   45.8910 O   0  0  0  0  0  0  0  0  0  0  0  0
   46.9830   25.9900   45.0110 H   0  0  0  0  0  0  0  0  0  0  0  0
   46.9650   32.1060   48.4360 O   0  0  0  0  0  0  0  0  0  0  0  0
   45.9370   32.3430   47.3350 P   0  0  2  0  0  0  0  0  0  0  0  0
   44.6410   33.2660   47.9050 O   0  0  0  0  0  0  0  0  0  0  0  0
   43.7730   32.9660   47.5410 H   0  0  0  0  0  0  0  0  0  0  0  0
   46.7190   33.1260   46.0590 O   0  0  0  0  0  0  0  0  0  0  0  0
   44.4980   35.5870   44.7750 C   0  0  0  0  0  0  0  0  0  0  0  0
   44.8880   35.7560   43.4190 C   0  0  0  0  0  0  0  0  0  0  0  0
   45.9670   34.9590   42.9970 C   0  0  0  0  0  0  0  0  0  0  0  0
   46.5550   34.1000   43.8810 N   0  0  0  0  0  0  0  0  0  0  0  0
   46.1300   33.9950   45.1490 C   0  0  0  0  0  0  0  0  0  0  0  0
   45.1050   34.7340   45.6000 N   0  0  0  0  0  0  0  0  0  0  0  0
   43.6610   36.2080   45.1010 H   0  0  0  0  0  0  0  0  0  0  0  0
   44.3830   36.4550   42.7630 H   0  0  0  0  0  0  0  0  0  0  0  0
   46.3130   35.0390   41.9770 H   0  0  0  0  0  0  0  0  0  0  0  0
  1 18  1  0  0  0  0
  1  2  1  0  0  0  0
  2  3  1  0  0  0  0
  2  4  1  0  0  0  0
  5  6  1  0  0  0  0
  5 11  1  1  0  0  0
  6  2  1  1  0  0  0
  6  7  1  0  0  0  0
  8  7  1  0  0  0  0
  9  8  1  0  0  0  0
  9 13  1  1  0  0  0
 10 15  1  1  0  0  0
 10  5  1  0  0  0  0
 10  9  1  0  0  0  0
 12 11  1  0  0  0  0
 14 13  1  0  0  0  0
 16 15  1  0  0  0  0
 18 19  1  0  0  0  0
 18 17  2  1  0  0  0
 20 19  1  0  0  0  0
 21 18  1  0  0  0  0
 22 28  1  0  0  0  0
 22 27  1  0  0  0  0
 23 22  2  0  0  0  0
 24 23  1  0  0  0  0
 24 25  2  0  0  0  0
 25 26  1  0  0  0  0
 26 27  2  0  0  0  0
 26 21  1  0  0  0  0
 29 23  1  0  0  0  0
 30 24  1  0  0  0  0
M  END
>  <minimizedAffinity>
-5.19825029

>  <minimizedRMSD>
0.831191182

$$$$
