REMARK  Name = 
REMARK  8 active torsions:
REMARK  status: ('A' for Active; 'I' for Inactive)
REMARK    1  A    between atoms: C_5  and  O_7
REMARK    2  A    between atoms: O_7  and  P_9
REMARK    3  A    between atoms: P_9  and  O_10
REMARK    4  A    between atoms: P_9  and  O_11
REMARK    5  A    between atoms: O_11  and  C_18
REMARK    6  A    between atoms: O_16  and  C_17
REMARK    7  A    between atoms: C_21  and  O_22
REMARK    8  A    between atoms: C_23  and  O_24
REMARK                            x       y       z     vdW  Elec       q    Type
REMARK                         _______ _______ _______ _____ _____    ______ ____
ROOT
ATOM      1  O   UNL     1      46.774  32.223  48.397  0.00  0.00    +0.000 OA
ATOM      2  P   UNL     1      45.739  32.523  47.308  0.00  0.00    +0.000 P 
ENDROOT
BRANCH   2   3
ATOM      3  O   UNL     1      44.522  33.522  47.858  0.00  0.00    +0.000 OA
ATOM      4  H   UNL     1      44.874  34.071  48.601  0.00  0.00    +0.000 HD
ENDBRANCH   2   3
BRANCH   2   5
ATOM      5  O   UNL     1      46.592  33.216  46.023  0.00  0.00    +0.000 OA
BRANCH   5  10
ATOM      6  C   UNL     1      44.488  35.700  44.600  0.00  0.00    +0.000 A 
ATOM      7  C   UNL     1      44.931  35.826  43.260  0.00  0.00    +0.000 A 
ATOM      8  C   UNL     1      46.006  34.996  42.877  0.00  0.00    +0.000 A 
ATOM      9  N   UNL     1      46.535  34.149  43.796  0.00  0.00    +0.000 NA
ATOM     10  C   UNL     1      46.073  34.070  45.061  0.00  0.00    +0.000 A 
ATOM     11  N   UNL     1      45.048  34.848  45.463  0.00  0.00    +0.000 NA
ATOM     12  H   UNL     1      43.658  36.334  44.915  0.00  0.00    +0.000 HD
ATOM     13  H   UNL     1      44.479  36.516  42.560  0.00  0.00    +0.000 HD
ATOM     14  H   UNL     1      46.395  35.040  41.868  0.00  0.00    +0.000 HD
ENDBRANCH   5  10
ENDBRANCH   2   5
BRANCH   2  15
ATOM     15  O   UNL     1      45.081  31.027  46.884  0.00  0.00    +0.000 OA
BRANCH  15  17
ATOM     16  C   UNL     1      44.975  31.356  49.246  0.00  0.00    +0.000 C 
ATOM     17  C   UNL     1      44.722  30.398  48.097  0.00  0.00    +0.000 C 
ATOM     18  O   UNL     1      45.450  29.236  48.166  0.00  0.00    +0.000 OA
ATOM     19  C   UNL     1      45.265  28.512  49.322  0.00  0.00    +0.000 C 
ATOM     20  C   UNL     1      45.299  29.352  50.567  0.00  0.00    +0.000 C 
ATOM     21  C   UNL     1      45.961  30.676  50.176  0.00  0.00    +0.000 C 
BRANCH  16  22
ATOM     22  O   UNL     1      43.821  31.593  49.999  0.00  0.00    +0.000 OA
ATOM     23  H   UNL     1      43.086  30.968  49.806  0.00  0.00    +0.000 HD
ENDBRANCH  16  22
BRANCH  20  24
ATOM     24  O   UNL     1      45.937  28.766  51.638  0.00  0.00    +0.000 OA
ATOM     25  H   UNL     1      45.701  29.330  52.433  0.00  0.00    +0.000 HD
ENDBRANCH  20  24
BRANCH  21  26
ATOM     26  O   UNL     1      47.115  30.404  49.455  0.00  0.00    +0.000 OA
ATOM     27  H   UNL     1      47.290  31.113  48.783  0.00  0.00    +0.000 HD
ENDBRANCH  21  26
ENDBRANCH  15  17
ENDBRANCH   2  15
TORSDOF 8
