
     RDKit          3D

 31 32  0  0  0  0  0  0  0  0999 V2000
   44.5023   35.9994   44.5295 C   0  0  0  0  0  0  0  0  0  0  0  0
   45.1988   35.8808   43.3399 C   0  0  0  0  0  0  0  0  0  0  0  0
   46.1226   34.8291   43.1788 C   0  0  0  0  0  0  0  0  0  0  0  0
   46.3124   33.9397   44.2121 N   0  0  0  0  0  0  0  0  0  0  0  0
   45.6043   34.1019   45.3553 C   0  0  0  0  0  0  0  0  0  0  0  0
   44.7215   35.1110   45.5023 N   0  0  0  0  0  0  0  0  0  0  0  0
   45.8721   33.1099   46.4070 C   0  0  0  0  0  0  0  0  0  0  0  0
   46.4891   31.6082   45.6201 S   0  0  0  0  0  0  0  0  0  0  0  0
   43.8252   36.8324   44.5428 H   0  0  0  0  0  0  0  0  0  0  0  0
   45.1688   36.4882   42.4337 H   0  0  0  0  0  0  0  0  0  0  0  0
   46.7180   34.6528   42.2890 H   0  0  0  0  0  0  0  0  0  0  0  0
   46.6779   33.5736   47.0495 H   0  0  0  0  0  0  0  0  0  0  0  0
   45.0044   32.8964   47.0667 H   0  0  0  0  0  0  0  0  0  0  0  0
   48.6877   31.3877   47.8706 O   0  0  0  0  0  0  0  0  0  0  0  0
   47.4866   30.6936   48.0417 C   0  0  1  0  0  0  0  0  0  0  0  0
   46.8603   30.2759   46.7480 C   0  0  2  0  0  0  0  0  0  0  0  0
   47.5405   29.2466   46.1156 O   0  0  0  0  0  0  0  0  0  0  0  0
   47.5050   28.0549   46.8292 C   0  0  0  0  0  0  0  0  0  0  0  0
   47.1452   28.2019   48.2699 C   0  0  2  0  0  0  0  0  0  0  0  0
   45.7919   28.0850   48.5466 O   0  0  0  0  0  0  0  0  0  0  0  0
   47.7879   29.4428   48.8429 C   0  0  1  0  0  0  0  0  0  0  0  0
   49.1624   29.1889   48.8538 O   0  0  0  0  0  0  0  0  0  0  0  0
   49.2958   30.8493   47.3279 H   0  0  0  0  0  0  0  0  0  0  0  0
   46.7450   31.2946   48.6061 H   0  0  0  0  0  0  0  0  0  0  0  0
   45.8484   29.8549   47.0285 H   0  0  0  0  0  0  0  0  0  0  0  0
   48.5231   27.6033   46.7803 H   0  0  0  0  0  0  0  0  0  0  0  0
   46.8354   27.3093   46.3338 H   0  0  0  0  0  0  0  0  0  0  0  0
   47.6173   27.3443   48.8255 H   0  0  0  0  0  0  0  0  0  0  0  0
   45.5968   27.5419   49.3480 H   0  0  0  0  0  0  0  0  0  0  0  0
   47.4917   29.5709   49.9185 H   0  0  0  0  0  0  0  0  0  0  0  0
   49.5995   29.5283   49.6894 H   0  0  0  0  0  0  0  0  0  0  0  0
  1  6  2  0
  2  1  1  0
  3  2  2  0
  3  4  1  0
  4  5  2  0
  5  6  1  0
  5  7  1  0
  8  7  1  0
  1  9  1  0
  2 10  1  0
  3 11  1  0
  7 12  1  0
  7 13  1  0
 14 15  1  0
 15 16  1  0
 16 17  1  0
 17 18  1  0
 18 19  1  0
 19 20  1  0
 19 21  1  0
 21 22  1  0
 21 15  1  0
 14 23  1  0
 15 24  1  1
 16 25  1  1
 18 26  1  0
 18 27  1  0
 19 28  1  1
 20 29  1  0
 21 30  1  1
 22 31  1  0
  8 16  1  0
M  ISO  5   9  14  10  14  11  14  12   8  13   8
M  END
>  <DihAtoms>  (1) 
6,7,15,14

>  <DihDeg>  (1) 
66.42944879891922

$$$$
