REMARK  Name = 
REMARK  6 active torsions:
REMARK  status: ('A' for Active; 'I' for Inactive)
REMARK    1  A    between atoms: C_5  and  C_7
REMARK    2  A    between atoms: C_7  and  S_8
REMARK    3  A    between atoms: S_8  and  C_16
REMARK    4  A    between atoms: O_14  and  C_15
REMARK    5  A    between atoms: C_19  and  O_20
REMARK    6  A    between atoms: C_21  and  O_22
REMARK                            x       y       z     vdW  Elec       q    Type
REMARK                         _______ _______ _______ _____ _____    ______ ____
ROOT
ATOM      1  S   UNL     1      46.489  31.608  45.620  0.00  0.00    +0.000 S 
ENDROOT
BRANCH   1   3
ATOM      2  C   UNL     1      47.487  30.694  48.042  0.00  0.00    +0.000 C 
ATOM      3  C   UNL     1      46.860  30.276  46.748  0.00  0.00    +0.000 C 
ATOM      4  O   UNL     1      47.541  29.247  46.116  0.00  0.00    +0.000 OA
ATOM      5  C   UNL     1      47.505  28.055  46.829  0.00  0.00    +0.000 C 
ATOM      6  C   UNL     1      47.145  28.202  48.270  0.00  0.00    +0.000 C 
ATOM      7  C   UNL     1      47.788  29.443  48.843  0.00  0.00    +0.000 C 
BRANCH   2   8
ATOM      8  O   UNL     1      48.688  31.388  47.871  0.00  0.00    +0.000 OA
ATOM      9  H   UNL     1      49.296  30.849  47.328  0.00  0.00    +0.000 HD
ENDBRANCH   2   8
BRANCH   6  10
ATOM     10  O   UNL     1      45.792  28.085  48.547  0.00  0.00    +0.000 OA
ATOM     11  H   UNL     1      45.597  27.542  49.348  0.00  0.00    +0.000 HD
ENDBRANCH   6  10
BRANCH   7  12
ATOM     12  O   UNL     1      49.162  29.189  48.854  0.00  0.00    +0.000 OA
ATOM     13  H   UNL     1      49.599  29.528  49.689  0.00  0.00    +0.000 HD
ENDBRANCH   7  12
ENDBRANCH   1   3
BRANCH   1  14
ATOM     14  C   UNL     1      45.872  33.110  46.407  0.00  0.00    +0.000 C 
ATOM     15  H   UNL     1      46.678  33.574  47.050  0.00  0.00    +0.000 HD
ATOM     16  H   UNL     1      45.004  32.896  47.067  0.00  0.00    +0.000 HD
BRANCH  14  21
ATOM     17  C   UNL     1      44.502  35.999  44.529  0.00  0.00    +0.000 A 
ATOM     18  C   UNL     1      45.199  35.881  43.340  0.00  0.00    +0.000 A 
ATOM     19  C   UNL     1      46.123  34.829  43.179  0.00  0.00    +0.000 A 
ATOM     20  N   UNL     1      46.312  33.940  44.212  0.00  0.00    +0.000 NA
ATOM     21  C   UNL     1      45.604  34.102  45.355  0.00  0.00    +0.000 A 
ATOM     22  N   UNL     1      44.721  35.111  45.502  0.00  0.00    +0.000 NA
ATOM     23  H   UNL     1      43.825  36.832  44.543  0.00  0.00    +0.000 HD
ATOM     24  H   UNL     1      45.169  36.488  42.434  0.00  0.00    +0.000 HD
ATOM     25  H   UNL     1      46.718  34.653  42.289  0.00  0.00    +0.000 HD
ENDBRANCH  14  21
ENDBRANCH   1  14
TORSDOF 6
