
     RDKit          3D

 28 29  0  0  0  0  0  0  0  0999 V2000
   44.2720   35.7278   44.2664 C   0  0  0  0  0  0  0  0  0  0  0  0
   44.4222   34.9213   43.1342 C   0  0  0  0  0  0  0  0  0  0  0  0
   45.0601   33.6880   43.2666 C   0  0  0  0  0  0  0  0  0  0  0  0
   45.5046   33.3416   44.5166 N   0  0  0  0  0  0  0  0  0  0  0  0
   45.3394   34.1435   45.5713 C   0  0  0  0  0  0  0  0  0  0  0  0
   44.7278   35.3435   45.4828 N   0  0  0  0  0  0  0  0  0  0  0  0
   43.8118   35.4334   41.5330 S   0  0  0  0  0  0  0  0  0  0  0  0
   43.7849   36.6922   44.1974 H   0  0  0  0  0  0  0  0  0  0  0  0
   45.1689   33.0750   42.3825 H   0  0  0  0  0  0  0  0  0  0  0  0
   45.7688   33.6586   46.4419 H   0  0  0  0  0  0  0  0  0  0  0  0
   41.4432   36.7612   40.1836 O   0  0  0  0  0  0  0  0  0  0  0  0
   41.4548   35.3829   40.0879 C   0  0  2  0  0  0  0  0  0  0  0  0
   42.1353   34.8189   41.3186 C   0  0  1  0  0  0  0  0  0  0  0  0
   42.2121   33.4112   41.2274 O   0  0  0  0  0  0  0  0  0  0  0  0
   43.1339   33.1761   40.1896 C   0  0  0  0  0  0  0  0  0  0  0  0
   42.4718   33.4711   38.8590 C   0  0  1  0  0  0  0  0  0  0  0  0
   41.2949   32.7325   38.7454 O   0  0  0  0  0  0  0  0  0  0  0  0
   42.1655   34.9588   38.8224 C   0  0  1  0  0  0  0  0  0  0  0  0
   41.3713   35.2794   37.7421 O   0  0  0  0  0  0  0  0  0  0  0  0
   41.5268   37.2081   39.2885 H   0  0  0  0  0  0  0  0  0  0  0  0
   40.3939   35.0641   40.0868 H   0  0  0  0  0  0  0  0  0  0  0  0
   41.4646   35.0680   42.1719 H   0  0  0  0  0  0  0  0  0  0  0  0
   43.4423   32.1096   40.1436 H   0  0  0  0  0  0  0  0  0  0  0  0
   44.0614   33.7603   40.2900 H   0  0  0  0  0  0  0  0  0  0  0  0
   43.1686   33.2380   38.0535 H   0  0  0  0  0  0  0  0  0  0  0  0
   41.2530   32.0934   39.4892 H   0  0  0  0  0  0  0  0  0  0  0  0
   43.1189   35.5122   38.7339 H   0  0  0  0  0  0  0  0  0  0  0  0
   41.9785   35.4317   36.9586 H   0  0  0  0  0  0  0  0  0  0  0  0
  1  6  2  0
  2  3  2  0
  2  1  1  0
  3  4  1  0
  4  5  2  0
  6  5  1  0
  7  2  1  0
  1  8  1  0
  3  9  1  0
  5 10  1  0
 11 12  1  0
 12 13  1  0
 13 14  1  0
 14 15  1  0
 15 16  1  0
 16 17  1  0
 16 18  1  0
 18 19  1  0
 18 12  1  0
 11 20  1  0
 12 21  1  6
 13 22  1  1
 15 23  1  0
 15 24  1  0
 16 25  1  6
 17 26  1  0
 18 27  1  6
 19 28  1  0
  7 13  1  0
M  ISO  3   8  14   9  14  10  14
M  END
>  <DihAtoms>  (1) 
1,6,12,11

>  <DihDeg>  (1) 
65.96712231661348

$$$$
