
     RDKit          3D

 35 36  0  0  0  0  0  0  0  0999 V2000
   46.5399   33.6288   44.3406 C   0  0  0  0  0  0  0  0  0  0  0  0
   46.2445   33.2158   45.6520 C   0  0  0  0  0  0  0  0  0  0  0  0
   45.2930   33.9062   46.3646 C   0  0  0  0  0  0  0  0  0  0  0  0
   44.6873   34.9533   45.7600 N   0  0  0  0  0  0  0  0  0  0  0  0
   44.9643   35.3499   44.5129 C   0  0  0  0  0  0  0  0  0  0  0  0
   45.9034   34.6767   43.7974 N   0  0  0  0  0  0  0  0  0  0  0  0
   45.0399   33.4644   47.6464 O   0  0  0  0  0  0  0  0  0  0  0  0
   45.3433   30.8665   47.4686 O   0  0  0  0  0  0  0  0  0  0  0  0
   45.8126   32.1015   48.2704 P   0  0  2  0  0  0  0  0  0  0  0  0
   45.3281   31.8254   49.8546 O   0  0  0  0  0  0  0  0  0  0  0  0
   47.4551   32.2572   48.1441 O   0  0  0  0  0  0  0  0  0  0  0  0
   48.4682   31.4420   48.5209 C   0  0  0  0  0  0  0  0  0  0  0  0
   49.2104   31.9543   49.4304 O   0  0  0  0  0  0  0  0  0  0  0  0
   47.2703   33.1530   43.7004 H   0  0  0  0  0  0  0  0  0  0  0  0
   46.8286   32.3772   45.9276 H   0  0  0  0  0  0  0  0  0  0  0  0
   44.4654   36.1845   44.0629 H   0  0  0  0  0  0  0  0  0  0  0  0
   44.6523   32.4676   50.1890 H   0  0  0  0  0  0  0  0  0  0  0  0
   49.6181   29.6522   46.3073 O   0  0  0  0  0  0  0  0  0  0  0  0
   49.0693   29.2469   47.5465 C   0  0  2  0  0  0  0  0  0  0  0  0
   49.3740   30.2806   48.6086 C   0  0  2  0  0  0  0  0  0  0  0  0
   49.3918   29.7319   49.8843 O   0  0  0  0  0  0  0  0  0  0  0  0
   48.5933   28.6265   50.0532 C   0  0  0  0  0  0  0  0  0  0  0  0
   48.8670   27.4748   49.1404 C   0  0  1  0  0  0  0  0  0  0  0  0
   47.6769   27.0835   48.4862 O   0  0  0  0  0  0  0  0  0  0  0  0
   49.7702   27.9826   48.0296 C   0  0  1  0  0  0  0  0  0  0  0  0
   49.9198   27.0411   47.0249 O   0  0  0  0  0  0  0  0  0  0  0  0
   50.5037   29.2160   46.1978 H   0  0  0  0  0  0  0  0  0  0  0  0
   47.9871   29.0964   47.3764 H   0  0  0  0  0  0  0  0  0  0  0  0
   50.4442   30.5383   48.4135 H   0  0  0  0  0  0  0  0  0  0  0  0
   47.4966   28.8451   50.0969 H   0  0  0  0  0  0  0  0  0  0  0  0
   48.8163   28.2545   51.0831 H   0  0  0  0  0  0  0  0  0  0  0  0
   49.3787   26.6186   49.6081 H   0  0  0  0  0  0  0  0  0  0  0  0
   46.9347   26.9527   49.1131 H   0  0  0  0  0  0  0  0  0  0  0  0
   50.7552   28.3006   48.4227 H   0  0  0  0  0  0  0  0  0  0  0  0
   49.6085   27.3828   46.1659 H   0  0  0  0  0  0  0  0  0  0  0  0
  1  2  2  0
  2  3  1  0
  3  7  1  0
  4  3  2  0
  5  4  1  0
  6  1  1  0
  6  5  2  0
  9  7  1  6
  9  8  2  0
  9 10  1  0
 11  9  1  0
 11 12  1  0
 12 13  2  0
  1 14  1  0
  2 15  1  0
  5 16  1  0
 10 17  1  0
 18 19  1  0
 19 20  1  0
 20 21  1  0
 21 22  1  0
 22 23  1  0
 23 24  1  0
 23 25  1  0
 25 26  1  0
 25 19  1  0
 18 27  1  0
 19 28  1  6
 20 29  1  6
 22 30  1  0
 22 31  1  0
 23 32  1  1
 24 33  1  0
 25 34  1  1
 26 35  1  0
 12 20  1  0
M  ISO  4  14  14  15  14  16  14  17   3
M  END
>  <DihAtoms>  (1) 
10,11,19,18

>  <DihDeg>  (1) 
-53.916810135461034

$$$$
