
 OpenBabel03242521163D

 37 39  0  0  1  0  0  0  0  0999 V2000
   44.5070   35.6900   44.7620 C   0  0  0  0  0  0  0  0  0  0  0  0
   45.1260   35.6510   43.4950 C   0  0  0  0  0  0  0  0  0  0  0  0
   46.1400   34.7110   43.2940 C   0  0  0  0  0  0  0  0  0  0  0  0
   46.4860   33.8720   44.3340 N   0  0  0  0  0  0  0  0  0  0  0  0
   45.8500   33.9650   45.5220 C   0  0  0  0  0  0  0  0  0  0  0  0
   44.8680   34.8550   45.7580 N   0  0  0  0  0  0  0  0  0  0  0  0
   43.7160   36.3880   44.9900 H   0  0  0  0  0  0  0  0  0  0  0  0
   44.8150   36.3270   42.7280 H   0  0  0  0  0  0  0  0  0  0  0  0
   46.7620   34.6710   42.0250 N   0  0  0  0  0  0  0  0  0  0  0  0
   47.9620   35.2490   41.8670 C   0  0  0  0  0  0  0  0  0  0  0  0
   48.5760   35.2120   40.6180 C   0  0  0  0  0  0  0  0  0  0  0  0
   47.9170   34.5770   39.6000 C   0  0  0  0  0  0  0  0  0  0  0  0
   48.4850   34.5450   38.4560 O   0  0  0  0  0  0  0  0  0  0  0  0
   46.7140   33.9860   39.7260 N   0  0  0  0  0  0  0  0  0  0  0  0
   46.1820   34.0640   40.9610 C   0  0  0  0  0  0  0  0  0  0  0  0
   45.0600   33.5450   41.1890 O   0  0  0  0  0  0  0  0  0  0  0  0
   48.4460   35.7410   42.7030 H   0  0  0  0  0  0  0  0  0  0  0  0
   49.5490   35.6660   40.4370 H   0  0  0  0  0  0  0  0  0  0  0  0
   46.2370   33.5140   38.9420 H   0  0  0  0  0  0  0  0  0  0  0  0
   46.4220   32.9450   46.4560 C   0  0  0  0  0  0  0  0  0  0  0  0
   46.6190   31.9920   45.9040 H   0  0  0  0  0  0  0  0  0  0  0  0
   47.4100   33.3060   46.7620 H   0  0  0  0  0  0  0  0  0  0  0  0
   45.4690   32.6440   47.5820 C   0  0  0  0  0  0  0  0  0  0  0  0
   44.4340   32.8270   47.2340 H   0  0  0  0  0  0  0  0  0  0  0  0
   45.6450   33.2820   48.4680 H   0  0  0  0  0  0  0  0  0  0  0  0
   46.7570   30.8070   48.7270 C   0  0  1  0  0  0  0  0  0  0  0  0
   45.5040   31.2050   48.0420 C   0  0  2  0  0  0  0  0  0  0  0  0
   45.1690   30.3950   46.9340 O   0  0  0  0  0  0  0  0  0  0  0  0
   45.1950   29.0890   47.4190 C   0  0  0  0  0  0  0  0  0  0  0  0
   46.6560   28.6850   47.3930 C   0  0  2  0  0  0  0  0  0  0  0  0
   47.5360   29.7320   48.0240 C   0  0  2  0  0  0  0  0  0  0  0  0
   47.5820   31.8760   49.0680 O   0  0  0  0  0  0  0  0  0  0  0  0
   47.3450   32.2880   49.9390 H   0  0  0  0  0  0  0  0  0  0  0  0
   46.9970   28.4580   46.0640 O   0  0  0  0  0  0  0  0  0  0  0  0
   47.9500   28.6090   45.8670 H   0  0  0  0  0  0  0  0  0  0  0  0
   48.4320   29.0930   48.8780 O   0  0  0  0  0  0  0  0  0  0  0  0
   48.0120   28.7890   49.7000 H   0  0  0  0  0  0  0  0  0  0  0  0
  1  7  1  0  0  0  0
  1  6  1  0  0  0  0
  2  1  2  0  0  0  0
  3  2  1  0  0  0  0
  3  4  2  0  0  0  0
  4  5  1  0  0  0  0
  5  6  2  0  0  0  0
  5 20  1  0  0  0  0
  8  2  1  0  0  0  0
  9  3  1  0  0  0  0
 10  9  1  0  0  0  0
 10 17  1  0  0  0  0
 11 10  2  0  0  0  0
 12 14  1  0  0  0  0
 12 11  1  0  0  0  0
 13 12  2  0  0  0  0
 14 15  1  0  0  0  0
 15 16  2  0  0  0  0
 15  9  1  0  0  0  0
 18 11  1  0  0  0  0
 19 14  1  0  0  0  0
 20 22  1  0  0  0  0
 20 23  1  0  0  0  0
 21 20  1  0  0  0  0
 23 25  1  0  0  0  0
 24 23  1  0  0  0  0
 26 32  1  6  0  0  0
 27 23  1  6  0  0  0
 27 26  1  0  0  0  0
 28 29  1  0  0  0  0
 28 27  1  0  0  0  0
 30 34  1  6  0  0  0
 30 29  1  0  0  0  0
 30 31  1  0  0  0  0
 31 26  1  0  0  0  0
 31 36  1  1  0  0  0
 32 33  1  0  0  0  0
 35 34  1  0  0  0  0
 36 37  1  0  0  0  0
M  END
>  <minimizedAffinity>
-6.81038523

>  <minimizedRMSD>
1.03787768

$$$$
