
 OpenBabel03242512013D

 50 53  0  0  1  0  0  0  0  0999 V2000
   47.4960   34.2550   42.3260 C   0  0  2  0  0  0  0  0  0  0  0  0
   48.8010   34.9500   42.5520 C   0  0  0  0  0  0  0  0  0  0  0  0
   49.0700   35.9880   41.5370 C   0  0  0  0  0  0  0  0  0  0  0  0
   49.0150   35.4650   40.1250 C   0  0  0  0  0  0  0  0  0  0  0  0
   47.8990   34.4910   39.8880 C   0  0  0  0  0  0  0  0  0  0  0  0
   46.8750   34.4740   40.9970 C   0  0  1  0  0  0  0  0  0  0  0  0
   47.7240   33.1480   42.4170 H   0  0  0  0  0  0  0  0  0  0  0  0
   48.7390   35.4600   43.5500 H   0  0  0  0  0  0  0  0  0  0  0  0
   49.6540   34.2480   42.6310 H   0  0  0  0  0  0  0  0  0  0  0  0
   48.4460   36.8930   41.6700 H   0  0  0  0  0  0  0  0  0  0  0  0
   50.1220   36.3540   41.6840 H   0  0  0  0  0  0  0  0  0  0  0  0
   48.9540   36.3670   39.4580 H   0  0  0  0  0  0  0  0  0  0  0  0
   49.9600   34.9600   39.8320 H   0  0  0  0  0  0  0  0  0  0  0  0
   47.3730   34.8060   38.9620 H   0  0  0  0  0  0  0  0  0  0  0  0
   48.2760   33.4620   39.6660 H   0  0  0  0  0  0  0  0  0  0  0  0
   46.2870   35.3930   40.8620 H   0  0  0  0  0  0  0  0  0  0  0  0
   46.5160   34.5090   43.4020 C   0  0  0  0  0  0  0  0  0  0  0  0
   45.7240   35.6180   43.1650 C   0  0  0  0  0  0  0  0  0  0  0  0
   44.7390   35.9830   44.0970 C   0  0  0  0  0  0  0  0  0  0  0  0
   44.6450   35.1600   45.2260 N   0  0  0  0  0  0  0  0  0  0  0  0
   45.4440   34.0890   45.4100 C   0  0  0  0  0  0  0  0  0  0  0  0
   46.3760   33.7760   44.4880 N   0  0  0  0  0  0  0  0  0  0  0  0
   45.6410   36.3670   42.3910 H   0  0  0  0  0  0  0  0  0  0  0  0
   44.0420   36.7800   44.1030 H   0  0  0  0  0  0  0  0  0  0  0  0
   45.3200   33.5040   46.2930 H   0  0  0  0  0  0  0  0  0  0  0  0
   45.9300   33.3330   40.7360 C   0  0  2  0  0  0  0  0  0  0  0  0
   45.6170   33.0030   39.2870 C   0  0  0  0  0  0  0  0  0  0  0  0
   44.5830   33.5810   40.1580 C   0  0  1  0  0  0  0  0  0  0  0  0
   46.1200   32.4210   41.3480 H   0  0  0  0  0  0  0  0  0  0  0  0
   46.0020   33.6470   38.4810 H   0  0  0  0  0  0  0  0  0  0  0  0
   45.5320   31.9430   38.9770 H   0  0  0  0  0  0  0  0  0  0  0  0
   44.3190   34.6550   40.0200 H   0  0  0  0  0  0  0  0  0  0  0  0
   43.5060   32.7900   40.8270 C   0  0  0  0  0  0  0  0  0  0  0  0
   42.9870   32.2220   40.0060 H   0  0  0  0  0  0  0  0  0  0  0  0
   43.9030   32.0100   41.5050 H   0  0  0  0  0  0  0  0  0  0  0  0
   42.4610   33.6250   41.5060 C   0  0  0  0  0  0  0  0  0  0  0  0
   42.8790   34.5960   41.8260 H   0  0  0  0  0  0  0  0  0  0  0  0
   42.1170   33.0630   42.3990 H   0  0  0  0  0  0  0  0  0  0  0  0
   40.1170   33.0810   41.2440 C   0  0  2  0  0  0  0  0  0  0  0  0
   41.2690   33.8270   40.6030 C   0  0  1  0  0  0  0  0  0  0  0  0
   40.9720   35.1700   40.4170 O   0  0  0  0  0  0  0  0  0  0  0  0
   39.6240   35.4420   40.3600 C   0  0  0  0  0  0  0  0  0  0  0  0
   38.8510   34.3760   39.6050 C   0  0  2  0  0  0  0  0  0  0  0  0
   38.9730   33.0440   40.2800 C   0  0  2  0  0  0  0  0  0  0  0  0
   39.7720   33.6890   42.4420 O   0  0  0  0  0  0  0  0  0  0  0  0
   39.8140   33.0650   43.2080 H   0  0  0  0  0  0  0  0  0  0  0  0
   39.3220   34.3330   38.2860 O   0  0  0  0  0  0  0  0  0  0  0  0
   38.7450   34.9340   37.7540 H   0  0  0  0  0  0  0  0  0  0  0  0
   37.8250   32.7060   40.9900 O   0  0  0  0  0  0  0  0  0  0  0  0
   37.8020   31.7250   41.1010 H   0  0  0  0  0  0  0  0  0  0  0  0
  1  7  1  1  0  0  0
  1  2  1  0  0  0  0
  1 17  1  0  0  0  0
  2  9  1  0  0  0  0
  2  8  1  0  0  0  0
  3 10  1  0  0  0  0
  3 11  1  0  0  0  0
  3  2  1  0  0  0  0
  4  3  1  0  0  0  0
  5  4  1  0  0  0  0
  5  6  1  0  0  0  0
  6 16  1  1  0  0  0
  6  1  1  0  0  0  0
 12  4  1  0  0  0  0
 13  4  1  0  0  0  0
 14  5  1  0  0  0  0
 15  5  1  0  0  0  0
 17 22  1  0  0  0  0
 18 17  2  0  0  0  0
 18 19  1  0  0  0  0
 19 24  1  0  0  0  0
 19 20  2  0  0  0  0
 20 21  1  0  0  0  0
 21 25  1  0  0  0  0
 22 21  2  0  0  0  0
 23 18  1  0  0  0  0
 26  6  1  0  0  0  0
 26 29  1  1  0  0  0
 27 28  1  0  0  0  0
 27 26  1  0  0  0  0
 28 32  1  6  0  0  0
 28 26  1  0  0  0  0
 28 33  1  0  0  0  0
 30 27  1  0  0  0  0
 31 27  1  0  0  0  0
 33 35  1  0  0  0  0
 33 36  1  0  0  0  0
 34 33  1  0  0  0  0
 36 37  1  0  0  0  0
 36 38  1  0  0  0  0
 39 45  1  1  0  0  0
 40 39  1  0  0  0  0
 40 36  1  1  0  0  0
 41 40  1  0  0  0  0
 42 41  1  0  0  0  0
 43 47  1  6  0  0  0
 43 44  1  0  0  0  0
 43 42  1  0  0  0  0
 44 49  1  1  0  0  0
 44 39  1  0  0  0  0
 45 46  1  0  0  0  0
 48 47  1  0  0  0  0
 49 50  1  0  0  0  0
M  END
>  <minimizedAffinity>
-7.5509944

>  <minimizedRMSD>
2.607095

$$$$
