
     RDKit          3D

 44 45  0  0  0  0  0  0  0  0999 V2000
   42.5436   35.2640   40.8872 O   0  0  0  0  0  0  0  0  0  0  0  0
   41.2811   35.7294   41.1629 C   0  0  0  0  0  0  0  0  0  0  0  0
   40.2534   33.5904   41.6185 C   0  0  0  0  0  0  0  0  0  0  0  0
   40.2036   34.7595   40.8306 C   0  0  0  0  0  0  0  0  0  0  0  0
   39.2119   34.8442   39.9063 C   0  0  0  0  0  0  0  0  0  0  0  0
   38.3656   33.8183   39.8167 N   0  0  0  0  0  0  0  0  0  0  0  0
   38.4080   32.7219   40.5519 C   0  0  0  0  0  0  0  0  0  0  0  0
   39.3960   32.5574   41.5236 N   0  0  0  0  0  0  0  0  0  0  0  0
   43.7364   35.6679   41.4657 C   0  0  0  0  0  0  0  0  0  0  0  0
   43.9474   35.2785   42.7305 C   0  0  0  0  0  0  0  0  0  0  0  0
   45.1783   35.5978   43.5645 C   0  0  0  0  0  0  0  0  0  0  0  0
   45.0498   34.9203   44.7503 O   0  0  0  0  0  0  0  0  0  0  0  0
   45.5623   32.3389   44.4100 O   0  0  0  0  0  0  0  0  0  0  0  0
   46.1538   33.6385   44.8762 P   0  0  1  0  0  0  0  0  0  0  0  0
   47.5250   33.9757   43.9272 O   0  0  0  0  0  0  0  0  0  0  0  0
   46.6518   33.5322   46.4920 O   0  0  0  0  0  0  0  0  0  0  0  0
   41.2080   35.8246   42.2914 H   0  0  0  0  0  0  0  0  0  0  0  0
   41.0331   36.7040   40.7445 H   0  0  0  0  0  0  0  0  0  0  0  0
   41.0006   33.4000   42.3953 H   0  0  0  0  0  0  0  0  0  0  0  0
   39.2283   35.7623   39.3362 H   0  0  0  0  0  0  0  0  0  0  0  0
   37.6859   31.9188   40.4296 H   0  0  0  0  0  0  0  0  0  0  0  0
   44.5252   36.2594   41.0299 H   0  0  0  0  0  0  0  0  0  0  0  0
   43.1215   34.6767   43.1434 H   0  0  0  0  0  0  0  0  0  0  0  0
   46.0999   35.3402   43.0121 H   0  0  0  0  0  0  0  0  0  0  0  0
   45.1347   36.6910   43.7494 H   0  0  0  0  0  0  0  0  0  0  0  0
   48.2464   34.3652   44.4731 H   0  0  0  0  0  0  0  0  0  0  0  0
   47.2803   33.5941   48.8510 O   0  0  0  0  0  0  0  0  0  0  0  0
   47.6771   32.3989   48.2535 C   0  0  1  0  0  0  0  0  0  0  0  0
   47.3864   32.4160   46.7672 C   0  0  2  0  0  0  0  0  0  0  0  0
   48.5491   32.4144   46.0160 O   0  0  0  0  0  0  0  0  0  0  0  0
   49.4061   31.3675   46.2739 C   0  0  0  0  0  0  0  0  0  0  0  0
   49.5923   31.0260   47.7130 C   0  0  2  0  0  0  0  0  0  0  0  0
   48.8031   29.9290   48.0653 O   0  0  0  0  0  0  0  0  0  0  0  0
   49.1541   32.2216   48.5299 C   0  0  2  0  0  0  0  0  0  0  0  0
   49.3548   32.0518   49.8833 O   0  0  0  0  0  0  0  0  0  0  0  0
   47.9666   34.2902   48.8710 H   0  0  0  0  0  0  0  0  0  0  0  0
   47.1034   31.5856   48.7632 H   0  0  0  0  0  0  0  0  0  0  0  0
   46.7455   31.5155   46.5363 H   0  0  0  0  0  0  0  0  0  0  0  0
   50.3885   31.6537   45.8428 H   0  0  0  0  0  0  0  0  0  0  0  0
   49.1218   30.4362   45.7171 H   0  0  0  0  0  0  0  0  0  0  0  0
   50.6486   30.7456   47.8894 H   0  0  0  0  0  0  0  0  0  0  0  0
   48.7989   29.2506   47.3532 H   0  0  0  0  0  0  0  0  0  0  0  0
   49.7080   33.1056   48.1613 H   0  0  0  0  0  0  0  0  0  0  0  0
   50.2866   31.7435   50.0195 H   0  0  0  0  0  0  0  0  0  0  0  0
  1  2  1  0
  1  9  1  0
  4  2  1  0
  4  3  2  0
  5  4  1  0
  6  5  2  0
  6  7  1  0
  7  8  2  0
  8  3  1  0
  9 10  2  0
 10 11  1  0
 11 12  1  0
 14 12  1  1
 13 14  2  0
 14 16  1  0
 15 14  1  0
  2 17  1  0
  2 18  1  0
  3 19  1  0
  5 20  1  0
  7 21  1  0
  9 22  1  0
 10 23  1  0
 11 24  1  0
 11 25  1  0
 15 26  1  0
 27 28  1  0
 28 29  1  0
 29 30  1  0
 30 31  1  0
 31 32  1  0
 32 33  1  0
 32 34  1  0
 34 35  1  0
 34 28  1  0
 27 36  1  0
 28 37  1  1
 29 38  1  6
 31 39  1  0
 31 40  1  0
 32 41  1  6
 33 42  1  0
 34 43  1  6
 35 44  1  0
 16 29  1  0
M  ISO  8  17   8  18   8  19  14  20  14  21  14  24   8  25   8  26   3
M  END
>  <DihAtoms>  (1) 
13,15,28,27

>  <DihDeg>  (1) 
-116.00661513963928

$$$$
