
 OpenBabel03252500263D

 40 42  0  0  1  0  0  0  0  0999 V2000
   36.3810   30.0250   38.1460 C   0  0  2  0  0  0  0  0  0  0  0  0
   36.9860   28.8000   38.7130 C   0  0  2  0  0  0  0  0  0  0  0  0
   37.1320   27.8960   37.5480 C   0  0  0  0  0  0  0  0  0  0  0  0
   37.3090   28.6880   36.4220 O   0  0  0  0  0  0  0  0  0  0  0  0
   37.0790   29.9770   36.7600 C   0  0  0  0  0  0  0  0  0  0  0  0
   35.3720   30.1440   37.8650 H   0  0  0  0  0  0  0  0  0  0  0  0
   37.9570   29.0830   39.1440 H   0  0  0  0  0  0  0  0  0  0  0  0
   36.4620   27.0530   37.4480 H   0  0  0  0  0  0  0  0  0  0  0  0
   38.1440   27.3950   37.6560 H   0  0  0  0  0  0  0  0  0  0  0  0
   36.5240   30.5030   35.9890 H   0  0  0  0  0  0  0  0  0  0  0  0
   38.0550   30.5110   36.8680 H   0  0  0  0  0  0  0  0  0  0  0  0
   36.2550   28.2510   39.7420 O   0  0  0  0  0  0  0  0  0  0  0  0
   38.2200   29.2480   41.0570 O   0  0  0  0  0  0  0  0  0  0  0  0
   36.7730   28.8690   41.1980 P   0  0  1  0  0  0  0  0  0  0  0  0
   35.8800   30.2610   41.5690 O   0  0  0  0  0  0  0  0  0  0  0  0
   35.3570   30.1020   42.3700 H   0  0  0  0  0  0  0  0  0  0  0  0
   36.6630   27.7270   42.4620 O   0  0  0  0  0  0  0  0  0  0  0  0
   38.3950   24.6180   42.3230 C   0  0  0  0  0  0  0  0  0  0  0  0
   39.5730   24.8370   43.1110 C   0  0  0  0  0  0  0  0  0  0  0  0
   39.7190   26.1140   43.6800 C   0  0  0  0  0  0  0  0  0  0  0  0
   38.7610   27.0350   43.4540 N   0  0  0  0  0  0  0  0  0  0  0  0
   37.6650   26.7820   42.7040 C   0  0  0  0  0  0  0  0  0  0  0  0
   37.4940   25.5740   42.1460 N   0  0  0  0  0  0  0  0  0  0  0  0
   40.3040   24.0550   43.2520 H   0  0  0  0  0  0  0  0  0  0  0  0
   40.5920   26.3280   44.2820 H   0  0  0  0  0  0  0  0  0  0  0  0
   38.2510   23.3670   41.7640 O   0  0  0  0  0  0  0  0  0  0  0  0
   38.9830   23.0640   41.1300 H   0  0  0  0  0  0  0  0  0  0  0  0
   36.6660   31.1870   38.8010 O   0  0  0  0  0  0  0  0  0  0  0  0
   37.8210   33.0580   39.5750 C   0  0  2  0  0  3  0  0  0  0  0  0
   37.7030   31.9700   38.5200 C   0  0  1  0  0  3  0  0  0  0  0  0
   38.9390   31.2790   38.5040 O   0  0  0  0  0  0  0  0  0  0  0  0
   39.9900   32.1250   38.2540 C   0  0  0  0  0  2  0  0  0  0  0  0
   40.3400   32.8020   39.5600 C   0  0  2  0  0  3  0  0  0  0  0  0
   39.0970   32.9420   40.3710 C   0  0  1  0  0  3  0  0  0  0  0  0
   36.7780   32.9630   40.4950 O   0  0  0  0  0  0  0  0  0  0  0  0
   36.2910   33.8210   40.4850 H   0  0  0  0  0  0  0  0  0  0  0  0
   40.9970   34.0120   39.3540 O   0  0  0  0  0  0  0  0  0  0  0  0
   40.6940   34.3140   38.4410 H   0  0  0  0  0  0  0  0  0  0  0  0
   39.2070   34.1610   41.0810 O   0  0  0  0  0  0  0  0  0  0  0  0
   40.1450   34.2810   41.3760 H   0  0  0  0  0  0  0  0  0  0  0  0
  1  6  1  6  0  0  0
  1  2  1  0  0  0  0
  1 28  1  0  0  0  0
  2  7  1  1  0  0  0
  2 12  1  0  0  0  0
  3  9  1  0  0  0  0
  3  2  1  0  0  0  0
  4  5  1  0  0  0  0
  4  3  1  0  0  0  0
  5 11  1  0  0  0  0
  5  1  1  0  0  0  0
  8  3  1  0  0  0  0
 10  5  1  0  0  0  0
 12 14  1  0  0  0  0
 14 13  2  6  0  0  0
 14 15  1  0  0  0  0
 14 17  1  0  0  0  0
 15 16  1  0  0  0  0
 17 22  1  0  0  0  0
 18 19  1  0  0  0  0
 19 24  1  0  0  0  0
 19 20  2  0  0  0  0
 20 25  1  0  0  0  0
 21 20  1  0  0  0  0
 22 21  2  0  0  0  0
 23 18  2  0  0  0  0
 23 22  1  0  0  0  0
 26 18  1  0  0  0  0
 27 26  1  0  0  0  0
 29 34  1  0  0  0  0
 29 35  1  1  0  0  0
 30 28  1  1  0  0  0
 30 29  1  0  0  0  0
 31 30  1  0  0  0  0
 32 31  1  0  0  0  0
 32 33  1  0  0  0  0
 33 37  1  6  0  0  0
 33 34  1  0  0  0  0
 34 39  1  6  0  0  0
 36 35  1  0  0  0  0
 38 37  1  0  0  0  0
 39 40  1  0  0  0  0
M  END
>  <minimizedAffinity>
-6.52699471

$$$$

 OpenBabel03252500263D

 40 42  0  0  1  0  0  0  0  0999 V2000
   38.5930   27.3210   43.3650 C   0  0  2  0  0  0  0  0  0  0  0  0
   38.4330   28.5020   42.4900 C   0  0  2  0  0  0  0  0  0  0  0  0
   39.6160   29.3410   42.7940 C   0  0  0  0  0  0  0  0  0  0  0  0
   40.6450   28.4920   43.1760 O   0  0  0  0  0  0  0  0  0  0  0  0
   40.1440   27.2460   43.3300 C   0  0  0  0  0  0  0  0  0  0  0  0
   38.4090   27.2890   44.4030 H   0  0  0  0  0  0  0  0  0  0  0  0
   38.4350   28.1430   41.4510 H   0  0  0  0  0  0  0  0  0  0  0  0
   39.4870   30.2410   43.3810 H   0  0  0  0  0  0  0  0  0  0  0  0
   39.9870   29.7450   41.8010 H   0  0  0  0  0  0  0  0  0  0  0  0
   40.5630   26.7470   44.1970 H   0  0  0  0  0  0  0  0  0  0  0  0
   40.4200   26.6240   42.4420 H   0  0  0  0  0  0  0  0  0  0  0  0
   37.2370   29.1600   42.6660 O   0  0  0  0  0  0  0  0  0  0  0  0
   35.6890   28.5700   40.7060 O   0  0  0  0  0  0  0  0  0  0  0  0
   36.6300   29.6370   41.1920 P   0  0  1  0  0  0  0  0  0  0  0  0
   35.7640   31.0820   41.3780 O   0  0  0  0  0  0  0  0  0  0  0  0
   36.2090   31.7870   40.8830 H   0  0  0  0  0  0  0  0  0  0  0  0
   37.8550   29.8150   40.0150 O   0  0  0  0  0  0  0  0  0  0  0  0
   38.9230   33.1600   40.6080 C   0  0  0  0  0  0  0  0  0  0  0  0
   39.7660   33.4640   39.4890 C   0  0  0  0  0  0  0  0  0  0  0  0
   39.9320   32.4440   38.5340 C   0  0  0  0  0  0  0  0  0  0  0  0
   39.3010   31.2690   38.7280 N   0  0  0  0  0  0  0  0  0  0  0  0
   38.5150   31.0290   39.8010 C   0  0  0  0  0  0  0  0  0  0  0  0
   38.3350   31.9790   40.7310 N   0  0  0  0  0  0  0  0  0  0  0  0
   40.2440   34.4270   39.3930 H   0  0  0  0  0  0  0  0  0  0  0  0
   40.5590   32.6260   37.6710 H   0  0  0  0  0  0  0  0  0  0  0  0
   38.7600   34.1570   41.5450 O   0  0  0  0  0  0  0  0  0  0  0  0
   39.6000   34.4940   42.0040 H   0  0  0  0  0  0  0  0  0  0  0  0
   38.0330   26.1630   42.9100 O   0  0  0  0  0  0  0  0  0  0  0  0
   38.6120   24.2840   41.6570 C   0  0  2  0  0  3  0  0  0  0  0  0
   38.1300   25.7260   41.6580 C   0  0  1  0  0  3  0  0  0  0  0  0
   36.8970   25.7450   40.9610 O   0  0  0  0  0  0  0  0  0  0  0  0
   37.0250   25.2470   39.6890 C   0  0  0  0  0  2  0  0  0  0  0  0
   36.9890   23.7390   39.7930 C   0  0  2  0  0  3  0  0  0  0  0  0
   37.5780   23.3380   41.1020 C   0  0  1  0  0  3  0  0  0  0  0  0
   38.8750   23.8560   42.9570 O   0  0  0  0  0  0  0  0  0  0  0  0
   39.8200   23.5710   42.9940 H   0  0  0  0  0  0  0  0  0  0  0  0
   37.6110   23.1320   38.7050 O   0  0  0  0  0  0  0  0  0  0  0  0
   38.2710   23.8190   38.3730 H   0  0  0  0  0  0  0  0  0  0  0  0
   38.2630   22.1190   40.8870 O   0  0  0  0  0  0  0  0  0  0  0  0
   37.7410   21.5620   40.2550 H   0  0  0  0  0  0  0  0  0  0  0  0
  1  6  1  1  0  0  0
  2  7  1  6  0  0  0
  2 12  1  0  0  0  0
  2  3  1  0  0  0  0
  2  1  1  0  0  0  0
  3  4  1  0  0  0  0
  3  8  1  0  0  0  0
  4  5  1  0  0  0  0
  5  1  1  0  0  0  0
  5 10  1  0  0  0  0
  9  3  1  0  0  0  0
 11  5  1  0  0  0  0
 14 13  2  6  0  0  0
 14 15  1  0  0  0  0
 14 12  1  0  0  0  0
 16 15  1  0  0  0  0
 17 14  1  0  0  0  0
 18 23  1  0  0  0  0
 18 26  1  0  0  0  0
 19 18  2  0  0  0  0
 20 21  2  0  0  0  0
 20 19  1  0  0  0  0
 21 22  1  0  0  0  0
 22 17  1  0  0  0  0
 22 23  2  0  0  0  0
 24 19  1  0  0  0  0
 25 20  1  0  0  0  0
 26 27  1  0  0  0  0
 28  1  1  0  0  0  0
 29 30  1  0  0  0  0
 29 35  1  1  0  0  0
 30 28  1  1  0  0  0
 31 30  1  0  0  0  0
 32 33  1  0  0  0  0
 32 31  1  0  0  0  0
 33 37  1  6  0  0  0
 33 34  1  0  0  0  0
 34 39  1  6  0  0  0
 34 29  1  0  0  0  0
 35 36  1  0  0  0  0
 38 37  1  0  0  0  0
 40 39  1  0  0  0  0
M  END
>  <minimizedAffinity>
-6.45555973

$$$$

 OpenBabel03252500263D

 40 42  0  0  1  0  0  0  0  0999 V2000
   38.6210   28.0350   40.5810 C   0  0  2  0  0  0  0  0  0  0  0  0
   37.4550   28.5250   41.3470 C   0  0  2  0  0  0  0  0  0  0  0  0
   37.6590   27.9740   42.7080 C   0  0  0  0  0  0  0  0  0  0  0  0
   39.0260   27.8500   42.9090 O   0  0  0  0  0  0  0  0  0  0  0  0
   39.6580   28.0750   41.7360 C   0  0  0  0  0  0  0  0  0  0  0  0
   38.7560   27.0540   40.2170 H   0  0  0  0  0  0  0  0  0  0  0  0
   37.4910   29.6230   41.3340 H   0  0  0  0  0  0  0  0  0  0  0  0
   37.0430   27.1500   43.0410 H   0  0  0  0  0  0  0  0  0  0  0  0
   37.3780   28.8000   43.4330 H   0  0  0  0  0  0  0  0  0  0  0  0
   40.4860   27.3890   41.5850 H   0  0  0  0  0  0  0  0  0  0  0  0
   40.0970   29.1030   41.7440 H   0  0  0  0  0  0  0  0  0  0  0  0
   36.2450   28.1740   40.7920 O   0  0  0  0  0  0  0  0  0  0  0  0
   34.0390   29.2150   39.9940 O   0  0  0  0  0  0  0  0  0  0  0  0
   35.5020   29.5210   40.1570 P   0  0  1  0  0  0  0  0  0  0  0  0
   35.6690   30.8180   41.2340 O   0  0  0  0  0  0  0  0  0  0  0  0
   36.2060   31.5110   40.8190 H   0  0  0  0  0  0  0  0  0  0  0  0
   36.1140   29.9320   38.6170 O   0  0  0  0  0  0  0  0  0  0  0  0
   36.7710   28.6500   35.3600 C   0  0  0  0  0  0  0  0  0  0  0  0
   36.4430   27.2570   35.4570 C   0  0  0  0  0  0  0  0  0  0  0  0
   35.9880   26.8060   36.7090 C   0  0  0  0  0  0  0  0  0  0  0  0
   35.8910   27.6940   37.7180 N   0  0  0  0  0  0  0  0  0  0  0  0
   36.2110   29.0000   37.5780 C   0  0  0  0  0  0  0  0  0  0  0  0
   36.6480   29.4640   36.3980 N   0  0  0  0  0  0  0  0  0  0  0  0
   36.5450   26.5980   34.6080 H   0  0  0  0  0  0  0  0  0  0  0  0
   35.7290   25.7630   36.8320 H   0  0  0  0  0  0  0  0  0  0  0  0
   37.2190   29.0930   34.1340 O   0  0  0  0  0  0  0  0  0  0  0  0
   38.0590   28.6570   33.7700 H   0  0  0  0  0  0  0  0  0  0  0  0
   39.0170   28.8160   39.5350 O   0  0  0  0  0  0  0  0  0  0  0  0
   39.9760   30.5410   38.2940 C   0  0  2  0  0  3  0  0  0  0  0  0
   39.6220   29.9930   39.6670 C   0  0  1  0  0  3  0  0  0  0  0  0
   38.8160   30.9700   40.3020 O   0  0  0  0  0  0  0  0  0  0  0  0
   39.4550   32.1810   40.3810 C   0  0  0  0  0  2  0  0  0  0  0  0
   39.2940   32.8610   39.0400 C   0  0  2  0  0  3  0  0  0  0  0  0
   39.2340   31.8140   37.9810 C   0  0  1  0  0  3  0  0  0  0  0  0
   39.6260   29.6300   37.2990 O   0  0  0  0  0  0  0  0  0  0  0  0
   40.4430   29.4100   36.7920 H   0  0  0  0  0  0  0  0  0  0  0  0
   40.2910   33.8070   38.8180 O   0  0  0  0  0  0  0  0  0  0  0  0
   41.0660   33.4970   39.3830 H   0  0  0  0  0  0  0  0  0  0  0  0
   39.8760   32.3510   36.8390 O   0  0  0  0  0  0  0  0  0  0  0  0
   39.6490   33.3120   36.7620 H   0  0  0  0  0  0  0  0  0  0  0  0
  1  6  1  6  0  0  0
  1  2  1  0  0  0  0
  1  5  1  0  0  0  0
  2  7  1  1  0  0  0
  2  3  1  0  0  0  0
  3  4  1  0  0  0  0
  3  8  1  0  0  0  0
  3  9  1  0  0  0  0
  5 11  1  0  0  0  0
  5  4  1  0  0  0  0
 10  5  1  0  0  0  0
 12  2  1  0  0  0  0
 14 13  2  6  0  0  0
 14 12  1  0  0  0  0
 14 15  1  0  0  0  0
 16 15  1  0  0  0  0
 17 14  1  0  0  0  0
 18 19  2  0  0  0  0
 18 23  1  0  0  0  0
 19 20  1  0  0  0  0
 20 25  1  0  0  0  0
 20 21  2  0  0  0  0
 22 21  1  0  0  0  0
 22 17  1  0  0  0  0
 23 22  2  0  0  0  0
 24 19  1  0  0  0  0
 26 18  1  0  0  0  0
 27 26  1  0  0  0  0
 28  1  1  0  0  0  0
 29 35  1  6  0  0  0
 29 30  1  0  0  0  0
 30 28  1  6  0  0  0
 30 31  1  0  0  0  0
 31 32  1  0  0  0  0
 33 37  1  6  0  0  0
 33 32  1  0  0  0  0
 34 39  1  6  0  0  0
 34 29  1  0  0  0  0
 34 33  1  0  0  0  0
 36 35  1  0  0  0  0
 37 38  1  0  0  0  0
 40 39  1  0  0  0  0
M  END
>  <minimizedAffinity>
-6.11169863

$$$$

 OpenBabel03252500263D

 40 42  0  0  1  0  0  0  0  0999 V2000
   37.0150   31.1010   38.7920 C   0  0  2  0  0  0  0  0  0  0  0  0
   37.2540   30.0650   39.8190 C   0  0  2  0  0  0  0  0  0  0  0  0
   36.3210   28.9720   39.4540 C   0  0  0  0  0  0  0  0  0  0  0  0
   36.1410   29.0160   38.0790 O   0  0  0  0  0  0  0  0  0  0  0  0
   36.7070   30.1480   37.6050 C   0  0  0  0  0  0  0  0  0  0  0  0
   36.1890   31.7540   38.7510 H   0  0  0  0  0  0  0  0  0  0  0  0
   38.3050   29.7570   39.7370 H   0  0  0  0  0  0  0  0  0  0  0  0
   35.4350   28.8130   40.0540 H   0  0  0  0  0  0  0  0  0  0  0  0
   36.8920   28.0020   39.5960 H   0  0  0  0  0  0  0  0  0  0  0  0
   36.0970   30.6130   36.8370 H   0  0  0  0  0  0  0  0  0  0  0  0
   37.6850   29.8990   37.1240 H   0  0  0  0  0  0  0  0  0  0  0  0
   37.0860   30.5180   41.1080 O   0  0  0  0  0  0  0  0  0  0  0  0
   39.1350   30.6430   42.6480 O   0  0  0  0  0  0  0  0  0  0  0  0
   38.0950   29.6850   42.1360 P   0  0  1  0  0  0  0  0  0  0  0  0
   37.2020   29.0990   43.4520 O   0  0  0  0  0  0  0  0  0  0  0  0
   37.2090   28.1290   43.4360 H   0  0  0  0  0  0  0  0  0  0  0  0
   38.9160   28.4120   41.3480 O   0  0  0  0  0  0  0  0  0  0  0  0
   39.8260   25.1840   42.5470 C   0  0  0  0  0  0  0  0  0  0  0  0
   38.6000   24.4410   42.5200 C   0  0  0  0  0  0  0  0  0  0  0  0
   37.4590   25.1280   42.0660 C   0  0  0  0  0  0  0  0  0  0  0  0
   37.5890   26.4160   41.6920 N   0  0  0  0  0  0  0  0  0  0  0  0
   38.7680   27.0760   41.7340 C   0  0  0  0  0  0  0  0  0  0  0  0
   39.8750   26.4510   42.1610 N   0  0  0  0  0  0  0  0  0  0  0  0
   38.5650   23.4090   42.8350 H   0  0  0  0  0  0  0  0  0  0  0  0
   36.5110   24.6090   42.0280 H   0  0  0  0  0  0  0  0  0  0  0  0
   40.9430   24.5130   42.9920 O   0  0  0  0  0  0  0  0  0  0  0  0
   40.9060   24.1410   43.9350 H   0  0  0  0  0  0  0  0  0  0  0  0
   38.0730   31.9140   38.5090 O   0  0  0  0  0  0  0  0  0  0  0  0
   40.2010   31.9560   37.5570 C   0  0  2  0  0  3  0  0  0  0  0  0
   39.3420   31.6060   38.7610 C   0  0  1  0  0  3  0  0  0  0  0  0
   39.8810   32.3090   39.8660 O   0  0  0  0  0  0  0  0  0  0  0  0
   41.2020   32.0000   40.0700 C   0  0  0  0  0  2  0  0  0  0  0  0
   42.0110   32.8280   39.0970 C   0  0  2  0  0  3  0  0  0  0  0  0
   41.1980   33.0430   37.8660 C   0  0  1  0  0  3  0  0  0  0  0  0
   39.4100   32.4370   36.5150 O   0  0  0  0  0  0  0  0  0  0  0  0
   39.5570   31.8550   35.7320 H   0  0  0  0  0  0  0  0  0  0  0  0
   43.2530   32.2540   38.8390 O   0  0  0  0  0  0  0  0  0  0  0  0
   43.1200   31.2700   39.0150 H   0  0  0  0  0  0  0  0  0  0  0  0
   42.1000   33.0450   36.7750 O   0  0  0  0  0  0  0  0  0  0  0  0
   42.9340   33.5070   37.0460 H   0  0  0  0  0  0  0  0  0  0  0  0
  1  6  1  1  0  0  0
  1  2  1  0  0  0  0
  2  7  1  6  0  0  0
  2 12  1  0  0  0  0
  3  9  1  0  0  0  0
  3  2  1  0  0  0  0
  3  8  1  0  0  0  0
  4  3  1  0  0  0  0
  5  4  1  0  0  0  0
  5  1  1  0  0  0  0
 10  5  1  0  0  0  0
 11  5  1  0  0  0  0
 12 14  1  0  0  0  0
 14 13  2  1  0  0  0
 14 15  1  0  0  0  0
 16 15  1  0  0  0  0
 17 22  1  0  0  0  0
 17 14  1  0  0  0  0
 18 26  1  0  0  0  0
 19 18  1  0  0  0  0
 19 24  1  0  0  0  0
 20 19  2  0  0  0  0
 21 22  2  0  0  0  0
 21 20  1  0  0  0  0
 22 23  1  0  0  0  0
 23 18  2  0  0  0  0
 25 20  1  0  0  0  0
 26 27  1  0  0  0  0
 28  1  1  0  0  0  0
 29 35  1  6  0  0  0
 29 34  1  0  0  0  0
 29 30  1  0  0  0  0
 30 28  1  6  0  0  0
 30 31  1  0  0  0  0
 31 32  1  0  0  0  0
 33 37  1  6  0  0  0
 33 32  1  0  0  0  0
 34 39  1  6  0  0  0
 34 33  1  0  0  0  0
 36 35  1  0  0  0  0
 37 38  1  0  0  0  0
 39 40  1  0  0  0  0
M  END
>  <minimizedAffinity>
-6.10324955

$$$$

 OpenBabel03252500263D

 40 42  0  0  1  0  0  0  0  0999 V2000
   35.9290   27.1220   38.1870 C   0  0  2  0  0  0  0  0  0  0  0  0
   36.4690   25.7460   38.1850 C   0  0  2  0  0  0  0  0  0  0  0  0
   36.2560   25.2750   36.7960 C   0  0  0  0  0  0  0  0  0  0  0  0
   36.3030   26.3860   35.9650 O   0  0  0  0  0  0  0  0  0  0  0  0
   36.3180   27.4990   36.7320 C   0  0  0  0  0  0  0  0  0  0  0  0
   34.9090   27.3870   38.2020 H   0  0  0  0  0  0  0  0  0  0  0  0
   37.5360   25.8110   38.4420 H   0  0  0  0  0  0  0  0  0  0  0  0
   35.4740   24.5540   36.5980 H   0  0  0  0  0  0  0  0  0  0  0  0
   37.1930   24.7080   36.5020 H   0  0  0  0  0  0  0  0  0  0  0  0
   35.6930   28.2830   36.3160 H   0  0  0  0  0  0  0  0  0  0  0  0
   37.3580   27.9080   36.7680 H   0  0  0  0  0  0  0  0  0  0  0  0
   35.8960   24.9280   39.1330 O   0  0  0  0  0  0  0  0  0  0  0  0
   37.0270   22.8440   40.1160 O   0  0  0  0  0  0  0  0  0  0  0  0
   37.0680   24.3460   40.1620 P   0  0  1  0  0  0  0  0  0  0  0  0
   38.5920   24.8640   39.6310 O   0  0  0  0  0  0  0  0  0  0  0  0
   38.9800   25.4520   40.2980 H   0  0  0  0  0  0  0  0  0  0  0  0
   36.8000   24.8180   41.7800 O   0  0  0  0  0  0  0  0  0  0  0  0
   37.5170   27.9470   43.3230 C   0  0  0  0  0  0  0  0  0  0  0  0
   38.9170   27.8780   43.6240 C   0  0  0  0  0  0  0  0  0  0  0  0
   39.5790   26.6910   43.2610 C   0  0  0  0  0  0  0  0  0  0  0  0
   38.8690   25.7130   42.6640 N   0  0  0  0  0  0  0  0  0  0  0  0
   37.5480   25.8240   42.3990 C   0  0  0  0  0  0  0  0  0  0  0  0
   36.8860   26.9420   42.7320 N   0  0  0  0  0  0  0  0  0  0  0  0
   39.4270   28.6990   44.1050 H   0  0  0  0  0  0  0  0  0  0  0  0
   40.6360   26.5910   43.4680 H   0  0  0  0  0  0  0  0  0  0  0  0
   36.8670   29.1080   43.6790 O   0  0  0  0  0  0  0  0  0  0  0  0
   36.8790   29.3540   44.6630 H   0  0  0  0  0  0  0  0  0  0  0  0
   36.4910   27.9810   39.0850 O   0  0  0  0  0  0  0  0  0  0  0  0
   35.6940   29.8890   40.1620 C   0  0  2  0  0  3  0  0  0  0  0  0
   36.4510   29.3060   38.9800 C   0  0  1  0  0  3  0  0  0  0  0  0
   37.7340   29.9070   38.9800 O   0  0  0  0  0  0  0  0  0  0  0  0
   37.6530   31.2750   38.9140 C   0  0  0  0  0  2  0  0  0  0  0  0
   37.3750   31.7750   40.3140 C   0  0  2  0  0  3  0  0  0  0  0  0
   36.5740   30.7460   41.0360 C   0  0  1  0  0  3  0  0  0  0  0  0
   35.2050   28.8720   40.9800 O   0  0  0  0  0  0  0  0  0  0  0  0
   34.2250   28.9740   41.0330 H   0  0  0  0  0  0  0  0  0  0  0  0
   36.7720   33.0290   40.3030 O   0  0  0  0  0  0  0  0  0  0  0  0
   36.3040   33.0790   39.4110 H   0  0  0  0  0  0  0  0  0  0  0  0
   35.6880   31.4430   41.8910 O   0  0  0  0  0  0  0  0  0  0  0  0
   36.1560   32.2300   42.2700 H   0  0  0  0  0  0  0  0  0  0  0  0
  1  6  1  1  0  0  0
  1 28  1  0  0  0  0
  2  1  1  0  0  0  0
  2  7  1  1  0  0  0
  2 12  1  0  0  0  0
  3  2  1  0  0  0  0
  4  5  1  0  0  0  0
  4  3  1  0  0  0  0
  5 11  1  0  0  0  0
  5  1  1  0  0  0  0
  8  3  1  0  0  0  0
  9  3  1  0  0  0  0
 10  5  1  0  0  0  0
 12 14  1  0  0  0  0
 14 13  2  6  0  0  0
 14 17  1  0  0  0  0
 15 14  1  0  0  0  0
 15 16  1  0  0  0  0
 17 22  1  0  0  0  0
 18 19  1  0  0  0  0
 18 26  1  0  0  0  0
 19 24  1  0  0  0  0
 20 25  1  0  0  0  0
 20 19  2  0  0  0  0
 21 20  1  0  0  0  0
 22 21  2  0  0  0  0
 22 23  1  0  0  0  0
 23 18  2  0  0  0  0
 26 27  1  0  0  0  0
 29 35  1  1  0  0  0
 29 34  1  0  0  0  0
 30 31  1  0  0  0  0
 30 28  1  1  0  0  0
 30 29  1  0  0  0  0
 32 31  1  0  0  0  0
 32 33  1  0  0  0  0
 33 37  1  6  0  0  0
 33 34  1  0  0  0  0
 34 39  1  1  0  0  0
 35 36  1  0  0  0  0
 38 37  1  0  0  0  0
 39 40  1  0  0  0  0
M  END
>  <minimizedAffinity>
-6.07535076

$$$$

 OpenBabel03252500263D

 40 42  0  0  1  0  0  0  0  0999 V2000
   37.1140   31.1620   38.8350 C   0  0  2  0  0  0  0  0  0  0  0  0
   37.3640   30.1120   39.8460 C   0  0  2  0  0  0  0  0  0  0  0  0
   36.4610   29.0060   39.4480 C   0  0  0  0  0  0  0  0  0  0  0  0
   36.2970   29.0720   38.0720 O   0  0  0  0  0  0  0  0  0  0  0  0
   36.8430   30.2260   37.6260 C   0  0  0  0  0  0  0  0  0  0  0  0
   36.2730   31.7970   38.7960 H   0  0  0  0  0  0  0  0  0  0  0  0
   38.4230   29.8300   39.7710 H   0  0  0  0  0  0  0  0  0  0  0  0
   35.5720   28.8150   40.0340 H   0  0  0  0  0  0  0  0  0  0  0  0
   37.0520   28.0470   39.5790 H   0  0  0  0  0  0  0  0  0  0  0  0
   36.2320   30.6910   36.8590 H   0  0  0  0  0  0  0  0  0  0  0  0
   37.8330   30.0080   37.1540 H   0  0  0  0  0  0  0  0  0  0  0  0
   37.1690   30.5370   41.1400 O   0  0  0  0  0  0  0  0  0  0  0  0
   39.2140   30.7620   42.6750 O   0  0  0  0  0  0  0  0  0  0  0  0
   38.2280   29.7530   42.1580 P   0  0  1  0  0  0  0  0  0  0  0  0
   37.3730   29.1060   43.4710 O   0  0  0  0  0  0  0  0  0  0  0  0
   37.4330   28.1380   43.4460 H   0  0  0  0  0  0  0  0  0  0  0  0
   39.1140   28.5340   41.3550 O   0  0  0  0  0  0  0  0  0  0  0  0
   37.8830   25.3090   42.2330 C   0  0  0  0  0  0  0  0  0  0  0  0
   39.0480   24.5920   42.6610 C   0  0  0  0  0  0  0  0  0  0  0  0
   40.2660   25.2950   42.6230 C   0  0  0  0  0  0  0  0  0  0  0  0
   40.2600   26.5730   42.1950 N   0  0  0  0  0  0  0  0  0  0  0  0
   39.1340   27.2080   41.8010 C   0  0  0  0  0  0  0  0  0  0  0  0
   37.9560   26.5680   41.8240 N   0  0  0  0  0  0  0  0  0  0  0  0
   38.9840   23.5670   42.9930 H   0  0  0  0  0  0  0  0  0  0  0  0
   41.1740   24.7970   42.9360 H   0  0  0  0  0  0  0  0  0  0  0  0
   36.6890   24.6220   42.2670 O   0  0  0  0  0  0  0  0  0  0  0  0
   36.6320   23.7780   41.7060 H   0  0  0  0  0  0  0  0  0  0  0  0
   38.1570   32.0040   38.5810 O   0  0  0  0  0  0  0  0  0  0  0  0
   40.2740   32.0210   37.6050 C   0  0  2  0  0  3  0  0  0  0  0  0
   39.4300   31.7150   38.8320 C   0  0  1  0  0  3  0  0  0  0  0  0
   39.9760   32.4680   39.9010 O   0  0  0  0  0  0  0  0  0  0  0  0
   41.3010   32.1750   40.1020 C   0  0  0  0  0  2  0  0  0  0  0  0
   42.0940   32.9680   39.0870 C   0  0  2  0  0  3  0  0  0  0  0  0
   41.2670   33.1270   37.8570 C   0  0  1  0  0  3  0  0  0  0  0  0
   39.4680   32.4530   36.5530 O   0  0  0  0  0  0  0  0  0  0  0  0
   39.6110   31.8400   35.7930 H   0  0  0  0  0  0  0  0  0  0  0  0
   43.3370   32.3920   38.8390 O   0  0  0  0  0  0  0  0  0  0  0  0
   43.2130   31.4150   39.0580 H   0  0  0  0  0  0  0  0  0  0  0  0
   42.1570   33.0890   36.7580 O   0  0  0  0  0  0  0  0  0  0  0  0
   42.9910   33.5670   37.0000 H   0  0  0  0  0  0  0  0  0  0  0  0
  1  6  1  1  0  0  0
  1  2  1  0  0  0  0
  2  7  1  6  0  0  0
  2 12  1  0  0  0  0
  3  9  1  0  0  0  0
  3  2  1  0  0  0  0
  3  8  1  0  0  0  0
  4  3  1  0  0  0  0
  5  4  1  0  0  0  0
  5  1  1  0  0  0  0
 10  5  1  0  0  0  0
 11  5  1  0  0  0  0
 12 14  1  0  0  0  0
 14 13  2  1  0  0  0
 14 15  1  0  0  0  0
 16 15  1  0  0  0  0
 17 22  1  0  0  0  0
 17 14  1  0  0  0  0
 18 26  1  0  0  0  0
 18 19  1  0  0  0  0
 19 24  1  0  0  0  0
 20 19  2  0  0  0  0
 20 25  1  0  0  0  0
 21 20  1  0  0  0  0
 22 23  1  0  0  0  0
 22 21  2  0  0  0  0
 23 18  2  0  0  0  0
 27 26  1  0  0  0  0
 28  1  1  0  0  0  0
 29 35  1  6  0  0  0
 29 34  1  0  0  0  0
 29 30  1  0  0  0  0
 30 28  1  6  0  0  0
 30 31  1  0  0  0  0
 31 32  1  0  0  0  0
 33 37  1  6  0  0  0
 33 32  1  0  0  0  0
 34 39  1  6  0  0  0
 34 33  1  0  0  0  0
 36 35  1  0  0  0  0
 37 38  1  0  0  0  0
 39 40  1  0  0  0  0
M  END
>  <minimizedAffinity>
-5.97062206

$$$$

 OpenBabel03252500263D

 40 42  0  0  1  0  0  0  0  0999 V2000
   40.2690   28.6740   41.4040 C   0  0  2  0  0  0  0  0  0  0  0  0
   39.3770   28.2470   42.5020 C   0  0  2  0  0  0  0  0  0  0  0  0
   40.3010   27.7130   43.5320 C   0  0  0  0  0  0  0  0  0  0  0  0
   41.5050   28.3920   43.4070 O   0  0  0  0  0  0  0  0  0  0  0  0
   41.4680   29.1340   42.2770 C   0  0  0  0  0  0  0  0  0  0  0  0
   40.7490   28.0390   40.7130 H   0  0  0  0  0  0  0  0  0  0  0  0
   38.8370   29.1380   42.8520 H   0  0  0  0  0  0  0  0  0  0  0  0
   40.3600   26.6440   43.6830 H   0  0  0  0  0  0  0  0  0  0  0  0
   39.9140   28.0820   44.5320 H   0  0  0  0  0  0  0  0  0  0  0  0
   42.4140   29.1060   41.7450 H   0  0  0  0  0  0  0  0  0  0  0  0
   41.2860   30.2040   42.5440 H   0  0  0  0  0  0  0  0  0  0  0  0
   38.4150   27.3430   42.1110 O   0  0  0  0  0  0  0  0  0  0  0  0
   36.3280   26.7040   43.4610 O   0  0  0  0  0  0  0  0  0  0  0  0
   36.9230   27.8310   42.6640 P   0  0  1  0  0  0  0  0  0  0  0  0
   37.1080   29.1750   43.6790 O   0  0  0  0  0  0  0  0  0  0  0  0
   36.6750   29.9430   43.2740 H   0  0  0  0  0  0  0  0  0  0  0  0
   35.8440   28.1810   41.3880 O   0  0  0  0  0  0  0  0  0  0  0  0
   36.6740   31.4400   40.2140 C   0  0  0  0  0  0  0  0  0  0  0  0
   36.5510   31.3420   38.7890 C   0  0  0  0  0  0  0  0  0  0  0  0
   36.1680   30.0900   38.2770 C   0  0  0  0  0  0  0  0  0  0  0  0
   35.9440   29.0800   39.1410 N   0  0  0  0  0  0  0  0  0  0  0  0
   36.0730   29.2200   40.4800 C   0  0  0  0  0  0  0  0  0  0  0  0
   36.4370   30.4010   41.0020 N   0  0  0  0  0  0  0  0  0  0  0  0
   36.7460   32.1910   38.1510 H   0  0  0  0  0  0  0  0  0  0  0  0
   36.0620   29.9660   37.2070 H   0  0  0  0  0  0  0  0  0  0  0  0
   37.0510   32.6660   40.7170 O   0  0  0  0  0  0  0  0  0  0  0  0
   37.9450   33.0310   40.4070 H   0  0  0  0  0  0  0  0  0  0  0  0
   39.8070   29.6940   40.6250 O   0  0  0  0  0  0  0  0  0  0  0  0
   40.4650   30.8850   38.7310 C   0  0  2  0  0  3  0  0  0  0  0  0
   40.5410   30.7350   40.2420 C   0  0  1  0  0  3  0  0  0  0  0  0
   40.1050   31.9630   40.7970 O   0  0  0  0  0  0  0  0  0  0  0  0
   40.8560   33.0190   40.3470 C   0  0  0  0  0  2  0  0  0  0  0  0
   40.3230   33.3990   38.9840 C   0  0  2  0  0  3  0  0  0  0  0  0
   39.7980   32.1720   38.3200 C   0  0  1  0  0  3  0  0  0  0  0  0
   39.7050   29.8570   38.1760 O   0  0  0  0  0  0  0  0  0  0  0  0
   40.2740   29.3790   37.5270 H   0  0  0  0  0  0  0  0  0  0  0  0
   41.2790   34.0670   38.2240 O   0  0  0  0  0  0  0  0  0  0  0  0
   42.1630   33.7500   38.5920 H   0  0  0  0  0  0  0  0  0  0  0  0
   40.0680   32.3090   36.9370 O   0  0  0  0  0  0  0  0  0  0  0  0
   39.9310   33.2540   36.6720 H   0  0  0  0  0  0  0  0  0  0  0  0
  1  6  1  6  0  0  0
  1  5  1  0  0  0  0
  1  2  1  0  0  0  0
  2  7  1  1  0  0  0
  2  3  1  0  0  0  0
  3  8  1  0  0  0  0
  3  9  1  0  0  0  0
  4  3  1  0  0  0  0
  5 11  1  0  0  0  0
  5  4  1  0  0  0  0
 10  5  1  0  0  0  0
 12  2  1  0  0  0  0
 12 14  1  0  0  0  0
 14 13  2  1  0  0  0
 14 15  1  0  0  0  0
 16 15  1  0  0  0  0
 17 14  1  0  0  0  0
 18 26  1  0  0  0  0
 18 23  1  0  0  0  0
 19 18  2  0  0  0  0
 20 19  1  0  0  0  0
 20 21  2  0  0  0  0
 21 22  1  0  0  0  0
 22 23  2  0  0  0  0
 22 17  1  0  0  0  0
 24 19  1  0  0  0  0
 25 20  1  0  0  0  0
 27 26  1  0  0  0  0
 28  1  1  0  0  0  0
 29 35  1  6  0  0  0
 29 30  1  0  0  0  0
 30 28  1  1  0  0  0
 30 31  1  0  0  0  0
 32 31  1  0  0  0  0
 33 37  1  6  0  0  0
 33 32  1  0  0  0  0
 34 39  1  6  0  0  0
 34 29  1  0  0  0  0
 34 33  1  0  0  0  0
 36 35  1  0  0  0  0
 37 38  1  0  0  0  0
 40 39  1  0  0  0  0
M  END
>  <minimizedAffinity>
-5.92532206

$$$$

 OpenBabel03252500263D

 40 42  0  0  1  0  0  0  0  0999 V2000
   39.7550   31.4970   41.8090 C   0  0  2  0  0  0  0  0  0  0  0  0
   40.5090   31.6280   40.5440 C   0  0  2  0  0  0  0  0  0  0  0  0
   41.8320   32.1480   40.9650 C   0  0  0  0  0  0  0  0  0  0  0  0
   42.0770   31.6840   42.2490 O   0  0  0  0  0  0  0  0  0  0  0  0
   40.9490   31.1080   42.7230 C   0  0  0  0  0  0  0  0  0  0  0  0
   39.3250   32.2870   42.3590 H   0  0  0  0  0  0  0  0  0  0  0  0
   40.5800   30.6270   40.0990 H   0  0  0  0  0  0  0  0  0  0  0  0
   42.0780   33.1830   40.7680 H   0  0  0  0  0  0  0  0  0  0  0  0
   42.6060   31.5910   40.3500 H   0  0  0  0  0  0  0  0  0  0  0  0
   40.7800   31.3520   43.7670 H   0  0  0  0  0  0  0  0  0  0  0  0
   41.0520   29.9960   42.6700 H   0  0  0  0  0  0  0  0  0  0  0  0
   39.8830   32.4220   39.6100 O   0  0  0  0  0  0  0  0  0  0  0  0
   40.5430   32.2840   37.1330 O   0  0  0  0  0  0  0  0  0  0  0  0
   39.7190   31.5870   38.1790 P   0  0  1  0  0  0  0  0  0  0  0  0
   40.3090   30.0100   38.3740 O   0  0  0  0  0  0  0  0  0  0  0  0
   39.5780   29.3810   38.2680 H   0  0  0  0  0  0  0  0  0  0  0  0
   38.1030   31.5640   37.6260 O   0  0  0  0  0  0  0  0  0  0  0  0
   35.8820   30.5490   40.2180 C   0  0  0  0  0  0  0  0  0  0  0  0
   35.1500   29.4560   39.6460 C   0  0  0  0  0  0  0  0  0  0  0  0
   35.4760   29.1070   38.3240 C   0  0  0  0  0  0  0  0  0  0  0  0
   36.4390   29.8070   37.6900 N   0  0  0  0  0  0  0  0  0  0  0  0
   37.1030   30.8300   38.2720 C   0  0  0  0  0  0  0  0  0  0  0  0
   36.8170   31.1900   39.5320 N   0  0  0  0  0  0  0  0  0  0  0  0
   34.3890   28.9370   40.2100 H   0  0  0  0  0  0  0  0  0  0  0  0
   34.9510   28.2890   37.8480 H   0  0  0  0  0  0  0  0  0  0  0  0
   35.5630   30.8940   41.5130 O   0  0  0  0  0  0  0  0  0  0  0  0
   34.6030   31.1740   41.6870 H   0  0  0  0  0  0  0  0  0  0  0  0
   38.7870   30.5360   41.8280 O   0  0  0  0  0  0  0  0  0  0  0  0
   38.0930   28.5360   42.8040 C   0  0  2  0  0  3  0  0  0  0  0  0
   39.0300   29.2290   41.8270 C   0  0  1  0  0  3  0  0  0  0  0  0
   38.8270   28.6210   40.5640 O   0  0  0  0  0  0  0  0  0  0  0  0
   39.0450   27.2670   40.6110 C   0  0  0  0  0  2  0  0  0  0  0  0
   37.7890   26.6320   41.1630 C   0  0  2  0  0  3  0  0  0  0  0  0
   37.1480   27.5890   42.1090 C   0  0  1  0  0  3  0  0  0  0  0  0
   37.2960   29.4690   43.4630 O   0  0  0  0  0  0  0  0  0  0  0  0
   37.4550   29.3700   44.4310 H   0  0  0  0  0  0  0  0  0  0  0  0
   38.0480   25.3890   41.7350 O   0  0  0  0  0  0  0  0  0  0  0  0
   39.0170   25.4320   42.0090 H   0  0  0  0  0  0  0  0  0  0  0  0
   36.5660   26.8160   43.1420 O   0  0  0  0  0  0  0  0  0  0  0  0
   36.1800   25.9910   42.7510 H   0  0  0  0  0  0  0  0  0  0  0  0
  1 28  1  0  0  0  0
  1  6  1  1  0  0  0
  1  5  1  0  0  0  0
  2  7  1  6  0  0  0
  2  3  1  0  0  0  0
  2  1  1  0  0  0  0
  3  4  1  0  0  0  0
  4  5  1  0  0  0  0
  5 10  1  0  0  0  0
  8  3  1  0  0  0  0
  9  3  1  0  0  0  0
 11  5  1  0  0  0  0
 12  2  1  0  0  0  0
 14 13  2  6  0  0  0
 14 15  1  0  0  0  0
 14 12  1  0  0  0  0
 16 15  1  0  0  0  0
 17 14  1  0  0  0  0
 17 22  1  0  0  0  0
 18 26  1  0  0  0  0
 19 24  1  0  0  0  0
 19 18  1  0  0  0  0
 20 19  2  0  0  0  0
 21 22  2  0  0  0  0
 21 20  1  0  0  0  0
 22 23  1  0  0  0  0
 23 18  2  0  0  0  0
 25 20  1  0  0  0  0
 26 27  1  0  0  0  0
 29 35  1  6  0  0  0
 30 28  1  6  0  0  0
 30 29  1  0  0  0  0
 31 32  1  0  0  0  0
 31 30  1  0  0  0  0
 32 33  1  0  0  0  0
 33 37  1  1  0  0  0
 33 34  1  0  0  0  0
 34 29  1  0  0  0  0
 34 39  1  1  0  0  0
 35 36  1  0  0  0  0
 37 38  1  0  0  0  0
 40 39  1  0  0  0  0
M  END
>  <minimizedAffinity>
-5.91971493

$$$$

 OpenBabel03252500263D

 40 42  0  0  1  0  0  0  0  0999 V2000
   37.2570   27.9360   41.6200 C   0  0  2  0  0  0  0  0  0  0  0  0
   37.2620   26.6070   40.9730 C   0  0  2  0  0  0  0  0  0  0  0  0
   37.4150   25.6570   42.1000 C   0  0  0  0  0  0  0  0  0  0  0  0
   36.8390   26.2380   43.2200 O   0  0  0  0  0  0  0  0  0  0  0  0
   36.5380   27.5250   42.9330 C   0  0  0  0  0  0  0  0  0  0  0  0
   38.1000   28.4440   41.9980 H   0  0  0  0  0  0  0  0  0  0  0  0
   36.2980   26.4880   40.4580 H   0  0  0  0  0  0  0  0  0  0  0  0
   38.3650   25.1610   42.2460 H   0  0  0  0  0  0  0  0  0  0  0  0
   36.7150   24.7900   41.8860 H   0  0  0  0  0  0  0  0  0  0  0  0
   36.7620   28.1870   43.7630 H   0  0  0  0  0  0  0  0  0  0  0  0
   35.4400   27.6140   42.7440 H   0  0  0  0  0  0  0  0  0  0  0  0
   38.2330   26.4680   40.0070 O   0  0  0  0  0  0  0  0  0  0  0  0
   38.0100   24.9350   37.9600 O   0  0  0  0  0  0  0  0  0  0  0  0
   37.5220   26.2420   38.5190 P   0  0  1  0  0  0  0  0  0  0  0  0
   35.8390   26.1590   38.7040 O   0  0  0  0  0  0  0  0  0  0  0  0
   35.4300   26.9120   38.2490 H   0  0  0  0  0  0  0  0  0  0  0  0
   37.9470   27.4660   37.4060 O   0  0  0  0  0  0  0  0  0  0  0  0
   36.5650   29.0490   34.5310 C   0  0  0  0  0  0  0  0  0  0  0  0
   35.2200   29.3650   34.9150 C   0  0  0  0  0  0  0  0  0  0  0  0
   34.8370   28.9950   36.2170 C   0  0  0  0  0  0  0  0  0  0  0  0
   35.7410   28.3800   37.0060 N   0  0  0  0  0  0  0  0  0  0  0  0
   37.0000   28.1030   36.5990 C   0  0  0  0  0  0  0  0  0  0  0  0
   37.3980   28.4420   35.3630 N   0  0  0  0  0  0  0  0  0  0  0  0
   34.5450   29.8600   34.2340 H   0  0  0  0  0  0  0  0  0  0  0  0
   33.8320   29.2120   36.5540 H   0  0  0  0  0  0  0  0  0  0  0  0
   36.9420   29.4090   33.2550 O   0  0  0  0  0  0  0  0  0  0  0  0
   36.4080   29.0080   32.4910 H   0  0  0  0  0  0  0  0  0  0  0  0
   36.5670   28.9140   40.9650 O   0  0  0  0  0  0  0  0  0  0  0  0
   36.5780   31.1180   40.2050 C   0  0  2  0  0  3  0  0  0  0  0  0
   37.0880   29.6970   40.0250 C   0  0  1  0  0  3  0  0  0  0  0  0
   38.5030   29.7610   40.0700 O   0  0  0  0  0  0  0  0  0  0  0  0
   39.0020   30.6110   39.1150 C   0  0  0  0  0  2  0  0  0  0  0  0
   38.8810   32.0170   39.6600 C   0  0  2  0  0  3  0  0  0  0  0  0
   37.6860   32.0810   40.5480 C   0  0  1  0  0  3  0  0  0  0  0  0
   35.6670   31.1810   41.2570 O   0  0  0  0  0  0  0  0  0  0  0  0
   34.8170   31.5300   40.8980 H   0  0  0  0  0  0  0  0  0  0  0  0
   38.8560   32.9640   38.6400 O   0  0  0  0  0  0  0  0  0  0  0  0
   38.5010   32.4660   37.8380 H   0  0  0  0  0  0  0  0  0  0  0  0
   37.1250   33.3700   40.3870 O   0  0  0  0  0  0  0  0  0  0  0  0
   37.8560   34.0330   40.2970 H   0  0  0  0  0  0  0  0  0  0  0  0
  1  6  1  1  0  0  0
  1  5  1  0  0  0  0
  2  7  1  6  0  0  0
  2  1  1  0  0  0  0
  2  3  1  0  0  0  0
  3  8  1  0  0  0  0
  3  4  1  0  0  0  0
  5  4  1  0  0  0  0
  5 10  1  0  0  0  0
  9  3  1  0  0  0  0
 11  5  1  0  0  0  0
 12  2  1  0  0  0  0
 14 13  2  6  0  0  0
 14 15  1  0  0  0  0
 14 12  1  0  0  0  0
 16 15  1  0  0  0  0
 17 14  1  0  0  0  0
 18 19  2  0  0  0  0
 18 23  1  0  0  0  0
 19 20  1  0  0  0  0
 20 25  1  0  0  0  0
 20 21  2  0  0  0  0
 22 21  1  0  0  0  0
 22 17  1  0  0  0  0
 23 22  2  0  0  0  0
 24 19  1  0  0  0  0
 26 18  1  0  0  0  0
 27 26  1  0  0  0  0
 28  1  1  0  0  0  0
 29 34  1  0  0  0  0
 29 35  1  1  0  0  0
 30 31  1  0  0  0  0
 30 29  1  0  0  0  0
 30 28  1  1  0  0  0
 32 33  1  0  0  0  0
 32 31  1  0  0  0  0
 33 37  1  6  0  0  0
 33 34  1  0  0  0  0
 34 39  1  6  0  0  0
 36 35  1  0  0  0  0
 38 37  1  0  0  0  0
 40 39  1  0  0  0  0
M  END
>  <minimizedAffinity>
-5.90110826

$$$$
