REMARK  Name = 
REMARK  9 active torsions:
REMARK  status: ('A' for Active; 'I' for Inactive)
REMARK    1  A    between atoms: C_1  and  C_11
REMARK    2  A    between atoms: C_5  and  C_7
REMARK    3  A    between atoms: C_9  and  N_10
REMARK    4  A    between atoms: C_11  and  C_14
REMARK    5  A    between atoms: C_13  and  S_19
REMARK    6  A    between atoms: S_19  and  C_36
REMARK    7  A    between atoms: O_34  and  C_35
REMARK    8  A    between atoms: C_39  and  O_40
REMARK    9  A    between atoms: C_41  and  O_42
REMARK                            x       y       z     vdW  Elec       q    Type
REMARK                         _______ _______ _______ _____ _____    ______ ____
ROOT
ATOM      1  C   UNL     1      41.961  33.312  41.359  0.00  0.00    +0.000 A 
ATOM      2  C   UNL     1      42.802  34.410  41.314  0.00  0.00    +0.000 A 
ATOM      3  C   UNL     1      42.255  35.657  41.035  0.00  0.00    +0.000 A 
ATOM      4  C   UNL     1      40.906  35.816  40.805  0.00  0.00    +0.000 A 
ATOM      5  C   UNL     1      40.066  34.737  40.846  0.00  0.00    +0.000 A 
ATOM      6  C   UNL     1      40.604  33.514  41.120  0.00  0.00    +0.000 A 
ATOM      7  H   UNL     1      42.836  36.578  40.975  0.00  0.00    +0.000 HD
ATOM      8  H   UNL     1      40.489  36.777  40.592  0.00  0.00    +0.000 HD
ATOM      9  H   UNL     1      39.024  34.828  40.672  0.00  0.00    +0.000 HD
ATOM     10  H   UNL     1      39.941  32.657  41.153  0.00  0.00    +0.000 HD
ENDROOT
BRANCH   1  11
ATOM     11  S   UNL     1      42.555  31.768  41.597  0.00  0.00    +0.000 S 
ATOM     12  O   UNL     1      42.456  31.078  40.280  0.00  0.00    +0.000 OA
ATOM     13  O   UNL     1      41.578  31.080  42.622  0.00  0.00    +0.000 OA
BRANCH  11  15
ATOM     14  C   UNL     1      44.289  29.873  41.288  0.00  0.00    +0.000 C 
ATOM     15  C   UNL     1      43.872  31.014  42.211  0.00  0.00    +0.000 C 
ATOM     16  O   UNL     1      45.084  31.755  42.291  0.00  0.00    +0.000 OA
ATOM     17  C   UNL     1      46.154  30.998  42.697  0.00  0.00    +0.000 C 
ATOM     18  C   UNL     1      46.738  30.414  41.421  0.00  0.00    +0.000 C 
ATOM     19  C   UNL     1      45.559  30.099  40.526  0.00  0.00    +0.000 C 
BRANCH  14  20
ATOM     20  O   UNL     1      43.303  29.657  40.293  0.00  0.00    +0.000 OA
ATOM     21  H   UNL     1      43.586  29.916  39.403  0.00  0.00    +0.000 HD
ENDBRANCH  14  20
BRANCH  18  22
ATOM     22  O   UNL     1      47.500  31.381  40.765  0.00  0.00    +0.000 OA
ATOM     23  H   UNL     1      48.116  30.888  40.140  0.00  0.00    +0.000 HD
ENDBRANCH  18  22
BRANCH  19  24
ATOM     24  O   UNL     1      45.387  31.058  39.553  0.00  0.00    +0.000 OA
ATOM     25  H   UNL     1      46.054  31.767  39.553  0.00  0.00    +0.000 HD
ENDBRANCH  19  24
ENDBRANCH  11  15
ENDBRANCH   1  11
BRANCH   2  26
ATOM     26  C   UNL     1      44.250  34.315  41.549  0.00  0.00    +0.000 C 
ATOM     27  O   UNL     1      45.120  34.147  40.634  0.00  0.00    +0.000 OA
BRANCH  26  28
ATOM     28  C   UNL     1      44.599  34.434  42.931  0.00  0.00    +0.000 A 
ATOM     29  C   UNL     1      44.307  35.690  43.549  0.00  0.00    +0.000 A 
ATOM     30  C   UNL     1      44.622  35.817  44.904  0.00  0.00    +0.000 A 
ATOM     31  N   UNL     1      45.179  34.751  45.538  0.00  0.00    +0.000 NA
ATOM     32  C   UNL     1      45.439  33.566  44.897  0.00  0.00    +0.000 A 
ATOM     33  N   UNL     1      45.143  33.474  43.655  0.00  0.00    +0.000 NA
ATOM     34  H   UNL     1      43.876  36.553  43.109  0.00  0.00    +0.000 HD
ATOM     35  H   UNL     1      44.440  36.734  45.468  0.00  0.00    +0.000 HD
BRANCH  32  36
ATOM     36  C   UNL     1      46.025  32.454  45.672  0.00  0.00    +0.000 C 
ATOM     37  C   UNL     1      46.957  32.773  46.818  0.00  0.00    +0.000 C 
ATOM     38  C   UNL     1      45.545  32.351  47.073  0.00  0.00    +0.000 C 
ATOM     39  H   UNL     1      46.224  31.511  45.157  0.00  0.00    +0.000 HD
ATOM     40  H   UNL     1      47.292  33.815  46.963  0.00  0.00    +0.000 HD
ATOM     41  H   UNL     1      47.738  32.045  47.100  0.00  0.00    +0.000 HD
ATOM     42  H   UNL     1      45.357  31.375  47.546  0.00  0.00    +0.000 HD
BRANCH  38  43
ATOM     43  N   UNL     1      44.752  33.421  47.652  0.00  0.00    +0.000 NA
ATOM     44  H   UNL     1      43.964  33.050  48.242  0.00  0.00    +0.000 HD
ATOM     45  H   UNL     1      45.304  34.028  48.316  0.00  0.00    +0.000 HD
ENDBRANCH  38  43
ENDBRANCH  32  36
ENDBRANCH  26  28
ENDBRANCH   2  26
TORSDOF 9
