
     RDKit          3D

 31 32  0  0  0  0  0  0  0  0999 V2000
   44.5023   35.9994   44.5295 C   0  0  0  0  0  0  0  0  0  0  0  0
   45.1988   35.8808   43.3399 C   0  0  0  0  0  0  0  0  0  0  0  0
   46.1226   34.8291   43.1788 C   0  0  0  0  0  0  0  0  0  0  0  0
   46.3124   33.9397   44.2121 N   0  0  0  0  0  0  0  0  0  0  0  0
   45.6043   34.1019   45.3553 C   0  0  0  0  0  0  0  0  0  0  0  0
   44.7215   35.1110   45.5023 N   0  0  0  0  0  0  0  0  0  0  0  0
   45.8721   33.1099   46.4070 C   0  0  0  0  0  0  0  0  0  0  0  0
   46.4891   31.6082   45.6201 S   0  0  0  0  0  0  0  0  0  0  0  0
   43.8252   36.8324   44.5428 H   0  0  0  0  0  0  0  0  0  0  0  0
   45.1688   36.4882   42.4337 H   0  0  0  0  0  0  0  0  0  0  0  0
   46.7180   34.6528   42.2890 H   0  0  0  0  0  0  0  0  0  0  0  0
   46.6779   33.5736   47.0495 H   0  0  0  0  0  0  0  0  0  0  0  0
   45.0044   32.8964   47.0667 H   0  0  0  0  0  0  0  0  0  0  0  0
   48.4550   29.1607   45.3165 O   0  0  0  0  0  0  0  0  0  0  0  0
   48.2223   29.6744   46.5956 C   0  0  1  0  0  0  0  0  0  0  0  0
   46.8603   30.2759   46.7480 C   0  0  2  0  0  0  0  0  0  0  0  0
   45.8438   29.3336   46.7768 O   0  0  0  0  0  0  0  0  0  0  0  0
   45.9007   28.5092   47.8937 C   0  0  0  0  0  0  0  0  0  0  0  0
   47.2201   28.4942   48.5906 C   0  0  2  0  0  0  0  0  0  0  0  0
   47.3488   29.4215   49.6130 O   0  0  0  0  0  0  0  0  0  0  0  0
   48.3426   28.5286   47.5806 C   0  0  1  0  0  0  0  0  0  0  0  0
   48.2905   27.3021   46.9121 O   0  0  0  0  0  0  0  0  0  0  0  0
   47.7481   28.5250   45.0918 H   0  0  0  0  0  0  0  0  0  0  0  0
   48.9723   30.4442   46.8686 H   0  0  0  0  0  0  0  0  0  0  0  0
   46.8621   30.7639   47.7686 H   0  0  0  0  0  0  0  0  0  0  0  0
   45.6865   27.4689   47.5550 H   0  0  0  0  0  0  0  0  0  0  0  0
   45.0813   28.7514   48.6145 H   0  0  0  0  0  0  0  0  0  0  0  0
   47.3195   27.4980   49.1051 H   0  0  0  0  0  0  0  0  0  0  0  0
   47.7850   29.0610   50.4222 H   0  0  0  0  0  0  0  0  0  0  0  0
   49.3351   28.5495   48.1053 H   0  0  0  0  0  0  0  0  0  0  0  0
   49.2049   26.9268   46.7462 H   0  0  0  0  0  0  0  0  0  0  0  0
  1  6  2  0
  2  1  1  0
  3  2  2  0
  3  4  1  0
  4  5  2  0
  5  6  1  0
  5  7  1  0
  8  7  1  0
  1  9  1  0
  2 10  1  0
  3 11  1  0
  7 12  1  0
  7 13  1  0
 14 15  1  0
 15 16  1  0
 16 17  1  0
 17 18  1  0
 18 19  1  0
 19 20  1  0
 19 21  1  0
 21 22  1  0
 21 15  1  0
 14 23  1  0
 15 24  1  1
 16 25  1  1
 18 26  1  0
 18 27  1  0
 19 28  1  1
 20 29  1  0
 21 30  1  1
 22 31  1  0
  8 16  1  0
M  ISO  5   9  14  10  14  11  14  12   8  13   8
M  END
>  <DihAtoms>  (1) 
6,7,15,14

>  <DihDeg>  (1) 
66.42944879891922

$$$$
