
 OpenBabel03242521283D

 38 40  0  0  1  0  0  0  0  0999 V2000
   47.7950   32.2720   43.4960 C   0  0  1  0  0  0  0  0  0  0  0  0
   48.3820   33.3470   42.6120 C   0  0  2  0  0  0  0  0  0  0  0  0
   47.3980   34.0800   41.9760 O   0  0  0  0  0  0  0  0  0  0  0  0
   46.7960   34.8520   42.9570 C   0  0  0  0  0  0  0  0  0  0  0  0
   45.9450   33.9450   43.8080 C   0  0  2  0  0  0  0  0  0  0  0  0
   46.6300   32.7230   44.3080 C   0  0  2  0  0  0  0  0  0  0  0  0
   48.6170   31.9830   44.2170 H   0  0  0  0  0  0  0  0  0  0  0  0
   48.9680   33.9980   43.2880 H   0  0  0  0  0  0  0  0  0  0  0  0
   47.5500   35.4120   43.5590 H   0  0  0  0  0  0  0  0  0  0  0  0
   46.1130   35.5740   42.4560 H   0  0  0  0  0  0  0  0  0  0  0  0
   45.5170   34.4800   44.6790 H   0  0  0  0  0  0  0  0  0  0  0  0
   45.8710   31.8870   44.2700 H   0  0  0  0  0  0  0  0  0  0  0  0
   49.7490   32.0640   39.3150 C   0  0  0  0  0  0  0  0  0  0  0  0
   48.8790   32.6520   40.2480 C   0  0  0  0  0  0  0  0  0  0  0  0
   49.2750   32.7480   41.6120 C   0  0  0  0  0  0  0  0  0  0  0  0
   50.4900   32.2580   41.9360 N   0  0  0  0  0  0  0  0  0  0  0  0
   51.3120   31.6950   41.0200 C   0  0  0  0  0  0  0  0  0  0  0  0
   50.9500   31.5950   39.7110 N   0  0  0  0  0  0  0  0  0  0  0  0
   49.4690   31.9800   38.2750 H   0  0  0  0  0  0  0  0  0  0  0  0
   47.9060   33.0340   39.9360 H   0  0  0  0  0  0  0  0  0  0  0  0
   52.2740   31.3350   41.4190 H   0  0  0  0  0  0  0  0  0  0  0  0
   47.5400   31.0900   42.7900 O   0  0  0  0  0  0  0  0  0  0  0  0
   46.8570   31.2180   42.1030 H   0  0  0  0  0  0  0  0  0  0  0  0
   44.8320   33.6190   43.0090 O   0  0  0  0  0  0  0  0  0  0  0  0
   44.6220   34.3290   42.3820 H   0  0  0  0  0  0  0  0  0  0  0  0
   46.9450   32.8020   45.6760 O   0  0  0  0  0  0  0  0  0  0  0  0
   45.2020   32.3590   47.1800 C   0  0  1  0  0  0  0  0  0  0  0  0
   46.3840   31.8030   46.4310 C   0  0  2  0  0  0  0  0  0  0  0  0
   47.3410   31.2510   47.2680 O   0  0  0  0  0  0  0  0  0  0  0  0
   46.9010   30.2130   48.0430 C   0  0  0  0  0  0  0  0  0  0  0  0
   45.4210   30.1760   48.2330 C   0  0  2  0  0  0  0  0  0  0  0  0
   44.9060   31.5780   48.4400 C   0  0  1  0  0  0  0  0  0  0  0  0
   45.3140   33.6880   47.5270 O   0  0  0  0  0  0  0  0  0  0  0  0
   46.2170   34.0470   47.5420 H   0  0  0  0  0  0  0  0  0  0  0  0
   45.1400   29.3950   49.3520 O   0  0  0  0  0  0  0  0  0  0  0  0
   45.9670   29.0600   49.7800 H   0  0  0  0  0  0  0  0  0  0  0  0
   45.4970   32.1540   49.5720 O   0  0  0  0  0  0  0  0  0  0  0  0
   46.4380   32.4310   49.4060 H   0  0  0  0  0  0  0  0  0  0  0  0
  1  7  1  1  0  0  0
  1  6  1  0  0  0  0
  2  8  1  1  0  0  0
  2  1  1  0  0  0  0
  3  2  1  0  0  0  0
  3  4  1  0  0  0  0
  4  9  1  0  0  0  0
  4  5  1  0  0  0  0
  5  6  1  0  0  0  0
  5 11  1  1  0  0  0
  6 12  1  6  0  0  0
  6 26  1  0  0  0  0
 10  4  1  0  0  0  0
 13 18  2  0  0  0  0
 13 14  1  0  0  0  0
 14 15  2  0  0  0  0
 15 16  1  0  0  0  0
 15  2  1  0  0  0  0
 17 21  1  0  0  0  0
 17 16  2  0  0  0  0
 18 17  1  0  0  0  0
 19 13  1  0  0  0  0
 20 14  1  0  0  0  0
 22  1  1  0  0  0  0
 23 22  1  0  0  0  0
 24  5  1  0  0  0  0
 25 24  1  0  0  0  0
 27 33  1  1  0  0  0
 27 32  1  0  0  0  0
 28 26  1  1  0  0  0
 28 27  1  0  0  0  0
 28 29  1  0  0  0  0
 29 30  1  0  0  0  0
 30 31  1  0  0  0  0
 31 32  1  0  0  0  0
 31 35  1  1  0  0  0
 32 37  1  1  0  0  0
 33 34  1  0  0  0  0
 35 36  1  0  0  0  0
 38 37  1  0  0  0  0
M  END
>  <minimizedAffinity>
-5.66444254

>  <minimizedRMSD>
7.54560184

$$$$
