
 OpenBabel03242523533D

 46 49  0  0  1  0  0  0  0  0999 V2000
   38.6260   32.8210   39.4440 C   0  0  1  0  0  0  0  0  0  0  0  0
   38.1190   31.7390   40.4010 C   0  0  1  0  0  0  0  0  0  0  0  0
   38.1730   30.4920   39.7500 O   0  0  0  0  0  0  0  0  0  0  0  0
   37.9180   30.5740   38.3820 C   0  0  0  0  0  0  0  0  0  0  0  0
   39.0300   31.2840   37.6430 C   0  0  2  0  0  0  0  0  0  0  0  0
   39.7670   32.1630   38.6760 C   0  0  1  0  0  0  0  0  0  0  0  0
   39.0450   33.6840   40.0120 H   0  0  0  0  0  0  0  0  0  0  0  0
   37.1030   31.9640   40.7370 H   0  0  0  0  0  0  0  0  0  0  0  0
   37.8390   29.5190   38.0490 H   0  0  0  0  0  0  0  0  0  0  0  0
   36.9050   31.0060   38.1660 H   0  0  0  0  0  0  0  0  0  0  0  0
   39.7330   30.5960   37.1420 H   0  0  0  0  0  0  0  0  0  0  0  0
   40.2950   31.4230   39.3170 H   0  0  0  0  0  0  0  0  0  0  0  0
   37.6160   33.2050   38.5670 O   0  0  0  0  0  0  0  0  0  0  0  0
   36.8120   33.3820   39.1530 H   0  0  0  0  0  0  0  0  0  0  0  0
   38.4650   32.2040   36.7510 O   0  0  0  0  0  0  0  0  0  0  0  0
   39.1640   32.8470   36.4970 H   0  0  0  0  0  0  0  0  0  0  0  0
   39.0810   31.6430   41.4140 O   0  0  0  0  0  0  0  0  0  0  0  0
   39.5250   30.5050   41.9550 C   0  0  0  0  0  0  0  0  0  0  0  0
   38.6420   29.5710   42.4940 C   0  0  0  0  0  0  0  0  0  0  0  0
   39.1630   28.4060   43.0400 C   0  0  0  0  0  0  0  0  0  0  0  0
   40.5300   28.1980   43.0390 N   0  0  0  0  0  0  0  0  0  0  0  0
   41.3470   29.1260   42.5090 C   0  0  0  0  0  0  0  0  0  0  0  0
   40.8560   30.2680   41.9720 N   0  0  0  0  0  0  0  0  0  0  0  0
   37.5720   29.7350   42.4940 H   0  0  0  0  0  0  0  0  0  0  0  0
   42.4110   28.9220   42.5290 H   0  0  0  0  0  0  0  0  0  0  0  0
   38.2440   27.3740   43.6440 C   0  0  0  0  0  0  0  0  0  0  0  0
   36.7690   27.6950   43.6750 C   0  0  0  0  0  0  0  0  0  0  0  0
   37.3830   26.5970   42.7880 C   0  0  0  0  0  0  0  0  0  0  0  0
   38.6030   27.0670   44.6570 H   0  0  0  0  0  0  0  0  0  0  0  0
   36.4760   28.5980   43.0990 H   0  0  0  0  0  0  0  0  0  0  0  0
   36.1420   27.3830   44.5200 H   0  0  0  0  0  0  0  0  0  0  0  0
   37.0970   25.5590   43.1250 H   0  0  0  0  0  0  0  0  0  0  0  0
   37.4260   26.7330   41.7100 H   0  0  0  0  0  0  0  0  0  0  0  0
   40.5960   33.0600   38.0450 O   0  0  0  0  0  0  0  0  0  0  0  0
   42.9280   33.7160   37.9010 C   0  0  1  0  0  3  0  0  0  0  0  0
   41.8560   32.9810   38.6390 C   0  0  2  0  0  3  0  0  0  0  0  0
   42.2700   31.6530   38.7530 O   0  0  0  0  0  0  0  0  0  0  0  0
   43.3530   31.6210   39.6210 C   0  0  0  0  0  2  0  0  0  0  0  0
   44.5730   32.0710   38.8430 C   0  0  1  0  0  3  0  0  0  0  0  0
   44.1610   32.8620   37.6420 C   0  0  1  0  0  3  0  0  0  0  0  0
   42.4480   34.1600   36.6600 O   0  0  0  0  0  0  0  0  0  0  0  0
   41.7560   34.8210   36.8720 H   0  0  0  0  0  0  0  0  0  0  0  0
   45.4820   32.7210   39.6670 O   0  0  0  0  0  0  0  0  0  0  0  0
   45.5410   33.6810   39.4980 H   0  0  0  0  0  0  0  0  0  0  0  0
   43.9310   32.0210   36.5480 O   0  0  0  0  0  0  0  0  0  0  0  0
   42.9440   31.9870   36.4090 H   0  0  0  0  0  0  0  0  0  0  0  0
  1  7  1  1  0  0  0
  1  2  1  0  0  0  0
  2  8  1  1  0  0  0
  2 17  1  0  0  0  0
  3  2  1  0  0  0  0
  4  3  1  0  0  0  0
  5 11  1  6  0  0  0
  5  4  1  0  0  0  0
  5  6  1  0  0  0  0
  6 12  1  1  0  0  0
  6  1  1  0  0  0  0
  9  4  1  0  0  0  0
 10  4  1  0  0  0  0
 13 14  1  0  0  0  0
 13  1  1  0  0  0  0
 15  5  1  0  0  0  0
 16 15  1  0  0  0  0
 17 18  1  0  0  0  0
 18 23  2  0  0  0  0
 18 19  1  0  0  0  0
 19 20  2  0  0  0  0
 20 26  1  0  0  0  0
 21 20  1  0  0  0  0
 22 25  1  0  0  0  0
 22 21  2  0  0  0  0
 23 22  1  0  0  0  0
 24 19  1  0  0  0  0
 26 27  1  0  0  0  0
 26 29  1  0  0  0  0
 27 31  1  0  0  0  0
 28 32  1  0  0  0  0
 28 26  1  0  0  0  0
 28 27  1  0  0  0  0
 30 27  1  0  0  0  0
 33 28  1  0  0  0  0
 34  6  1  0  0  0  0
 35 41  1  6  0  0  0
 35 36  1  0  0  0  0
 36 34  1  6  0  0  0
 36 37  1  0  0  0  0
 37 38  1  0  0  0  0
 39 38  1  0  0  0  0
 39 43  1  1  0  0  0
 40 45  1  6  0  0  0
 40 35  1  0  0  0  0
 40 39  1  0  0  0  0
 41 42  1  0  0  0  0
 44 43  1  0  0  0  0
 46 45  1  0  0  0  0
M  END
>  <minimizedAffinity>
-6.84818316

$$$$

 OpenBabel03242523533D

 46 49  0  0  1  0  0  0  0  0999 V2000
   37.2560   31.8670   39.5880 C   0  0  1  0  0  0  0  0  0  0  0  0
   37.8570   31.9160   38.1810 C   0  0  1  0  0  0  0  0  0  0  0  0
   39.2260   32.2270   38.2800 O   0  0  0  0  0  0  0  0  0  0  0  0
   39.5200   33.0870   39.3370 C   0  0  0  0  0  0  0  0  0  0  0  0
   39.3240   32.4180   40.6780 C   0  0  2  0  0  0  0  0  0  0  0  0
   38.3430   31.2470   40.4580 C   0  0  1  0  0  0  0  0  0  0  0  0
   36.3670   31.1950   39.6140 H   0  0  0  0  0  0  0  0  0  0  0  0
   37.3300   32.6470   37.5600 H   0  0  0  0  0  0  0  0  0  0  0  0
   40.5850   33.3590   39.1880 H   0  0  0  0  0  0  0  0  0  0  0  0
   38.9740   34.0640   39.2520 H   0  0  0  0  0  0  0  0  0  0  0  0
   40.2640   32.0600   41.1330 H   0  0  0  0  0  0  0  0  0  0  0  0
   38.9410   30.5140   39.8740 H   0  0  0  0  0  0  0  0  0  0  0  0
   36.9590   33.1520   40.0340 O   0  0  0  0  0  0  0  0  0  0  0  0
   36.4450   33.5800   39.2780 H   0  0  0  0  0  0  0  0  0  0  0  0
   38.6280   33.2930   41.5230 O   0  0  0  0  0  0  0  0  0  0  0  0
   38.2570   32.7650   42.2640 H   0  0  0  0  0  0  0  0  0  0  0  0
   37.8330   30.5970   37.7090 O   0  0  0  0  0  0  0  0  0  0  0  0
   36.8720   30.0640   36.9500 C   0  0  0  0  0  0  0  0  0  0  0  0
   35.8760   29.2640   37.5060 C   0  0  0  0  0  0  0  0  0  0  0  0
   34.9030   28.7400   36.6670 C   0  0  0  0  0  0  0  0  0  0  0  0
   34.9410   29.0180   35.3130 N   0  0  0  0  0  0  0  0  0  0  0  0
   35.9200   29.7940   34.8170 C   0  0  0  0  0  0  0  0  0  0  0  0
   36.8780   30.3150   35.6210 N   0  0  0  0  0  0  0  0  0  0  0  0
   35.8470   29.0470   38.5670 H   0  0  0  0  0  0  0  0  0  0  0  0
   35.9120   29.9870   33.7510 H   0  0  0  0  0  0  0  0  0  0  0  0
   33.8130   27.8590   37.2250 C   0  0  0  0  0  0  0  0  0  0  0  0
   32.7780   27.3410   36.2550 C   0  0  0  0  0  0  0  0  0  0  0  0
   33.8240   26.4450   36.9430 C   0  0  0  0  0  0  0  0  0  0  0  0
   33.3220   28.3430   38.1050 H   0  0  0  0  0  0  0  0  0  0  0  0
   33.0100   27.5250   35.1840 H   0  0  0  0  0  0  0  0  0  0  0  0
   31.7290   27.2310   36.5560 H   0  0  0  0  0  0  0  0  0  0  0  0
   33.3640   25.7500   37.7020 H   0  0  0  0  0  0  0  0  0  0  0  0
   34.6360   26.0160   36.3610 H   0  0  0  0  0  0  0  0  0  0  0  0
   37.8800   30.7690   41.6620 O   0  0  0  0  0  0  0  0  0  0  0  0
   37.0180   28.5080   41.4840 C   0  0  1  0  0  3  0  0  0  0  0  0
   38.1840   29.4090   41.7360 C   0  0  2  0  0  3  0  0  0  0  0  0
   38.6940   29.0810   42.9930 O   0  0  0  0  0  0  0  0  0  0  0  0
   39.2640   27.8180   42.9010 C   0  0  0  0  0  2  0  0  0  0  0  0
   38.1380   26.8060   42.9500 C   0  0  1  0  0  3  0  0  0  0  0  0
   36.8440   27.4490   42.5630 C   0  0  1  0  0  3  0  0  0  0  0  0
   35.8310   29.2530   41.4210 O   0  0  0  0  0  0  0  0  0  0  0  0
   35.9210   29.8160   40.6240 H   0  0  0  0  0  0  0  0  0  0  0  0
   38.4510   25.6710   42.2130 O   0  0  0  0  0  0  0  0  0  0  0  0
   37.9280   25.5850   41.3940 H   0  0  0  0  0  0  0  0  0  0  0  0
   36.2150   28.0130   43.6800 O   0  0  0  0  0  0  0  0  0  0  0  0
   36.3090   29.0020   43.5980 H   0  0  0  0  0  0  0  0  0  0  0  0
  1  7  1  1  0  0  0
  1 13  1  0  0  0  0
  1  6  1  0  0  0  0
  2  8  1  6  0  0  0
  2  3  1  0  0  0  0
  2  1  1  0  0  0  0
  3  4  1  0  0  0  0
  4  5  1  0  0  0  0
  5 11  1  1  0  0  0
  5 15  1  0  0  0  0
  6 12  1  6  0  0  0
  6  5  1  0  0  0  0
  6 34  1  0  0  0  0
  9  4  1  0  0  0  0
 10  4  1  0  0  0  0
 14 13  1  0  0  0  0
 15 16  1  0  0  0  0
 17  2  1  0  0  0  0
 18 19  1  0  0  0  0
 18 17  1  0  0  0  0
 19 24  1  0  0  0  0
 20 26  1  0  0  0  0
 20 19  2  0  0  0  0
 21 20  1  0  0  0  0
 22 21  2  0  0  0  0
 22 23  1  0  0  0  0
 23 18  2  0  0  0  0
 25 22  1  0  0  0  0
 26 29  1  0  0  0  0
 27 31  1  0  0  0  0
 27 28  1  0  0  0  0
 27 26  1  0  0  0  0
 28 26  1  0  0  0  0
 28 32  1  0  0  0  0
 30 27  1  0  0  0  0
 33 28  1  0  0  0  0
 35 41  1  1  0  0  0
 35 36  1  0  0  0  0
 35 40  1  0  0  0  0
 36 34  1  1  0  0  0
 36 37  1  0  0  0  0
 38 39  1  0  0  0  0
 38 37  1  0  0  0  0
 39 43  1  6  0  0  0
 40 39  1  0  0  0  0
 40 45  1  1  0  0  0
 42 41  1  0  0  0  0
 44 43  1  0  0  0  0
 46 45  1  0  0  0  0
M  END
>  <minimizedAffinity>
-6.54145765

$$$$

 OpenBabel03242523533D

 46 49  0  0  1  0  0  0  0  0999 V2000
   37.7100   31.4670   40.6690 C   0  0  1  0  0  0  0  0  0  0  0  0
   37.1930   30.4070   39.6930 C   0  0  1  0  0  0  0  0  0  0  0  0
   37.6270   30.7310   38.3950 O   0  0  0  0  0  0  0  0  0  0  0  0
   37.7000   32.1030   38.1640 C   0  0  0  0  0  0  0  0  0  0  0  0
   38.8080   32.7510   38.9610 C   0  0  2  0  0  0  0  0  0  0  0  0
   39.1020   31.8240   40.1600 C   0  0  1  0  0  0  0  0  0  0  0  0
   37.8150   31.0430   41.6940 H   0  0  0  0  0  0  0  0  0  0  0  0
   36.1020   30.3380   39.7380 H   0  0  0  0  0  0  0  0  0  0  0  0
   37.8960   32.1940   37.0760 H   0  0  0  0  0  0  0  0  0  0  0  0
   36.7070   32.6090   38.3060 H   0  0  0  0  0  0  0  0  0  0  0  0
   39.7250   32.9320   38.3730 H   0  0  0  0  0  0  0  0  0  0  0  0
   39.5850   30.9390   39.6900 H   0  0  0  0  0  0  0  0  0  0  0  0
   36.8880   32.5910   40.6440 O   0  0  0  0  0  0  0  0  0  0  0  0
   35.9490   32.2320   40.7380 H   0  0  0  0  0  0  0  0  0  0  0  0
   38.3180   33.9250   39.5490 O   0  0  0  0  0  0  0  0  0  0  0  0
   38.9290   34.1760   40.2760 H   0  0  0  0  0  0  0  0  0  0  0  0
   37.8830   29.2300   40.0070 O   0  0  0  0  0  0  0  0  0  0  0  0
   37.8400   28.5980   41.1840 C   0  0  0  0  0  0  0  0  0  0  0  0
   38.9990   28.1050   41.7800 C   0  0  0  0  0  0  0  0  0  0  0  0
   38.8910   27.4600   43.0040 C   0  0  0  0  0  0  0  0  0  0  0  0
   37.6510   27.3190   43.5990 N   0  0  0  0  0  0  0  0  0  0  0  0
   36.5570   27.8080   42.9890 C   0  0  0  0  0  0  0  0  0  0  0  0
   36.6440   28.4410   41.7950 N   0  0  0  0  0  0  0  0  0  0  0  0
   39.9700   28.2170   41.3140 H   0  0  0  0  0  0  0  0  0  0  0  0
   35.6050   27.6760   43.4900 H   0  0  0  0  0  0  0  0  0  0  0  0
   40.1190   26.9010   43.6790 C   0  0  0  0  0  0  0  0  0  0  0  0
   40.3050   25.4030   43.6450 C   0  0  0  0  0  0  0  0  0  0  0  0
   41.2030   26.3910   42.8790 C   0  0  0  0  0  0  0  0  0  0  0  0
   40.2060   27.2870   44.7240 H   0  0  0  0  0  0  0  0  0  0  0  0
   39.6000   24.8610   42.9800 H   0  0  0  0  0  0  0  0  0  0  0  0
   40.7400   24.8700   44.5000 H   0  0  0  0  0  0  0  0  0  0  0  0
   42.2470   26.4450   43.3040 H   0  0  0  0  0  0  0  0  0  0  0  0
   41.1470   26.4450   41.7940 H   0  0  0  0  0  0  0  0  0  0  0  0
   39.8820   32.4680   41.0910 O   0  0  0  0  0  0  0  0  0  0  0  0
   42.2530   32.1420   41.4910 C   0  0  1  0  0  3  0  0  0  0  0  0
   41.1690   32.5970   40.5670 C   0  0  2  0  0  3  0  0  0  0  0  0
   41.4400   33.9260   40.2360 O   0  0  0  0  0  0  0  0  0  0  0  0
   42.5790   33.9380   39.4410 C   0  0  0  0  0  2  0  0  0  0  0  0
   43.7750   33.7880   40.3590 C   0  0  1  0  0  3  0  0  0  0  0  0
   43.3580   33.1750   41.6590 C   0  0  1  0  0  3  0  0  0  0  0  0
   41.7280   31.8680   42.7610 O   0  0  0  0  0  0  0  0  0  0  0  0
   41.1330   31.0990   42.6350 H   0  0  0  0  0  0  0  0  0  0  0  0
   44.8130   33.1210   39.7240 O   0  0  0  0  0  0  0  0  0  0  0  0
   44.9660   32.2210   40.0700 H   0  0  0  0  0  0  0  0  0  0  0  0
   42.9480   34.1610   42.5640 O   0  0  0  0  0  0  0  0  0  0  0  0
   41.9570   34.0960   42.6360 H   0  0  0  0  0  0  0  0  0  0  0  0
  1  7  1  1  0  0  0
  2  8  1  1  0  0  0
  2 17  1  0  0  0  0
  2  1  1  0  0  0  0
  3  2  1  0  0  0  0
  4 10  1  0  0  0  0
  4  3  1  0  0  0  0
  4  5  1  0  0  0  0
  5 11  1  6  0  0  0
  5 15  1  0  0  0  0
  5  6  1  0  0  0  0
  6 12  1  6  0  0  0
  6  1  1  0  0  0  0
  6 34  1  0  0  0  0
  9  4  1  0  0  0  0
 13  1  1  0  0  0  0
 13 14  1  0  0  0  0
 15 16  1  0  0  0  0
 17 18  1  0  0  0  0
 18 19  2  0  0  0  0
 18 23  1  0  0  0  0
 19 20  1  0  0  0  0
 20 21  2  0  0  0  0
 20 26  1  0  0  0  0
 22 25  1  0  0  0  0
 22 21  1  0  0  0  0
 23 22  2  0  0  0  0
 24 19  1  0  0  0  0
 26 29  1  0  0  0  0
 27 26  1  0  0  0  0
 27 31  1  0  0  0  0
 28 32  1  0  0  0  0
 28 27  1  0  0  0  0
 28 26  1  0  0  0  0
 30 27  1  0  0  0  0
 33 28  1  0  0  0  0
 35 40  1  0  0  0  0
 35 41  1  1  0  0  0
 36 34  1  1  0  0  0
 36 35  1  0  0  0  0
 37 36  1  0  0  0  0
 38 37  1  0  0  0  0
 38 39  1  0  0  0  0
 39 43  1  6  0  0  0
 39 40  1  0  0  0  0
 40 45  1  1  0  0  0
 42 41  1  0  0  0  0
 43 44  1  0  0  0  0
 45 46  1  0  0  0  0
M  END
>  <minimizedAffinity>
-6.50441599

$$$$

 OpenBabel03242523533D

 46 49  0  0  1  0  0  0  0  0999 V2000
   37.8690   32.2940   40.5750 C   0  0  1  0  0  0  0  0  0  0  0  0
   37.2300   30.9860   41.0490 C   0  0  1  0  0  0  0  0  0  0  0  0
   36.9420   30.1870   39.9280 O   0  0  0  0  0  0  0  0  0  0  0  0
   36.5800   30.9250   38.8020 C   0  0  0  0  0  0  0  0  0  0  0  0
   37.7440   31.7130   38.2480 C   0  0  2  0  0  0  0  0  0  0  0  0
   38.7550   31.8950   39.4000 C   0  0  1  0  0  0  0  0  0  0  0  0
   38.5210   32.7250   41.3690 H   0  0  0  0  0  0  0  0  0  0  0  0
   36.3260   31.1860   41.6330 H   0  0  0  0  0  0  0  0  0  0  0  0
   36.2370   30.1670   38.0690 H   0  0  0  0  0  0  0  0  0  0  0  0
   35.6720   31.5580   38.9860 H   0  0  0  0  0  0  0  0  0  0  0  0
   38.2260   31.2330   37.3780 H   0  0  0  0  0  0  0  0  0  0  0  0
   39.1650   30.8730   39.5500 H   0  0  0  0  0  0  0  0  0  0  0  0
   36.8880   33.1890   40.1540 O   0  0  0  0  0  0  0  0  0  0  0  0
   36.2050   33.1990   40.8980 H   0  0  0  0  0  0  0  0  0  0  0  0
   37.3140   33.0160   37.9610 O   0  0  0  0  0  0  0  0  0  0  0  0
   38.1110   33.5860   37.8830 H   0  0  0  0  0  0  0  0  0  0  0  0
   38.2400   30.2900   41.7230 O   0  0  0  0  0  0  0  0  0  0  0  0
   38.1550   29.0280   42.1530 C   0  0  0  0  0  0  0  0  0  0  0  0
   39.1950   28.1240   41.9450 C   0  0  0  0  0  0  0  0  0  0  0  0
   39.0490   26.8270   42.4160 C   0  0  0  0  0  0  0  0  0  0  0  0
   37.8890   26.4610   43.0720 N   0  0  0  0  0  0  0  0  0  0  0  0
   36.9090   27.3630   43.2510 C   0  0  0  0  0  0  0  0  0  0  0  0
   37.0340   28.6340   42.7990 N   0  0  0  0  0  0  0  0  0  0  0  0
   40.1040   28.4110   41.4300 H   0  0  0  0  0  0  0  0  0  0  0  0
   36.0160   27.0350   43.7710 H   0  0  0  0  0  0  0  0  0  0  0  0
   40.1460   25.8130   42.2020 C   0  0  0  0  0  0  0  0  0  0  0  0
   41.1180   25.5980   43.3380 C   0  0  0  0  0  0  0  0  0  0  0  0
   40.0890   24.5460   42.8870 C   0  0  0  0  0  0  0  0  0  0  0  0
   40.6910   26.0130   41.2480 H   0  0  0  0  0  0  0  0  0  0  0  0
   40.8380   26.0910   44.2920 H   0  0  0  0  0  0  0  0  0  0  0  0
   42.1790   25.3970   43.1400 H   0  0  0  0  0  0  0  0  0  0  0  0
   40.5710   23.6540   42.3930 H   0  0  0  0  0  0  0  0  0  0  0  0
   39.2380   24.3130   43.5240 H   0  0  0  0  0  0  0  0  0  0  0  0
   39.6980   32.8420   39.0740 O   0  0  0  0  0  0  0  0  0  0  0  0
   41.4850   32.1310   37.5950 C   0  0  1  0  0  3  0  0  0  0  0  0
   40.9380   32.2090   38.9840 C   0  0  2  0  0  3  0  0  0  0  0  0
   40.8660   30.9040   39.4740 O   0  0  0  0  0  0  0  0  0  0  0  0
   42.1660   30.4490   39.6540 C   0  0  0  0  0  2  0  0  0  0  0  0
   42.7000   30.0480   38.2940 C   0  0  1  0  0  3  0  0  0  0  0  0
   41.9220   30.7240   37.2100 C   0  0  1  0  0  3  0  0  0  0  0  0
   40.5190   32.5470   36.6670 O   0  0  0  0  0  0  0  0  0  0  0  0
   40.3750   33.4980   36.8530 H   0  0  0  0  0  0  0  0  0  0  0  0
   44.0720   30.2460   38.2160 O   0  0  0  0  0  0  0  0  0  0  0  0
   44.3250   30.9850   37.6310 H   0  0  0  0  0  0  0  0  0  0  0  0
   40.8030   29.9640   36.8530 O   0  0  0  0  0  0  0  0  0  0  0  0
   40.0030   30.4340   37.2170 H   0  0  0  0  0  0  0  0  0  0  0  0
  1  2  1  0  0  0  0
  1  7  1  1  0  0  0
  2  8  1  1  0  0  0
  2 17  1  0  0  0  0
  3  2  1  0  0  0  0
  4 10  1  0  0  0  0
  4  3  1  0  0  0  0
  5 11  1  6  0  0  0
  5  4  1  0  0  0  0
  5  6  1  0  0  0  0
  6 12  1  1  0  0  0
  6  1  1  0  0  0  0
  9  4  1  0  0  0  0
 13  1  1  0  0  0  0
 13 14  1  0  0  0  0
 15  5  1  0  0  0  0
 16 15  1  0  0  0  0
 17 18  1  0  0  0  0
 18 23  1  0  0  0  0
 19 18  2  0  0  0  0
 19 20  1  0  0  0  0
 20 21  2  0  0  0  0
 21 22  1  0  0  0  0
 22 25  1  0  0  0  0
 23 22  2  0  0  0  0
 24 19  1  0  0  0  0
 26 20  1  0  0  0  0
 26 28  1  0  0  0  0
 26 27  1  0  0  0  0
 27 30  1  0  0  0  0
 28 27  1  0  0  0  0
 28 33  1  0  0  0  0
 29 26  1  0  0  0  0
 31 27  1  0  0  0  0
 32 28  1  0  0  0  0
 34  6  1  0  0  0  0
 35 41  1  6  0  0  0
 35 36  1  0  0  0  0
 36 34  1  6  0  0  0
 36 37  1  0  0  0  0
 37 38  1  0  0  0  0
 39 43  1  1  0  0  0
 39 38  1  0  0  0  0
 40 45  1  1  0  0  0
 40 35  1  0  0  0  0
 40 39  1  0  0  0  0
 41 42  1  0  0  0  0
 44 43  1  0  0  0  0
 45 46  1  0  0  0  0
M  END
>  <minimizedAffinity>
-6.49409628

$$$$

 OpenBabel03242523533D

 46 49  0  0  1  0  0  0  0  0999 V2000
   37.1000   30.4150   41.2800 C   0  0  1  0  0  0  0  0  0  0  0  0
   36.8360   29.0440   40.6530 C   0  0  1  0  0  0  0  0  0  0  0  0
   36.8550   29.1710   39.2520 O   0  0  0  0  0  0  0  0  0  0  0  0
   36.3640   30.3950   38.8020 C   0  0  0  0  0  0  0  0  0  0  0  0
   37.2830   31.5390   39.1640 C   0  0  2  0  0  0  0  0  0  0  0  0
   38.1300   31.0720   40.3680 C   0  0  1  0  0  0  0  0  0  0  0  0
   37.5540   30.3060   42.2910 H   0  0  0  0  0  0  0  0  0  0  0  0
   35.8810   28.6370   40.9980 H   0  0  0  0  0  0  0  0  0  0  0  0
   36.2960   30.2820   37.7010 H   0  0  0  0  0  0  0  0  0  0  0  0
   35.3030   30.5690   39.1260 H   0  0  0  0  0  0  0  0  0  0  0  0
   37.9320   31.8610   38.3310 H   0  0  0  0  0  0  0  0  0  0  0  0
   38.8070   30.3070   39.9280 H   0  0  0  0  0  0  0  0  0  0  0  0
   35.9300   31.1700   41.3040 O   0  0  0  0  0  0  0  0  0  0  0  0
   35.2310   30.5580   41.7000 H   0  0  0  0  0  0  0  0  0  0  0  0
   36.5160   32.5940   39.6750 O   0  0  0  0  0  0  0  0  0  0  0  0
   37.1180   33.1960   40.1650 H   0  0  0  0  0  0  0  0  0  0  0  0
   37.9630   28.2660   40.9470 O   0  0  0  0  0  0  0  0  0  0  0  0
   37.9440   26.9710   41.2760 C   0  0  0  0  0  0  0  0  0  0  0  0
   37.0320   26.0930   40.6940 C   0  0  0  0  0  0  0  0  0  0  0  0
   37.0620   24.7590   41.0740 C   0  0  0  0  0  0  0  0  0  0  0  0
   37.9850   24.3330   42.0120 N   0  0  0  0  0  0  0  0  0  0  0  0
   38.8480   25.2130   42.5500 C   0  0  0  0  0  0  0  0  0  0  0  0
   38.8320   26.5190   42.1900 N   0  0  0  0  0  0  0  0  0  0  0  0
   36.3090   26.4280   39.9600 H   0  0  0  0  0  0  0  0  0  0  0  0
   39.5540   24.8370   43.2800 H   0  0  0  0  0  0  0  0  0  0  0  0
   36.0850   23.7760   40.4780 C   0  0  0  0  0  0  0  0  0  0  0  0
   35.6720   23.9970   39.0430 C   0  0  0  0  0  0  0  0  0  0  0  0
   36.5430   22.8160   39.5060 C   0  0  0  0  0  0  0  0  0  0  0  0
   35.1880   23.6600   41.1350 H   0  0  0  0  0  0  0  0  0  0  0  0
   36.2540   24.7740   38.5040 H   0  0  0  0  0  0  0  0  0  0  0  0
   34.6480   23.7820   38.7120 H   0  0  0  0  0  0  0  0  0  0  0  0
   36.0020   21.8280   39.4410 H   0  0  0  0  0  0  0  0  0  0  0  0
   37.5960   22.7800   39.2340 H   0  0  0  0  0  0  0  0  0  0  0  0
   38.7790   32.1370   40.9460 O   0  0  0  0  0  0  0  0  0  0  0  0
   40.4490   33.3860   39.7070 C   0  0  1  0  0  3  0  0  0  0  0  0
   40.0920   32.1550   40.4760 C   0  0  2  0  0  3  0  0  0  0  0  0
   40.3370   31.0620   39.6430 O   0  0  0  0  0  0  0  0  0  0  0  0
   41.7120   30.9600   39.4730 C   0  0  0  0  0  2  0  0  0  0  0  0
   42.1210   31.9980   38.4490 C   0  0  1  0  0  3  0  0  0  0  0  0
   41.0880   33.0770   38.3600 C   0  0  1  0  0  3  0  0  0  0  0  0
   39.3060   34.1610   39.4680 O   0  0  0  0  0  0  0  0  0  0  0  0
   39.0100   34.4650   40.3530 H   0  0  0  0  0  0  0  0  0  0  0  0
   43.4070   32.4620   38.6910 O   0  0  0  0  0  0  0  0  0  0  0  0
   43.4330   33.3830   39.0140 H   0  0  0  0  0  0  0  0  0  0  0  0
   40.0950   32.7390   37.4330 O   0  0  0  0  0  0  0  0  0  0  0  0
   39.2790   32.5060   37.9540 H   0  0  0  0  0  0  0  0  0  0  0  0
  1 13  1  0  0  0  0
  1  7  1  1  0  0  0
  2 17  1  0  0  0  0
  2  8  1  1  0  0  0
  2  1  1  0  0  0  0
  3  2  1  0  0  0  0
  4 10  1  0  0  0  0
  4  5  1  0  0  0  0
  4  3  1  0  0  0  0
  5 11  1  6  0  0  0
  5 15  1  0  0  0  0
  5  6  1  0  0  0  0
  6 12  1  6  0  0  0
  6 34  1  0  0  0  0
  6  1  1  0  0  0  0
  9  4  1  0  0  0  0
 13 14  1  0  0  0  0
 15 16  1  0  0  0  0
 17 18  1  0  0  0  0
 18 23  1  0  0  0  0
 19 20  1  0  0  0  0
 19 18  2  0  0  0  0
 20 21  2  0  0  0  0
 21 22  1  0  0  0  0
 22 25  1  0  0  0  0
 23 22  2  0  0  0  0
 24 19  1  0  0  0  0
 26 20  1  0  0  0  0
 26 29  1  0  0  0  0
 27 28  1  0  0  0  0
 27 26  1  0  0  0  0
 28 26  1  0  0  0  0
 30 27  1  0  0  0  0
 31 27  1  0  0  0  0
 32 28  1  0  0  0  0
 33 28  1  0  0  0  0
 35 41  1  6  0  0  0
 35 36  1  0  0  0  0
 36 34  1  6  0  0  0
 37 36  1  0  0  0  0
 38 37  1  0  0  0  0
 39 43  1  1  0  0  0
 39 38  1  0  0  0  0
 40 45  1  6  0  0  0
 40 39  1  0  0  0  0
 40 35  1  0  0  0  0
 41 42  1  0  0  0  0
 43 44  1  0  0  0  0
 45 46  1  0  0  0  0
M  END
>  <minimizedAffinity>
-6.47291088

$$$$

 OpenBabel03242523533D

 46 49  0  0  1  0  0  0  0  0999 V2000
   37.7290   29.3600   41.7820 C   0  0  1  0  0  0  0  0  0  0  0  0
   37.4060   27.8850   41.5330 C   0  0  1  0  0  0  0  0  0  0  0  0
   36.3510   27.7980   40.6060 O   0  0  0  0  0  0  0  0  0  0  0  0
   35.4310   28.8400   40.7180 C   0  0  0  0  0  0  0  0  0  0  0  0
   36.0240   30.1630   40.2920 C   0  0  2  0  0  0  0  0  0  0  0  0
   37.5560   30.0340   40.4250 C   0  0  1  0  0  0  0  0  0  0  0  0
   38.7900   29.4840   42.0970 H   0  0  0  0  0  0  0  0  0  0  0  0
   37.1490   27.3810   42.4700 H   0  0  0  0  0  0  0  0  0  0  0  0
   34.5970   28.5500   40.0470 H   0  0  0  0  0  0  0  0  0  0  0  0
   34.9610   28.8800   41.7370 H   0  0  0  0  0  0  0  0  0  0  0  0
   35.7440   30.4590   39.2660 H   0  0  0  0  0  0  0  0  0  0  0  0
   37.8300   29.3360   39.6040 H   0  0  0  0  0  0  0  0  0  0  0  0
   36.8370   29.9030   42.7040 O   0  0  0  0  0  0  0  0  0  0  0  0
   36.8260   29.2500   43.4740 H   0  0  0  0  0  0  0  0  0  0  0  0
   35.6800   31.1400   41.2360 O   0  0  0  0  0  0  0  0  0  0  0  0
   36.2880   31.9020   41.1180 H   0  0  0  0  0  0  0  0  0  0  0  0
   38.5110   27.3610   40.8520 O   0  0  0  0  0  0  0  0  0  0  0  0
   39.4620   26.5940   41.3930 C   0  0  0  0  0  0  0  0  0  0  0  0
   40.6810   26.3940   40.7490 C   0  0  0  0  0  0  0  0  0  0  0  0
   41.6290   25.5880   41.3620 C   0  0  0  0  0  0  0  0  0  0  0  0
   41.3490   25.0050   42.5840 N   0  0  0  0  0  0  0  0  0  0  0  0
   40.1590   25.2220   43.1710 C   0  0  0  0  0  0  0  0  0  0  0  0
   39.2220   26.0070   42.5880 N   0  0  0  0  0  0  0  0  0  0  0  0
   40.9000   26.8520   39.7920 H   0  0  0  0  0  0  0  0  0  0  0  0
   39.9810   24.7460   44.1290 H   0  0  0  0  0  0  0  0  0  0  0  0
   42.9590   25.3370   40.6940 C   0  0  0  0  0  0  0  0  0  0  0  0
   42.9420   24.5960   39.3790 C   0  0  0  0  0  0  0  0  0  0  0  0
   43.3160   26.0830   39.5140 C   0  0  0  0  0  0  0  0  0  0  0  0
   43.6770   24.8620   41.4060 H   0  0  0  0  0  0  0  0  0  0  0  0
   41.9320   24.4460   38.9410 H   0  0  0  0  0  0  0  0  0  0  0  0
   43.7380   23.8860   39.1220 H   0  0  0  0  0  0  0  0  0  0  0  0
   44.4110   26.2720   39.3180 H   0  0  0  0  0  0  0  0  0  0  0  0
   42.6440   26.8480   39.1320 H   0  0  0  0  0  0  0  0  0  0  0  0
   38.1560   31.2690   40.3430 O   0  0  0  0  0  0  0  0  0  0  0  0
   39.9680   32.3630   39.1570 C   0  0  1  0  0  3  0  0  0  0  0  0
   39.4050   31.1080   39.7410 C   0  0  2  0  0  3  0  0  0  0  0  0
   39.3430   30.1650   38.7130 O   0  0  0  0  0  0  0  0  0  0  0  0
   40.6460   29.8200   38.3800 C   0  0  0  0  0  2  0  0  0  0  0  0
   41.2010   30.9270   37.5070 C   0  0  1  0  0  3  0  0  0  0  0  0
   40.4270   32.1900   37.7150 C   0  0  1  0  0  3  0  0  0  0  0  0
   39.0090   33.3850   39.1800 O   0  0  0  0  0  0  0  0  0  0  0  0
   38.8510   33.5700   40.1290 H   0  0  0  0  0  0  0  0  0  0  0  0
   42.5710   31.0650   37.6820 O   0  0  0  0  0  0  0  0  0  0  0  0
   42.8210   31.8830   38.1510 H   0  0  0  0  0  0  0  0  0  0  0  0
   39.3210   32.2430   36.8590 O   0  0  0  0  0  0  0  0  0  0  0  0
   38.5110   32.0860   37.4190 H   0  0  0  0  0  0  0  0  0  0  0  0
  1  7  1  1  0  0  0
  1 13  1  0  0  0  0
  2  1  1  0  0  0  0
  2  8  1  1  0  0  0
  3  4  1  0  0  0  0
  3  2  1  0  0  0  0
  4 10  1  0  0  0  0
  5 11  1  6  0  0  0
  5  6  1  0  0  0  0
  5  4  1  0  0  0  0
  5 15  1  0  0  0  0
  6 12  1  6  0  0  0
  6  1  1  0  0  0  0
  9  4  1  0  0  0  0
 13 14  1  0  0  0  0
 16 15  1  0  0  0  0
 17 18  1  0  0  0  0
 17  2  1  0  0  0  0
 18 23  1  0  0  0  0
 19 20  1  0  0  0  0
 19 18  2  0  0  0  0
 20 21  2  0  0  0  0
 21 22  1  0  0  0  0
 22 25  1  0  0  0  0
 23 22  2  0  0  0  0
 24 19  1  0  0  0  0
 26 20  1  0  0  0  0
 26 29  1  0  0  0  0
 27 28  1  0  0  0  0
 27 26  1  0  0  0  0
 28 26  1  0  0  0  0
 30 27  1  0  0  0  0
 31 27  1  0  0  0  0
 32 28  1  0  0  0  0
 33 28  1  0  0  0  0
 34  6  1  0  0  0  0
 35 41  1  6  0  0  0
 35 36  1  0  0  0  0
 36 34  1  6  0  0  0
 37 36  1  0  0  0  0
 38 37  1  0  0  0  0
 39 43  1  1  0  0  0
 39 40  1  0  0  0  0
 39 38  1  0  0  0  0
 40 45  1  6  0  0  0
 40 35  1  0  0  0  0
 41 42  1  0  0  0  0
 43 44  1  0  0  0  0
 45 46  1  0  0  0  0
M  END
>  <minimizedAffinity>
-6.42873383

$$$$

 OpenBabel03242523533D

 46 49  0  0  1  0  0  0  0  0999 V2000
   37.8530   32.2330   40.5210 C   0  0  1  0  0  0  0  0  0  0  0  0
   37.1150   30.9970   41.0440 C   0  0  1  0  0  0  0  0  0  0  0  0
   36.8290   30.1440   39.9620 O   0  0  0  0  0  0  0  0  0  0  0  0
   36.5640   30.8270   38.7760 C   0  0  0  0  0  0  0  0  0  0  0  0
   37.7970   31.5090   38.2310 C   0  0  2  0  0  0  0  0  0  0  0  0
   38.7640   31.7080   39.4170 C   0  0  1  0  0  0  0  0  0  0  0  0
   38.4940   32.6760   41.3170 H   0  0  0  0  0  0  0  0  0  0  0  0
   36.2000   31.2860   41.5700 H   0  0  0  0  0  0  0  0  0  0  0  0
   36.2080   30.0430   38.0760 H   0  0  0  0  0  0  0  0  0  0  0  0
   35.6880   31.5220   38.8760 H   0  0  0  0  0  0  0  0  0  0  0  0
   38.2870   30.9460   37.4170 H   0  0  0  0  0  0  0  0  0  0  0  0
   39.1050   30.6750   39.6500 H   0  0  0  0  0  0  0  0  0  0  0  0
   36.9470   33.1520   39.9980 O   0  0  0  0  0  0  0  0  0  0  0  0
   36.2340   33.2510   40.7060 H   0  0  0  0  0  0  0  0  0  0  0  0
   37.4600   32.8130   37.8430 O   0  0  0  0  0  0  0  0  0  0  0  0
   38.2920   33.3300   37.7680 H   0  0  0  0  0  0  0  0  0  0  0  0
   38.0500   30.2890   41.8080 O   0  0  0  0  0  0  0  0  0  0  0  0
   37.9220   29.0200   42.2070 C   0  0  0  0  0  0  0  0  0  0  0  0
   38.9130   28.0780   41.9410 C   0  0  0  0  0  0  0  0  0  0  0  0
   38.7240   26.7760   42.3820 C   0  0  0  0  0  0  0  0  0  0  0  0
   37.5690   26.4430   43.0660 N   0  0  0  0  0  0  0  0  0  0  0  0
   36.6370   27.3830   43.3010 C   0  0  0  0  0  0  0  0  0  0  0  0
   36.8050   28.6590   42.8790 N   0  0  0  0  0  0  0  0  0  0  0  0
   39.8170   28.3390   41.4050 H   0  0  0  0  0  0  0  0  0  0  0  0
   35.7480   27.0800   43.8410 H   0  0  0  0  0  0  0  0  0  0  0  0
   39.7660   25.7210   42.1060 C   0  0  0  0  0  0  0  0  0  0  0  0
   40.6750   25.3310   43.2470 C   0  0  0  0  0  0  0  0  0  0  0  0
   39.6040   24.3980   42.6540 C   0  0  0  0  0  0  0  0  0  0  0  0
   40.3620   25.9800   41.1970 H   0  0  0  0  0  0  0  0  0  0  0  0
   40.3830   25.7440   44.2360 H   0  0  0  0  0  0  0  0  0  0  0  0
   41.7290   25.0840   43.0690 H   0  0  0  0  0  0  0  0  0  0  0  0
   40.0530   23.5310   42.0890 H   0  0  0  0  0  0  0  0  0  0  0  0
   38.7150   24.1560   43.2330 H   0  0  0  0  0  0  0  0  0  0  0  0
   39.7760   32.5750   39.0780 O   0  0  0  0  0  0  0  0  0  0  0  0
   41.6540   33.7920   40.0160 C   0  0  1  0  0  3  0  0  0  0  0  0
   40.5700   32.7810   40.2070 C   0  0  2  0  0  3  0  0  0  0  0  0
   41.1800   31.5920   40.6100 O   0  0  0  0  0  0  0  0  0  0  0  0
   41.6810   31.7880   41.8910 C   0  0  0  0  0  2  0  0  0  0  0  0
   42.9770   32.5600   41.7580 C   0  0  1  0  0  3  0  0  0  0  0  0
   43.0220   33.2810   40.4480 C   0  0  1  0  0  3  0  0  0  0  0  0
   41.7440   34.1610   38.6660 O   0  0  0  0  0  0  0  0  0  0  0  0
   40.9010   34.6210   38.4680 H   0  0  0  0  0  0  0  0  0  0  0  0
   43.1900   33.3750   42.8620 O   0  0  0  0  0  0  0  0  0  0  0  0
   43.0940   34.3260   42.6660 H   0  0  0  0  0  0  0  0  0  0  0  0
   43.5560   32.4610   39.4470 O   0  0  0  0  0  0  0  0  0  0  0  0
   42.8000   32.1910   38.8570 H   0  0  0  0  0  0  0  0  0  0  0  0
  1  2  1  0  0  0  0
  1  7  1  1  0  0  0
  2  8  1  1  0  0  0
  2 17  1  0  0  0  0
  3  2  1  0  0  0  0
  4 10  1  0  0  0  0
  4  3  1  0  0  0  0
  5 11  1  6  0  0  0
  5  4  1  0  0  0  0
  5  6  1  0  0  0  0
  6 12  1  1  0  0  0
  6  1  1  0  0  0  0
  9  4  1  0  0  0  0
 13  1  1  0  0  0  0
 13 14  1  0  0  0  0
 15  5  1  0  0  0  0
 16 15  1  0  0  0  0
 17 18  1  0  0  0  0
 18 23  1  0  0  0  0
 19 18  2  0  0  0  0
 19 20  1  0  0  0  0
 20 21  2  0  0  0  0
 21 22  1  0  0  0  0
 22 25  1  0  0  0  0
 23 22  2  0  0  0  0
 24 19  1  0  0  0  0
 26 20  1  0  0  0  0
 26 28  1  0  0  0  0
 26 27  1  0  0  0  0
 27 30  1  0  0  0  0
 28 33  1  0  0  0  0
 28 27  1  0  0  0  0
 29 26  1  0  0  0  0
 31 27  1  0  0  0  0
 32 28  1  0  0  0  0
 34  6  1  0  0  0  0
 35 41  1  6  0  0  0
 35 36  1  0  0  0  0
 35 40  1  0  0  0  0
 36 34  1  6  0  0  0
 36 37  1  0  0  0  0
 37 38  1  0  0  0  0
 39 38  1  0  0  0  0
 39 43  1  1  0  0  0
 40 45  1  6  0  0  0
 40 39  1  0  0  0  0
 42 41  1  0  0  0  0
 44 43  1  0  0  0  0
 46 45  1  0  0  0  0
M  END
>  <minimizedAffinity>
-6.32369089

$$$$

 OpenBabel03242523533D

 46 49  0  0  1  0  0  0  0  0999 V2000
   36.0830   28.3720   38.2060 C   0  0  1  0  0  0  0  0  0  0  0  0
   36.4800   26.9560   38.6320 C   0  0  1  0  0  0  0  0  0  0  0  0
   37.8480   26.7650   38.3650 O   0  0  0  0  0  0  0  0  0  0  0  0
   38.2880   27.4420   37.2290 C   0  0  0  0  0  0  0  0  0  0  0  0
   38.2830   28.9400   37.4280 C   0  0  2  0  0  0  0  0  0  0  0  0
   37.2830   29.2410   38.5640 C   0  0  1  0  0  0  0  0  0  0  0  0
   35.2080   28.7300   38.7950 H   0  0  0  0  0  0  0  0  0  0  0  0
   35.8700   26.2100   38.1130 H   0  0  0  0  0  0  0  0  0  0  0  0
   39.3200   27.0720   37.0650 H   0  0  0  0  0  0  0  0  0  0  0  0
   37.7330   27.1230   36.3060 H   0  0  0  0  0  0  0  0  0  0  0  0
   39.2790   29.3550   37.6640 H   0  0  0  0  0  0  0  0  0  0  0  0
   37.7940   28.8470   39.4700 H   0  0  0  0  0  0  0  0  0  0  0  0
   35.8510   28.4180   36.8330 O   0  0  0  0  0  0  0  0  0  0  0  0
   35.2340   27.6400   36.6450 H   0  0  0  0  0  0  0  0  0  0  0  0
   37.7120   29.5460   36.3010 O   0  0  0  0  0  0  0  0  0  0  0  0
   37.4500   30.4600   36.5490 H   0  0  0  0  0  0  0  0  0  0  0  0
   36.3920   26.9390   40.0290 O   0  0  0  0  0  0  0  0  0  0  0  0
   37.0720   26.1210   40.8370 C   0  0  0  0  0  0  0  0  0  0  0  0
   37.9340   26.6220   41.8100 C   0  0  0  0  0  0  0  0  0  0  0  0
   38.6120   25.7230   42.6210 C   0  0  0  0  0  0  0  0  0  0  0  0
   38.4220   24.3640   42.4480 N   0  0  0  0  0  0  0  0  0  0  0  0
   37.5810   23.9220   41.4960 C   0  0  0  0  0  0  0  0  0  0  0  0
   36.9110   24.7850   40.6970 N   0  0  0  0  0  0  0  0  0  0  0  0
   38.0820   27.6860   41.9450 H   0  0  0  0  0  0  0  0  0  0  0  0
   37.4610   22.8490   41.3960 H   0  0  0  0  0  0  0  0  0  0  0  0
   39.5640   26.2220   43.6800 C   0  0  0  0  0  0  0  0  0  0  0  0
   41.0400   26.0260   43.4300 C   0  0  0  0  0  0  0  0  0  0  0  0
   40.3520   27.4020   43.4300 C   0  0  0  0  0  0  0  0  0  0  0  0
   39.2780   25.8310   44.6860 H   0  0  0  0  0  0  0  0  0  0  0  0
   41.2980   25.6750   42.4080 H   0  0  0  0  0  0  0  0  0  0  0  0
   41.7250   25.7920   44.2550 H   0  0  0  0  0  0  0  0  0  0  0  0
   40.6530   28.0350   44.3140 H   0  0  0  0  0  0  0  0  0  0  0  0
   40.2300   27.9480   42.4970 H   0  0  0  0  0  0  0  0  0  0  0  0
   36.9950   30.5850   38.6150 O   0  0  0  0  0  0  0  0  0  0  0  0
   37.7000   31.9020   40.5270 C   0  0  1  0  0  3  0  0  0  0  0  0
   38.0610   31.2350   39.2380 C   0  0  2  0  0  3  0  0  0  0  0  0
   38.6030   32.2140   38.4040 O   0  0  0  0  0  0  0  0  0  0  0  0
   39.8280   32.5910   38.9370 C   0  0  0  0  0  2  0  0  0  0  0  0
   39.5520   33.5380   40.0870 C   0  0  1  0  0  3  0  0  0  0  0  0
   38.1550   33.3530   40.5890 C   0  0  1  0  0  3  0  0  0  0  0  0
   36.3100   31.8820   40.7140 O   0  0  0  0  0  0  0  0  0  0  0  0
   36.0770   30.9350   40.8190 H   0  0  0  0  0  0  0  0  0  0  0  0
   40.5280   33.4330   41.0690 O   0  0  0  0  0  0  0  0  0  0  0  0
   40.2070   33.0140   41.8900 H   0  0  0  0  0  0  0  0  0  0  0  0
   37.2600   34.1590   39.8770 O   0  0  0  0  0  0  0  0  0  0  0  0
   36.7350   33.5560   39.2820 H   0  0  0  0  0  0  0  0  0  0  0  0
  1  6  1  0  0  0  0
  1  2  1  0  0  0  0
  1  7  1  1  0  0  0
  2  8  1  6  0  0  0
  2 17  1  0  0  0  0
  3  2  1  0  0  0  0
  4  5  1  0  0  0  0
  4  3  1  0  0  0  0
  5 11  1  1  0  0  0
  5  6  1  0  0  0  0
  6 34  1  0  0  0  0
  6 12  1  1  0  0  0
  9  4  1  0  0  0  0
 10  4  1  0  0  0  0
 13  1  1  0  0  0  0
 14 13  1  0  0  0  0
 15 16  1  0  0  0  0
 15  5  1  0  0  0  0
 17 18  1  0  0  0  0
 18 19  1  0  0  0  0
 19 24  1  0  0  0  0
 19 20  2  0  0  0  0
 20 26  1  0  0  0  0
 21 20  1  0  0  0  0
 22 21  2  0  0  0  0
 23 18  2  0  0  0  0
 23 22  1  0  0  0  0
 25 22  1  0  0  0  0
 26 29  1  0  0  0  0
 27 26  1  0  0  0  0
 27 31  1  0  0  0  0
 28 27  1  0  0  0  0
 28 26  1  0  0  0  0
 28 32  1  0  0  0  0
 30 27  1  0  0  0  0
 33 28  1  0  0  0  0
 35 40  1  0  0  0  0
 35 41  1  6  0  0  0
 36 34  1  6  0  0  0
 36 35  1  0  0  0  0
 37 38  1  0  0  0  0
 37 36  1  0  0  0  0
 38 39  1  0  0  0  0
 39 40  1  0  0  0  0
 39 43  1  1  0  0  0
 40 45  1  6  0  0  0
 41 42  1  0  0  0  0
 43 44  1  0  0  0  0
 46 45  1  0  0  0  0
M  END
>  <minimizedAffinity>
-6.25359726

$$$$

 OpenBabel03242523533D

 46 49  0  0  1  0  0  0  0  0999 V2000
   37.6680   29.3390   42.1300 C   0  0  1  0  0  0  0  0  0  0  0  0
   37.4360   27.8600   41.8090 C   0  0  1  0  0  0  0  0  0  0  0  0
   36.5030   27.7600   40.7610 O   0  0  0  0  0  0  0  0  0  0  0  0
   35.5350   28.7620   40.7880 C   0  0  0  0  0  0  0  0  0  0  0  0
   36.1200   30.1190   40.4670 C   0  0  2  0  0  0  0  0  0  0  0  0
   37.6300   30.0440   40.7790 C   0  0  1  0  0  0  0  0  0  0  0  0
   38.6790   29.4930   42.5720 H   0  0  0  0  0  0  0  0  0  0  0  0
   37.0910   27.3200   42.6970 H   0  0  0  0  0  0  0  0  0  0  0  0
   34.7990   28.4610   40.0150 H   0  0  0  0  0  0  0  0  0  0  0  0
   34.9470   28.7560   41.7430 H   0  0  0  0  0  0  0  0  0  0  0  0
   35.9520   30.4330   39.4220 H   0  0  0  0  0  0  0  0  0  0  0  0
   38.0270   29.3800   39.9800 H   0  0  0  0  0  0  0  0  0  0  0  0
   36.6520   29.8210   42.9510 O   0  0  0  0  0  0  0  0  0  0  0  0
   36.5760   29.1470   43.6990 H   0  0  0  0  0  0  0  0  0  0  0  0
   35.6270   31.0540   41.3860 O   0  0  0  0  0  0  0  0  0  0  0  0
   36.2140   31.8420   41.3590 H   0  0  0  0  0  0  0  0  0  0  0  0
   38.6350   27.3980   41.2520 O   0  0  0  0  0  0  0  0  0  0  0  0
   39.6180   26.7930   41.9250 C   0  0  0  0  0  0  0  0  0  0  0  0
   40.7010   27.5140   42.4230 C   0  0  0  0  0  0  0  0  0  0  0  0
   41.6900   26.8300   43.1150 C   0  0  0  0  0  0  0  0  0  0  0  0
   41.5840   25.4630   43.2950 N   0  0  0  0  0  0  0  0  0  0  0  0
   40.5220   24.8040   42.7970 C   0  0  0  0  0  0  0  0  0  0  0  0
   39.5470   25.4560   42.1190 N   0  0  0  0  0  0  0  0  0  0  0  0
   40.7840   28.5850   42.2820 H   0  0  0  0  0  0  0  0  0  0  0  0
   40.4780   23.7340   42.9610 H   0  0  0  0  0  0  0  0  0  0  0  0
   42.8860   27.5710   43.6620 C   0  0  0  0  0  0  0  0  0  0  0  0
   43.7820   28.2670   42.6650 C   0  0  0  0  0  0  0  0  0  0  0  0
   42.8880   29.0120   43.6730 C   0  0  0  0  0  0  0  0  0  0  0  0
   43.4840   26.9140   44.3390 H   0  0  0  0  0  0  0  0  0  0  0  0
   43.3850   28.3060   41.6290 H   0  0  0  0  0  0  0  0  0  0  0  0
   44.8680   28.3050   42.8150 H   0  0  0  0  0  0  0  0  0  0  0  0
   43.4840   29.5350   44.4750 H   0  0  0  0  0  0  0  0  0  0  0  0
   42.0150   29.5580   43.3220 H   0  0  0  0  0  0  0  0  0  0  0  0
   38.1840   31.3020   40.7970 O   0  0  0  0  0  0  0  0  0  0  0  0
   40.4070   32.2260   40.4910 C   0  0  1  0  0  3  0  0  0  0  0  0
   39.3490   31.2760   40.0290 C   0  0  2  0  0  3  0  0  0  0  0  0
   39.0720   31.5840   38.6960 O   0  0  0  0  0  0  0  0  0  0  0  0
   40.1850   31.2330   37.9430 C   0  0  0  0  0  2  0  0  0  0  0  0
   41.2160   32.3290   38.1170 C   0  0  1  0  0  3  0  0  0  0  0  0
   40.9460   33.1020   39.3690 C   0  0  1  0  0  3  0  0  0  0  0  0
   39.9010   33.0720   41.4880 O   0  0  0  0  0  0  0  0  0  0  0  0
   39.7040   32.4870   42.2490 H   0  0  0  0  0  0  0  0  0  0  0  0
   42.5050   31.8230   38.0280 O   0  0  0  0  0  0  0  0  0  0  0  0
   42.9800   31.8200   38.8810 H   0  0  0  0  0  0  0  0  0  0  0  0
   40.0560   34.1540   39.1230 O   0  0  0  0  0  0  0  0  0  0  0  0
   39.1830   33.8970   39.5290 H   0  0  0  0  0  0  0  0  0  0  0  0
  1  7  1  1  0  0  0
  1 13  1  0  0  0  0
  2  1  1  0  0  0  0
  2  8  1  1  0  0  0
  3  4  1  0  0  0  0
  3  2  1  0  0  0  0
  4 10  1  0  0  0  0
  5 11  1  6  0  0  0
  5  6  1  0  0  0  0
  5  4  1  0  0  0  0
  5 15  1  0  0  0  0
  6 12  1  6  0  0  0
  6 34  1  0  0  0  0
  6  1  1  0  0  0  0
  9  4  1  0  0  0  0
 13 14  1  0  0  0  0
 16 15  1  0  0  0  0
 17  2  1  0  0  0  0
 17 18  1  0  0  0  0
 18 23  2  0  0  0  0
 18 19  1  0  0  0  0
 19 20  2  0  0  0  0
 20 21  1  0  0  0  0
 20 26  1  0  0  0  0
 22 25  1  0  0  0  0
 22 21  2  0  0  0  0
 23 22  1  0  0  0  0
 24 19  1  0  0  0  0
 26 28  1  0  0  0  0
 26 29  1  0  0  0  0
 27 31  1  0  0  0  0
 27 26  1  0  0  0  0
 27 28  1  0  0  0  0
 28 32  1  0  0  0  0
 30 27  1  0  0  0  0
 33 28  1  0  0  0  0
 35 41  1  1  0  0  0
 36 35  1  0  0  0  0
 36 34  1  1  0  0  0
 37 36  1  0  0  0  0
 38 39  1  0  0  0  0
 38 37  1  0  0  0  0
 39 43  1  1  0  0  0
 39 40  1  0  0  0  0
 40 45  1  6  0  0  0
 40 35  1  0  0  0  0
 41 42  1  0  0  0  0
 43 44  1  0  0  0  0
 45 46  1  0  0  0  0
M  END
>  <minimizedAffinity>
-6.24069166

$$$$
