
     RDKit          3D

 28 29  0  0  0  0  0  0  0  0999 V2000
   44.5179   36.0423   44.5413 C   0  0  0  0  0  0  0  0  0  0  0  0
   45.1765   36.0571   43.3099 C   0  0  0  0  0  0  0  0  0  0  0  0
   46.0801   35.0382   43.0144 C   0  0  0  0  0  0  0  0  0  0  0  0
   46.2768   34.0645   43.9586 N   0  0  0  0  0  0  0  0  0  0  0  0
   45.6274   34.0760   45.1377 C   0  0  0  0  0  0  0  0  0  0  0  0
   44.7467   35.0674   45.4280 N   0  0  0  0  0  0  0  0  0  0  0  0
   46.8016   34.9295   41.8330 O   0  0  0  0  0  0  0  0  0  0  0  0
   43.8223   36.8339   44.7592 H   0  0  0  0  0  0  0  0  0  0  0  0
   45.0331   36.8208   42.5494 H   0  0  0  0  0  0  0  0  0  0  0  0
   45.8932   33.2328   45.7797 H   0  0  0  0  0  0  0  0  0  0  0  0
   49.1488   34.6086   39.8576 O   0  0  0  0  0  0  0  0  0  0  0  0
   49.0622   34.3511   41.2280 C   0  0  1  0  0  0  0  0  0  0  0  0
   47.7076   33.8634   41.5963 C   0  0  1  0  0  0  0  0  0  0  0  0
   47.5922   32.9660   42.6011 O   0  0  0  0  0  0  0  0  0  0  0  0
   48.7454   32.5446   43.2167 C   0  0  0  0  0  0  0  0  0  0  0  0
   49.6723   32.1172   42.0899 C   0  0  2  0  0  0  0  0  0  0  0  0
   50.6586   31.2885   42.5434 O   0  0  0  0  0  0  0  0  0  0  0  0
   50.2009   33.4426   41.5709 C   0  0  1  0  0  0  0  0  0  0  0  0
   51.0055   33.1326   40.4686 O   0  0  0  0  0  0  0  0  0  0  0  0
   49.9140   35.1387   39.5839 H   0  0  0  0  0  0  0  0  0  0  0  0
   49.2387   35.3193   41.7424 H   0  0  0  0  0  0  0  0  0  0  0  0
   47.2851   33.3644   40.6752 H   0  0  0  0  0  0  0  0  0  0  0  0
   48.5118   31.7062   43.8854 H   0  0  0  0  0  0  0  0  0  0  0  0
   49.2081   33.3849   43.7992 H   0  0  0  0  0  0  0  0  0  0  0  0
   49.0768   31.6885   41.2421 H   0  0  0  0  0  0  0  0  0  0  0  0
   51.5248   31.5397   42.1438 H   0  0  0  0  0  0  0  0  0  0  0  0
   50.8832   33.8840   42.3332 H   0  0  0  0  0  0  0  0  0  0  0  0
   51.9006   33.5796   40.5238 H   0  0  0  0  0  0  0  0  0  0  0  0
  1  6  2  0
  2  1  1  0
  3  2  2  0
  3  4  1  0
  4  5  2  0
  5  6  1  0
  7  3  1  0
  1  8  1  0
  2  9  1  0
  5 10  1  0
 11 12  1  0
 12 13  1  0
 13 14  1  0
 14 15  1  0
 15 16  1  0
 16 17  1  0
 16 18  1  0
 18 19  1  0
 18 12  1  0
 11 20  1  0
 12 21  1  1
 13 22  1  6
 15 23  1  0
 15 24  1  0
 16 25  1  6
 17 26  1  0
 18 27  1  1
 19 28  1  0
  7 13  1  0
M  ISO  3   8  14   9  14  10  14
M  END
>  <DihAtoms>  (1) 
2,6,12,11

>  <DihDeg>  (1) 
114.2406486629493

$$$$
