
 OpenBabel03252507103D

 39 41  0  0  1  0  0  0  0  0999 V2000
   38.1980   27.9020   43.5900 C   0  0  0  0  0  0  0  0  0  0  0  0
   37.6630   29.1290   43.1640 C   0  0  0  0  0  0  0  0  0  0  0  0
   37.0840   29.1630   41.9080 C   0  0  0  0  0  0  0  0  0  0  0  0
   37.0560   28.0410   41.1600 N   0  0  0  0  0  0  0  0  0  0  0  0
   37.5700   26.8810   41.5810 C   0  0  0  0  0  0  0  0  0  0  0  0
   38.1470   26.8100   42.8080 N   0  0  0  0  0  0  0  0  0  0  0  0
   38.6500   27.8800   44.5750 H   0  0  0  0  0  0  0  0  0  0  0  0
   37.7190   29.9780   43.8110 H   0  0  0  0  0  0  0  0  0  0  0  0
   37.0670   24.4220   41.5350 C   0  0  1  0  0  0  0  0  0  0  0  0
   37.5820   25.6270   40.8080 C   0  0  1  0  0  0  0  0  0  0  0  0
   36.5370   25.6960   39.6810 C   0  0  0  0  0  0  0  0  0  0  0  0
   36.0870   24.4320   39.4610 O   0  0  0  0  0  0  0  0  0  0  0  0
   36.7280   23.5520   40.3300 C   0  0  0  0  0  0  0  0  0  0  0  0
   36.0940   24.6980   42.0380 H   0  0  0  0  0  0  0  0  0  0  0  0
   38.5820   25.4250   40.3740 H   0  0  0  0  0  0  0  0  0  0  0  0
   35.7740   26.4660   39.8580 H   0  0  0  0  0  0  0  0  0  0  0  0
   37.1060   26.0280   38.7800 H   0  0  0  0  0  0  0  0  0  0  0  0
   37.6520   23.1110   39.9320 H   0  0  0  0  0  0  0  0  0  0  0  0
   35.9570   22.7870   40.6200 H   0  0  0  0  0  0  0  0  0  0  0  0
   37.9490   23.8650   42.4130 O   0  0  0  0  0  0  0  0  0  0  0  0
   37.7860   24.2470   43.3120 H   0  0  0  0  0  0  0  0  0  0  0  0
   36.5560   30.3780   41.4940 O   0  0  0  0  0  0  0  0  0  0  0  0
   37.1230   30.6900   38.9170 O   0  0  0  0  0  0  0  0  0  0  0  0
   37.3590   31.3000   40.2870 P   0  0  1  0  0  0  0  0  0  0  0  0
   36.7830   32.8680   40.3730 O   0  0  0  0  0  0  0  0  0  0  0  0
   35.7970   32.8080   40.5590 H   0  0  0  0  0  0  0  0  0  0  0  0
   39.0120   31.2170   40.6560 O   0  0  0  0  0  0  0  0  0  0  0  0
   40.2170   32.4320   38.9750 C   0  0  2  0  0  3  0  0  0  0  0  0
   39.6940   31.1060   39.4240 C   0  0  1  0  0  3  0  0  0  0  0  0
   40.6370   30.1100   39.4600 O   0  0  0  0  0  0  0  0  0  0  0  0
   41.7340   30.3520   38.6550 C   0  0  0  0  0  2  0  0  0  0  0  0
   41.3670   31.0270   37.3490 C   0  0  1  0  0  3  0  0  0  0  0  0
   40.6410   32.3300   37.5370 C   0  0  1  0  0  3  0  0  0  0  0  0
   41.2020   32.9600   39.7920 O   0  0  0  0  0  0  0  0  0  0  0  0
   41.3270   32.4710   40.6300 H   0  0  0  0  0  0  0  0  0  0  0  0
   42.5110   31.2010   36.5990 O   0  0  0  0  0  0  0  0  0  0  0  0
   43.3150   30.9750   37.1280 H   0  0  0  0  0  0  0  0  0  0  0  0
   39.4590   32.3070   36.7640 O   0  0  0  0  0  0  0  0  0  0  0  0
   39.7070   32.2490   35.7970 H   0  0  0  0  0  0  0  0  0  0  0  0
  1  7  1  0  0  0  0
  2  1  1  0  0  0  0
  2  8  1  0  0  0  0
  3  2  2  0  0  0  0
  4  5  2  0  0  0  0
  4  3  1  0  0  0  0
  5  6  1  0  0  0  0
  6  1  2  0  0  0  0
  9 14  1  1  0  0  0
  9 20  1  0  0  0  0
 10 15  1  6  0  0  0
 10  9  1  0  0  0  0
 10  5  1  0  0  0  0
 11 16  1  0  0  0  0
 11 10  1  0  0  0  0
 12 11  1  0  0  0  0
 12 13  1  0  0  0  0
 13 19  1  0  0  0  0
 13  9  1  0  0  0  0
 17 11  1  0  0  0  0
 18 13  1  0  0  0  0
 20 21  1  0  0  0  0
 22  3  1  0  0  0  0
 24 23  2  6  0  0  0
 24 25  1  0  0  0  0
 24 27  1  0  0  0  0
 24 22  1  0  0  0  0
 25 26  1  0  0  0  0
 28 29  1  0  0  0  0
 28 34  1  1  0  0  0
 29 30  1  0  0  0  0
 29 27  1  1  0  0  0
 31 30  1  0  0  0  0
 32 36  1  1  0  0  0
 32 33  1  0  0  0  0
 32 31  1  0  0  0  0
 33 38  1  6  0  0  0
 33 28  1  0  0  0  0
 34 35  1  0  0  0  0
 36 37  1  0  0  0  0
 39 38  1  0  0  0  0
M  END
>  <minimizedAffinity>
-6.48137093

$$$$

 OpenBabel03252507103D

 39 41  0  0  1  0  0  0  0  0999 V2000
   36.3440   26.6850   39.3770 C   0  0  0  0  0  0  0  0  0  0  0  0
   36.0400   28.0560   39.4330 C   0  0  0  0  0  0  0  0  0  0  0  0
   36.4050   28.7380   40.5790 C   0  0  0  0  0  0  0  0  0  0  0  0
   37.0250   28.0740   41.5770 N   0  0  0  0  0  0  0  0  0  0  0  0
   37.3080   26.7690   41.5070 C   0  0  0  0  0  0  0  0  0  0  0  0
   36.9630   26.0670   40.3970 N   0  0  0  0  0  0  0  0  0  0  0  0
   36.0550   26.1550   38.4770 H   0  0  0  0  0  0  0  0  0  0  0  0
   35.5460   28.5170   38.6040 H   0  0  0  0  0  0  0  0  0  0  0  0
   38.6680   24.7440   42.0990 C   0  0  1  0  0  0  0  0  0  0  0  0
   37.9710   25.9860   42.5650 C   0  0  1  0  0  0  0  0  0  0  0  0
   39.1870   26.7600   43.1040 C   0  0  0  0  0  0  0  0  0  0  0  0
   40.1100   25.8450   43.5040 O   0  0  0  0  0  0  0  0  0  0  0  0
   39.6220   24.5610   43.2750 C   0  0  0  0  0  0  0  0  0  0  0  0
   39.2920   25.0030   41.1940 H   0  0  0  0  0  0  0  0  0  0  0  0
   37.2770   25.7580   43.3990 H   0  0  0  0  0  0  0  0  0  0  0  0
   39.5330   27.5390   42.4140 H   0  0  0  0  0  0  0  0  0  0  0  0
   38.8090   27.2950   44.0090 H   0  0  0  0  0  0  0  0  0  0  0  0
   39.0740   24.1250   44.1200 H   0  0  0  0  0  0  0  0  0  0  0  0
   40.5070   23.9460   42.9520 H   0  0  0  0  0  0  0  0  0  0  0  0
   37.8450   23.6840   41.8600 O   0  0  0  0  0  0  0  0  0  0  0  0
   37.6010   23.6830   40.9000 H   0  0  0  0  0  0  0  0  0  0  0  0
   36.1030   30.0910   40.6270 O   0  0  0  0  0  0  0  0  0  0  0  0
   37.0380   31.1240   38.3640 O   0  0  0  0  0  0  0  0  0  0  0  0
   37.1420   31.2340   39.8750 P   0  0  1  0  0  0  0  0  0  0  0  0
   36.7070   32.7560   40.4150 O   0  0  0  0  0  0  0  0  0  0  0  0
   35.7030   32.7690   40.4740 H   0  0  0  0  0  0  0  0  0  0  0  0
   38.7160   30.8240   40.3550 O   0  0  0  0  0  0  0  0  0  0  0  0
   40.0520   32.2290   38.9440 C   0  0  2  0  0  3  0  0  0  0  0  0
   39.5140   30.8570   39.1900 C   0  0  1  0  0  3  0  0  0  0  0  0
   40.4680   29.8710   39.2080 O   0  0  0  0  0  0  0  0  0  0  0  0
   41.6320   30.2110   38.5440 C   0  0  0  0  0  2  0  0  0  0  0  0
   41.3780   31.0240   37.2910 C   0  0  1  0  0  3  0  0  0  0  0  0
   40.6120   32.2920   37.5510 C   0  0  1  0  0  3  0  0  0  0  0  0
   40.9440   32.6710   39.9050 O   0  0  0  0  0  0  0  0  0  0  0  0
   40.9980   32.0930   40.6920 H   0  0  0  0  0  0  0  0  0  0  0  0
   42.5840   31.2920   36.6790 O   0  0  0  0  0  0  0  0  0  0  0  0
   43.3380   31.0150   37.2550 H   0  0  0  0  0  0  0  0  0  0  0  0
   39.5100   32.3460   36.6700 O   0  0  0  0  0  0  0  0  0  0  0  0
   39.8490   32.3980   35.7300 H   0  0  0  0  0  0  0  0  0  0  0  0
  1  2  2  0  0  0  0
  1  6  1  0  0  0  0
  2  3  1  0  0  0  0
  3 22  1  0  0  0  0
  3  4  2  0  0  0  0
  5  4  1  0  0  0  0
  5 10  1  0  0  0  0
  6  5  2  0  0  0  0
  7  1  1  0  0  0  0
  8  2  1  0  0  0  0
  9 14  1  6  0  0  0
  9 10  1  0  0  0  0
  9 13  1  0  0  0  0
 10 11  1  0  0  0  0
 10 15  1  1  0  0  0
 11 12  1  0  0  0  0
 11 17  1  0  0  0  0
 13 12  1  0  0  0  0
 13 18  1  0  0  0  0
 16 11  1  0  0  0  0
 19 13  1  0  0  0  0
 20  9  1  0  0  0  0
 21 20  1  0  0  0  0
 24 23  2  6  0  0  0
 24 27  1  0  0  0  0
 24 25  1  0  0  0  0
 24 22  1  0  0  0  0
 25 26  1  0  0  0  0
 28 29  1  0  0  0  0
 28 34  1  1  0  0  0
 29 30  1  0  0  0  0
 29 27  1  1  0  0  0
 31 30  1  0  0  0  0
 32 36  1  1  0  0  0
 32 33  1  0  0  0  0
 32 31  1  0  0  0  0
 33 38  1  6  0  0  0
 33 28  1  0  0  0  0
 34 35  1  0  0  0  0
 36 37  1  0  0  0  0
 39 38  1  0  0  0  0
M  END
>  <minimizedAffinity>
-6.29411173

$$$$

 OpenBabel03252507103D

 39 41  0  0  1  0  0  0  0  0999 V2000
   37.7890   28.0780   43.5000 C   0  0  0  0  0  0  0  0  0  0  0  0
   38.0710   29.2300   42.7480 C   0  0  0  0  0  0  0  0  0  0  0  0
   37.9940   29.1210   41.3710 C   0  0  0  0  0  0  0  0  0  0  0  0
   37.6580   27.9370   40.8180 N   0  0  0  0  0  0  0  0  0  0  0  0
   37.3920   26.8490   41.5500 C   0  0  0  0  0  0  0  0  0  0  0  0
   37.4580   26.9200   42.9040 N   0  0  0  0  0  0  0  0  0  0  0  0
   37.8510   28.1690   44.5790 H   0  0  0  0  0  0  0  0  0  0  0  0
   38.3310   30.1360   43.2530 H   0  0  0  0  0  0  0  0  0  0  0  0
   37.8490   25.0730   39.8370 C   0  0  1  0  0  0  0  0  0  0  0  0
   37.0310   25.5280   41.0060 C   0  0  1  0  0  0  0  0  0  0  0  0
   37.4100   24.4270   42.0120 C   0  0  0  0  0  0  0  0  0  0  0  0
   37.7190   23.3110   41.3000 O   0  0  0  0  0  0  0  0  0  0  0  0
   37.5840   23.5740   39.9380 C   0  0  0  0  0  0  0  0  0  0  0  0
   38.9400   25.2410   40.0770 H   0  0  0  0  0  0  0  0  0  0  0  0
   35.9480   25.4640   40.7770 H   0  0  0  0  0  0  0  0  0  0  0  0
   38.1530   24.7620   42.7470 H   0  0  0  0  0  0  0  0  0  0  0  0
   36.4740   24.2280   42.5880 H   0  0  0  0  0  0  0  0  0  0  0  0
   36.5890   23.3560   39.5290 H   0  0  0  0  0  0  0  0  0  0  0  0
   38.4110   23.0080   39.4290 H   0  0  0  0  0  0  0  0  0  0  0  0
   37.5010   25.6350   38.6440 O   0  0  0  0  0  0  0  0  0  0  0  0
   38.0680   26.4330   38.4930 H   0  0  0  0  0  0  0  0  0  0  0  0
   38.2730   30.2630   40.6340 O   0  0  0  0  0  0  0  0  0  0  0  0
   36.3250   30.2920   38.8270 O   0  0  0  0  0  0  0  0  0  0  0  0
   36.9970   31.1410   39.8900 P   0  0  1  0  0  0  0  0  0  0  0  0
   35.9220   31.5970   41.0880 O   0  0  0  0  0  0  0  0  0  0  0  0
   35.8570   30.8270   41.7320 H   0  0  0  0  0  0  0  0  0  0  0  0
   37.7220   32.4850   39.1530 O   0  0  0  0  0  0  0  0  0  0  0  0
   39.4410   31.5480   37.7690 C   0  0  2  0  0  3  0  0  0  0  0  0
   39.1030   32.2030   39.0680 C   0  0  1  0  0  3  0  0  0  0  0  0
   39.8600   33.3100   39.3570 O   0  0  0  0  0  0  0  0  0  0  0  0
   41.0680   33.3490   38.6850 C   0  0  0  0  0  2  0  0  0  0  0  0
   41.7090   31.9830   38.5490 C   0  0  1  0  0  3  0  0  0  0  0  0
   40.8300   30.9810   37.8520 C   0  0  1  0  0  3  0  0  0  0  0  0
   39.2540   32.3550   36.6600 O   0  0  0  0  0  0  0  0  0  0  0  0
   38.7920   33.1950   36.8540 H   0  0  0  0  0  0  0  0  0  0  0  0
   42.9160   32.1200   37.8980 O   0  0  0  0  0  0  0  0  0  0  0  0
   43.0270   33.0380   37.5520 H   0  0  0  0  0  0  0  0  0  0  0  0
   40.7480   29.8180   38.6490 O   0  0  0  0  0  0  0  0  0  0  0  0
   41.6580   29.4090   38.7190 H   0  0  0  0  0  0  0  0  0  0  0  0
  1  7  1  0  0  0  0
  2  8  1  0  0  0  0
  2  1  2  0  0  0  0
  3  2  1  0  0  0  0
  4  3  2  0  0  0  0
  4  5  1  0  0  0  0
  5  6  2  0  0  0  0
  6  1  1  0  0  0  0
  9 13  1  0  0  0  0
  9 14  1  1  0  0  0
  9 10  1  0  0  0  0
 10 15  1  6  0  0  0
 10  5  1  0  0  0  0
 10 11  1  0  0  0  0
 11 17  1  0  0  0  0
 11 16  1  0  0  0  0
 12 11  1  0  0  0  0
 13 12  1  0  0  0  0
 18 13  1  0  0  0  0
 19 13  1  0  0  0  0
 20  9  1  0  0  0  0
 21 20  1  0  0  0  0
 22  3  1  0  0  0  0
 24 23  2  6  0  0  0
 24 22  1  0  0  0  0
 24 25  1  0  0  0  0
 25 26  1  0  0  0  0
 27 24  1  0  0  0  0
 28 34  1  6  0  0  0
 28 33  1  0  0  0  0
 28 29  1  0  0  0  0
 29 27  1  6  0  0  0
 29 30  1  0  0  0  0
 31 30  1  0  0  0  0
 32 36  1  6  0  0  0
 32 31  1  0  0  0  0
 33 32  1  0  0  0  0
 33 38  1  1  0  0  0
 34 35  1  0  0  0  0
 37 36  1  0  0  0  0
 38 39  1  0  0  0  0
M  END
>  <minimizedAffinity>
-6.04448271

$$$$

 OpenBabel03252507103D

 39 41  0  0  1  0  0  0  0  0999 V2000
   39.1380   27.0430   43.4500 C   0  0  0  0  0  0  0  0  0  0  0  0
   38.6130   28.3350   43.2790 C   0  0  0  0  0  0  0  0  0  0  0  0
   37.5160   28.4660   42.4470 C   0  0  0  0  0  0  0  0  0  0  0  0
   37.0060   27.3720   41.8450 N   0  0  0  0  0  0  0  0  0  0  0  0
   37.5180   26.1490   42.0180 C   0  0  0  0  0  0  0  0  0  0  0  0
   38.5940   25.9820   42.8280 N   0  0  0  0  0  0  0  0  0  0  0  0
   39.9970   26.9450   44.1030 H   0  0  0  0  0  0  0  0  0  0  0  0
   39.0690   29.1570   43.7880 H   0  0  0  0  0  0  0  0  0  0  0  0
   37.0930   24.8960   39.8850 C   0  0  1  0  0  0  0  0  0  0  0  0
   37.0140   24.9190   41.3810 C   0  0  1  0  0  0  0  0  0  0  0  0
   37.9570   23.7440   41.6930 C   0  0  0  0  0  0  0  0  0  0  0  0
   37.9050   22.8870   40.6380 O   0  0  0  0  0  0  0  0  0  0  0  0
   37.0320   23.3870   39.6740 C   0  0  0  0  0  0  0  0  0  0  0  0
   38.1230   25.2400   39.5760 H   0  0  0  0  0  0  0  0  0  0  0  0
   35.9890   24.6730   41.7250 H   0  0  0  0  0  0  0  0  0  0  0  0
   38.9540   24.0740   42.0110 H   0  0  0  0  0  0  0  0  0  0  0  0
   37.5030   23.2370   42.5790 H   0  0  0  0  0  0  0  0  0  0  0  0
   35.9940   23.0490   39.7820 H   0  0  0  0  0  0  0  0  0  0  0  0
   37.4870   23.1250   38.6790 H   0  0  0  0  0  0  0  0  0  0  0  0
   36.1120   25.6010   39.2520 O   0  0  0  0  0  0  0  0  0  0  0  0
   36.4470   26.5160   39.0690 H   0  0  0  0  0  0  0  0  0  0  0  0
   37.0020   29.7450   42.2840 O   0  0  0  0  0  0  0  0  0  0  0  0
   35.4790   29.5560   40.1150 O   0  0  0  0  0  0  0  0  0  0  0  0
   36.6380   30.3340   40.7120 P   0  0  1  0  0  0  0  0  0  0  0  0
   36.2840   31.9640   40.8450 O   0  0  0  0  0  0  0  0  0  0  0  0
   35.7570   32.0800   41.6930 H   0  0  0  0  0  0  0  0  0  0  0  0
   38.0280   30.0680   39.7780 O   0  0  0  0  0  0  0  0  0  0  0  0
   39.5810   31.5760   40.8080 C   0  0  2  0  0  3  0  0  0  0  0  0
   38.6730   31.3180   39.6500 C   0  0  1  0  0  3  0  0  0  0  0  0
   39.2700   31.4510   38.4220 O   0  0  0  0  0  0  0  0  0  0  0  0
   40.4080   32.2370   38.4390 C   0  0  0  0  0  2  0  0  0  0  0  0
   40.2920   33.4190   39.3790 C   0  0  1  0  0  3  0  0  0  0  0  0
   39.9880   33.0230   40.7980 C   0  0  1  0  0  3  0  0  0  0  0  0
   40.6600   30.7140   40.8880 O   0  0  0  0  0  0  0  0  0  0  0  0
   40.6130   29.9610   40.2650 H   0  0  0  0  0  0  0  0  0  0  0  0
   41.4520   34.1610   39.3100 O   0  0  0  0  0  0  0  0  0  0  0  0
   42.1380   33.6910   38.7780 H   0  0  0  0  0  0  0  0  0  0  0  0
   38.8720   33.7630   41.2480 O   0  0  0  0  0  0  0  0  0  0  0  0
   39.1120   34.7340   41.2610 H   0  0  0  0  0  0  0  0  0  0  0  0
  1  7  1  0  0  0  0
  2  1  1  0  0  0  0
  2  8  1  0  0  0  0
  3  2  2  0  0  0  0
  4  5  2  0  0  0  0
  4  3  1  0  0  0  0
  5  6  1  0  0  0  0
  6  1  2  0  0  0  0
  9 14  1  6  0  0  0
  9 10  1  0  0  0  0
 10 11  1  0  0  0  0
 10 15  1  1  0  0  0
 10  5  1  0  0  0  0
 11 16  1  0  0  0  0
 11 17  1  0  0  0  0
 12 11  1  0  0  0  0
 13 18  1  0  0  0  0
 13  9  1  0  0  0  0
 13 12  1  0  0  0  0
 19 13  1  0  0  0  0
 20  9  1  0  0  0  0
 21 20  1  0  0  0  0
 22  3  1  0  0  0  0
 24 23  2  6  0  0  0
 24 25  1  0  0  0  0
 24 22  1  0  0  0  0
 25 26  1  0  0  0  0
 27 24  1  0  0  0  0
 28 34  1  6  0  0  0
 29 27  1  1  0  0  0
 29 28  1  0  0  0  0
 30 31  1  0  0  0  0
 30 29  1  0  0  0  0
 31 32  1  0  0  0  0
 32 36  1  1  0  0  0
 32 33  1  0  0  0  0
 33 28  1  0  0  0  0
 33 38  1  6  0  0  0
 35 34  1  0  0  0  0
 37 36  1  0  0  0  0
 38 39  1  0  0  0  0
M  END
>  <minimizedAffinity>
-6.02657986

$$$$

 OpenBabel03252507103D

 39 41  0  0  1  0  0  0  0  0999 V2000
   36.5840   28.2770   37.1670 C   0  0  0  0  0  0  0  0  0  0  0  0
   36.9010   29.6460   37.1710 C   0  0  0  0  0  0  0  0  0  0  0  0
   37.1210   30.2400   38.4000 C   0  0  0  0  0  0  0  0  0  0  0  0
   37.0240   29.4980   39.5220 N   0  0  0  0  0  0  0  0  0  0  0  0
   36.7210   28.1950   39.5010 C   0  0  0  0  0  0  0  0  0  0  0  0
   36.4990   27.5790   38.3120 N   0  0  0  0  0  0  0  0  0  0  0  0
   36.4130   27.8160   36.2010 H   0  0  0  0  0  0  0  0  0  0  0  0
   36.9610   30.1720   36.2420 H   0  0  0  0  0  0  0  0  0  0  0  0
   37.6710   26.3120   40.8620 C   0  0  1  0  0  0  0  0  0  0  0  0
   36.5890   27.3340   40.6890 C   0  0  1  0  0  0  0  0  0  0  0  0
   36.8290   28.1610   41.9640 C   0  0  0  0  0  0  0  0  0  0  0  0
   37.3690   27.3310   42.8950 O   0  0  0  0  0  0  0  0  0  0  0  0
   37.5080   26.0540   42.3560 C   0  0  0  0  0  0  0  0  0  0  0  0
   38.6690   26.8200   40.7130 H   0  0  0  0  0  0  0  0  0  0  0  0
   35.5880   26.8590   40.7390 H   0  0  0  0  0  0  0  0  0  0  0  0
   37.3690   29.0960   41.7670 H   0  0  0  0  0  0  0  0  0  0  0  0
   35.8110   28.4610   42.3100 H   0  0  0  0  0  0  0  0  0  0  0  0
   36.6440   25.3960   42.5160 H   0  0  0  0  0  0  0  0  0  0  0  0
   38.4660   25.6420   42.7760 H   0  0  0  0  0  0  0  0  0  0  0  0
   37.5430   25.2070   40.0740 O   0  0  0  0  0  0  0  0  0  0  0  0
   38.0650   25.3480   39.2440 H   0  0  0  0  0  0  0  0  0  0  0  0
   37.4350   31.5910   38.3960 O   0  0  0  0  0  0  0  0  0  0  0  0
   37.2860   33.9550   39.6010 O   0  0  0  0  0  0  0  0  0  0  0  0
   37.4710   32.4730   39.8710 P   0  0  1  0  0  0  0  0  0  0  0  0
   36.2620   31.8690   40.8570 O   0  0  0  0  0  0  0  0  0  0  0  0
   35.4720   31.6720   40.2660 H   0  0  0  0  0  0  0  0  0  0  0  0
   39.0100   32.2150   40.5340 O   0  0  0  0  0  0  0  0  0  0  0  0
   40.4920   32.9970   38.8190 C   0  0  2  0  0  3  0  0  0  0  0  0
   39.8460   31.8160   39.4680 C   0  0  1  0  0  3  0  0  0  0  0  0
   40.7230   30.8360   39.8580 O   0  0  0  0  0  0  0  0  0  0  0  0
   41.9310   30.8700   39.1860 C   0  0  0  0  0  2  0  0  0  0  0  0
   41.7790   31.2400   37.7240 C   0  0  1  0  0  3  0  0  0  0  0  0
   41.1010   32.5660   37.5140 C   0  0  1  0  0  3  0  0  0  0  0  0
   41.3820   33.6770   39.6310 O   0  0  0  0  0  0  0  0  0  0  0  0
   41.3680   33.3870   40.5650 H   0  0  0  0  0  0  0  0  0  0  0  0
   43.0210   31.2200   37.1260 O   0  0  0  0  0  0  0  0  0  0  0  0
   43.7330   31.1040   37.8010 H   0  0  0  0  0  0  0  0  0  0  0  0
   40.0350   32.3930   36.6040 O   0  0  0  0  0  0  0  0  0  0  0  0
   40.4080   32.1130   35.7190 H   0  0  0  0  0  0  0  0  0  0  0  0
  1  2  2  0  0  0  0
  1  6  1  0  0  0  0
  2  3  1  0  0  0  0
  3  4  2  0  0  0  0
  5  4  1  0  0  0  0
  5 10  1  0  0  0  0
  6  5  2  0  0  0  0
  7  1  1  0  0  0  0
  8  2  1  0  0  0  0
  9 14  1  6  0  0  0
  9 13  1  0  0  0  0
 10 15  1  1  0  0  0
 10  9  1  0  0  0  0
 10 11  1  0  0  0  0
 11 17  1  0  0  0  0
 11 12  1  0  0  0  0
 13 18  1  0  0  0  0
 13 19  1  0  0  0  0
 13 12  1  0  0  0  0
 16 11  1  0  0  0  0
 20  9  1  0  0  0  0
 21 20  1  0  0  0  0
 22  3  1  0  0  0  0
 22 24  1  0  0  0  0
 24 23  2  6  0  0  0
 24 27  1  0  0  0  0
 24 25  1  0  0  0  0
 26 25  1  0  0  0  0
 28 29  1  0  0  0  0
 28 34  1  1  0  0  0
 29 30  1  0  0  0  0
 29 27  1  1  0  0  0
 31 30  1  0  0  0  0
 32 36  1  1  0  0  0
 32 31  1  0  0  0  0
 33 38  1  6  0  0  0
 33 32  1  0  0  0  0
 33 28  1  0  0  0  0
 34 35  1  0  0  0  0
 36 37  1  0  0  0  0
 39 38  1  0  0  0  0
M  END
>  <minimizedAffinity>
-5.84670162

$$$$

 OpenBabel03252507103D

 39 41  0  0  1  0  0  0  0  0999 V2000
   37.6710   24.6280   38.8100 C   0  0  0  0  0  0  0  0  0  0  0  0
   36.7010   25.2740   38.0250 C   0  0  0  0  0  0  0  0  0  0  0  0
   36.0160   26.3250   38.6060 C   0  0  0  0  0  0  0  0  0  0  0  0
   36.3010   26.6810   39.8760 N   0  0  0  0  0  0  0  0  0  0  0  0
   37.2290   26.0560   40.6090 C   0  0  0  0  0  0  0  0  0  0  0  0
   37.9200   25.0190   40.0710 N   0  0  0  0  0  0  0  0  0  0  0  0
   38.2050   23.8040   38.3490 H   0  0  0  0  0  0  0  0  0  0  0  0
   36.5270   24.9380   37.0250 H   0  0  0  0  0  0  0  0  0  0  0  0
   38.9550   26.9430   42.2000 C   0  0  1  0  0  0  0  0  0  0  0  0
   37.5770   26.3890   42.0010 C   0  0  1  0  0  0  0  0  0  0  0  0
   36.7560   27.6030   42.4710 C   0  0  0  0  0  0  0  0  0  0  0  0
   37.5090   28.2800   43.3770 O   0  0  0  0  0  0  0  0  0  0  0  0
   38.7330   27.6350   43.5410 C   0  0  0  0  0  0  0  0  0  0  0  0
   39.1310   27.7480   41.4280 H   0  0  0  0  0  0  0  0  0  0  0  0
   37.3950   25.5330   42.6830 H   0  0  0  0  0  0  0  0  0  0  0  0
   36.3480   28.1860   41.6350 H   0  0  0  0  0  0  0  0  0  0  0  0
   35.8750   27.1670   43.0020 H   0  0  0  0  0  0  0  0  0  0  0  0
   38.7490   26.8850   44.3420 H   0  0  0  0  0  0  0  0  0  0  0  0
   39.4970   28.4500   43.6770 H   0  0  0  0  0  0  0  0  0  0  0  0
   39.9500   26.0110   42.1960 O   0  0  0  0  0  0  0  0  0  0  0  0
   40.3130   25.9390   41.2770 H   0  0  0  0  0  0  0  0  0  0  0  0
   35.0600   26.9590   37.8250 O   0  0  0  0  0  0  0  0  0  0  0  0
   34.0180   29.1490   36.7390 O   0  0  0  0  0  0  0  0  0  0  0  0
   34.8970   28.6690   37.8800 P   0  0  1  0  0  0  0  0  0  0  0  0
   34.2530   29.0740   39.3690 O   0  0  0  0  0  0  0  0  0  0  0  0
   33.5660   28.3740   39.5920 H   0  0  0  0  0  0  0  0  0  0  0  0
   36.4600   29.2950   37.6800 O   0  0  0  0  0  0  0  0  0  0  0  0
   37.2300   30.0270   39.8300 C   0  0  2  0  0  3  0  0  0  0  0  0
   36.5630   30.4050   38.5480 C   0  0  1  0  0  3  0  0  0  0  0  0
   37.1240   31.4860   37.9160 O   0  0  0  0  0  0  0  0  0  0  0  0
   37.8550   32.3040   38.7570 C   0  0  0  0  0  2  0  0  0  0  0  0
   37.2280   32.4460   40.1300 C   0  0  1  0  0  3  0  0  0  0  0  0
   37.0300   31.1300   40.8310 C   0  0  1  0  0  3  0  0  0  0  0  0
   38.5570   29.6570   39.6940 O   0  0  0  0  0  0  0  0  0  0  0  0
   38.8460   29.5530   38.7650 H   0  0  0  0  0  0  0  0  0  0  0  0
   38.0010   33.2990   40.8880 O   0  0  0  0  0  0  0  0  0  0  0  0
   38.8450   33.5150   40.4230 H   0  0  0  0  0  0  0  0  0  0  0  0
   35.6900   31.0460   41.2680 O   0  0  0  0  0  0  0  0  0  0  0  0
   35.5240   31.7640   41.9440 H   0  0  0  0  0  0  0  0  0  0  0  0
  1  6  1  0  0  0  0
  2  3  1  0  0  0  0
  2  1  2  0  0  0  0
  3  4  2  0  0  0  0
  4  5  1  0  0  0  0
  5 10  1  0  0  0  0
  6  5  2  0  0  0  0
  7  1  1  0  0  0  0
  8  2  1  0  0  0  0
  9 14  1  6  0  0  0
  9 13  1  0  0  0  0
 10  9  1  0  0  0  0
 10 11  1  0  0  0  0
 10 15  1  1  0  0  0
 11 17  1  0  0  0  0
 11 12  1  0  0  0  0
 12 13  1  0  0  0  0
 13 19  1  0  0  0  0
 13 18  1  0  0  0  0
 16 11  1  0  0  0  0
 20  9  1  0  0  0  0
 21 20  1  0  0  0  0
 22 24  1  0  0  0  0
 22  3  1  0  0  0  0
 24 23  2  6  0  0  0
 24 25  1  0  0  0  0
 25 26  1  0  0  0  0
 27 24  1  0  0  0  0
 28 34  1  6  0  0  0
 28 33  1  0  0  0  0
 29 27  1  6  0  0  0
 29 28  1  0  0  0  0
 30 29  1  0  0  0  0
 30 31  1  0  0  0  0
 31 32  1  0  0  0  0
 32 33  1  0  0  0  0
 32 36  1  1  0  0  0
 33 38  1  6  0  0  0
 35 34  1  0  0  0  0
 37 36  1  0  0  0  0
 38 39  1  0  0  0  0
M  END
>  <minimizedAffinity>
-5.83352089

$$$$

 OpenBabel03252507103D

 39 41  0  0  1  0  0  0  0  0999 V2000
   37.9190   25.1160   42.2560 C   0  0  0  0  0  0  0  0  0  0  0  0
   37.0280   26.2020   42.2500 C   0  0  0  0  0  0  0  0  0  0  0  0
   37.5760   27.4710   42.2930 C   0  0  0  0  0  0  0  0  0  0  0  0
   38.9170   27.6120   42.3400 N   0  0  0  0  0  0  0  0  0  0  0  0
   39.7520   26.5670   42.3450 C   0  0  0  0  0  0  0  0  0  0  0  0
   39.2490   25.3070   42.3030 N   0  0  0  0  0  0  0  0  0  0  0  0
   37.4840   24.1240   42.2220 H   0  0  0  0  0  0  0  0  0  0  0  0
   35.9760   26.0150   42.2120 H   0  0  0  0  0  0  0  0  0  0  0  0
   41.7620   27.6510   43.3860 C   0  0  1  0  0  0  0  0  0  0  0  0
   41.2220   26.6550   42.4060 C   0  0  1  0  0  0  0  0  0  0  0  0
   41.7990   25.3690   43.0220 C   0  0  0  0  0  0  0  0  0  0  0  0
   42.9430   25.7050   43.6750 O   0  0  0  0  0  0  0  0  0  0  0  0
   43.1650   27.0740   43.5510 C   0  0  0  0  0  0  0  0  0  0  0  0
   41.2230   27.5140   44.3690 H   0  0  0  0  0  0  0  0  0  0  0  0
   41.6630   26.8140   41.4010 H   0  0  0  0  0  0  0  0  0  0  0  0
   41.0530   24.8020   43.5950 H   0  0  0  0  0  0  0  0  0  0  0  0
   42.0690   24.7270   42.1490 H   0  0  0  0  0  0  0  0  0  0  0  0
   43.7760   27.3600   42.6850 H   0  0  0  0  0  0  0  0  0  0  0  0
   43.5980   27.4090   44.5330 H   0  0  0  0  0  0  0  0  0  0  0  0
   41.7230   28.9470   42.9630 O   0  0  0  0  0  0  0  0  0  0  0  0
   40.8840   29.3610   43.2890 H   0  0  0  0  0  0  0  0  0  0  0  0
   36.6900   28.5380   42.2850 O   0  0  0  0  0  0  0  0  0  0  0  0
   37.3720   29.5440   39.9220 O   0  0  0  0  0  0  0  0  0  0  0  0
   37.0340   29.9370   41.3490 P   0  0  1  0  0  0  0  0  0  0  0  0
   35.6950   30.9380   41.4140 O   0  0  0  0  0  0  0  0  0  0  0  0
   34.8840   30.3450   41.3750 H   0  0  0  0  0  0  0  0  0  0  0  0
   38.3910   30.6580   42.0640 O   0  0  0  0  0  0  0  0  0  0  0  0
   38.7030   32.5650   40.6440 C   0  0  2  0  0  3  0  0  0  0  0  0
   39.1660   31.1920   41.0110 C   0  0  1  0  0  3  0  0  0  0  0  0
   40.5080   31.1010   41.2780 O   0  0  0  0  0  0  0  0  0  0  0  0
   41.2580   32.1200   40.7190 C   0  0  0  0  0  2  0  0  0  0  0  0
   40.7650   32.5250   39.3450 C   0  0  1  0  0  3  0  0  0  0  0  0
   39.3250   32.9580   39.3340 C   0  0  1  0  0  3  0  0  0  0  0  0
   38.8910   33.5120   41.6350 O   0  0  0  0  0  0  0  0  0  0  0  0
   39.1680   33.1370   42.4950 H   0  0  0  0  0  0  0  0  0  0  0  0
   41.5840   33.5180   38.8520 O   0  0  0  0  0  0  0  0  0  0  0  0
   42.2130   33.8320   39.5460 H   0  0  0  0  0  0  0  0  0  0  0  0
   38.6420   32.2390   38.3270 O   0  0  0  0  0  0  0  0  0  0  0  0
   39.0270   32.4850   37.4370 H   0  0  0  0  0  0  0  0  0  0  0  0
  1  6  1  0  0  0  0
  2  1  2  0  0  0  0
  2  3  1  0  0  0  0
  3  4  2  0  0  0  0
  4  5  1  0  0  0  0
  5 10  1  0  0  0  0
  6  5  2  0  0  0  0
  7  1  1  0  0  0  0
  8  2  1  0  0  0  0
  9 13  1  0  0  0  0
  9 14  1  1  0  0  0
 10 15  1  6  0  0  0
 10 11  1  0  0  0  0
 10  9  1  0  0  0  0
 11 16  1  0  0  0  0
 11 12  1  0  0  0  0
 13 12  1  0  0  0  0
 13 19  1  0  0  0  0
 17 11  1  0  0  0  0
 18 13  1  0  0  0  0
 20 21  1  0  0  0  0
 20  9  1  0  0  0  0
 22  3  1  0  0  0  0
 24 23  2  6  0  0  0
 24 25  1  0  0  0  0
 24 27  1  0  0  0  0
 24 22  1  0  0  0  0
 26 25  1  0  0  0  0
 28 29  1  0  0  0  0
 28 34  1  1  0  0  0
 29 30  1  0  0  0  0
 29 27  1  1  0  0  0
 31 30  1  0  0  0  0
 32 36  1  1  0  0  0
 32 31  1  0  0  0  0
 33 38  1  6  0  0  0
 33 32  1  0  0  0  0
 33 28  1  0  0  0  0
 34 35  1  0  0  0  0
 36 37  1  0  0  0  0
 39 38  1  0  0  0  0
M  END
>  <minimizedAffinity>
-5.83274221

$$$$

 OpenBabel03252507103D

 39 41  0  0  1  0  0  0  0  0999 V2000
   36.9690   26.5000   42.3730 C   0  0  0  0  0  0  0  0  0  0  0  0
   36.5760   27.8280   42.1330 C   0  0  0  0  0  0  0  0  0  0  0  0
   37.4970   28.8200   42.4150 C   0  0  0  0  0  0  0  0  0  0  0  0
   38.7100   28.4810   42.9000 N   0  0  0  0  0  0  0  0  0  0  0  0
   39.0670   27.2110   43.1230 C   0  0  0  0  0  0  0  0  0  0  0  0
   38.1890   26.2110   42.8570 N   0  0  0  0  0  0  0  0  0  0  0  0
   36.2430   25.7260   42.1500 H   0  0  0  0  0  0  0  0  0  0  0  0
   35.5980   28.0230   41.7470 H   0  0  0  0  0  0  0  0  0  0  0  0
   41.0140   25.6390   42.9320 C   0  0  1  0  0  0  0  0  0  0  0  0
   40.3690   26.7780   43.6600 C   0  0  1  0  0  0  0  0  0  0  0  0
   41.4290   27.8630   43.4030 C   0  0  0  0  0  0  0  0  0  0  0  0
   42.6270   27.2370   43.2540 O   0  0  0  0  0  0  0  0  0  0  0  0
   42.4540   25.8610   43.3840 C   0  0  0  0  0  0  0  0  0  0  0  0
   40.9700   25.8520   41.8240 H   0  0  0  0  0  0  0  0  0  0  0  0
   40.3110   26.5670   44.7480 H   0  0  0  0  0  0  0  0  0  0  0  0
   41.1370   28.5610   42.6080 H   0  0  0  0  0  0  0  0  0  0  0  0
   41.4620   28.4640   44.3430 H   0  0  0  0  0  0  0  0  0  0  0  0
   42.5740   25.4820   44.4070 H   0  0  0  0  0  0  0  0  0  0  0  0
   43.1590   25.3890   42.6460 H   0  0  0  0  0  0  0  0  0  0  0  0
   40.5050   24.4090   43.2310 O   0  0  0  0  0  0  0  0  0  0  0  0
   39.8000   24.1890   42.5710 H   0  0  0  0  0  0  0  0  0  0  0  0
   37.1030   30.1280   42.1750 O   0  0  0  0  0  0  0  0  0  0  0  0
   35.8660   29.9870   39.8270 O   0  0  0  0  0  0  0  0  0  0  0  0
   36.9810   30.7090   40.5620 P   0  0  1  0  0  0  0  0  0  0  0  0
   36.7080   32.3580   40.6310 O   0  0  0  0  0  0  0  0  0  0  0  0
   36.0830   32.5190   41.4020 H   0  0  0  0  0  0  0  0  0  0  0  0
   38.4620   30.3480   39.8200 O   0  0  0  0  0  0  0  0  0  0  0  0
   40.7010   30.6100   40.6390 C   0  0  2  0  0  3  0  0  0  0  0  0
   39.4010   31.2760   40.3240 C   0  0  1  0  0  3  0  0  0  0  0  0
   39.5120   32.3720   39.5060 O   0  0  0  0  0  0  0  0  0  0  0  0
   40.7710   32.9440   39.5090 C   0  0  0  0  0  2  0  0  0  0  0  0
   41.4210   32.9260   40.8780 C   0  0  1  0  0  3  0  0  0  0  0  0
   41.5440   31.5440   41.4590 C   0  0  1  0  0  3  0  0  0  0  0  0
   41.3670   30.1120   39.5330 O   0  0  0  0  0  0  0  0  0  0  0  0
   40.8400   30.1310   38.7100 H   0  0  0  0  0  0  0  0  0  0  0  0
   42.6520   33.5400   40.7950 O   0  0  0  0  0  0  0  0  0  0  0  0
   42.8880   33.7290   39.8550 H   0  0  0  0  0  0  0  0  0  0  0  0
   40.9990   31.5490   42.7620 O   0  0  0  0  0  0  0  0  0  0  0  0
   41.5440   32.1580   43.3380 H   0  0  0  0  0  0  0  0  0  0  0  0
  1  6  1  0  0  0  0
  2  1  2  0  0  0  0
  2  3  1  0  0  0  0
  3  4  2  0  0  0  0
  4  5  1  0  0  0  0
  5 10  1  0  0  0  0
  6  5  2  0  0  0  0
  7  1  1  0  0  0  0
  8  2  1  0  0  0  0
  9 14  1  6  0  0  0
  9 20  1  0  0  0  0
  9 13  1  0  0  0  0
  9 10  1  0  0  0  0
 10 15  1  1  0  0  0
 11 10  1  0  0  0  0
 11 17  1  0  0  0  0
 12 13  1  0  0  0  0
 12 11  1  0  0  0  0
 13 18  1  0  0  0  0
 16 11  1  0  0  0  0
 19 13  1  0  0  0  0
 21 20  1  0  0  0  0
 22  3  1  0  0  0  0
 24 23  2  6  0  0  0
 24 25  1  0  0  0  0
 24 22  1  0  0  0  0
 25 26  1  0  0  0  0
 27 24  1  0  0  0  0
 28 34  1  6  0  0  0
 28 33  1  0  0  0  0
 29 27  1  6  0  0  0
 29 28  1  0  0  0  0
 30 31  1  0  0  0  0
 30 29  1  0  0  0  0
 31 32  1  0  0  0  0
 32 36  1  6  0  0  0
 32 33  1  0  0  0  0
 33 38  1  1  0  0  0
 35 34  1  0  0  0  0
 37 36  1  0  0  0  0
 38 39  1  0  0  0  0
M  END
>  <minimizedAffinity>
-5.8012476

$$$$

 OpenBabel03252507103D

 39 41  0  0  1  0  0  0  0  0999 V2000
   39.0480   27.4110   43.4720 C   0  0  0  0  0  0  0  0  0  0  0  0
   38.4940   28.6810   43.2390 C   0  0  0  0  0  0  0  0  0  0  0  0
   37.4050   28.7500   42.3900 C   0  0  0  0  0  0  0  0  0  0  0  0
   36.9270   27.6180   41.8310 N   0  0  0  0  0  0  0  0  0  0  0  0
   37.4660   26.4160   42.0640 C   0  0  0  0  0  0  0  0  0  0  0  0
   38.5370   26.3110   42.8920 N   0  0  0  0  0  0  0  0  0  0  0  0
   39.9010   27.3620   44.1380 H   0  0  0  0  0  0  0  0  0  0  0  0
   38.9250   29.5350   43.7160 H   0  0  0  0  0  0  0  0  0  0  0  0
   37.1700   25.0300   39.9930 C   0  0  1  0  0  0  0  0  0  0  0  0
   36.9990   25.1480   41.4760 C   0  0  1  0  0  0  0  0  0  0  0  0
   37.9170   23.9960   41.9200 C   0  0  0  0  0  0  0  0  0  0  0  0
   37.9290   23.0740   40.9200 O   0  0  0  0  0  0  0  0  0  0  0  0
   37.1180   23.5100   39.8750 C   0  0  0  0  0  0  0  0  0  0  0  0
   38.2180   25.3550   39.7270 H   0  0  0  0  0  0  0  0  0  0  0  0
   35.9540   24.9230   41.7710 H   0  0  0  0  0  0  0  0  0  0  0  0
   38.8940   24.3460   42.2770 H   0  0  0  0  0  0  0  0  0  0  0  0
   37.4080   23.5460   42.8060 H   0  0  0  0  0  0  0  0  0  0  0  0
   36.0740   23.1790   39.9390 H   0  0  0  0  0  0  0  0  0  0  0  0
   37.6320   23.1870   38.9280 H   0  0  0  0  0  0  0  0  0  0  0  0
   36.2320   25.6920   39.2560 O   0  0  0  0  0  0  0  0  0  0  0  0
   36.5800   26.5940   39.0370 H   0  0  0  0  0  0  0  0  0  0  0  0
   36.8620   30.0070   42.1660 O   0  0  0  0  0  0  0  0  0  0  0  0
   35.3620   29.9410   39.9730 O   0  0  0  0  0  0  0  0  0  0  0  0
   36.6160   30.5650   40.5600 P   0  0  1  0  0  0  0  0  0  0  0  0
   36.5090   32.2340   40.6090 O   0  0  0  0  0  0  0  0  0  0  0  0
   35.9920   32.4700   41.4380 H   0  0  0  0  0  0  0  0  0  0  0  0
   37.9640   30.0480   39.6710 O   0  0  0  0  0  0  0  0  0  0  0  0
   37.3230   30.0500   37.3600 C   0  0  2  0  0  3  0  0  0  0  0  0
   37.4680   29.2520   38.6140 C   0  0  1  0  0  3  0  0  0  0  0  0
   38.1990   28.0990   38.4700 O   0  0  0  0  0  0  0  0  0  0  0  0
   38.2580   27.6380   37.1680 C   0  0  0  0  0  2  0  0  0  0  0  0
   36.9570   27.8330   36.4160 C   0  0  1  0  0  3  0  0  0  0  0  0
   36.5050   29.2670   36.3730 C   0  0  1  0  0  3  0  0  0  0  0  0
   38.5200   30.5010   36.8310 O   0  0  0  0  0  0  0  0  0  0  0  0
   39.2900   30.3630   37.4180 H   0  0  0  0  0  0  0  0  0  0  0  0
   37.0940   27.3190   35.1440 O   0  0  0  0  0  0  0  0  0  0  0  0
   38.0330   27.0670   34.9670 H   0  0  0  0  0  0  0  0  0  0  0  0
   35.1630   29.3340   36.8110 O   0  0  0  0  0  0  0  0  0  0  0  0
   34.5880   28.8270   36.1690 H   0  0  0  0  0  0  0  0  0  0  0  0
  1  7  1  0  0  0  0
  2  1  1  0  0  0  0
  2  8  1  0  0  0  0
  3  2  2  0  0  0  0
  4  5  2  0  0  0  0
  4  3  1  0  0  0  0
  5  6  1  0  0  0  0
  6  1  2  0  0  0  0
  9 14  1  6  0  0  0
  9 10  1  0  0  0  0
 10 15  1  1  0  0  0
 10 11  1  0  0  0  0
 10  5  1  0  0  0  0
 11 16  1  0  0  0  0
 11 17  1  0  0  0  0
 12 11  1  0  0  0  0
 13 18  1  0  0  0  0
 13  9  1  0  0  0  0
 13 12  1  0  0  0  0
 19 13  1  0  0  0  0
 20  9  1  0  0  0  0
 21 20  1  0  0  0  0
 22  3  1  0  0  0  0
 24 23  2  6  0  0  0
 24 25  1  0  0  0  0
 24 22  1  0  0  0  0
 25 26  1  0  0  0  0
 27 24  1  0  0  0  0
 28 34  1  6  0  0  0
 28 29  1  0  0  0  0
 29 27  1  1  0  0  0
 30 29  1  0  0  0  0
 31 30  1  0  0  0  0
 32 36  1  6  0  0  0
 32 31  1  0  0  0  0
 33 32  1  0  0  0  0
 33 38  1  1  0  0  0
 33 28  1  0  0  0  0
 34 35  1  0  0  0  0
 37 36  1  0  0  0  0
 39 38  1  0  0  0  0
M  END
>  <minimizedAffinity>
-5.75459528

$$$$
