
 OpenBabel03252505313D

 30 31  0  0  1  0  0  0  0  0999 V2000
   38.9730   31.6880   39.6620 O   0  0  0  0  0  0  0  0  0  0  0  0
   39.5980   32.8890   39.9590 C   0  0  0  0  0  0  0  0  0  0  0  0
   39.6330   33.0190   41.0590 H   0  0  0  0  0  0  0  0  0  0  0  0
   39.0330   33.7110   39.4780 H   0  0  0  0  0  0  0  0  0  0  0  0
   40.9950   32.0550   38.0680 C   0  0  2  0  0  3  0  0  0  0  0  0
   40.9810   32.8470   39.3570 C   0  0  1  0  0  3  0  0  0  0  0  0
   41.5590   34.0860   39.2300 O   0  0  0  0  0  0  0  0  0  0  0  0
   42.9010   33.9740   38.9350 C   0  0  0  0  0  2  0  0  0  0  0  0
   43.0150   33.3050   37.5800 C   0  0  1  0  0  3  0  0  0  0  0  0
   42.4790   31.9050   37.7340 C   0  0  2  0  0  3  0  0  0  0  0  0
   40.3520   32.7980   37.0580 O   0  0  0  0  0  0  0  0  0  0  0  0
   40.2380   32.2090   36.2780 H   0  0  0  0  0  0  0  0  0  0  0  0
   42.1810   34.0240   36.7080 O   0  0  0  0  0  0  0  0  0  0  0  0
   42.3280   33.7160   35.7600 H   0  0  0  0  0  0  0  0  0  0  0  0
   42.7050   31.1020   36.6360 O   0  0  0  0  0  0  0  0  0  0  0  0
   43.4010   30.4290   36.9120 H   0  0  0  0  0  0  0  0  0  0  0  0
   36.6730   31.2350   38.6060 O   0  0  0  0  0  0  0  0  0  0  0  0
   37.3190   31.8970   39.8190 P   0  0  2  0  0  0  0  0  0  0  0  0
   36.9960   33.5550   39.8470 O   0  0  0  0  0  0  0  0  0  0  0  0
   37.7700   34.0880   40.1510 H   0  0  0  0  0  0  0  0  0  0  0  0
   36.7140   31.1420   41.2020 O   0  0  0  0  0  0  0  0  0  0  0  0
   38.6530   28.7270   42.9490 C   0  0  0  0  0  0  0  0  0  0  0  0
   37.9790   27.4950   42.7320 C   0  0  0  0  0  0  0  0  0  0  0  0
   36.8170   27.5720   41.9430 C   0  0  0  0  0  0  0  0  0  0  0  0
   36.4190   28.7810   41.4500 N   0  0  0  0  0  0  0  0  0  0  0  0
   37.1080   29.9050   41.6970 C   0  0  0  0  0  0  0  0  0  0  0  0
   38.2230   29.8840   42.4440 N   0  0  0  0  0  0  0  0  0  0  0  0
   39.5550   28.6660   43.5610 H   0  0  0  0  0  0  0  0  0  0  0  0
   38.3440   26.5650   43.1500 H   0  0  0  0  0  0  0  0  0  0  0  0
   36.2590   26.6710   41.7410 H   0  0  0  0  0  0  0  0  0  0  0  0
  1 18  1  0  0  0  0
  1  2  1  0  0  0  0
  2  3  1  0  0  0  0
  4  2  1  0  0  0  0
  5 11  1  6  0  0  0
  5  6  1  0  0  0  0
  6  2  1  6  0  0  0
  7  6  1  0  0  0  0
  8  7  1  0  0  0  0
  9 13  1  6  0  0  0
  9 10  1  0  0  0  0
  9  8  1  0  0  0  0
 10 15  1  6  0  0  0
 10  5  1  0  0  0  0
 12 11  1  0  0  0  0
 14 13  1  0  0  0  0
 15 16  1  0  0  0  0
 18 17  2  6  0  0  0
 18 19  1  0  0  0  0
 18 21  1  0  0  0  0
 19 20  1  0  0  0  0
 21 26  1  0  0  0  0
 22 28  1  0  0  0  0
 23 22  1  0  0  0  0
 23 29  1  0  0  0  0
 24 23  2  0  0  0  0
 25 26  2  0  0  0  0
 25 24  1  0  0  0  0
 26 27  1  0  0  0  0
 27 22  2  0  0  0  0
 30 24  1  0  0  0  0
M  END
>  <minimizedAffinity>
-5.92255306

$$$$

 OpenBabel03252505313D

 30 31  0  0  1  0  0  0  0  0999 V2000
   36.3020   30.4800   38.8570 O   0  0  0  0  0  0  0  0  0  0  0  0
   36.9240   31.6120   39.3600 C   0  0  0  0  0  0  0  0  0  0  0  0
   36.7280   31.6820   40.4490 H   0  0  0  0  0  0  0  0  0  0  0  0
   36.5320   32.4990   38.8260 H   0  0  0  0  0  0  0  0  0  0  0  0
   38.6490   30.6290   37.8500 C   0  0  2  0  0  3  0  0  0  0  0  0
   38.4000   31.4940   39.0660 C   0  0  1  0  0  3  0  0  0  0  0  0
   39.0420   32.7060   39.0010 O   0  0  0  0  0  0  0  0  0  0  0  0
   40.4100   32.5360   39.0020 C   0  0  0  0  0  2  0  0  0  0  0  0
   40.7760   31.7870   37.7360 C   0  0  1  0  0  3  0  0  0  0  0  0
   40.1630   30.4150   37.8430 C   0  0  2  0  0  3  0  0  0  0  0  0
   38.2620   31.3320   36.6920 O   0  0  0  0  0  0  0  0  0  0  0  0
   38.2890   30.7020   35.9350 H   0  0  0  0  0  0  0  0  0  0  0  0
   40.1730   32.4790   36.6730 O   0  0  0  0  0  0  0  0  0  0  0  0
   40.5020   32.1130   35.7930 H   0  0  0  0  0  0  0  0  0  0  0  0
   40.5780   29.5440   36.8600 O   0  0  0  0  0  0  0  0  0  0  0  0
   41.1740   28.8660   37.3090 H   0  0  0  0  0  0  0  0  0  0  0  0
   34.1750   29.2880   39.6710 O   0  0  0  0  0  0  0  0  0  0  0  0
   35.5820   29.6600   40.1270 P   0  0  2  0  0  0  0  0  0  0  0  0
   35.5320   30.6940   41.4630 O   0  0  0  0  0  0  0  0  0  0  0  0
   36.2270   31.3950   41.4260 H   0  0  0  0  0  0  0  0  0  0  0  0
   36.3980   28.2310   40.5010 O   0  0  0  0  0  0  0  0  0  0  0  0
   38.4770   26.6270   42.8990 C   0  0  0  0  0  0  0  0  0  0  0  0
   39.2910   27.6660   43.4260 C   0  0  0  0  0  0  0  0  0  0  0  0
   39.0610   28.9460   42.8890 C   0  0  0  0  0  0  0  0  0  0  0  0
   38.1050   29.1090   41.9280 N   0  0  0  0  0  0  0  0  0  0  0  0
   37.3730   28.0780   41.4790 C   0  0  0  0  0  0  0  0  0  0  0  0
   37.5550   26.8390   41.9590 N   0  0  0  0  0  0  0  0  0  0  0  0
   38.6570   25.6350   43.3160 H   0  0  0  0  0  0  0  0  0  0  0  0
   40.0350   27.4750   44.1900 H   0  0  0  0  0  0  0  0  0  0  0  0
   39.6460   29.7790   43.2480 H   0  0  0  0  0  0  0  0  0  0  0  0
  1  2  1  0  0  0  0
  1 18  1  0  0  0  0
  2  3  1  0  0  0  0
  4  2  1  0  0  0  0
  5 11  1  6  0  0  0
  5  6  1  0  0  0  0
  6  2  1  6  0  0  0
  7  8  1  0  0  0  0
  7  6  1  0  0  0  0
  9 13  1  6  0  0  0
  9 10  1  0  0  0  0
  9  8  1  0  0  0  0
 10 15  1  6  0  0  0
 10  5  1  0  0  0  0
 12 11  1  0  0  0  0
 14 13  1  0  0  0  0
 15 16  1  0  0  0  0
 18 17  2  6  0  0  0
 18 21  1  0  0  0  0
 18 19  1  0  0  0  0
 20 19  1  0  0  0  0
 21 26  1  0  0  0  0
 22 28  1  0  0  0  0
 22 23  1  0  0  0  0
 23 29  1  0  0  0  0
 24 30  1  0  0  0  0
 24 23  2  0  0  0  0
 25 24  1  0  0  0  0
 26 25  2  0  0  0  0
 26 27  1  0  0  0  0
 27 22  2  0  0  0  0
M  END
>  <minimizedAffinity>
-5.71424913

$$$$

 OpenBabel03252505313D

 30 31  0  0  1  0  0  0  0  0999 V2000
   36.1680   30.0740   38.5020 O   0  0  0  0  0  0  0  0  0  0  0  0
   37.3900   29.4390   38.3400 C   0  0  0  0  0  0  0  0  0  0  0  0
   37.4920   29.1090   37.2870 H   0  0  0  0  0  0  0  0  0  0  0  0
   37.4360   28.5780   39.0350 H   0  0  0  0  0  0  0  0  0  0  0  0
   38.8120   31.3400   37.5740 C   0  0  2  0  0  3  0  0  0  0  0  0
   38.4700   30.4200   38.7250 C   0  0  1  0  0  3  0  0  0  0  0  0
   38.2010   31.0970   39.8900 O   0  0  0  0  0  0  0  0  0  0  0  0
   39.3200   31.7690   40.3350 C   0  0  0  0  0  2  0  0  0  0  0  0
   39.6650   32.8170   39.2970 C   0  0  1  0  0  3  0  0  0  0  0  0
   40.0630   32.0820   38.0430 C   0  0  2  0  0  3  0  0  0  0  0  0
   37.7590   32.2560   37.3810 O   0  0  0  0  0  0  0  0  0  0  0  0
   37.9310   32.7390   36.5410 H   0  0  0  0  0  0  0  0  0  0  0  0
   38.4860   33.5400   39.0520 O   0  0  0  0  0  0  0  0  0  0  0  0
   38.6890   34.3450   38.4790 H   0  0  0  0  0  0  0  0  0  0  0  0
   40.6020   32.8970   37.0710 O   0  0  0  0  0  0  0  0  0  0  0  0
   41.5840   32.6760   37.0230 H   0  0  0  0  0  0  0  0  0  0  0  0
   33.9770   29.2080   39.5330 O   0  0  0  0  0  0  0  0  0  0  0  0
   35.4370   29.4740   39.8850 P   0  0  2  0  0  0  0  0  0  0  0  0
   35.5640   30.6430   41.0990 O   0  0  0  0  0  0  0  0  0  0  0  0
   36.3230   31.2590   40.9550 H   0  0  0  0  0  0  0  0  0  0  0  0
   36.1240   28.0140   40.3810 O   0  0  0  0  0  0  0  0  0  0  0  0
   38.0630   26.3230   42.8350 C   0  0  0  0  0  0  0  0  0  0  0  0
   38.5850   27.3570   43.6600 C   0  0  0  0  0  0  0  0  0  0  0  0
   38.2140   28.6650   43.2980 C   0  0  0  0  0  0  0  0  0  0  0  0
   37.4030   28.8580   42.2160 N   0  0  0  0  0  0  0  0  0  0  0  0
   36.9480   27.8310   41.4840 C   0  0  0  0  0  0  0  0  0  0  0  0
   37.2740   26.5650   41.7880 N   0  0  0  0  0  0  0  0  0  0  0  0
   38.3520   25.3100   43.1170 H   0  0  0  0  0  0  0  0  0  0  0  0
   39.2240   27.1420   44.5070 H   0  0  0  0  0  0  0  0  0  0  0  0
   38.5770   29.4950   43.8840 H   0  0  0  0  0  0  0  0  0  0  0  0
  1 18  1  0  0  0  0
  2  1  1  0  0  0  0
  2  4  1  0  0  0  0
  3  2  1  0  0  0  0
  5 11  1  1  0  0  0
  5 10  1  0  0  0  0
  5  6  1  0  0  0  0
  6  2  1  6  0  0  0
  6  7  1  0  0  0  0
  7  8  1  0  0  0  0
  9 13  1  6  0  0  0
  9  8  1  0  0  0  0
 10 15  1  6  0  0  0
 10  9  1  0  0  0  0
 12 11  1  0  0  0  0
 14 13  1  0  0  0  0
 16 15  1  0  0  0  0
 18 17  2  6  0  0  0
 18 21  1  0  0  0  0
 18 19  1  0  0  0  0
 20 19  1  0  0  0  0
 21 26  1  0  0  0  0
 22 28  1  0  0  0  0
 22 23  1  0  0  0  0
 23 29  1  0  0  0  0
 24 23  2  0  0  0  0
 24 30  1  0  0  0  0
 25 24  1  0  0  0  0
 26 27  1  0  0  0  0
 26 25  2  0  0  0  0
 27 22  2  0  0  0  0
M  END
>  <minimizedAffinity>
-5.65405035

$$$$

 OpenBabel03252505313D

 30 31  0  0  1  0  0  0  0  0999 V2000
   38.0540   29.4010   40.3540 O   0  0  0  0  0  0  0  0  0  0  0  0
   38.8000   30.2000   41.2070 C   0  0  0  0  0  0  0  0  0  0  0  0
   39.4030   29.5550   41.8760 H   0  0  0  0  0  0  0  0  0  0  0  0
   38.1070   30.8410   41.7870 H   0  0  0  0  0  0  0  0  0  0  0  0
   39.0220   31.3780   39.0190 C   0  0  2  0  0  3  0  0  0  0  0  0
   39.6710   31.0910   40.3550 C   0  0  1  0  0  3  0  0  0  0  0  0
   40.0880   32.2270   41.0030 O   0  0  0  0  0  0  0  0  0  0  0  0
   41.0840   32.8610   40.2910 C   0  0  0  0  0  2  0  0  0  0  0  0
   40.4850   33.3120   38.9740 C   0  0  1  0  0  3  0  0  0  0  0  0
   40.1190   32.0670   38.2070 C   0  0  2  0  0  3  0  0  0  0  0  0
   37.9420   32.2640   39.2080 O   0  0  0  0  0  0  0  0  0  0  0  0
   37.4450   32.3170   38.3600 H   0  0  0  0  0  0  0  0  0  0  0  0
   39.3140   34.0200   39.2890 O   0  0  0  0  0  0  0  0  0  0  0  0
   38.9500   34.4690   38.4630 H   0  0  0  0  0  0  0  0  0  0  0  0
   39.7500   32.3090   36.9020 O   0  0  0  0  0  0  0  0  0  0  0  0
   40.4940   31.9550   36.3230 H   0  0  0  0  0  0  0  0  0  0  0  0
   35.7820   28.2240   40.1040 O   0  0  0  0  0  0  0  0  0  0  0  0
   36.5940   29.0500   41.0960 P   0  0  2  0  0  0  0  0  0  0  0  0
   35.8170   30.5090   41.4490 O   0  0  0  0  0  0  0  0  0  0  0  0
   36.4480   31.2640   41.5350 H   0  0  0  0  0  0  0  0  0  0  0  0
   36.8010   28.1240   42.4920 O   0  0  0  0  0  0  0  0  0  0  0  0
   39.6570   26.3710   43.6790 C   0  0  0  0  0  0  0  0  0  0  0  0
   39.5800   25.0930   43.0610 C   0  0  0  0  0  0  0  0  0  0  0  0
   38.4740   24.8950   42.2160 C   0  0  0  0  0  0  0  0  0  0  0  0
   37.5720   25.9050   42.0420 N   0  0  0  0  0  0  0  0  0  0  0  0
   37.7110   27.0890   42.6600 C   0  0  0  0  0  0  0  0  0  0  0  0
   38.7490   27.3260   43.4760 N   0  0  0  0  0  0  0  0  0  0  0  0
   40.5160   26.5220   44.3350 H   0  0  0  0  0  0  0  0  0  0  0  0
   40.3280   24.3300   43.2370 H   0  0  0  0  0  0  0  0  0  0  0  0
   38.3580   23.9450   41.7160 H   0  0  0  0  0  0  0  0  0  0  0  0
  1 18  1  0  0  0  0
  1  2  1  0  0  0  0
  2  4  1  0  0  0  0
  2  3  1  0  0  0  0
  5 11  1  1  0  0  0
  5  6  1  0  0  0  0
  6  7  1  0  0  0  0
  6  2  1  1  0  0  0
  8  7  1  0  0  0  0
  9 13  1  1  0  0  0
  9  8  1  0  0  0  0
 10 15  1  6  0  0  0
 10  9  1  0  0  0  0
 10  5  1  0  0  0  0
 12 11  1  0  0  0  0
 14 13  1  0  0  0  0
 16 15  1  0  0  0  0
 18 17  2  6  0  0  0
 18 19  1  0  0  0  0
 18 21  1  0  0  0  0
 19 20  1  0  0  0  0
 21 26  1  0  0  0  0
 22 28  1  0  0  0  0
 23 29  1  0  0  0  0
 23 22  2  0  0  0  0
 24 23  1  0  0  0  0
 25 24  2  0  0  0  0
 25 26  1  0  0  0  0
 26 27  2  0  0  0  0
 27 22  1  0  0  0  0
 30 24  1  0  0  0  0
M  END
>  <minimizedAffinity>
-5.50791597

$$$$

 OpenBabel03252505313D

 30 31  0  0  1  0  0  0  0  0999 V2000
   38.5170   30.3000   41.7840 O   0  0  0  0  0  0  0  0  0  0  0  0
   39.4910   29.7840   40.9430 C   0  0  0  0  0  0  0  0  0  0  0  0
   39.0230   29.0650   40.2420 H   0  0  0  0  0  0  0  0  0  0  0  0
   40.2670   29.2920   41.5610 H   0  0  0  0  0  0  0  0  0  0  0  0
   39.4590   31.1820   38.8770 C   0  0  2  0  0  3  0  0  0  0  0  0
   40.1260   30.9420   40.2130 C   0  0  1  0  0  3  0  0  0  0  0  0
   40.2220   32.0800   40.9750 O   0  0  0  0  0  0  0  0  0  0  0  0
   41.0410   33.0090   40.3680 C   0  0  0  0  0  2  0  0  0  0  0  0
   40.3790   33.4170   39.0670 C   0  0  1  0  0  3  0  0  0  0  0  0
   40.3630   32.1980   38.1800 C   0  0  2  0  0  3  0  0  0  0  0  0
   38.1840   31.7440   39.0880 O   0  0  0  0  0  0  0  0  0  0  0  0
   37.7110   31.7500   38.2240 H   0  0  0  0  0  0  0  0  0  0  0  0
   39.0590   33.7730   39.3840 O   0  0  0  0  0  0  0  0  0  0  0  0
   38.6130   34.1920   38.5830 H   0  0  0  0  0  0  0  0  0  0  0  0
   39.9770   32.4620   36.8840 O   0  0  0  0  0  0  0  0  0  0  0  0
   40.8020   32.3630   36.3130 H   0  0  0  0  0  0  0  0  0  0  0  0
   36.0580   30.3810   41.0370 O   0  0  0  0  0  0  0  0  0  0  0  0
   37.1100   29.4160   41.5730 P   0  0  2  0  0  0  0  0  0  0  0  0
   36.6500   28.7900   43.0740 O   0  0  0  0  0  0  0  0  0  0  0  0
   37.4110   28.7000   43.6980 H   0  0  0  0  0  0  0  0  0  0  0  0
   37.3030   28.1810   40.4390 O   0  0  0  0  0  0  0  0  0  0  0  0
   37.2740   25.0580   42.1380 C   0  0  0  0  0  0  0  0  0  0  0  0
   36.7120   24.1430   41.2060 C   0  0  0  0  0  0  0  0  0  0  0  0
   36.3510   24.6920   39.9630 C   0  0  0  0  0  0  0  0  0  0  0  0
   36.5540   26.0220   39.7310 N   0  0  0  0  0  0  0  0  0  0  0  0
   37.0910   26.8260   40.6620 C   0  0  0  0  0  0  0  0  0  0  0  0
   37.4520   26.3500   41.8630 N   0  0  0  0  0  0  0  0  0  0  0  0
   37.5520   24.6300   43.1030 H   0  0  0  0  0  0  0  0  0  0  0  0
   36.5750   23.0960   41.4470 H   0  0  0  0  0  0  0  0  0  0  0  0
   35.9190   24.0500   39.2100 H   0  0  0  0  0  0  0  0  0  0  0  0
  2  4  1  0  0  0  0
  2  1  1  0  0  0  0
  3  2  1  0  0  0  0
  5 11  1  1  0  0  0
  5  6  1  0  0  0  0
  6  2  1  1  0  0  0
  6  7  1  0  0  0  0
  8  7  1  0  0  0  0
  9 13  1  1  0  0  0
  9  8  1  0  0  0  0
 10 15  1  6  0  0  0
 10  5  1  0  0  0  0
 10  9  1  0  0  0  0
 12 11  1  0  0  0  0
 14 13  1  0  0  0  0
 16 15  1  0  0  0  0
 18 17  2  6  0  0  0
 18  1  1  0  0  0  0
 18 19  1  0  0  0  0
 19 20  1  0  0  0  0
 21 26  1  0  0  0  0
 21 18  1  0  0  0  0
 22 28  1  0  0  0  0
 23 29  1  0  0  0  0
 23 22  2  0  0  0  0
 24 23  1  0  0  0  0
 25 24  2  0  0  0  0
 25 26  1  0  0  0  0
 26 27  2  0  0  0  0
 27 22  1  0  0  0  0
 30 24  1  0  0  0  0
M  END
>  <minimizedAffinity>
-5.16345072

$$$$

 OpenBabel03252505313D

 30 31  0  0  1  0  0  0  0  0999 V2000
   36.9890   28.1290   41.1590 O   0  0  0  0  0  0  0  0  0  0  0  0
   35.8820   28.9540   41.0380 C   0  0  0  0  0  0  0  0  0  0  0  0
   35.6270   29.3700   42.0340 H   0  0  0  0  0  0  0  0  0  0  0  0
   35.0420   28.3610   40.6260 H   0  0  0  0  0  0  0  0  0  0  0  0
   36.7720   31.2670   40.7510 C   0  0  2  0  0  3  0  0  0  0  0  0
   36.2260   30.0420   40.0510 C   0  0  1  0  0  3  0  0  0  0  0  0
   37.0280   29.6110   39.0230 O   0  0  0  0  0  0  0  0  0  0  0  0
   37.0900   30.5550   38.0200 C   0  0  0  0  0  2  0  0  0  0  0  0
   37.7540   31.7890   38.5970 C   0  0  1  0  0  3  0  0  0  0  0  0
   36.8310   32.3330   39.6570 C   0  0  2  0  0  3  0  0  0  0  0  0
   38.0720   30.9940   41.2210 O   0  0  0  0  0  0  0  0  0  0  0  0
   38.3460   31.7420   41.7990 H   0  0  0  0  0  0  0  0  0  0  0  0
   38.9450   31.3560   39.2020 O   0  0  0  0  0  0  0  0  0  0  0  0
   39.5020   32.1510   39.4740 H   0  0  0  0  0  0  0  0  0  0  0  0
   37.2010   33.5720   40.1320 O   0  0  0  0  0  0  0  0  0  0  0  0
   36.5220   34.2280   39.7820 H   0  0  0  0  0  0  0  0  0  0  0  0
   36.2510   26.8420   43.2590 O   0  0  0  0  0  0  0  0  0  0  0  0
   37.2800   27.8640   42.7870 P   0  0  2  0  0  0  0  0  0  0  0  0
   37.0930   29.3320   43.6030 O   0  0  0  0  0  0  0  0  0  0  0  0
   37.2340   30.1140   43.0150 H   0  0  0  0  0  0  0  0  0  0  0  0
   38.8150   27.2160   43.0580 O   0  0  0  0  0  0  0  0  0  0  0  0
   42.2400   27.9400   43.6780 C   0  0  0  0  0  0  0  0  0  0  0  0
   42.4370   29.2430   43.1440 C   0  0  0  0  0  0  0  0  0  0  0  0
   41.3030   29.8370   42.5620 C   0  0  0  0  0  0  0  0  0  0  0  0
   40.1210   29.1530   42.5450 N   0  0  0  0  0  0  0  0  0  0  0  0
   40.0100   27.9230   43.0700 C   0  0  0  0  0  0  0  0  0  0  0  0
   41.0630   27.3140   43.6360 N   0  0  0  0  0  0  0  0  0  0  0  0
   43.1220   27.4820   44.1280 H   0  0  0  0  0  0  0  0  0  0  0  0
   43.4000   29.7360   43.1870 H   0  0  0  0  0  0  0  0  0  0  0  0
   41.3860   30.8260   42.1390 H   0  0  0  0  0  0  0  0  0  0  0  0
  1 18  1  0  0  0  0
  2  1  1  0  0  0  0
  2  3  1  0  0  0  0
  4  2  1  0  0  0  0
  5 11  1  6  0  0  0
  6  5  1  0  0  0  0
  6  2  1  1  0  0  0
  7  6  1  0  0  0  0
  8  9  1  0  0  0  0
  8  7  1  0  0  0  0
  9 13  1  1  0  0  0
  9 10  1  0  0  0  0
 10 15  1  1  0  0  0
 10  5  1  0  0  0  0
 11 12  1  0  0  0  0
 13 14  1  0  0  0  0
 16 15  1  0  0  0  0
 18 21  1  0  0  0  0
 18 17  2  1  0  0  0
 18 19  1  0  0  0  0
 20 19  1  0  0  0  0
 21 26  1  0  0  0  0
 22 28  1  0  0  0  0
 23 29  1  0  0  0  0
 23 22  2  0  0  0  0
 24 23  1  0  0  0  0
 25 24  2  0  0  0  0
 25 26  1  0  0  0  0
 26 27  2  0  0  0  0
 27 22  1  0  0  0  0
 30 24  1  0  0  0  0
M  END
>  <minimizedAffinity>
-5.08877134

$$$$

 OpenBabel03252505313D

 30 31  0  0  1  0  0  0  0  0999 V2000
   36.0970   28.2660   41.9010 O   0  0  0  0  0  0  0  0  0  0  0  0
   37.0000   27.6400   42.7470 C   0  0  0  0  0  0  0  0  0  0  0  0
   36.4860   27.3670   43.6900 H   0  0  0  0  0  0  0  0  0  0  0  0
   37.8430   28.3320   42.9370 H   0  0  0  0  0  0  0  0  0  0  0  0
   39.0430   26.3620   42.1040 C   0  0  2  0  0  3  0  0  0  0  0  0
   37.5330   26.4250   42.0280 C   0  0  1  0  0  3  0  0  0  0  0  0
   36.9280   25.2540   42.4140 O   0  0  0  0  0  0  0  0  0  0  0  0
   37.2520   24.2280   41.5510 C   0  0  0  0  0  2  0  0  0  0  0  0
   38.7450   23.9970   41.6590 C   0  0  1  0  0  3  0  0  0  0  0  0
   39.4220   25.2390   41.1380 C   0  0  2  0  0  3  0  0  0  0  0  0
   39.4290   26.0150   43.4140 O   0  0  0  0  0  0  0  0  0  0  0  0
   40.4050   26.1280   43.4790 H   0  0  0  0  0  0  0  0  0  0  0  0
   39.0310   23.8550   43.0260 O   0  0  0  0  0  0  0  0  0  0  0  0
   39.9850   23.5540   43.1490 H   0  0  0  0  0  0  0  0  0  0  0  0
   40.7850   25.1030   40.9800 O   0  0  0  0  0  0  0  0  0  0  0  0
   40.9580   25.0860   39.9880 H   0  0  0  0  0  0  0  0  0  0  0  0
   37.9670   29.9960   42.2480 O   0  0  0  0  0  0  0  0  0  0  0  0
   36.7970   29.6740   41.3240 P   0  0  2  0  0  0  0  0  0  0  0  0
   35.6340   30.8990   41.3680 O   0  0  0  0  0  0  0  0  0  0  0  0
   34.7110   30.5480   41.3370 H   0  0  0  0  0  0  0  0  0  0  0  0
   37.4100   29.4810   39.7630 O   0  0  0  0  0  0  0  0  0  0  0  0
   36.6720   29.3380   36.2880 C   0  0  0  0  0  0  0  0  0  0  0  0
   35.2640   29.1540   36.2230 C   0  0  0  0  0  0  0  0  0  0  0  0
   34.6060   29.0860   37.4640 C   0  0  0  0  0  0  0  0  0  0  0  0
   35.3300   29.1960   38.6160 N   0  0  0  0  0  0  0  0  0  0  0  0
   36.6610   29.3680   38.5980 C   0  0  0  0  0  0  0  0  0  0  0  0
   37.3350   29.4400   37.4410 N   0  0  0  0  0  0  0  0  0  0  0  0
   37.1810   29.3900   35.3240 H   0  0  0  0  0  0  0  0  0  0  0  0
   34.7430   29.0740   35.2770 H   0  0  0  0  0  0  0  0  0  0  0  0
   33.5350   28.9480   37.4840 H   0  0  0  0  0  0  0  0  0  0  0  0
  1  2  1  0  0  0  0
  2  4  1  0  0  0  0
  2  3  1  0  0  0  0
  5 11  1  1  0  0  0
  6  5  1  0  0  0  0
  6  7  1  0  0  0  0
  6  2  1  1  0  0  0
  8  9  1  0  0  0  0
  8  7  1  0  0  0  0
  9 13  1  1  0  0  0
 10 15  1  1  0  0  0
 10  9  1  0  0  0  0
 10  5  1  0  0  0  0
 11 12  1  0  0  0  0
 13 14  1  0  0  0  0
 16 15  1  0  0  0  0
 18 19  1  0  0  0  0
 18  1  1  0  0  0  0
 18 17  2  1  0  0  0
 20 19  1  0  0  0  0
 21 18  1  0  0  0  0
 22 27  1  0  0  0  0
 23 22  2  0  0  0  0
 23 24  1  0  0  0  0
 24 30  1  0  0  0  0
 24 25  2  0  0  0  0
 26 25  1  0  0  0  0
 26 21  1  0  0  0  0
 27 26  2  0  0  0  0
 28 22  1  0  0  0  0
 29 23  1  0  0  0  0
M  END
>  <minimizedAffinity>
-5.05832243

$$$$

 OpenBabel03252505313D

 30 31  0  0  1  0  0  0  0  0999 V2000
   37.3690   29.1780   42.6780 O   0  0  0  0  0  0  0  0  0  0  0  0
   36.6470   27.9980   42.5910 C   0  0  0  0  0  0  0  0  0  0  0  0
   36.2150   27.9090   41.5750 H   0  0  0  0  0  0  0  0  0  0  0  0
   35.8520   28.0120   43.3630 H   0  0  0  0  0  0  0  0  0  0  0  0
   37.5040   25.7770   41.8480 C   0  0  2  0  0  3  0  0  0  0  0  0
   37.5890   26.8610   42.9000 C   0  0  1  0  0  3  0  0  0  0  0  0
   38.8770   27.2700   43.1430 O   0  0  0  0  0  0  0  0  0  0  0  0
   39.6260   26.2430   43.6770 C   0  0  0  0  0  2  0  0  0  0  0  0
   39.7120   25.1510   42.6310 C   0  0  1  0  0  3  0  0  0  0  0  0
   38.3160   24.6200   42.4310 C   0  0  2  0  0  3  0  0  0  0  0  0
   38.1100   26.2320   40.6600 O   0  0  0  0  0  0  0  0  0  0  0  0
   37.9110   25.5790   39.9510 H   0  0  0  0  0  0  0  0  0  0  0  0
   40.1450   25.7660   41.4450 O   0  0  0  0  0  0  0  0  0  0  0  0
   40.3610   25.0660   40.7530 H   0  0  0  0  0  0  0  0  0  0  0  0
   38.2610   23.4810   41.6580 O   0  0  0  0  0  0  0  0  0  0  0  0
   38.0220   22.7240   42.2790 H   0  0  0  0  0  0  0  0  0  0  0  0
   38.2850   31.0320   41.1500 O   0  0  0  0  0  0  0  0  0  0  0  0
   37.1160   30.0600   41.2770 P   0  0  2  0  0  0  0  0  0  0  0  0
   35.6520   30.8890   41.4310 O   0  0  0  0  0  0  0  0  0  0  0  0
   35.0360   30.4560   42.0710 H   0  0  0  0  0  0  0  0  0  0  0  0
   37.1100   29.0780   39.9040 O   0  0  0  0  0  0  0  0  0  0  0  0
   35.6100   29.1140   36.6800 C   0  0  0  0  0  0  0  0  0  0  0  0
   34.2190   28.9610   36.9260 C   0  0  0  0  0  0  0  0  0  0  0  0
   33.8530   28.8460   38.2790 C   0  0  0  0  0  0  0  0  0  0  0  0
   34.8190   28.8870   39.2430 N   0  0  0  0  0  0  0  0  0  0  0  0
   36.1170   29.0350   38.9340 C   0  0  0  0  0  0  0  0  0  0  0  0
   36.5170   29.1480   37.6580 N   0  0  0  0  0  0  0  0  0  0  0  0
   35.8920   29.2030   35.6300 H   0  0  0  0  0  0  0  0  0  0  0  0
   33.4970   28.9350   36.1190 H   0  0  0  0  0  0  0  0  0  0  0  0
   32.8100   28.7270   38.5330 H   0  0  0  0  0  0  0  0  0  0  0  0
  2  1  1  0  0  0  0
  2  4  1  0  0  0  0
  3  2  1  0  0  0  0
  5 11  1  6  0  0  0
  5 10  1  0  0  0  0
  5  6  1  0  0  0  0
  6  2  1  6  0  0  0
  6  7  1  0  0  0  0
  7  8  1  0  0  0  0
  9 13  1  6  0  0  0
  9  8  1  0  0  0  0
 10 15  1  6  0  0  0
 10  9  1  0  0  0  0
 12 11  1  0  0  0  0
 14 13  1  0  0  0  0
 15 16  1  0  0  0  0
 18 17  2  6  0  0  0
 18 19  1  0  0  0  0
 18  1  1  0  0  0  0
 19 20  1  0  0  0  0
 21 18  1  0  0  0  0
 22 23  2  0  0  0  0
 22 27  1  0  0  0  0
 23 24  1  0  0  0  0
 24 30  1  0  0  0  0
 24 25  2  0  0  0  0
 26 25  1  0  0  0  0
 26 21  1  0  0  0  0
 27 26  2  0  0  0  0
 28 22  1  0  0  0  0
 29 23  1  0  0  0  0
M  END
>  <minimizedAffinity>
-5.05711317

$$$$

 OpenBabel03252505313D

 30 31  0  0  1  0  0  0  0  0999 V2000
   37.5370   28.5540   38.9310 O   0  0  0  0  0  0  0  0  0  0  0  0
   36.4660   28.1070   39.6890 C   0  0  0  0  0  0  0  0  0  0  0  0
   36.0040   27.2330   39.1880 H   0  0  0  0  0  0  0  0  0  0  0  0
   35.7390   28.9350   39.7970 H   0  0  0  0  0  0  0  0  0  0  0  0
   38.2870   28.4720   41.3530 C   0  0  2  0  0  3  0  0  0  0  0  0
   36.9900   27.7520   41.0590 C   0  0  1  0  0  3  0  0  0  0  0  0
   36.0570   27.9010   42.0550 O   0  0  0  0  0  0  0  0  0  0  0  0
   36.4920   27.3160   43.2260 C   0  0  0  0  0  2  0  0  0  0  0  0
   37.7290   28.0670   43.6780 C   0  0  1  0  0  3  0  0  0  0  0  0
   38.7960   27.8240   42.6410 C   0  0  2  0  0  3  0  0  0  0  0  0
   38.0210   29.8380   41.5800 O   0  0  0  0  0  0  0  0  0  0  0  0
   38.8840   30.3100   41.6180 H   0  0  0  0  0  0  0  0  0  0  0  0
   37.3900   29.4300   43.6800 O   0  0  0  0  0  0  0  0  0  0  0  0
   38.1260   29.9670   44.1110 H   0  0  0  0  0  0  0  0  0  0  0  0
   40.0430   28.2740   43.0140 O   0  0  0  0  0  0  0  0  0  0  0  0
   40.6030   27.4550   43.1910 H   0  0  0  0  0  0  0  0  0  0  0  0
   35.6680   29.2120   37.2920 O   0  0  0  0  0  0  0  0  0  0  0  0
   36.9840   29.7250   37.8690 P   0  0  2  0  0  0  0  0  0  0  0  0
   38.1410   29.9260   36.6540 O   0  0  0  0  0  0  0  0  0  0  0  0
   39.0470   29.6580   36.9450 H   0  0  0  0  0  0  0  0  0  0  0  0
   36.6690   31.1890   38.6490 O   0  0  0  0  0  0  0  0  0  0  0  0
   39.8560   32.4750   39.5600 C   0  0  0  0  0  0  0  0  0  0  0  0
   39.5900   33.7760   40.0680 C   0  0  0  0  0  0  0  0  0  0  0  0
   38.2370   34.1610   40.0670 C   0  0  0  0  0  0  0  0  0  0  0  0
   37.2920   33.2940   39.5970 N   0  0  0  0  0  0  0  0  0  0  0  0
   37.6200   32.0790   39.1310 C   0  0  0  0  0  0  0  0  0  0  0  0
   38.8960   31.6660   39.1100 N   0  0  0  0  0  0  0  0  0  0  0  0
   40.9060   32.1790   39.5600 H   0  0  0  0  0  0  0  0  0  0  0  0
   40.3830   34.4190   40.4290 H   0  0  0  0  0  0  0  0  0  0  0  0
   37.9680   35.1370   40.4410 H   0  0  0  0  0  0  0  0  0  0  0  0
  1  2  1  0  0  0  0
  2  4  1  0  0  0  0
  3  2  1  0  0  0  0
  5 11  1  1  0  0  0
  5 10  1  0  0  0  0
  6  2  1  6  0  0  0
  6  5  1  0  0  0  0
  6  7  1  0  0  0  0
  7  8  1  0  0  0  0
  8  9  1  0  0  0  0
  9 13  1  6  0  0  0
 10 15  1  1  0  0  0
 10  9  1  0  0  0  0
 11 12  1  0  0  0  0
 13 14  1  0  0  0  0
 15 16  1  0  0  0  0
 18 17  2  6  0  0  0
 18 21  1  0  0  0  0
 18  1  1  0  0  0  0
 19 20  1  0  0  0  0
 19 18  1  0  0  0  0
 21 26  1  0  0  0  0
 22 23  1  0  0  0  0
 23 29  1  0  0  0  0
 24 23  2  0  0  0  0
 24 30  1  0  0  0  0
 25 24  1  0  0  0  0
 26 25  2  0  0  0  0
 27 26  1  0  0  0  0
 27 22  2  0  0  0  0
 28 22  1  0  0  0  0
M  END
>  <minimizedAffinity>
-5.03647232

$$$$
