
 OpenBabel03252505433D

 45 48  0  0  1  0  0  0  0  0999 V2000
   42.7340   34.8660   40.2730 C   0  0  0  0  0  0  0  0  0  0  0  0
   42.6110   35.1830   38.9410 C   0  0  0  0  0  0  0  0  0  0  0  0
   41.4350   35.0650   38.2490 C   0  0  0  0  0  0  0  0  0  0  0  0
   40.3490   34.6130   38.9250 N   0  0  0  0  0  0  0  0  0  0  0  0
   40.4550   34.2930   40.2480 C   0  0  0  0  0  0  0  0  0  0  0  0
   41.6200   34.4150   40.9180 N   0  0  0  0  0  0  0  0  0  0  0  0
   43.4690   35.5380   38.4100 H   0  0  0  0  0  0  0  0  0  0  0  0
   41.3430   35.3180   37.1950 H   0  0  0  0  0  0  0  0  0  0  0  0
   43.9960   34.6450   42.3900 C   0  0  1  0  0  0  0  0  0  0  0  0
   44.1860   36.1460   41.9810 C   0  0  0  0  0  0  0  0  0  0  0  0
   44.0550   34.9860   41.0000 C   0  0  2  0  0  0  0  0  0  0  0  0
   43.0060   34.5060   42.9040 H   0  0  0  0  0  0  0  0  0  0  0  0
   45.1930   36.5690   42.1410 H   0  0  0  0  0  0  0  0  0  0  0  0
   43.3050   36.7970   42.0330 H   0  0  0  0  0  0  0  0  0  0  0  0
   44.8920   34.9000   40.3100 H   0  0  0  0  0  0  0  0  0  0  0  0
   45.1310   34.0920   43.1600 C   0  0  0  0  0  0  0  0  0  0  0  0
   46.3770   33.9950   42.5040 C   0  0  0  0  0  0  0  0  0  0  0  0
   47.4590   33.4810   43.2050 C   0  0  0  0  0  0  0  0  0  0  0  0
   47.2600   33.0990   44.4930 N   0  0  0  0  0  0  0  0  0  0  0  0
   46.0670   33.2060   45.0810 C   0  0  0  0  0  0  0  0  0  0  0  0
   45.0310   33.7010   44.3960 N   0  0  0  0  0  0  0  0  0  0  0  0
   46.4790   34.3190   41.4670 H   0  0  0  0  0  0  0  0  0  0  0  0
   48.4500   33.3870   42.7320 H   0  0  0  0  0  0  0  0  0  0  0  0
   46.0540   32.7320   46.5090 C   0  0  0  0  0  0  0  0  0  0  0  0
   45.0860   33.3920   47.2510 F   0  0  0  0  0  0  0  0  0  0  0  0
   47.2900   33.0700   47.1070 F   0  0  0  0  0  0  0  0  0  0  0  0
   45.9530   31.3690   46.5460 F   0  0  0  0  0  0  0  0  0  0  0  0
   39.2950   33.7910   41.0090 C   0  0  0  0  0  0  0  0  0  0  0  0
   38.7040   34.7050   41.3040 H   0  0  0  0  0  0  0  0  0  0  0  0
   39.5990   33.2590   41.9080 H   0  0  0  0  0  0  0  0  0  0  0  0
   38.3770   32.9650   40.1540 C   0  0  0  0  0  0  0  0  0  0  0  0
   37.3180   33.2050   40.3230 H   0  0  0  0  0  0  0  0  0  0  0  0
   38.6590   33.1470   39.0780 H   0  0  0  0  0  0  0  0  0  0  0  0
   39.6780   30.9220   39.5640 C   0  0  1  0  0  3  0  0  0  0  0  0
   38.5550   31.5040   40.4000 C   0  0  1  0  0  3  0  0  0  0  0  0
   38.6490   31.1060   41.7010 O   0  0  0  0  0  0  0  0  0  0  0  0
   39.5420   30.0610   41.9090 C   0  0  0  0  0  2  0  0  0  0  0  0
   39.3870   28.9370   40.9390 C   0  0  2  0  0  3  0  0  0  0  0  0
   39.4650   29.4230   39.5240 C   0  0  2  0  0  3  0  0  0  0  0  0
   39.6810   31.4950   38.2960 O   0  0  0  0  0  0  0  0  0  0  0  0
   40.6230   31.7600   38.1090 H   0  0  0  0  0  0  0  0  0  0  0  0
   38.2830   28.1340   41.2070 O   0  0  0  0  0  0  0  0  0  0  0  0
   37.5940   28.1600   40.4940 H   0  0  0  0  0  0  0  0  0  0  0  0
   40.4380   28.7860   38.7600 O   0  0  0  0  0  0  0  0  0  0  0  0
   40.1280   28.8090   37.8020 H   0  0  0  0  0  0  0  0  0  0  0  0
  1  6  1  0  0  0  0
  1 11  1  0  0  0  0
  2  1  2  0  0  0  0
  3  4  2  0  0  0  0
  3  2  1  0  0  0  0
  4  5  1  0  0  0  0
  5  6  2  0  0  0  0
  5 28  1  0  0  0  0
  7  2  1  0  0  0  0
  8  3  1  0  0  0  0
  9 12  1  1  0  0  0
  9 16  1  0  0  0  0
 10 14  1  0  0  0  0
 10 13  1  0  0  0  0
 10  9  1  0  0  0  0
 11 15  1  6  0  0  0
 11 10  1  0  0  0  0
 11  9  1  0  0  0  0
 16 21  1  0  0  0  0
 17 16  2  0  0  0  0
 17 18  1  0  0  0  0
 18 19  2  0  0  0  0
 19 20  1  0  0  0  0
 20 24  1  0  0  0  0
 21 20  2  0  0  0  0
 22 17  1  0  0  0  0
 23 18  1  0  0  0  0
 24 27  1  0  0  0  0
 24 26  1  0  0  0  0
 24 25  1  0  0  0  0
 28 29  1  0  0  0  0
 28 30  1  0  0  0  0
 31 32  1  0  0  0  0
 31 28  1  0  0  0  0
 33 31  1  0  0  0  0
 34 40  1  6  0  0  0
 34 35  1  0  0  0  0
 35 31  1  1  0  0  0
 35 36  1  0  0  0  0
 36 37  1  0  0  0  0
 38 42  1  6  0  0  0
 38 37  1  0  0  0  0
 39 44  1  1  0  0  0
 39 34  1  0  0  0  0
 39 38  1  0  0  0  0
 41 40  1  0  0  0  0
 43 42  1  0  0  0  0
 45 44  1  0  0  0  0
M  END
>  <minimizedAffinity>
-5.84387636

>  <minimizedRMSD>
1.39626884

$$$$
