
 OpenBabel03252508053D

 45 48  0  0  1  0  0  0  0  0999 V2000
   36.4440   29.5120   38.3100 C   0  0  0  0  0  0  0  0  0  0  0  0
   35.7890   29.6210   39.5250 C   0  0  0  0  0  0  0  0  0  0  0  0
   34.4580   29.2290   39.6020 C   0  0  0  0  0  0  0  0  0  0  0  0
   33.7870   28.7400   38.5020 C   0  0  0  0  0  0  0  0  0  0  0  0
   34.4240   28.6300   37.2970 C   0  0  0  0  0  0  0  0  0  0  0  0
   35.7300   29.0140   37.2230 C   0  0  0  0  0  0  0  0  0  0  0  0
   33.8590   29.2800   40.5120 H   0  0  0  0  0  0  0  0  0  0  0  0
   32.7630   28.4380   38.5660 H   0  0  0  0  0  0  0  0  0  0  0  0
   33.9340   28.2580   36.4330 H   0  0  0  0  0  0  0  0  0  0  0  0
   36.2380   28.9280   36.2690 H   0  0  0  0  0  0  0  0  0  0  0  0
   38.0150   30.0480   38.1150 S   0  0  0  0  0  0  0  0  0  0  0  0
   37.9670   31.0960   37.0570 O   0  0  0  0  0  0  0  0  0  0  0  0
   38.8330   28.8110   37.5880 O   0  0  0  0  0  0  0  0  0  0  0  0
   40.5400   30.6040   38.1690 C   0  0  2  0  0  3  0  0  0  0  0  0
   39.2670   30.6070   39.0090 C   0  0  1  0  0  3  0  0  0  0  0  0
   39.2260   31.9640   39.4330 O   0  0  0  0  0  0  0  0  0  0  0  0
   40.3760   32.3690   40.0630 C   0  0  0  0  0  2  0  0  0  0  0  0
   41.2840   32.8710   38.9520 C   0  0  1  0  0  3  0  0  0  0  0  0
   41.0470   31.9560   37.7700 C   0  0  2  0  0  3  0  0  0  0  0  0
   40.3240   29.9230   36.9450 O   0  0  0  0  0  0  0  0  0  0  0  0
   40.3200   30.5060   36.1710 H   0  0  0  0  0  0  0  0  0  0  0  0
   40.8890   34.1510   38.5620 O   0  0  0  0  0  0  0  0  0  0  0  0
   41.6760   34.5660   38.0930 H   0  0  0  0  0  0  0  0  0  0  0  0
   40.2210   32.5360   36.8340 O   0  0  0  0  0  0  0  0  0  0  0  0
   39.9420   33.4460   37.0400 H   0  0  0  0  0  0  0  0  0  0  0  0
   36.4420   30.1330   40.7390 C   0  0  0  0  0  0  0  0  0  0  0  0
   36.4530   31.3570   41.0900 O   0  0  0  0  0  0  0  0  0  0  0  0
   37.0750   29.1050   41.5070 C   0  0  0  0  0  0  0  0  0  0  0  0
   38.1490   29.5220   42.3530 C   0  0  0  0  0  0  0  0  0  0  0  0
   38.7650   28.5350   43.1260 C   0  0  0  0  0  0  0  0  0  0  0  0
   38.3080   27.2590   43.0240 N   0  0  0  0  0  0  0  0  0  0  0  0
   37.2720   26.9120   42.1950 C   0  0  0  0  0  0  0  0  0  0  0  0
   36.7240   27.8330   41.4950 N   0  0  0  0  0  0  0  0  0  0  0  0
   38.5480   30.4970   42.4740 H   0  0  0  0  0  0  0  0  0  0  0  0
   39.5950   28.7490   43.8030 H   0  0  0  0  0  0  0  0  0  0  0  0
   36.8270   25.5040   42.1660 C   0  0  1  0  0  0  0  0  0  0  0  0
   36.8720   24.7500   40.8570 C   0  0  0  0  0  0  0  0  0  0  0  0
   37.9060   24.5160   41.9120 C   0  0  1  0  0  0  0  0  0  0  0  0
   36.0390   25.1940   42.8560 H   0  0  0  0  0  0  0  0  0  0  0  0
   37.0990   25.3010   39.9270 H   0  0  0  0  0  0  0  0  0  0  0  0
   36.1620   23.9220   40.6840 H   0  0  0  0  0  0  0  0  0  0  0  0
   37.9300   23.5450   42.4300 H   0  0  0  0  0  0  0  0  0  0  0  0
   39.2230   24.9660   41.4950 N   0  0  0  0  0  0  0  0  0  0  0  0
   39.9900   24.4240   41.9680 H   0  0  0  0  0  0  0  0  0  0  0  0
   39.4010   24.8150   40.4660 H   0  0  0  0  0  0  0  0  0  0  0  0
  1  2  1  0  0  0  0
  2  3  2  0  0  0  0
  2 26  1  0  0  0  0
  3  7  1  0  0  0  0
  4  8  1  0  0  0  0
  4  3  1  0  0  0  0
  5  4  2  0  0  0  0
  6  5  1  0  0  0  0
  6  1  2  0  0  0  0
  9  5  1  0  0  0  0
 10  6  1  0  0  0  0
 11  1  1  0  0  0  0
 12 11  2  0  0  0  0
 13 11  2  0  0  0  0
 14 20  1  6  0  0  0
 14 15  1  0  0  0  0
 15 11  1  6  0  0  0
 15 16  1  0  0  0  0
 16 17  1  0  0  0  0
 18 22  1  6  0  0  0
 18 17  1  0  0  0  0
 19 24  1  6  0  0  0
 19 14  1  0  0  0  0
 19 18  1  0  0  0  0
 21 20  1  0  0  0  0
 23 22  1  0  0  0  0
 24 25  1  0  0  0  0
 26 27  2  0  0  0  0
 26 28  1  0  0  0  0
 28 29  1  0  0  0  0
 29 34  1  0  0  0  0
 29 30  2  0  0  0  0
 30 35  1  0  0  0  0
 31 30  1  0  0  0  0
 32 31  2  0  0  0  0
 33 28  2  0  0  0  0
 33 32  1  0  0  0  0
 36 32  1  0  0  0  0
 36 39  1  1  0  0  0
 37 38  1  0  0  0  0
 37 36  1  0  0  0  0
 38 36  1  0  0  0  0
 38 42  1  1  0  0  0
 40 37  1  0  0  0  0
 41 37  1  0  0  0  0
 43 38  1  0  0  0  0
 43 44  1  0  0  0  0
 45 43  1  0  0  0  0
M  END
>  <minimizedAffinity>
-7.17094231

$$$$

 OpenBabel03252508053D

 45 48  0  0  1  0  0  0  0  0999 V2000
   36.6840   29.4960   38.8340 C   0  0  0  0  0  0  0  0  0  0  0  0
   36.1070   29.4720   40.0910 C   0  0  0  0  0  0  0  0  0  0  0  0
   34.7480   29.1970   40.1950 C   0  0  0  0  0  0  0  0  0  0  0  0
   33.9760   28.9510   39.0800 C   0  0  0  0  0  0  0  0  0  0  0  0
   34.5370   28.9730   37.8330 C   0  0  0  0  0  0  0  0  0  0  0  0
   35.8700   29.2430   37.7320 C   0  0  0  0  0  0  0  0  0  0  0  0
   34.2040   29.1600   41.1390 H   0  0  0  0  0  0  0  0  0  0  0  0
   32.9320   28.7390   39.1650 H   0  0  0  0  0  0  0  0  0  0  0  0
   33.9690   28.7890   36.9570 H   0  0  0  0  0  0  0  0  0  0  0  0
   36.3180   29.2610   36.7450 H   0  0  0  0  0  0  0  0  0  0  0  0
   38.2900   29.9080   38.6190 S   0  0  0  0  0  0  0  0  0  0  0  0
   38.5600   29.7760   37.1600 O   0  0  0  0  0  0  0  0  0  0  0  0
   39.1240   28.8290   39.4060 O   0  0  0  0  0  0  0  0  0  0  0  0
   38.7880   32.4420   38.4730 C   0  0  2  0  0  3  0  0  0  0  0  0
   39.3330   31.1140   38.9910 C   0  0  1  0  0  3  0  0  0  0  0  0
   39.5310   31.4200   40.3650 O   0  0  0  0  0  0  0  0  0  0  0  0
   40.3210   32.5250   40.5650 C   0  0  0  0  0  2  0  0  0  0  0  0
   39.3630   33.7060   40.5660 C   0  0  1  0  0  3  0  0  0  0  0  0
   38.3080   33.3910   39.5280 C   0  0  2  0  0  3  0  0  0  0  0  0
   37.6620   32.2250   37.6420 O   0  0  0  0  0  0  0  0  0  0  0  0
   36.8260   32.5200   38.0340 H   0  0  0  0  0  0  0  0  0  0  0  0
   38.7120   33.7830   41.7980 O   0  0  0  0  0  0  0  0  0  0  0  0
   38.3620   34.7220   41.8800 H   0  0  0  0  0  0  0  0  0  0  0  0
   37.1430   32.9370   40.1060 O   0  0  0  0  0  0  0  0  0  0  0  0
   37.1480   32.9190   41.0800 H   0  0  0  0  0  0  0  0  0  0  0  0
   36.8680   29.7250   41.3230 C   0  0  0  0  0  0  0  0  0  0  0  0
   37.0390   30.8750   41.8420 O   0  0  0  0  0  0  0  0  0  0  0  0
   37.4090   28.5320   41.8980 C   0  0  0  0  0  0  0  0  0  0  0  0
   38.5480   28.7010   42.7450 C   0  0  0  0  0  0  0  0  0  0  0  0
   39.0770   27.5490   43.3320 C   0  0  0  0  0  0  0  0  0  0  0  0
   38.4800   26.3580   43.0630 N   0  0  0  0  0  0  0  0  0  0  0  0
   37.3860   26.2510   42.2420 C   0  0  0  0  0  0  0  0  0  0  0  0
   36.9200   27.3200   41.7140 N   0  0  0  0  0  0  0  0  0  0  0  0
   39.0550   29.5990   42.9910 H   0  0  0  0  0  0  0  0  0  0  0  0
   39.9460   27.5700   43.9930 H   0  0  0  0  0  0  0  0  0  0  0  0
   36.7900   24.9170   42.0250 C   0  0  1  0  0  0  0  0  0  0  0  0
   36.6690   24.3910   40.6140 C   0  0  0  0  0  0  0  0  0  0  0  0
   37.7360   23.8850   41.5320 C   0  0  1  0  0  0  0  0  0  0  0  0
   36.0170   24.5750   42.7180 H   0  0  0  0  0  0  0  0  0  0  0  0
   36.8950   25.0650   39.7690 H   0  0  0  0  0  0  0  0  0  0  0  0
   35.8630   23.6770   40.3690 H   0  0  0  0  0  0  0  0  0  0  0  0
   37.6860   22.8440   41.8850 H   0  0  0  0  0  0  0  0  0  0  0  0
   39.0640   24.2670   41.0880 N   0  0  0  0  0  0  0  0  0  0  0  0
   39.7960   23.5820   41.4060 H   0  0  0  0  0  0  0  0  0  0  0  0
   39.1600   24.2730   40.0370 H   0  0  0  0  0  0  0  0  0  0  0  0
  1  2  1  0  0  0  0
  2  3  2  0  0  0  0
  2 26  1  0  0  0  0
  3  7  1  0  0  0  0
  4  8  1  0  0  0  0
  4  3  1  0  0  0  0
  5  4  2  0  0  0  0
  6  5  1  0  0  0  0
  6  1  2  0  0  0  0
  9  5  1  0  0  0  0
 10  6  1  0  0  0  0
 11  1  1  0  0  0  0
 11 13  2  0  0  0  0
 12 11  2  0  0  0  0
 14 20  1  6  0  0  0
 14 15  1  0  0  0  0
 14 19  1  0  0  0  0
 15 11  1  1  0  0  0
 15 16  1  0  0  0  0
 16 17  1  0  0  0  0
 17 18  1  0  0  0  0
 18 22  1  1  0  0  0
 19 24  1  1  0  0  0
 19 18  1  0  0  0  0
 20 21  1  0  0  0  0
 22 23  1  0  0  0  0
 24 25  1  0  0  0  0
 26 27  2  0  0  0  0
 26 28  1  0  0  0  0
 28 29  1  0  0  0  0
 29 34  1  0  0  0  0
 29 30  2  0  0  0  0
 30 35  1  0  0  0  0
 31 30  1  0  0  0  0
 32 31  2  0  0  0  0
 33 28  2  0  0  0  0
 33 32  1  0  0  0  0
 36 32  1  0  0  0  0
 36 39  1  1  0  0  0
 37 38  1  0  0  0  0
 37 36  1  0  0  0  0
 38 42  1  1  0  0  0
 38 36  1  0  0  0  0
 40 37  1  0  0  0  0
 41 37  1  0  0  0  0
 43 44  1  0  0  0  0
 43 38  1  0  0  0  0
 45 43  1  0  0  0  0
M  END
>  <minimizedAffinity>
-6.97883797

$$$$

 OpenBabel03252508053D

 45 48  0  0  1  0  0  0  0  0999 V2000
   36.7280   27.0850   40.2600 C   0  0  0  0  0  0  0  0  0  0  0  0
   37.2160   26.8010   41.5240 C   0  0  0  0  0  0  0  0  0  0  0  0
   37.3830   25.4710   41.8900 C   0  0  0  0  0  0  0  0  0  0  0  0
   37.0730   24.4430   41.0280 C   0  0  0  0  0  0  0  0  0  0  0  0
   36.5890   24.7120   39.7770 C   0  0  0  0  0  0  0  0  0  0  0  0
   36.4260   26.0170   39.4180 C   0  0  0  0  0  0  0  0  0  0  0  0
   37.7570   25.1490   42.8630 H   0  0  0  0  0  0  0  0  0  0  0  0
   37.2040   23.4210   41.3130 H   0  0  0  0  0  0  0  0  0  0  0  0
   36.3410   23.9410   39.0920 H   0  0  0  0  0  0  0  0  0  0  0  0
   36.0420   26.2340   38.4280 H   0  0  0  0  0  0  0  0  0  0  0  0
   36.4130   28.6540   39.7790 S   0  0  0  0  0  0  0  0  0  0  0  0
   35.1720   29.0660   40.4940 O   0  0  0  0  0  0  0  0  0  0  0  0
   36.1270   28.5850   38.2320 O   0  0  0  0  0  0  0  0  0  0  0  0
   38.5680   29.9110   39.0950 C   0  0  2  0  0  3  0  0  0  0  0  0
   37.1660   30.1030   39.6640 C   0  0  1  0  0  3  0  0  0  0  0  0
   36.6340   31.0580   38.7540 O   0  0  0  0  0  0  0  0  0  0  0  0
   37.4080   32.1850   38.6390 C   0  0  0  0  0  2  0  0  0  0  0  0
   38.4060   31.8720   37.5360 C   0  0  1  0  0  3  0  0  0  0  0  0
   38.7650   30.4110   37.6970 C   0  0  2  0  0  3  0  0  0  0  0  0
   38.8930   28.5320   39.0350 O   0  0  0  0  0  0  0  0  0  0  0  0
   38.9370   28.1820   38.1320 H   0  0  0  0  0  0  0  0  0  0  0  0
   37.7910   32.0050   36.2910 O   0  0  0  0  0  0  0  0  0  0  0  0
   38.5280   32.1200   35.6160 H   0  0  0  0  0  0  0  0  0  0  0  0
   38.0980   29.6180   36.7900 O   0  0  0  0  0  0  0  0  0  0  0  0
   37.5310   30.1010   36.1630 H   0  0  0  0  0  0  0  0  0  0  0  0
   37.5670   27.8470   42.4960 C   0  0  0  0  0  0  0  0  0  0  0  0
   36.7200   28.5210   43.1680 O   0  0  0  0  0  0  0  0  0  0  0  0
   38.9780   28.0400   42.6210 C   0  0  0  0  0  0  0  0  0  0  0  0
   39.6490   27.1960   43.5590 C   0  0  0  0  0  0  0  0  0  0  0  0
   41.0320   27.3560   43.6800 C   0  0  0  0  0  0  0  0  0  0  0  0
   41.6410   28.2940   42.9060 N   0  0  0  0  0  0  0  0  0  0  0  0
   40.9480   29.0800   42.0190 C   0  0  0  0  0  0  0  0  0  0  0  0
   39.6820   28.9150   41.9280 N   0  0  0  0  0  0  0  0  0  0  0  0
   39.2310   26.4510   44.1880 H   0  0  0  0  0  0  0  0  0  0  0  0
   41.6370   26.7620   44.3680 H   0  0  0  0  0  0  0  0  0  0  0  0
   41.6970   30.0570   41.2030 C   0  0  1  0  0  0  0  0  0  0  0  0
   41.1060   31.4300   40.9820 C   0  0  0  0  0  0  0  0  0  0  0  0
   42.2220   31.2240   41.9560 C   0  0  1  0  0  0  0  0  0  0  0  0
   42.3240   29.6820   40.3900 H   0  0  0  0  0  0  0  0  0  0  0  0
   40.0700   31.6280   41.3110 H   0  0  0  0  0  0  0  0  0  0  0  0
   41.3610   31.9880   40.0640 H   0  0  0  0  0  0  0  0  0  0  0  0
   43.2100   31.6540   41.7330 H   0  0  0  0  0  0  0  0  0  0  0  0
   41.8000   31.4570   43.3260 N   0  0  0  0  0  0  0  0  0  0  0  0
   42.5990   31.7700   43.9340 H   0  0  0  0  0  0  0  0  0  0  0  0
   41.0940   32.2360   43.4110 H   0  0  0  0  0  0  0  0  0  0  0  0
  1  2  1  0  0  0  0
  2  3  2  0  0  0  0
  2 26  1  0  0  0  0
  3  7  1  0  0  0  0
  4  8  1  0  0  0  0
  4  3  1  0  0  0  0
  5  4  2  0  0  0  0
  6  5  1  0  0  0  0
  6  1  2  0  0  0  0
  9  5  1  0  0  0  0
 10  6  1  0  0  0  0
 11  1  1  0  0  0  0
 11 12  2  0  0  0  0
 13 11  2  0  0  0  0
 14 20  1  6  0  0  0
 14 15  1  0  0  0  0
 15 11  1  6  0  0  0
 16 15  1  0  0  0  0
 17 16  1  0  0  0  0
 18 22  1  6  0  0  0
 18 19  1  0  0  0  0
 18 17  1  0  0  0  0
 19 24  1  6  0  0  0
 19 14  1  0  0  0  0
 21 20  1  0  0  0  0
 23 22  1  0  0  0  0
 25 24  1  0  0  0  0
 26 28  1  0  0  0  0
 26 27  2  0  0  0  0
 28 29  1  0  0  0  0
 29 30  2  0  0  0  0
 29 34  1  0  0  0  0
 30 35  1  0  0  0  0
 31 30  1  0  0  0  0
 32 31  2  0  0  0  0
 33 32  1  0  0  0  0
 33 28  2  0  0  0  0
 36 39  1  6  0  0  0
 36 38  1  0  0  0  0
 36 32  1  0  0  0  0
 37 36  1  0  0  0  0
 37 40  1  0  0  0  0
 37 38  1  0  0  0  0
 38 42  1  6  0  0  0
 38 43  1  0  0  0  0
 41 37  1  0  0  0  0
 43 45  1  0  0  0  0
 43 44  1  0  0  0  0
M  END
>  <minimizedAffinity>
-6.32383585

$$$$

 OpenBabel03252508053D

 45 48  0  0  1  0  0  0  0  0999 V2000
   37.5260   29.0680   41.6910 C   0  0  0  0  0  0  0  0  0  0  0  0
   37.4250   27.9310   40.9080 C   0  0  0  0  0  0  0  0  0  0  0  0
   37.1460   26.7180   41.5260 C   0  0  0  0  0  0  0  0  0  0  0  0
   36.9710   26.6300   42.8900 C   0  0  0  0  0  0  0  0  0  0  0  0
   37.0700   27.7470   43.6740 C   0  0  0  0  0  0  0  0  0  0  0  0
   37.3430   28.9360   43.0650 C   0  0  0  0  0  0  0  0  0  0  0  0
   37.0510   25.7700   40.9950 H   0  0  0  0  0  0  0  0  0  0  0  0
   36.7550   25.6950   43.3620 H   0  0  0  0  0  0  0  0  0  0  0  0
   36.9410   27.7090   44.7250 H   0  0  0  0  0  0  0  0  0  0  0  0
   37.4220   29.8230   43.6830 H   0  0  0  0  0  0  0  0  0  0  0  0
   37.9490   30.5450   41.0330 S   0  0  0  0  0  0  0  0  0  0  0  0
   38.8680   31.1870   42.0140 O   0  0  0  0  0  0  0  0  0  0  0  0
   36.6160   31.3780   40.9440 O   0  0  0  0  0  0  0  0  0  0  0  0
   38.3040   32.6810   39.6180 C   0  0  2  0  0  3  0  0  0  0  0  0
   38.5390   31.1730   39.6420 C   0  0  1  0  0  3  0  0  0  0  0  0
   39.9440   31.1150   39.4300 O   0  0  0  0  0  0  0  0  0  0  0  0
   40.3490   31.7800   38.3000 C   0  0  0  0  0  2  0  0  0  0  0  0
   40.5990   33.2110   38.7470 C   0  0  1  0  0  3  0  0  0  0  0  0
   39.5340   33.5220   39.7750 C   0  0  2  0  0  3  0  0  0  0  0  0
   37.4620   33.0670   40.6900 O   0  0  0  0  0  0  0  0  0  0  0  0
   37.9160   33.5750   41.3780 H   0  0  0  0  0  0  0  0  0  0  0  0
   41.8300   33.2930   39.3970 O   0  0  0  0  0  0  0  0  0  0  0  0
   42.1030   34.2610   39.3760 H   0  0  0  0  0  0  0  0  0  0  0  0
   40.0250   33.4410   41.0590 O   0  0  0  0  0  0  0  0  0  0  0  0
   40.9760   33.2370   41.1220 H   0  0  0  0  0  0  0  0  0  0  0  0
   37.6000   27.9510   39.4480 C   0  0  0  0  0  0  0  0  0  0  0  0
   38.7210   28.0770   38.8570 O   0  0  0  0  0  0  0  0  0  0  0  0
   36.3670   27.8100   38.7370 C   0  0  0  0  0  0  0  0  0  0  0  0
   35.3900   28.8290   38.9610 C   0  0  0  0  0  0  0  0  0  0  0  0
   34.1870   28.7180   38.2590 C   0  0  0  0  0  0  0  0  0  0  0  0
   34.0270   27.6610   37.4200 N   0  0  0  0  0  0  0  0  0  0  0  0
   34.9980   26.7090   37.2410 C   0  0  0  0  0  0  0  0  0  0  0  0
   36.0910   26.8310   37.8960 N   0  0  0  0  0  0  0  0  0  0  0  0
   35.4570   29.6730   39.6000 H   0  0  0  0  0  0  0  0  0  0  0  0
   33.3770   29.4430   38.3600 H   0  0  0  0  0  0  0  0  0  0  0  0
   34.7450   25.6070   36.2910 C   0  0  1  0  0  0  0  0  0  0  0  0
   34.4770   25.9390   34.8410 C   0  0  0  0  0  0  0  0  0  0  0  0
   35.8070   25.4070   35.2720 C   0  0  1  0  0  0  0  0  0  0  0  0
   34.2540   24.7040   36.6620 H   0  0  0  0  0  0  0  0  0  0  0  0
   34.3340   26.9940   34.5500 H   0  0  0  0  0  0  0  0  0  0  0  0
   33.8560   25.2560   34.2350 H   0  0  0  0  0  0  0  0  0  0  0  0
   36.1100   24.4000   34.9470 H   0  0  0  0  0  0  0  0  0  0  0  0
   36.8630   26.3920   35.1180 N   0  0  0  0  0  0  0  0  0  0  0  0
   37.8000   25.9400   34.9630 H   0  0  0  0  0  0  0  0  0  0  0  0
   36.7320   27.0060   34.2700 H   0  0  0  0  0  0  0  0  0  0  0  0
  1  6  1  0  0  0  0
  2  3  1  0  0  0  0
  2  1  2  0  0  0  0
  3  4  2  0  0  0  0
  4  8  1  0  0  0  0
  4  5  1  0  0  0  0
  5  9  1  0  0  0  0
  6  5  2  0  0  0  0
  6 10  1  0  0  0  0
  7  3  1  0  0  0  0
 11  1  1  0  0  0  0
 11 12  2  0  0  0  0
 13 11  2  0  0  0  0
 14 15  1  0  0  0  0
 14 19  1  0  0  0  0
 14 20  1  1  0  0  0
 15 11  1  1  0  0  0
 16 15  1  0  0  0  0
 17 18  1  0  0  0  0
 17 16  1  0  0  0  0
 18 22  1  1  0  0  0
 18 19  1  0  0  0  0
 19 24  1  1  0  0  0
 20 21  1  0  0  0  0
 23 22  1  0  0  0  0
 24 25  1  0  0  0  0
 26  2  1  0  0  0  0
 27 26  2  0  0  0  0
 28 29  1  0  0  0  0
 28 26  1  0  0  0  0
 29 34  1  0  0  0  0
 30 35  1  0  0  0  0
 30 29  2  0  0  0  0
 31 30  1  0  0  0  0
 32 31  2  0  0  0  0
 32 33  1  0  0  0  0
 33 28  2  0  0  0  0
 36 39  1  1  0  0  0
 36 32  1  0  0  0  0
 37 38  1  0  0  0  0
 37 36  1  0  0  0  0
 38 42  1  6  0  0  0
 38 36  1  0  0  0  0
 40 37  1  0  0  0  0
 41 37  1  0  0  0  0
 43 38  1  0  0  0  0
 44 43  1  0  0  0  0
 45 43  1  0  0  0  0
M  END
>  <minimizedAffinity>
-6.29575539

$$$$

 OpenBabel03252508053D

 45 48  0  0  1  0  0  0  0  0999 V2000
   37.9450   27.1370   41.5760 C   0  0  0  0  0  0  0  0  0  0  0  0
   38.4680   26.1750   40.7300 C   0  0  0  0  0  0  0  0  0  0  0  0
   38.0620   24.8550   40.8910 C   0  0  0  0  0  0  0  0  0  0  0  0
   37.1590   24.4930   41.8660 C   0  0  0  0  0  0  0  0  0  0  0  0
   36.6370   25.4360   42.7090 C   0  0  0  0  0  0  0  0  0  0  0  0
   37.0360   26.7310   42.5500 C   0  0  0  0  0  0  0  0  0  0  0  0
   38.4200   24.0280   40.2760 H   0  0  0  0  0  0  0  0  0  0  0  0
   36.8490   23.4770   41.9860 H   0  0  0  0  0  0  0  0  0  0  0  0
   35.9420   25.1880   43.4700 H   0  0  0  0  0  0  0  0  0  0  0  0
   36.6240   27.4810   43.2160 H   0  0  0  0  0  0  0  0  0  0  0  0
   38.4520   28.7280   41.5070 S   0  0  0  0  0  0  0  0  0  0  0  0
   39.7240   28.7920   42.2800 O   0  0  0  0  0  0  0  0  0  0  0  0
   37.3470   29.5690   42.2490 O   0  0  0  0  0  0  0  0  0  0  0  0
   37.5870   29.9510   39.3970 C   0  0  2  0  0  3  0  0  0  0  0  0
   38.7330   29.9050   40.4040 C   0  0  1  0  0  3  0  0  0  0  0  0
   38.7460   31.2520   40.8600 O   0  0  0  0  0  0  0  0  0  0  0  0
   38.8610   32.1670   39.8430 C   0  0  0  0  0  2  0  0  0  0  0  0
   37.4350   32.4580   39.4050 C   0  0  1  0  0  3  0  0  0  0  0  0
   36.6890   31.1450   39.5050 C   0  0  2  0  0  3  0  0  0  0  0  0
   36.7300   28.8360   39.5720 O   0  0  0  0  0  0  0  0  0  0  0  0
   35.8610   29.0670   39.9330 H   0  0  0  0  0  0  0  0  0  0  0  0
   36.8350   33.3370   40.3070 O   0  0  0  0  0  0  0  0  0  0  0  0
   36.0540   33.7530   39.8280 H   0  0  0  0  0  0  0  0  0  0  0  0
   35.9180   31.0810   40.6440 O   0  0  0  0  0  0  0  0  0  0  0  0
   35.9310   31.8860   41.1930 H   0  0  0  0  0  0  0  0  0  0  0  0
   39.4350   26.4880   39.6680 C   0  0  0  0  0  0  0  0  0  0  0  0
   39.1370   27.0510   38.5650 O   0  0  0  0  0  0  0  0  0  0  0  0
   40.7700   26.0960   39.9970 C   0  0  0  0  0  0  0  0  0  0  0  0
   41.3350   25.0530   39.1990 C   0  0  0  0  0  0  0  0  0  0  0  0
   42.6470   24.6710   39.4930 C   0  0  0  0  0  0  0  0  0  0  0  0
   43.2910   25.3100   40.5060 N   0  0  0  0  0  0  0  0  0  0  0  0
   42.7020   26.3070   41.2420 C   0  0  0  0  0  0  0  0  0  0  0  0
   41.4990   26.6380   40.9550 N   0  0  0  0  0  0  0  0  0  0  0  0
   40.8850   24.5200   38.4010 H   0  0  0  0  0  0  0  0  0  0  0  0
   43.1690   23.8850   38.9440 H   0  0  0  0  0  0  0  0  0  0  0  0
   43.4870   26.9590   42.3080 C   0  0  1  0  0  0  0  0  0  0  0  0
   42.8700   27.1150   43.6790 C   0  0  0  0  0  0  0  0  0  0  0  0
   43.8980   26.0620   43.4170 C   0  0  1  0  0  0  0  0  0  0  0  0
   44.1990   27.7390   42.0260 H   0  0  0  0  0  0  0  0  0  0  0  0
   41.8020   26.8690   43.8180 H   0  0  0  0  0  0  0  0  0  0  0  0
   43.1880   27.9520   44.3250 H   0  0  0  0  0  0  0  0  0  0  0  0
   44.8870   26.1510   43.8920 H   0  0  0  0  0  0  0  0  0  0  0  0
   43.3450   24.7220   43.5130 N   0  0  0  0  0  0  0  0  0  0  0  0
   44.0730   24.0160   43.7920 H   0  0  0  0  0  0  0  0  0  0  0  0
   42.6060   24.6370   44.2620 H   0  0  0  0  0  0  0  0  0  0  0  0
  1  6  1  0  0  0  0
  2  3  1  0  0  0  0
  2  1  2  0  0  0  0
  3  4  2  0  0  0  0
  4  8  1  0  0  0  0
  4  5  1  0  0  0  0
  5  9  1  0  0  0  0
  6  5  2  0  0  0  0
  6 10  1  0  0  0  0
  7  3  1  0  0  0  0
 11  1  1  0  0  0  0
 11 13  2  0  0  0  0
 11 12  2  0  0  0  0
 14 19  1  0  0  0  0
 14 20  1  1  0  0  0
 14 15  1  0  0  0  0
 15 16  1  0  0  0  0
 15 11  1  1  0  0  0
 17 16  1  0  0  0  0
 18 19  1  0  0  0  0
 18 17  1  0  0  0  0
 18 22  1  1  0  0  0
 19 24  1  1  0  0  0
 20 21  1  0  0  0  0
 23 22  1  0  0  0  0
 24 25  1  0  0  0  0
 26 28  1  0  0  0  0
 26  2  1  0  0  0  0
 27 26  2  0  0  0  0
 28 33  1  0  0  0  0
 29 30  1  0  0  0  0
 29 28  2  0  0  0  0
 30 31  2  0  0  0  0
 31 32  1  0  0  0  0
 32 36  1  0  0  0  0
 33 32  2  0  0  0  0
 34 29  1  0  0  0  0
 35 30  1  0  0  0  0
 36 39  1  6  0  0  0
 36 38  1  0  0  0  0
 36 37  1  0  0  0  0
 37 40  1  0  0  0  0
 37 41  1  0  0  0  0
 38 43  1  0  0  0  0
 38 37  1  0  0  0  0
 38 42  1  1  0  0  0
 43 44  1  0  0  0  0
 43 45  1  0  0  0  0
M  END
>  <minimizedAffinity>
-6.2847538

$$$$

 OpenBabel03252508053D

 45 48  0  0  1  0  0  0  0  0999 V2000
   37.5750   27.9180   40.5480 C   0  0  0  0  0  0  0  0  0  0  0  0
   38.1560   27.6030   41.7630 C   0  0  0  0  0  0  0  0  0  0  0  0
   38.0000   26.3150   42.2620 C   0  0  0  0  0  0  0  0  0  0  0  0
   37.2860   25.3580   41.5750 C   0  0  0  0  0  0  0  0  0  0  0  0
   36.7060   25.6600   40.3730 C   0  0  0  0  0  0  0  0  0  0  0  0
   36.8600   26.9240   39.8840 C   0  0  0  0  0  0  0  0  0  0  0  0
   38.4170   25.9730   43.2100 H   0  0  0  0  0  0  0  0  0  0  0  0
   37.1690   24.3690   41.9610 H   0  0  0  0  0  0  0  0  0  0  0  0
   36.1490   24.9460   39.8210 H   0  0  0  0  0  0  0  0  0  0  0  0
   36.4020   27.1660   38.9320 H   0  0  0  0  0  0  0  0  0  0  0  0
   37.6400   29.4680   39.9260 S   0  0  0  0  0  0  0  0  0  0  0  0
   36.5970   30.2490   40.6490 O   0  0  0  0  0  0  0  0  0  0  0  0
   37.2420   29.3450   38.4080 O   0  0  0  0  0  0  0  0  0  0  0  0
   38.0760   31.7610   38.8100 C   0  0  2  0  0  3  0  0  0  0  0  0
   38.7290   30.6560   39.6360 C   0  0  1  0  0  3  0  0  0  0  0  0
   39.2130   31.4000   40.7470 O   0  0  0  0  0  0  0  0  0  0  0  0
   40.0170   32.4510   40.3860 C   0  0  0  0  0  2  0  0  0  0  0  0
   39.0720   33.6220   40.1700 C   0  0  1  0  0  3  0  0  0  0  0  0
   37.8230   33.0430   39.5430 C   0  0  2  0  0  3  0  0  0  0  0  0
   36.8000   31.3480   38.3520 O   0  0  0  0  0  0  0  0  0  0  0  0
   36.0640   31.8140   38.7780 H   0  0  0  0  0  0  0  0  0  0  0  0
   38.6980   34.1580   41.4020 O   0  0  0  0  0  0  0  0  0  0  0  0
   38.3660   35.0910   41.2220 H   0  0  0  0  0  0  0  0  0  0  0  0
   36.8110   32.8920   40.4650 O   0  0  0  0  0  0  0  0  0  0  0  0
   37.0240   33.2070   41.3620 H   0  0  0  0  0  0  0  0  0  0  0  0
   38.9320   28.5720   42.5510 C   0  0  0  0  0  0  0  0  0  0  0  0
   38.4320   29.3690   43.4090 O   0  0  0  0  0  0  0  0  0  0  0  0
   40.3320   28.5330   42.2600 C   0  0  0  0  0  0  0  0  0  0  0  0
   41.1430   29.4990   42.9330 C   0  0  0  0  0  0  0  0  0  0  0  0
   42.5160   29.4620   42.6760 C   0  0  0  0  0  0  0  0  0  0  0  0
   42.9840   28.5210   41.8130 N   0  0  0  0  0  0  0  0  0  0  0  0
   42.1610   27.6160   41.1930 C   0  0  0  0  0  0  0  0  0  0  0  0
   40.9070   27.6700   41.4430 N   0  0  0  0  0  0  0  0  0  0  0  0
   40.8370   30.2530   43.6120 H   0  0  0  0  0  0  0  0  0  0  0  0
   43.2210   30.1560   43.1380 H   0  0  0  0  0  0  0  0  0  0  0  0
   42.7620   26.6150   40.2890 C   0  0  1  0  0  0  0  0  0  0  0  0
   44.1300   26.0620   40.6150 C   0  0  0  0  0  0  0  0  0  0  0  0
   42.8970   25.2540   40.8680 C   0  0  1  0  0  0  0  0  0  0  0  0
   42.5210   26.6670   39.2240 H   0  0  0  0  0  0  0  0  0  0  0  0
   44.7100   26.5170   41.4370 H   0  0  0  0  0  0  0  0  0  0  0  0
   44.7810   25.7080   39.7960 H   0  0  0  0  0  0  0  0  0  0  0  0
   42.7170   24.3520   40.2630 H   0  0  0  0  0  0  0  0  0  0  0  0
   42.6660   25.0400   42.2850 N   0  0  0  0  0  0  0  0  0  0  0  0
   42.1340   24.1500   42.4660 H   0  0  0  0  0  0  0  0  0  0  0  0
   43.5600   24.9180   42.8330 H   0  0  0  0  0  0  0  0  0  0  0  0
  1  2  1  0  0  0  0
  2  3  2  0  0  0  0
  2 26  1  0  0  0  0
  3  7  1  0  0  0  0
  4  8  1  0  0  0  0
  4  3  1  0  0  0  0
  5  4  2  0  0  0  0
  6  5  1  0  0  0  0
  6  1  2  0  0  0  0
  9  5  1  0  0  0  0
 10  6  1  0  0  0  0
 11  1  1  0  0  0  0
 11 12  2  0  0  0  0
 13 11  2  0  0  0  0
 14 20  1  1  0  0  0
 14 19  1  0  0  0  0
 14 15  1  0  0  0  0
 15 11  1  1  0  0  0
 15 16  1  0  0  0  0
 17 16  1  0  0  0  0
 18 17  1  0  0  0  0
 18 22  1  1  0  0  0
 19 18  1  0  0  0  0
 19 24  1  1  0  0  0
 20 21  1  0  0  0  0
 23 22  1  0  0  0  0
 24 25  1  0  0  0  0
 26 27  2  0  0  0  0
 28 26  1  0  0  0  0
 28 29  1  0  0  0  0
 29 34  1  0  0  0  0
 30 29  2  0  0  0  0
 30 35  1  0  0  0  0
 31 30  1  0  0  0  0
 32 33  1  0  0  0  0
 32 31  2  0  0  0  0
 33 28  2  0  0  0  0
 36 39  1  6  0  0  0
 36 37  1  0  0  0  0
 36 38  1  0  0  0  0
 36 32  1  0  0  0  0
 37 38  1  0  0  0  0
 37 40  1  0  0  0  0
 38 42  1  6  0  0  0
 38 43  1  0  0  0  0
 41 37  1  0  0  0  0
 43 44  1  0  0  0  0
 43 45  1  0  0  0  0
M  END
>  <minimizedAffinity>
-6.26450157

$$$$

 OpenBabel03252508053D

 45 48  0  0  1  0  0  0  0  0999 V2000
   36.5850   26.8520   40.0100 C   0  0  0  0  0  0  0  0  0  0  0  0
   37.0030   26.4160   41.2550 C   0  0  0  0  0  0  0  0  0  0  0  0
   37.0920   25.0480   41.4860 C   0  0  0  0  0  0  0  0  0  0  0  0
   36.7750   24.1310   40.5090 C   0  0  0  0  0  0  0  0  0  0  0  0
   36.3600   24.5510   39.2750 C   0  0  0  0  0  0  0  0  0  0  0  0
   36.2730   25.8930   39.0490 C   0  0  0  0  0  0  0  0  0  0  0  0
   37.4070   24.6090   42.4340 H   0  0  0  0  0  0  0  0  0  0  0  0
   36.8460   23.0800   40.6900 H   0  0  0  0  0  0  0  0  0  0  0  0
   36.1080   23.8690   38.5030 H   0  0  0  0  0  0  0  0  0  0  0  0
   35.9440   26.2300   38.0720 H   0  0  0  0  0  0  0  0  0  0  0  0
   36.3650   28.4760   39.6840 S   0  0  0  0  0  0  0  0  0  0  0  0
   35.1700   28.8980   40.4690 O   0  0  0  0  0  0  0  0  0  0  0  0
   36.0390   28.5700   38.1460 O   0  0  0  0  0  0  0  0  0  0  0  0
   38.6070   29.6360   39.1210 C   0  0  2  0  0  3  0  0  0  0  0  0
   37.2090   29.8790   39.6810 C   0  0  1  0  0  3  0  0  0  0  0  0
   36.7550   30.9250   38.8320 O   0  0  0  0  0  0  0  0  0  0  0  0
   37.6010   32.0060   38.8060 C   0  0  0  0  0  2  0  0  0  0  0  0
   38.5990   31.7060   37.6990 C   0  0  1  0  0  3  0  0  0  0  0  0
   38.8620   30.2170   37.7640 C   0  0  2  0  0  3  0  0  0  0  0  0
   38.8450   28.2470   38.9700 O   0  0  0  0  0  0  0  0  0  0  0  0
   38.8850   27.9570   38.0460 H   0  0  0  0  0  0  0  0  0  0  0  0
   38.0160   31.9620   36.4570 O   0  0  0  0  0  0  0  0  0  0  0  0
   38.7720   32.0760   35.8030 H   0  0  0  0  0  0  0  0  0  0  0  0
   38.1630   29.5320   36.7950 O   0  0  0  0  0  0  0  0  0  0  0  0
   37.6400   30.0930   36.1940 H   0  0  0  0  0  0  0  0  0  0  0  0
   37.3570   27.3370   42.3450 C   0  0  0  0  0  0  0  0  0  0  0  0
   36.5560   27.7120   43.2610 O   0  0  0  0  0  0  0  0  0  0  0  0
   38.7150   27.7800   42.2800 C   0  0  0  0  0  0  0  0  0  0  0  0
   38.9770   29.0890   42.7940 C   0  0  0  0  0  0  0  0  0  0  0  0
   40.3010   29.5300   42.7580 C   0  0  0  0  0  0  0  0  0  0  0  0
   41.2440   28.6960   42.2420 N   0  0  0  0  0  0  0  0  0  0  0  0
   40.9390   27.4480   41.7610 C   0  0  0  0  0  0  0  0  0  0  0  0
   39.7180   27.0660   41.8030 N   0  0  0  0  0  0  0  0  0  0  0  0
   38.2870   29.7810   43.2070 H   0  0  0  0  0  0  0  0  0  0  0  0
   40.6060   30.5120   43.1250 H   0  0  0  0  0  0  0  0  0  0  0  0
   42.0320   26.6030   41.2400 C   0  0  1  0  0  0  0  0  0  0  0  0
   43.1660   26.2230   42.1630 C   0  0  0  0  0  0  0  0  0  0  0  0
   42.0940   25.2380   41.8210 C   0  0  1  0  0  0  0  0  0  0  0  0
   42.2990   26.6930   40.1840 H   0  0  0  0  0  0  0  0  0  0  0  0
   43.2300   26.6970   43.1580 H   0  0  0  0  0  0  0  0  0  0  0  0
   44.1650   26.0180   41.7390 H   0  0  0  0  0  0  0  0  0  0  0  0
   42.3510   24.3620   41.2050 H   0  0  0  0  0  0  0  0  0  0  0  0
   41.2770   24.8990   42.9730 N   0  0  0  0  0  0  0  0  0  0  0  0
   40.8650   23.9340   42.8910 H   0  0  0  0  0  0  0  0  0  0  0  0
   41.8290   24.8650   43.8720 H   0  0  0  0  0  0  0  0  0  0  0  0
  1  2  1  0  0  0  0
  2  3  2  0  0  0  0
  2 26  1  0  0  0  0
  3  7  1  0  0  0  0
  4  8  1  0  0  0  0
  4  3  1  0  0  0  0
  5  4  2  0  0  0  0
  6  5  1  0  0  0  0
  6  1  2  0  0  0  0
  9  5  1  0  0  0  0
 10  6  1  0  0  0  0
 11  1  1  0  0  0  0
 11 12  2  0  0  0  0
 13 11  2  0  0  0  0
 14 20  1  6  0  0  0
 14 15  1  0  0  0  0
 15 11  1  6  0  0  0
 16 15  1  0  0  0  0
 17 16  1  0  0  0  0
 18 22  1  6  0  0  0
 18 19  1  0  0  0  0
 18 17  1  0  0  0  0
 19 24  1  6  0  0  0
 19 14  1  0  0  0  0
 21 20  1  0  0  0  0
 23 22  1  0  0  0  0
 25 24  1  0  0  0  0
 26 27  2  0  0  0  0
 28 26  1  0  0  0  0
 28 29  1  0  0  0  0
 29 34  1  0  0  0  0
 30 29  2  0  0  0  0
 30 35  1  0  0  0  0
 31 30  1  0  0  0  0
 32 33  1  0  0  0  0
 32 31  2  0  0  0  0
 33 28  2  0  0  0  0
 36 39  1  6  0  0  0
 36 32  1  0  0  0  0
 36 38  1  0  0  0  0
 36 37  1  0  0  0  0
 37 40  1  0  0  0  0
 38 42  1  6  0  0  0
 38 37  1  0  0  0  0
 38 43  1  0  0  0  0
 41 37  1  0  0  0  0
 43 45  1  0  0  0  0
 44 43  1  0  0  0  0
M  END
>  <minimizedAffinity>
-6.17033148

$$$$

 OpenBabel03252508053D

 45 48  0  0  1  0  0  0  0  0999 V2000
   36.4540   27.2430   39.6700 C   0  0  0  0  0  0  0  0  0  0  0  0
   36.0730   28.2830   40.4990 C   0  0  0  0  0  0  0  0  0  0  0  0
   35.0350   29.1130   40.0910 C   0  0  0  0  0  0  0  0  0  0  0  0
   34.3870   28.9190   38.8910 C   0  0  0  0  0  0  0  0  0  0  0  0
   34.7570   27.8940   38.0640 C   0  0  0  0  0  0  0  0  0  0  0  0
   35.7750   27.0800   38.4650 C   0  0  0  0  0  0  0  0  0  0  0  0
   34.6670   29.9590   40.6730 H   0  0  0  0  0  0  0  0  0  0  0  0
   33.5880   29.5590   38.5820 H   0  0  0  0  0  0  0  0  0  0  0  0
   34.2780   27.7200   37.1340 H   0  0  0  0  0  0  0  0  0  0  0  0
   36.0710   26.2670   37.8120 H   0  0  0  0  0  0  0  0  0  0  0  0
   37.7520   26.2590   40.0460 S   0  0  0  0  0  0  0  0  0  0  0  0
   38.2110   25.6680   38.7580 O   0  0  0  0  0  0  0  0  0  0  0  0
   37.1800   25.1190   40.9700 O   0  0  0  0  0  0  0  0  0  0  0  0
   39.9520   25.0250   40.6220 C   0  0  2  0  0  3  0  0  0  0  0  0
   39.1760   26.3190   40.8520 C   0  0  1  0  0  3  0  0  0  0  0  0
   40.1330   27.2850   40.4380 O   0  0  0  0  0  0  0  0  0  0  0  0
   41.3360   27.1680   41.0880 C   0  0  0  0  0  2  0  0  0  0  0  0
   42.1470   26.1880   40.2550 C   0  0  1  0  0  3  0  0  0  0  0  0
   41.1650   25.1530   39.7520 C   0  0  2  0  0  3  0  0  0  0  0  0
   39.1360   24.0690   39.9660 O   0  0  0  0  0  0  0  0  0  0  0  0
   39.4010   23.8940   39.0510 H   0  0  0  0  0  0  0  0  0  0  0  0
   42.6640   26.8380   39.1340 O   0  0  0  0  0  0  0  0  0  0  0  0
   43.4330   26.2790   38.8070 H   0  0  0  0  0  0  0  0  0  0  0  0
   40.8100   25.3810   38.4410 O   0  0  0  0  0  0  0  0  0  0  0  0
   41.2590   26.1350   38.0200 H   0  0  0  0  0  0  0  0  0  0  0  0
   36.7190   28.5500   41.7920 C   0  0  0  0  0  0  0  0  0  0  0  0
   36.4460   27.9360   42.8750 O   0  0  0  0  0  0  0  0  0  0  0  0
   37.7050   29.5830   41.7200 C   0  0  0  0  0  0  0  0  0  0  0  0
   38.7100   29.5670   42.7370 C   0  0  0  0  0  0  0  0  0  0  0  0
   39.6940   30.5570   42.6700 C   0  0  0  0  0  0  0  0  0  0  0  0
   39.6320   31.4590   41.6540 N   0  0  0  0  0  0  0  0  0  0  0  0
   38.6440   31.4290   40.7020 C   0  0  0  0  0  0  0  0  0  0  0  0
   37.7530   30.5140   40.7850 N   0  0  0  0  0  0  0  0  0  0  0  0
   38.8110   28.8940   43.5490 H   0  0  0  0  0  0  0  0  0  0  0  0
   40.5040   30.6330   43.3980 H   0  0  0  0  0  0  0  0  0  0  0  0
   38.6690   32.4360   39.6220 C   0  0  1  0  0  0  0  0  0  0  0  0
   37.5040   33.3880   39.4830 C   0  0  0  0  0  0  0  0  0  0  0  0
   38.7960   33.8410   40.0840 C   0  0  1  0  0  0  0  0  0  0  0  0
   39.1810   32.1840   38.6900 H   0  0  0  0  0  0  0  0  0  0  0  0
   36.6000   33.2220   40.0950 H   0  0  0  0  0  0  0  0  0  0  0  0
   37.2600   33.8040   38.4900 H   0  0  0  0  0  0  0  0  0  0  0  0
   39.4110   34.5720   39.5380 H   0  0  0  0  0  0  0  0  0  0  0  0
   38.6600   34.1590   41.4950 N   0  0  0  0  0  0  0  0  0  0  0  0
   39.3620   34.8790   41.8040 H   0  0  0  0  0  0  0  0  0  0  0  0
   37.7270   34.5960   41.7290 H   0  0  0  0  0  0  0  0  0  0  0  0
  1 11  1  0  0  0  0
  1  2  1  0  0  0  0
  2 26  1  0  0  0  0
  3  2  2  0  0  0  0
  3  7  1  0  0  0  0
  4  3  1  0  0  0  0
  5  6  1  0  0  0  0
  5  4  2  0  0  0  0
  6  1  2  0  0  0  0
  8  4  1  0  0  0  0
  9  5  1  0  0  0  0
 10  6  1  0  0  0  0
 11 13  2  0  0  0  0
 12 11  2  0  0  0  0
 14 20  1  6  0  0  0
 14 15  1  0  0  0  0
 15 11  1  6  0  0  0
 16 15  1  0  0  0  0
 16 17  1  0  0  0  0
 18 22  1  6  0  0  0
 18 17  1  0  0  0  0
 19 24  1  6  0  0  0
 19 18  1  0  0  0  0
 19 14  1  0  0  0  0
 21 20  1  0  0  0  0
 23 22  1  0  0  0  0
 25 24  1  0  0  0  0
 26 27  2  0  0  0  0
 28 26  1  0  0  0  0
 28 29  1  0  0  0  0
 29 34  1  0  0  0  0
 30 29  2  0  0  0  0
 30 35  1  0  0  0  0
 31 30  1  0  0  0  0
 32 33  1  0  0  0  0
 32 31  2  0  0  0  0
 33 28  2  0  0  0  0
 36 39  1  6  0  0  0
 36 38  1  0  0  0  0
 36 32  1  0  0  0  0
 37 36  1  0  0  0  0
 37 38  1  0  0  0  0
 37 40  1  0  0  0  0
 38 42  1  6  0  0  0
 38 43  1  0  0  0  0
 41 37  1  0  0  0  0
 43 45  1  0  0  0  0
 43 44  1  0  0  0  0
M  END
>  <minimizedAffinity>
-6.15921831

$$$$

 OpenBabel03252508053D

 45 48  0  0  1  0  0  0  0  0999 V2000
   37.7880   29.0230   40.8650 C   0  0  0  0  0  0  0  0  0  0  0  0
   38.3620   27.9750   40.1660 C   0  0  0  0  0  0  0  0  0  0  0  0
   38.4640   26.7360   40.7880 C   0  0  0  0  0  0  0  0  0  0  0  0
   38.0090   26.5370   42.0740 C   0  0  0  0  0  0  0  0  0  0  0  0
   37.4410   27.5660   42.7730 C   0  0  0  0  0  0  0  0  0  0  0  0
   37.3420   28.7810   42.1620 C   0  0  0  0  0  0  0  0  0  0  0  0
   38.9020   25.8540   40.3210 H   0  0  0  0  0  0  0  0  0  0  0  0
   38.0880   25.5820   42.5480 H   0  0  0  0  0  0  0  0  0  0  0  0
   37.0840   27.4440   43.7640 H   0  0  0  0  0  0  0  0  0  0  0  0
   36.8930   29.5990   42.7140 H   0  0  0  0  0  0  0  0  0  0  0  0
   37.7130   30.5630   40.2200 S   0  0  0  0  0  0  0  0  0  0  0  0
   37.2480   31.4520   41.3220 O   0  0  0  0  0  0  0  0  0  0  0  0
   36.6140   30.5090   39.0940 O   0  0  0  0  0  0  0  0  0  0  0  0
   38.0830   33.0280   39.5280 C   0  0  2  0  0  3  0  0  0  0  0  0
   38.6450   31.6170   39.3840 C   0  0  1  0  0  3  0  0  0  0  0  0
   39.9840   31.8130   39.8230 O   0  0  0  0  0  0  0  0  0  0  0  0
   40.6380   32.8060   39.1380 C   0  0  0  0  0  2  0  0  0  0  0  0
   40.3300   34.0860   39.8990 C   0  0  1  0  0  3  0  0  0  0  0  0
   38.8980   33.9580   40.3730 C   0  0  2  0  0  3  0  0  0  0  0  0
   36.8120   32.9920   40.1530 O   0  0  0  0  0  0  0  0  0  0  0  0
   36.8090   33.3550   41.0520 H   0  0  0  0  0  0  0  0  0  0  0  0
   41.1300   34.1610   41.0390 O   0  0  0  0  0  0  0  0  0  0  0  0
   41.1450   35.1270   41.3180 H   0  0  0  0  0  0  0  0  0  0  0  0
   38.8300   33.6060   41.7020 O   0  0  0  0  0  0  0  0  0  0  0  0
   39.6910   33.5270   42.1500 H   0  0  0  0  0  0  0  0  0  0  0  0
   38.8680   28.1150   38.7930 C   0  0  0  0  0  0  0  0  0  0  0  0
   38.1910   27.8600   37.7450 O   0  0  0  0  0  0  0  0  0  0  0  0
   40.2210   28.5770   38.7430 C   0  0  0  0  0  0  0  0  0  0  0  0
   41.0530   28.2120   39.8470 C   0  0  0  0  0  0  0  0  0  0  0  0
   42.3830   28.6370   39.8050 C   0  0  0  0  0  0  0  0  0  0  0  0
   42.7940   29.3600   38.7290 N   0  0  0  0  0  0  0  0  0  0  0  0
   41.9530   29.6830   37.6940 C   0  0  0  0  0  0  0  0  0  0  0  0
   40.7380   29.2840   37.7560 N   0  0  0  0  0  0  0  0  0  0  0  0
   40.7910   27.6540   40.7100 H   0  0  0  0  0  0  0  0  0  0  0  0
   43.0990   28.4120   40.5980 H   0  0  0  0  0  0  0  0  0  0  0  0
   42.4930   30.4530   36.5560 C   0  0  1  0  0  0  0  0  0  0  0  0
   43.9850   30.4520   36.3140 C   0  0  0  0  0  0  0  0  0  0  0  0
   43.0700   29.6280   35.4650 C   0  0  1  0  0  0  0  0  0  0  0  0
   41.9710   31.3640   36.2510 H   0  0  0  0  0  0  0  0  0  0  0  0
   44.6500   29.9980   37.0690 H   0  0  0  0  0  0  0  0  0  0  0  0
   44.4540   31.3200   35.8190 H   0  0  0  0  0  0  0  0  0  0  0  0
   42.9370   29.9000   34.4060 H   0  0  0  0  0  0  0  0  0  0  0  0
   43.2790   28.2040   35.6600 N   0  0  0  0  0  0  0  0  0  0  0  0
   43.0220   27.6490   34.8040 H   0  0  0  0  0  0  0  0  0  0  0  0
   44.2910   27.9570   35.8300 H   0  0  0  0  0  0  0  0  0  0  0  0
  1  6  1  0  0  0  0
  2  3  1  0  0  0  0
  2  1  2  0  0  0  0
  3  4  2  0  0  0  0
  4  8  1  0  0  0  0
  4  5  1  0  0  0  0
  5  9  1  0  0  0  0
  6 10  1  0  0  0  0
  6  5  2  0  0  0  0
  7  3  1  0  0  0  0
 11  1  1  0  0  0  0
 11 12  2  0  0  0  0
 13 11  2  0  0  0  0
 14 20  1  1  0  0  0
 14 19  1  0  0  0  0
 15 14  1  0  0  0  0
 15 16  1  0  0  0  0
 15 11  1  1  0  0  0
 17 16  1  0  0  0  0
 17 18  1  0  0  0  0
 18 19  1  0  0  0  0
 18 22  1  1  0  0  0
 19 24  1  1  0  0  0
 20 21  1  0  0  0  0
 22 23  1  0  0  0  0
 24 25  1  0  0  0  0
 26  2  1  0  0  0  0
 27 26  2  0  0  0  0
 28 26  1  0  0  0  0
 28 29  1  0  0  0  0
 29 34  1  0  0  0  0
 30 29  2  0  0  0  0
 30 35  1  0  0  0  0
 31 30  1  0  0  0  0
 32 33  1  0  0  0  0
 32 31  2  0  0  0  0
 33 28  2  0  0  0  0
 36 39  1  6  0  0  0
 36 32  1  0  0  0  0
 37 36  1  0  0  0  0
 37 40  1  0  0  0  0
 38 42  1  6  0  0  0
 38 43  1  0  0  0  0
 38 37  1  0  0  0  0
 38 36  1  0  0  0  0
 41 37  1  0  0  0  0
 43 45  1  0  0  0  0
 44 43  1  0  0  0  0
M  END
>  <minimizedAffinity>
-6.1103282

$$$$
