
 OpenBabel03252507463D

 40 42  0  0  1  0  0  0  0  0999 V2000
   48.6990   33.2740   40.4070 C   0  0  0  0  0  0  0  0  0  0  0  0
   48.3820   32.2530   39.5310 C   0  0  0  0  0  0  0  0  0  0  0  0
   49.0530   31.0400   39.5620 C   0  0  0  0  0  0  0  0  0  0  0  0
   50.0440   30.9060   40.5050 N   0  0  0  0  0  0  0  0  0  0  0  0
   50.3240   31.9240   41.3400 C   0  0  0  0  0  0  0  0  0  0  0  0
   49.6690   33.0740   41.2910 N   0  0  0  0  0  0  0  0  0  0  0  0
   48.8090   30.2390   38.8790 H   0  0  0  0  0  0  0  0  0  0  0  0
   51.0960   31.8590   42.0960 H   0  0  0  0  0  0  0  0  0  0  0  0
   47.9260   34.5250   40.2920 C   0  0  0  0  0  0  0  0  0  0  0  0
   47.0770   34.4100   39.5850 H   0  0  0  0  0  0  0  0  0  0  0  0
   48.5530   35.3560   39.8940 H   0  0  0  0  0  0  0  0  0  0  0  0
   47.3090   34.9520   41.6010 C   0  0  0  0  0  0  0  0  0  0  0  0
   47.6700   35.9770   41.8380 H   0  0  0  0  0  0  0  0  0  0  0  0
   47.6620   34.2450   42.3780 H   0  0  0  0  0  0  0  0  0  0  0  0
   45.8250   34.8790   41.6240 C   0  0  0  0  0  0  0  0  0  0  0  0
   45.1000   35.5850   42.6300 C   0  0  0  0  0  0  0  0  0  0  0  0
   43.3490   35.1840   42.2330 S   0  0  0  0  0  0  0  0  0  0  0  0
   43.9020   34.1150   40.7540 C   0  0  0  0  0  0  0  0  0  0  0  0
   45.0350   34.2220   40.8050 N   0  0  0  0  0  0  0  0  0  0  0  0
   45.5030   36.1950   43.4170 H   0  0  0  0  0  0  0  0  0  0  0  0
   43.0030   33.4430   39.9240 O   0  0  0  0  0  0  0  0  0  0  0  0
   41.1310   33.4900   38.0530 O   0  0  0  0  0  0  0  0  0  0  0  0
   42.0650   34.3830   38.8670 P   0  0  0  0  0  0  0  0  0  0  0  0
   41.1580   35.4600   39.7890 O   0  0  0  0  0  0  0  0  0  0  0  0
   40.3330   35.6520   39.2970 H   0  0  0  0  0  0  0  0  0  0  0  0
   43.0900   35.2700   37.8400 O   0  0  0  0  0  0  0  0  0  0  0  0
   42.6580   35.5970   37.0350 H   0  0  0  0  0  0  0  0  0  0  0  0
   47.0650   32.4890   38.3110 S   0  0  0  0  0  0  0  0  0  0  0  0
   47.8640   32.5150   35.7500 C   0  0  2  0  0  3  0  0  0  0  0  0
   47.4170   31.5400   36.8420 C   0  0  2  0  0  3  0  0  0  0  0  0
   46.2380   30.8900   36.4710 O   0  0  0  0  0  0  0  0  0  0  0  0
   45.3990   31.8540   35.9100 C   0  0  0  0  0  2  0  0  0  0  0  0
   45.7860   31.9640   34.4540 C   0  0  2  0  0  3  0  0  0  0  0  0
   47.2940   32.1200   34.4070 C   0  0  1  0  0  3  0  0  0  0  0  0
   49.2540   32.4800   35.6320 O   0  0  0  0  0  0  0  0  0  0  0  0
   49.4980   33.0580   34.8930 H   0  0  0  0  0  0  0  0  0  0  0  0
   45.1190   33.0210   33.8340 O   0  0  0  0  0  0  0  0  0  0  0  0
   45.5960   33.3230   33.0250 H   0  0  0  0  0  0  0  0  0  0  0  0
   47.6220   33.1210   33.5040 O   0  0  0  0  0  0  0  0  0  0  0  0
   47.9240   33.9570   33.9010 H   0  0  0  0  0  0  0  0  0  0  0  0
  1  6  1  0  0  0  0
  2  3  1  0  0  0  0
  2  1  2  0  0  0  0
  3  4  2  0  0  0  0
  4  5  1  0  0  0  0
  5  8  1  0  0  0  0
  6  5  2  0  0  0  0
  7  3  1  0  0  0  0
  9  1  1  0  0  0  0
  9 12  1  0  0  0  0
 10  9  1  0  0  0  0
 11  9  1  0  0  0  0
 12 15  1  0  0  0  0
 12 13  1  0  0  0  0
 12 14  1  0  0  0  0
 15 16  2  0  0  0  0
 16 20  1  0  0  0  0
 17 16  1  0  0  0  0
 18 19  2  0  0  0  0
 18 17  1  0  0  0  0
 19 15  1  0  0  0  0
 21 18  1  0  0  0  0
 22 23  2  0  0  0  0
 23 24  1  0  0  0  0
 23 21  1  0  0  0  0
 25 24  1  0  0  0  0
 26 23  1  0  0  0  0
 27 26  1  0  0  0  0
 28  2  1  0  0  0  0
 29 35  1  6  0  0  0
 29 30  1  0  0  0  0
 30 28  1  1  0  0  0
 31 30  1  0  0  0  0
 32 31  1  0  0  0  0
 33 37  1  1  0  0  0
 33 32  1  0  0  0  0
 34 39  1  6  0  0  0
 34 33  1  0  0  0  0
 34 29  1  0  0  0  0
 36 35  1  0  0  0  0
 38 37  1  0  0  0  0
 39 40  1  0  0  0  0
M  END
>  <minimizedAffinity>
-6.18111324

>  <minimizedRMSD>
3.5561769

$$$$
