
 OpenBabel03242517433D

 22 23  0  0  1  0  0  0  0  0999 V2000
   42.0720   34.9170   38.9730 C   0  0  2  0  0  3  0  0  0  0  0  0
   42.5870   35.1620   40.3770 C   0  0  1  0  0  3  0  0  0  0  0  0
   41.5810   34.8570   41.3210 O   0  0  0  0  0  0  0  0  0  0  0  0
   41.4430   33.4580   41.2470 C   0  0  0  0  0  2  0  0  0  0  0  0
   40.7000   33.0970   39.9760 C   0  0  2  0  0  3  0  0  0  0  0  0
   41.5830   33.4960   38.8050 C   0  0  1  0  0  3  0  0  0  0  0  0
   43.0940   35.1730   38.0780 O   0  0  0  0  0  0  0  0  0  0  0  0
   43.0560   34.5750   37.2730 H   0  0  0  0  0  0  0  0  0  0  0  0
   39.4900   33.7870   39.9260 O   0  0  0  0  0  0  0  0  0  0  0  0
   39.3440   34.2280   40.7910 H   0  0  0  0  0  0  0  0  0  0  0  0
   40.9010   33.4030   37.6100 O   0  0  0  0  0  0  0  0  0  0  0  0
   40.9840   32.4560   37.2910 H   0  0  0  0  0  0  0  0  0  0  0  0
   44.0220   34.1550   40.7790 S   0  0  0  0  0  0  0  0  0  0  0  0
   44.3240   35.6740   43.0970 C   0  0  0  0  0  0  0  0  0  0  0  0
   44.4600   34.4200   42.4930 C   0  0  0  0  0  0  0  0  0  0  0  0
   44.9450   33.3560   43.2530 C   0  0  0  0  0  0  0  0  0  0  0  0
   45.2620   33.6130   44.5620 N   0  0  0  0  0  0  0  0  0  0  0  0
   45.1160   34.8260   45.0980 C   0  0  0  0  0  0  0  0  0  0  0  0
   44.6500   35.8800   44.3960 N   0  0  0  0  0  0  0  0  0  0  0  0
   43.9550   36.5210   42.5340 H   0  0  0  0  0  0  0  0  0  0  0  0
   45.0440   32.3930   42.7720 H   0  0  0  0  0  0  0  0  0  0  0  0
   45.4280   34.7820   46.1370 H   0  0  0  0  0  0  0  0  0  0  0  0
  1  7  1  6  0  0  0
  1  2  1  0  0  0  0
  2 13  1  1  0  0  0
  2  3  1  0  0  0  0
  4  3  1  0  0  0  0
  5  9  1  6  0  0  0
  5  4  1  0  0  0  0
  6 11  1  6  0  0  0
  6  1  1  0  0  0  0
  6  5  1  0  0  0  0
  8  7  1  0  0  0  0
  9 10  1  0  0  0  0
 12 11  1  0  0  0  0
 13 15  1  0  0  0  0
 14 19  1  0  0  0  0
 15 14  2  0  0  0  0
 15 16  1  0  0  0  0
 16 17  2  0  0  0  0
 17 18  1  0  0  0  0
 18 22  1  0  0  0  0
 19 18  2  0  0  0  0
 20 14  1  0  0  0  0
 21 16  1  0  0  0  0
M  END
>  <minimizedAffinity>
-4.59802103

>  <minimizedRMSD>
1.86452699

$$$$
