
 OpenBabel03252504583D

 40 42  0  0  1  0  0  0  0  0999 V2000
   47.8670   33.9660   42.0320 N   0  0  0  0  0  0  0  0  0  0  0  0
   47.8500   34.9970   41.0650 C   0  0  0  0  0  0  0  0  0  0  0  0
   49.0570   35.7840   41.4130 C   0  0  0  0  0  0  0  0  0  0  0  0
   49.7560   35.1020   42.5850 C   0  0  0  0  0  0  0  0  0  0  0  0
   49.1580   33.6900   42.5110 C   0  0  2  0  0  0  0  0  0  0  0  0
   47.2870   35.3480   40.2410 H   0  0  0  0  0  0  0  0  0  0  0  0
   49.4700   36.6760   40.9630 H   0  0  0  0  0  0  0  0  0  0  0  0
   50.8190   35.0920   42.3410 H   0  0  0  0  0  0  0  0  0  0  0  0
   49.4810   35.5900   43.5360 H   0  0  0  0  0  0  0  0  0  0  0  0
   49.1570   33.1660   43.4630 H   0  0  0  0  0  0  0  0  0  0  0  0
   46.6880   33.3790   42.4220 C   0  0  0  0  0  0  0  0  0  0  0  0
   46.9110   32.3110   42.6790 H   0  0  0  0  0  0  0  0  0  0  0  0
   45.9300   33.2610   41.6140 H   0  0  0  0  0  0  0  0  0  0  0  0
   44.5980   35.7300   44.5310 C   0  0  0  0  0  0  0  0  0  0  0  0
   45.2520   35.2060   43.3720 C   0  0  0  0  0  0  0  0  0  0  0  0
   45.9970   34.0360   43.5120 C   0  0  0  0  0  0  0  0  0  0  0  0
   46.0510   33.4750   44.7400 N   0  0  0  0  0  0  0  0  0  0  0  0
   45.4150   33.9950   45.8470 C   0  0  0  0  0  0  0  0  0  0  0  0
   44.6950   35.1130   45.7360 N   0  0  0  0  0  0  0  0  0  0  0  0
   44.0180   36.6370   44.4310 H   0  0  0  0  0  0  0  0  0  0  0  0
   45.1840   35.6790   42.4210 H   0  0  0  0  0  0  0  0  0  0  0  0
   45.5190   33.4710   46.7880 H   0  0  0  0  0  0  0  0  0  0  0  0
   49.8360   33.0320   41.4760 O   0  0  0  0  0  0  0  0  0  0  0  0
   49.2250   30.6970   42.5820 O   0  0  0  0  0  0  0  0  0  0  0  0
   50.2730   31.4720   41.8210 P   0  0  2  0  0  0  0  0  0  0  0  0
   51.6620   31.5140   42.7930 O   0  0  0  0  0  0  0  0  0  0  0  0
   51.8080   30.6820   43.3080 H   0  0  0  0  0  0  0  0  0  0  0  0
   50.7210   30.6240   40.3990 O   0  0  0  0  0  0  0  0  0  0  0  0
   52.5040   31.4680   38.9890 C   0  0  2  0  0  3  0  0  0  0  0  0
   51.0740   31.5900   39.4550 C   0  0  1  0  0  3  0  0  0  0  0  0
   50.1750   31.6420   38.4000 O   0  0  0  0  0  0  0  0  0  0  0  0
   50.2750   30.5490   37.5470 C   0  0  0  0  0  2  0  0  0  0  0  0
   51.6490   30.3110   37.0110 C   0  0  1  0  0  3  0  0  0  0  0  0
   52.7340   30.3250   38.0380 C   0  0  1  0  0  3  0  0  0  0  0  0
   53.2700   31.1640   40.1380 O   0  0  0  0  0  0  0  0  0  0  0  0
   53.2240   30.1660   40.2880 H   0  0  0  0  0  0  0  0  0  0  0  0
   51.6480   29.0130   36.4500 O   0  0  0  0  0  0  0  0  0  0  0  0
   50.7210   28.7040   36.2410 H   0  0  0  0  0  0  0  0  0  0  0  0
   53.9270   30.6160   37.3420 O   0  0  0  0  0  0  0  0  0  0  0  0
   53.9490   30.1750   36.4570 H   0  0  0  0  0  0  0  0  0  0  0  0
  1 11  1  0  0  0  0
  1  5  1  0  0  0  0
  2  3  2  0  0  0  0
  2  1  1  0  0  0  0
  3  4  1  0  0  0  0
  4  9  1  0  0  0  0
  5  4  1  0  0  0  0
  5 10  1  1  0  0  0
  6  2  1  0  0  0  0
  7  3  1  0  0  0  0
  8  4  1  0  0  0  0
 11 12  1  0  0  0  0
 11 16  1  0  0  0  0
 13 11  1  0  0  0  0
 14 19  1  0  0  0  0
 15 16  1  0  0  0  0
 15 14  2  0  0  0  0
 16 17  2  0  0  0  0
 17 18  1  0  0  0  0
 18 22  1  0  0  0  0
 19 18  2  0  0  0  0
 20 14  1  0  0  0  0
 21 15  1  0  0  0  0
 23 25  1  0  0  0  0
 23  5  1  0  0  0  0
 25 24  2  1  0  0  0
 25 26  1  0  0  0  0
 26 27  1  0  0  0  0
 28 25  1  0  0  0  0
 29 30  1  0  0  0  0
 29 35  1  1  0  0  0
 30 28  1  1  0  0  0
 31 30  1  0  0  0  0
 32 31  1  0  0  0  0
 33 37  1  1  0  0  0
 33 32  1  0  0  0  0
 33 34  1  0  0  0  0
 34 39  1  6  0  0  0
 34 29  1  0  0  0  0
 35 36  1  0  0  0  0
 38 37  1  0  0  0  0
 40 39  1  0  0  0  0
M  END
>  <minimizedAffinity>
-5.29711723

>  <minimizedRMSD>
1.13512218

$$$$
