REMARK  Name = 
REMARK  12 active torsions:
REMARK  status: ('A' for Active; 'I' for Inactive)
REMARK    1  A    between atoms: O_1  and  C_2
REMARK    2  A    between atoms: O_1  and  C_9
REMARK    3  A    between atoms: C_2  and  C_4
REMARK    4  A    between atoms: C_10  and  C_11
REMARK    5  A    between atoms: C_11  and  O_12
REMARK    6  A    between atoms: O_12  and  P_14
REMARK    7  A    between atoms: P_14  and  O_15
REMARK    8  A    between atoms: P_14  and  O_16
REMARK    9  A    between atoms: O_16  and  C_29
REMARK   10  A    between atoms: O_27  and  C_28
REMARK   11  A    between atoms: C_32  and  O_33
REMARK   12  A    between atoms: C_34  and  O_35
REMARK                            x       y       z     vdW  Elec       q    Type
REMARK                         _______ _______ _______ _____ _____    ______ ____
ROOT
ATOM      1  C   UNL     1      45.178  35.598  43.565  0.00  0.00    +0.000 C 
ATOM      2  H   UNL     1      46.100  35.340  43.012  0.00  0.00    +0.000 HD
ATOM      3  H   UNL     1      45.135  36.691  43.749  0.00  0.00    +0.000 HD
ENDROOT
BRANCH   1   5
ATOM      4  C   UNL     1      43.736  35.668  41.466  0.00  0.00    +0.000 C 
ATOM      5  C   UNL     1      43.947  35.279  42.730  0.00  0.00    +0.000 C 
BRANCH   4   6
ATOM      6  O   UNL     1      42.544  35.264  40.887  0.00  0.00    +0.000 OA
BRANCH   6   7
ATOM      7  C   UNL     1      41.281  35.729  41.163  0.00  0.00    +0.000 C 
ATOM      8  H   UNL     1      41.208  35.825  42.291  0.00  0.00    +0.000 HD
ATOM      9  H   UNL     1      41.033  36.704  40.745  0.00  0.00    +0.000 HD
BRANCH   7  11
ATOM     10  C   UNL     1      40.253  33.590  41.618  0.00  0.00    +0.000 A 
ATOM     11  C   UNL     1      40.204  34.760  40.831  0.00  0.00    +0.000 A 
ATOM     12  C   UNL     1      39.212  34.844  39.906  0.00  0.00    +0.000 A 
ATOM     13  N   UNL     1      38.366  33.818  39.817  0.00  0.00    +0.000 NA
ATOM     14  C   UNL     1      38.408  32.722  40.552  0.00  0.00    +0.000 A 
ATOM     15  N   UNL     1      39.396  32.557  41.524  0.00  0.00    +0.000 NA
ATOM     16  H   UNL     1      41.001  33.400  42.395  0.00  0.00    +0.000 HD
ATOM     17  H   UNL     1      39.228  35.762  39.336  0.00  0.00    +0.000 HD
ATOM     18  H   UNL     1      37.686  31.919  40.430  0.00  0.00    +0.000 HD
ENDBRANCH   7  11
ENDBRANCH   6   7
ENDBRANCH   4   6
ENDBRANCH   1   5
BRANCH   1  19
ATOM     19  O   UNL     1      45.050  34.920  44.750  0.00  0.00    +0.000 OA
BRANCH  19  21
ATOM     20  O   UNL     1      45.562  32.339  44.410  0.00  0.00    +0.000 OA
ATOM     21  P   UNL     1      46.154  33.639  44.876  0.00  0.00    +0.000 P 
BRANCH  21  22
ATOM     22  O   UNL     1      47.525  33.976  43.927  0.00  0.00    +0.000 OA
ATOM     23  H   UNL     1      48.246  34.365  44.473  0.00  0.00    +0.000 HD
ENDBRANCH  21  22
BRANCH  21  24
ATOM     24  O   UNL     1      46.652  33.532  46.492  0.00  0.00    +0.000 OA
BRANCH  24  26
ATOM     25  C   UNL     1      47.677  32.399  48.254  0.00  0.00    +0.000 C 
ATOM     26  C   UNL     1      47.386  32.416  46.767  0.00  0.00    +0.000 C 
ATOM     27  O   UNL     1      48.549  32.414  46.016  0.00  0.00    +0.000 OA
ATOM     28  C   UNL     1      49.406  31.367  46.274  0.00  0.00    +0.000 C 
ATOM     29  C   UNL     1      49.592  31.026  47.713  0.00  0.00    +0.000 C 
ATOM     30  C   UNL     1      49.154  32.222  48.530  0.00  0.00    +0.000 C 
BRANCH  25  31
ATOM     31  O   UNL     1      47.280  33.594  48.851  0.00  0.00    +0.000 OA
ATOM     32  H   UNL     1      47.967  34.290  48.871  0.00  0.00    +0.000 HD
ENDBRANCH  25  31
BRANCH  29  33
ATOM     33  O   UNL     1      48.803  29.929  48.065  0.00  0.00    +0.000 OA
ATOM     34  H   UNL     1      48.799  29.251  47.353  0.00  0.00    +0.000 HD
ENDBRANCH  29  33
BRANCH  30  35
ATOM     35  O   UNL     1      49.355  32.052  49.883  0.00  0.00    +0.000 OA
ATOM     36  H   UNL     1      50.287  31.744  50.020  0.00  0.00    +0.000 HD
ENDBRANCH  30  35
ENDBRANCH  24  26
ENDBRANCH  21  24
ENDBRANCH  19  21
ENDBRANCH   1  19
TORSDOF 12
