
 OpenBabel03252502243D

 37 39  0  0  1  0  0  0  0  0999 V2000
   45.8040   33.8180   41.7400 N   0  0  0  0  0  0  0  0  0  0  0  0
   45.9810   33.0470   42.9560 C   0  0  0  0  0  0  0  0  0  0  0  0
   47.0080   33.8610   43.7690 C   0  0  0  0  0  0  0  0  0  0  0  0
   48.3350   33.7940   43.0500 C   0  0  0  0  0  0  0  0  0  0  0  0
   48.2420   33.9590   41.5690 C   0  0  0  0  0  0  0  0  0  0  0  0
   46.9060   34.3990   41.0530 C   0  0  1  0  0  0  0  0  0  0  0  0
   45.0650   32.8840   43.5130 H   0  0  0  0  0  0  0  0  0  0  0  0
   46.5300   32.1220   42.6750 H   0  0  0  0  0  0  0  0  0  0  0  0
   46.6240   34.9190   43.7560 H   0  0  0  0  0  0  0  0  0  0  0  0
   47.1330   33.4780   44.7830 H   0  0  0  0  0  0  0  0  0  0  0  0
   49.0180   34.5180   43.5380 H   0  0  0  0  0  0  0  0  0  0  0  0
   48.7510   32.7750   43.2780 H   0  0  0  0  0  0  0  0  0  0  0  0
   48.4900   32.9940   41.0500 H   0  0  0  0  0  0  0  0  0  0  0  0
   49.0410   34.6660   41.2630 H   0  0  0  0  0  0  0  0  0  0  0  0
   46.8260   35.5020   41.2050 H   0  0  0  0  0  0  0  0  0  0  0  0
   42.5770   35.3610   40.6370 C   0  0  0  0  0  0  0  0  0  0  0  0
   43.8580   35.2760   41.2090 C   0  0  0  0  0  0  0  0  0  0  0  0
   44.5010   34.0210   41.1890 C   0  0  0  0  0  0  0  0  0  0  0  0
   43.8360   32.9870   40.6190 N   0  0  0  0  0  0  0  0  0  0  0  0
   42.6030   33.1090   40.0780 C   0  0  0  0  0  0  0  0  0  0  0  0
   41.9740   34.3200   40.0930 N   0  0  0  0  0  0  0  0  0  0  0  0
   42.0740   36.3140   40.6450 H   0  0  0  0  0  0  0  0  0  0  0  0
   44.3700   36.1120   41.6580 H   0  0  0  0  0  0  0  0  0  0  0  0
   42.1030   32.2590   39.6310 H   0  0  0  0  0  0  0  0  0  0  0  0
   46.8340   34.0570   39.6930 O   0  0  0  0  0  0  0  0  0  0  0  0
   47.1560   31.8430   38.7480 C   0  0  2  0  0  3  0  0  0  0  0  0
   47.7310   33.0910   39.3170 C   0  0  1  0  0  3  0  0  0  0  0  0
   48.7840   33.5150   38.5390 O   0  0  0  0  0  0  0  0  0  0  0  0
   48.2300   34.2210   37.4450 C   0  0  0  0  0  2  0  0  0  0  0  0
   47.2380   33.3470   36.7250 C   0  0  1  0  0  3  0  0  0  0  0  0
   47.2860   31.9170   37.2410 C   0  0  2  0  0  3  0  0  0  0  0  0
   45.8050   31.6730   39.0190 O   0  0  0  0  0  0  0  0  0  0  0  0
   45.5230   30.7690   38.7730 H   0  0  0  0  0  0  0  0  0  0  0  0
   45.9740   33.8840   36.8990 O   0  0  0  0  0  0  0  0  0  0  0  0
   45.2960   33.3230   36.4110 H   0  0  0  0  0  0  0  0  0  0  0  0
   46.2430   31.1970   36.6670 O   0  0  0  0  0  0  0  0  0  0  0  0
   46.3100   30.2650   36.9370 H   0  0  0  0  0  0  0  0  0  0  0  0
  1  2  1  0  0  0  0
  2  7  1  0  0  0  0
  2  3  1  0  0  0  0
  3 10  1  0  0  0  0
  4 12  1  0  0  0  0
  4 11  1  0  0  0  0
  4  3  1  0  0  0  0
  5  4  1  0  0  0  0
  6 15  1  1  0  0  0
  6  5  1  0  0  0  0
  6  1  1  0  0  0  0
  8  2  1  0  0  0  0
  9  3  1  0  0  0  0
 13  5  1  0  0  0  0
 14  5  1  0  0  0  0
 16 22  1  0  0  0  0
 16 17  1  0  0  0  0
 17 23  1  0  0  0  0
 18 17  2  0  0  0  0
 18  1  1  0  0  0  0
 19 18  1  0  0  0  0
 20 21  1  0  0  0  0
 20 19  2  0  0  0  0
 21 16  2  0  0  0  0
 24 20  1  0  0  0  0
 25  6  1  0  0  0  0
 26 32  1  6  0  0  0
 26 27  1  0  0  0  0
 27 25  1  6  0  0  0
 28 27  1  0  0  0  0
 29 28  1  0  0  0  0
 30 34  1  1  0  0  0
 30 31  1  0  0  0  0
 30 29  1  0  0  0  0
 31 36  1  6  0  0  0
 31 26  1  0  0  0  0
 33 32  1  0  0  0  0
 35 34  1  0  0  0  0
 36 37  1  0  0  0  0
M  END
>  <minimizedAffinity>
-4.7362752

>  <minimizedRMSD>
5.01205158

$$$$
