
 OpenBabel03252508463D

 48 50  0  0  1  0  0  0  0  0999 V2000
   42.7320   31.3800   42.6790 N   0  0  0  0  0  0  0  0  0  0  0  0
   42.8990   31.7640   43.6490 H   0  0  0  0  0  0  0  0  0  0  0  0
   43.0180   32.4130   41.7390 C   0  0  0  0  0  0  0  0  0  0  0  0
   43.4480   32.0320   40.7810 H   0  0  0  0  0  0  0  0  0  0  0  0
   42.0330   32.8870   41.4760 H   0  0  0  0  0  0  0  0  0  0  0  0
   43.6560   34.8200   41.9240 C   0  0  0  0  0  0  0  0  0  0  0  0
   43.8940   33.5010   42.2530 C   0  0  0  0  0  0  0  0  0  0  0  0
   44.9700   33.2130   43.0730 C   0  0  0  0  0  0  0  0  0  0  0  0
   45.7720   34.2160   43.5420 C   0  0  0  0  0  0  0  0  0  0  0  0
   45.5440   35.5340   43.2210 C   0  0  0  0  0  0  0  0  0  0  0  0
   44.4620   35.7780   42.4020 C   0  0  0  0  0  0  0  0  0  0  0  0
   45.1580   32.1700   43.3330 H   0  0  0  0  0  0  0  0  0  0  0  0
   46.5920   33.9040   44.1770 H   0  0  0  0  0  0  0  0  0  0  0  0
   46.1930   36.3220   43.6020 H   0  0  0  0  0  0  0  0  0  0  0  0
   44.2260   36.8010   42.1090 H   0  0  0  0  0  0  0  0  0  0  0  0
   40.2080   35.5870   40.5790 C   0  0  0  0  0  0  0  0  0  0  0  0
   41.2420   35.3690   41.5070 C   0  0  0  0  0  0  0  0  0  0  0  0
   42.5080   35.0650   41.0560 C   0  0  0  0  0  0  0  0  0  0  0  0
   42.6850   34.9900   39.7050 N   0  0  0  0  0  0  0  0  0  0  0  0
   41.6800   35.2030   38.8200 C   0  0  0  0  0  0  0  0  0  0  0  0
   40.4530   35.4980   39.2710 N   0  0  0  0  0  0  0  0  0  0  0  0
   39.2160   35.8260   40.9890 H   0  0  0  0  0  0  0  0  0  0  0  0
   41.1180   35.4240   42.5720 H   0  0  0  0  0  0  0  0  0  0  0  0
   41.8780   35.1300   37.7500 H   0  0  0  0  0  0  0  0  0  0  0  0
   41.0760   30.9210   42.6770 S   0  0  0  0  0  0  0  0  0  0  0  0
   40.1990   32.0790   42.2960 O   0  0  0  0  0  0  0  0  0  0  0  0
   39.5600   32.4560   42.9250 H   0  0  0  0  0  0  0  0  0  0  0  0
   40.6710   30.3580   44.0010 O   0  0  0  0  0  0  0  0  0  0  0  0
   40.7080   30.9060   44.8100 H   0  0  0  0  0  0  0  0  0  0  0  0
   40.9180   29.7170   41.5160 O   0  0  0  0  0  0  0  0  0  0  0  0
   40.7900   28.4910   42.1670 C   0  0  0  0  0  0  0  0  0  0  0  0
   40.1410   27.8740   41.5120 H   0  0  0  0  0  0  0  0  0  0  0  0
   40.3440   28.5610   43.1660 H   0  0  0  0  0  0  0  0  0  0  0  0
   42.1560   27.8200   42.1950 C   0  0  0  0  0  0  0  0  0  0  0  0
   42.3800   27.4400   41.1870 H   0  0  0  0  0  0  0  0  0  0  0  0
   42.9340   28.5480   42.5370 H   0  0  0  0  0  0  0  0  0  0  0  0
   40.9010   26.8350   44.1140 C   0  0  2  0  0  3  0  0  0  0  0  0
   42.0940   26.7210   43.2310 C   0  0  2  0  0  3  0  0  0  0  0  0
   43.3070   26.7560   43.9090 O   0  0  0  0  0  0  0  0  0  0  0  0
   43.3330   26.0120   45.0630 C   0  0  0  0  0  2  0  0  0  0  0  0
   42.3980   26.5640   46.1110 C   0  0  1  0  0  3  0  0  0  0  0  0
   41.1980   27.2360   45.5370 C   0  0  2  0  0  3  0  0  0  0  0  0
   40.1730   25.6200   44.1400 O   0  0  0  0  0  0  0  0  0  0  0  0
   40.4280   25.0410   43.3920 H   0  0  0  0  0  0  0  0  0  0  0  0
   41.9980   25.5800   47.0160 O   0  0  0  0  0  0  0  0  0  0  0  0
   41.2500   25.9640   47.5420 H   0  0  0  0  0  0  0  0  0  0  0  0
   40.0510   26.8570   46.2720 O   0  0  0  0  0  0  0  0  0  0  0  0
   39.2920   27.2800   45.7560 H   0  0  0  0  0  0  0  0  0  0  0  0
  1  2  1  0  0  0  0
  3  7  1  0  0  0  0
  3  1  1  0  0  0  0
  4  3  1  0  0  0  0
  5  3  1  0  0  0  0
  6  7  2  0  0  0  0
  6 11  1  0  0  0  0
  7  8  1  0  0  0  0
  8 12  1  0  0  0  0
  8  9  2  0  0  0  0
  9 13  1  0  0  0  0
 10  9  1  0  0  0  0
 10 14  1  0  0  0  0
 11 10  2  0  0  0  0
 15 11  1  0  0  0  0
 16 22  1  0  0  0  0
 16 17  1  0  0  0  0
 17 23  1  0  0  0  0
 18 17  2  0  0  0  0
 18  6  1  0  0  0  0
 19 18  1  0  0  0  0
 20 21  1  0  0  0  0
 20 19  2  0  0  0  0
 21 16  2  0  0  0  0
 24 20  1  0  0  0  0
 25  1  1  0  0  0  0
 25 28  1  0  0  0  0
 26 25  1  0  0  0  0
 26 27  1  0  0  0  0
 28 29  1  0  0  0  0
 30 31  1  0  0  0  0
 30 25  1  0  0  0  0
 31 34  1  0  0  0  0
 31 33  1  0  0  0  0
 32 31  1  0  0  0  0
 34 36  1  0  0  0  0
 35 34  1  0  0  0  0
 37 43  1  1  0  0  0
 37 42  1  0  0  0  0
 38 34  1  6  0  0  0
 38 39  1  0  0  0  0
 38 37  1  0  0  0  0
 39 40  1  0  0  0  0
 40 41  1  0  0  0  0
 41 45  1  1  0  0  0
 42 41  1  0  0  0  0
 42 47  1  1  0  0  0
 44 43  1  0  0  0  0
 45 46  1  0  0  0  0
 48 47  1  0  0  0  0
M  END
>  <minimizedAffinity>
-5.67422438

>  <minimizedRMSD>
1.75897133

$$$$
