
     RDKit          3D

 38 40  0  0  0  0  0  0  0  0999 V2000
   46.2686   34.7458   43.2400 C   0  0  0  0  0  0  0  0  0  0  0  0
   45.3054   35.7408   43.5919 C   0  0  0  0  0  0  0  0  0  0  0  0
   44.6544   35.5741   44.8202 C   0  0  0  0  0  0  0  0  0  0  0  0
   44.9735   34.5024   45.5798 N   0  0  0  0  0  0  0  0  0  0  0  0
   45.9139   33.5823   45.1749 C   0  0  0  0  0  0  0  0  0  0  0  0
   46.5539   33.6958   44.0259 N   0  0  0  0  0  0  0  0  0  0  0  0
   46.2264   32.4346   46.0809 C   0  0  1  0  0  0  0  0  0  0  0  0
   47.0389   32.6899   47.3314 C   0  0  0  0  0  0  0  0  0  0  0  0
   45.5479   32.4995   47.3923 C   0  0  1  0  0  0  0  0  0  0  0  0
   44.8478   33.6958   47.7954 N   0  0  0  0  0  0  0  0  0  0  0  0
   46.9175   34.9732   41.9718 C   0  0  0  0  0  0  0  0  0  0  0  0
   48.0869   35.4859   41.8635 O   0  0  0  0  0  0  0  0  0  0  0  0
   45.0999   36.5738   42.9344 H   0  0  0  0  0  0  0  0  0  0  0  0
   43.9181   36.2893   45.1425 H   0  0  0  0  0  0  0  0  0  0  0  0
   46.4013   31.4438   45.6305 H   0  0  0  0  0  0  0  0  0  0  0  0
   47.4678   33.7209   47.3659 H   0  0  0  0  0  0  0  0  0  0  0  0
   47.7251   31.9100   47.6731 H   0  0  0  0  0  0  0  0  0  0  0  0
   45.2489   31.5961   47.9490 H   0  0  0  0  0  0  0  0  0  0  0  0
   45.4001   34.5308   47.9359 H   0  0  0  0  0  0  0  0  0  0  0  0
   43.8636   33.7491   47.5676 H   0  0  0  0  0  0  0  0  0  0  0  0
   45.5440   32.7375   41.9012 O   0  0  0  0  0  0  0  0  0  0  0  0
   45.1226   33.7065   40.9955 C   0  0  1  0  0  0  0  0  0  0  0  0
   46.2786   34.6288   40.6684 C   0  0  2  0  0  0  0  0  0  0  0  0
   47.2518   33.9919   39.9063 O   0  0  0  0  0  0  0  0  0  0  0  0
   46.7399   33.4261   38.7502 C   0  0  0  0  0  0  0  0  0  0  0  0
   45.6915   32.3855   39.0180 C   0  0  2  0  0  0  0  0  0  0  0  0
   45.1567   31.9970   37.7820 O   0  0  0  0  0  0  0  0  0  0  0  0
   44.5686   33.0263   39.7820 C   0  0  1  0  0  0  0  0  0  0  0  0
   43.7120   32.0096   40.2607 O   0  0  0  0  0  0  0  0  0  0  0  0
   46.0796   32.0170   41.4779 H   0  0  0  0  0  0  0  0  0  0  0  0
   44.3548   34.3219   41.5080 H   0  0  0  0  0  0  0  0  0  0  0  0
   45.9145   35.5301   40.1493 H   0  0  0  0  0  0  0  0  0  0  0  0
   46.3092   34.1711   38.0467 H   0  0  0  0  0  0  0  0  0  0  0  0
   47.5829   32.9308   38.2297 H   0  0  0  0  0  0  0  0  0  0  0  0
   46.0990   31.4822   39.5095 H   0  0  0  0  0  0  0  0  0  0  0  0
   45.0895   31.0125   37.7289 H   0  0  0  0  0  0  0  0  0  0  0  0
   44.0102   33.7002   39.1106 H   0  0  0  0  0  0  0  0  0  0  0  0
   44.0198   31.6763   41.1506 H   0  0  0  0  0  0  0  0  0  0  0  0
  1  2  2  0
  1  6  1  0
  2  3  1  0
  3  4  2  0
  5  4  1  0
  5  7  1  0
  6  5  2  0
  7  8  1  0
  7  9  1  0
  8  9  1  0
  9 10  1  0
 11  1  1  0
 12 11  2  0
  2 13  1  0
  3 14  1  0
  7 15  1  6
  8 16  1  0
  8 17  1  0
  9 18  1  1
 10 19  1  0
 10 20  1  0
 21 22  1  0
 22 23  1  0
 23 24  1  0
 24 25  1  0
 25 26  1  0
 26 27  1  0
 26 28  1  0
 28 29  1  0
 28 22  1  0
 21 30  1  0
 22 31  1  1
 23 32  1  6
 25 33  1  0
 25 34  1  0
 26 35  1  1
 27 36  1  0
 28 37  1  6
 29 38  1  0
 11 23  1  0
M  ISO  8  13  14  14  14  15  13  16  13  17  13  18  13  19   5  20   5
M  END
>  <DihAtoms>  (1) 
0,10,22,21

>  <DihDeg>  (1) 
-60.51753520214001

$$$$
