REMARK  Name = 
REMARK  5 active torsions:
REMARK  status: ('A' for Active; 'I' for Inactive)
REMARK    1  A    between atoms: C_2  and  S_7
REMARK    2  A    between atoms: S_7  and  C_13
REMARK    3  A    between atoms: O_11  and  C_12
REMARK    4  A    between atoms: C_16  and  O_17
REMARK    5  A    between atoms: C_18  and  O_19
REMARK                            x       y       z     vdW  Elec       q    Type
REMARK                         _______ _______ _______ _____ _____    ______ ____
ROOT
ATOM      1  C   UNL     1      41.455  35.383  40.088  0.00  0.00    +0.000 C 
ATOM      2  C   UNL     1      42.135  34.819  41.319  0.00  0.00    +0.000 C 
ATOM      3  O   UNL     1      42.212  33.411  41.227  0.00  0.00    +0.000 OA
ATOM      4  C   UNL     1      43.134  33.176  40.190  0.00  0.00    +0.000 C 
ATOM      5  C   UNL     1      42.472  33.471  38.859  0.00  0.00    +0.000 C 
ATOM      6  C   UNL     1      42.166  34.959  38.822  0.00  0.00    +0.000 C 
ENDROOT
BRANCH   1   7
ATOM      7  O   UNL     1      41.443  36.761  40.184  0.00  0.00    +0.000 OA
ATOM      8  H   UNL     1      41.527  37.208  39.288  0.00  0.00    +0.000 HD
ENDBRANCH   1   7
BRANCH   5   9
ATOM      9  O   UNL     1      41.295  32.733  38.745  0.00  0.00    +0.000 OA
ATOM     10  H   UNL     1      41.253  32.093  39.489  0.00  0.00    +0.000 HD
ENDBRANCH   5   9
BRANCH   6  11
ATOM     11  O   UNL     1      41.371  35.279  37.742  0.00  0.00    +0.000 OA
ATOM     12  H   UNL     1      41.978  35.432  36.959  0.00  0.00    +0.000 HD
ENDBRANCH   6  11
BRANCH   2  13
ATOM     13  S   UNL     1      43.812  35.433  41.533  0.00  0.00    +0.000 S 
BRANCH  13  15
ATOM     14  C   UNL     1      44.272  35.728  44.266  0.00  0.00    +0.000 A 
ATOM     15  C   UNL     1      44.422  34.921  43.134  0.00  0.00    +0.000 A 
ATOM     16  C   UNL     1      45.060  33.688  43.267  0.00  0.00    +0.000 A 
ATOM     17  N   UNL     1      45.505  33.342  44.517  0.00  0.00    +0.000 NA
ATOM     18  C   UNL     1      45.339  34.144  45.571  0.00  0.00    +0.000 A 
ATOM     19  N   UNL     1      44.728  35.343  45.483  0.00  0.00    +0.000 NA
ATOM     20  H   UNL     1      43.785  36.692  44.197  0.00  0.00    +0.000 HD
ATOM     21  H   UNL     1      45.169  33.075  42.383  0.00  0.00    +0.000 HD
ATOM     22  H   UNL     1      45.769  33.659  46.442  0.00  0.00    +0.000 HD
ENDBRANCH  13  15
ENDBRANCH   2  13
TORSDOF 5
