
 OpenBabel03252506133D

 39 41  0  0  1  0  0  0  0  0999 V2000
   44.9280   33.5130   41.1550 F   0  0  0  0  0  0  0  0  0  0  0  0
   46.1520   34.0270   40.9970 C   0  0  0  0  0  0  0  0  0  0  0  0
   46.7220   34.7610   42.0240 C   0  0  0  0  0  0  0  0  0  0  0  0
   47.9870   35.3260   41.9400 C   0  0  0  0  0  0  0  0  0  0  0  0
   48.7300   35.1530   40.7710 C   0  0  0  0  0  0  0  0  0  0  0  0
   48.1280   34.4150   39.7680 C   0  0  0  0  0  0  0  0  0  0  0  0
   46.8920   33.8560   39.8340 C   0  0  0  0  0  0  0  0  0  0  0  0
   48.3720   35.8930   42.7900 H   0  0  0  0  0  0  0  0  0  0  0  0
   49.7080   35.6090   40.7480 H   0  0  0  0  0  0  0  0  0  0  0  0
   48.8140   34.3530   38.9260 H   0  0  0  0  0  0  0  0  0  0  0  0
   45.4290   34.2200   45.4160 C   0  0  0  0  0  0  0  0  0  0  0  0
   44.5950   35.3560   45.5920 C   0  0  0  0  0  0  0  0  0  0  0  0
   44.4860   36.2990   44.5380 C   0  0  0  0  0  0  0  0  0  0  0  0
   45.2060   36.0430   43.4040 N   0  0  0  0  0  0  0  0  0  0  0  0
   45.9800   34.9650   43.2720 C   0  0  0  0  0  0  0  0  0  0  0  0
   46.0860   34.0680   44.2680 N   0  0  0  0  0  0  0  0  0  0  0  0
   44.0520   35.5080   46.5010 H   0  0  0  0  0  0  0  0  0  0  0  0
   43.8650   37.1630   44.6430 H   0  0  0  0  0  0  0  0  0  0  0  0
   45.5190   33.3010   46.4780 N   0  0  0  0  0  0  0  0  0  0  0  0
   46.3940   32.9890   46.9950 H   0  0  0  0  0  0  0  0  0  0  0  0
   44.6830   32.7960   46.8970 H   0  0  0  0  0  0  0  0  0  0  0  0
   46.3980   33.1440   38.7760 O   0  0  0  0  0  0  0  0  0  0  0  0
   47.9670   34.2640   36.9600 O   0  0  0  0  0  0  0  0  0  0  0  0
   46.9950   33.1320   37.2030 P   0  0  2  0  0  0  0  0  0  0  0  0
   45.6720   33.2500   36.1270 O   0  0  0  0  0  0  0  0  0  0  0  0
   44.9070   32.8030   36.5540 H   0  0  0  0  0  0  0  0  0  0  0  0
   47.7550   31.6810   36.8080 O   0  0  0  0  0  0  0  0  0  0  0  0
   49.1450   31.7730   34.8420 C   0  0  1  0  0  3  0  0  0  0  0  0
   47.8250   31.4070   35.4750 C   0  0  2  0  0  3  0  0  0  0  0  0
   46.8240   31.9880   34.7120 O   0  0  0  0  0  0  0  0  0  0  0  0
   46.7260   31.2040   33.5490 C   0  0  0  0  0  2  0  0  0  0  0  0
   47.9890   31.2250   32.7420 C   0  0  2  0  0  3  0  0  0  0  0  0
   49.2310   31.0080   33.5360 C   0  0  2  0  0  3  0  0  0  0  0  0
   49.2160   33.1320   34.4990 O   0  0  0  0  0  0  0  0  0  0  0  0
   48.6480   33.6280   35.1400 H   0  0  0  0  0  0  0  0  0  0  0  0
   48.0270   32.3540   31.9600 O   0  0  0  0  0  0  0  0  0  0  0  0
   48.7050   33.0030   32.2090 H   0  0  0  0  0  0  0  0  0  0  0  0
   49.5580   29.6680   33.7340 O   0  0  0  0  0  0  0  0  0  0  0  0
   49.9340   29.3590   32.8720 H   0  0  0  0  0  0  0  0  0  0  0  0
  2  1  1  0  0  0  0
  2  3  1  0  0  0  0
  3 15  1  0  0  0  0
  4  3  2  0  0  0  0
  4  8  1  0  0  0  0
  5  4  1  0  0  0  0
  6  7  1  0  0  0  0
  6  5  2  0  0  0  0
  7  2  2  0  0  0  0
  9  5  1  0  0  0  0
 10  6  1  0  0  0  0
 11 12  1  0  0  0  0
 11 19  1  0  0  0  0
 12 17  1  0  0  0  0
 13 18  1  0  0  0  0
 13 12  2  0  0  0  0
 14 13  1  0  0  0  0
 15 14  2  0  0  0  0
 15 16  1  0  0  0  0
 16 11  2  0  0  0  0
 19 21  1  0  0  0  0
 19 20  1  0  0  0  0
 22  7  1  0  0  0  0
 24 23  2  6  0  0  0
 24 22  1  0  0  0  0
 25 26  1  0  0  0  0
 25 24  1  0  0  0  0
 27 24  1  0  0  0  0
 28 34  1  6  0  0  0
 28 29  1  0  0  0  0
 29 27  1  1  0  0  0
 30 29  1  0  0  0  0
 31 30  1  0  0  0  0
 32 36  1  1  0  0  0
 32 33  1  0  0  0  0
 32 31  1  0  0  0  0
 33 38  1  1  0  0  0
 33 28  1  0  0  0  0
 34 35  1  0  0  0  0
 36 37  1  0  0  0  0
 39 38  1  0  0  0  0
M  END
>  <minimizedAffinity>
-7.23817873

>  <minimizedRMSD>
0.820578456

$$$$
