
     RDKit          3D

 28 29  0  0  0  0  0  0  0  0999 V2000
   44.5179   36.0423   44.5413 C   0  0  0  0  0  0  0  0  0  0  0  0
   45.1765   36.0571   43.3099 C   0  0  0  0  0  0  0  0  0  0  0  0
   46.0801   35.0382   43.0144 C   0  0  0  0  0  0  0  0  0  0  0  0
   46.2768   34.0645   43.9586 N   0  0  0  0  0  0  0  0  0  0  0  0
   45.6274   34.0760   45.1377 C   0  0  0  0  0  0  0  0  0  0  0  0
   44.7467   35.0674   45.4280 N   0  0  0  0  0  0  0  0  0  0  0  0
   46.8016   34.9295   41.8330 O   0  0  0  0  0  0  0  0  0  0  0  0
   43.8223   36.8339   44.7592 H   0  0  0  0  0  0  0  0  0  0  0  0
   45.0331   36.8208   42.5494 H   0  0  0  0  0  0  0  0  0  0  0  0
   45.8932   33.2328   45.7797 H   0  0  0  0  0  0  0  0  0  0  0  0
   49.2392   33.8955   43.4152 O   0  0  0  0  0  0  0  0  0  0  0  0
   48.1529   33.2165   42.8579 C   0  0  1  0  0  0  0  0  0  0  0  0
   47.7076   33.8634   41.5963 C   0  0  1  0  0  0  0  0  0  0  0  0
   47.2117   33.0851   40.6081 O   0  0  0  0  0  0  0  0  0  0  0  0
   47.1623   31.7299   40.8263 C   0  0  0  0  0  0  0  0  0  0  0  0
   48.5561   31.3449   41.2958 C   0  0  2  0  0  0  0  0  0  0  0  0
   48.7840   30.0079   41.1360 O   0  0  0  0  0  0  0  0  0  0  0  0
   48.5500   31.7776   42.7512 C   0  0  1  0  0  0  0  0  0  0  0  0
   49.8397   31.5279   43.2339 O   0  0  0  0  0  0  0  0  0  0  0  0
   49.4345   33.6753   44.3398 H   0  0  0  0  0  0  0  0  0  0  0  0
   47.3268   33.2828   43.5970 H   0  0  0  0  0  0  0  0  0  0  0  0
   48.6130   34.3839   41.1660 H   0  0  0  0  0  0  0  0  0  0  0  0
   46.8991   31.2229   39.8891 H   0  0  0  0  0  0  0  0  0  0  0  0
   46.4071   31.4883   41.6205 H   0  0  0  0  0  0  0  0  0  0  0  0
   49.3234   31.9959   40.8011 H   0  0  0  0  0  0  0  0  0  0  0  0
   49.2367   29.6422   41.9325 H   0  0  0  0  0  0  0  0  0  0  0  0
   47.8726   31.1052   43.3262 H   0  0  0  0  0  0  0  0  0  0  0  0
   49.8220   31.0197   44.0973 H   0  0  0  0  0  0  0  0  0  0  0  0
  1  6  2  0
  2  1  1  0
  3  2  2  0
  3  4  1  0
  4  5  2  0
  5  6  1  0
  7  3  1  0
  1  8  1  0
  2  9  1  0
  5 10  1  0
 11 12  1  0
 12 13  1  0
 13 14  1  0
 14 15  1  0
 15 16  1  0
 16 17  1  0
 16 18  1  0
 18 19  1  0
 18 12  1  0
 11 20  1  0
 12 21  1  1
 13 22  1  6
 15 23  1  0
 15 24  1  0
 16 25  1  6
 17 26  1  0
 18 27  1  1
 19 28  1  0
  7 13  1  0
M  ISO  3   8  14   9  14  10  14
M  END
>  <DihAtoms>  (1) 
2,6,12,11

>  <DihDeg>  (1) 
114.2406486629493

$$$$
