
 OpenBabel03252505433D

 45 48  0  0  1  0  0  0  0  0999 V2000
   42.6730   34.7880   40.2960 C   0  0  0  0  0  0  0  0  0  0  0  0
   42.4960   35.1730   38.9880 C   0  0  0  0  0  0  0  0  0  0  0  0
   41.3030   35.0460   38.3260 C   0  0  0  0  0  0  0  0  0  0  0  0
   40.2570   34.5150   39.0090 N   0  0  0  0  0  0  0  0  0  0  0  0
   40.4170   34.1280   40.3080 C   0  0  0  0  0  0  0  0  0  0  0  0
   41.5980   34.2590   40.9480 N   0  0  0  0  0  0  0  0  0  0  0  0
   43.3220   35.5900   38.4520 H   0  0  0  0  0  0  0  0  0  0  0  0
   41.1670   35.3520   37.2910 H   0  0  0  0  0  0  0  0  0  0  0  0
   43.9790   34.6410   42.3930 C   0  0  1  0  0  0  0  0  0  0  0  0
   44.1790   36.1200   41.9150 C   0  0  0  0  0  0  0  0  0  0  0  0
   44.0120   34.9200   40.9880 C   0  0  2  0  0  0  0  0  0  0  0  0
   42.9980   34.5390   42.9340 H   0  0  0  0  0  0  0  0  0  0  0  0
   45.1960   36.5350   42.0340 H   0  0  0  0  0  0  0  0  0  0  0  0
   43.3090   36.7860   41.9560 H   0  0  0  0  0  0  0  0  0  0  0  0
   44.8310   34.7920   40.2850 H   0  0  0  0  0  0  0  0  0  0  0  0
   45.1220   34.1060   43.1620 C   0  0  0  0  0  0  0  0  0  0  0  0
   46.3720   34.0410   42.5100 C   0  0  0  0  0  0  0  0  0  0  0  0
   47.4630   33.5440   43.2100 C   0  0  0  0  0  0  0  0  0  0  0  0
   47.2680   33.1470   44.4940 N   0  0  0  0  0  0  0  0  0  0  0  0
   46.0710   33.2230   45.0780 C   0  0  0  0  0  0  0  0  0  0  0  0
   45.0270   33.7020   44.3940 N   0  0  0  0  0  0  0  0  0  0  0  0
   46.4700   34.3760   41.4750 H   0  0  0  0  0  0  0  0  0  0  0  0
   48.4570   33.4760   42.7390 H   0  0  0  0  0  0  0  0  0  0  0  0
   46.0630   32.7370   46.5020 C   0  0  0  0  0  0  0  0  0  0  0  0
   45.0950   33.3870   47.2520 F   0  0  0  0  0  0  0  0  0  0  0  0
   47.3000   33.0750   47.1010 F   0  0  0  0  0  0  0  0  0  0  0  0
   45.9670   31.3730   46.5280 F   0  0  0  0  0  0  0  0  0  0  0  0
   39.3020   33.5410   41.0740 C   0  0  0  0  0  0  0  0  0  0  0  0
   38.4070   34.1910   40.8600 H   0  0  0  0  0  0  0  0  0  0  0  0
   39.4980   33.5470   42.1450 H   0  0  0  0  0  0  0  0  0  0  0  0
   38.9430   32.1680   40.5810 C   0  0  0  0  0  0  0  0  0  0  0  0
   37.8910   32.0970   40.2710 H   0  0  0  0  0  0  0  0  0  0  0  0
   39.6280   31.9270   39.7190 H   0  0  0  0  0  0  0  0  0  0  0  0
   39.3470   29.7470   41.0090 C   0  0  1  0  0  3  0  0  0  0  0  0
   39.1810   31.1240   41.6190 C   0  0  1  0  0  3  0  0  0  0  0  0
   40.1590   31.3800   42.5360 O   0  0  0  0  0  0  0  0  0  0  0  0
   40.8870   30.2580   42.9130 C   0  0  0  0  0  2  0  0  0  0  0  0
   40.0400   29.0730   43.2410 C   0  0  2  0  0  3  0  0  0  0  0  0
   39.1060   28.7420   42.1170 C   0  0  2  0  0  3  0  0  0  0  0  0
   38.4690   29.5840   39.9420 O   0  0  0  0  0  0  0  0  0  0  0  0
   39.0060   29.2130   39.1890 H   0  0  0  0  0  0  0  0  0  0  0  0
   39.4240   29.1710   44.4850 O   0  0  0  0  0  0  0  0  0  0  0  0
   38.4340   29.2160   44.4340 H   0  0  0  0  0  0  0  0  0  0  0  0
   39.2150   27.4330   41.6580 O   0  0  0  0  0  0  0  0  0  0  0  0
   38.3160   27.1710   41.2870 H   0  0  0  0  0  0  0  0  0  0  0  0
  1  6  1  0  0  0  0
  1 11  1  0  0  0  0
  2  1  2  0  0  0  0
  3  2  1  0  0  0  0
  3  4  2  0  0  0  0
  4  5  1  0  0  0  0
  5  6  2  0  0  0  0
  5 28  1  0  0  0  0
  7  2  1  0  0  0  0
  8  3  1  0  0  0  0
  9 12  1  1  0  0  0
  9 16  1  0  0  0  0
 10 14  1  0  0  0  0
 10 13  1  0  0  0  0
 10  9  1  0  0  0  0
 11 15  1  6  0  0  0
 11 10  1  0  0  0  0
 11  9  1  0  0  0  0
 16 21  1  0  0  0  0
 17 16  2  0  0  0  0
 17 18  1  0  0  0  0
 18 19  2  0  0  0  0
 19 20  1  0  0  0  0
 20 24  1  0  0  0  0
 21 20  2  0  0  0  0
 22 17  1  0  0  0  0
 23 18  1  0  0  0  0
 24 27  1  0  0  0  0
 24 26  1  0  0  0  0
 24 25  1  0  0  0  0
 28 30  1  0  0  0  0
 29 28  1  0  0  0  0
 31 28  1  0  0  0  0
 32 31  1  0  0  0  0
 33 31  1  0  0  0  0
 34 40  1  6  0  0  0
 34 35  1  0  0  0  0
 34 39  1  0  0  0  0
 35 31  1  6  0  0  0
 35 36  1  0  0  0  0
 36 37  1  0  0  0  0
 37 38  1  0  0  0  0
 38 42  1  1  0  0  0
 39 44  1  6  0  0  0
 39 38  1  0  0  0  0
 41 40  1  0  0  0  0
 43 42  1  0  0  0  0
 45 44  1  0  0  0  0
M  END
>  <minimizedAffinity>
-6.39195585

>  <minimizedRMSD>
2.53902984

$$$$
