
 OpenBabel03242522503D

 29 30  0  0  1  0  0  0  0  0999 V2000
   47.5190   32.1410   48.5180 O   0  0  0  0  0  0  0  0  0  0  0  0
   45.5520   30.5910   47.7560 O   0  0  0  0  0  0  0  0  0  0  0  0
   45.8800   31.9240   48.4680 P   0  0  1  0  0  0  0  0  0  0  0  0
   45.2160   31.7920   50.0060 O   0  0  0  0  0  0  0  0  0  0  0  0
   44.4830   32.4340   50.1860 H   0  0  0  0  0  0  0  0  0  0  0  0
   45.1430   33.1770   47.6130 O   0  0  0  0  0  0  0  0  0  0  0  0
   47.0550   33.0920   44.5240 C   0  0  0  0  0  0  0  0  0  0  0  0
   46.5970   32.7850   45.8170 C   0  0  0  0  0  0  0  0  0  0  0  0
   45.5560   33.5150   46.3420 C   0  0  0  0  0  0  0  0  0  0  0  0
   45.0260   34.4970   45.5770 N   0  0  0  0  0  0  0  0  0  0  0  0
   45.4580   34.7930   44.3470 C   0  0  0  0  0  0  0  0  0  0  0  0
   46.4860   34.0800   43.8160 N   0  0  0  0  0  0  0  0  0  0  0  0
   47.8650   32.5780   44.0250 H   0  0  0  0  0  0  0  0  0  0  0  0
   47.1460   31.9830   46.2360 H   0  0  0  0  0  0  0  0  0  0  0  0
   45.0150   35.5780   43.7670 H   0  0  0  0  0  0  0  0  0  0  0  0
   48.5050   31.4210   49.1040 C   0  0  0  0  0  0  0  0  0  0  0  0
   49.6110   32.0610   49.1830 O   0  0  0  0  0  0  0  0  0  0  0  0
   50.5610   30.7840   50.3270 C   0  0  2  0  0  3  0  0  0  0  0  0
   49.2360   30.3220   49.7620 C   0  0  2  0  0  3  0  0  0  0  0  0
   49.3780   29.2210   48.9260 O   0  0  0  0  0  0  0  0  0  0  0  0
   50.5930   29.1250   48.2920 C   0  0  0  0  0  2  0  0  0  0  0  0
   51.7950   29.0870   49.1790 C   0  0  2  0  0  3  0  0  0  0  0  0
   51.3430   29.4980   50.5700 C   0  0  1  0  0  3  0  0  0  0  0  0
   50.3530   31.4540   51.5550 O   0  0  0  0  0  0  0  0  0  0  0  0
   50.4880   30.8050   52.2950 H   0  0  0  0  0  0  0  0  0  0  0  0
   52.7160   30.0840   48.7900 O   0  0  0  0  0  0  0  0  0  0  0  0
   52.9060   30.0580   47.8280 H   0  0  0  0  0  0  0  0  0  0  0  0
   52.4210   29.6860   51.4200 O   0  0  0  0  0  0  0  0  0  0  0  0
   52.4480   30.5970   51.7680 H   0  0  0  0  0  0  0  0  0  0  0  0
  1 16  1  0  0  0  0
  3  2  2  6  0  0  0
  3  1  1  0  0  0  0
  3  4  1  0  0  0  0
  4  5  1  0  0  0  0
  6  3  1  0  0  0  0
  7  8  1  0  0  0  0
  8 14  1  0  0  0  0
  8  9  2  0  0  0  0
  9  6  1  0  0  0  0
 10  9  1  0  0  0  0
 11 10  2  0  0  0  0
 12 11  1  0  0  0  0
 12  7  2  0  0  0  0
 13  7  1  0  0  0  0
 15 11  1  0  0  0  0
 16 17  2  0  0  0  0
 18 23  1  0  0  0  0
 18 24  1  1  0  0  0
 19 16  1  6  0  0  0
 19 18  1  0  0  0  0
 20 19  1  0  0  0  0
 21 20  1  0  0  0  0
 21 22  1  0  0  0  0
 22 26  1  6  0  0  0
 22 23  1  0  0  0  0
 23 28  1  1  0  0  0
 24 25  1  0  0  0  0
 27 26  1  0  0  0  0
 28 29  1  0  0  0  0
M  END
>  <minimizedAffinity>
-5.34638977

>  <minimizedRMSD>
1.31066978

$$$$
