REMARK  Name = 
REMARK  12 active torsions:
REMARK  status: ('A' for Active; 'I' for Inactive)
REMARK    1  A    between atoms: C_1  and  C_2
REMARK    2  A    between atoms: C_1  and  C_12
REMARK    3  A    between atoms: C_5  and  O_7
REMARK    4  A    between atoms: O_7  and  P_9
REMARK    5  A    between atoms: P_9  and  O_10
REMARK    6  A    between atoms: P_9  and  O_11
REMARK    7  A    between atoms: C_12  and  C_13
REMARK    8  A    between atoms: C_14  and  S_19
REMARK    9  A    between atoms: S_19  and  C_31
REMARK   10  A    between atoms: O_29  and  C_30
REMARK   11  A    between atoms: C_34  and  O_35
REMARK   12  A    between atoms: C_36  and  O_37
REMARK                            x       y       z     vdW  Elec       q    Type
REMARK                         _______ _______ _______ _____ _____    ______ ____
ROOT
ATOM      1  C   UNL     1      48.469  33.916  41.274  0.00  0.00    +0.000 A 
ATOM      2  C   UNL     1      48.937  32.708  40.794  0.00  0.00    +0.000 A 
ATOM      3  C   UNL     1      50.181  32.216  41.162  0.00  0.00    +0.000 A 
ATOM      4  N   UNL     1      50.919  32.989  42.026  0.00  0.00    +0.000 NA
ATOM      5  C   UNL     1      50.429  34.160  42.472  0.00  0.00    +0.000 A 
ATOM      6  N   UNL     1      49.238  34.609  42.106  0.00  0.00    +0.000 NA
ATOM      7  H   UNL     1      50.551  31.272  40.789  0.00  0.00    +0.000 HD
ATOM      8  H   UNL     1      50.978  34.798  43.153  0.00  0.00    +0.000 HD
ENDROOT
BRANCH   1   9
ATOM      9  C   UNL     1      47.134  34.350  40.822  0.00  0.00    +0.000 C 
ATOM     10  H   UNL     1      46.529  33.488  40.469  0.00  0.00    +0.000 HD
ATOM     11  H   UNL     1      47.205  35.054  39.961  0.00  0.00    +0.000 HD
BRANCH   9  12
ATOM     12  C   UNL     1      46.325  34.990  41.922  0.00  0.00    +0.000 C 
ATOM     13  H   UNL     1      46.681  36.036  42.052  0.00  0.00    +0.000 HD
ATOM     14  H   UNL     1      46.516  34.415  42.850  0.00  0.00    +0.000 HD
BRANCH  12  15
ATOM     15  C   UNL     1      44.856  34.939  41.703  0.00  0.00    +0.000 A 
ATOM     16  C   UNL     1      43.975  35.431  42.711  0.00  0.00    +0.000 A 
ATOM     17  S   UNL     1      42.312  35.151  41.977  0.00  0.00    +0.000 S 
ATOM     18  C   UNL     1      43.101  34.405  40.410  0.00  0.00    +0.000 A 
ATOM     19  N   UNL     1      44.211  34.480  40.654  0.00  0.00    +0.000 NA
ATOM     20  H   UNL     1      44.243  35.857  43.660  0.00  0.00    +0.000 HD
BRANCH  18  21
ATOM     21  O   UNL     1      42.350  33.936  39.331  0.00  0.00    +0.000 OA
BRANCH  21  23
ATOM     22  O   UNL     1      40.412  34.392  37.586  0.00  0.00    +0.000 OA
ATOM     23  P   UNL     1      41.486  35.082  38.424  0.00  0.00    +0.000 P 
BRANCH  23  24
ATOM     24  O   UNL     1      40.763  36.160  39.496  0.00  0.00    +0.000 OA
ATOM     25  H   UNL     1      39.945  36.496  39.074  0.00  0.00    +0.000 HD
ENDBRANCH  23  24
BRANCH  23  26
ATOM     26  O   UNL     1      42.563  35.941  37.428  0.00  0.00    +0.000 OA
ATOM     27  H   UNL     1      42.137  36.397  36.684  0.00  0.00    +0.000 HD
ENDBRANCH  23  26
ENDBRANCH  21  23
ENDBRANCH  18  21
ENDBRANCH  12  15
ENDBRANCH   9  12
ENDBRANCH   1   9
BRANCH   2  28
ATOM     28  S   UNL     1      47.918  31.734  39.658  0.00  0.00    +0.000 S 
BRANCH  28  30
ATOM     29  C   UNL     1      50.220  30.598  38.879  0.00  0.00    +0.000 C 
ATOM     30  C   UNL     1      48.770  30.233  39.206  0.00  0.00    +0.000 C 
ATOM     31  O   UNL     1      48.127  29.708  38.083  0.00  0.00    +0.000 OA
ATOM     32  C   UNL     1      48.493  30.501  36.995  0.00  0.00    +0.000 C 
ATOM     33  C   UNL     1      49.806  29.952  36.488  0.00  0.00    +0.000 C 
ATOM     34  C   UNL     1      50.720  29.808  37.691  0.00  0.00    +0.000 C 
BRANCH  29  35
ATOM     35  O   UNL     1      51.039  30.274  39.960  0.00  0.00    +0.000 OA
ATOM     36  H   UNL     1      51.954  30.456  39.698  0.00  0.00    +0.000 HD
ENDBRANCH  29  35
BRANCH  33  37
ATOM     37  O   UNL     1      50.349  30.775  35.501  0.00  0.00    +0.000 OA
ATOM     38  H   UNL     1      51.322  30.641  35.413  0.00  0.00    +0.000 HD
ENDBRANCH  33  37
BRANCH  34  39
ATOM     39  O   UNL     1      51.980  30.291  37.369  0.00  0.00    +0.000 OA
ATOM     40  H   UNL     1      52.211  31.149  37.768  0.00  0.00    +0.000 HD
ENDBRANCH  34  39
ENDBRANCH  28  30
ENDBRANCH   2  28
TORSDOF 12
