
 OpenBabel03242521433D

 41 43  0  0  1  0  0  0  0  0999 V2000
   45.1970   35.8040   44.1280 C   0  0  0  0  0  0  0  0  0  0  0  0
   46.1510   35.0240   43.4750 C   0  0  0  0  0  0  0  0  0  0  0  0
   46.6100   33.8430   44.0820 C   0  0  0  0  0  0  0  0  0  0  0  0
   46.0900   33.5330   45.2760 N   0  0  0  0  0  0  0  0  0  0  0  0
   45.1650   34.3010   45.8950 C   0  0  0  0  0  0  0  0  0  0  0  0
   44.7160   35.4370   45.3260 N   0  0  0  0  0  0  0  0  0  0  0  0
   46.4990   35.3670   42.5200 H   0  0  0  0  0  0  0  0  0  0  0  0
   44.8030   33.9750   46.8550 H   0  0  0  0  0  0  0  0  0  0  0  0
   48.6100   33.8750   42.6200 C   0  0  2  0  0  0  0  0  0  0  0  0
   47.6050   33.0630   43.3600 C   0  0  2  0  0  0  0  0  0  0  0  0
   47.0630   32.2760   42.3010 O   0  0  0  0  0  0  0  0  0  0  0  0
   48.2040   31.7580   41.7230 C   0  0  0  0  0  0  0  0  0  0  0  0
   49.3420   32.7160   41.9090 C   0  0  1  0  0  0  0  0  0  0  0  0
   48.1780   34.4500   41.7730 H   0  0  0  0  0  0  0  0  0  0  0  0
   48.0810   32.3320   44.0130 H   0  0  0  0  0  0  0  0  0  0  0  0
   48.0430   31.4420   40.6770 H   0  0  0  0  0  0  0  0  0  0  0  0
   48.4650   30.8310   42.2860 H   0  0  0  0  0  0  0  0  0  0  0  0
   50.1520   32.3480   42.5520 H   0  0  0  0  0  0  0  0  0  0  0  0
   49.4110   34.6500   43.3980 O   0  0  0  0  0  0  0  0  0  0  0  0
   50.2650   34.8690   42.9130 H   0  0  0  0  0  0  0  0  0  0  0  0
   49.8960   33.1940   40.7280 O   0  0  0  0  0  0  0  0  0  0  0  0
   50.5880   32.6100   40.3760 H   0  0  0  0  0  0  0  0  0  0  0  0
   44.7280   37.0710   43.4570 C   0  0  0  0  0  0  0  0  0  0  0  0
   45.2890   37.2290   42.5370 H   0  0  0  0  0  0  0  0  0  0  0  0
   43.6380   36.9730   43.2710 H   0  0  0  0  0  0  0  0  0  0  0  0
   45.2880   39.4850   44.0720 C   0  0  0  0  0  0  0  0  0  0  0  0
   45.4310   39.7760   42.8520 O   0  0  0  0  0  0  0  0  0  0  0  0
   44.9880   38.1480   44.4080 N   0  0  0  0  0  0  0  0  0  0  0  0
   44.9490   37.9090   45.4270 H   0  0  0  0  0  0  0  0  0  0  0  0
   44.6590   41.7650   44.8870 C   0  0  2  0  0  3  0  0  0  0  0  0
   45.4260   40.5070   45.1690 C   0  0  1  0  0  3  0  0  0  0  0  0
   45.1290   39.9530   46.4010 O   0  0  0  0  0  0  0  0  0  0  0  0
   44.2200   40.6320   47.1640 C   0  0  0  0  0  2  0  0  0  0  0  0
   44.5030   42.1080   47.2850 C   0  0  2  0  0  3  0  0  0  0  0  0
   45.0400   42.7140   46.0310 C   0  0  2  0  0  3  0  0  0  0  0  0
   43.2810   41.5950   44.8870 O   0  0  0  0  0  0  0  0  0  0  0  0
   42.8640   42.4880   44.9510 H   0  0  0  0  0  0  0  0  0  0  0  0
   45.4020   42.3930   48.3050 O   0  0  0  0  0  0  0  0  0  0  0  0
   46.1200   41.7110   48.2990 H   0  0  0  0  0  0  0  0  0  0  0  0
   44.4580   43.9370   45.7190 O   0  0  0  0  0  0  0  0  0  0  0  0
   45.1520   44.6590   45.7220 H   0  0  0  0  0  0  0  0  0  0  0  0
  1  6  1  0  0  0  0
  2  3  1  0  0  0  0
  2  1  2  0  0  0  0
  3  4  2  0  0  0  0
  4  5  1  0  0  0  0
  5  8  1  0  0  0  0
  6  5  2  0  0  0  0
  7  2  1  0  0  0  0
  9 14  1  6  0  0  0
  9 10  1  0  0  0  0
  9 19  1  0  0  0  0
 10 15  1  1  0  0  0
 10  3  1  0  0  0  0
 11 10  1  0  0  0  0
 12 13  1  0  0  0  0
 12 17  1  0  0  0  0
 12 11  1  0  0  0  0
 13 18  1  1  0  0  0
 13  9  1  0  0  0  0
 16 12  1  0  0  0  0
 20 19  1  0  0  0  0
 21 13  1  0  0  0  0
 22 21  1  0  0  0  0
 23  1  1  0  0  0  0
 23 28  1  0  0  0  0
 24 23  1  0  0  0  0
 25 23  1  0  0  0  0
 26 28  1  0  0  0  0
 27 26  2  0  0  0  0
 28 29  1  0  0  0  0
 30 36  1  1  0  0  0
 30 31  1  0  0  0  0
 30 35  1  0  0  0  0
 31 26  1  6  0  0  0
 31 32  1  0  0  0  0
 32 33  1  0  0  0  0
 33 34  1  0  0  0  0
 34 38  1  1  0  0  0
 35 40  1  6  0  0  0
 35 34  1  0  0  0  0
 36 37  1  0  0  0  0
 39 38  1  0  0  0  0
 40 41  1  0  0  0  0
M  END
>  <minimizedAffinity>
-2.94777656

>  <minimizedRMSD>
0.457533002

$$$$
