
 OpenBabel03242516343D

 47 50  0  0  1  0  0  0  0  0999 V2000
   49.0590   32.8380   38.0290 C   0  0  1  0  0  0  0  0  0  0  0  0
   48.5320   34.2570   38.5810 C   0  0  1  0  0  0  0  0  0  0  0  0
   47.6790   34.5410   37.5800 O   0  0  0  0  0  0  0  0  0  0  0  0
   46.8190   33.4100   37.6640 C   0  0  0  0  0  0  0  0  0  0  0  0
   47.7960   32.2790   37.4450 C   0  0  1  0  0  0  0  0  0  0  0  0
   49.5160   32.2950   38.8360 H   0  0  0  0  0  0  0  0  0  0  0  0
   49.4870   34.7430   38.7660 H   0  0  0  0  0  0  0  0  0  0  0  0
   46.0470   33.4260   36.8740 H   0  0  0  0  0  0  0  0  0  0  0  0
   46.3240   33.3290   38.6310 H   0  0  0  0  0  0  0  0  0  0  0  0
   47.5410   31.3870   38.0560 H   0  0  0  0  0  0  0  0  0  0  0  0
   49.9020   33.1770   36.9610 O   0  0  0  0  0  0  0  0  0  0  0  0
   49.3470   33.4320   36.1970 H   0  0  0  0  0  0  0  0  0  0  0  0
   47.8080   33.9030   39.7200 O   0  0  0  0  0  0  0  0  0  0  0  0
   48.0630   34.6440   41.9570 C   0  0  2  0  0  0  0  0  0  0  0  0
   46.7410   33.8790   42.2200 C   0  0  1  0  0  0  0  0  0  0  0  0
   47.2510   32.6540   42.5330 O   0  0  0  0  0  0  0  0  0  0  0  0
   48.1380   32.3790   41.4730 C   0  0  0  0  0  0  0  0  0  0  0  0
   48.5480   33.7310   40.8540 C   0  0  1  0  0  0  0  0  0  0  0  0
   47.8660   35.6700   41.6410 H   0  0  0  0  0  0  0  0  0  0  0  0
   46.2060   33.9140   41.2330 H   0  0  0  0  0  0  0  0  0  0  0  0
   47.5710   31.8110   40.7180 H   0  0  0  0  0  0  0  0  0  0  0  0
   49.0140   31.8110   41.8070 H   0  0  0  0  0  0  0  0  0  0  0  0
   49.6360   33.8230   40.7080 H   0  0  0  0  0  0  0  0  0  0  0  0
   44.5350   36.0700   44.4100 C   0  0  0  0  0  0  0  0  0  0  0  0
   45.2060   35.6800   43.2480 C   0  0  0  0  0  0  0  0  0  0  0  0
   45.9620   34.5280   43.2810 C   0  0  0  0  0  0  0  0  0  0  0  0
   46.0020   33.8350   44.4710 N   0  0  0  0  0  0  0  0  0  0  0  0
   45.3450   34.2340   45.5740 C   0  0  0  0  0  0  0  0  0  0  0  0
   44.6100   35.3570   45.5370 N   0  0  0  0  0  0  0  0  0  0  0  0
   43.9690   36.9860   44.2870 H   0  0  0  0  0  0  0  0  0  0  0  0
   45.2210   36.1630   42.2960 H   0  0  0  0  0  0  0  0  0  0  0  0
   45.4050   33.6550   46.4890 H   0  0  0  0  0  0  0  0  0  0  0  0
   48.9320   34.4860   43.0030 O   0  0  0  0  0  0  0  0  0  0  0  0
   49.5080   35.2670   43.1480 H   0  0  0  0  0  0  0  0  0  0  0  0
   47.9080   32.0350   36.0910 O   0  0  0  0  0  0  0  0  0  0  0  0
   46.5730   32.0050   34.1120 C   0  0  1  0  0  0  0  0  0  0  0  0
   46.6400   31.7480   35.5920 C   0  0  1  0  0  0  0  0  0  0  0  0
   46.1860   30.4930   35.9350 O   0  0  0  0  0  0  0  0  0  0  0  0
   46.7950   29.4240   35.3560 C   0  0  0  0  0  0  0  0  0  0  0  0
   47.1880   29.5740   33.9280 C   0  0  2  0  0  0  0  0  0  0  0  0
   46.6610   30.7970   33.2520 C   0  0  2  0  0  0  0  0  0  0  0  0
   45.4630   32.7850   33.7870 O   0  0  0  0  0  0  0  0  0  0  0  0
   44.8020   32.6430   34.5180 H   0  0  0  0  0  0  0  0  0  0  0  0
   46.7740   28.4820   33.1610 O   0  0  0  0  0  0  0  0  0  0  0  0
   46.6280   28.7380   32.2060 H   0  0  0  0  0  0  0  0  0  0  0  0
   47.4380   31.0230   32.1080 O   0  0  0  0  0  0  0  0  0  0  0  0
   47.1880   31.8590   31.6480 H   0  0  0  0  0  0  0  0  0  0  0  0
  1  2  1  0  0  0  0
  1  6  1  1  0  0  0
  2  7  1  1  0  0  0
  2 13  1  0  0  0  0
  3  4  1  0  0  0  0
  3  2  1  0  0  0  0
  4  9  1  0  0  0  0
  5  4  1  0  0  0  0
  5  1  1  0  0  0  0
  5 10  1  1  0  0  0
  8  4  1  0  0  0  0
 11  1  1  0  0  0  0
 12 11  1  0  0  0  0
 13 18  1  0  0  0  0
 14 19  1  6  0  0  0
 14 15  1  0  0  0  0
 14 33  1  0  0  0  0
 15 20  1  6  0  0  0
 15 16  1  0  0  0  0
 15 26  1  0  0  0  0
 17 22  1  0  0  0  0
 17 16  1  0  0  0  0
 18 23  1  6  0  0  0
 18 17  1  0  0  0  0
 18 14  1  0  0  0  0
 21 17  1  0  0  0  0
 24 29  1  0  0  0  0
 25 26  1  0  0  0  0
 25 24  2  0  0  0  0
 26 27  2  0  0  0  0
 27 28  1  0  0  0  0
 28 32  1  0  0  0  0
 29 28  2  0  0  0  0
 30 24  1  0  0  0  0
 31 25  1  0  0  0  0
 33 34  1  0  0  0  0
 35  5  1  0  0  0  0
 36 42  1  1  0  0  0
 36 37  1  0  0  0  0
 37 38  1  0  0  0  0
 37 35  1  6  0  0  0
 39 38  1  0  0  0  0
 40 44  1  6  0  0  0
 40 39  1  0  0  0  0
 41 46  1  6  0  0  0
 41 40  1  0  0  0  0
 41 36  1  0  0  0  0
 42 43  1  0  0  0  0
 45 44  1  0  0  0  0
 47 46  1  0  0  0  0
M  END
>  <minimizedAffinity>
-6.6546073

>  <minimizedRMSD>
2.22878265

$$$$
