
 OpenBabel03242518293D

 24 25  0  0  1  0  0  0  0  0999 V2000
   36.6920   28.5240   41.7200 O   0  0  0  0  0  0  0  0  0  0  0  0
   36.8590   30.7910   41.1010 C   0  0  1  0  0  3  0  0  0  0  0  0
   37.2150   29.3650   40.7000 C   0  0  1  0  0  3  0  0  0  0  0  0
   38.5980   29.3020   40.7780 O   0  0  0  0  0  0  0  0  0  0  0  0
   39.2470   30.0790   39.8510 C   0  0  0  0  0  2  0  0  0  0  0  0
   38.5880   31.3090   39.4040 C   0  0  2  0  0  3  0  0  0  0  0  0
   37.2300   31.6240   39.9080 C   0  0  2  0  0  3  0  0  0  0  0  0
   35.5230   30.9330   41.4420 O   0  0  0  0  0  0  0  0  0  0  0  0
   35.2110   30.2270   42.0330 H   0  0  0  0  0  0  0  0  0  0  0  0
   38.5270   31.3270   37.9980 O   0  0  0  0  0  0  0  0  0  0  0  0
   37.9980   32.1280   37.7380 H   0  0  0  0  0  0  0  0  0  0  0  0
   37.0790   32.9680   40.3090 O   0  0  0  0  0  0  0  0  0  0  0  0
   37.8850   33.1680   40.8640 H   0  0  0  0  0  0  0  0  0  0  0  0
   37.5070   28.1420   42.7970 C   0  0  0  0  0  0  0  0  0  0  0  0
   37.7060   29.0010   43.6800 O   0  0  0  0  0  0  0  0  0  0  0  0
   38.0030   26.8090   42.7370 C   0  0  0  0  0  0  0  0  0  0  0  0
   39.2420   26.6470   43.3720 C   0  0  0  0  0  0  0  0  0  0  0  0
   39.8000   25.3640   43.3580 C   0  0  0  0  0  0  0  0  0  0  0  0
   39.1220   24.3590   42.7410 N   0  0  0  0  0  0  0  0  0  0  0  0
   37.9170   24.5710   42.1380 C   0  0  0  0  0  0  0  0  0  0  0  0
   37.3840   25.7970   42.1500 N   0  0  0  0  0  0  0  0  0  0  0  0
   39.8040   27.4230   43.8690 H   0  0  0  0  0  0  0  0  0  0  0  0
   40.7570   25.1590   43.8290 H   0  0  0  0  0  0  0  0  0  0  0  0
   37.4450   23.7090   41.6690 H   0  0  0  0  0  0  0  0  0  0  0  0
  1 14  1  0  0  0  0
  2  8  1  6  0  0  0
  3  4  1  0  0  0  0
  3  2  1  0  0  0  0
  3  1  1  1  0  0  0
  5  4  1  0  0  0  0
  6 10  1  6  0  0  0
  6  5  1  0  0  0  0
  6  7  1  0  0  0  0
  7 12  1  1  0  0  0
  7  2  1  0  0  0  0
  8  9  1  0  0  0  0
 11 10  1  0  0  0  0
 12 13  1  0  0  0  0
 14 15  2  0  0  0  0
 16 14  1  0  0  0  0
 16 17  1  0  0  0  0
 17 22  1  0  0  0  0
 18 17  2  0  0  0  0
 18 23  1  0  0  0  0
 19 18  1  0  0  0  0
 20 21  1  0  0  0  0
 20 19  2  0  0  0  0
 21 16  2  0  0  0  0
 24 20  1  0  0  0  0
M  END
>  <minimizedAffinity>
-5.6331377

$$$$

 OpenBabel03242518293D

 24 25  0  0  1  0  0  0  0  0999 V2000
   37.7320   29.4160   42.0100 O   0  0  0  0  0  0  0  0  0  0  0  0
   37.1780   31.4840   41.0280 C   0  0  1  0  0  3  0  0  0  0  0  0
   38.0370   30.2340   40.8880 C   0  0  1  0  0  3  0  0  0  0  0  0
   39.3430   30.6740   41.0370 O   0  0  0  0  0  0  0  0  0  0  0  0
   39.7780   31.4900   40.0220 C   0  0  0  0  0  2  0  0  0  0  0  0
   38.7880   32.3320   39.3460 C   0  0  2  0  0  3  0  0  0  0  0  0
   37.3610   32.2160   39.7290 C   0  0  2  0  0  3  0  0  0  0  0  0
   35.8470   31.1930   41.2810 O   0  0  0  0  0  0  0  0  0  0  0  0
   35.7360   30.5140   41.9670 H   0  0  0  0  0  0  0  0  0  0  0  0
   38.8650   32.1270   37.9550 O   0  0  0  0  0  0  0  0  0  0  0  0
   38.1240   32.6450   37.5410 H   0  0  0  0  0  0  0  0  0  0  0  0
   36.7210   33.4630   39.8920 O   0  0  0  0  0  0  0  0  0  0  0  0
   37.3510   34.0110   40.4400 H   0  0  0  0  0  0  0  0  0  0  0  0
   37.1550   28.1510   41.8160 C   0  0  0  0  0  0  0  0  0  0  0  0
   36.0200   28.1280   41.2980 O   0  0  0  0  0  0  0  0  0  0  0  0
   37.9520   27.0510   42.2420 C   0  0  0  0  0  0  0  0  0  0  0  0
   38.9070   27.3960   43.2080 C   0  0  0  0  0  0  0  0  0  0  0  0
   39.7320   26.3690   43.6800 C   0  0  0  0  0  0  0  0  0  0  0  0
   39.5660   25.1130   43.1870 N   0  0  0  0  0  0  0  0  0  0  0  0
   38.6190   24.8310   42.2460 C   0  0  0  0  0  0  0  0  0  0  0  0
   37.8310   25.8110   41.7940 N   0  0  0  0  0  0  0  0  0  0  0  0
   39.0630   28.3820   43.6190 H   0  0  0  0  0  0  0  0  0  0  0  0
   40.4960   26.5590   44.4290 H   0  0  0  0  0  0  0  0  0  0  0  0
   38.5570   23.7980   41.9080 H   0  0  0  0  0  0  0  0  0  0  0  0
  2  8  1  6  0  0  0
  3  2  1  0  0  0  0
  3  4  1  0  0  0  0
  3  1  1  1  0  0  0
  5  4  1  0  0  0  0
  6 10  1  6  0  0  0
  6  7  1  0  0  0  0
  6  5  1  0  0  0  0
  7 12  1  1  0  0  0
  7  2  1  0  0  0  0
  8  9  1  0  0  0  0
 11 10  1  0  0  0  0
 12 13  1  0  0  0  0
 14  1  1  0  0  0  0
 14 16  1  0  0  0  0
 15 14  2  0  0  0  0
 16 17  1  0  0  0  0
 17 22  1  0  0  0  0
 17 18  2  0  0  0  0
 18 23  1  0  0  0  0
 19 18  1  0  0  0  0
 20 19  2  0  0  0  0
 21 16  2  0  0  0  0
 21 20  1  0  0  0  0
 24 20  1  0  0  0  0
M  END
>  <minimizedAffinity>
-5.42985201

$$$$

 OpenBabel03242518293D

 24 25  0  0  1  0  0  0  0  0999 V2000
   37.6700   29.3040   41.8710 O   0  0  0  0  0  0  0  0  0  0  0  0
   37.1540   31.4210   40.9750 C   0  0  1  0  0  3  0  0  0  0  0  0
   37.9770   30.1540   40.7740 C   0  0  1  0  0  3  0  0  0  0  0  0
   39.2970   30.5540   40.9140 O   0  0  0  0  0  0  0  0  0  0  0  0
   39.7360   31.3950   39.9220 C   0  0  0  0  0  2  0  0  0  0  0  0
   38.7570   32.2870   39.2960 C   0  0  2  0  0  3  0  0  0  0  0  0
   37.3340   32.1950   39.7010 C   0  0  2  0  0  3  0  0  0  0  0  0
   35.8210   31.1560   41.2420 O   0  0  0  0  0  0  0  0  0  0  0  0
   35.7040   30.4550   41.9050 H   0  0  0  0  0  0  0  0  0  0  0  0
   38.8040   32.1320   37.8970 O   0  0  0  0  0  0  0  0  0  0  0  0
   38.0700   32.6850   37.5160 H   0  0  0  0  0  0  0  0  0  0  0  0
   36.7320   33.4520   39.9210 O   0  0  0  0  0  0  0  0  0  0  0  0
   37.3860   33.9620   40.4780 H   0  0  0  0  0  0  0  0  0  0  0  0
   37.0240   28.0780   41.6440 C   0  0  0  0  0  0  0  0  0  0  0  0
   35.8780   28.1320   41.1520 O   0  0  0  0  0  0  0  0  0  0  0  0
   37.7720   26.9240   42.0100 C   0  0  0  0  0  0  0  0  0  0  0  0
   37.1000   25.7210   41.7540 C   0  0  0  0  0  0  0  0  0  0  0  0
   37.7680   24.5370   42.0860 C   0  0  0  0  0  0  0  0  0  0  0  0
   39.0130   24.6140   42.6280 N   0  0  0  0  0  0  0  0  0  0  0  0
   39.6230   25.8130   42.8560 C   0  0  0  0  0  0  0  0  0  0  0  0
   38.9840   26.9440   42.5410 N   0  0  0  0  0  0  0  0  0  0  0  0
   36.1130   25.6260   41.3250 H   0  0  0  0  0  0  0  0  0  0  0  0
   37.3130   23.5650   41.9160 H   0  0  0  0  0  0  0  0  0  0  0  0
   40.6190   25.7810   43.2940 H   0  0  0  0  0  0  0  0  0  0  0  0
  2  8  1  6  0  0  0
  3  4  1  0  0  0  0
  3  2  1  0  0  0  0
  3  1  1  1  0  0  0
  5  4  1  0  0  0  0
  6 10  1  6  0  0  0
  6  7  1  0  0  0  0
  6  5  1  0  0  0  0
  7 12  1  1  0  0  0
  7  2  1  0  0  0  0
  8  9  1  0  0  0  0
 11 10  1  0  0  0  0
 12 13  1  0  0  0  0
 14  1  1  0  0  0  0
 14 16  1  0  0  0  0
 15 14  2  0  0  0  0
 16 21  1  0  0  0  0
 17 16  2  0  0  0  0
 17 18  1  0  0  0  0
 18 19  2  0  0  0  0
 19 20  1  0  0  0  0
 20 24  1  0  0  0  0
 21 20  2  0  0  0  0
 22 17  1  0  0  0  0
 23 18  1  0  0  0  0
M  END
>  <minimizedAffinity>
-5.33238316

$$$$

 OpenBabel03242518293D

 24 25  0  0  1  0  0  0  0  0999 V2000
   39.0480   29.1820   42.5550 O   0  0  0  0  0  0  0  0  0  0  0  0
   39.6330   31.3230   41.7650 C   0  0  1  0  0  3  0  0  0  0  0  0
   38.5010   30.3090   41.8820 C   0  0  1  0  0  3  0  0  0  0  0  0
   38.2250   29.9220   40.5800 O   0  0  0  0  0  0  0  0  0  0  0  0
   37.6950   30.9200   39.8000 C   0  0  0  0  0  2  0  0  0  0  0  0
   38.0880   32.3010   40.0930 C   0  0  2  0  0  3  0  0  0  0  0  0
   38.9710   32.5700   41.2520 C   0  0  2  0  0  3  0  0  0  0  0  0
   40.2880   31.5350   42.9670 O   0  0  0  0  0  0  0  0  0  0  0  0
   40.4970   30.7070   43.4300 H   0  0  0  0  0  0  0  0  0  0  0  0
   36.9360   33.0950   40.2520 O   0  0  0  0  0  0  0  0  0  0  0  0
   37.2400   33.9990   40.5340 H   0  0  0  0  0  0  0  0  0  0  0  0
   40.0150   33.4740   40.9640 O   0  0  0  0  0  0  0  0  0  0  0  0
   40.3980   33.1630   40.0950 H   0  0  0  0  0  0  0  0  0  0  0  0
   38.1940   28.1960   43.0730 C   0  0  0  0  0  0  0  0  0  0  0  0
   37.0920   28.5850   43.5120 O   0  0  0  0  0  0  0  0  0  0  0  0
   38.7040   26.8680   43.0260 C   0  0  0  0  0  0  0  0  0  0  0  0
   39.9360   26.7220   43.6790 C   0  0  0  0  0  0  0  0  0  0  0  0
   40.5070   25.4450   43.6790 C   0  0  0  0  0  0  0  0  0  0  0  0
   39.8480   24.4300   43.0580 N   0  0  0  0  0  0  0  0  0  0  0  0
   38.6500   24.6260   42.4360 C   0  0  0  0  0  0  0  0  0  0  0  0
   38.1050   25.8470   42.4350 N   0  0  0  0  0  0  0  0  0  0  0  0
   40.4830   27.5060   44.1810 H   0  0  0  0  0  0  0  0  0  0  0  0
   41.4600   25.2520   44.1650 H   0  0  0  0  0  0  0  0  0  0  0  0
   38.1940   23.7580   41.9640 H   0  0  0  0  0  0  0  0  0  0  0  0
  1 14  1  0  0  0  0
  2  3  1  0  0  0  0
  2  8  1  1  0  0  0
  3  1  1  1  0  0  0
  4  3  1  0  0  0  0
  5  6  1  0  0  0  0
  5  4  1  0  0  0  0
  6 10  1  1  0  0  0
  6  7  1  0  0  0  0
  7 12  1  6  0  0  0
  7  2  1  0  0  0  0
  8  9  1  0  0  0  0
 10 11  1  0  0  0  0
 13 12  1  0  0  0  0
 14 15  2  0  0  0  0
 16 14  1  0  0  0  0
 16 17  1  0  0  0  0
 17 18  2  0  0  0  0
 17 22  1  0  0  0  0
 18 23  1  0  0  0  0
 19 18  1  0  0  0  0
 20 19  2  0  0  0  0
 21 20  1  0  0  0  0
 21 16  2  0  0  0  0
 24 20  1  0  0  0  0
M  END
>  <minimizedAffinity>
-5.27915049

$$$$

 OpenBabel03242518293D

 24 25  0  0  1  0  0  0  0  0999 V2000
   38.4170   31.1660   41.2890 O   0  0  0  0  0  0  0  0  0  0  0  0
   40.0190   32.5450   40.2510 C   0  0  1  0  0  3  0  0  0  0  0  0
   38.8990   31.5410   40.0060 C   0  0  1  0  0  3  0  0  0  0  0  0
   39.5210   30.4330   39.4540 O   0  0  0  0  0  0  0  0  0  0  0  0
   40.0500   30.6510   38.2060 C   0  0  0  0  0  2  0  0  0  0  0  0
   40.5270   31.9990   37.8880 C   0  0  2  0  0  3  0  0  0  0  0  0
   40.3530   33.0800   38.8880 C   0  0  2  0  0  3  0  0  0  0  0  0
   39.6530   33.5510   41.1310 O   0  0  0  0  0  0  0  0  0  0  0  0
   39.1980   33.2110   41.9200 H   0  0  0  0  0  0  0  0  0  0  0  0
   39.9330   32.4390   36.6900 O   0  0  0  0  0  0  0  0  0  0  0  0
   40.2100   33.3840   36.5550 H   0  0  0  0  0  0  0  0  0  0  0  0
   41.5040   33.8790   39.0540 O   0  0  0  0  0  0  0  0  0  0  0  0
   42.2620   33.2330   39.1310 H   0  0  0  0  0  0  0  0  0  0  0  0
   37.1870   30.4990   41.4050 C   0  0  0  0  0  0  0  0  0  0  0  0
   36.1750   31.1230   41.0250 O   0  0  0  0  0  0  0  0  0  0  0  0
   37.2600   29.1840   41.9460 C   0  0  0  0  0  0  0  0  0  0  0  0
   37.0800   28.1770   40.9870 C   0  0  0  0  0  0  0  0  0  0  0  0
   37.1380   26.8540   41.4380 C   0  0  0  0  0  0  0  0  0  0  0  0
   37.3630   26.6180   42.7580 N   0  0  0  0  0  0  0  0  0  0  0  0
   37.5330   27.6360   43.6500 C   0  0  0  0  0  0  0  0  0  0  0  0
   37.4760   28.9000   43.2200 N   0  0  0  0  0  0  0  0  0  0  0  0
   36.9000   28.3320   39.9330 H   0  0  0  0  0  0  0  0  0  0  0  0
   37.0080   26.0180   40.7550 H   0  0  0  0  0  0  0  0  0  0  0  0
   37.7080   27.3560   44.6870 H   0  0  0  0  0  0  0  0  0  0  0  0
  1 14  1  0  0  0  0
  2  8  1  1  0  0  0
  3  2  1  0  0  0  0
  3  1  1  1  0  0  0
  4  3  1  0  0  0  0
  5  4  1  0  0  0  0
  6 10  1  6  0  0  0
  6  5  1  0  0  0  0
  6  7  1  0  0  0  0
  7 12  1  1  0  0  0
  7  2  1  0  0  0  0
  8  9  1  0  0  0  0
 11 10  1  0  0  0  0
 12 13  1  0  0  0  0
 14 16  1  0  0  0  0
 15 14  2  0  0  0  0
 16 21  1  0  0  0  0
 17 18  1  0  0  0  0
 17 16  2  0  0  0  0
 18 19  2  0  0  0  0
 19 20  1  0  0  0  0
 20 24  1  0  0  0  0
 21 20  2  0  0  0  0
 22 17  1  0  0  0  0
 23 18  1  0  0  0  0
M  END
>  <minimizedAffinity>
-5.1230855

$$$$

 OpenBabel03242518293D

 24 25  0  0  1  0  0  0  0  0999 V2000
   38.9790   29.2460   41.5640 O   0  0  0  0  0  0  0  0  0  0  0  0
   39.4980   31.5340   41.3530 C   0  0  1  0  0  3  0  0  0  0  0  0
   38.4410   30.4700   41.0820 C   0  0  1  0  0  3  0  0  0  0  0  0
   38.3670   30.3770   39.7010 O   0  0  0  0  0  0  0  0  0  0  0  0
   37.8700   31.5010   39.0900 C   0  0  0  0  0  2  0  0  0  0  0  0
   38.1150   32.7960   39.7310 C   0  0  2  0  0  3  0  0  0  0  0  0
   38.8160   32.8340   41.0360 C   0  0  2  0  0  3  0  0  0  0  0  0
   39.9730   31.4970   42.6540 O   0  0  0  0  0  0  0  0  0  0  0  0
   40.1820   30.5950   42.9510 H   0  0  0  0  0  0  0  0  0  0  0  0
   36.8940   33.4810   39.8910 O   0  0  0  0  0  0  0  0  0  0  0  0
   37.0890   34.3100   40.4060 H   0  0  0  0  0  0  0  0  0  0  0  0
   39.8170   33.8260   41.1050 O   0  0  0  0  0  0  0  0  0  0  0  0
   40.3320   33.7380   40.2540 H   0  0  0  0  0  0  0  0  0  0  0  0
   38.3770   28.6000   42.6550 C   0  0  0  0  0  0  0  0  0  0  0  0
   37.7580   29.3240   43.4610 O   0  0  0  0  0  0  0  0  0  0  0  0
   38.5560   27.1890   42.6970 C   0  0  0  0  0  0  0  0  0  0  0  0
   37.4510   26.4730   42.2150 C   0  0  0  0  0  0  0  0  0  0  0  0
   37.5470   25.0770   42.2220 C   0  0  0  0  0  0  0  0  0  0  0  0
   38.6870   24.4980   42.6850 N   0  0  0  0  0  0  0  0  0  0  0  0
   39.7340   25.2420   43.1420 C   0  0  0  0  0  0  0  0  0  0  0  0
   39.6430   26.5760   43.1370 N   0  0  0  0  0  0  0  0  0  0  0  0
   36.5340   26.9030   41.8410 H   0  0  0  0  0  0  0  0  0  0  0  0
   36.7310   24.4540   41.8640 H   0  0  0  0  0  0  0  0  0  0  0  0
   40.6070   24.6960   43.4950 H   0  0  0  0  0  0  0  0  0  0  0  0
  1 14  1  0  0  0  0
  2  8  1  1  0  0  0
  3  2  1  0  0  0  0
  3  1  1  1  0  0  0
  4  3  1  0  0  0  0
  5  4  1  0  0  0  0
  5  6  1  0  0  0  0
  6 10  1  1  0  0  0
  6  7  1  0  0  0  0
  7 12  1  6  0  0  0
  7  2  1  0  0  0  0
  8  9  1  0  0  0  0
 10 11  1  0  0  0  0
 13 12  1  0  0  0  0
 14 16  1  0  0  0  0
 14 15  2  0  0  0  0
 16 21  1  0  0  0  0
 17 18  1  0  0  0  0
 17 16  2  0  0  0  0
 18 19  2  0  0  0  0
 19 20  1  0  0  0  0
 20 24  1  0  0  0  0
 21 20  2  0  0  0  0
 22 17  1  0  0  0  0
 23 18  1  0  0  0  0
M  END
>  <minimizedAffinity>
-5.05530882

$$$$

 OpenBabel03242518293D

 24 25  0  0  1  0  0  0  0  0999 V2000
   36.7570   29.9910   39.0950 O   0  0  0  0  0  0  0  0  0  0  0  0
   36.6650   29.5270   41.4030 C   0  0  1  0  0  3  0  0  0  0  0  0
   37.5500   29.4880   40.1620 C   0  0  1  0  0  3  0  0  0  0  0  0
   37.7710   28.1420   39.9180 O   0  0  0  0  0  0  0  0  0  0  0  0
   38.5230   27.5150   40.8800 C   0  0  0  0  0  2  0  0  0  0  0  0
   38.4280   28.0100   42.2560 C   0  0  2  0  0  3  0  0  0  0  0  0
   37.5920   29.2010   42.5380 C   0  0  2  0  0  3  0  0  0  0  0  0
   36.0390   30.7510   41.5750 O   0  0  0  0  0  0  0  0  0  0  0  0
   35.6450   31.0890   40.7530 H   0  0  0  0  0  0  0  0  0  0  0  0
   39.7190   28.2780   42.7510 O   0  0  0  0  0  0  0  0  0  0  0  0
   39.6080   28.6930   43.6480 H   0  0  0  0  0  0  0  0  0  0  0  0
   36.7740   29.0540   43.6780 O   0  0  0  0  0  0  0  0  0  0  0  0
   36.3570   28.1510   43.5860 H   0  0  0  0  0  0  0  0  0  0  0  0
   37.2940   30.9430   38.2140 C   0  0  0  0  0  0  0  0  0  0  0  0
   37.1540   30.7180   36.9940 O   0  0  0  0  0  0  0  0  0  0  0  0
   37.9340   32.0510   38.8370 C   0  0  0  0  0  0  0  0  0  0  0  0
   39.3130   32.1080   38.5910 C   0  0  0  0  0  0  0  0  0  0  0  0
   40.0170   33.1690   39.1700 C   0  0  0  0  0  0  0  0  0  0  0  0
   39.3390   34.0750   39.9250 N   0  0  0  0  0  0  0  0  0  0  0  0
   37.9950   33.9730   40.1320 C   0  0  0  0  0  0  0  0  0  0  0  0
   37.3220   32.9580   39.5810 N   0  0  0  0  0  0  0  0  0  0  0  0
   39.8790   31.4060   37.9980 H   0  0  0  0  0  0  0  0  0  0  0  0
   41.0890   33.2820   39.0250 H   0  0  0  0  0  0  0  0  0  0  0  0
   37.5340   34.7420   40.7500 H   0  0  0  0  0  0  0  0  0  0  0  0
  2  8  1  1  0  0  0
  2  7  1  0  0  0  0
  3  1  1  6  0  0  0
  3  2  1  0  0  0  0
  4  3  1  0  0  0  0
  4  5  1  0  0  0  0
  5  6  1  0  0  0  0
  6  7  1  0  0  0  0
  6 10  1  6  0  0  0
  7 12  1  1  0  0  0
  9  8  1  0  0  0  0
 10 11  1  0  0  0  0
 13 12  1  0  0  0  0
 14 16  1  0  0  0  0
 14  1  1  0  0  0  0
 15 14  2  0  0  0  0
 16 21  1  0  0  0  0
 17 16  2  0  0  0  0
 17 18  1  0  0  0  0
 18 19  2  0  0  0  0
 19 20  1  0  0  0  0
 20 24  1  0  0  0  0
 21 20  2  0  0  0  0
 22 17  1  0  0  0  0
 23 18  1  0  0  0  0
M  END
>  <minimizedAffinity>
-4.99540949

$$$$

 OpenBabel03242518293D

 24 25  0  0  1  0  0  0  0  0999 V2000
   37.3370   30.0130   39.2870 O   0  0  0  0  0  0  0  0  0  0  0  0
   38.8780   31.5100   38.3220 C   0  0  1  0  0  3  0  0  0  0  0  0
   38.2760   31.0210   39.6340 C   0  0  1  0  0  3  0  0  0  0  0  0
   37.5620   32.1020   40.1290 O   0  0  0  0  0  0  0  0  0  0  0  0
   38.3450   33.1670   40.5000 C   0  0  0  0  0  2  0  0  0  0  0  0
   39.6010   33.3810   39.7770 C   0  0  2  0  0  3  0  0  0  0  0  0
   40.0080   32.4080   38.7360 C   0  0  2  0  0  3  0  0  0  0  0  0
   39.3050   30.4720   37.5100 O   0  0  0  0  0  0  0  0  0  0  0  0
   38.6520   29.7550   37.4450 H   0  0  0  0  0  0  0  0  0  0  0  0
   40.6630   33.4800   40.6960 O   0  0  0  0  0  0  0  0  0  0  0  0
   41.5040   33.5360   40.1670 H   0  0  0  0  0  0  0  0  0  0  0  0
   40.4750   33.0160   37.5520 O   0  0  0  0  0  0  0  0  0  0  0  0
   39.8090   33.7320   37.3450 H   0  0  0  0  0  0  0  0  0  0  0  0
   36.3880   29.5880   40.2300 C   0  0  0  0  0  0  0  0  0  0  0  0
   35.1960   29.8730   39.9930 O   0  0  0  0  0  0  0  0  0  0  0  0
   36.9190   28.8780   41.3450 C   0  0  0  0  0  0  0  0  0  0  0  0
   37.0330   27.4990   41.1230 C   0  0  0  0  0  0  0  0  0  0  0  0
   37.5470   26.7290   42.1720 C   0  0  0  0  0  0  0  0  0  0  0  0
   37.9040   27.3470   43.3300 N   0  0  0  0  0  0  0  0  0  0  0  0
   37.7730   28.6950   43.4920 C   0  0  0  0  0  0  0  0  0  0  0  0
   37.2800   29.4320   42.4910 N   0  0  0  0  0  0  0  0  0  0  0  0
   36.7590   26.9790   40.2180 H   0  0  0  0  0  0  0  0  0  0  0  0
   37.6660   25.6520   42.0770 H   0  0  0  0  0  0  0  0  0  0  0  0
   38.0830   29.1060   44.4510 H   0  0  0  0  0  0  0  0  0  0  0  0
  1 14  1  0  0  0  0
  2  8  1  6  0  0  0
  2  7  1  0  0  0  0
  2  3  1  0  0  0  0
  3  1  1  6  0  0  0
  3  4  1  0  0  0  0
  4  5  1  0  0  0  0
  6  5  1  0  0  0  0
  6 10  1  1  0  0  0
  7 12  1  6  0  0  0
  7  6  1  0  0  0  0
  9  8  1  0  0  0  0
 11 10  1  0  0  0  0
 13 12  1  0  0  0  0
 14 16  1  0  0  0  0
 15 14  2  0  0  0  0
 16 21  1  0  0  0  0
 17 16  2  0  0  0  0
 17 18  1  0  0  0  0
 18 19  2  0  0  0  0
 19 20  1  0  0  0  0
 20 24  1  0  0  0  0
 21 20  2  0  0  0  0
 22 17  1  0  0  0  0
 23 18  1  0  0  0  0
M  END
>  <minimizedAffinity>
-4.66072321

$$$$

 OpenBabel03242518293D

 24 25  0  0  1  0  0  0  0  0999 V2000
   37.0300   28.1410   42.5800 O   0  0  0  0  0  0  0  0  0  0  0  0
   38.8190   26.7090   43.1250 C   0  0  1  0  0  3  0  0  0  0  0  0
   37.6390   26.9190   42.1840 C   0  0  1  0  0  3  0  0  0  0  0  0
   36.7520   25.8970   42.4800 O   0  0  0  0  0  0  0  0  0  0  0  0
   37.2130   24.6440   42.1580 C   0  0  0  0  0  2  0  0  0  0  0  0
   38.6580   24.4090   42.2180 C   0  0  2  0  0  3  0  0  0  0  0  0
   39.5600   25.5380   42.5470 C   0  0  2  0  0  3  0  0  0  0  0  0
   39.6220   27.8320   43.2370 O   0  0  0  0  0  0  0  0  0  0  0  0
   39.1090   28.6480   43.3640 H   0  0  0  0  0  0  0  0  0  0  0  0
   39.0980   23.8640   40.9960 O   0  0  0  0  0  0  0  0  0  0  0  0
   40.0890   23.8010   41.0430 H   0  0  0  0  0  0  0  0  0  0  0  0
   40.5560   25.2040   43.4890 O   0  0  0  0  0  0  0  0  0  0  0  0
   40.0760   24.7100   44.2130 H   0  0  0  0  0  0  0  0  0  0  0  0
   36.5600   29.0350   41.6050 C   0  0  0  0  0  0  0  0  0  0  0  0
   35.4920   28.7290   41.0350 O   0  0  0  0  0  0  0  0  0  0  0  0
   37.3720   30.1850   41.3950 C   0  0  0  0  0  0  0  0  0  0  0  0
   36.7410   31.1820   40.6380 C   0  0  0  0  0  0  0  0  0  0  0  0
   37.4740   32.3470   40.3870 C   0  0  0  0  0  0  0  0  0  0  0  0
   38.7370   32.4500   40.8820 N   0  0  0  0  0  0  0  0  0  0  0  0
   39.3040   31.4490   41.6140 C   0  0  0  0  0  0  0  0  0  0  0  0
   38.6050   30.3350   41.8540 N   0  0  0  0  0  0  0  0  0  0  0  0
   35.7420   31.1310   40.2320 H   0  0  0  0  0  0  0  0  0  0  0  0
   37.0530   33.1650   39.8080 H   0  0  0  0  0  0  0  0  0  0  0  0
   40.3180   31.6160   41.9710 H   0  0  0  0  0  0  0  0  0  0  0  0
  2  8  1  6  0  0  0
  3  4  1  0  0  0  0
  3  1  1  1  0  0  0
  3  2  1  0  0  0  0
  5  6  1  0  0  0  0
  5  4  1  0  0  0  0
  6 10  1  6  0  0  0
  6  7  1  0  0  0  0
  7  2  1  0  0  0  0
  7 12  1  1  0  0  0
  8  9  1  0  0  0  0
 10 11  1  0  0  0  0
 12 13  1  0  0  0  0
 14  1  1  0  0  0  0
 15 14  2  0  0  0  0
 16 14  1  0  0  0  0
 16 21  1  0  0  0  0
 17 16  2  0  0  0  0
 18 17  1  0  0  0  0
 18 19  2  0  0  0  0
 19 20  1  0  0  0  0
 20 21  2  0  0  0  0
 20 24  1  0  0  0  0
 22 17  1  0  0  0  0
 23 18  1  0  0  0  0
M  END
>  <minimizedAffinity>
-4.65238285

$$$$
