
 OpenBabel03252509003D

 48 50  0  0  1  0  0  0  0  0999 V2000
   46.5310   34.7480   43.3990 N   0  0  0  0  0  0  0  0  0  0  0  0
   45.9890   35.6690   42.4670 C   0  0  0  0  0  0  0  0  0  0  0  0
   44.4770   35.7430   42.4380 C   0  0  0  0  0  0  0  0  0  0  0  0
   43.8160   35.5000   43.7630 C   0  0  0  0  0  0  0  0  0  0  0  0
   44.8300   35.3380   44.8700 C   0  0  0  0  0  0  0  0  0  0  0  0
   45.7310   34.1550   44.3630 C   0  0  2  0  0  0  0  0  0  0  0  0
   46.3160   35.5550   41.4300 H   0  0  0  0  0  0  0  0  0  0  0  0
   46.3400   36.6970   42.7730 H   0  0  0  0  0  0  0  0  0  0  0  0
   44.0960   35.0610   41.6390 H   0  0  0  0  0  0  0  0  0  0  0  0
   44.1720   36.7610   42.0840 H   0  0  0  0  0  0  0  0  0  0  0  0
   43.0490   36.2730   44.0070 H   0  0  0  0  0  0  0  0  0  0  0  0
   43.2680   34.5370   43.6950 H   0  0  0  0  0  0  0  0  0  0  0  0
   45.4430   36.2210   45.0580 H   0  0  0  0  0  0  0  0  0  0  0  0
   44.2940   34.9280   45.7380 H   0  0  0  0  0  0  0  0  0  0  0  0
   45.0220   33.3650   44.0610 H   0  0  0  0  0  0  0  0  0  0  0  0
   47.6820   34.0370   42.9230 C   0  0  0  0  0  0  0  0  0  0  0  0
   48.3300   34.7430   42.3880 H   0  0  0  0  0  0  0  0  0  0  0  0
   48.2340   33.6640   43.8220 H   0  0  0  0  0  0  0  0  0  0  0  0
   47.2240   32.8540   42.1270 C   0  0  0  0  0  0  0  0  0  0  0  0
   46.1200   32.8560   42.0220 H   0  0  0  0  0  0  0  0  0  0  0  0
   47.4910   31.8940   42.5710 H   0  0  0  0  0  0  0  0  0  0  0  0
   49.0580   32.0000   38.9620 C   0  0  0  0  0  0  0  0  0  0  0  0
   48.5370   31.9180   40.2670 C   0  0  0  0  0  0  0  0  0  0  0  0
   47.7690   32.9530   40.7470 C   0  0  0  0  0  0  0  0  0  0  0  0
   47.5570   34.0000   39.9350 N   0  0  0  0  0  0  0  0  0  0  0  0
   48.0610   34.0660   38.6920 C   0  0  0  0  0  0  0  0  0  0  0  0
   48.8090   33.0780   38.1950 N   0  0  0  0  0  0  0  0  0  0  0  0
   49.6440   31.1500   38.6690 H   0  0  0  0  0  0  0  0  0  0  0  0
   48.7280   31.0570   40.8950 H   0  0  0  0  0  0  0  0  0  0  0  0
   47.8000   34.9780   38.1590 H   0  0  0  0  0  0  0  0  0  0  0  0
   46.4540   33.8420   45.5090 O   0  0  0  0  0  0  0  0  0  0  0  0
   45.6160   31.3970   44.8910 O   0  0  0  0  0  0  0  0  0  0  0  0
   46.2330   32.2450   45.9970 P   0  0  2  0  0  0  0  0  0  0  0  0
   45.0530   32.2900   47.2360 O   0  0  0  0  0  0  0  0  0  0  0  0
   44.1480   32.2220   46.8380 H   0  0  0  0  0  0  0  0  0  0  0  0
   47.6070   31.5570   46.6320 O   0  0  0  0  0  0  0  0  0  0  0  0
   47.4080   29.8050   48.1750 C   0  0  2  0  0  3  0  0  0  0  0  0
   47.5870   30.1790   46.7040 C   0  0  2  0  0  3  0  0  0  0  0  0
   48.8010   29.7000   46.2140 O   0  0  0  0  0  0  0  0  0  0  0  0
   48.9850   28.3580   46.5390 C   0  0  0  0  0  2  0  0  0  0  0  0
   49.1800   28.1410   48.0200 C   0  0  1  0  0  3  0  0  0  0  0  0
   48.7650   29.4280   48.7210 C   0  0  1  0  0  3  0  0  0  0  0  0
   46.5070   28.7290   48.2340 O   0  0  0  0  0  0  0  0  0  0  0  0
   46.1130   28.5410   47.3280 H   0  0  0  0  0  0  0  0  0  0  0  0
   48.3650   27.0930   48.4860 O   0  0  0  0  0  0  0  0  0  0  0  0
   48.3000   27.2430   49.4660 H   0  0  0  0  0  0  0  0  0  0  0  0
   49.6790   30.3980   48.2840 O   0  0  0  0  0  0  0  0  0  0  0  0
   50.0020   30.9650   49.0280 H   0  0  0  0  0  0  0  0  0  0  0  0
  1  6  1  0  0  0  0
  2  8  1  0  0  0  0
  2  1  1  0  0  0  0
  3  2  1  0  0  0  0
  3  4  1  0  0  0  0
  4 11  1  0  0  0  0
  4  5  1  0  0  0  0
  5 13  1  0  0  0  0
  5 14  1  0  0  0  0
  6 15  1  6  0  0  0
  6  5  1  0  0  0  0
  6 31  1  0  0  0  0
  7  2  1  0  0  0  0
  9  3  1  0  0  0  0
 10  3  1  0  0  0  0
 12  4  1  0  0  0  0
 16  1  1  0  0  0  0
 16 18  1  0  0  0  0
 17 16  1  0  0  0  0
 19 21  1  0  0  0  0
 19 16  1  0  0  0  0
 20 19  1  0  0  0  0
 22 23  1  0  0  0  0
 23 24  2  0  0  0  0
 23 29  1  0  0  0  0
 24 19  1  0  0  0  0
 25 24  1  0  0  0  0
 26 25  2  0  0  0  0
 27 26  1  0  0  0  0
 27 22  2  0  0  0  0
 28 22  1  0  0  0  0
 30 26  1  0  0  0  0
 31 33  1  0  0  0  0
 33 32  2  6  0  0  0
 33 36  1  0  0  0  0
 33 34  1  0  0  0  0
 35 34  1  0  0  0  0
 37 43  1  6  0  0  0
 37 42  1  0  0  0  0
 38 36  1  1  0  0  0
 38 37  1  0  0  0  0
 39 40  1  0  0  0  0
 39 38  1  0  0  0  0
 40 41  1  0  0  0  0
 41 45  1  1  0  0  0
 41 42  1  0  0  0  0
 42 47  1  6  0  0  0
 44 43  1  0  0  0  0
 45 46  1  0  0  0  0
 47 48  1  0  0  0  0
M  END
>  <minimizedAffinity>
-4.73441362

>  <minimizedRMSD>
2.26214385

$$$$
