
     RDKit          3D

 28 29  0  0  0  0  0  0  0  0999 V2000
   44.5179   36.0423   44.5413 C   0  0  0  0  0  0  0  0  0  0  0  0
   45.1765   36.0571   43.3099 C   0  0  0  0  0  0  0  0  0  0  0  0
   46.0801   35.0382   43.0144 C   0  0  0  0  0  0  0  0  0  0  0  0
   46.2768   34.0645   43.9586 N   0  0  0  0  0  0  0  0  0  0  0  0
   45.6274   34.0760   45.1377 C   0  0  0  0  0  0  0  0  0  0  0  0
   44.7467   35.0674   45.4280 N   0  0  0  0  0  0  0  0  0  0  0  0
   46.8016   34.9295   41.8330 O   0  0  0  0  0  0  0  0  0  0  0  0
   43.8223   36.8339   44.7592 H   0  0  0  0  0  0  0  0  0  0  0  0
   45.0331   36.8208   42.5494 H   0  0  0  0  0  0  0  0  0  0  0  0
   45.8932   33.2328   45.7797 H   0  0  0  0  0  0  0  0  0  0  0  0
   48.7436   34.3414   39.5097 O   0  0  0  0  0  0  0  0  0  0  0  0
   48.9356   34.3178   40.8933 C   0  0  1  0  0  0  0  0  0  0  0  0
   47.7076   33.8634   41.5963 C   0  0  1  0  0  0  0  0  0  0  0  0
   47.8396   33.1465   42.7351 O   0  0  0  0  0  0  0  0  0  0  0  0
   49.1122   32.8667   43.1698 C   0  0  0  0  0  0  0  0  0  0  0  0
   49.8308   32.2795   41.9655 C   0  0  2  0  0  0  0  0  0  0  0  0
   50.9330   31.5664   42.3419 O   0  0  0  0  0  0  0  0  0  0  0  0
   50.1707   33.5115   41.1456 C   0  0  1  0  0  0  0  0  0  0  0  0
   50.7673   33.0408   39.9703 O   0  0  0  0  0  0  0  0  0  0  0  0
   49.4096   34.8378   39.0082 H   0  0  0  0  0  0  0  0  0  0  0  0
   49.1490   35.3635   41.1999 H   0  0  0  0  0  0  0  0  0  0  0  0
   47.1476   33.2043   40.8698 H   0  0  0  0  0  0  0  0  0  0  0  0
   49.0608   32.1479   43.9975 H   0  0  0  0  0  0  0  0  0  0  0  0
   49.6267   33.8057   43.5060 H   0  0  0  0  0  0  0  0  0  0  0  0
   49.1110   31.6974   41.3328 H   0  0  0  0  0  0  0  0  0  0  0  0
   51.6905   31.7694   41.7436 H   0  0  0  0  0  0  0  0  0  0  0  0
   50.9585   34.0939   41.6764 H   0  0  0  0  0  0  0  0  0  0  0  0
   51.6282   33.5145   39.7744 H   0  0  0  0  0  0  0  0  0  0  0  0
  1  6  2  0
  2  1  1  0
  3  2  2  0
  3  4  1  0
  4  5  2  0
  5  6  1  0
  7  3  1  0
  1  8  1  0
  2  9  1  0
  5 10  1  0
 11 12  1  0
 12 13  1  0
 13 14  1  0
 14 15  1  0
 15 16  1  0
 16 17  1  0
 16 18  1  0
 18 19  1  0
 18 12  1  0
 11 20  1  0
 12 21  1  1
 13 22  1  6
 15 23  1  0
 15 24  1  0
 16 25  1  6
 17 26  1  0
 18 27  1  1
 19 28  1  0
  7 13  1  0
M  ISO  3   8  14   9  14  10  14
M  END
>  <DihAtoms>  (1) 
2,6,12,11

>  <DihDeg>  (1) 
114.2406486629493

$$$$
