
 OpenBabel03252508003D

 32 34  0  0  1  0  0  0  0  0999 V2000
   46.7540   34.3110   43.3920 C   0  0  0  0  0  0  0  0  0  0  0  0
   45.6920   35.2580   43.5310 C   0  0  0  0  0  0  0  0  0  0  0  0
   44.8870   35.1320   44.6690 C   0  0  0  0  0  0  0  0  0  0  0  0
   45.1620   34.1410   45.5480 N   0  0  0  0  0  0  0  0  0  0  0  0
   46.2040   33.2640   45.3480 C   0  0  0  0  0  0  0  0  0  0  0  0
   46.9900   33.3420   44.2900 N   0  0  0  0  0  0  0  0  0  0  0  0
   45.5300   36.0260   42.7870 H   0  0  0  0  0  0  0  0  0  0  0  0
   44.0710   35.8130   44.8310 H   0  0  0  0  0  0  0  0  0  0  0  0
   46.4550   32.2090   46.3760 C   0  0  1  0  0  0  0  0  0  0  0  0
   47.1810   32.5850   47.6490 C   0  0  0  0  0  0  0  0  0  0  0  0
   45.6900   32.3890   47.6270 C   0  0  1  0  0  0  0  0  0  0  0  0
   46.6620   31.1820   46.0320 H   0  0  0  0  0  0  0  0  0  0  0  0
   47.6050   33.6190   47.6160 H   0  0  0  0  0  0  0  0  0  0  0  0
   47.8430   31.8460   48.1080 H   0  0  0  0  0  0  0  0  0  0  0  0
   45.3550   31.5400   48.2440 H   0  0  0  0  0  0  0  0  0  0  0  0
   44.9620   33.6130   47.8680 N   0  0  0  0  0  0  0  0  0  0  0  0
   45.5020   34.4620   47.9670 H   0  0  0  0  0  0  0  0  0  0  0  0
   43.9960   33.6370   47.5710 H   0  0  0  0  0  0  0  0  0  0  0  0
   47.5580   34.4940   42.2090 C   0  0  0  0  0  0  0  0  0  0  0  0
   48.1720   35.5870   41.9400 O   0  0  0  0  0  0  0  0  0  0  0  0
   47.1160   33.9400   39.9120 C   0  0  1  0  0  3  0  0  0  0  0  0
   47.7450   33.4220   41.1890 C   0  0  2  0  0  3  0  0  0  0  0  0
   47.0880   32.2970   41.6720 O   0  0  0  0  0  0  0  0  0  0  0  0
   46.9970   31.2850   40.7300 C   0  0  0  0  0  2  0  0  0  0  0  0
   46.2440   31.6940   39.4970 C   0  0  1  0  0  3  0  0  0  0  0  0
   46.9450   32.8700   38.8790 C   0  0  1  0  0  3  0  0  0  0  0  0
   45.8710   34.4920   40.1980 O   0  0  0  0  0  0  0  0  0  0  0  0
   45.1660   33.8070   40.3410 H   0  0  0  0  0  0  0  0  0  0  0  0
   46.3440   30.6460   38.5730 O   0  0  0  0  0  0  0  0  0  0  0  0
   45.4620   30.4540   38.1710 H   0  0  0  0  0  0  0  0  0  0  0  0
   46.1090   33.4200   37.8820 O   0  0  0  0  0  0  0  0  0  0  0  0
   45.4880   34.0980   38.2730 H   0  0  0  0  0  0  0  0  0  0  0  0
  1  2  2  0  0  0  0
  1  6  1  0  0  0  0
  2  3  1  0  0  0  0
  3  8  1  0  0  0  0
  3  4  2  0  0  0  0
  5  4  1  0  0  0  0
  5  9  1  0  0  0  0
  6  5  2  0  0  0  0
  7  2  1  0  0  0  0
  9 12  1  6  0  0  0
  9 11  1  0  0  0  0
  9 10  1  0  0  0  0
 10 14  1  0  0  0  0
 11 10  1  0  0  0  0
 11 16  1  0  0  0  0
 11 15  1  1  0  0  0
 13 10  1  0  0  0  0
 16 17  1  0  0  0  0
 18 16  1  0  0  0  0
 19  1  1  0  0  0  0
 20 19  2  0  0  0  0
 21 27  1  1  0  0  0
 21 22  1  0  0  0  0
 22 23  1  0  0  0  0
 22 19  1  1  0  0  0
 24 23  1  0  0  0  0
 25 29  1  6  0  0  0
 25 24  1  0  0  0  0
 26 31  1  6  0  0  0
 26 25  1  0  0  0  0
 26 21  1  0  0  0  0
 27 28  1  0  0  0  0
 30 29  1  0  0  0  0
 31 32  1  0  0  0  0
M  END
>  <minimizedAffinity>
-5.62044287

>  <minimizedRMSD>
1.83064723

$$$$
