
 OpenBabel03242515583D

 40 43  0  0  1  0  0  0  0  0999 V2000
   36.8360   27.0460   39.7540 C   0  0  0  0  0  0  0  0  0  0  0  0
   36.7110   25.6450   39.5950 C   0  0  0  0  0  0  0  0  0  0  0  0
   36.7880   24.7570   40.6340 C   0  0  0  0  0  0  0  0  0  0  0  0
   36.9910   25.1850   41.8910 C   0  0  0  0  0  0  0  0  0  0  0  0
   37.1220   26.5370   42.1110 C   0  0  0  0  0  0  0  0  0  0  0  0
   37.3320   26.9530   43.4020 C   0  0  0  0  0  0  0  0  0  0  0  0
   37.4760   28.3000   43.6790 C   0  0  0  0  0  0  0  0  0  0  0  0
   37.3970   29.1750   42.5890 C   0  0  0  0  0  0  0  0  0  0  0  0
   37.1910   28.6830   41.3720 C   0  0  0  0  0  0  0  0  0  0  0  0
   37.0420   27.4080   41.0440 C   0  0  0  0  0  0  0  0  0  0  0  0
   36.5460   25.2460   38.6030 H   0  0  0  0  0  0  0  0  0  0  0  0
   36.6820   23.6980   40.4330 H   0  0  0  0  0  0  0  0  0  0  0  0
   37.0440   24.4610   42.6800 H   0  0  0  0  0  0  0  0  0  0  0  0
   37.3790   26.1670   44.1940 H   0  0  0  0  0  0  0  0  0  0  0  0
   37.6360   28.4560   44.7670 H   0  0  0  0  0  0  0  0  0  0  0  0
   37.5350   30.1150   43.1180 H   0  0  0  0  0  0  0  0  0  0  0  0
   38.0150   28.9820   36.9590 C   0  0  0  0  0  0  0  0  0  0  0  0
   36.8080   29.5830   36.4740 C   0  0  0  0  0  0  0  0  0  0  0  0
   35.5670   29.3240   37.1260 C   0  0  0  0  0  0  0  0  0  0  0  0
   35.6150   28.5080   38.1830 N   0  0  0  0  0  0  0  0  0  0  0  0
   36.6990   27.9520   38.6410 C   0  0  0  0  0  0  0  0  0  0  0  0
   37.8950   28.1940   38.0230 N   0  0  0  0  0  0  0  0  0  0  0  0
   38.9350   29.1980   36.4440 H   0  0  0  0  0  0  0  0  0  0  0  0
   34.7100   29.7990   36.7190 H   0  0  0  0  0  0  0  0  0  0  0  0
   36.9350   30.4270   35.3340 N   0  0  0  0  0  0  0  0  0  0  0  0
   36.5260   31.4000   35.3070 H   0  0  0  0  0  0  0  0  0  0  0  0
   37.4140   30.1800   34.4720 H   0  0  0  0  0  0  0  0  0  0  0  0
   37.1770   29.7560   40.5610 O   0  0  0  0  0  0  0  0  0  0  0  0
   37.4400   32.0220   39.6450 C   0  0  2  0  0  3  0  0  0  0  0  0
   37.9020   30.9570   40.5570 C   0  0  2  0  0  3  0  0  0  0  0  0
   39.2430   30.6280   40.2140 O   0  0  0  0  0  0  0  0  0  0  0  0
   40.0310   31.5820   40.8490 C   0  0  0  0  0  2  0  0  0  0  0  0
   39.6180   32.9420   40.3820 C   0  0  1  0  0  3  0  0  0  0  0  0
   38.6440   32.8420   39.2210 C   0  0  1  0  0  3  0  0  0  0  0  0
   36.5860   32.9010   40.3160 O   0  0  0  0  0  0  0  0  0  0  0  0
   36.7430   32.9300   41.2870 H   0  0  0  0  0  0  0  0  0  0  0  0
   39.0400   33.6320   41.4360 O   0  0  0  0  0  0  0  0  0  0  0  0
   39.3530   34.5780   41.4940 H   0  0  0  0  0  0  0  0  0  0  0  0
   39.2340   32.2380   38.1290 O   0  0  0  0  0  0  0  0  0  0  0  0
   38.7030   32.3230   37.3200 H   0  0  0  0  0  0  0  0  0  0  0  0
  1 10  1  0  0  0  0
  2  1  2  0  0  0  0
  2  3  1  0  0  0  0
  3  4  2  0  0  0  0
  4  5  1  0  0  0  0
  4 13  1  0  0  0  0
  5  6  1  0  0  0  0
  6  7  2  0  0  0  0
  6 14  1  0  0  0  0
  7 15  1  0  0  0  0
  8 16  1  0  0  0  0
  8  7  1  0  0  0  0
  9  8  2  0  0  0  0
 10  9  1  0  0  0  0
 10  5  2  0  0  0  0
 11  2  1  0  0  0  0
 12  3  1  0  0  0  0
 17 22  1  0  0  0  0
 18 17  2  0  0  0  0
 18 19  1  0  0  0  0
 19 20  2  0  0  0  0
 20 21  1  0  0  0  0
 21  1  1  0  0  0  0
 22 21  2  0  0  0  0
 23 17  1  0  0  0  0
 24 19  1  0  0  0  0
 25 18  1  0  0  0  0
 26 25  1  0  0  0  0
 27 25  1  0  0  0  0
 28  9  1  0  0  0  0
 29 35  1  1  0  0  0
 29 30  1  0  0  0  0
 30 28  1  6  0  0  0
 31 30  1  0  0  0  0
 31 32  1  0  0  0  0
 33 32  1  0  0  0  0
 33 37  1  1  0  0  0
 34 39  1  6  0  0  0
 34 29  1  0  0  0  0
 34 33  1  0  0  0  0
 35 36  1  0  0  0  0
 37 38  1  0  0  0  0
 40 39  1  0  0  0  0
M  END
>  <minimizedAffinity>
-7.31672049

$$$$

 OpenBabel03242515583D

 40 43  0  0  1  0  0  0  0  0999 V2000
   37.3670   26.1220   39.6590 C   0  0  0  0  0  0  0  0  0  0  0  0
   36.7960   24.8350   39.8080 C   0  0  0  0  0  0  0  0  0  0  0  0
   36.5740   24.2440   41.0230 C   0  0  0  0  0  0  0  0  0  0  0  0
   36.8950   24.8750   42.1640 C   0  0  0  0  0  0  0  0  0  0  0  0
   37.4550   26.1300   42.0860 C   0  0  0  0  0  0  0  0  0  0  0  0
   37.7790   26.7560   43.2630 C   0  0  0  0  0  0  0  0  0  0  0  0
   38.3490   28.0150   43.2420 C   0  0  0  0  0  0  0  0  0  0  0  0
   38.5640   28.5830   41.9810 C   0  0  0  0  0  0  0  0  0  0  0  0
   38.2200   27.9040   40.8930 C   0  0  0  0  0  0  0  0  0  0  0  0
   37.6690   26.7000   40.8470 C   0  0  0  0  0  0  0  0  0  0  0  0
   36.5180   24.2830   38.9210 H   0  0  0  0  0  0  0  0  0  0  0  0
   36.1330   23.2550   41.0560 H   0  0  0  0  0  0  0  0  0  0  0  0
   36.7060   24.3820   43.0970 H   0  0  0  0  0  0  0  0  0  0  0  0
   37.5630   26.2090   44.2130 H   0  0  0  0  0  0  0  0  0  0  0  0
   38.5420   28.3700   44.2770 H   0  0  0  0  0  0  0  0  0  0  0  0
   38.9960   29.5310   42.2960 H   0  0  0  0  0  0  0  0  0  0  0  0
   36.2680   27.8130   36.6790 C   0  0  0  0  0  0  0  0  0  0  0  0
   37.4910   27.9770   35.9520 C   0  0  0  0  0  0  0  0  0  0  0  0
   38.7160   27.4900   36.4940 C   0  0  0  0  0  0  0  0  0  0  0  0
   38.6370   26.8920   37.6870 N   0  0  0  0  0  0  0  0  0  0  0  0
   37.5380   26.7310   38.3640 C   0  0  0  0  0  0  0  0  0  0  0  0
   36.3560   27.1950   37.8520 N   0  0  0  0  0  0  0  0  0  0  0  0
   35.3600   28.1920   36.2410 H   0  0  0  0  0  0  0  0  0  0  0  0
   39.5880   27.6430   35.9090 H   0  0  0  0  0  0  0  0  0  0  0  0
   37.3980   28.6400   34.6960 N   0  0  0  0  0  0  0  0  0  0  0  0
   37.8220   28.2390   33.8160 H   0  0  0  0  0  0  0  0  0  0  0  0
   36.9310   29.5290   34.5350 H   0  0  0  0  0  0  0  0  0  0  0  0
   38.5590   28.7000   39.8630 O   0  0  0  0  0  0  0  0  0  0  0  0
   38.4340   31.0220   40.6610 C   0  0  2  0  0  3  0  0  0  0  0  0
   38.2840   30.0430   39.5670 C   0  0  2  0  0  3  0  0  0  0  0  0
   36.9380   30.0970   39.1040 O   0  0  0  0  0  0  0  0  0  0  0  0
   36.8940   31.1690   38.2190 C   0  0  0  0  0  2  0  0  0  0  0  0
   37.3220   32.4090   38.9390 C   0  0  1  0  0  3  0  0  0  0  0  0
   37.4500   32.1530   40.4290 C   0  0  1  0  0  3  0  0  0  0  0  0
   39.7060   31.5990   40.6280 O   0  0  0  0  0  0  0  0  0  0  0  0
   40.1120   31.5920   39.7320 H   0  0  0  0  0  0  0  0  0  0  0  0
   38.5310   32.8460   38.4200 O   0  0  0  0  0  0  0  0  0  0  0  0
   38.5530   33.8320   38.2750 H   0  0  0  0  0  0  0  0  0  0  0  0
   36.2330   31.8060   40.9800 O   0  0  0  0  0  0  0  0  0  0  0  0
   36.2430   31.8150   41.9510 H   0  0  0  0  0  0  0  0  0  0  0  0
  1  2  2  0  0  0  0
  1 10  1  0  0  0  0
  2  3  1  0  0  0  0
  3 12  1  0  0  0  0
  3  4  2  0  0  0  0
  4 13  1  0  0  0  0
  5  4  1  0  0  0  0
  5  6  1  0  0  0  0
  6 14  1  0  0  0  0
  7  6  2  0  0  0  0
  7 15  1  0  0  0  0
  8 16  1  0  0  0  0
  8  7  1  0  0  0  0
  9  8  2  0  0  0  0
 10  9  1  0  0  0  0
 10  5  2  0  0  0  0
 11  2  1  0  0  0  0
 17 22  1  0  0  0  0
 18 19  1  0  0  0  0
 18 17  2  0  0  0  0
 19 20  2  0  0  0  0
 20 21  1  0  0  0  0
 21  1  1  0  0  0  0
 22 21  2  0  0  0  0
 23 17  1  0  0  0  0
 24 19  1  0  0  0  0
 25 18  1  0  0  0  0
 26 25  1  0  0  0  0
 27 25  1  0  0  0  0
 28  9  1  0  0  0  0
 29 35  1  6  0  0  0
 30 28  1  1  0  0  0
 30 29  1  0  0  0  0
 31 30  1  0  0  0  0
 32 33  1  0  0  0  0
 32 31  1  0  0  0  0
 33 37  1  6  0  0  0
 33 34  1  0  0  0  0
 34 29  1  0  0  0  0
 34 39  1  6  0  0  0
 36 35  1  0  0  0  0
 38 37  1  0  0  0  0
 39 40  1  0  0  0  0
M  END
>  <minimizedAffinity>
-6.92107534

$$$$

 OpenBabel03242515583D

 40 43  0  0  1  0  0  0  0  0999 V2000
   36.9010   27.0280   39.8580 C   0  0  0  0  0  0  0  0  0  0  0  0
   36.8690   25.6140   39.8000 C   0  0  0  0  0  0  0  0  0  0  0  0
   37.0100   24.8100   40.8980 C   0  0  0  0  0  0  0  0  0  0  0  0
   37.1910   25.3390   42.1200 C   0  0  0  0  0  0  0  0  0  0  0  0
   37.2320   26.7090   42.2430 C   0  0  0  0  0  0  0  0  0  0  0  0
   37.4200   27.2290   43.4980 C   0  0  0  0  0  0  0  0  0  0  0  0
   37.4750   28.5990   43.6780 C   0  0  0  0  0  0  0  0  0  0  0  0
   37.3310   29.3860   42.5300 C   0  0  0  0  0  0  0  0  0  0  0  0
   37.1530   28.7960   41.3530 C   0  0  0  0  0  0  0  0  0  0  0  0
   37.0880   27.4940   41.1170 C   0  0  0  0  0  0  0  0  0  0  0  0
   36.7260   25.1350   38.8400 H   0  0  0  0  0  0  0  0  0  0  0  0
   36.9750   23.7340   40.7740 H   0  0  0  0  0  0  0  0  0  0  0  0
   37.2960   24.6780   42.9580 H   0  0  0  0  0  0  0  0  0  0  0  0
   37.5230   26.5070   44.3440 H   0  0  0  0  0  0  0  0  0  0  0  0
   37.6290   28.8420   44.7510 H   0  0  0  0  0  0  0  0  0  0  0  0
   37.4090   30.3690   42.9890 H   0  0  0  0  0  0  0  0  0  0  0  0
   37.8980   28.6760   36.8190 C   0  0  0  0  0  0  0  0  0  0  0  0
   36.6740   29.2790   36.3830 C   0  0  0  0  0  0  0  0  0  0  0  0
   35.4850   29.1220   37.1530 C   0  0  0  0  0  0  0  0  0  0  0  0
   35.5970   28.3960   38.2690 N   0  0  0  0  0  0  0  0  0  0  0  0
   36.6980   27.8410   38.6850 C   0  0  0  0  0  0  0  0  0  0  0  0
   37.8450   27.9860   37.9530 N   0  0  0  0  0  0  0  0  0  0  0  0
   38.7780   28.8140   36.2140 H   0  0  0  0  0  0  0  0  0  0  0  0
   34.6110   29.5910   36.7760 H   0  0  0  0  0  0  0  0  0  0  0  0
   36.7300   30.0180   35.1670 N   0  0  0  0  0  0  0  0  0  0  0  0
   36.3490   31.0000   35.0880 H   0  0  0  0  0  0  0  0  0  0  0  0
   37.1270   29.6810   34.2940 H   0  0  0  0  0  0  0  0  0  0  0  0
   37.0630   29.8050   40.4670 O   0  0  0  0  0  0  0  0  0  0  0  0
   39.3900   30.5880   40.3410 C   0  0  2  0  0  3  0  0  0  0  0  0
   37.9550   30.8180   40.0830 C   0  0  2  0  0  3  0  0  0  0  0  0
   37.5620   31.9980   40.7750 O   0  0  0  0  0  0  0  0  0  0  0  0
   37.9310   33.0520   39.9460 C   0  0  0  0  0  2  0  0  0  0  0  0
   39.4030   32.9780   39.6930 C   0  0  1  0  0  3  0  0  0  0  0  0
   40.0520   31.9320   40.5810 C   0  0  1  0  0  3  0  0  0  0  0  0
   40.0070   30.0450   39.2120 O   0  0  0  0  0  0  0  0  0  0  0  0
   39.5490   30.2730   38.3720 H   0  0  0  0  0  0  0  0  0  0  0  0
   39.6240   32.6790   38.3580 O   0  0  0  0  0  0  0  0  0  0  0  0
   40.3500   33.2320   37.9550 H   0  0  0  0  0  0  0  0  0  0  0  0
   39.9220   32.2630   41.9150 O   0  0  0  0  0  0  0  0  0  0  0  0
   40.4780   31.7170   42.4940 H   0  0  0  0  0  0  0  0  0  0  0  0
  1 10  1  0  0  0  0
  2  1  2  0  0  0  0
  2  3  1  0  0  0  0
  3  4  2  0  0  0  0
  4  5  1  0  0  0  0
  4 13  1  0  0  0  0
  5  6  1  0  0  0  0
  6  7  2  0  0  0  0
  6 14  1  0  0  0  0
  7 15  1  0  0  0  0
  8 16  1  0  0  0  0
  8  7  1  0  0  0  0
  9  8  2  0  0  0  0
 10  9  1  0  0  0  0
 10  5  2  0  0  0  0
 11  2  1  0  0  0  0
 12  3  1  0  0  0  0
 17 22  1  0  0  0  0
 18 17  2  0  0  0  0
 18 19  1  0  0  0  0
 19 20  2  0  0  0  0
 20 21  1  0  0  0  0
 21  1  1  0  0  0  0
 22 21  2  0  0  0  0
 23 17  1  0  0  0  0
 24 19  1  0  0  0  0
 25 18  1  0  0  0  0
 26 25  1  0  0  0  0
 27 25  1  0  0  0  0
 28  9  1  0  0  0  0
 29 35  1  6  0  0  0
 29 34  1  0  0  0  0
 30 29  1  0  0  0  0
 30 28  1  1  0  0  0
 30 31  1  0  0  0  0
 32 31  1  0  0  0  0
 33 37  1  6  0  0  0
 33 32  1  0  0  0  0
 33 34  1  0  0  0  0
 34 39  1  1  0  0  0
 36 35  1  0  0  0  0
 38 37  1  0  0  0  0
 39 40  1  0  0  0  0
M  END
>  <minimizedAffinity>
-6.91938925

$$$$

 OpenBabel03242515583D

 40 43  0  0  1  0  0  0  0  0999 V2000
   38.3510   26.4690   40.2070 C   0  0  0  0  0  0  0  0  0  0  0  0
   38.1170   25.0760   40.1050 C   0  0  0  0  0  0  0  0  0  0  0  0
   37.4540   24.3500   41.0570 C   0  0  0  0  0  0  0  0  0  0  0  0
   36.9790   24.9410   42.1660 C   0  0  0  0  0  0  0  0  0  0  0  0
   37.1760   26.2940   42.3250 C   0  0  0  0  0  0  0  0  0  0  0  0
   36.6860   26.8770   43.4660 C   0  0  0  0  0  0  0  0  0  0  0  0
   36.8610   28.2320   43.6800 C   0  0  0  0  0  0  0  0  0  0  0  0
   37.5480   28.9380   42.6860 C   0  0  0  0  0  0  0  0  0  0  0  0
   37.9880   28.2900   41.6120 C   0  0  0  0  0  0  0  0  0  0  0  0
   37.8500   26.9990   41.3490 C   0  0  0  0  0  0  0  0  0  0  0  0
   38.4780   24.5500   39.2310 H   0  0  0  0  0  0  0  0  0  0  0  0
   37.3140   23.2860   40.9070 H   0  0  0  0  0  0  0  0  0  0  0  0
   36.4640   24.3410   42.8900 H   0  0  0  0  0  0  0  0  0  0  0  0
   36.1540   26.2170   44.1940 H   0  0  0  0  0  0  0  0  0  0  0  0
   36.4020   28.5340   44.6460 H   0  0  0  0  0  0  0  0  0  0  0  0
   37.5120   29.9300   43.1290 H   0  0  0  0  0  0  0  0  0  0  0  0
   41.1680   27.9820   38.5570 C   0  0  0  0  0  0  0  0  0  0  0  0
   40.5750   28.5130   37.3660 C   0  0  0  0  0  0  0  0  0  0  0  0
   39.1790   28.3530   37.1300 C   0  0  0  0  0  0  0  0  0  0  0  0
   38.4930   27.6960   38.0690 N   0  0  0  0  0  0  0  0  0  0  0  0
   39.0100   27.2070   39.1590 C   0  0  0  0  0  0  0  0  0  0  0  0
   40.3500   27.3540   39.3950 N   0  0  0  0  0  0  0  0  0  0  0  0
   42.2260   28.1190   38.7060 H   0  0  0  0  0  0  0  0  0  0  0  0
   38.8000   28.7680   36.2300 H   0  0  0  0  0  0  0  0  0  0  0  0
   41.4520   29.1840   36.4680 N   0  0  0  0  0  0  0  0  0  0  0  0
   41.2370   30.1450   36.0850 H   0  0  0  0  0  0  0  0  0  0  0  0
   42.3340   28.8150   36.1230 H   0  0  0  0  0  0  0  0  0  0  0  0
   38.6030   29.2270   40.8680 O   0  0  0  0  0  0  0  0  0  0  0  0
   36.9290   30.6450   39.7600 C   0  0  2  0  0  3  0  0  0  0  0  0
   38.2250   30.5120   40.4520 C   0  0  2  0  0  3  0  0  0  0  0  0
   39.2460   30.9800   39.5770 O   0  0  0  0  0  0  0  0  0  0  0  0
   39.2530   32.3630   39.7220 C   0  0  0  0  0  2  0  0  0  0  0  0
   37.8950   32.8930   39.3840 C   0  0  1  0  0  3  0  0  0  0  0  0
   37.0240   31.8040   38.7850 C   0  0  1  0  0  3  0  0  0  0  0  0
   35.9230   30.9820   40.6690 O   0  0  0  0  0  0  0  0  0  0  0  0
   36.2610   31.4510   41.4650 H   0  0  0  0  0  0  0  0  0  0  0  0
   37.3050   33.4070   40.5280 O   0  0  0  0  0  0  0  0  0  0  0  0
   36.8550   34.2820   40.3690 H   0  0  0  0  0  0  0  0  0  0  0  0
   37.5500   31.3450   37.5950 O   0  0  0  0  0  0  0  0  0  0  0  0
   36.9290   30.7850   37.1000 H   0  0  0  0  0  0  0  0  0  0  0  0
  1 10  1  0  0  0  0
  2  1  2  0  0  0  0
  2  3  1  0  0  0  0
  3  4  2  0  0  0  0
  4  5  1  0  0  0  0
  4 13  1  0  0  0  0
  5  6  1  0  0  0  0
  6  7  2  0  0  0  0
  6 14  1  0  0  0  0
  7 15  1  0  0  0  0
  8 16  1  0  0  0  0
  8  7  1  0  0  0  0
  9  8  2  0  0  0  0
 10  9  1  0  0  0  0
 10  5  2  0  0  0  0
 11  2  1  0  0  0  0
 12  3  1  0  0  0  0
 17 23  1  0  0  0  0
 17 22  1  0  0  0  0
 18 17  2  0  0  0  0
 19 18  1  0  0  0  0
 19 20  2  0  0  0  0
 20 21  1  0  0  0  0
 21 22  2  0  0  0  0
 21  1  1  0  0  0  0
 24 19  1  0  0  0  0
 25 18  1  0  0  0  0
 26 25  1  0  0  0  0
 27 25  1  0  0  0  0
 28  9  1  0  0  0  0
 29 30  1  0  0  0  0
 29 35  1  1  0  0  0
 30 28  1  6  0  0  0
 31 32  1  0  0  0  0
 31 30  1  0  0  0  0
 33 32  1  0  0  0  0
 33 37  1  1  0  0  0
 34 39  1  6  0  0  0
 34 33  1  0  0  0  0
 34 29  1  0  0  0  0
 35 36  1  0  0  0  0
 38 37  1  0  0  0  0
 40 39  1  0  0  0  0
M  END
>  <minimizedAffinity>
-6.80003023

$$$$

 OpenBabel03242515583D

 40 43  0  0  1  0  0  0  0  0999 V2000
   35.2330   28.6490   38.3650 C   0  0  0  0  0  0  0  0  0  0  0  0
   34.1050   28.8640   37.5380 C   0  0  0  0  0  0  0  0  0  0  0  0
   33.4710   27.8640   36.8510 C   0  0  0  0  0  0  0  0  0  0  0  0
   33.9010   26.5940   36.9310 C   0  0  0  0  0  0  0  0  0  0  0  0
   34.9960   26.3200   37.7190 C   0  0  0  0  0  0  0  0  0  0  0  0
   35.4200   25.0170   37.7840 C   0  0  0  0  0  0  0  0  0  0  0  0
   36.5180   24.6860   38.5560 C   0  0  0  0  0  0  0  0  0  0  0  0
   37.1420   25.7370   39.2390 C   0  0  0  0  0  0  0  0  0  0  0  0
   36.6620   26.9690   39.1170 C   0  0  0  0  0  0  0  0  0  0  0  0
   35.6150   27.3490   38.3990 C   0  0  0  0  0  0  0  0  0  0  0  0
   33.7160   29.8680   37.4380 H   0  0  0  0  0  0  0  0  0  0  0  0
   32.6120   28.1080   36.2370 H   0  0  0  0  0  0  0  0  0  0  0  0
   33.3780   25.8370   36.3800 H   0  0  0  0  0  0  0  0  0  0  0  0
   34.8480   24.2590   37.1970 H   0  0  0  0  0  0  0  0  0  0  0  0
   36.7190   23.5950   38.4960 H   0  0  0  0  0  0  0  0  0  0  0  0
   37.9270   25.1720   39.7360 H   0  0  0  0  0  0  0  0  0  0  0  0
   37.3770   31.5030   38.8170 C   0  0  0  0  0  0  0  0  0  0  0  0
   37.1410   31.8480   40.1870 C   0  0  0  0  0  0  0  0  0  0  0  0
   36.2330   31.0790   40.9730 C   0  0  0  0  0  0  0  0  0  0  0  0
   35.6430   30.0520   40.3550 N   0  0  0  0  0  0  0  0  0  0  0  0
   35.8420   29.7200   39.1130 C   0  0  0  0  0  0  0  0  0  0  0  0
   36.7120   30.4520   38.3500 N   0  0  0  0  0  0  0  0  0  0  0  0
   38.0690   32.1040   38.2520 H   0  0  0  0  0  0  0  0  0  0  0  0
   36.1010   31.3850   41.9800 H   0  0  0  0  0  0  0  0  0  0  0  0
   37.8530   32.9750   40.6880 N   0  0  0  0  0  0  0  0  0  0  0  0
   38.4020   32.9370   41.5900 H   0  0  0  0  0  0  0  0  0  0  0  0
   37.8970   33.8870   40.2410 H   0  0  0  0  0  0  0  0  0  0  0  0
   37.4710   27.7350   39.8710 O   0  0  0  0  0  0  0  0  0  0  0  0
   37.1840   27.5100   42.3020 C   0  0  2  0  0  3  0  0  0  0  0  0
   38.0720   27.5400   41.1240 C   0  0  2  0  0  3  0  0  0  0  0  0
   39.0100   28.5960   41.3010 O   0  0  0  0  0  0  0  0  0  0  0  0
   40.0130   28.0680   42.1060 C   0  0  0  0  0  2  0  0  0  0  0  0
   39.4070   27.5950   43.3890 C   0  0  1  0  0  3  0  0  0  0  0  0
   37.9580   28.0340   43.4970 C   0  0  1  0  0  3  0  0  0  0  0  0
   36.8320   26.1940   42.6130 O   0  0  0  0  0  0  0  0  0  0  0  0
   37.4930   25.5330   42.3080 H   0  0  0  0  0  0  0  0  0  0  0  0
   39.4960   26.2130   43.4560 O   0  0  0  0  0  0  0  0  0  0  0  0
   39.7870   25.8890   44.3530 H   0  0  0  0  0  0  0  0  0  0  0  0
   37.8580   29.4110   43.5250 O   0  0  0  0  0  0  0  0  0  0  0  0
   36.9710   29.7180   43.7750 H   0  0  0  0  0  0  0  0  0  0  0  0
  1 10  1  0  0  0  0
  1 21  1  0  0  0  0
  2  1  2  0  0  0  0
  3  4  2  0  0  0  0
  3  2  1  0  0  0  0
  4  5  1  0  0  0  0
  5  6  2  0  0  0  0
  5 10  1  0  0  0  0
  6  7  1  0  0  0  0
  7  8  2  0  0  0  0
  8 16  1  0  0  0  0
  9  8  1  0  0  0  0
  9 28  1  0  0  0  0
 10  9  2  0  0  0  0
 11  2  1  0  0  0  0
 12  3  1  0  0  0  0
 13  4  1  0  0  0  0
 14  6  1  0  0  0  0
 15  7  1  0  0  0  0
 17 18  1  0  0  0  0
 18 25  1  0  0  0  0
 18 19  2  0  0  0  0
 19 24  1  0  0  0  0
 20 19  1  0  0  0  0
 21 20  2  0  0  0  0
 22 17  2  0  0  0  0
 22 21  1  0  0  0  0
 23 17  1  0  0  0  0
 25 26  1  0  0  0  0
 27 25  1  0  0  0  0
 29 35  1  1  0  0  0
 29 34  1  0  0  0  0
 30 28  1  6  0  0  0
 30 31  1  0  0  0  0
 30 29  1  0  0  0  0
 31 32  1  0  0  0  0
 32 33  1  0  0  0  0
 33 37  1  6  0  0  0
 33 34  1  0  0  0  0
 34 39  1  6  0  0  0
 36 35  1  0  0  0  0
 37 38  1  0  0  0  0
 39 40  1  0  0  0  0
M  END
>  <minimizedAffinity>
-6.64054108

$$$$

 OpenBabel03242515583D

 40 43  0  0  1  0  0  0  0  0999 V2000
   37.1500   30.1000   37.1570 C   0  0  0  0  0  0  0  0  0  0  0  0
   36.8660   30.6080   35.8670 C   0  0  0  0  0  0  0  0  0  0  0  0
   36.1480   29.9210   34.9260 C   0  0  0  0  0  0  0  0  0  0  0  0
   35.6630   28.6960   35.1890 C   0  0  0  0  0  0  0  0  0  0  0  0
   35.9070   28.1460   36.4270 C   0  0  0  0  0  0  0  0  0  0  0  0
   35.4050   26.8930   36.6750 C   0  0  0  0  0  0  0  0  0  0  0  0
   35.6240   26.2910   37.9000 C   0  0  0  0  0  0  0  0  0  0  0  0
   36.3670   27.0240   38.8330 C   0  0  0  0  0  0  0  0  0  0  0  0
   36.8140   28.2310   38.5070 C   0  0  0  0  0  0  0  0  0  0  0  0
   36.6350   28.8620   37.3550 C   0  0  0  0  0  0  0  0  0  0  0  0
   37.2330   31.5910   35.6020 H   0  0  0  0  0  0  0  0  0  0  0  0
   35.9720   30.3770   33.9590 H   0  0  0  0  0  0  0  0  0  0  0  0
   35.1040   28.1880   34.4280 H   0  0  0  0  0  0  0  0  0  0  0  0
   34.8270   26.3990   35.8570 H   0  0  0  0  0  0  0  0  0  0  0  0
   35.1490   25.2870   37.9290 H   0  0  0  0  0  0  0  0  0  0  0  0
   36.3550   26.3110   39.6540 H   0  0  0  0  0  0  0  0  0  0  0  0
   37.4750   32.5320   39.7890 C   0  0  0  0  0  0  0  0  0  0  0  0
   38.8720   32.4660   40.0950 C   0  0  0  0  0  0  0  0  0  0  0  0
   39.7210   31.5730   39.3770 C   0  0  0  0  0  0  0  0  0  0  0  0
   39.1330   30.8320   38.4340 N   0  0  0  0  0  0  0  0  0  0  0  0
   37.8660   30.8760   38.1380 C   0  0  0  0  0  0  0  0  0  0  0  0
   37.0430   31.7300   38.8220 N   0  0  0  0  0  0  0  0  0  0  0  0
   36.8610   33.2170   40.3500 H   0  0  0  0  0  0  0  0  0  0  0  0
   40.7460   31.5700   39.6510 H   0  0  0  0  0  0  0  0  0  0  0  0
   39.3350   33.3240   41.1320 N   0  0  0  0  0  0  0  0  0  0  0  0
   40.1740   33.9550   41.0090 H   0  0  0  0  0  0  0  0  0  0  0  0
   38.9160   33.4080   42.0550 H   0  0  0  0  0  0  0  0  0  0  0  0
   37.4860   28.6600   39.5910 O   0  0  0  0  0  0  0  0  0  0  0  0
   37.5530   29.5330   41.8870 C   0  0  2  0  0  3  0  0  0  0  0  0
   37.3430   28.4030   40.9630 C   0  0  2  0  0  3  0  0  0  0  0  0
   38.2780   27.3800   41.2900 O   0  0  0  0  0  0  0  0  0  0  0  0
   37.7060   26.6840   42.3510 C   0  0  0  0  0  2  0  0  0  0  0  0
   37.4530   27.6370   43.4760 C   0  0  1  0  0  3  0  0  0  0  0  0
   38.0910   28.9850   43.1960 C   0  0  1  0  0  3  0  0  0  0  0  0
   36.3350   30.1460   42.1920 O   0  0  0  0  0  0  0  0  0  0  0  0
   35.5640   29.5420   42.1040 H   0  0  0  0  0  0  0  0  0  0  0  0
   36.0870   27.7790   43.6570 O   0  0  0  0  0  0  0  0  0  0  0  0
   35.8210   27.7580   44.6180 H   0  0  0  0  0  0  0  0  0  0  0  0
   39.4640   28.8770   43.1050 O   0  0  0  0  0  0  0  0  0  0  0  0
   39.9100   29.7390   43.1090 H   0  0  0  0  0  0  0  0  0  0  0  0
  1 10  1  0  0  0  0
  1 21  1  0  0  0  0
  2  1  2  0  0  0  0
  3  4  2  0  0  0  0
  3  2  1  0  0  0  0
  4  5  1  0  0  0  0
  5  6  2  0  0  0  0
  5 10  1  0  0  0  0
  6  7  1  0  0  0  0
  7 15  1  0  0  0  0
  7  8  2  0  0  0  0
  8 16  1  0  0  0  0
  9  8  1  0  0  0  0
  9 28  1  0  0  0  0
 10  9  2  0  0  0  0
 11  2  1  0  0  0  0
 12  3  1  0  0  0  0
 13  4  1  0  0  0  0
 14  6  1  0  0  0  0
 17 18  1  0  0  0  0
 17 23  1  0  0  0  0
 18 25  1  0  0  0  0
 19 24  1  0  0  0  0
 19 18  2  0  0  0  0
 20 19  1  0  0  0  0
 21 20  2  0  0  0  0
 21 22  1  0  0  0  0
 22 17  2  0  0  0  0
 25 27  1  0  0  0  0
 26 25  1  0  0  0  0
 29 35  1  1  0  0  0
 29 34  1  0  0  0  0
 30 28  1  6  0  0  0
 30 31  1  0  0  0  0
 30 29  1  0  0  0  0
 31 32  1  0  0  0  0
 32 33  1  0  0  0  0
 33 37  1  6  0  0  0
 34 39  1  6  0  0  0
 34 33  1  0  0  0  0
 36 35  1  0  0  0  0
 37 38  1  0  0  0  0
 39 40  1  0  0  0  0
M  END
>  <minimizedAffinity>
-6.43647432

$$$$

 OpenBabel03242515583D

 40 43  0  0  1  0  0  0  0  0999 V2000
   38.1840   29.0500   41.2570 C   0  0  0  0  0  0  0  0  0  0  0  0
   38.1350   29.6050   42.5590 C   0  0  0  0  0  0  0  0  0  0  0  0
   37.7210   28.9080   43.6610 C   0  0  0  0  0  0  0  0  0  0  0  0
   37.3310   27.6270   43.5590 C   0  0  0  0  0  0  0  0  0  0  0  0
   37.3550   27.0300   42.3190 C   0  0  0  0  0  0  0  0  0  0  0  0
   36.9490   25.7220   42.2360 C   0  0  0  0  0  0  0  0  0  0  0  0
   36.9480   25.0750   41.0130 C   0  0  0  0  0  0  0  0  0  0  0  0
   37.3730   25.8230   39.9100 C   0  0  0  0  0  0  0  0  0  0  0  0
   37.7490   27.0860   40.0840 C   0  0  0  0  0  0  0  0  0  0  0  0
   37.7750   27.7580   41.2250 C   0  0  0  0  0  0  0  0  0  0  0  0
   38.4390   30.6340   42.6980 H   0  0  0  0  0  0  0  0  0  0  0  0
   37.7110   29.4020   44.6250 H   0  0  0  0  0  0  0  0  0  0  0  0
   37.0140   27.1110   44.4450 H   0  0  0  0  0  0  0  0  0  0  0  0
   36.6290   25.2210   43.1810 H   0  0  0  0  0  0  0  0  0  0  0  0
   36.5950   24.0280   41.1300 H   0  0  0  0  0  0  0  0  0  0  0  0
   37.2670   25.0620   39.1400 H   0  0  0  0  0  0  0  0  0  0  0  0
   37.9660   31.4850   38.6170 C   0  0  0  0  0  0  0  0  0  0  0  0
   39.2690   31.4140   38.0270 C   0  0  0  0  0  0  0  0  0  0  0  0
   40.2390   30.5050   38.5430 C   0  0  0  0  0  0  0  0  0  0  0  0
   39.8530   29.7550   39.5780 N   0  0  0  0  0  0  0  0  0  0  0  0
   38.6740   29.8020   40.1290 C   0  0  0  0  0  0  0  0  0  0  0  0
   37.7360   30.6710   39.6420 N   0  0  0  0  0  0  0  0  0  0  0  0
   37.2570   32.1820   38.2040 H   0  0  0  0  0  0  0  0  0  0  0  0
   41.1860   30.5000   38.0630 H   0  0  0  0  0  0  0  0  0  0  0  0
   39.5170   32.2860   36.9300 N   0  0  0  0  0  0  0  0  0  0  0  0
   39.9240   31.9410   36.0180 H   0  0  0  0  0  0  0  0  0  0  0  0
   39.3310   33.2860   36.9220 H   0  0  0  0  0  0  0  0  0  0  0  0
   38.0830   27.5230   38.8560 O   0  0  0  0  0  0  0  0  0  0  0  0
   38.1970   27.8470   36.4220 C   0  0  2  0  0  3  0  0  0  0  0  0
   37.4130   27.5040   37.6230 C   0  0  2  0  0  3  0  0  0  0  0  0
   36.3320   28.4240   37.7260 O   0  0  0  0  0  0  0  0  0  0  0  0
   35.3450   27.9310   36.8790 C   0  0  0  0  0  2  0  0  0  0  0  0
   35.9020   27.8260   35.4950 C   0  0  1  0  0  3  0  0  0  0  0  0
   37.2660   28.4860   35.4090 C   0  0  1  0  0  3  0  0  0  0  0  0
   38.6950   26.6890   35.8170 O   0  0  0  0  0  0  0  0  0  0  0  0
   38.1540   25.8900   36.0070 H   0  0  0  0  0  0  0  0  0  0  0  0
   35.9910   26.4900   35.1370 O   0  0  0  0  0  0  0  0  0  0  0  0
   35.6740   26.3180   34.2070 H   0  0  0  0  0  0  0  0  0  0  0  0
   37.1800   29.8380   35.6730 O   0  0  0  0  0  0  0  0  0  0  0  0
   37.9950   30.3180   35.4490 H   0  0  0  0  0  0  0  0  0  0  0  0
  1  2  1  0  0  0  0
  2 11  1  0  0  0  0
  2  3  2  0  0  0  0
  3 12  1  0  0  0  0
  4  3  1  0  0  0  0
  4 13  1  0  0  0  0
  5  4  2  0  0  0  0
  6  5  1  0  0  0  0
  6 14  1  0  0  0  0
  7 15  1  0  0  0  0
  7  6  2  0  0  0  0
  8  9  2  0  0  0  0
  8  7  1  0  0  0  0
  9 10  1  0  0  0  0
 10  1  2  0  0  0  0
 10  5  1  0  0  0  0
 16  8  1  0  0  0  0
 17 22  1  0  0  0  0
 18 19  1  0  0  0  0
 18 17  2  0  0  0  0
 19 20  2  0  0  0  0
 20 21  1  0  0  0  0
 21  1  1  0  0  0  0
 22 21  2  0  0  0  0
 23 17  1  0  0  0  0
 24 19  1  0  0  0  0
 25 18  1  0  0  0  0
 26 25  1  0  0  0  0
 27 25  1  0  0  0  0
 28  9  1  0  0  0  0
 29 35  1  6  0  0  0
 29 30  1  0  0  0  0
 30 31  1  0  0  0  0
 30 28  1  1  0  0  0
 32 31  1  0  0  0  0
 33 37  1  1  0  0  0
 33 32  1  0  0  0  0
 34 33  1  0  0  0  0
 34 39  1  1  0  0  0
 34 29  1  0  0  0  0
 35 36  1  0  0  0  0
 38 37  1  0  0  0  0
 40 39  1  0  0  0  0
M  END
>  <minimizedAffinity>
-6.43139982

$$$$

 OpenBabel03242515583D

 40 43  0  0  1  0  0  0  0  0999 V2000
   34.8200   29.0200   38.2920 C   0  0  0  0  0  0  0  0  0  0  0  0
   33.4040   29.0210   38.2590 C   0  0  0  0  0  0  0  0  0  0  0  0
   32.6770   29.0370   37.1000 C   0  0  0  0  0  0  0  0  0  0  0  0
   33.2870   29.0510   35.9030 C   0  0  0  0  0  0  0  0  0  0  0  0
   34.6630   29.0520   35.8690 C   0  0  0  0  0  0  0  0  0  0  0  0
   35.2670   29.0690   34.6370 C   0  0  0  0  0  0  0  0  0  0  0  0
   36.6470   29.0760   34.5440 C   0  0  0  0  0  0  0  0  0  0  0  0
   37.3550   29.0650   35.7510 C   0  0  0  0  0  0  0  0  0  0  0  0
   36.6860   29.0480   36.8990 C   0  0  0  0  0  0  0  0  0  0  0  0
   35.3710   29.0370   37.0530 C   0  0  0  0  0  0  0  0  0  0  0  0
   32.8620   29.0100   39.1940 H   0  0  0  0  0  0  0  0  0  0  0  0
   31.5950   29.0370   37.1560 H   0  0  0  0  0  0  0  0  0  0  0  0
   32.6850   29.0610   35.0160 H   0  0  0  0  0  0  0  0  0  0  0  0
   34.6040   29.0780   33.7380 H   0  0  0  0  0  0  0  0  0  0  0  0
   36.9630   29.0880   33.4790 H   0  0  0  0  0  0  0  0  0  0  0  0
   38.3670   29.0660   35.3520 H   0  0  0  0  0  0  0  0  0  0  0  0
   36.2400   30.3530   41.3170 C   0  0  0  0  0  0  0  0  0  0  0  0
   36.8220   29.1900   41.9190 C   0  0  0  0  0  0  0  0  0  0  0  0
   36.7310   27.9250   41.2680 C   0  0  0  0  0  0  0  0  0  0  0  0
   36.0850   27.9100   40.0980 N   0  0  0  0  0  0  0  0  0  0  0  0
   35.5500   28.9520   39.5330 C   0  0  0  0  0  0  0  0  0  0  0  0
   35.6320   30.1710   40.1500 N   0  0  0  0  0  0  0  0  0  0  0  0
   36.3270   31.2920   41.8350 H   0  0  0  0  0  0  0  0  0  0  0  0
   37.1810   27.1030   41.7640 H   0  0  0  0  0  0  0  0  0  0  0  0
   37.4730   29.3830   43.1700 N   0  0  0  0  0  0  0  0  0  0  0  0
   38.4510   29.0290   43.3560 H   0  0  0  0  0  0  0  0  0  0  0  0
   37.0720   29.8630   43.9720 H   0  0  0  0  0  0  0  0  0  0  0  0
   37.6330   29.0530   37.8540 O   0  0  0  0  0  0  0  0  0  0  0  0
   38.2730   31.4260   37.8460 C   0  0  2  0  0  3  0  0  0  0  0  0
   38.4810   30.0550   38.3500 C   0  0  2  0  0  3  0  0  0  0  0  0
   39.8120   29.6620   38.0360 O   0  0  0  0  0  0  0  0  0  0  0  0
   40.6050   30.2060   39.0420 C   0  0  0  0  0  2  0  0  0  0  0  0
   40.4150   31.6900   39.0600 C   0  0  1  0  0  3  0  0  0  0  0  0
   39.6090   32.1470   37.8580 C   0  0  1  0  0  3  0  0  0  0  0  0
   37.4370   32.1410   38.7070 O   0  0  0  0  0  0  0  0  0  0  0  0
   37.4580   31.8090   39.6330 H   0  0  0  0  0  0  0  0  0  0  0  0
   39.7760   32.0550   40.2350 O   0  0  0  0  0  0  0  0  0  0  0  0
   40.1810   32.8620   40.6590 H   0  0  0  0  0  0  0  0  0  0  0  0
   40.2750   31.8730   36.6810 O   0  0  0  0  0  0  0  0  0  0  0  0
   39.8760   32.3120   35.9120 H   0  0  0  0  0  0  0  0  0  0  0  0
  1 21  1  0  0  0  0
  2  1  1  0  0  0  0
  2 11  1  0  0  0  0
  3 12  1  0  0  0  0
  3  2  2  0  0  0  0
  4  3  1  0  0  0  0
  5  4  2  0  0  0  0
  5 10  1  0  0  0  0
  6  5  1  0  0  0  0
  7  6  2  0  0  0  0
  7  8  1  0  0  0  0
  8  9  2  0  0  0  0
  9 10  1  0  0  0  0
  9 28  1  0  0  0  0
 10  1  2  0  0  0  0
 13  4  1  0  0  0  0
 14  6  1  0  0  0  0
 15  7  1  0  0  0  0
 16  8  1  0  0  0  0
 17 23  1  0  0  0  0
 17 18  1  0  0  0  0
 18 25  1  0  0  0  0
 19 24  1  0  0  0  0
 19 18  2  0  0  0  0
 20 19  1  0  0  0  0
 21 20  2  0  0  0  0
 21 22  1  0  0  0  0
 22 17  2  0  0  0  0
 25 26  1  0  0  0  0
 25 27  1  0  0  0  0
 29 34  1  0  0  0  0
 29 30  1  0  0  0  0
 29 35  1  1  0  0  0
 30 28  1  6  0  0  0
 31 30  1  0  0  0  0
 31 32  1  0  0  0  0
 32 33  1  0  0  0  0
 33 37  1  1  0  0  0
 34 39  1  6  0  0  0
 34 33  1  0  0  0  0
 35 36  1  0  0  0  0
 37 38  1  0  0  0  0
 40 39  1  0  0  0  0
M  END
>  <minimizedAffinity>
-6.34118938

$$$$

 OpenBabel03242515583D

 40 43  0  0  1  0  0  0  0  0999 V2000
   37.7530   24.8990   38.5410 C   0  0  0  0  0  0  0  0  0  0  0  0
   37.8700   23.5340   38.1850 C   0  0  0  0  0  0  0  0  0  0  0  0
   37.7660   22.5080   39.0850 C   0  0  0  0  0  0  0  0  0  0  0  0
   37.5420   22.7540   40.3860 C   0  0  0  0  0  0  0  0  0  0  0  0
   37.4200   24.0620   40.7960 C   0  0  0  0  0  0  0  0  0  0  0  0
   37.1940   24.2920   42.1290 C   0  0  0  0  0  0  0  0  0  0  0  0
   37.0690   25.5870   42.5970 C   0  0  0  0  0  0  0  0  0  0  0  0
   37.1870   26.6080   41.6460 C   0  0  0  0  0  0  0  0  0  0  0  0
   37.4060   26.2930   40.3750 C   0  0  0  0  0  0  0  0  0  0  0  0
   37.5310   25.0760   39.8660 C   0  0  0  0  0  0  0  0  0  0  0  0
   38.0500   23.2790   37.1490 H   0  0  0  0  0  0  0  0  0  0  0  0
   37.8670   21.4870   38.7360 H   0  0  0  0  0  0  0  0  0  0  0  0
   37.4650   21.9250   41.0620 H   0  0  0  0  0  0  0  0  0  0  0  0
   37.1190   23.4010   42.8000 H   0  0  0  0  0  0  0  0  0  0  0  0
   36.8890   25.5880   43.6930 H   0  0  0  0  0  0  0  0  0  0  0  0
   37.0400   27.4640   42.3010 H   0  0  0  0  0  0  0  0  0  0  0  0
   36.4130   27.1130   36.0400 C   0  0  0  0  0  0  0  0  0  0  0  0
   37.5590   27.8900   35.6750 C   0  0  0  0  0  0  0  0  0  0  0  0
   38.8190   27.6440   36.2960 C   0  0  0  0  0  0  0  0  0  0  0  0
   38.8460   26.6680   37.2090 N   0  0  0  0  0  0  0  0  0  0  0  0
   37.8180   25.9490   37.5550 C   0  0  0  0  0  0  0  0  0  0  0  0
   36.6040   26.1780   36.9650 N   0  0  0  0  0  0  0  0  0  0  0  0
   35.4770   27.3250   35.5530 H   0  0  0  0  0  0  0  0  0  0  0  0
   39.6290   28.2530   35.9830 H   0  0  0  0  0  0  0  0  0  0  0  0
   37.3560   28.8930   34.6850 N   0  0  0  0  0  0  0  0  0  0  0  0
   37.9790   28.9810   33.8370 H   0  0  0  0  0  0  0  0  0  0  0  0
   36.6170   29.5920   34.7020 H   0  0  0  0  0  0  0  0  0  0  0  0
   37.4790   27.4720   39.7300 O   0  0  0  0  0  0  0  0  0  0  0  0
   36.1780   29.4580   39.0950 C   0  0  2  0  0  3  0  0  0  0  0  0
   37.0510   28.7660   40.0620 C   0  0  2  0  0  3  0  0  0  0  0  0
   38.2220   29.5540   40.2470 O   0  0  0  0  0  0  0  0  0  0  0  0
   37.8720   30.5240   41.1800 C   0  0  0  0  0  2  0  0  0  0  0  0
   36.7100   31.3060   40.6540 C   0  0  1  0  0  3  0  0  0  0  0  0
   36.4310   30.9500   39.2050 C   0  0  1  0  0  3  0  0  0  0  0  0
   34.8340   29.2650   39.4250 O   0  0  0  0  0  0  0  0  0  0  0  0
   34.6920   29.0840   40.3820 H   0  0  0  0  0  0  0  0  0  0  0  0
   35.5950   31.0510   41.4360 O   0  0  0  0  0  0  0  0  0  0  0  0
   35.0810   31.8780   41.6540 H   0  0  0  0  0  0  0  0  0  0  0  0
   37.4980   31.2840   38.3970 O   0  0  0  0  0  0  0  0  0  0  0  0
   37.2830   31.2390   37.4510 H   0  0  0  0  0  0  0  0  0  0  0  0
  1 10  1  0  0  0  0
  2  1  2  0  0  0  0
  2  3  1  0  0  0  0
  3  4  2  0  0  0  0
  4  5  1  0  0  0  0
  4 13  1  0  0  0  0
  5  6  1  0  0  0  0
  6  7  2  0  0  0  0
  6 14  1  0  0  0  0
  7 15  1  0  0  0  0
  8 16  1  0  0  0  0
  8  7  1  0  0  0  0
  9  8  2  0  0  0  0
 10  9  1  0  0  0  0
 10  5  2  0  0  0  0
 11  2  1  0  0  0  0
 12  3  1  0  0  0  0
 17 22  1  0  0  0  0
 18 17  2  0  0  0  0
 18 19  1  0  0  0  0
 19 20  2  0  0  0  0
 20 21  1  0  0  0  0
 21  1  1  0  0  0  0
 22 21  2  0  0  0  0
 23 17  1  0  0  0  0
 24 19  1  0  0  0  0
 25 27  1  0  0  0  0
 25 18  1  0  0  0  0
 26 25  1  0  0  0  0
 28  9  1  0  0  0  0
 29 34  1  0  0  0  0
 29 35  1  1  0  0  0
 29 30  1  0  0  0  0
 30 28  1  6  0  0  0
 30 31  1  0  0  0  0
 31 32  1  0  0  0  0
 33 32  1  0  0  0  0
 33 37  1  1  0  0  0
 34 39  1  6  0  0  0
 34 33  1  0  0  0  0
 35 36  1  0  0  0  0
 37 38  1  0  0  0  0
 40 39  1  0  0  0  0
M  END
>  <minimizedAffinity>
-6.31182432

$$$$
