
 OpenBabel03252509003D

 48 50  0  0  1  0  0  0  0  0999 V2000
   46.6120   34.5740   43.5650 N   0  0  0  0  0  0  0  0  0  0  0  0
   46.1040   35.5780   42.7000 C   0  0  0  0  0  0  0  0  0  0  0  0
   44.5990   35.7330   42.7050 C   0  0  0  0  0  0  0  0  0  0  0  0
   43.9480   35.4440   44.0250 C   0  0  0  0  0  0  0  0  0  0  0  0
   44.9690   35.1620   45.1010 C   0  0  0  0  0  0  0  0  0  0  0  0
   45.7970   33.9670   44.5070 C   0  0  2  0  0  0  0  0  0  0  0  0
   46.4080   35.5110   41.6520 H   0  0  0  0  0  0  0  0  0  0  0  0
   46.5150   36.5660   43.0610 H   0  0  0  0  0  0  0  0  0  0  0  0
   44.1680   35.1230   41.8740 H   0  0  0  0  0  0  0  0  0  0  0  0
   44.3430   36.7850   42.4200 H   0  0  0  0  0  0  0  0  0  0  0  0
   43.2270   36.2400   44.3310 H   0  0  0  0  0  0  0  0  0  0  0  0
   43.3470   34.5170   43.9110 H   0  0  0  0  0  0  0  0  0  0  0  0
   45.6320   35.9990   45.3300 H   0  0  0  0  0  0  0  0  0  0  0  0
   44.4260   34.7290   45.9530 H   0  0  0  0  0  0  0  0  0  0  0  0
   45.0410   33.2350   44.1710 H   0  0  0  0  0  0  0  0  0  0  0  0
   47.7150   33.8350   43.0240 C   0  0  0  0  0  0  0  0  0  0  0  0
   48.3960   34.5380   42.5290 H   0  0  0  0  0  0  0  0  0  0  0  0
   48.2540   33.3700   43.8870 H   0  0  0  0  0  0  0  0  0  0  0  0
   47.1820   32.7370   42.1560 C   0  0  0  0  0  0  0  0  0  0  0  0
   46.0810   32.8230   42.0460 H   0  0  0  0  0  0  0  0  0  0  0  0
   47.3770   31.7360   42.5410 H   0  0  0  0  0  0  0  0  0  0  0  0
   49.0720   31.9960   38.9960 C   0  0  0  0  0  0  0  0  0  0  0  0
   48.5350   31.8710   40.2910 C   0  0  0  0  0  0  0  0  0  0  0  0
   47.7440   32.8810   40.7860 C   0  0  0  0  0  0  0  0  0  0  0  0
   47.5250   33.9460   39.9980 N   0  0  0  0  0  0  0  0  0  0  0  0
   48.0450   34.0510   38.7650 C   0  0  0  0  0  0  0  0  0  0  0  0
   48.8160   33.0900   38.2530 N   0  0  0  0  0  0  0  0  0  0  0  0
   49.6760   31.1640   38.6890 H   0  0  0  0  0  0  0  0  0  0  0  0
   48.7320   30.9980   40.8990 H   0  0  0  0  0  0  0  0  0  0  0  0
   47.7760   34.9730   38.2520 H   0  0  0  0  0  0  0  0  0  0  0  0
   46.5210   33.5460   45.6170 O   0  0  0  0  0  0  0  0  0  0  0  0
   45.5940   31.1770   44.8520 O   0  0  0  0  0  0  0  0  0  0  0  0
   46.2190   31.9380   46.0140 P   0  0  2  0  0  0  0  0  0  0  0  0
   45.0110   31.9710   47.2260 O   0  0  0  0  0  0  0  0  0  0  0  0
   44.1140   31.9640   46.8040 H   0  0  0  0  0  0  0  0  0  0  0  0
   47.5460   31.1580   46.6450 O   0  0  0  0  0  0  0  0  0  0  0  0
   47.5760   29.0010   47.5590 C   0  0  2  0  0  3  0  0  0  0  0  0
   47.6680   29.8320   46.2810 C   0  0  2  0  0  3  0  0  0  0  0  0
   48.9080   29.6620   45.6650 O   0  0  0  0  0  0  0  0  0  0  0  0
   49.2360   28.3140   45.5540 C   0  0  0  0  0  2  0  0  0  0  0  0
   49.5010   27.6680   46.8910 C   0  0  1  0  0  3  0  0  0  0  0  0
   48.9810   28.6200   47.9610 C   0  0  1  0  0  3  0  0  0  0  0  0
   46.7910   27.8710   47.2770 O   0  0  0  0  0  0  0  0  0  0  0  0
   46.3870   27.9350   46.3570 H   0  0  0  0  0  0  0  0  0  0  0  0
   48.8120   26.4460   47.0050 O   0  0  0  0  0  0  0  0  0  0  0  0
   48.7640   26.2740   47.9810 H   0  0  0  0  0  0  0  0  0  0  0  0
   49.7780   29.7690   47.8500 O   0  0  0  0  0  0  0  0  0  0  0  0
   50.0640   30.1070   48.7360 H   0  0  0  0  0  0  0  0  0  0  0  0
  1  6  1  0  0  0  0
  2  3  1  0  0  0  0
  2  8  1  0  0  0  0
  2  1  1  0  0  0  0
  3  4  1  0  0  0  0
  4 11  1  0  0  0  0
  4  5  1  0  0  0  0
  5 13  1  0  0  0  0
  5 14  1  0  0  0  0
  6 15  1  6  0  0  0
  6  5  1  0  0  0  0
  6 31  1  0  0  0  0
  7  2  1  0  0  0  0
  9  3  1  0  0  0  0
 10  3  1  0  0  0  0
 12  4  1  0  0  0  0
 16  1  1  0  0  0  0
 16 18  1  0  0  0  0
 17 16  1  0  0  0  0
 19 21  1  0  0  0  0
 19 16  1  0  0  0  0
 20 19  1  0  0  0  0
 22 23  1  0  0  0  0
 23 24  2  0  0  0  0
 23 29  1  0  0  0  0
 24 19  1  0  0  0  0
 25 24  1  0  0  0  0
 26 25  2  0  0  0  0
 27 26  1  0  0  0  0
 27 22  2  0  0  0  0
 28 22  1  0  0  0  0
 30 26  1  0  0  0  0
 31 33  1  0  0  0  0
 33 32  2  6  0  0  0
 33 36  1  0  0  0  0
 33 34  1  0  0  0  0
 35 34  1  0  0  0  0
 37 43  1  6  0  0  0
 37 42  1  0  0  0  0
 38 36  1  1  0  0  0
 38 37  1  0  0  0  0
 39 38  1  0  0  0  0
 40 39  1  0  0  0  0
 40 41  1  0  0  0  0
 41 45  1  6  0  0  0
 41 42  1  0  0  0  0
 42 47  1  6  0  0  0
 44 43  1  0  0  0  0
 45 46  1  0  0  0  0
 47 48  1  0  0  0  0
M  END
>  <minimizedAffinity>
-4.46335602

>  <minimizedRMSD>
1.78320992

$$$$
