
 OpenBabel03252509003D

 48 50  0  0  1  0  0  0  0  0999 V2000
   46.7480   34.3970   43.5320 N   0  0  0  0  0  0  0  0  0  0  0  0
   46.4910   35.0130   42.2790 C   0  0  0  0  0  0  0  0  0  0  0  0
   45.0300   35.1160   41.8990 C   0  0  0  0  0  0  0  0  0  0  0  0
   44.0950   35.2960   43.0580 C   0  0  0  0  0  0  0  0  0  0  0  0
   44.8450   35.4450   44.3600 C   0  0  0  0  0  0  0  0  0  0  0  0
   45.7190   34.1410   44.4230 C   0  0  2  0  0  0  0  0  0  0  0  0
   47.0100   34.5870   41.4170 H   0  0  0  0  0  0  0  0  0  0  0  0
   46.8650   36.0760   42.3490 H   0  0  0  0  0  0  0  0  0  0  0  0
   44.7580   34.2370   41.2630 H   0  0  0  0  0  0  0  0  0  0  0  0
   44.8970   35.9900   41.2110 H   0  0  0  0  0  0  0  0  0  0  0  0
   43.3680   36.1270   42.8960 H   0  0  0  0  0  0  0  0  0  0  0  0
   43.4870   34.3720   43.1480 H   0  0  0  0  0  0  0  0  0  0  0  0
   45.4850   36.3270   44.4190 H   0  0  0  0  0  0  0  0  0  0  0  0
   44.1090   35.3270   45.1680 H   0  0  0  0  0  0  0  0  0  0  0  0
   45.0170   33.3150   44.2100 H   0  0  0  0  0  0  0  0  0  0  0  0
   47.9020   33.5470   43.5430 C   0  0  0  0  0  0  0  0  0  0  0  0
   48.7790   34.1450   43.2670 H   0  0  0  0  0  0  0  0  0  0  0  0
   48.0360   33.1890   44.5950 H   0  0  0  0  0  0  0  0  0  0  0  0
   47.6350   32.3580   42.6730 C   0  0  0  0  0  0  0  0  0  0  0  0
   46.7800   32.5540   41.9930 H   0  0  0  0  0  0  0  0  0  0  0  0
   47.3880   31.4510   43.2260 H   0  0  0  0  0  0  0  0  0  0  0  0
   51.1860   32.2030   41.4580 C   0  0  0  0  0  0  0  0  0  0  0  0
   50.0640   32.4220   42.2790 C   0  0  0  0  0  0  0  0  0  0  0  0
   48.8120   32.1210   41.7950 C   0  0  0  0  0  0  0  0  0  0  0  0
   48.7280   31.6290   40.5490 N   0  0  0  0  0  0  0  0  0  0  0  0
   49.8060   31.4250   39.7770 C   0  0  0  0  0  0  0  0  0  0  0  0
   51.0360   31.7060   40.2160 N   0  0  0  0  0  0  0  0  0  0  0  0
   52.1220   32.4640   41.9140 H   0  0  0  0  0  0  0  0  0  0  0  0
   50.1700   32.8200   43.2800 H   0  0  0  0  0  0  0  0  0  0  0  0
   49.5740   31.0210   38.7940 H   0  0  0  0  0  0  0  0  0  0  0  0
   46.1630   34.1640   45.7410 O   0  0  0  0  0  0  0  0  0  0  0  0
   45.6150   31.5740   45.5170 O   0  0  0  0  0  0  0  0  0  0  0  0
   46.0140   32.6680   46.5000 P   0  0  2  0  0  0  0  0  0  0  0  0
   44.6850   32.8130   47.5700 O   0  0  0  0  0  0  0  0  0  0  0  0
   43.8470   32.5790   47.0950 H   0  0  0  0  0  0  0  0  0  0  0  0
   47.3470   32.2550   47.4030 O   0  0  0  0  0  0  0  0  0  0  0  0
   48.6590   30.4620   48.1470 C   0  0  2  0  0  0  0  0  0  0  0  0
   47.2490   31.0490   48.0670 C   0  0  2  0  0  0  0  0  0  0  0  0
   46.4050   30.2150   47.3360 O   0  0  0  0  0  0  0  0  0  0  0  0
   46.5030   28.8930   47.7640 C   0  0  0  0  0  0  0  0  0  0  0  0
   47.8430   28.2780   47.4450 C   0  0  1  0  0  0  0  0  0  0  0  0
   48.7820   29.4160   47.0650 C   0  0  1  0  0  0  0  0  0  0  0  0
   48.8160   29.9080   49.4290 O   0  0  0  0  0  0  0  0  0  0  0  0
   48.0270   30.1260   50.0140 H   0  0  0  0  0  0  0  0  0  0  0  0
   48.3730   27.6150   48.5670 O   0  0  0  0  0  0  0  0  0  0  0  0
   49.3460   27.5470   48.3840 H   0  0  0  0  0  0  0  0  0  0  0  0
   48.2460   29.9600   45.8900 O   0  0  0  0  0  0  0  0  0  0  0  0
   48.9460   30.1410   45.2120 H   0  0  0  0  0  0  0  0  0  0  0  0
  1 16  1  0  0  0  0
  1  6  1  0  0  0  0
  2  8  1  0  0  0  0
  2  1  1  0  0  0  0
  3  2  1  0  0  0  0
  3  4  1  0  0  0  0
  4 12  1  0  0  0  0
  4  5  1  0  0  0  0
  5 13  1  0  0  0  0
  5  6  1  0  0  0  0
  5 14  1  0  0  0  0
  6 15  1  6  0  0  0
  6 31  1  0  0  0  0
  7  2  1  0  0  0  0
  9  3  1  0  0  0  0
 10  3  1  0  0  0  0
 11  4  1  0  0  0  0
 16 18  1  0  0  0  0
 17 16  1  0  0  0  0
 19 21  1  0  0  0  0
 19 16  1  0  0  0  0
 20 19  1  0  0  0  0
 22 28  1  0  0  0  0
 22 23  1  0  0  0  0
 23 29  1  0  0  0  0
 24 23  2  0  0  0  0
 24 19  1  0  0  0  0
 25 24  1  0  0  0  0
 26 27  1  0  0  0  0
 26 25  2  0  0  0  0
 27 22  2  0  0  0  0
 30 26  1  0  0  0  0
 31 33  1  0  0  0  0
 33 32  2  6  0  0  0
 33 36  1  0  0  0  0
 33 34  1  0  0  0  0
 35 34  1  0  0  0  0
 37 43  1  1  0  0  0
 38 36  1  6  0  0  0
 38 37  1  0  0  0  0
 39 40  1  0  0  0  0
 39 38  1  0  0  0  0
 41 40  1  0  0  0  0
 41 45  1  1  0  0  0
 42 47  1  6  0  0  0
 42 41  1  0  0  0  0
 42 37  1  0  0  0  0
 43 44  1  0  0  0  0
 46 45  1  0  0  0  0
 48 47  1  0  0  0  0
M  END
>  <minimizedAffinity>
-5.38762093

>  <minimizedRMSD>
3.47046447

$$$$
