
 OpenBabel03252507463D

 40 42  0  0  1  0  0  0  0  0999 V2000
   48.4700   33.9590   41.2690 C   0  0  0  0  0  0  0  0  0  0  0  0
   48.9620   32.8770   40.5650 C   0  0  0  0  0  0  0  0  0  0  0  0
   50.2220   32.3560   40.8250 C   0  0  0  0  0  0  0  0  0  0  0  0
   50.9490   32.9690   41.8170 N   0  0  0  0  0  0  0  0  0  0  0  0
   50.4360   34.0210   42.4810 C   0  0  0  0  0  0  0  0  0  0  0  0
   49.2300   34.5000   42.2140 N   0  0  0  0  0  0  0  0  0  0  0  0
   50.6110   31.5100   40.2770 H   0  0  0  0  0  0  0  0  0  0  0  0
   50.9760   34.5310   43.2680 H   0  0  0  0  0  0  0  0  0  0  0  0
   47.1200   34.4360   40.9150 C   0  0  0  0  0  0  0  0  0  0  0  0
   46.5290   33.6390   40.4170 H   0  0  0  0  0  0  0  0  0  0  0  0
   47.1650   35.2860   40.1960 H   0  0  0  0  0  0  0  0  0  0  0  0
   46.3120   34.8480   42.1200 C   0  0  0  0  0  0  0  0  0  0  0  0
   46.6440   35.8630   42.4320 H   0  0  0  0  0  0  0  0  0  0  0  0
   46.5320   34.1220   42.9290 H   0  0  0  0  0  0  0  0  0  0  0  0
   44.8420   34.7970   41.9110 C   0  0  0  0  0  0  0  0  0  0  0  0
   43.9650   35.0770   43.0000 C   0  0  0  0  0  0  0  0  0  0  0  0
   42.2980   34.8870   42.2450 S   0  0  0  0  0  0  0  0  0  0  0  0
   43.0810   34.4550   40.5620 C   0  0  0  0  0  0  0  0  0  0  0  0
   44.1930   34.5150   40.8040 N   0  0  0  0  0  0  0  0  0  0  0  0
   44.2360   35.3330   44.0070 H   0  0  0  0  0  0  0  0  0  0  0  0
   42.3260   34.1660   39.4240 O   0  0  0  0  0  0  0  0  0  0  0  0
   40.3380   34.8700   37.8240 O   0  0  0  0  0  0  0  0  0  0  0  0
   41.4140   35.4300   38.7510 P   0  0  0  0  0  0  0  0  0  0  0  0
   40.6900   36.2820   40.0100 O   0  0  0  0  0  0  0  0  0  0  0  0
   39.8550   36.6640   39.6690 H   0  0  0  0  0  0  0  0  0  0  0  0
   42.4470   36.4810   37.9030 O   0  0  0  0  0  0  0  0  0  0  0  0
   41.9940   37.0500   37.2600 H   0  0  0  0  0  0  0  0  0  0  0  0
   47.9560   32.1110   39.2690 S   0  0  0  0  0  0  0  0  0  0  0  0
   49.6640   31.7540   37.2310 C   0  0  2  0  0  3  0  0  0  0  0  0
   48.9430   30.9630   38.3260 C   0  0  2  0  0  3  0  0  0  0  0  0
   48.0740   30.0240   37.7660 O   0  0  0  0  0  0  0  0  0  0  0  0
   47.4120   30.6570   36.7140 C   0  0  0  0  0  2  0  0  0  0  0  0
   48.3120   30.5310   35.5060 C   0  0  2  0  0  3  0  0  0  0  0  0
   49.6970   30.9760   35.9360 C   0  0  1  0  0  3  0  0  0  0  0  0
   50.9880   31.9760   37.6100 O   0  0  0  0  0  0  0  0  0  0  0  0
   51.4320   32.4200   36.8720 H   0  0  0  0  0  0  0  0  0  0  0  0
   47.8210   31.2750   34.4320 O   0  0  0  0  0  0  0  0  0  0  0  0
   48.5340   31.4890   33.7850 H   0  0  0  0  0  0  0  0  0  0  0  0
   50.2330   31.8060   34.9630 O   0  0  0  0  0  0  0  0  0  0  0  0
   50.2670   32.7510   35.1970 H   0  0  0  0  0  0  0  0  0  0  0  0
  1  6  1  0  0  0  0
  2  3  1  0  0  0  0
  2  1  2  0  0  0  0
  3  4  2  0  0  0  0
  4  5  1  0  0  0  0
  5  8  1  0  0  0  0
  6  5  2  0  0  0  0
  7  3  1  0  0  0  0
  9  1  1  0  0  0  0
  9 12  1  0  0  0  0
 10  9  1  0  0  0  0
 11  9  1  0  0  0  0
 12 13  1  0  0  0  0
 12 14  1  0  0  0  0
 15 12  1  0  0  0  0
 15 16  2  0  0  0  0
 16 20  1  0  0  0  0
 17 16  1  0  0  0  0
 18 19  2  0  0  0  0
 18 17  1  0  0  0  0
 19 15  1  0  0  0  0
 21 18  1  0  0  0  0
 22 23  2  0  0  0  0
 23 21  1  0  0  0  0
 23 24  1  0  0  0  0
 25 24  1  0  0  0  0
 26 23  1  0  0  0  0
 27 26  1  0  0  0  0
 28  2  1  0  0  0  0
 29 35  1  1  0  0  0
 29 30  1  0  0  0  0
 30 28  1  1  0  0  0
 31 30  1  0  0  0  0
 32 31  1  0  0  0  0
 33 37  1  6  0  0  0
 33 34  1  0  0  0  0
 33 32  1  0  0  0  0
 34 39  1  6  0  0  0
 34 29  1  0  0  0  0
 36 35  1  0  0  0  0
 38 37  1  0  0  0  0
 39 40  1  0  0  0  0
M  END
>  <minimizedAffinity>
-4.49874878

>  <minimizedRMSD>
0.961468041

$$$$
