
 OpenBabel03252508003D

 32 34  0  0  1  0  0  0  0  0999 V2000
   46.6520   34.6720   43.1150 C   0  0  0  0  0  0  0  0  0  0  0  0
   45.5970   35.6250   43.2700 C   0  0  0  0  0  0  0  0  0  0  0  0
   44.7660   35.4620   44.3850 C   0  0  0  0  0  0  0  0  0  0  0  0
   45.0110   34.4330   45.2280 N   0  0  0  0  0  0  0  0  0  0  0  0
   46.0460   33.5520   45.0140 C   0  0  0  0  0  0  0  0  0  0  0  0
   46.8560   33.6640   43.9770 N   0  0  0  0  0  0  0  0  0  0  0  0
   45.4610   36.4250   42.5550 H   0  0  0  0  0  0  0  0  0  0  0  0
   43.9550   36.1460   44.5570 H   0  0  0  0  0  0  0  0  0  0  0  0
   46.2630   32.4520   46.0020 C   0  0  1  0  0  0  0  0  0  0  0  0
   46.9850   32.7630   47.2950 C   0  0  0  0  0  0  0  0  0  0  0  0
   45.4890   32.6020   47.2520 C   0  0  1  0  0  0  0  0  0  0  0  0
   46.4500   31.4350   45.6210 H   0  0  0  0  0  0  0  0  0  0  0  0
   47.4330   33.7860   47.3070 H   0  0  0  0  0  0  0  0  0  0  0  0
   47.6250   31.9910   47.7310 H   0  0  0  0  0  0  0  0  0  0  0  0
   45.1290   31.7380   47.8330 H   0  0  0  0  0  0  0  0  0  0  0  0
   44.7880   33.8320   47.5340 N   0  0  0  0  0  0  0  0  0  0  0  0
   45.3460   34.6640   47.6710 H   0  0  0  0  0  0  0  0  0  0  0  0
   43.8250   33.8900   47.2290 H   0  0  0  0  0  0  0  0  0  0  0  0
   47.4830   34.8940   41.9580 C   0  0  0  0  0  0  0  0  0  0  0  0
   48.4510   35.7350   41.9400 O   0  0  0  0  0  0  0  0  0  0  0  0
   47.7630   32.7420   40.9220 C   0  0  1  0  0  3  0  0  0  0  0  0
   47.2900   34.1590   40.6740 C   0  0  2  0  0  3  0  0  0  0  0  0
   48.0690   34.8090   39.7240 O   0  0  0  0  0  0  0  0  0  0  0  0
   48.1530   34.1080   38.5320 C   0  0  0  0  0  2  0  0  0  0  0  0
   48.7610   32.7460   38.6910 C   0  0  1  0  0  3  0  0  0  0  0  0
   47.9230   31.9590   39.6570 C   0  0  1  0  0  3  0  0  0  0  0  0
   48.9840   32.7720   41.5910 O   0  0  0  0  0  0  0  0  0  0  0  0
   49.7470   32.9880   40.9950 H   0  0  0  0  0  0  0  0  0  0  0  0
   48.6590   32.0910   37.4560 O   0  0  0  0  0  0  0  0  0  0  0  0
   49.5150   31.6520   37.2250 H   0  0  0  0  0  0  0  0  0  0  0  0
   48.6250   30.7850   40.0100 O   0  0  0  0  0  0  0  0  0  0  0  0
   49.2250   30.9510   40.7910 H   0  0  0  0  0  0  0  0  0  0  0  0
  1  2  2  0  0  0  0
  1  6  1  0  0  0  0
  2  3  1  0  0  0  0
  3  8  1  0  0  0  0
  3  4  2  0  0  0  0
  5  4  1  0  0  0  0
  5  9  1  0  0  0  0
  6  5  2  0  0  0  0
  7  2  1  0  0  0  0
  9 12  1  6  0  0  0
  9 11  1  0  0  0  0
  9 10  1  0  0  0  0
 10 13  1  0  0  0  0
 10 14  1  0  0  0  0
 11 10  1  0  0  0  0
 11 16  1  0  0  0  0
 11 15  1  1  0  0  0
 16 17  1  0  0  0  0
 18 16  1  0  0  0  0
 19  1  1  0  0  0  0
 20 19  2  0  0  0  0
 21 27  1  6  0  0  0
 22 21  1  0  0  0  0
 22 19  1  1  0  0  0
 23 22  1  0  0  0  0
 24 25  1  0  0  0  0
 24 23  1  0  0  0  0
 25 29  1  6  0  0  0
 25 26  1  0  0  0  0
 26 31  1  1  0  0  0
 26 21  1  0  0  0  0
 28 27  1  0  0  0  0
 30 29  1  0  0  0  0
 31 32  1  0  0  0  0
M  END
>  <minimizedAffinity>
-5.83848238

>  <minimizedRMSD>
1.24193323

$$$$
