
 OpenBabel03252508033D

 45 48  0  0  1  0  0  0  0  0999 V2000
   42.0270   33.2500   41.2200 C   0  0  0  0  0  0  0  0  0  0  0  0
   42.7900   34.3980   41.3340 C   0  0  0  0  0  0  0  0  0  0  0  0
   42.1580   35.6320   41.2290 C   0  0  0  0  0  0  0  0  0  0  0  0
   40.8000   35.7290   41.0160 C   0  0  0  0  0  0  0  0  0  0  0  0
   40.0370   34.6000   40.9000 C   0  0  0  0  0  0  0  0  0  0  0  0
   40.6580   33.3900   41.0030 C   0  0  0  0  0  0  0  0  0  0  0  0
   42.6740   36.5900   41.3030 H   0  0  0  0  0  0  0  0  0  0  0  0
   40.3180   36.6790   40.9370 H   0  0  0  0  0  0  0  0  0  0  0  0
   38.9900   34.6430   40.7340 H   0  0  0  0  0  0  0  0  0  0  0  0
   40.0560   32.4940   40.9120 H   0  0  0  0  0  0  0  0  0  0  0  0
   42.7260   31.7320   41.2430 S   0  0  0  0  0  0  0  0  0  0  0  0
   42.0800   30.9610   40.1430 O   0  0  0  0  0  0  0  0  0  0  0  0
   42.3340   31.0940   42.6280 O   0  0  0  0  0  0  0  0  0  0  0  0
   44.0850   29.5630   41.6150 C   0  0  2  0  0  3  0  0  0  0  0  0
   44.2080   31.0360   41.2410 C   0  0  1  0  0  3  0  0  0  0  0  0
   44.8960   30.9440   40.0000 O   0  0  0  0  0  0  0  0  0  0  0  0
   46.0670   30.2330   40.0830 C   0  0  0  0  0  2  0  0  0  0  0  0
   45.6750   28.7860   39.8330 C   0  0  1  0  0  3  0  0  0  0  0  0
   44.3280   28.5960   40.4970 C   0  0  2  0  0  3  0  0  0  0  0  0
   42.7720   29.2740   42.0650 O   0  0  0  0  0  0  0  0  0  0  0  0
   42.2630   28.7250   41.4500 H   0  0  0  0  0  0  0  0  0  0  0  0
   45.4880   28.5760   38.4670 O   0  0  0  0  0  0  0  0  0  0  0  0
   45.5610   27.5840   38.3150 H   0  0  0  0  0  0  0  0  0  0  0  0
   43.3000   28.6310   39.5820 O   0  0  0  0  0  0  0  0  0  0  0  0
   43.5790   28.7330   38.6550 H   0  0  0  0  0  0  0  0  0  0  0  0
   44.2420   34.3710   41.5620 C   0  0  0  0  0  0  0  0  0  0  0  0
   45.1160   34.2740   40.6400 O   0  0  0  0  0  0  0  0  0  0  0  0
   44.5900   34.4670   42.9460 C   0  0  0  0  0  0  0  0  0  0  0  0
   44.3030   35.7140   43.5840 C   0  0  0  0  0  0  0  0  0  0  0  0
   44.6170   35.8180   44.9410 C   0  0  0  0  0  0  0  0  0  0  0  0
   45.1700   34.7410   45.5580 N   0  0  0  0  0  0  0  0  0  0  0  0
   45.4260   33.5650   44.8990 C   0  0  0  0  0  0  0  0  0  0  0  0
   45.1300   33.4930   43.6550 N   0  0  0  0  0  0  0  0  0  0  0  0
   43.8750   36.5850   43.1570 H   0  0  0  0  0  0  0  0  0  0  0  0
   44.4380   36.7270   45.5190 H   0  0  0  0  0  0  0  0  0  0  0  0
   46.0070   32.4390   45.6570 C   0  0  1  0  0  0  0  0  0  0  0  0
   46.9600   32.7360   46.7910 C   0  0  0  0  0  0  0  0  0  0  0  0
   45.5460   32.3320   47.0640 C   0  0  1  0  0  0  0  0  0  0  0  0
   46.1850   31.4970   45.1320 H   0  0  0  0  0  0  0  0  0  0  0  0
   47.3120   33.7720   46.9390 H   0  0  0  0  0  0  0  0  0  0  0  0
   47.7350   31.9950   47.0560 H   0  0  0  0  0  0  0  0  0  0  0  0
   45.3510   31.3550   47.5320 H   0  0  0  0  0  0  0  0  0  0  0  0
   44.7770   33.4080   47.6630 N   0  0  0  0  0  0  0  0  0  0  0  0
   43.9930   33.0440   48.2610 H   0  0  0  0  0  0  0  0  0  0  0  0
   45.3470   34.0020   48.3230 H   0  0  0  0  0  0  0  0  0  0  0  0
  1 11  1  0  0  0  0
  1  2  1  0  0  0  0
  2 26  1  0  0  0  0
  3  7  1  0  0  0  0
  3  2  2  0  0  0  0
  4  3  1  0  0  0  0
  5  6  1  0  0  0  0
  5  4  2  0  0  0  0
  6  1  2  0  0  0  0
  8  4  1  0  0  0  0
  9  5  1  0  0  0  0
 10  6  1  0  0  0  0
 11 13  2  0  0  0  0
 12 11  2  0  0  0  0
 14 20  1  6  0  0  0
 15 11  1  6  0  0  0
 15 14  1  0  0  0  0
 16 17  1  0  0  0  0
 16 15  1  0  0  0  0
 18 22  1  6  0  0  0
 18 17  1  0  0  0  0
 18 19  1  0  0  0  0
 19 24  1  6  0  0  0
 19 14  1  0  0  0  0
 21 20  1  0  0  0  0
 23 22  1  0  0  0  0
 25 24  1  0  0  0  0
 26 28  1  0  0  0  0
 27 26  2  0  0  0  0
 28 29  2  0  0  0  0
 28 33  1  0  0  0  0
 29 30  1  0  0  0  0
 30 35  1  0  0  0  0
 30 31  2  0  0  0  0
 32 31  1  0  0  0  0
 32 36  1  0  0  0  0
 33 32  2  0  0  0  0
 34 29  1  0  0  0  0
 36 39  1  6  0  0  0
 36 37  1  0  0  0  0
 36 38  1  0  0  0  0
 37 40  1  0  0  0  0
 37 41  1  0  0  0  0
 37 38  1  0  0  0  0
 38 42  1  1  0  0  0
 38 43  1  0  0  0  0
 43 44  1  0  0  0  0
 43 45  1  0  0  0  0
M  END
>  <minimizedAffinity>
-5.73130369

>  <minimizedRMSD>
1.12156928

$$$$
