
 OpenBabel03252505433D

 45 48  0  0  1  0  0  0  0  0999 V2000
   42.6740   34.8250   40.3040 C   0  0  0  0  0  0  0  0  0  0  0  0
   42.5220   35.1160   38.9690 C   0  0  0  0  0  0  0  0  0  0  0  0
   41.3270   35.0000   38.3090 C   0  0  0  0  0  0  0  0  0  0  0  0
   40.2520   34.5780   39.0210 N   0  0  0  0  0  0  0  0  0  0  0  0
   40.3860   34.2850   40.3480 C   0  0  0  0  0  0  0  0  0  0  0  0
   41.5700   34.4040   40.9850 N   0  0  0  0  0  0  0  0  0  0  0  0
   43.3700   35.4470   38.4090 H   0  0  0  0  0  0  0  0  0  0  0  0
   41.2120   35.2320   37.2520 H   0  0  0  0  0  0  0  0  0  0  0  0
   43.9810   34.6530   42.3980 C   0  0  1  0  0  0  0  0  0  0  0  0
   44.1940   36.1330   41.9290 C   0  0  0  0  0  0  0  0  0  0  0  0
   44.0140   34.9410   40.9950 C   0  0  2  0  0  0  0  0  0  0  0  0
   43.0000   34.5560   42.9390 H   0  0  0  0  0  0  0  0  0  0  0  0
   45.2140   36.5380   42.0490 H   0  0  0  0  0  0  0  0  0  0  0  0
   43.3290   36.8070   41.9760 H   0  0  0  0  0  0  0  0  0  0  0  0
   44.8320   34.8100   40.2890 H   0  0  0  0  0  0  0  0  0  0  0  0
   45.1210   34.1030   43.1620 C   0  0  0  0  0  0  0  0  0  0  0  0
   46.3640   34.0130   42.5000 C   0  0  0  0  0  0  0  0  0  0  0  0
   47.4520   33.5010   43.1950 C   0  0  0  0  0  0  0  0  0  0  0  0
   47.2590   33.1150   44.4830 N   0  0  0  0  0  0  0  0  0  0  0  0
   46.0680   33.2160   45.0760 C   0  0  0  0  0  0  0  0  0  0  0  0
   45.0280   33.7080   44.3970 N   0  0  0  0  0  0  0  0  0  0  0  0
   46.4600   34.3400   41.4630 H   0  0  0  0  0  0  0  0  0  0  0  0
   48.4410   33.4130   42.7170 H   0  0  0  0  0  0  0  0  0  0  0  0
   46.0640   32.7390   46.5030 C   0  0  0  0  0  0  0  0  0  0  0  0
   45.0950   33.3920   47.2500 F   0  0  0  0  0  0  0  0  0  0  0  0
   47.3010   33.0800   47.0970 F   0  0  0  0  0  0  0  0  0  0  0  0
   45.9690   31.3750   46.5370 F   0  0  0  0  0  0  0  0  0  0  0  0
   39.2390   33.8180   41.1480 C   0  0  0  0  0  0  0  0  0  0  0  0
   38.4820   34.6520   41.1160 H   0  0  0  0  0  0  0  0  0  0  0  0
   39.5160   33.6290   42.1830 H   0  0  0  0  0  0  0  0  0  0  0  0
   38.5670   32.6280   40.5240 C   0  0  0  0  0  0  0  0  0  0  0  0
   37.4720   32.6760   40.6030 H   0  0  0  0  0  0  0  0  0  0  0  0
   38.8860   32.5840   39.4440 H   0  0  0  0  0  0  0  0  0  0  0  0
   37.9090   30.3070   41.1490 C   0  0  1  0  0  3  0  0  0  0  0  0
   39.0090   31.3480   41.1500 C   0  0  1  0  0  3  0  0  0  0  0  0
   40.1880   30.8220   40.7050 O   0  0  0  0  0  0  0  0  0  0  0  0
   40.1960   29.4350   40.6350 C   0  0  0  0  0  2  0  0  0  0  0  0
   39.6550   28.7670   41.8560 C   0  0  2  0  0  3  0  0  0  0  0  0
   38.2830   29.2700   42.1890 C   0  0  2  0  0  3  0  0  0  0  0  0
   36.6790   30.9050   41.4110 O   0  0  0  0  0  0  0  0  0  0  0  0
   36.0450   30.5590   40.7250 H   0  0  0  0  0  0  0  0  0  0  0  0
   40.5430   28.7840   42.9260 O   0  0  0  0  0  0  0  0  0  0  0  0
   40.2200   29.3120   43.7010 H   0  0  0  0  0  0  0  0  0  0  0  0
   37.3210   28.2680   42.2850 O   0  0  0  0  0  0  0  0  0  0  0  0
   36.6160   28.5920   42.9280 H   0  0  0  0  0  0  0  0  0  0  0  0
  1  6  1  0  0  0  0
  1 11  1  0  0  0  0
  2  1  2  0  0  0  0
  3  2  1  0  0  0  0
  3  4  2  0  0  0  0
  4  5  1  0  0  0  0
  5  6  2  0  0  0  0
  5 28  1  0  0  0  0
  7  2  1  0  0  0  0
  8  3  1  0  0  0  0
  9 12  1  1  0  0  0
  9 16  1  0  0  0  0
 10 14  1  0  0  0  0
 10 13  1  0  0  0  0
 10  9  1  0  0  0  0
 11 15  1  6  0  0  0
 11 10  1  0  0  0  0
 11  9  1  0  0  0  0
 16 21  1  0  0  0  0
 17 16  2  0  0  0  0
 17 18  1  0  0  0  0
 18 19  2  0  0  0  0
 19 20  1  0  0  0  0
 20 24  1  0  0  0  0
 21 20  2  0  0  0  0
 22 17  1  0  0  0  0
 23 18  1  0  0  0  0
 24 27  1  0  0  0  0
 24 26  1  0  0  0  0
 24 25  1  0  0  0  0
 28 30  1  0  0  0  0
 29 28  1  0  0  0  0
 31 32  1  0  0  0  0
 31 28  1  0  0  0  0
 33 31  1  0  0  0  0
 34 35  1  0  0  0  0
 34 40  1  1  0  0  0
 34 39  1  0  0  0  0
 35 31  1  6  0  0  0
 36 35  1  0  0  0  0
 37 36  1  0  0  0  0
 37 38  1  0  0  0  0
 38 39  1  0  0  0  0
 38 42  1  1  0  0  0
 39 44  1  6  0  0  0
 41 40  1  0  0  0  0
 42 43  1  0  0  0  0
 44 45  1  0  0  0  0
M  END
>  <minimizedAffinity>
-6.63951874

>  <minimizedRMSD>
1.79299748

$$$$
