
 OpenBabel03242521443D

 41 43  0  0  1  0  0  0  0  0999 V2000
   45.1970   35.8000   44.1260 C   0  0  0  0  0  0  0  0  0  0  0  0
   46.1480   35.0200   43.4690 C   0  0  0  0  0  0  0  0  0  0  0  0
   46.6110   33.8390   44.0730 C   0  0  0  0  0  0  0  0  0  0  0  0
   46.0970   33.5290   45.2700 N   0  0  0  0  0  0  0  0  0  0  0  0
   45.1750   34.2970   45.8930 C   0  0  0  0  0  0  0  0  0  0  0  0
   44.7220   35.4330   45.3260 N   0  0  0  0  0  0  0  0  0  0  0  0
   46.4910   35.3620   42.5120 H   0  0  0  0  0  0  0  0  0  0  0  0
   44.8160   33.9710   46.8560 H   0  0  0  0  0  0  0  0  0  0  0  0
   48.6120   33.8710   42.6130 C   0  0  2  0  0  0  0  0  0  0  0  0
   47.6020   33.0590   43.3470 C   0  0  2  0  0  0  0  0  0  0  0  0
   47.0580   32.2830   42.2820 O   0  0  0  0  0  0  0  0  0  0  0  0
   48.1960   31.7630   41.7020 C   0  0  0  0  0  0  0  0  0  0  0  0
   49.3390   32.7130   41.8950 C   0  0  1  0  0  0  0  0  0  0  0  0
   48.1840   34.4550   41.7700 H   0  0  0  0  0  0  0  0  0  0  0  0
   48.0750   32.3220   43.9960 H   0  0  0  0  0  0  0  0  0  0  0  0
   48.0340   31.4550   40.6530 H   0  0  0  0  0  0  0  0  0  0  0  0
   48.4520   30.8310   42.2580 H   0  0  0  0  0  0  0  0  0  0  0  0
   50.1470   32.3370   42.5360 H   0  0  0  0  0  0  0  0  0  0  0  0
   49.4170   34.6370   43.3980 O   0  0  0  0  0  0  0  0  0  0  0  0
   50.2720   34.8550   42.9150 H   0  0  0  0  0  0  0  0  0  0  0  0
   49.8960   33.1980   40.7180 O   0  0  0  0  0  0  0  0  0  0  0  0
   50.5850   32.6130   40.3630 H   0  0  0  0  0  0  0  0  0  0  0  0
   44.7250   37.0670   43.4570 C   0  0  0  0  0  0  0  0  0  0  0  0
   45.2830   37.2250   42.5350 H   0  0  0  0  0  0  0  0  0  0  0  0
   43.6340   36.9670   43.2740 H   0  0  0  0  0  0  0  0  0  0  0  0
   45.2840   39.4810   44.0710 C   0  0  0  0  0  0  0  0  0  0  0  0
   45.4230   39.7730   42.8510 O   0  0  0  0  0  0  0  0  0  0  0  0
   44.9870   38.1430   44.4080 N   0  0  0  0  0  0  0  0  0  0  0  0
   44.9500   37.9040   45.4260 H   0  0  0  0  0  0  0  0  0  0  0  0
   44.6600   41.7620   44.8870 C   0  0  2  0  0  3  0  0  0  0  0  0
   45.4240   40.5030   45.1690 C   0  0  1  0  0  3  0  0  0  0  0  0
   45.1260   39.9480   46.4010 O   0  0  0  0  0  0  0  0  0  0  0  0
   44.2190   40.6300   47.1640 C   0  0  0  0  0  2  0  0  0  0  0  0
   44.5040   42.1050   47.2840 C   0  0  2  0  0  3  0  0  0  0  0  0
   45.0430   42.7100   46.0310 C   0  0  2  0  0  3  0  0  0  0  0  0
   43.2810   41.5950   44.8870 O   0  0  0  0  0  0  0  0  0  0  0  0
   42.8670   42.4890   44.9520 H   0  0  0  0  0  0  0  0  0  0  0  0
   45.4030   42.3880   48.3050 O   0  0  0  0  0  0  0  0  0  0  0  0
   46.1200   41.7050   48.3000 H   0  0  0  0  0  0  0  0  0  0  0  0
   44.4630   43.9340   45.7190 O   0  0  0  0  0  0  0  0  0  0  0  0
   45.1590   44.6550   45.7220 H   0  0  0  0  0  0  0  0  0  0  0  0
  1  6  1  0  0  0  0
  2  3  1  0  0  0  0
  2  1  2  0  0  0  0
  3  4  2  0  0  0  0
  4  5  1  0  0  0  0
  5  8  1  0  0  0  0
  6  5  2  0  0  0  0
  7  2  1  0  0  0  0
  9 14  1  6  0  0  0
  9 10  1  0  0  0  0
  9 19  1  0  0  0  0
 10 15  1  1  0  0  0
 10  3  1  0  0  0  0
 11 10  1  0  0  0  0
 12 13  1  0  0  0  0
 12 17  1  0  0  0  0
 12 11  1  0  0  0  0
 13 18  1  1  0  0  0
 13  9  1  0  0  0  0
 16 12  1  0  0  0  0
 20 19  1  0  0  0  0
 21 13  1  0  0  0  0
 22 21  1  0  0  0  0
 23  1  1  0  0  0  0
 23 28  1  0  0  0  0
 24 23  1  0  0  0  0
 25 23  1  0  0  0  0
 26 28  1  0  0  0  0
 27 26  2  0  0  0  0
 28 29  1  0  0  0  0
 30 36  1  1  0  0  0
 30 31  1  0  0  0  0
 30 35  1  0  0  0  0
 31 26  1  6  0  0  0
 31 32  1  0  0  0  0
 32 33  1  0  0  0  0
 33 34  1  0  0  0  0
 34 38  1  1  0  0  0
 35 40  1  6  0  0  0
 35 34  1  0  0  0  0
 36 37  1  0  0  0  0
 39 38  1  0  0  0  0
 40 41  1  0  0  0  0
M  END
>  <minimizedAffinity>
-2.94470739

>  <minimizedRMSD>
0.414320916

$$$$
