
     RDKit          3D

 45 47  0  0  0  0  0  0  0  0999 V2000
   45.1355   33.5000   41.1541 F   0  0  0  0  0  0  0  0  0  0  0  0
   46.3348   34.0834   41.0483 C   0  0  0  0  0  0  0  0  0  0  0  0
   46.8406   34.8012   42.1184 C   0  0  0  0  0  0  0  0  0  0  0  0
   48.0762   35.4354   42.0900 C   0  0  0  0  0  0  0  0  0  0  0  0
   48.8529   35.3512   40.9336 C   0  0  0  0  0  0  0  0  0  0  0  0
   48.3153   34.6258   39.8857 C   0  0  0  0  0  0  0  0  0  0  0  0
   47.1092   34.0005   39.8976 C   0  0  0  0  0  0  0  0  0  0  0  0
   45.4519   34.0156   45.4232 C   0  0  0  0  0  0  0  0  0  0  0  0
   44.6041   35.1321   45.6541 C   0  0  0  0  0  0  0  0  0  0  0  0
   44.5196   36.1465   44.6663 C   0  0  0  0  0  0  0  0  0  0  0  0
   45.2749   35.9750   43.5393 N   0  0  0  0  0  0  0  0  0  0  0  0
   46.0607   34.9132   43.3553 C   0  0  0  0  0  0  0  0  0  0  0  0
   46.1444   33.9487   44.2885 N   0  0  0  0  0  0  0  0  0  0  0  0
   45.5168   33.0246   46.4202 N   0  0  0  0  0  0  0  0  0  0  0  0
   46.6780   33.3102   38.7991 O   0  0  0  0  0  0  0  0  0  0  0  0
   48.0627   34.6735   36.9986 O   0  0  0  0  0  0  0  0  0  0  0  0
   47.3294   33.3754   37.2495 P   0  0  2  0  0  0  0  0  0  0  0  0
   46.0542   33.1929   36.1246 O   0  0  0  0  0  0  0  0  0  0  0  0
   48.3797   32.0968   36.9317 O   0  0  0  0  0  0  0  0  0  0  0  0
   48.4102   35.9838   42.9717 H   0  0  0  0  0  0  0  0  0  0  0  0
   49.8056   35.8582   40.9542 H   0  0  0  0  0  0  0  0  0  0  0  0
   49.0221   34.6365   39.0603 H   0  0  0  0  0  0  0  0  0  0  0  0
   44.0340   35.2173   46.5544 H   0  0  0  0  0  0  0  0  0  0  0  0
   43.8904   36.9984   44.8118 H   0  0  0  0  0  0  0  0  0  0  0  0
   46.3782   32.6822   46.9404 H   0  0  0  0  0  0  0  0  0  0  0  0
   44.6729   32.4867   46.7770 H   0  0  0  0  0  0  0  0  0  0  0  0
   45.3767   32.6127   36.5415 H   0  0  0  0  0  0  0  0  0  0  0  0
   45.9223   32.1692   35.0524 O   0  0  0  0  0  0  0  0  0  0  0  0
   47.2906   32.0030   34.7846 C   0  0  1  0  0  0  0  0  0  0  0  0
   48.0139   31.2869   35.8985 C   0  0  2  0  0  0  0  0  0  0  0  0
   47.2360   30.1989   36.2648 O   0  0  0  0  0  0  0  0  0  0  0  0
   47.4139   29.2428   35.2494 C   0  0  0  0  0  0  0  0  0  0  0  0
   46.9231   29.7303   33.9194 C   0  0  1  0  0  0  0  0  0  0  0  0
   45.5628   29.5545   33.8274 O   0  0  0  0  0  0  0  0  0  0  0  0
   47.3716   31.1072   33.5642 C   0  0  2  0  0  0  0  0  0  0  0  0
   48.6224   31.1632   32.9542 O   0  0  0  0  0  0  0  0  0  0  0  0
   45.8206   32.2349   36.0346 H   0  0  0  0  0  0  0  0  0  0  0  0
   47.7625   32.9815   34.5605 H   0  0  0  0  0  0  0  0  0  0  0  0
   48.9422   30.8801   35.4428 H   0  0  0  0  0  0  0  0  0  0  0  0
   46.9076   28.2896   35.4769 H   0  0  0  0  0  0  0  0  0  0  0  0
   48.5253   29.1134   35.1355 H   0  0  0  0  0  0  0  0  0  0  0  0
   47.3872   29.0392   33.1584 H   0  0  0  0  0  0  0  0  0  0  0  0
   45.0430   30.3749   33.8161 H   0  0  0  0  0  0  0  0  0  0  0  0
   46.6277   31.5316   32.8332 H   0  0  0  0  0  0  0  0  0  0  0  0
   48.4742   30.8609   32.0232 H   0  0  0  0  0  0  0  0  0  0  0  0
  2  1  1  0
  2  3  2  0
  3 12  1  0
  4  3  1  0
  5  4  2  0
  6  7  2  0
  6  5  1  0
  7  2  1  0
  8  9  2  0
  8 14  1  0
 10  9  1  0
 11 10  2  0
 12 11  1  0
 12 13  2  0
 13  8  1  0
 15  7  1  0
 16 17  2  0
 17 15  1  1
 18 17  1  0
 19 17  1  0
  4 20  1  0
  5 21  1  0
  6 22  1  0
  9 23  1  0
 10 24  1  0
 14 25  1  0
 14 26  1  0
 18 27  1  0
 28 29  1  0
 29 30  1  0
 30 31  1  0
 31 32  1  0
 32 33  1  0
 33 34  1  0
 33 35  1  0
 35 36  1  0
 35 29  1  0
 28 37  1  0
 29 38  1  6
 30 39  1  6
 32 40  1  0
 32 41  1  0
 33 42  1  6
 34 43  1  0
 35 44  1  6
 36 45  1  0
 19 30  1  0
M  ISO  6  20  14  21  14  22  14  23  14  24  14  27   3
M  END
>  <DihAtoms>  (1) 
16,18,29,28

>  <DihDeg>  (1) 
-116.99691791199146

$$$$
