
 OpenBabel03242521163D

 37 39  0  0  1  0  0  0  0  0999 V2000
   34.9050   27.6950   37.9040 C   0  0  0  0  0  0  0  0  0  0  0  0
   35.2940   29.0310   38.1350 C   0  0  0  0  0  0  0  0  0  0  0  0
   36.4010   29.2540   38.9600 C   0  0  0  0  0  0  0  0  0  0  0  0
   37.0550   28.1680   39.5050 N   0  0  0  0  0  0  0  0  0  0  0  0
   36.6260   26.9150   39.2400 C   0  0  0  0  0  0  0  0  0  0  0  0
   35.5670   26.6550   38.4520 N   0  0  0  0  0  0  0  0  0  0  0  0
   34.0620   27.4470   37.2780 H   0  0  0  0  0  0  0  0  0  0  0  0
   34.7480   29.8320   37.6850 H   0  0  0  0  0  0  0  0  0  0  0  0
   36.7920   30.5930   39.1920 N   0  0  0  0  0  0  0  0  0  0  0  0
   37.4050   31.2740   38.2130 C   0  0  0  0  0  0  0  0  0  0  0  0
   37.7920   32.5910   38.4400 C   0  0  0  0  0  0  0  0  0  0  0  0
   37.5220   33.1360   39.6670 C   0  0  0  0  0  0  0  0  0  0  0  0
   37.8790   34.3450   39.8700 O   0  0  0  0  0  0  0  0  0  0  0  0
   36.9070   32.4800   40.6690 N   0  0  0  0  0  0  0  0  0  0  0  0
   36.5640   31.2110   40.3770 C   0  0  0  0  0  0  0  0  0  0  0  0
   35.9850   30.5080   41.2430 O   0  0  0  0  0  0  0  0  0  0  0  0
   37.5990   30.8010   37.2570 H   0  0  0  0  0  0  0  0  0  0  0  0
   38.2930   33.1870   37.6780 H   0  0  0  0  0  0  0  0  0  0  0  0
   36.7150   32.9130   41.5870 H   0  0  0  0  0  0  0  0  0  0  0  0
   37.5110   25.9420   39.9540 C   0  0  0  0  0  0  0  0  0  0  0  0
   37.5350   24.9710   39.3990 H   0  0  0  0  0  0  0  0  0  0  0  0
   38.5340   26.3310   39.8920 H   0  0  0  0  0  0  0  0  0  0  0  0
   37.0090   25.6710   41.3470 C   0  0  0  0  0  0  0  0  0  0  0  0
   36.9950   24.5760   41.5160 H   0  0  0  0  0  0  0  0  0  0  0  0
   35.9820   26.0500   41.5080 H   0  0  0  0  0  0  0  0  0  0  0  0
   37.4500   27.5730   42.9370 C   0  0  1  0  0  3  0  0  0  0  0  0
   37.8840   26.2480   42.4350 C   0  0  2  0  0  3  0  0  0  0  0  0
   39.2180   26.2150   41.9710 O   0  0  0  0  0  0  0  0  0  0  0  0
   39.9780   26.7350   43.0160 C   0  0  0  0  0  2  0  0  0  0  0  0
   39.8670   28.2400   42.8770 C   0  0  2  0  0  3  0  0  0  0  0  0
   38.4370   28.6810   42.7040 C   0  0  2  0  0  3  0  0  0  0  0  0
   36.1750   27.9490   42.5210 O   0  0  0  0  0  0  0  0  0  0  0  0
   35.4550   27.5940   43.1050 H   0  0  0  0  0  0  0  0  0  0  0  0
   40.6560   28.6130   41.7940 O   0  0  0  0  0  0  0  0  0  0  0  0
   40.3540   29.4370   41.3470 H   0  0  0  0  0  0  0  0  0  0  0  0
   38.2100   29.7690   43.5450 O   0  0  0  0  0  0  0  0  0  0  0  0
   38.1370   29.5090   44.4780 H   0  0  0  0  0  0  0  0  0  0  0  0
  1  2  2  0  0  0  0
  1  6  1  0  0  0  0
  2  3  1  0  0  0  0
  3  9  1  0  0  0  0
  3  4  2  0  0  0  0
  5  4  1  0  0  0  0
  5 20  1  0  0  0  0
  6  5  2  0  0  0  0
  7  1  1  0  0  0  0
  8  2  1  0  0  0  0
  9 15  1  0  0  0  0
 10 11  2  0  0  0  0
 10  9  1  0  0  0  0
 11 12  1  0  0  0  0
 12 13  2  0  0  0  0
 12 14  1  0  0  0  0
 14 19  1  0  0  0  0
 15 14  1  0  0  0  0
 15 16  2  0  0  0  0
 17 10  1  0  0  0  0
 18 11  1  0  0  0  0
 20 23  1  0  0  0  0
 21 20  1  0  0  0  0
 22 20  1  0  0  0  0
 23 25  1  0  0  0  0
 23 24  1  0  0  0  0
 26 32  1  6  0  0  0
 27 23  1  6  0  0  0
 27 26  1  0  0  0  0
 28 27  1  0  0  0  0
 28 29  1  0  0  0  0
 30 34  1  6  0  0  0
 30 29  1  0  0  0  0
 31 30  1  0  0  0  0
 31 26  1  0  0  0  0
 31 36  1  1  0  0  0
 32 33  1  0  0  0  0
 35 34  1  0  0  0  0
 36 37  1  0  0  0  0
M  END
>  <minimizedAffinity>
-6.14502192

$$$$

 OpenBabel03242521163D

 37 39  0  0  1  0  0  0  0  0999 V2000
   37.1410   28.3660   43.5640 C   0  0  0  0  0  0  0  0  0  0  0  0
   36.9570   27.1000   42.9710 C   0  0  0  0  0  0  0  0  0  0  0  0
   37.9390   26.6470   42.0850 C   0  0  0  0  0  0  0  0  0  0  0  0
   39.0320   27.4520   41.8340 N   0  0  0  0  0  0  0  0  0  0  0  0
   39.1420   28.6540   42.4390 C   0  0  0  0  0  0  0  0  0  0  0  0
   38.2220   29.1290   43.2980 N   0  0  0  0  0  0  0  0  0  0  0  0
   36.4260   28.7800   44.2580 H   0  0  0  0  0  0  0  0  0  0  0  0
   36.0900   26.5210   43.2040 H   0  0  0  0  0  0  0  0  0  0  0  0
   37.7560   25.3780   41.4890 N   0  0  0  0  0  0  0  0  0  0  0  0
   36.9250   25.2610   40.4420 C   0  0  0  0  0  0  0  0  0  0  0  0
   36.7430   24.0130   39.8540 C   0  0  0  0  0  0  0  0  0  0  0  0
   37.4310   22.9520   40.3780 C   0  0  0  0  0  0  0  0  0  0  0  0
   37.2600   21.8090   39.8350 O   0  0  0  0  0  0  0  0  0  0  0  0
   38.2730   23.0350   41.4260 N   0  0  0  0  0  0  0  0  0  0  0  0
   38.3970   24.2730   41.9430 C   0  0  0  0  0  0  0  0  0  0  0  0
   39.1580   24.4640   42.9250 O   0  0  0  0  0  0  0  0  0  0  0  0
   36.4010   26.1300   40.0610 H   0  0  0  0  0  0  0  0  0  0  0  0
   36.0790   23.8650   39.0030 H   0  0  0  0  0  0  0  0  0  0  0  0
   38.7800   22.2200   41.8040 H   0  0  0  0  0  0  0  0  0  0  0  0
   40.4120   29.3050   41.9880 C   0  0  0  0  0  0  0  0  0  0  0  0
   41.1380   29.3530   42.8380 H   0  0  0  0  0  0  0  0  0  0  0  0
   40.8760   28.6350   41.2550 H   0  0  0  0  0  0  0  0  0  0  0  0
   40.1630   30.7100   41.5080 C   0  0  0  0  0  0  0  0  0  0  0  0
   40.4730   31.4190   42.3010 H   0  0  0  0  0  0  0  0  0  0  0  0
   39.0950   30.8980   41.2860 H   0  0  0  0  0  0  0  0  0  0  0  0
   41.1830   32.5420   40.1130 C   0  0  1  0  0  3  0  0  0  0  0  0
   40.9580   31.0860   40.2800 C   0  0  2  0  0  3  0  0  0  0  0  0
   40.3440   30.4660   39.1690 O   0  0  0  0  0  0  0  0  0  0  0  0
   41.1260   30.8270   38.0740 C   0  0  0  0  0  2  0  0  0  0  0  0
   40.6480   32.2120   37.6850 C   0  0  2  0  0  3  0  0  0  0  0  0
   40.5650   33.1290   38.8770 C   0  0  2  0  0  3  0  0  0  0  0  0
   40.8600   33.2990   41.2370 O   0  0  0  0  0  0  0  0  0  0  0  0
   41.6020   33.3530   41.8950 H   0  0  0  0  0  0  0  0  0  0  0  0
   39.4140   32.0620   37.0620 O   0  0  0  0  0  0  0  0  0  0  0  0
   38.8270   32.8490   37.1480 H   0  0  0  0  0  0  0  0  0  0  0  0
   41.1450   34.3480   38.5310 O   0  0  0  0  0  0  0  0  0  0  0  0
   42.1150   34.3010   38.4920 H   0  0  0  0  0  0  0  0  0  0  0  0
  1  7  1  0  0  0  0
  2  8  1  0  0  0  0
  2  1  2  0  0  0  0
  3  2  1  0  0  0  0
  4  3  2  0  0  0  0
  4  5  1  0  0  0  0
  5  6  2  0  0  0  0
  6  1  1  0  0  0  0
  9 15  1  0  0  0  0
  9  3  1  0  0  0  0
 10  9  1  0  0  0  0
 11 12  1  0  0  0  0
 11 10  2  0  0  0  0
 12 14  1  0  0  0  0
 13 12  2  0  0  0  0
 14 19  1  0  0  0  0
 14 15  1  0  0  0  0
 15 16  2  0  0  0  0
 17 10  1  0  0  0  0
 18 11  1  0  0  0  0
 20  5  1  0  0  0  0
 20 21  1  0  0  0  0
 22 20  1  0  0  0  0
 23 20  1  0  0  0  0
 23 24  1  0  0  0  0
 25 23  1  0  0  0  0
 26 27  1  0  0  0  0
 26 32  1  1  0  0  0
 27 23  1  1  0  0  0
 28 27  1  0  0  0  0
 29 28  1  0  0  0  0
 30 34  1  1  0  0  0
 30 29  1  0  0  0  0
 30 31  1  0  0  0  0
 31 36  1  6  0  0  0
 31 26  1  0  0  0  0
 32 33  1  0  0  0  0
 34 35  1  0  0  0  0
 37 36  1  0  0  0  0
M  END
>  <minimizedAffinity>
-6.08207703

$$$$

 OpenBabel03242521163D

 37 39  0  0  1  0  0  0  0  0999 V2000
   37.4360   33.3420   39.7410 C   0  0  0  0  0  0  0  0  0  0  0  0
   38.6530   33.3730   40.4540 C   0  0  0  0  0  0  0  0  0  0  0  0
   39.4630   32.2340   40.4080 C   0  0  0  0  0  0  0  0  0  0  0  0
   39.0370   31.1430   39.6760 N   0  0  0  0  0  0  0  0  0  0  0  0
   37.8590   31.1860   39.0180 C   0  0  0  0  0  0  0  0  0  0  0  0
   37.0490   32.2610   39.0340 N   0  0  0  0  0  0  0  0  0  0  0  0
   36.7610   34.1850   39.7300 H   0  0  0  0  0  0  0  0  0  0  0  0
   38.9290   34.2460   41.0030 H   0  0  0  0  0  0  0  0  0  0  0  0
   40.6830   32.2610   41.1220 N   0  0  0  0  0  0  0  0  0  0  0  0
   41.7390   32.8910   40.5860 C   0  0  0  0  0  0  0  0  0  0  0  0
   42.9410   32.9200   41.2860 C   0  0  0  0  0  0  0  0  0  0  0  0
   42.9880   32.2970   42.5040 C   0  0  0  0  0  0  0  0  0  0  0  0
   44.0930   32.3260   43.1430 O   0  0  0  0  0  0  0  0  0  0  0  0
   41.9460   31.6580   43.0700 N   0  0  0  0  0  0  0  0  0  0  0  0
   40.8180   31.6710   42.3340 C   0  0  0  0  0  0  0  0  0  0  0  0
   39.7850   31.1030   42.7690 O   0  0  0  0  0  0  0  0  0  0  0  0
   41.6560   33.3710   39.6170 H   0  0  0  0  0  0  0  0  0  0  0  0
   43.8280   33.4170   40.8940 H   0  0  0  0  0  0  0  0  0  0  0  0
   42.0060   31.1950   43.9910 H   0  0  0  0  0  0  0  0  0  0  0  0
   37.6530   29.8810   38.3150 C   0  0  0  0  0  0  0  0  0  0  0  0
   37.6210   30.0450   37.2080 H   0  0  0  0  0  0  0  0  0  0  0  0
   38.5500   29.2760   38.4870 H   0  0  0  0  0  0  0  0  0  0  0  0
   36.3550   29.2390   38.7280 C   0  0  0  0  0  0  0  0  0  0  0  0
   35.9930   28.5980   37.9000 H   0  0  0  0  0  0  0  0  0  0  0  0
   35.5660   29.9830   38.9490 H   0  0  0  0  0  0  0  0  0  0  0  0
   36.1330   28.9750   41.2220 C   0  0  1  0  0  3  0  0  0  0  0  0
   36.4770   28.3340   39.9310 C   0  0  2  0  0  3  0  0  0  0  0  0
   37.7650   27.7550   39.8990 O   0  0  0  0  0  0  0  0  0  0  0  0
   37.8150   26.9180   41.0120 C   0  0  0  0  0  2  0  0  0  0  0  0
   38.1490   27.8280   42.1780 C   0  0  2  0  0  3  0  0  0  0  0  0
   37.2700   29.0510   42.2020 C   0  0  2  0  0  3  0  0  0  0  0  0
   35.5070   30.2120   41.0930 O   0  0  0  0  0  0  0  0  0  0  0  0
   34.5240   30.1400   40.9730 H   0  0  0  0  0  0  0  0  0  0  0  0
   39.4940   28.1630   42.0660 O   0  0  0  0  0  0  0  0  0  0  0  0
   39.7220   29.0320   42.4690 H   0  0  0  0  0  0  0  0  0  0  0  0
   36.8220   29.2420   43.5080 O   0  0  0  0  0  0  0  0  0  0  0  0
   36.1350   28.6030   43.7630 H   0  0  0  0  0  0  0  0  0  0  0  0
  1  2  1  0  0  0  0
  2  8  1  0  0  0  0
  3  2  2  0  0  0  0
  3  9  1  0  0  0  0
  4  3  1  0  0  0  0
  5  6  1  0  0  0  0
  5  4  2  0  0  0  0
  6  1  2  0  0  0  0
  7  1  1  0  0  0  0
  9 15  1  0  0  0  0
 10  9  1  0  0  0  0
 10 11  2  0  0  0  0
 11 12  1  0  0  0  0
 12 14  1  0  0  0  0
 12 13  2  0  0  0  0
 14 19  1  0  0  0  0
 15 16  2  0  0  0  0
 15 14  1  0  0  0  0
 17 10  1  0  0  0  0
 18 11  1  0  0  0  0
 20 22  1  0  0  0  0
 20 23  1  0  0  0  0
 20  5  1  0  0  0  0
 21 20  1  0  0  0  0
 23 25  1  0  0  0  0
 24 23  1  0  0  0  0
 26 32  1  6  0  0  0
 26 31  1  0  0  0  0
 27 23  1  6  0  0  0
 27 26  1  0  0  0  0
 28 27  1  0  0  0  0
 28 29  1  0  0  0  0
 29 30  1  0  0  0  0
 30 34  1  6  0  0  0
 30 31  1  0  0  0  0
 31 36  1  1  0  0  0
 33 32  1  0  0  0  0
 34 35  1  0  0  0  0
 36 37  1  0  0  0  0
M  END
>  <minimizedAffinity>
-6.07456923

$$$$

 OpenBabel03242521163D

 37 39  0  0  1  0  0  0  0  0999 V2000
   37.0030   30.5710   38.1230 C   0  0  0  0  0  0  0  0  0  0  0  0
   37.0910   29.2990   38.7260 C   0  0  0  0  0  0  0  0  0  0  0  0
   37.7120   29.2130   39.9760 C   0  0  0  0  0  0  0  0  0  0  0  0
   38.2040   30.3650   40.5560 N   0  0  0  0  0  0  0  0  0  0  0  0
   38.0830   31.5500   39.9190 C   0  0  0  0  0  0  0  0  0  0  0  0
   37.4940   31.6790   38.7170 N   0  0  0  0  0  0  0  0  0  0  0  0
   36.5370   30.7140   37.1600 H   0  0  0  0  0  0  0  0  0  0  0  0
   36.6910   28.4430   38.2280 H   0  0  0  0  0  0  0  0  0  0  0  0
   37.8020   27.9390   40.5820 N   0  0  0  0  0  0  0  0  0  0  0  0
   38.7750   27.1000   40.1970 C   0  0  0  0  0  0  0  0  0  0  0  0
   38.8660   25.8450   40.7910 C   0  0  0  0  0  0  0  0  0  0  0  0
   37.9470   25.5250   41.7550 C   0  0  0  0  0  0  0  0  0  0  0  0
   38.0350   24.3720   42.2970 O   0  0  0  0  0  0  0  0  0  0  0  0
   36.9600   26.3440   42.1640 N   0  0  0  0  0  0  0  0  0  0  0  0
   36.9350   27.5390   41.5430 C   0  0  0  0  0  0  0  0  0  0  0  0
   36.0530   28.3800   41.8500 O   0  0  0  0  0  0  0  0  0  0  0  0
   39.4820   27.3970   39.4300 H   0  0  0  0  0  0  0  0  0  0  0  0
   39.6370   25.1270   40.5140 H   0  0  0  0  0  0  0  0  0  0  0  0
   36.2780   26.0790   42.8920 H   0  0  0  0  0  0  0  0  0  0  0  0
   38.6980   32.6170   40.7690 C   0  0  0  0  0  0  0  0  0  0  0  0
   37.8950   33.2170   41.2670 H   0  0  0  0  0  0  0  0  0  0  0  0
   39.2260   32.1150   41.5870 H   0  0  0  0  0  0  0  0  0  0  0  0
   39.5360   33.5560   39.9430 C   0  0  0  0  0  0  0  0  0  0  0  0
   39.8500   34.4080   40.5770 H   0  0  0  0  0  0  0  0  0  0  0  0
   38.9830   33.9660   39.0760 H   0  0  0  0  0  0  0  0  0  0  0  0
   42.0540   33.5190   39.9770 C   0  0  1  0  0  3  0  0  0  0  0  0
   40.8100   32.9360   39.4180 C   0  0  2  0  0  3  0  0  0  0  0  0
   40.7450   32.9590   38.0080 O   0  0  0  0  0  0  0  0  0  0  0  0
   41.9280   32.3600   37.5800 C   0  0  0  0  0  2  0  0  0  0  0  0
   42.9740   33.4560   37.6440 C   0  0  2  0  0  3  0  0  0  0  0  0
   42.9400   34.1840   38.9620 C   0  0  2  0  0  3  0  0  0  0  0  0
   41.8490   34.3490   41.0760 O   0  0  0  0  0  0  0  0  0  0  0  0
   41.8050   33.8520   41.9350 H   0  0  0  0  0  0  0  0  0  0  0  0
   42.7360   34.3130   36.5750 O   0  0  0  0  0  0  0  0  0  0  0  0
   43.0350   35.2380   36.7340 H   0  0  0  0  0  0  0  0  0  0  0  0
   44.2490   34.3190   39.4200 O   0  0  0  0  0  0  0  0  0  0  0  0
   44.6120   33.4840   39.7610 H   0  0  0  0  0  0  0  0  0  0  0  0
  1  6  2  0  0  0  0
  1  2  1  0  0  0  0
  2  3  2  0  0  0  0
  3  4  1  0  0  0  0
  3  9  1  0  0  0  0
  5  4  2  0  0  0  0
  5 20  1  0  0  0  0
  6  5  1  0  0  0  0
  7  1  1  0  0  0  0
  8  2  1  0  0  0  0
  9 15  1  0  0  0  0
 10  9  1  0  0  0  0
 10 11  2  0  0  0  0
 11 12  1  0  0  0  0
 12 14  1  0  0  0  0
 12 13  2  0  0  0  0
 14 19  1  0  0  0  0
 15 16  2  0  0  0  0
 15 14  1  0  0  0  0
 17 10  1  0  0  0  0
 18 11  1  0  0  0  0
 20 21  1  0  0  0  0
 20 22  1  0  0  0  0
 23 24  1  0  0  0  0
 23 20  1  0  0  0  0
 25 23  1  0  0  0  0
 26 32  1  1  0  0  0
 27 23  1  1  0  0  0
 27 26  1  0  0  0  0
 28 27  1  0  0  0  0
 29 30  1  0  0  0  0
 29 28  1  0  0  0  0
 30 34  1  6  0  0  0
 30 31  1  0  0  0  0
 31 36  1  1  0  0  0
 31 26  1  0  0  0  0
 32 33  1  0  0  0  0
 34 35  1  0  0  0  0
 36 37  1  0  0  0  0
M  END
>  <minimizedAffinity>
-5.99069786

$$$$

 OpenBabel03242521163D

 37 39  0  0  1  0  0  0  0  0999 V2000
   37.1620   28.2240   43.6800 C   0  0  0  0  0  0  0  0  0  0  0  0
   36.8750   27.0480   42.9570 C   0  0  0  0  0  0  0  0  0  0  0  0
   37.7480   26.6870   41.9260 C   0  0  0  0  0  0  0  0  0  0  0  0
   38.8400   27.4910   41.6670 N   0  0  0  0  0  0  0  0  0  0  0  0
   39.0530   28.6040   42.4010 C   0  0  0  0  0  0  0  0  0  0  0  0
   38.2380   28.9880   43.4010 N   0  0  0  0  0  0  0  0  0  0  0  0
   36.5330   28.5640   44.4880 H   0  0  0  0  0  0  0  0  0  0  0  0
   36.0140   26.4650   43.2040 H   0  0  0  0  0  0  0  0  0  0  0  0
   37.4620   25.5080   41.2000 N   0  0  0  0  0  0  0  0  0  0  0  0
   37.9130   24.3310   41.6600 C   0  0  0  0  0  0  0  0  0  0  0  0
   37.6330   23.1700   40.9470 C   0  0  0  0  0  0  0  0  0  0  0  0
   36.9000   23.2860   39.7970 C   0  0  0  0  0  0  0  0  0  0  0  0
   36.6460   22.2160   39.1460 O   0  0  0  0  0  0  0  0  0  0  0  0
   36.4320   24.4500   39.3090 N   0  0  0  0  0  0  0  0  0  0  0  0
   36.7430   25.5300   40.0510 C   0  0  0  0  0  0  0  0  0  0  0  0
   36.3550   26.6680   39.6870 O   0  0  0  0  0  0  0  0  0  0  0  0
   38.4900   24.2880   42.5770 H   0  0  0  0  0  0  0  0  0  0  0  0
   37.9770   22.1900   41.2780 H   0  0  0  0  0  0  0  0  0  0  0  0
   35.8810   24.5120   38.4380 H   0  0  0  0  0  0  0  0  0  0  0  0
   40.2950   29.2760   41.9070 C   0  0  0  0  0  0  0  0  0  0  0  0
   41.0160   29.4120   42.7520 H   0  0  0  0  0  0  0  0  0  0  0  0
   40.7890   28.5790   41.2210 H   0  0  0  0  0  0  0  0  0  0  0  0
   39.9880   30.6340   41.3340 C   0  0  0  0  0  0  0  0  0  0  0  0
   40.8780   31.0010   40.7860 H   0  0  0  0  0  0  0  0  0  0  0  0
   39.7420   31.3780   42.1150 H   0  0  0  0  0  0  0  0  0  0  0  0
   39.2790   30.8160   38.9240 C   0  0  1  0  0  3  0  0  0  0  0  0
   38.8560   30.6320   40.3330 C   0  0  2  0  0  3  0  0  0  0  0  0
   37.8970   31.5700   40.7750 O   0  0  0  0  0  0  0  0  0  0  0  0
   36.8720   31.5120   39.8330 C   0  0  0  0  0  2  0  0  0  0  0  0
   37.3370   32.3870   38.6860 C   0  0  2  0  0  3  0  0  0  0  0  0
   38.7490   32.0620   38.2730 C   0  0  2  0  0  3  0  0  0  0  0  0
   40.6510   30.6960   38.7220 O   0  0  0  0  0  0  0  0  0  0  0  0
   40.9440   29.7570   38.5910 H   0  0  0  0  0  0  0  0  0  0  0  0
   37.2120   33.7080   39.0990 O   0  0  0  0  0  0  0  0  0  0  0  0
   37.8430   34.3240   38.6600 H   0  0  0  0  0  0  0  0  0  0  0  0
   38.7910   31.9830   36.8830 O   0  0  0  0  0  0  0  0  0  0  0  0
   38.3840   31.1690   36.5430 H   0  0  0  0  0  0  0  0  0  0  0  0
  1  7  1  0  0  0  0
  2  8  1  0  0  0  0
  2  1  2  0  0  0  0
  3  2  1  0  0  0  0
  4  3  2  0  0  0  0
  4  5  1  0  0  0  0
  5  6  2  0  0  0  0
  6  1  1  0  0  0  0
  9 10  1  0  0  0  0
  9  3  1  0  0  0  0
 10 17  1  0  0  0  0
 11 18  1  0  0  0  0
 11 10  2  0  0  0  0
 12 11  1  0  0  0  0
 13 12  2  0  0  0  0
 14 12  1  0  0  0  0
 14 15  1  0  0  0  0
 15  9  1  0  0  0  0
 16 15  2  0  0  0  0
 19 14  1  0  0  0  0
 20  5  1  0  0  0  0
 20 21  1  0  0  0  0
 22 20  1  0  0  0  0
 23 20  1  0  0  0  0
 23 25  1  0  0  0  0
 24 23  1  0  0  0  0
 26 32  1  1  0  0  0
 26 27  1  0  0  0  0
 27 28  1  0  0  0  0
 27 23  1  1  0  0  0
 29 28  1  0  0  0  0
 30 34  1  1  0  0  0
 30 29  1  0  0  0  0
 31 36  1  6  0  0  0
 31 30  1  0  0  0  0
 31 26  1  0  0  0  0
 33 32  1  0  0  0  0
 35 34  1  0  0  0  0
 37 36  1  0  0  0  0
M  END
>  <minimizedAffinity>
-5.84336519

$$$$

 OpenBabel03242521163D

 37 39  0  0  1  0  0  0  0  0999 V2000
   37.0200   25.1320   39.8240 C   0  0  0  0  0  0  0  0  0  0  0  0
   36.7140   25.9040   38.6840 C   0  0  0  0  0  0  0  0  0  0  0  0
   37.4200   27.0960   38.4960 C   0  0  0  0  0  0  0  0  0  0  0  0
   38.3740   27.4590   39.4270 N   0  0  0  0  0  0  0  0  0  0  0  0
   38.6140   26.6680   40.4950 C   0  0  0  0  0  0  0  0  0  0  0  0
   37.9590   25.5140   40.7140 N   0  0  0  0  0  0  0  0  0  0  0  0
   36.5160   24.2000   40.0330 H   0  0  0  0  0  0  0  0  0  0  0  0
   35.9650   25.5720   37.9990 H   0  0  0  0  0  0  0  0  0  0  0  0
   37.1150   27.8720   37.3550 N   0  0  0  0  0  0  0  0  0  0  0  0
   36.0510   28.6890   37.3850 C   0  0  0  0  0  0  0  0  0  0  0  0
   35.7480   29.4530   36.2620 C   0  0  0  0  0  0  0  0  0  0  0  0
   36.5630   29.3350   35.1680 C   0  0  0  0  0  0  0  0  0  0  0  0
   36.2800   30.0380   34.1400 O   0  0  0  0  0  0  0  0  0  0  0  0
   37.6380   28.5260   35.1060 N   0  0  0  0  0  0  0  0  0  0  0  0
   37.8670   27.8170   36.2290 C   0  0  0  0  0  0  0  0  0  0  0  0
   38.8460   27.0310   36.2790 O   0  0  0  0  0  0  0  0  0  0  0  0
   35.4340   28.7500   38.2740 H   0  0  0  0  0  0  0  0  0  0  0  0
   34.8950   30.1300   36.2350 H   0  0  0  0  0  0  0  0  0  0  0  0
   38.2360   28.4540   34.2690 H   0  0  0  0  0  0  0  0  0  0  0  0
   39.6860   27.2990   41.3280 C   0  0  0  0  0  0  0  0  0  0  0  0
   40.4630   26.5360   41.5890 H   0  0  0  0  0  0  0  0  0  0  0  0
   40.2040   28.0260   40.6920 H   0  0  0  0  0  0  0  0  0  0  0  0
   39.1240   27.8500   42.6110 C   0  0  0  0  0  0  0  0  0  0  0  0
   39.8900   27.7590   43.4060 H   0  0  0  0  0  0  0  0  0  0  0  0
   38.2220   27.3050   42.9470 H   0  0  0  0  0  0  0  0  0  0  0  0
   37.3170   29.5980   42.4660 C   0  0  1  0  0  3  0  0  0  0  0  0
   38.7700   29.3170   42.5420 C   0  0  2  0  0  3  0  0  0  0  0  0
   39.5240   29.8880   41.4920 O   0  0  0  0  0  0  0  0  0  0  0  0
   39.1760   31.2370   41.4880 C   0  0  0  0  0  2  0  0  0  0  0  0
   37.8720   31.3090   40.7180 C   0  0  2  0  0  3  0  0  0  0  0  0
   36.8800   30.2850   41.2040 C   0  0  2  0  0  3  0  0  0  0  0  0
   36.5100   28.4950   42.7350 O   0  0  0  0  0  0  0  0  0  0  0  0
   36.3410   28.3640   43.7050 H   0  0  0  0  0  0  0  0  0  0  0  0
   38.1780   31.1330   39.3730 O   0  0  0  0  0  0  0  0  0  0  0  0
   37.4430   30.7430   38.8460 H   0  0  0  0  0  0  0  0  0  0  0  0
   35.6430   30.9090   41.3490 O   0  0  0  0  0  0  0  0  0  0  0  0
   35.6050   31.4830   42.1330 H   0  0  0  0  0  0  0  0  0  0  0  0
  1  7  1  0  0  0  0
  1  6  1  0  0  0  0
  2  1  2  0  0  0  0
  3  2  1  0  0  0  0
  3  4  2  0  0  0  0
  4  5  1  0  0  0  0
  5  6  2  0  0  0  0
  5 20  1  0  0  0  0
  8  2  1  0  0  0  0
  9 10  1  0  0  0  0
  9  3  1  0  0  0  0
 10 17  1  0  0  0  0
 11 10  2  0  0  0  0
 12 11  1  0  0  0  0
 13 12  2  0  0  0  0
 14 12  1  0  0  0  0
 14 15  1  0  0  0  0
 15 16  2  0  0  0  0
 15  9  1  0  0  0  0
 18 11  1  0  0  0  0
 19 14  1  0  0  0  0
 20 21  1  0  0  0  0
 20 23  1  0  0  0  0
 22 20  1  0  0  0  0
 23 25  1  0  0  0  0
 23 24  1  0  0  0  0
 26 27  1  0  0  0  0
 26 32  1  6  0  0  0
 27 23  1  6  0  0  0
 28 27  1  0  0  0  0
 29 28  1  0  0  0  0
 30 34  1  6  0  0  0
 30 31  1  0  0  0  0
 30 29  1  0  0  0  0
 31 36  1  1  0  0  0
 31 26  1  0  0  0  0
 32 33  1  0  0  0  0
 35 34  1  0  0  0  0
 36 37  1  0  0  0  0
M  END
>  <minimizedAffinity>
-5.80290031

$$$$

 OpenBabel03242521163D

 37 39  0  0  1  0  0  0  0  0999 V2000
   38.2760   27.2840   36.7380 C   0  0  0  0  0  0  0  0  0  0  0  0
   38.6430   26.5160   37.8640 C   0  0  0  0  0  0  0  0  0  0  0  0
   38.2530   26.9800   39.1230 C   0  0  0  0  0  0  0  0  0  0  0  0
   37.5340   28.1560   39.2070 N   0  0  0  0  0  0  0  0  0  0  0  0
   37.2170   28.8390   38.0850 C   0  0  0  0  0  0  0  0  0  0  0  0
   37.5720   28.4290   36.8540 N   0  0  0  0  0  0  0  0  0  0  0  0
   38.5420   26.9870   35.7350 H   0  0  0  0  0  0  0  0  0  0  0  0
   39.2000   25.6140   37.7360 H   0  0  0  0  0  0  0  0  0  0  0  0
   38.6190   26.2130   40.2530 N   0  0  0  0  0  0  0  0  0  0  0  0
   37.8510   25.1740   40.6140 C   0  0  0  0  0  0  0  0  0  0  0  0
   38.2100   24.4180   41.7260 C   0  0  0  0  0  0  0  0  0  0  0  0
   39.3450   24.7730   42.4030 C   0  0  0  0  0  0  0  0  0  0  0  0
   39.6700   24.0760   43.4230 O   0  0  0  0  0  0  0  0  0  0  0  0
   40.1380   25.8080   42.0660 N   0  0  0  0  0  0  0  0  0  0  0  0
   39.7270   26.4940   40.9820 C   0  0  0  0  0  0  0  0  0  0  0  0
   40.3940   27.4800   40.5800 O   0  0  0  0  0  0  0  0  0  0  0  0
   36.9600   24.9290   40.0470 H   0  0  0  0  0  0  0  0  0  0  0  0
   37.6200   23.5650   42.0610 H   0  0  0  0  0  0  0  0  0  0  0  0
   40.9890   26.0570   42.5940 H   0  0  0  0  0  0  0  0  0  0  0  0
   36.4440   30.0610   38.4690 C   0  0  0  0  0  0  0  0  0  0  0  0
   35.4990   30.1160   37.8720 H   0  0  0  0  0  0  0  0  0  0  0  0
   36.1180   29.9250   39.5060 H   0  0  0  0  0  0  0  0  0  0  0  0
   37.2370   31.3130   38.2020 C   0  0  0  0  0  0  0  0  0  0  0  0
   36.5690   32.1900   38.3070 H   0  0  0  0  0  0  0  0  0  0  0  0
   37.6640   31.3340   37.1810 H   0  0  0  0  0  0  0  0  0  0  0  0
   38.0590   32.4730   40.2800 C   0  0  1  0  0  3  0  0  0  0  0  0
   38.3710   31.5360   39.1750 C   0  0  2  0  0  3  0  0  0  0  0  0
   39.5130   31.8900   38.4230 O   0  0  0  0  0  0  0  0  0  0  0  0
   40.5280   32.0610   39.3630 C   0  0  0  0  0  2  0  0  0  0  0  0
   40.3330   33.4640   39.9040 C   0  0  2  0  0  3  0  0  0  0  0  0
   38.9010   33.7170   40.2970 C   0  0  2  0  0  3  0  0  0  0  0  0
   36.7080   32.7870   40.3950 O   0  0  0  0  0  0  0  0  0  0  0  0
   36.1990   32.1270   40.9340 H   0  0  0  0  0  0  0  0  0  0  0  0
   40.7620   34.3480   38.9210 O   0  0  0  0  0  0  0  0  0  0  0  0
   40.3170   35.2270   38.9540 H   0  0  0  0  0  0  0  0  0  0  0  0
   38.8930   34.3360   41.5460 O   0  0  0  0  0  0  0  0  0  0  0  0
   39.1020   33.7200   42.2680 H   0  0  0  0  0  0  0  0  0  0  0  0
  1  6  2  0  0  0  0
  1  2  1  0  0  0  0
  2  3  2  0  0  0  0
  3  4  1  0  0  0  0
  3  9  1  0  0  0  0
  5 20  1  0  0  0  0
  5  4  2  0  0  0  0
  6  5  1  0  0  0  0
  7  1  1  0  0  0  0
  8  2  1  0  0  0  0
  9 10  1  0  0  0  0
  9 15  1  0  0  0  0
 10 11  2  0  0  0  0
 11 18  1  0  0  0  0
 11 12  1  0  0  0  0
 12 13  2  0  0  0  0
 14 12  1  0  0  0  0
 14 19  1  0  0  0  0
 15 14  1  0  0  0  0
 16 15  2  0  0  0  0
 17 10  1  0  0  0  0
 20 22  1  0  0  0  0
 21 20  1  0  0  0  0
 23 24  1  0  0  0  0
 23 20  1  0  0  0  0
 25 23  1  0  0  0  0
 26 31  1  0  0  0  0
 26 32  1  6  0  0  0
 27 23  1  6  0  0  0
 27 26  1  0  0  0  0
 28 27  1  0  0  0  0
 28 29  1  0  0  0  0
 29 30  1  0  0  0  0
 30 34  1  6  0  0  0
 30 31  1  0  0  0  0
 31 36  1  1  0  0  0
 32 33  1  0  0  0  0
 34 35  1  0  0  0  0
 36 37  1  0  0  0  0
M  END
>  <minimizedAffinity>
-5.74852037

$$$$

 OpenBabel03242521163D

 37 39  0  0  1  0  0  0  0  0999 V2000
   35.8310   27.3760   37.9380 C   0  0  0  0  0  0  0  0  0  0  0  0
   36.1920   28.7260   38.1300 C   0  0  0  0  0  0  0  0  0  0  0  0
   36.9220   29.0490   39.2780 C   0  0  0  0  0  0  0  0  0  0  0  0
   37.2520   28.0410   40.1620 N   0  0  0  0  0  0  0  0  0  0  0  0
   36.8730   26.7690   39.9130 C   0  0  0  0  0  0  0  0  0  0  0  0
   36.1700   26.4140   38.8210 N   0  0  0  0  0  0  0  0  0  0  0  0
   35.2690   27.0530   37.0750 H   0  0  0  0  0  0  0  0  0  0  0  0
   35.9080   29.4630   37.4100 H   0  0  0  0  0  0  0  0  0  0  0  0
   37.2850   30.4020   39.4720 N   0  0  0  0  0  0  0  0  0  0  0  0
   38.3180   30.9060   38.7810 C   0  0  0  0  0  0  0  0  0  0  0  0
   38.6770   32.2370   38.9700 C   0  0  0  0  0  0  0  0  0  0  0  0
   37.9470   32.9770   39.8630 C   0  0  0  0  0  0  0  0  0  0  0  0
   38.2810   34.1980   40.0330 O   0  0  0  0  0  0  0  0  0  0  0  0
   36.9050   32.5000   40.5700 N   0  0  0  0  0  0  0  0  0  0  0  0
   36.6180   31.2050   40.3350 C   0  0  0  0  0  0  0  0  0  0  0  0
   35.6630   30.6600   40.9430 O   0  0  0  0  0  0  0  0  0  0  0  0
   38.8660   30.2830   38.0840 H   0  0  0  0  0  0  0  0  0  0  0  0
   39.5070   32.6950   38.4350 H   0  0  0  0  0  0  0  0  0  0  0  0
   36.3720   33.0780   41.2390 H   0  0  0  0  0  0  0  0  0  0  0  0
   37.3610   25.8950   41.0250 C   0  0  0  0  0  0  0  0  0  0  0  0
   36.6210   25.8990   41.8650 H   0  0  0  0  0  0  0  0  0  0  0  0
   37.3620   24.8650   40.6510 H   0  0  0  0  0  0  0  0  0  0  0  0
   38.6790   26.3850   41.5640 C   0  0  0  0  0  0  0  0  0  0  0  0
   38.6120   26.4540   42.6670 H   0  0  0  0  0  0  0  0  0  0  0  0
   38.9470   27.3880   41.1790 H   0  0  0  0  0  0  0  0  0  0  0  0
   40.5800   25.0090   42.4760 C   0  0  1  0  0  3  0  0  0  0  0  0
   39.8380   25.4610   41.2750 C   0  0  2  0  0  3  0  0  0  0  0  0
   40.6460   26.0840   40.2980 O   0  0  0  0  0  0  0  0  0  0  0  0
   41.6820   25.1840   40.0560 C   0  0  0  0  0  2  0  0  0  0  0  0
   42.6820   25.4200   41.1700 C   0  0  2  0  0  3  0  0  0  0  0  0
   42.0170   25.4460   42.5220 C   0  0  2  0  0  3  0  0  0  0  0  0
   39.9380   25.2900   43.6800 O   0  0  0  0  0  0  0  0  0  0  0  0
   39.2780   24.5950   43.9390 H   0  0  0  0  0  0  0  0  0  0  0  0
   43.3320   26.6180   40.8930 O   0  0  0  0  0  0  0  0  0  0  0  0
   43.6650   27.0840   41.6940 H   0  0  0  0  0  0  0  0  0  0  0  0
   42.7720   24.6670   43.3960 O   0  0  0  0  0  0  0  0  0  0  0  0
   42.6640   23.7150   43.2340 H   0  0  0  0  0  0  0  0  0  0  0  0
  1  2  2  0  0  0  0
  1  6  1  0  0  0  0
  2  3  1  0  0  0  0
  3  9  1  0  0  0  0
  3  4  2  0  0  0  0
  5  4  1  0  0  0  0
  5 20  1  0  0  0  0
  6  5  2  0  0  0  0
  7  1  1  0  0  0  0
  8  2  1  0  0  0  0
  9 15  1  0  0  0  0
 10 11  2  0  0  0  0
 10  9  1  0  0  0  0
 11 12  1  0  0  0  0
 12 13  2  0  0  0  0
 12 14  1  0  0  0  0
 14 19  1  0  0  0  0
 15 14  1  0  0  0  0
 15 16  2  0  0  0  0
 17 10  1  0  0  0  0
 18 11  1  0  0  0  0
 20 23  1  0  0  0  0
 20 21  1  0  0  0  0
 22 20  1  0  0  0  0
 23 24  1  0  0  0  0
 25 23  1  0  0  0  0
 26 31  1  0  0  0  0
 26 32  1  1  0  0  0
 27 23  1  1  0  0  0
 27 26  1  0  0  0  0
 28 27  1  0  0  0  0
 29 28  1  0  0  0  0
 29 30  1  0  0  0  0
 30 34  1  6  0  0  0
 30 31  1  0  0  0  0
 31 36  1  1  0  0  0
 32 33  1  0  0  0  0
 34 35  1  0  0  0  0
 37 36  1  0  0  0  0
M  END
>  <minimizedAffinity>
-5.66140223

$$$$

 OpenBabel03242521163D

 37 39  0  0  1  0  0  0  0  0999 V2000
   39.7180   29.1210   42.7730 C   0  0  0  0  0  0  0  0  0  0  0  0
   39.5860   27.7550   42.4470 C   0  0  0  0  0  0  0  0  0  0  0  0
   38.4100   27.3490   41.8100 C   0  0  0  0  0  0  0  0  0  0  0  0
   37.4430   28.2940   41.5320 N   0  0  0  0  0  0  0  0  0  0  0  0
   37.6390   29.5860   41.8730 C   0  0  0  0  0  0  0  0  0  0  0  0
   38.7540   30.0200   42.4870 N   0  0  0  0  0  0  0  0  0  0  0  0
   40.5980   29.5070   43.2650 H   0  0  0  0  0  0  0  0  0  0  0  0
   40.3700   27.0700   42.6880 H   0  0  0  0  0  0  0  0  0  0  0  0
   38.2750   25.9800   41.4820 N   0  0  0  0  0  0  0  0  0  0  0  0
   38.6040   25.0540   42.3960 C   0  0  0  0  0  0  0  0  0  0  0  0
   38.4730   23.7070   42.0760 C   0  0  0  0  0  0  0  0  0  0  0  0
   38.0060   23.3870   40.8290 C   0  0  0  0  0  0  0  0  0  0  0  0
   37.8870   22.1480   40.5400 O   0  0  0  0  0  0  0  0  0  0  0  0
   37.6670   24.2910   39.8910 N   0  0  0  0  0  0  0  0  0  0  0  0
   37.8210   25.5740   40.2710 C   0  0  0  0  0  0  0  0  0  0  0  0
   37.5340   26.4990   39.4720 O   0  0  0  0  0  0  0  0  0  0  0  0
   38.9690   25.3550   43.3710 H   0  0  0  0  0  0  0  0  0  0  0  0
   38.7270   22.9160   42.7810 H   0  0  0  0  0  0  0  0  0  0  0  0
   37.3180   24.0250   38.9570 H   0  0  0  0  0  0  0  0  0  0  0  0
   36.4410   30.3800   41.4560 C   0  0  0  0  0  0  0  0  0  0  0  0
   35.6610   29.6990   41.0310 H   0  0  0  0  0  0  0  0  0  0  0  0
   35.9920   30.7920   42.3670 H   0  0  0  0  0  0  0  0  0  0  0  0
   36.7990   31.3930   40.4010 C   0  0  0  0  0  0  0  0  0  0  0  0
   37.4280   32.1810   40.8600 H   0  0  0  0  0  0  0  0  0  0  0  0
   35.9080   31.8840   39.9650 H   0  0  0  0  0  0  0  0  0  0  0  0
   38.1300   31.8380   38.3100 C   0  0  1  0  0  3  0  0  0  0  0  0
   37.6110   30.8260   39.2610 C   0  0  2  0  0  3  0  0  0  0  0  0
   36.8420   29.8070   38.6560 O   0  0  0  0  0  0  0  0  0  0  0  0
   37.6430   29.3070   37.6310 C   0  0  0  0  0  2  0  0  0  0  0  0
   37.4520   30.2690   36.4740 C   0  0  2  0  0  3  0  0  0  0  0  0
   37.6050   31.7030   36.9090 C   0  0  2  0  0  3  0  0  0  0  0  0
   38.0130   33.1510   38.7590 O   0  0  0  0  0  0  0  0  0  0  0  0
   38.7720   33.4350   39.3320 H   0  0  0  0  0  0  0  0  0  0  0  0
   36.1920   30.0240   35.9390 O   0  0  0  0  0  0  0  0  0  0  0  0
   35.7870   30.8080   35.5020 H   0  0  0  0  0  0  0  0  0  0  0  0
   38.4150   32.3560   35.9830 O   0  0  0  0  0  0  0  0  0  0  0  0
   39.3520   32.1110   36.0690 H   0  0  0  0  0  0  0  0  0  0  0  0
  1  7  1  0  0  0  0
  2  8  1  0  0  0  0
  2  1  2  0  0  0  0
  3  2  1  0  0  0  0
  4  3  2  0  0  0  0
  4  5  1  0  0  0  0
  5  6  2  0  0  0  0
  6  1  1  0  0  0  0
  9  3  1  0  0  0  0
  9 10  1  0  0  0  0
 10 17  1  0  0  0  0
 11 10  2  0  0  0  0
 11 18  1  0  0  0  0
 12 11  1  0  0  0  0
 13 12  2  0  0  0  0
 14 15  1  0  0  0  0
 14 12  1  0  0  0  0
 15  9  1  0  0  0  0
 16 15  2  0  0  0  0
 19 14  1  0  0  0  0
 20  5  1  0  0  0  0
 20 22  1  0  0  0  0
 21 20  1  0  0  0  0
 23 24  1  0  0  0  0
 23 20  1  0  0  0  0
 25 23  1  0  0  0  0
 26 32  1  1  0  0  0
 26 27  1  0  0  0  0
 27 23  1  1  0  0  0
 28 27  1  0  0  0  0
 29 28  1  0  0  0  0
 30 34  1  1  0  0  0
 30 31  1  0  0  0  0
 30 29  1  0  0  0  0
 31 36  1  6  0  0  0
 31 26  1  0  0  0  0
 32 33  1  0  0  0  0
 35 34  1  0  0  0  0
 36 37  1  0  0  0  0
M  END
>  <minimizedAffinity>
-5.56174469

$$$$
