
 OpenBabel03242516423D

 35 36  0  0  1  0  0  0  0  0999 V2000
   37.3310   28.6720   40.7830 O   0  0  0  0  0  0  0  0  0  0  0  0
   36.2000   28.1650   41.3960 C   0  0  0  0  0  0  0  0  0  0  0  0
   35.3700   28.9020   41.4380 H   0  0  0  0  0  0  0  0  0  0  0  0
   35.8610   27.2350   40.8870 H   0  0  0  0  0  0  0  0  0  0  0  0
   36.5490   27.7690   42.8110 C   0  0  0  0  0  0  0  0  0  0  0  0
   35.6410   27.3780   43.3130 H   0  0  0  0  0  0  0  0  0  0  0  0
   36.9310   28.6150   43.4070 H   0  0  0  0  0  0  0  0  0  0  0  0
   38.2380   24.4790   42.1350 C   0  0  0  0  0  0  0  0  0  0  0  0
   37.2490   25.5110   42.1620 C   0  0  0  0  0  0  0  0  0  0  0  0
   37.5760   26.7080   42.7790 C   0  0  0  0  0  0  0  0  0  0  0  0
   38.8040   26.8610   43.3270 N   0  0  0  0  0  0  0  0  0  0  0  0
   39.7100   25.8580   43.2770 C   0  0  0  0  0  0  0  0  0  0  0  0
   39.4390   24.6850   42.6940 N   0  0  0  0  0  0  0  0  0  0  0  0
   37.9400   23.2510   41.5240 N   0  0  0  0  0  0  0  0  0  0  0  0
   36.3020   25.2790   41.6930 H   0  0  0  0  0  0  0  0  0  0  0  0
   40.6590   26.0880   43.7460 H   0  0  0  0  0  0  0  0  0  0  0  0
   37.5930   22.7140   42.3680 H   0  0  0  0  0  0  0  0  0  0  0  0
   38.0490   22.9990   40.5360 H   0  0  0  0  0  0  0  0  0  0  0  0
   38.3840   30.5180   42.3130 O   0  0  0  0  0  0  0  0  0  0  0  0
   37.4980   30.3340   41.1020 P   0  0  2  0  0  0  0  0  0  0  0  0
   35.9510   30.9600   41.3120 O   0  0  0  0  0  0  0  0  0  0  0  0
   35.2830   30.2850   41.5690 H   0  0  0  0  0  0  0  0  0  0  0  0
   38.1510   31.1130   39.7500 O   0  0  0  0  0  0  0  0  0  0  0  0
   40.0070   30.6450   38.3510 C   0  0  1  0  0  3  0  0  0  0  0  0
   39.5230   31.1110   39.7030 C   0  0  1  0  0  3  0  0  0  0  0  0
   40.1070   32.2650   40.1580 O   0  0  0  0  0  0  0  0  0  0  0  0
   40.1910   33.2860   39.2230 C   0  0  0  0  0  2  0  0  0  0  0  0
   41.1010   32.7990   38.1140 C   0  0  1  0  0  3  0  0  0  0  0  0
   40.2950   31.7390   37.3810 C   0  0  2  0  0  3  0  0  0  0  0  0
   41.1740   29.8630   38.4860 O   0  0  0  0  0  0  0  0  0  0  0  0
   41.6240   30.1740   39.3230 H   0  0  0  0  0  0  0  0  0  0  0  0
   41.5170   33.8130   37.2640 O   0  0  0  0  0  0  0  0  0  0  0  0
   41.2540   33.5760   36.3400 H   0  0  0  0  0  0  0  0  0  0  0  0
   39.1170   32.2630   36.8760 O   0  0  0  0  0  0  0  0  0  0  0  0
   39.1480   33.2050   36.6270 H   0  0  0  0  0  0  0  0  0  0  0  0
  1 20  1  0  0  0  0
  1  2  1  0  0  0  0
  2  3  1  0  0  0  0
  2  5  1  0  0  0  0
  4  2  1  0  0  0  0
  5  6  1  0  0  0  0
  5  7  1  0  0  0  0
  8  9  2  0  0  0  0
  8 13  1  0  0  0  0
  9 10  1  0  0  0  0
 10  5  1  0  0  0  0
 10 11  2  0  0  0  0
 12 11  1  0  0  0  0
 12 16  1  0  0  0  0
 13 12  2  0  0  0  0
 14  8  1  0  0  0  0
 14 17  1  0  0  0  0
 15  9  1  0  0  0  0
 18 14  1  0  0  0  0
 20 21  1  0  0  0  0
 20 19  2  1  0  0  0
 21 22  1  0  0  0  0
 23 20  1  0  0  0  0
 24 30  1  1  0  0  0
 24 25  1  0  0  0  0
 25 23  1  6  0  0  0
 25 26  1  0  0  0  0
 27 26  1  0  0  0  0
 28 32  1  6  0  0  0
 28 27  1  0  0  0  0
 29 34  1  1  0  0  0
 29 28  1  0  0  0  0
 29 24  1  0  0  0  0
 30 31  1  0  0  0  0
 33 32  1  0  0  0  0
 35 34  1  0  0  0  0
M  END
>  <minimizedAffinity>
-5.8380847

$$$$

 OpenBabel03242516423D

 35 36  0  0  1  0  0  0  0  0999 V2000
   36.7010   27.7340   40.9190 O   0  0  0  0  0  0  0  0  0  0  0  0
   35.6540   28.5400   40.5100 C   0  0  0  0  0  0  0  0  0  0  0  0
   34.6680   28.0340   40.5960 H   0  0  0  0  0  0  0  0  0  0  0  0
   35.6460   29.4950   41.0810 H   0  0  0  0  0  0  0  0  0  0  0  0
   35.8650   28.9140   39.0620 C   0  0  0  0  0  0  0  0  0  0  0  0
   34.8790   28.9890   38.5600 H   0  0  0  0  0  0  0  0  0  0  0  0
   36.4720   28.1730   38.5160 H   0  0  0  0  0  0  0  0  0  0  0  0
   37.8340   31.8320   37.7410 C   0  0  0  0  0  0  0  0  0  0  0  0
   37.1730   30.5650   37.8090 C   0  0  0  0  0  0  0  0  0  0  0  0
   36.5410   30.2260   38.9940 C   0  0  0  0  0  0  0  0  0  0  0  0
   36.5670   31.0910   40.0340 N   0  0  0  0  0  0  0  0  0  0  0  0
   37.2030   32.2800   39.9260 C   0  0  0  0  0  0  0  0  0  0  0  0
   37.8280   32.6500   38.8030 N   0  0  0  0  0  0  0  0  0  0  0  0
   38.4910   32.2070   36.5590 N   0  0  0  0  0  0  0  0  0  0  0  0
   37.2170   29.9550   36.9170 H   0  0  0  0  0  0  0  0  0  0  0  0
   37.1600   32.8930   40.8180 H   0  0  0  0  0  0  0  0  0  0  0  0
   39.4650   31.8590   36.7800 H   0  0  0  0  0  0  0  0  0  0  0  0
   38.0910   32.6830   35.7430 H   0  0  0  0  0  0  0  0  0  0  0  0
   36.3680   27.2010   43.4610 O   0  0  0  0  0  0  0  0  0  0  0  0
   37.1490   28.0910   42.5210 P   0  0  2  0  0  0  0  0  0  0  0  0
   36.8600   29.7290   42.7670 O   0  0  0  0  0  0  0  0  0  0  0  0
   36.1980   30.1110   42.1490 H   0  0  0  0  0  0  0  0  0  0  0  0
   38.8140   27.8630   42.7130 O   0  0  0  0  0  0  0  0  0  0  0  0
   40.7140   27.1910   41.4650 C   0  0  1  0  0  3  0  0  0  0  0  0
   39.3350   26.8360   41.9650 C   0  0  1  0  0  3  0  0  0  0  0  0
   39.2350   25.6010   42.5510 O   0  0  0  0  0  0  0  0  0  0  0  0
   40.2400   25.2990   43.4560 C   0  0  0  0  0  2  0  0  0  0  0  0
   41.5400   25.2570   42.6780 C   0  0  1  0  0  3  0  0  0  0  0  0
   41.8320   26.7070   42.3240 C   0  0  2  0  0  3  0  0  0  0  0  0
   40.9140   26.6860   40.1630 O   0  0  0  0  0  0  0  0  0  0  0  0
   40.3230   25.8840   40.0800 H   0  0  0  0  0  0  0  0  0  0  0  0
   42.5820   24.6780   43.3870 O   0  0  0  0  0  0  0  0  0  0  0  0
   43.3270   25.3280   43.4380 H   0  0  0  0  0  0  0  0  0  0  0  0
   41.9470   27.4900   43.4600 O   0  0  0  0  0  0  0  0  0  0  0  0
   42.2880   27.0350   44.2510 H   0  0  0  0  0  0  0  0  0  0  0  0
  1 20  1  0  0  0  0
  2  3  1  0  0  0  0
  2  1  1  0  0  0  0
  2  4  1  0  0  0  0
  5  2  1  0  0  0  0
  6  5  1  0  0  0  0
  7  5  1  0  0  0  0
  8  9  2  0  0  0  0
  8 13  1  0  0  0  0
  9 10  1  0  0  0  0
 10  5  1  0  0  0  0
 10 11  2  0  0  0  0
 12 11  1  0  0  0  0
 12 16  1  0  0  0  0
 13 12  2  0  0  0  0
 14 17  1  0  0  0  0
 14  8  1  0  0  0  0
 15  9  1  0  0  0  0
 18 14  1  0  0  0  0
 20 23  1  0  0  0  0
 20 21  1  0  0  0  0
 20 19  2  1  0  0  0
 22 21  1  0  0  0  0
 24 30  1  6  0  0  0
 24 25  1  0  0  0  0
 24 29  1  0  0  0  0
 25 26  1  0  0  0  0
 25 23  1  1  0  0  0
 26 27  1  0  0  0  0
 28 32  1  1  0  0  0
 28 27  1  0  0  0  0
 29 28  1  0  0  0  0
 29 34  1  1  0  0  0
 31 30  1  0  0  0  0
 32 33  1  0  0  0  0
 34 35  1  0  0  0  0
M  END
>  <minimizedAffinity>
-5.58223248

$$$$

 OpenBabel03242516423D

 35 36  0  0  1  0  0  0  0  0999 V2000
   36.1830   30.3740   38.4680 O   0  0  0  0  0  0  0  0  0  0  0  0
   37.3710   29.8430   37.9990 C   0  0  0  0  0  0  0  0  0  0  0  0
   37.8720   29.1930   38.7470 H   0  0  0  0  0  0  0  0  0  0  0  0
   37.2040   29.2810   37.0530 H   0  0  0  0  0  0  0  0  0  0  0  0
   38.3100   30.9760   37.6590 C   0  0  0  0  0  0  0  0  0  0  0  0
   37.8670   31.5820   36.8430 H   0  0  0  0  0  0  0  0  0  0  0  0
   39.2990   30.6220   37.3240 H   0  0  0  0  0  0  0  0  0  0  0  0
   39.5360   32.2190   40.9890 C   0  0  0  0  0  0  0  0  0  0  0  0
   39.3650   31.3960   39.8310 C   0  0  0  0  0  0  0  0  0  0  0  0
   38.4890   31.8310   38.8500 C   0  0  0  0  0  0  0  0  0  0  0  0
   37.8340   33.0040   39.0140 N   0  0  0  0  0  0  0  0  0  0  0  0
   38.0270   33.7520   40.1240 C   0  0  0  0  0  0  0  0  0  0  0  0
   38.8610   33.3720   41.0990 N   0  0  0  0  0  0  0  0  0  0  0  0
   40.4100   31.8080   42.0070 N   0  0  0  0  0  0  0  0  0  0  0  0
   39.9390   30.4800   39.8070 H   0  0  0  0  0  0  0  0  0  0  0  0
   37.4530   34.6700   40.1510 H   0  0  0  0  0  0  0  0  0  0  0  0
   39.7250   31.2990   42.6330 H   0  0  0  0  0  0  0  0  0  0  0  0
   41.4190   31.9810   42.0750 H   0  0  0  0  0  0  0  0  0  0  0  0
   34.5600   29.0590   40.0470 O   0  0  0  0  0  0  0  0  0  0  0  0
   35.8600   29.8320   40.0470 P   0  0  2  0  0  0  0  0  0  0  0  0
   35.8260   31.1860   41.0440 O   0  0  0  0  0  0  0  0  0  0  0  0
   35.6380   32.0250   40.5640 H   0  0  0  0  0  0  0  0  0  0  0  0
   37.1380   28.8670   40.5930 O   0  0  0  0  0  0  0  0  0  0  0  0
   36.7950   27.4350   42.4510 C   0  0  1  0  0  3  0  0  0  0  0  0
   37.2440   28.7900   41.9600 C   0  0  1  0  0  3  0  0  0  0  0  0
   38.4490   29.2130   42.4590 O   0  0  0  0  0  0  0  0  0  0  0  0
   39.4570   28.2610   42.4410 C   0  0  0  0  0  2  0  0  0  0  0  0
   39.0250   27.1400   43.3640 C   0  0  1  0  0  3  0  0  0  0  0  0
   37.8910   26.4420   42.6290 C   0  0  2  0  0  3  0  0  0  0  0  0
   36.1110   27.5560   43.6790 O   0  0  0  0  0  0  0  0  0  0  0  0
   36.4720   28.3780   44.1210 H   0  0  0  0  0  0  0  0  0  0  0  0
   40.0540   26.2650   43.6790 O   0  0  0  0  0  0  0  0  0  0  0  0
   39.7800   25.3500   43.4160 H   0  0  0  0  0  0  0  0  0  0  0  0
   38.3100   25.9550   41.4030 O   0  0  0  0  0  0  0  0  0  0  0  0
   39.2470   25.6900   41.3530 H   0  0  0  0  0  0  0  0  0  0  0  0
  1 20  1  0  0  0  0
  2  1  1  0  0  0  0
  2  3  1  0  0  0  0
  4  2  1  0  0  0  0
  5  2  1  0  0  0  0
  5 10  1  0  0  0  0
  6  5  1  0  0  0  0
  7  5  1  0  0  0  0
  8 13  1  0  0  0  0
  8 14  1  0  0  0  0
  9  8  2  0  0  0  0
 10 11  2  0  0  0  0
 10  9  1  0  0  0  0
 11 12  1  0  0  0  0
 12 16  1  0  0  0  0
 12 13  2  0  0  0  0
 14 18  1  0  0  0  0
 14 17  1  0  0  0  0
 15  9  1  0  0  0  0
 20 19  2  1  0  0  0
 20 23  1  0  0  0  0
 20 21  1  0  0  0  0
 22 21  1  0  0  0  0
 24 29  1  0  0  0  0
 24 30  1  1  0  0  0
 25 23  1  6  0  0  0
 25 24  1  0  0  0  0
 25 26  1  0  0  0  0
 27 26  1  0  0  0  0
 27 28  1  0  0  0  0
 28 32  1  6  0  0  0
 29 34  1  6  0  0  0
 29 28  1  0  0  0  0
 30 31  1  0  0  0  0
 33 32  1  0  0  0  0
 35 34  1  0  0  0  0
M  END
>  <minimizedAffinity>
-5.55134344

$$$$

 OpenBabel03242516423D

 35 36  0  0  1  0  0  0  0  0999 V2000
   37.0510   27.4150   40.4410 O   0  0  0  0  0  0  0  0  0  0  0  0
   38.4230   27.2900   40.3190 C   0  0  0  0  0  0  0  0  0  0  0  0
   38.7510   27.1970   39.2620 H   0  0  0  0  0  0  0  0  0  0  0  0
   38.9400   28.1460   40.8080 H   0  0  0  0  0  0  0  0  0  0  0  0
   38.8660   26.0500   41.0580 C   0  0  0  0  0  0  0  0  0  0  0  0
   39.2000   25.2890   40.3230 H   0  0  0  0  0  0  0  0  0  0  0  0
   38.0610   25.6070   41.6670 H   0  0  0  0  0  0  0  0  0  0  0  0
   42.0110   25.7200   43.0940 C   0  0  0  0  0  0  0  0  0  0  0  0
   40.9160   25.3950   42.2320 C   0  0  0  0  0  0  0  0  0  0  0  0
   39.9990   26.3920   41.9430 C   0  0  0  0  0  0  0  0  0  0  0  0
   40.1650   27.6240   42.4760 N   0  0  0  0  0  0  0  0  0  0  0  0
   41.2160   27.8890   43.2860 C   0  0  0  0  0  0  0  0  0  0  0  0
   42.1260   26.9580   43.5940 N   0  0  0  0  0  0  0  0  0  0  0  0
   42.9560   24.7340   43.4140 N   0  0  0  0  0  0  0  0  0  0  0  0
   40.8830   24.3780   41.8640 H   0  0  0  0  0  0  0  0  0  0  0  0
   41.2510   28.9060   43.6560 H   0  0  0  0  0  0  0  0  0  0  0  0
   42.5310   24.3660   44.3110 H   0  0  0  0  0  0  0  0  0  0  0  0
   43.8020   24.4830   42.8910 H   0  0  0  0  0  0  0  0  0  0  0  0
   36.8170   28.4010   42.8550 O   0  0  0  0  0  0  0  0  0  0  0  0
   36.6480   28.7620   41.3970 P   0  0  2  0  0  0  0  0  0  0  0  0
   35.0730   29.2020   41.0020 O   0  0  0  0  0  0  0  0  0  0  0  0
   34.5470   28.4720   40.6050 H   0  0  0  0  0  0  0  0  0  0  0  0
   37.6310   30.0740   40.9790 O   0  0  0  0  0  0  0  0  0  0  0  0
   37.7920   32.2900   40.1530 C   0  0  1  0  0  3  0  0  0  0  0  0
   37.0340   30.9850   40.1420 C   0  0  1  0  0  3  0  0  0  0  0  0
   36.7400   30.4990   38.8940 O   0  0  0  0  0  0  0  0  0  0  0  0
   37.7920   30.5300   37.9910 C   0  0  0  0  0  2  0  0  0  0  0  0
   38.1440   31.9870   37.7700 C   0  0  1  0  0  3  0  0  0  0  0  0
   38.8020   32.4340   39.0660 C   0  0  2  0  0  3  0  0  0  0  0  0
   36.9000   33.3800   40.0670 O   0  0  0  0  0  0  0  0  0  0  0  0
   36.0910   33.0430   39.5860 H   0  0  0  0  0  0  0  0  0  0  0  0
   38.9700   32.1890   36.6740 O   0  0  0  0  0  0  0  0  0  0  0  0
   39.7880   32.6570   36.9790 H   0  0  0  0  0  0  0  0  0  0  0  0
   39.9270   31.6780   39.3470 O   0  0  0  0  0  0  0  0  0  0  0  0
   40.4090   31.3390   38.5700 H   0  0  0  0  0  0  0  0  0  0  0  0
  1 20  1  0  0  0  0
  2  1  1  0  0  0  0
  2  4  1  0  0  0  0
  2  5  1  0  0  0  0
  3  2  1  0  0  0  0
  5  7  1  0  0  0  0
  5 10  1  0  0  0  0
  6  5  1  0  0  0  0
  8 14  1  0  0  0  0
  8 13  1  0  0  0  0
  9  8  2  0  0  0  0
 10  9  1  0  0  0  0
 10 11  2  0  0  0  0
 11 12  1  0  0  0  0
 12 13  2  0  0  0  0
 12 16  1  0  0  0  0
 14 17  1  0  0  0  0
 15  9  1  0  0  0  0
 18 14  1  0  0  0  0
 20 19  2  1  0  0  0
 21 20  1  0  0  0  0
 22 21  1  0  0  0  0
 23 20  1  0  0  0  0
 24 30  1  6  0  0  0
 25 24  1  0  0  0  0
 25 23  1  6  0  0  0
 26 25  1  0  0  0  0
 27 26  1  0  0  0  0
 28 32  1  6  0  0  0
 28 27  1  0  0  0  0
 28 29  1  0  0  0  0
 29 34  1  1  0  0  0
 29 24  1  0  0  0  0
 31 30  1  0  0  0  0
 32 33  1  0  0  0  0
 35 34  1  0  0  0  0
M  END
>  <minimizedAffinity>
-5.54822063

$$$$

 OpenBabel03242516423D

 35 36  0  0  1  0  0  0  0  0999 V2000
   36.3870   28.2590   40.7890 O   0  0  0  0  0  0  0  0  0  0  0  0
   36.8560   28.6000   42.0450 C   0  0  0  0  0  0  0  0  0  0  0  0
   37.9500   28.7960   42.0530 H   0  0  0  0  0  0  0  0  0  0  0  0
   36.3050   29.4800   42.4450 H   0  0  0  0  0  0  0  0  0  0  0  0
   36.5770   27.4590   42.9940 C   0  0  0  0  0  0  0  0  0  0  0  0
   35.6060   26.9950   42.7300 H   0  0  0  0  0  0  0  0  0  0  0  0
   36.5260   27.7840   44.0460 H   0  0  0  0  0  0  0  0  0  0  0  0
   38.3660   24.2790   42.0800 C   0  0  0  0  0  0  0  0  0  0  0  0
   37.3370   25.2650   42.2060 C   0  0  0  0  0  0  0  0  0  0  0  0
   37.6450   26.4460   42.8610 C   0  0  0  0  0  0  0  0  0  0  0  0
   38.8920   26.6280   43.3550 N   0  0  0  0  0  0  0  0  0  0  0  0
   39.8350   25.6690   43.2130 C   0  0  0  0  0  0  0  0  0  0  0  0
   39.5840   24.5130   42.5890 N   0  0  0  0  0  0  0  0  0  0  0  0
   38.0880   23.0680   41.4280 N   0  0  0  0  0  0  0  0  0  0  0  0
   36.3780   25.0130   41.7730 H   0  0  0  0  0  0  0  0  0  0  0  0
   40.7960   25.9190   43.6450 H   0  0  0  0  0  0  0  0  0  0  0  0
   37.8070   22.4790   42.2610 H   0  0  0  0  0  0  0  0  0  0  0  0
   38.1560   22.8670   40.4250 H   0  0  0  0  0  0  0  0  0  0  0  0
   35.9950   29.4360   38.4830 O   0  0  0  0  0  0  0  0  0  0  0  0
   37.0000   29.3170   39.6070 P   0  0  2  0  0  0  0  0  0  0  0  0
   38.4840   28.7040   39.1070 O   0  0  0  0  0  0  0  0  0  0  0  0
   38.5880   27.7400   39.2720 H   0  0  0  0  0  0  0  0  0  0  0  0
   37.3140   30.8280   40.3000 O   0  0  0  0  0  0  0  0  0  0  0  0
   37.5130   33.1770   40.0550 C   0  0  1  0  0  3  0  0  0  0  0  0
   37.5780   31.8240   39.3920 C   0  0  1  0  0  3  0  0  0  0  0  0
   38.6960   31.6100   38.6270 O   0  0  0  0  0  0  0  0  0  0  0  0
   39.8910   31.9890   39.2180 C   0  0  0  0  0  2  0  0  0  0  0  0
   39.8330   33.4900   39.4130 C   0  0  1  0  0  3  0  0  0  0  0  0
   38.8240   33.7030   40.5300 C   0  0  2  0  0  3  0  0  0  0  0  0
   36.9530   34.1310   39.1790 O   0  0  0  0  0  0  0  0  0  0  0  0
   37.1550   33.8130   38.2530 H   0  0  0  0  0  0  0  0  0  0  0  0
   41.0660   34.0490   39.7150 O   0  0  0  0  0  0  0  0  0  0  0  0
   40.9890   34.5360   40.5750 H   0  0  0  0  0  0  0  0  0  0  0  0
   39.2150   33.0560   41.6910 O   0  0  0  0  0  0  0  0  0  0  0  0
   40.1780   32.9740   41.8230 H   0  0  0  0  0  0  0  0  0  0  0  0
  1  2  1  0  0  0  0
  2  3  1  0  0  0  0
  2  4  1  0  0  0  0
  2  5  1  0  0  0  0
  5  7  1  0  0  0  0
  6  5  1  0  0  0  0
  8  9  2  0  0  0  0
  8 13  1  0  0  0  0
  9 10  1  0  0  0  0
 10  5  1  0  0  0  0
 10 11  2  0  0  0  0
 12 11  1  0  0  0  0
 12 16  1  0  0  0  0
 13 12  2  0  0  0  0
 14  8  1  0  0  0  0
 14 17  1  0  0  0  0
 15  9  1  0  0  0  0
 18 14  1  0  0  0  0
 20 19  2  6  0  0  0
 20 23  1  0  0  0  0
 20  1  1  0  0  0  0
 21 22  1  0  0  0  0
 21 20  1  0  0  0  0
 24 30  1  6  0  0  0
 24 29  1  0  0  0  0
 25 24  1  0  0  0  0
 25 23  1  1  0  0  0
 26 27  1  0  0  0  0
 26 25  1  0  0  0  0
 27 28  1  0  0  0  0
 28 32  1  1  0  0  0
 28 29  1  0  0  0  0
 29 34  1  1  0  0  0
 31 30  1  0  0  0  0
 32 33  1  0  0  0  0
 34 35  1  0  0  0  0
M  END
>  <minimizedAffinity>
-5.50686884

$$$$

 OpenBabel03242516423D

 35 36  0  0  1  0  0  0  0  0999 V2000
   36.3700   29.0890   41.3350 O   0  0  0  0  0  0  0  0  0  0  0  0
   36.5200   30.4570   41.4820 C   0  0  0  0  0  0  0  0  0  0  0  0
   35.6680   30.9230   42.0220 H   0  0  0  0  0  0  0  0  0  0  0  0
   37.4770   30.6940   41.9970 H   0  0  0  0  0  0  0  0  0  0  0  0
   36.6080   31.0870   40.1130 C   0  0  0  0  0  0  0  0  0  0  0  0
   36.0190   32.0260   40.1060 H   0  0  0  0  0  0  0  0  0  0  0  0
   36.2170   30.4320   39.3170 H   0  0  0  0  0  0  0  0  0  0  0  0
   39.7120   32.0510   38.2200 C   0  0  0  0  0  0  0  0  0  0  0  0
   38.3450   31.7480   38.5130 C   0  0  0  0  0  0  0  0  0  0  0  0
   38.0210   31.4050   39.8160 C   0  0  0  0  0  0  0  0  0  0  0  0
   38.9920   31.3670   40.7560 N   0  0  0  0  0  0  0  0  0  0  0  0
   40.2730   31.6620   40.4360 C   0  0  0  0  0  0  0  0  0  0  0  0
   40.6340   31.9980   39.1920 N   0  0  0  0  0  0  0  0  0  0  0  0
   40.0790   32.3960   36.9110 N   0  0  0  0  0  0  0  0  0  0  0  0
   37.6530   31.8100   37.6840 H   0  0  0  0  0  0  0  0  0  0  0  0
   40.9670   31.6010   41.2650 H   0  0  0  0  0  0  0  0  0  0  0  0
   40.3490   31.4400   36.5450 H   0  0  0  0  0  0  0  0  0  0  0  0
   40.0700   33.3270   36.4820 H   0  0  0  0  0  0  0  0  0  0  0  0
   36.1750   27.6170   43.4910 O   0  0  0  0  0  0  0  0  0  0  0  0
   37.1900   28.2540   42.5680 P   0  0  2  0  0  0  0  0  0  0  0  0
   38.1880   29.3630   43.3450 O   0  0  0  0  0  0  0  0  0  0  0  0
   37.9000   30.2970   43.2350 H   0  0  0  0  0  0  0  0  0  0  0  0
   38.2080   27.0870   41.8890 O   0  0  0  0  0  0  0  0  0  0  0  0
   38.9820   24.8510   42.0300 C   0  0  1  0  0  3  0  0  0  0  0  0
   38.6210   26.1160   42.7680 C   0  0  1  0  0  3  0  0  0  0  0  0
   39.5560   26.5390   43.6790 O   0  0  0  0  0  0  0  0  0  0  0  0
   40.8660   26.5230   43.2230 C   0  0  0  0  0  2  0  0  0  0  0  0
   41.2210   25.0780   42.9410 C   0  0  1  0  0  3  0  0  0  0  0  0
   40.4280   24.7140   41.6960 C   0  0  2  0  0  3  0  0  0  0  0  0
   38.5980   23.7160   42.7750 O   0  0  0  0  0  0  0  0  0  0  0  0
   38.6090   23.9950   43.7350 H   0  0  0  0  0  0  0  0  0  0  0  0
   42.5820   24.8740   42.7670 O   0  0  0  0  0  0  0  0  0  0  0  0
   42.7260   24.4580   41.8800 H   0  0  0  0  0  0  0  0  0  0  0  0
   40.7600   25.5340   40.6310 O   0  0  0  0  0  0  0  0  0  0  0  0
   41.6770   25.8660   40.6260 H   0  0  0  0  0  0  0  0  0  0  0  0
  1  2  1  0  0  0  0
  1 20  1  0  0  0  0
  2  4  1  0  0  0  0
  2  3  1  0  0  0  0
  5  2  1  0  0  0  0
  6  5  1  0  0  0  0
  7  5  1  0  0  0  0
  8  9  2  0  0  0  0
  8 13  1  0  0  0  0
  9 10  1  0  0  0  0
 10  5  1  0  0  0  0
 10 11  2  0  0  0  0
 12 11  1  0  0  0  0
 12 16  1  0  0  0  0
 13 12  2  0  0  0  0
 14  8  1  0  0  0  0
 15  9  1  0  0  0  0
 17 14  1  0  0  0  0
 18 14  1  0  0  0  0
 20 21  1  0  0  0  0
 20 19  2  1  0  0  0
 22 21  1  0  0  0  0
 23 20  1  0  0  0  0
 24 25  1  0  0  0  0
 24 30  1  1  0  0  0
 25 23  1  6  0  0  0
 25 26  1  0  0  0  0
 27 26  1  0  0  0  0
 28 32  1  6  0  0  0
 28 27  1  0  0  0  0
 29 34  1  6  0  0  0
 29 24  1  0  0  0  0
 29 28  1  0  0  0  0
 30 31  1  0  0  0  0
 33 32  1  0  0  0  0
 35 34  1  0  0  0  0
M  END
>  <minimizedAffinity>
-5.50019169

$$$$

 OpenBabel03242516423D

 35 36  0  0  1  0  0  0  0  0999 V2000
   36.4890   27.4410   41.5890 O   0  0  0  0  0  0  0  0  0  0  0  0
   36.7590   28.1380   42.7520 C   0  0  0  0  0  0  0  0  0  0  0  0
   37.0120   29.2030   42.5620 H   0  0  0  0  0  0  0  0  0  0  0  0
   35.9040   28.0680   43.4610 H   0  0  0  0  0  0  0  0  0  0  0  0
   37.9360   27.4940   43.4450 C   0  0  0  0  0  0  0  0  0  0  0  0
   38.0460   26.4520   43.0800 H   0  0  0  0  0  0  0  0  0  0  0  0
   37.8200   27.4620   44.5400 H   0  0  0  0  0  0  0  0  0  0  0  0
   40.2300   30.3450   42.5770 C   0  0  0  0  0  0  0  0  0  0  0  0
   39.0440   29.6110   42.8990 C   0  0  0  0  0  0  0  0  0  0  0  0
   39.1640   28.2490   43.1180 C   0  0  0  0  0  0  0  0  0  0  0  0
   40.3790   27.6620   43.0230 N   0  0  0  0  0  0  0  0  0  0  0  0
   41.4750   28.3940   42.7160 C   0  0  0  0  0  0  0  0  0  0  0  0
   41.4090   29.7120   42.4950 N   0  0  0  0  0  0  0  0  0  0  0  0
   40.1460   31.7250   42.3410 N   0  0  0  0  0  0  0  0  0  0  0  0
   38.1270   30.1830   42.9480 H   0  0  0  0  0  0  0  0  0  0  0  0
   42.3950   27.8250   42.6670 H   0  0  0  0  0  0  0  0  0  0  0  0
   40.0230   31.7190   41.2900 H   0  0  0  0  0  0  0  0  0  0  0  0
   40.1980   32.4830   43.0310 H   0  0  0  0  0  0  0  0  0  0  0  0
   34.6510   28.9640   40.5140 O   0  0  0  0  0  0  0  0  0  0  0  0
   36.0790   28.5040   40.3270 P   0  0  2  0  0  0  0  0  0  0  0  0
   36.3270   27.6830   38.8810 O   0  0  0  0  0  0  0  0  0  0  0  0
   36.3070   26.7040   38.9740 H   0  0  0  0  0  0  0  0  0  0  0  0
   37.1430   29.8190   40.3200 O   0  0  0  0  0  0  0  0  0  0  0  0
   37.5660   32.1020   39.8430 C   0  0  1  0  0  3  0  0  0  0  0  0
   36.7210   30.8840   39.5610 C   0  0  1  0  0  3  0  0  0  0  0  0
   36.5470   30.5980   38.2310 O   0  0  0  0  0  0  0  0  0  0  0  0
   37.7010   30.6550   37.4640 C   0  0  0  0  0  2  0  0  0  0  0  0
   38.1840   32.0910   37.4950 C   0  0  1  0  0  3  0  0  0  0  0  0
   38.7090   32.2990   38.9060 C   0  0  2  0  0  3  0  0  0  0  0  0
   36.7740   33.2700   39.8150 O   0  0  0  0  0  0  0  0  0  0  0  0
   36.0070   33.0740   39.2040 H   0  0  0  0  0  0  0  0  0  0  0  0
   39.1500   32.3620   36.5370 O   0  0  0  0  0  0  0  0  0  0  0  0
   39.9570   32.7090   36.9950 H   0  0  0  0  0  0  0  0  0  0  0  0
   39.7330   31.4140   39.1980 O   0  0  0  0  0  0  0  0  0  0  0  0
   40.2800   31.1400   38.4390 H   0  0  0  0  0  0  0  0  0  0  0  0
  1  2  1  0  0  0  0
  2  5  1  0  0  0  0
  2  4  1  0  0  0  0
  3  2  1  0  0  0  0
  5  7  1  0  0  0  0
  6  5  1  0  0  0  0
  8  9  1  0  0  0  0
  9 15  1  0  0  0  0
  9 10  2  0  0  0  0
 10  5  1  0  0  0  0
 11 10  1  0  0  0  0
 12 11  2  0  0  0  0
 13  8  2  0  0  0  0
 13 12  1  0  0  0  0
 14  8  1  0  0  0  0
 14 18  1  0  0  0  0
 16 12  1  0  0  0  0
 17 14  1  0  0  0  0
 20 19  2  1  0  0  0
 20  1  1  0  0  0  0
 21 22  1  0  0  0  0
 21 20  1  0  0  0  0
 23 20  1  0  0  0  0
 24 30  1  6  0  0  0
 25 24  1  0  0  0  0
 25 23  1  1  0  0  0
 26 25  1  0  0  0  0
 27 28  1  0  0  0  0
 27 26  1  0  0  0  0
 28 32  1  6  0  0  0
 28 29  1  0  0  0  0
 29 34  1  1  0  0  0
 29 24  1  0  0  0  0
 31 30  1  0  0  0  0
 32 33  1  0  0  0  0
 35 34  1  0  0  0  0
M  END
>  <minimizedAffinity>
-5.44891214

$$$$

 OpenBabel03242516423D

 35 36  0  0  1  0  0  0  0  0999 V2000
   37.8990   29.1740   40.7070 O   0  0  0  0  0  0  0  0  0  0  0  0
   37.2460   30.1030   39.9170 C   0  0  0  0  0  0  0  0  0  0  0  0
   37.6620   30.1540   38.8880 H   0  0  0  0  0  0  0  0  0  0  0  0
   36.1550   29.8900   39.8800 H   0  0  0  0  0  0  0  0  0  0  0  0
   37.3900   31.4670   40.5490 C   0  0  0  0  0  0  0  0  0  0  0  0
   37.4510   31.3520   41.6500 H   0  0  0  0  0  0  0  0  0  0  0  0
   36.5410   32.1330   40.3210 H   0  0  0  0  0  0  0  0  0  0  0  0
   40.1430   32.5780   38.2400 C   0  0  0  0  0  0  0  0  0  0  0  0
   38.9370   31.9730   38.7150 C   0  0  0  0  0  0  0  0  0  0  0  0
   38.6330   32.0990   40.0610 C   0  0  0  0  0  0  0  0  0  0  0  0
   39.4750   32.7810   40.8720 N   0  0  0  0  0  0  0  0  0  0  0  0
   40.6050   33.3380   40.3810 C   0  0  0  0  0  0  0  0  0  0  0  0
   40.9390   33.2420   39.0900 N   0  0  0  0  0  0  0  0  0  0  0  0
   40.4860   32.4650   36.8840 N   0  0  0  0  0  0  0  0  0  0  0  0
   38.3400   31.4520   37.9780 H   0  0  0  0  0  0  0  0  0  0  0  0
   41.2030   33.8600   41.1170 H   0  0  0  0  0  0  0  0  0  0  0  0
   41.0930   31.5990   36.9270 H   0  0  0  0  0  0  0  0  0  0  0  0
   40.2020   33.0780   36.1130 H   0  0  0  0  0  0  0  0  0  0  0  0
   35.4130   28.5500   41.2450 O   0  0  0  0  0  0  0  0  0  0  0  0
   36.8180   28.4390   41.7950 P   0  0  2  0  0  0  0  0  0  0  0  0
   37.0090   29.2000   43.2820 O   0  0  0  0  0  0  0  0  0  0  0  0
   37.3940   30.1030   43.2170 H   0  0  0  0  0  0  0  0  0  0  0  0
   37.2510   26.8200   42.0250 O   0  0  0  0  0  0  0  0  0  0  0  0
   39.0140   25.5870   41.0290 C   0  0  1  0  0  3  0  0  0  0  0  0
   37.6280   26.1660   40.8780 C   0  0  1  0  0  3  0  0  0  0  0  0
   36.6890   25.2950   40.3880 O   0  0  0  0  0  0  0  0  0  0  0  0
   36.6970   24.0370   40.9710 C   0  0  0  0  0  2  0  0  0  0  0  0
   38.0310   23.4020   40.6370 C   0  0  1  0  0  3  0  0  0  0  0  0
   39.0500   24.1640   41.4710 C   0  0  2  0  0  3  0  0  0  0  0  0
   39.7260   25.6850   39.8150 O   0  0  0  0  0  0  0  0  0  0  0  0
   39.0410   25.6830   39.0870 H   0  0  0  0  0  0  0  0  0  0  0  0
   38.0670   22.0390   40.8960 O   0  0  0  0  0  0  0  0  0  0  0  0
   38.8130   21.8570   41.5210 H   0  0  0  0  0  0  0  0  0  0  0  0
   38.7670   24.0680   42.8220 O   0  0  0  0  0  0  0  0  0  0  0  0
   38.3290   23.2430   43.1030 H   0  0  0  0  0  0  0  0  0  0  0  0
  1 20  1  0  0  0  0
  2  5  1  0  0  0  0
  2  1  1  0  0  0  0
  3  2  1  0  0  0  0
  4  2  1  0  0  0  0
  5  6  1  0  0  0  0
  7  5  1  0  0  0  0
  8  9  2  0  0  0  0
  8 13  1  0  0  0  0
  9 10  1  0  0  0  0
 10  5  1  0  0  0  0
 10 11  2  0  0  0  0
 12 11  1  0  0  0  0
 12 16  1  0  0  0  0
 13 12  2  0  0  0  0
 14 17  1  0  0  0  0
 14  8  1  0  0  0  0
 15  9  1  0  0  0  0
 18 14  1  0  0  0  0
 20 19  2  6  0  0  0
 20 23  1  0  0  0  0
 20 21  1  0  0  0  0
 22 21  1  0  0  0  0
 24 30  1  6  0  0  0
 24 29  1  0  0  0  0
 25 24  1  0  0  0  0
 25 23  1  1  0  0  0
 26 25  1  0  0  0  0
 26 27  1  0  0  0  0
 28 32  1  1  0  0  0
 28 27  1  0  0  0  0
 28 29  1  0  0  0  0
 29 34  1  1  0  0  0
 31 30  1  0  0  0  0
 32 33  1  0  0  0  0
 34 35  1  0  0  0  0
M  END
>  <minimizedAffinity>
-5.43827629

$$$$

 OpenBabel03242516423D

 35 36  0  0  1  0  0  0  0  0999 V2000
   34.3580   29.0340   39.7130 O   0  0  0  0  0  0  0  0  0  0  0  0
   34.5830   29.1940   38.3580 C   0  0  0  0  0  0  0  0  0  0  0  0
   34.5250   30.2570   38.0380 H   0  0  0  0  0  0  0  0  0  0  0  0
   35.5650   28.7590   38.0680 H   0  0  0  0  0  0  0  0  0  0  0  0
   33.5350   28.4180   37.5950 C   0  0  0  0  0  0  0  0  0  0  0  0
   33.1140   27.6330   38.2540 H   0  0  0  0  0  0  0  0  0  0  0  0
   33.9400   27.9280   36.6950 H   0  0  0  0  0  0  0  0  0  0  0  0
   30.5020   30.6340   37.7720 C   0  0  0  0  0  0  0  0  0  0  0  0
   31.5560   29.7500   38.1620 C   0  0  0  0  0  0  0  0  0  0  0  0
   32.4510   29.3370   37.1890 C   0  0  0  0  0  0  0  0  0  0  0  0
   32.3030   29.7780   35.9180 N   0  0  0  0  0  0  0  0  0  0  0  0
   31.2920   30.6150   35.5930 C   0  0  0  0  0  0  0  0  0  0  0  0
   30.4030   31.0390   36.4980 N   0  0  0  0  0  0  0  0  0  0  0  0
   29.5720   31.0680   38.7290 N   0  0  0  0  0  0  0  0  0  0  0  0
   31.5770   29.4620   39.2050 H   0  0  0  0  0  0  0  0  0  0  0  0
   31.2680   30.9040   34.5490 H   0  0  0  0  0  0  0  0  0  0  0  0
   28.8250   30.3310   38.5970 H   0  0  0  0  0  0  0  0  0  0  0  0
   29.6470   31.8780   39.3540 H   0  0  0  0  0  0  0  0  0  0  0  0
   35.9420   28.2840   41.6580 O   0  0  0  0  0  0  0  0  0  0  0  0
   35.7710   29.3540   40.6030 P   0  0  2  0  0  0  0  0  0  0  0  0
   35.6170   30.9000   41.2460 O   0  0  0  0  0  0  0  0  0  0  0  0
   34.6850   31.2050   41.3230 H   0  0  0  0  0  0  0  0  0  0  0  0
   37.1040   29.3980   39.5620 O   0  0  0  0  0  0  0  0  0  0  0  0
   39.3630   30.0960   39.3910 C   0  0  1  0  0  3  0  0  0  0  0  0
   37.9480   30.4620   39.7690 C   0  0  1  0  0  3  0  0  0  0  0  0
   37.5000   31.6490   39.2480 O   0  0  0  0  0  0  0  0  0  0  0  0
   37.7750   31.8380   37.9020 C   0  0  0  0  0  2  0  0  0  0  0  0
   39.2830   31.8940   37.7610 C   0  0  1  0  0  3  0  0  0  0  0  0
   39.7530   30.4680   38.0010 C   0  0  2  0  0  3  0  0  0  0  0  0
   40.2820   30.6970   40.2770 O   0  0  0  0  0  0  0  0  0  0  0  0
   39.8390   31.5250   40.6210 H   0  0  0  0  0  0  0  0  0  0  0  0
   39.6980   32.3750   36.5280 O   0  0  0  0  0  0  0  0  0  0  0  0
   40.2810   31.6950   36.1060 H   0  0  0  0  0  0  0  0  0  0  0  0
   39.1900   29.5920   37.0890 O   0  0  0  0  0  0  0  0  0  0  0  0
   38.9930   29.9680   36.2110 H   0  0  0  0  0  0  0  0  0  0  0  0
  1 20  1  0  0  0  0
  2  1  1  0  0  0  0
  3  2  1  0  0  0  0
  4  2  1  0  0  0  0
  5  6  1  0  0  0  0
  5  2  1  0  0  0  0
  7  5  1  0  0  0  0
  8  9  1  0  0  0  0
  8 14  1  0  0  0  0
  9 15  1  0  0  0  0
 10  5  1  0  0  0  0
 10  9  2  0  0  0  0
 11 10  1  0  0  0  0
 12 11  2  0  0  0  0
 12 13  1  0  0  0  0
 13  8  2  0  0  0  0
 14 18  1  0  0  0  0
 16 12  1  0  0  0  0
 17 14  1  0  0  0  0
 20 21  1  0  0  0  0
 20 19  2  1  0  0  0
 21 22  1  0  0  0  0
 23 20  1  0  0  0  0
 24 25  1  0  0  0  0
 24 30  1  1  0  0  0
 25 23  1  6  0  0  0
 26 25  1  0  0  0  0
 27 26  1  0  0  0  0
 28 32  1  6  0  0  0
 28 27  1  0  0  0  0
 28 29  1  0  0  0  0
 29 34  1  6  0  0  0
 29 24  1  0  0  0  0
 30 31  1  0  0  0  0
 33 32  1  0  0  0  0
 35 34  1  0  0  0  0
M  END
>  <minimizedAffinity>
-5.43650293

$$$$
