
     RDKit          3D

 46 48  0  0  0  0  0  0  0  0999 V2000
   46.3250   34.9905   41.9222 C   0  0  0  0  0  0  0  0  0  0  0  0
   44.8565   34.9394   41.7034 C   0  0  0  0  0  0  0  0  0  0  0  0
   43.9752   35.4310   42.7106 C   0  0  0  0  0  0  0  0  0  0  0  0
   42.3120   35.1505   41.9774 S   0  0  0  0  0  0  0  0  0  0  0  0
   43.1006   34.4053   40.4101 C   0  0  0  0  0  0  0  0  0  0  0  0
   44.2113   34.4800   40.6543 N   0  0  0  0  0  0  0  0  0  0  0  0
   42.3497   33.9357   39.3312 O   0  0  0  0  0  0  0  0  0  0  0  0
   40.4119   34.3924   37.5856 O   0  0  0  0  0  0  0  0  0  0  0  0
   41.4861   35.0823   38.4242 P   0  0  0  0  0  0  0  0  0  0  0  0
   40.7632   36.1595   39.4962 O   0  0  0  0  0  0  0  0  0  0  0  0
   42.5632   35.9413   37.4285 O   0  0  0  0  0  0  0  0  0  0  0  0
   47.1340   34.3500   40.8221 C   0  0  0  0  0  0  0  0  0  0  0  0
   48.4687   33.9155   41.2740 C   0  0  0  0  0  0  0  0  0  0  0  0
   48.9370   32.7075   40.7935 C   0  0  0  0  0  0  0  0  0  0  0  0
   50.1812   32.2158   41.1624 C   0  0  0  0  0  0  0  0  0  0  0  0
   50.9191   32.9889   42.0257 N   0  0  0  0  0  0  0  0  0  0  0  0
   50.4292   34.1603   42.4723 C   0  0  0  0  0  0  0  0  0  0  0  0
   49.2382   34.6093   42.1062 N   0  0  0  0  0  0  0  0  0  0  0  0
   47.9178   31.7339   39.6582 S   0  0  0  0  0  0  0  0  0  0  0  0
   46.6814   36.0364   42.0518 H   0  0  0  0  0  0  0  0  0  0  0  0
   46.5158   34.4147   42.8504 H   0  0  0  0  0  0  0  0  0  0  0  0
   44.2434   35.8573   43.6599 H   0  0  0  0  0  0  0  0  0  0  0  0
   39.9449   36.4960   39.0739 H   0  0  0  0  0  0  0  0  0  0  0  0
   42.1367   36.3974   36.6837 H   0  0  0  0  0  0  0  0  0  0  0  0
   46.5293   33.4883   40.4689 H   0  0  0  0  0  0  0  0  0  0  0  0
   47.2049   35.0541   39.9612 H   0  0  0  0  0  0  0  0  0  0  0  0
   50.5510   31.2723   40.7893 H   0  0  0  0  0  0  0  0  0  0  0  0
   50.9784   34.7980   43.1525 H   0  0  0  0  0  0  0  0  0  0  0  0
   49.3010   30.2170   36.8738 O   0  0  0  0  0  0  0  0  0  0  0  0
   48.3206   29.8464   37.7942 C   0  0  2  0  0  0  0  0  0  0  0  0
   48.7698   30.2327   39.2059 C   0  0  2  0  0  0  0  0  0  0  0  0
   48.4043   29.2494   40.1270 O   0  0  0  0  0  0  0  0  0  0  0  0
   47.1007   28.8615   39.8151 C   0  0  0  0  0  0  0  0  0  0  0  0
   47.2150   27.8023   38.7434 C   0  0  1  0  0  0  0  0  0  0  0  0
   45.9607   27.4602   38.2373 O   0  0  0  0  0  0  0  0  0  0  0  0
   48.1433   28.3504   37.6757 C   0  0  1  0  0  0  0  0  0  0  0  0
   47.6032   28.0919   36.4242 O   0  0  0  0  0  0  0  0  0  0  0  0
   49.0166   29.9021   36.0023 H   0  0  0  0  0  0  0  0  0  0  0  0
   47.3861   30.3629   37.4958 H   0  0  0  0  0  0  0  0  0  0  0  0
   49.8599   30.2873   39.1842 H   0  0  0  0  0  0  0  0  0  0  0  0
   46.5838   29.7453   39.3688 H   0  0  0  0  0  0  0  0  0  0  0  0
   46.5244   28.5260   40.6898 H   0  0  0  0  0  0  0  0  0  0  0  0
   47.6618   26.9008   39.2011 H   0  0  0  0  0  0  0  0  0  0  0  0
   46.0308   27.0582   37.3395 H   0  0  0  0  0  0  0  0  0  0  0  0
   49.1565   27.8978   37.7398 H   0  0  0  0  0  0  0  0  0  0  0  0
   47.2290   28.8654   35.9650 H   0  0  0  0  0  0  0  0  0  0  0  0
  2  1  1  0
  2  3  2  0
  4  3  1  0
  5  6  2  0
  5  4  1  0
  6  2  1  0
  7  5  1  0
  8  9  2  0
  9  7  1  0
  9 10  1  0
 11  9  1  0
 12 13  1  0
 12  1  1  0
 13 18  2  0
 14 15  2  0
 14 13  1  0
 15 16  1  0
 16 17  2  0
 18 17  1  0
 19 14  1  0
  1 20  1  0
  1 21  1  0
  3 22  1  0
 10 23  1  0
 11 24  1  0
 12 25  1  0
 12 26  1  0
 15 27  1  0
 17 28  1  0
 29 30  1  0
 30 31  1  0
 31 32  1  0
 32 33  1  0
 33 34  1  0
 34 35  1  0
 34 36  1  0
 36 37  1  0
 36 30  1  0
 29 38  1  0
 30 39  1  6
 31 40  1  6
 33 41  1  0
 33 42  1  0
 34 43  1  1
 35 44  1  0
 36 45  1  6
 37 46  1  0
 19 31  1  0
M  ISO  8  20   8  21   8  22  14  23   3  24   3  25   8  26   8  27  14
M  ISO  1  28  14
M  END
>  <DihAtoms>  (1) 
13,18,30,29

>  <DihDeg>  (1) 
-179.99560943094866

$$$$
