REMARK  Name = 
REMARK  13 active torsions:
REMARK  status: ('A' for Active; 'I' for Inactive)
REMARK    1  A    between atoms: O_1  and  C_3
REMARK    2  A    between atoms: O_1  and  P_11
REMARK    3  A    between atoms: C_2  and  O_7
REMARK    4  A    between atoms: O_7  and  C_8
REMARK    5  A    between atoms: C_8  and  C_9
REMARK    6  A    between atoms: P_11  and  O_12
REMARK    7  A    between atoms: P_11  and  O_13
REMARK    8  A    between atoms: O_13  and  C_18
REMARK    9  A    between atoms: C_14  and  O_20
REMARK   10  A    between atoms: O_20  and  C_37
REMARK   11  A    between atoms: O_35  and  C_36
REMARK   12  A    between atoms: C_40  and  O_41
REMARK   13  A    between atoms: C_42  and  O_43
REMARK                            x       y       z     vdW  Elec       q    Type
REMARK                         _______ _______ _______ _____ _____    ______ ____
ROOT
ATOM      1  O   UNL     1      47.170  32.994  46.942  0.00  0.00    +0.000 OA
ATOM      2  P   UNL     1      45.731  32.671  46.747  0.00  0.00    +0.000 P 
ENDROOT
BRANCH   2   3
ATOM      3  O   UNL     1      45.592  31.470  45.560  0.00  0.00    +0.000 OA
ATOM      4  H   UNL     1      46.291  31.661  44.886  0.00  0.00    +0.000 HD
ENDBRANCH   2   3
BRANCH   2   5
ATOM      5  O   UNL     1      45.155  32.105  48.184  0.00  0.00    +0.000 OA
BRANCH   5   7
ATOM      6  C   UNL     1      46.985  30.570  48.206  0.00  0.00    +0.000 C 
ATOM      7  C   UNL     1      45.528  30.800  48.361  0.00  0.00    +0.000 C 
ATOM      8  C   UNL     1      44.871  29.881  47.458  0.00  0.00    +0.000 C 
ATOM      9  O   UNL     1      45.745  28.821  47.179  0.00  0.00    +0.000 OA
ATOM     10  C   UNL     1      46.831  29.017  47.961  0.00  0.00    +0.000 C 
ATOM     11  H   UNL     1      47.443  30.761  47.221  0.00  0.00    +0.000 HD
ATOM     12  H   UNL     1      45.375  30.637  49.471  0.00  0.00    +0.000 HD
ATOM     13  H   UNL     1      44.165  29.297  48.151  0.00  0.00    +0.000 HD
ATOM     14  H   UNL     1      44.141  30.138  46.720  0.00  0.00    +0.000 HD
ATOM     15  H   UNL     1      46.590  28.648  48.996  0.00  0.00    +0.000 HD
ATOM     16  H   UNL     1      47.779  28.584  47.657  0.00  0.00    +0.000 HD
BRANCH   6  17
ATOM     17  O   UNL     1      47.754  30.735  49.297  0.00  0.00    +0.000 OA
BRANCH  17  18
ATOM     18  C   UNL     1      49.011  31.090  49.293  0.00  0.00    +0.000 C 
ATOM     19  H   UNL     1      49.350  32.072  49.057  0.00  0.00    +0.000 HD
ATOM     20  H   UNL     1      49.444  30.489  48.333  0.00  0.00    +0.000 HD
BRANCH  18  21
ATOM     21  C   UNL     1      49.733  30.324  50.395  0.00  0.00    +0.000 C 
ATOM     22  H   UNL     1      50.784  30.670  50.488  0.00  0.00    +0.000 HD
ATOM     23  H   UNL     1      49.737  29.239  50.183  0.00  0.00    +0.000 HD
ATOM     24  H   UNL     1      49.193  30.551  51.337  0.00  0.00    +0.000 HD
ENDBRANCH  18  21
ENDBRANCH  17  18
ENDBRANCH   6  17
ENDBRANCH   5   7
ENDBRANCH   2   5
BRANCH   2  25
ATOM     25  O   UNL     1      44.988  34.131  46.262  0.00  0.00    +0.000 OA
BRANCH  25  30
ATOM     26  C   UNL     1      44.972  36.386  43.480  0.00  0.00    +0.000 A 
ATOM     27  C   UNL     1      45.029  35.531  42.334  0.00  0.00    +0.000 A 
ATOM     28  C   UNL     1      45.071  34.159  42.605  0.00  0.00    +0.000 A 
ATOM     29  N   UNL     1      45.057  33.726  43.880  0.00  0.00    +0.000 NA
ATOM     30  C   UNL     1      45.004  34.568  44.928  0.00  0.00    +0.000 A 
ATOM     31  N   UNL     1      44.961  35.894  44.730  0.00  0.00    +0.000 NA
ATOM     32  H   UNL     1      45.038  35.911  41.342  0.00  0.00    +0.000 HD
ATOM     33  H   UNL     1      45.115  33.474  41.765  0.00  0.00    +0.000 HD
BRANCH  26  34
ATOM     34  O   UNL     1      44.929  37.747  43.278  0.00  0.00    +0.000 OA
BRANCH  34  36
ATOM     35  C   UNL     1      45.566  38.086  45.560  0.00  0.00    +0.000 C 
ATOM     36  C   UNL     1      44.872  38.661  44.363  0.00  0.00    +0.000 C 
ATOM     37  O   UNL     1      45.451  39.860  43.990  0.00  0.00    +0.000 OA
ATOM     38  C   UNL     1      45.120  40.891  44.873  0.00  0.00    +0.000 C 
ATOM     39  C   UNL     1      44.946  40.338  46.283  0.00  0.00    +0.000 C 
ATOM     40  C   UNL     1      45.920  39.211  46.501  0.00  0.00    +0.000 C 
BRANCH  35  41
ATOM     41  O   UNL     1      44.768  37.129  46.213  0.00  0.00    +0.000 OA
ATOM     42  H   UNL     1      45.299  36.288  46.344  0.00  0.00    +0.000 HD
ENDBRANCH  35  41
BRANCH  39  43
ATOM     43  O   UNL     1      45.158  41.375  47.169  0.00  0.00    +0.000 OA
ATOM     44  H   UNL     1      45.385  40.974  48.040  0.00  0.00    +0.000 HD
ENDBRANCH  39  43
BRANCH  40  45
ATOM     45  O   UNL     1      45.884  38.756  47.805  0.00  0.00    +0.000 OA
ATOM     46  H   UNL     1      46.739  38.865  48.301  0.00  0.00    +0.000 HD
ENDBRANCH  40  45
ENDBRANCH  34  36
ENDBRANCH  26  34
ENDBRANCH  25  30
ENDBRANCH   2  25
TORSDOF 13
