
 OpenBabel03242512033D

 50 53  0  0  1  0  0  0  0  0999 V2000
   36.9730   25.8630   41.4490 C   0  0  2  0  0  0  0  0  0  0  0  0
   37.3440   24.5700   42.1040 C   0  0  0  0  0  0  0  0  0  0  0  0
   37.9980   23.6320   41.1710 C   0  0  0  0  0  0  0  0  0  0  0  0
   37.1800   23.3550   39.9360 C   0  0  0  0  0  0  0  0  0  0  0  0
   36.4970   24.5720   39.3820 C   0  0  0  0  0  0  0  0  0  0  0  0
   37.0140   25.8640   39.9670 C   0  0  1  0  0  0  0  0  0  0  0  0
   35.9010   26.0630   41.7610 H   0  0  0  0  0  0  0  0  0  0  0  0
   38.0800   24.8070   42.9180 H   0  0  0  0  0  0  0  0  0  0  0  0
   36.4880   24.0850   42.6110 H   0  0  0  0  0  0  0  0  0  0  0  0
   39.0370   23.9240   40.9240 H   0  0  0  0  0  0  0  0  0  0  0  0
   38.1070   22.6410   41.6910 H   0  0  0  0  0  0  0  0  0  0  0  0
   37.8770   22.8740   39.1980 H   0  0  0  0  0  0  0  0  0  0  0  0
   36.3940   22.5930   40.1210 H   0  0  0  0  0  0  0  0  0  0  0  0
   36.7020   24.6000   38.2920 H   0  0  0  0  0  0  0  0  0  0  0  0
   35.3850   24.5050   39.4630 H   0  0  0  0  0  0  0  0  0  0  0  0
   37.9920   26.0260   39.4900 H   0  0  0  0  0  0  0  0  0  0  0  0
   37.7240   27.0150   41.9880 C   0  0  0  0  0  0  0  0  0  0  0  0
   37.0100   27.7360   42.9290 C   0  0  0  0  0  0  0  0  0  0  0  0
   37.5950   28.8580   43.5390 C   0  0  0  0  0  0  0  0  0  0  0  0
   38.8990   29.1560   43.1230 N   0  0  0  0  0  0  0  0  0  0  0  0
   39.5510   28.4200   42.2010 C   0  0  0  0  0  0  0  0  0  0  0  0
   38.9500   27.3510   41.6420 N   0  0  0  0  0  0  0  0  0  0  0  0
   36.0250   27.6840   43.3690 H   0  0  0  0  0  0  0  0  0  0  0  0
   37.2260   29.5310   44.2680 H   0  0  0  0  0  0  0  0  0  0  0  0
   40.5430   28.7020   41.9290 H   0  0  0  0  0  0  0  0  0  0  0  0
   36.1270   26.9780   39.4820 C   0  0  2  0  0  0  0  0  0  0  0  0
   36.4350   27.5740   38.1190 C   0  0  0  0  0  0  0  0  0  0  0  0
   36.6530   28.3610   39.3420 C   0  0  1  0  0  0  0  0  0  0  0  0
   35.0360   26.8030   39.6320 H   0  0  0  0  0  0  0  0  0  0  0  0
   37.3350   27.2540   37.5700 H   0  0  0  0  0  0  0  0  0  0  0  0
   35.6010   27.8450   37.4430 H   0  0  0  0  0  0  0  0  0  0  0  0
   37.6990   28.5060   39.6950 H   0  0  0  0  0  0  0  0  0  0  0  0
   35.7080   29.3990   39.8550 C   0  0  0  0  0  0  0  0  0  0  0  0
   34.9240   29.5220   39.0560 H   0  0  0  0  0  0  0  0  0  0  0  0
   35.1500   29.0680   40.7520 H   0  0  0  0  0  0  0  0  0  0  0  0
   36.3310   30.7480   40.0650 C   0  0  0  0  0  0  0  0  0  0  0  0
   36.2760   31.0460   41.1270 H   0  0  0  0  0  0  0  0  0  0  0  0
   35.7610   31.4760   39.4520 H   0  0  0  0  0  0  0  0  0  0  0  0
   37.7610   31.5270   38.2750 C   0  0  2  0  0  3  0  0  0  0  0  0
   37.7600   30.7580   39.5800 C   0  0  1  0  0  3  0  0  0  0  0  0
   38.6260   31.3190   40.5080 O   0  0  0  0  0  0  0  0  0  0  0  0
   39.6300   32.0770   39.9490 C   0  0  0  0  0  2  0  0  0  0  0  0
   40.1710   31.4660   38.6690 C   0  0  2  0  0  3  0  0  0  0  0  0
   39.1010   31.3690   37.6260 C   0  0  2  0  0  3  0  0  0  0  0  0
   37.4490   32.8570   38.5120 O   0  0  0  0  0  0  0  0  0  0  0  0
   36.6630   33.1580   37.9930 H   0  0  0  0  0  0  0  0  0  0  0  0
   40.7170   30.2110   38.9710 O   0  0  0  0  0  0  0  0  0  0  0  0
   41.6790   30.3510   39.1490 H   0  0  0  0  0  0  0  0  0  0  0  0
   39.2240   32.3550   36.6510 O   0  0  0  0  0  0  0  0  0  0  0  0
   38.7590   32.0490   35.8350 H   0  0  0  0  0  0  0  0  0  0  0  0
  1  7  1  1  0  0  0
  1 17  1  0  0  0  0
  1  2  1  0  0  0  0
  2  9  1  0  0  0  0
  2  8  1  0  0  0  0
  3 11  1  0  0  0  0
  3  2  1  0  0  0  0
  4 13  1  0  0  0  0
  4  3  1  0  0  0  0
  5 15  1  0  0  0  0
  5  4  1  0  0  0  0
  5  6  1  0  0  0  0
  6 16  1  6  0  0  0
  6  1  1  0  0  0  0
 10  3  1  0  0  0  0
 12  4  1  0  0  0  0
 14  5  1  0  0  0  0
 17 18  1  0  0  0  0
 18 23  1  0  0  0  0
 18 19  2  0  0  0  0
 19 24  1  0  0  0  0
 20 19  1  0  0  0  0
 21 20  2  0  0  0  0
 22 17  2  0  0  0  0
 22 21  1  0  0  0  0
 25 21  1  0  0  0  0
 26 29  1  1  0  0  0
 26  6  1  0  0  0  0
 27 28  1  0  0  0  0
 27 26  1  0  0  0  0
 28 26  1  0  0  0  0
 28 32  1  1  0  0  0
 28 33  1  0  0  0  0
 30 27  1  0  0  0  0
 31 27  1  0  0  0  0
 33 36  1  0  0  0  0
 33 35  1  0  0  0  0
 34 33  1  0  0  0  0
 36 37  1  0  0  0  0
 38 36  1  0  0  0  0
 39 45  1  1  0  0  0
 39 40  1  0  0  0  0
 40 36  1  1  0  0  0
 40 41  1  0  0  0  0
 42 41  1  0  0  0  0
 43 47  1  1  0  0  0
 43 42  1  0  0  0  0
 44 49  1  6  0  0  0
 44 39  1  0  0  0  0
 44 43  1  0  0  0  0
 46 45  1  0  0  0  0
 47 48  1  0  0  0  0
 50 49  1  0  0  0  0
M  END
>  <minimizedAffinity>
-6.33665419

$$$$

 OpenBabel03242512033D

 50 53  0  0  1  0  0  0  0  0999 V2000
   38.8410   26.8550   42.7170 C   0  0  2  0  0  0  0  0  0  0  0  0
   39.5500   25.6530   43.2560 C   0  0  0  0  0  0  0  0  0  0  0  0
   39.3670   24.4610   42.4040 C   0  0  0  0  0  0  0  0  0  0  0  0
   37.9200   24.1240   42.1570 C   0  0  0  0  0  0  0  0  0  0  0  0
   37.0550   25.3270   41.9170 C   0  0  0  0  0  0  0  0  0  0  0  0
   37.8440   26.5860   41.6530 C   0  0  1  0  0  0  0  0  0  0  0  0
   38.2850   27.2980   43.6010 H   0  0  0  0  0  0  0  0  0  0  0  0
   40.6470   25.8920   43.2740 H   0  0  0  0  0  0  0  0  0  0  0  0
   39.2790   25.4290   44.3060 H   0  0  0  0  0  0  0  0  0  0  0  0
   39.9490   24.5110   41.4630 H   0  0  0  0  0  0  0  0  0  0  0  0
   39.7960   23.5750   42.9470 H   0  0  0  0  0  0  0  0  0  0  0  0
   37.9080   23.4010   41.2970 H   0  0  0  0  0  0  0  0  0  0  0  0
   37.4740   23.5630   43.0050 H   0  0  0  0  0  0  0  0  0  0  0  0
   36.4480   25.1250   41.0100 H   0  0  0  0  0  0  0  0  0  0  0  0
   36.3070   25.4800   42.7330 H   0  0  0  0  0  0  0  0  0  0  0  0
   38.2220   26.4810   40.6250 H   0  0  0  0  0  0  0  0  0  0  0  0
   39.7670   27.9280   42.3010 C   0  0  0  0  0  0  0  0  0  0  0  0
   40.4580   27.6280   41.1390 C   0  0  0  0  0  0  0  0  0  0  0  0
   41.3720   28.5570   40.6130 C   0  0  0  0  0  0  0  0  0  0  0  0
   41.5060   29.7460   41.3400 N   0  0  0  0  0  0  0  0  0  0  0  0
   40.8090   29.9870   42.4690 C   0  0  0  0  0  0  0  0  0  0  0  0
   39.9420   29.0680   42.9370 N   0  0  0  0  0  0  0  0  0  0  0  0
   40.5070   26.7960   40.4530 H   0  0  0  0  0  0  0  0  0  0  0  0
   41.9870   28.5210   39.7530 H   0  0  0  0  0  0  0  0  0  0  0  0
   40.9590   30.9140   42.9740 H   0  0  0  0  0  0  0  0  0  0  0  0
   36.8790   27.7400   41.6240 C   0  0  2  0  0  0  0  0  0  0  0  0
   36.0940   27.9620   40.3420 C   0  0  0  0  0  0  0  0  0  0  0  0
   37.1310   28.9190   40.7550 C   0  0  1  0  0  0  0  0  0  0  0  0
   36.2420   27.8370   42.5340 H   0  0  0  0  0  0  0  0  0  0  0  0
   36.3120   27.3510   39.4520 H   0  0  0  0  0  0  0  0  0  0  0  0
   35.0290   28.2590   40.4010 H   0  0  0  0  0  0  0  0  0  0  0  0
   38.1050   28.9070   40.2140 H   0  0  0  0  0  0  0  0  0  0  0  0
   36.8540   30.2180   41.4400 C   0  0  0  0  0  0  0  0  0  0  0  0
   35.8170   30.1240   41.8680 H   0  0  0  0  0  0  0  0  0  0  0  0
   37.5080   30.3920   42.3160 H   0  0  0  0  0  0  0  0  0  0  0  0
   36.8400   31.4070   40.5240 C   0  0  0  0  0  0  0  0  0  0  0  0
   36.3590   32.2730   41.0110 H   0  0  0  0  0  0  0  0  0  0  0  0
   36.2580   31.1240   39.6230 H   0  0  0  0  0  0  0  0  0  0  0  0
   38.1980   31.8310   38.5660 C   0  0  2  0  0  3  0  0  0  0  0  0
   38.2400   31.7530   40.0780 C   0  0  1  0  0  3  0  0  0  0  0  0
   38.6930   32.9370   40.6420 O   0  0  0  0  0  0  0  0  0  0  0  0
   39.4570   33.7040   39.7920 C   0  0  0  0  0  2  0  0  0  0  0  0
   40.3800   32.8650   38.9280 C   0  0  2  0  0  3  0  0  0  0  0  0
   39.5990   31.9350   38.0510 C   0  0  2  0  0  3  0  0  0  0  0  0
   37.4140   32.9050   38.1720 O   0  0  0  0  0  0  0  0  0  0  0  0
   36.6720   32.6340   37.5780 H   0  0  0  0  0  0  0  0  0  0  0  0
   41.2630   32.1700   39.7650 O   0  0  0  0  0  0  0  0  0  0  0  0
   42.0760   32.7260   39.8530 H   0  0  0  0  0  0  0  0  0  0  0  0
   39.5400   32.3790   36.7330 O   0  0  0  0  0  0  0  0  0  0  0  0
   39.3510   31.6040   36.1500 H   0  0  0  0  0  0  0  0  0  0  0  0
  1  2  1  0  0  0  0
  1  7  1  1  0  0  0
  2  8  1  0  0  0  0
  2  9  1  0  0  0  0
  3 11  1  0  0  0  0
  3  2  1  0  0  0  0
  4  3  1  0  0  0  0
  4 13  1  0  0  0  0
  5  4  1  0  0  0  0
  5 15  1  0  0  0  0
  6 16  1  6  0  0  0
  6  5  1  0  0  0  0
  6  1  1  0  0  0  0
 10  3  1  0  0  0  0
 12  4  1  0  0  0  0
 14  5  1  0  0  0  0
 17  1  1  0  0  0  0
 17 22  1  0  0  0  0
 18 17  2  0  0  0  0
 19 18  1  0  0  0  0
 19 20  2  0  0  0  0
 20 21  1  0  0  0  0
 21 22  2  0  0  0  0
 21 25  1  0  0  0  0
 23 18  1  0  0  0  0
 24 19  1  0  0  0  0
 26  6  1  0  0  0  0
 26 29  1  1  0  0  0
 27 31  1  0  0  0  0
 27 28  1  0  0  0  0
 27 26  1  0  0  0  0
 28 32  1  6  0  0  0
 28 33  1  0  0  0  0
 28 26  1  0  0  0  0
 30 27  1  0  0  0  0
 33 34  1  0  0  0  0
 33 35  1  0  0  0  0
 36 37  1  0  0  0  0
 36 33  1  0  0  0  0
 38 36  1  0  0  0  0
 39 45  1  1  0  0  0
 39 40  1  0  0  0  0
 40 36  1  1  0  0  0
 40 41  1  0  0  0  0
 42 41  1  0  0  0  0
 43 47  1  1  0  0  0
 43 42  1  0  0  0  0
 44 49  1  6  0  0  0
 44 39  1  0  0  0  0
 44 43  1  0  0  0  0
 46 45  1  0  0  0  0
 47 48  1  0  0  0  0
 50 49  1  0  0  0  0
M  END
>  <minimizedAffinity>
-6.3334837

$$$$

 OpenBabel03242512033D

 50 53  0  0  1  0  0  0  0  0999 V2000
   36.9580   25.9600   41.4260 C   0  0  2  0  0  0  0  0  0  0  0  0
   37.2320   24.6650   42.1240 C   0  0  0  0  0  0  0  0  0  0  0  0
   37.7690   23.6350   41.2120 C   0  0  0  0  0  0  0  0  0  0  0  0
   36.8890   23.3860   40.0150 C   0  0  0  0  0  0  0  0  0  0  0  0
   36.3010   24.6380   39.4300 C   0  0  0  0  0  0  0  0  0  0  0  0
   36.9510   25.8990   39.9450 C   0  0  1  0  0  0  0  0  0  0  0  0
   35.9200   26.2690   41.7600 H   0  0  0  0  0  0  0  0  0  0  0  0
   38.0130   24.8660   42.9050 H   0  0  0  0  0  0  0  0  0  0  0  0
   36.3530   24.2800   42.6760 H   0  0  0  0  0  0  0  0  0  0  0  0
   38.8210   23.8210   40.9230 H   0  0  0  0  0  0  0  0  0  0  0  0
   37.8040   22.6600   41.7700 H   0  0  0  0  0  0  0  0  0  0  0  0
   37.5160   22.8150   39.2780 H   0  0  0  0  0  0  0  0  0  0  0  0
   36.0440   22.7070   40.2540 H   0  0  0  0  0  0  0  0  0  0  0  0
   36.4720   24.6050   38.3340 H   0  0  0  0  0  0  0  0  0  0  0  0
   35.1900   24.6760   39.5450 H   0  0  0  0  0  0  0  0  0  0  0  0
   37.9240   25.9530   39.4330 H   0  0  0  0  0  0  0  0  0  0  0  0
   37.8280   27.0590   41.8950 C   0  0  0  0  0  0  0  0  0  0  0  0
   37.1950   27.9080   42.7860 C   0  0  0  0  0  0  0  0  0  0  0  0
   37.8970   28.9990   43.3260 C   0  0  0  0  0  0  0  0  0  0  0  0
   39.2230   29.1320   42.8970 N   0  0  0  0  0  0  0  0  0  0  0  0
   39.7920   28.2760   42.0240 C   0  0  0  0  0  0  0  0  0  0  0  0
   39.0800   27.2420   41.5310 N   0  0  0  0  0  0  0  0  0  0  0  0
   36.2120   27.9860   43.2260 H   0  0  0  0  0  0  0  0  0  0  0  0
   37.6020   29.7500   44.0110 H   0  0  0  0  0  0  0  0  0  0  0  0
   40.8070   28.4350   41.7380 H   0  0  0  0  0  0  0  0  0  0  0  0
   36.1520   27.0700   39.4390 C   0  0  2  0  0  0  0  0  0  0  0  0
   36.3220   27.4530   37.9800 C   0  0  0  0  0  0  0  0  0  0  0  0
   36.8260   28.3340   39.0430 C   0  0  1  0  0  0  0  0  0  0  0  0
   35.0840   27.0780   39.7590 H   0  0  0  0  0  0  0  0  0  0  0  0
   37.0760   26.9420   37.3610 H   0  0  0  0  0  0  0  0  0  0  0  0
   35.4350   27.7660   37.3930 H   0  0  0  0  0  0  0  0  0  0  0  0
   37.9240   28.3610   39.2270 H   0  0  0  0  0  0  0  0  0  0  0  0
   36.1150   29.5520   39.5350 C   0  0  0  0  0  0  0  0  0  0  0  0
   35.0700   29.4870   39.1210 H   0  0  0  0  0  0  0  0  0  0  0  0
   35.9850   29.5610   40.6350 H   0  0  0  0  0  0  0  0  0  0  0  0
   36.6970   30.8460   39.0440 C   0  0  0  0  0  0  0  0  0  0  0  0
   35.9250   31.6340   39.0010 H   0  0  0  0  0  0  0  0  0  0  0  0
   37.0930   30.6650   38.0230 H   0  0  0  0  0  0  0  0  0  0  0  0
   39.0630   31.3540   39.0080 C   0  0  2  0  0  3  0  0  0  0  0  0
   37.8530   31.2760   39.9150 C   0  0  1  0  0  3  0  0  0  0  0  0
   37.6090   32.4840   40.5530 O   0  0  0  0  0  0  0  0  0  0  0  0
   38.7150   33.2970   40.6510 C   0  0  0  0  0  2  0  0  0  0  0  0
   39.9820   32.5160   40.9490 C   0  0  2  0  0  3  0  0  0  0  0  0
   40.2850   31.5430   39.8520 C   0  0  2  0  0  3  0  0  0  0  0  0
   38.8980   32.3810   38.0900 O   0  0  0  0  0  0  0  0  0  0  0  0
   38.9680   32.0670   37.1560 H   0  0  0  0  0  0  0  0  0  0  0  0
   39.8280   31.8730   42.1850 O   0  0  0  0  0  0  0  0  0  0  0  0
   40.2020   32.4770   42.8730 H   0  0  0  0  0  0  0  0  0  0  0  0
   41.3130   31.9850   39.0250 O   0  0  0  0  0  0  0  0  0  0  0  0
   41.7110   31.2010   38.5730 H   0  0  0  0  0  0  0  0  0  0  0  0
  1  7  1  1  0  0  0
  1 17  1  0  0  0  0
  1  2  1  0  0  0  0
  2  9  1  0  0  0  0
  2  8  1  0  0  0  0
  3 11  1  0  0  0  0
  3  2  1  0  0  0  0
  4 13  1  0  0  0  0
  4  3  1  0  0  0  0
  5 15  1  0  0  0  0
  5  6  1  0  0  0  0
  5  4  1  0  0  0  0
  6 16  1  6  0  0  0
  6  1  1  0  0  0  0
 10  3  1  0  0  0  0
 12  4  1  0  0  0  0
 14  5  1  0  0  0  0
 17 18  1  0  0  0  0
 18 23  1  0  0  0  0
 18 19  2  0  0  0  0
 19 24  1  0  0  0  0
 20 19  1  0  0  0  0
 21 20  2  0  0  0  0
 22 17  2  0  0  0  0
 22 21  1  0  0  0  0
 25 21  1  0  0  0  0
 26 29  1  1  0  0  0
 26  6  1  0  0  0  0
 27 28  1  0  0  0  0
 27 26  1  0  0  0  0
 28 32  1  1  0  0  0
 28 26  1  0  0  0  0
 28 33  1  0  0  0  0
 30 27  1  0  0  0  0
 31 27  1  0  0  0  0
 33 35  1  0  0  0  0
 34 33  1  0  0  0  0
 36 33  1  0  0  0  0
 37 36  1  0  0  0  0
 38 36  1  0  0  0  0
 39 45  1  6  0  0  0
 39 44  1  0  0  0  0
 39 40  1  0  0  0  0
 40 36  1  6  0  0  0
 40 41  1  0  0  0  0
 41 42  1  0  0  0  0
 42 43  1  0  0  0  0
 43 47  1  1  0  0  0
 44 49  1  6  0  0  0
 44 43  1  0  0  0  0
 46 45  1  0  0  0  0
 47 48  1  0  0  0  0
 50 49  1  0  0  0  0
M  END
>  <minimizedAffinity>
-6.08451748

$$$$

 OpenBabel03242512033D

 50 53  0  0  1  0  0  0  0  0999 V2000
   37.7660   26.2880   40.0130 C   0  0  2  0  0  0  0  0  0  0  0  0
   37.4810   24.9690   39.3690 C   0  0  0  0  0  0  0  0  0  0  0  0
   36.3670   24.2520   40.0200 C   0  0  0  0  0  0  0  0  0  0  0  0
   36.5710   24.0570   41.5000 C   0  0  0  0  0  0  0  0  0  0  0  0
   37.1660   25.2510   42.1870 C   0  0  0  0  0  0  0  0  0  0  0  0
   37.1420   26.5000   41.3410 C   0  0  1  0  0  0  0  0  0  0  0  0
   38.8910   26.3170   40.1570 H   0  0  0  0  0  0  0  0  0  0  0  0
   37.1780   25.1740   38.3070 H   0  0  0  0  0  0  0  0  0  0  0  0
   38.3770   24.3210   39.3000 H   0  0  0  0  0  0  0  0  0  0  0  0
   35.3780   24.6940   39.7920 H   0  0  0  0  0  0  0  0  0  0  0  0
   36.3140   23.2180   39.5820 H   0  0  0  0  0  0  0  0  0  0  0  0
   35.5710   23.7670   41.9200 H   0  0  0  0  0  0  0  0  0  0  0  0
   37.2310   23.1900   41.7170 H   0  0  0  0  0  0  0  0  0  0  0  0
   36.5540   25.4540   43.0900 H   0  0  0  0  0  0  0  0  0  0  0  0
   38.1930   25.0450   42.5790 H   0  0  0  0  0  0  0  0  0  0  0  0
   36.0950   26.8400   41.3570 H   0  0  0  0  0  0  0  0  0  0  0  0
   37.4890   27.4330   39.1220 C   0  0  0  0  0  0  0  0  0  0  0  0
   38.5890   27.8180   38.3740 C   0  0  0  0  0  0  0  0  0  0  0  0
   38.4790   28.8900   37.4730 C   0  0  0  0  0  0  0  0  0  0  0  0
   37.2180   29.4960   37.4110 N   0  0  0  0  0  0  0  0  0  0  0  0
   36.1780   29.0820   38.1640 C   0  0  0  0  0  0  0  0  0  0  0  0
   36.3290   28.0480   39.0160 N   0  0  0  0  0  0  0  0  0  0  0  0
   39.6170   27.5020   38.2800 H   0  0  0  0  0  0  0  0  0  0  0  0
   39.1860   29.3310   36.8210 H   0  0  0  0  0  0  0  0  0  0  0  0
   35.2440   29.5880   38.0680 H   0  0  0  0  0  0  0  0  0  0  0  0
   37.9320   27.5600   42.0580 C   0  0  2  0  0  0  0  0  0  0  0  0
   37.4420   27.9890   43.4300 C   0  0  0  0  0  0  0  0  0  0  0  0
   37.3570   28.9110   42.2880 C   0  0  1  0  0  0  0  0  0  0  0  0
   39.0380   27.4180   42.0280 H   0  0  0  0  0  0  0  0  0  0  0  0
   36.4900   27.5960   43.8210 H   0  0  0  0  0  0  0  0  0  0  0  0
   38.1780   28.1890   44.2340 H   0  0  0  0  0  0  0  0  0  0  0  0
   36.3590   29.0840   41.8250 H   0  0  0  0  0  0  0  0  0  0  0  0
   38.3300   30.0130   42.0210 C   0  0  0  0  0  0  0  0  0  0  0  0
   38.1700   30.7690   42.8400 H   0  0  0  0  0  0  0  0  0  0  0  0
   39.3840   29.6930   42.1320 H   0  0  0  0  0  0  0  0  0  0  0  0
   38.1090   30.7270   40.7200 C   0  0  0  0  0  0  0  0  0  0  0  0
   37.0660   31.0780   40.6360 H   0  0  0  0  0  0  0  0  0  0  0  0
   38.3190   30.0040   39.9050 H   0  0  0  0  0  0  0  0  0  0  0  0
   39.4710   31.9170   39.1100 C   0  0  2  0  0  3  0  0  0  0  0  0
   39.0750   31.8780   40.5720 C   0  0  1  0  0  3  0  0  0  0  0  0
   38.5250   33.0820   40.9880 O   0  0  0  0  0  0  0  0  0  0  0  0
   38.8970   34.1610   40.2180 C   0  0  0  0  0  2  0  0  0  0  0  0
   40.3500   34.0920   39.7880 C   0  0  2  0  0  3  0  0  0  0  0  0
   40.6040   32.8800   38.9450 C   0  0  2  0  0  3  0  0  0  0  0  0
   38.3740   32.2610   38.3350 O   0  0  0  0  0  0  0  0  0  0  0  0
   38.1740   31.5850   37.6420 H   0  0  0  0  0  0  0  0  0  0  0  0
   41.1560   34.1030   40.9350 O   0  0  0  0  0  0  0  0  0  0  0  0
   41.3950   35.0470   41.1100 H   0  0  0  0  0  0  0  0  0  0  0  0
   40.7080   33.1910   37.5930 O   0  0  0  0  0  0  0  0  0  0  0  0
   41.2150   32.4720   37.1430 H   0  0  0  0  0  0  0  0  0  0  0  0
  1  7  1  1  0  0  0
  1  6  1  0  0  0  0
  2  1  1  0  0  0  0
  2  3  1  0  0  0  0
  3  4  1  0  0  0  0
  4 13  1  0  0  0  0
  4 12  1  0  0  0  0
  4  5  1  0  0  0  0
  5 15  1  0  0  0  0
  5 14  1  0  0  0  0
  6 16  1  6  0  0  0
  6 26  1  0  0  0  0
  6  5  1  0  0  0  0
  8  2  1  0  0  0  0
  9  2  1  0  0  0  0
 10  3  1  0  0  0  0
 11  3  1  0  0  0  0
 17  1  1  0  0  0  0
 18 17  2  0  0  0  0
 19 18  1  0  0  0  0
 20 19  2  0  0  0  0
 20 21  1  0  0  0  0
 21 22  2  0  0  0  0
 22 17  1  0  0  0  0
 23 18  1  0  0  0  0
 24 19  1  0  0  0  0
 25 21  1  0  0  0  0
 26 29  1  6  0  0  0
 26 28  1  0  0  0  0
 26 27  1  0  0  0  0
 27 30  1  0  0  0  0
 27 31  1  0  0  0  0
 28 32  1  6  0  0  0
 28 27  1  0  0  0  0
 33 35  1  0  0  0  0
 33 28  1  0  0  0  0
 33 34  1  0  0  0  0
 36 33  1  0  0  0  0
 37 36  1  0  0  0  0
 38 36  1  0  0  0  0
 39 45  1  6  0  0  0
 39 40  1  0  0  0  0
 40 36  1  6  0  0  0
 40 41  1  0  0  0  0
 42 41  1  0  0  0  0
 43 42  1  0  0  0  0
 43 47  1  1  0  0  0
 44 49  1  6  0  0  0
 44 39  1  0  0  0  0
 44 43  1  0  0  0  0
 46 45  1  0  0  0  0
 47 48  1  0  0  0  0
 50 49  1  0  0  0  0
M  END
>  <minimizedAffinity>
-6.07297564

$$$$

 OpenBabel03242512033D

 50 53  0  0  1  0  0  0  0  0999 V2000
   37.5950   25.9790   39.7970 C   0  0  2  0  0  0  0  0  0  0  0  0
   37.2480   24.5330   39.6410 C   0  0  0  0  0  0  0  0  0  0  0  0
   36.3190   24.0590   40.6860 C   0  0  0  0  0  0  0  0  0  0  0  0
   36.8220   24.3090   42.0840 C   0  0  0  0  0  0  0  0  0  0  0  0
   37.4870   25.6440   42.2550 C   0  0  0  0  0  0  0  0  0  0  0  0
   37.2370   26.5860   41.1020 C   0  0  1  0  0  0  0  0  0  0  0  0
   38.7230   26.0320   39.6940 H   0  0  0  0  0  0  0  0  0  0  0  0
   36.7310   24.4180   38.6510 H   0  0  0  0  0  0  0  0  0  0  0  0
   38.1410   23.8800   39.5850 H   0  0  0  0  0  0  0  0  0  0  0  0
   35.2860   24.4290   40.5440 H   0  0  0  0  0  0  0  0  0  0  0  0
   36.2280   22.9430   40.5920 H   0  0  0  0  0  0  0  0  0  0  0  0
   35.9390   24.1730   42.7650 H   0  0  0  0  0  0  0  0  0  0  0  0
   37.5510   23.5360   42.4080 H   0  0  0  0  0  0  0  0  0  0  0  0
   37.0570   26.1160   43.1630 H   0  0  0  0  0  0  0  0  0  0  0  0
   38.5790   25.5480   42.4720 H   0  0  0  0  0  0  0  0  0  0  0  0
   36.2010   26.9310   41.2290 H   0  0  0  0  0  0  0  0  0  0  0  0
   37.0950   26.8120   38.6840 C   0  0  0  0  0  0  0  0  0  0  0  0
   35.7600   26.5870   38.3960 C   0  0  0  0  0  0  0  0  0  0  0  0
   35.1380   27.3120   37.3650 C   0  0  0  0  0  0  0  0  0  0  0  0
   35.9570   28.2310   36.6970 N   0  0  0  0  0  0  0  0  0  0  0  0
   37.2550   28.4100   37.0180 C   0  0  0  0  0  0  0  0  0  0  0  0
   37.8100   27.6930   38.0150 N   0  0  0  0  0  0  0  0  0  0  0  0
   34.9790   25.9420   38.7690 H   0  0  0  0  0  0  0  0  0  0  0  0
   34.1470   27.2900   36.9940 H   0  0  0  0  0  0  0  0  0  0  0  0
   37.8230   29.1270   36.4690 H   0  0  0  0  0  0  0  0  0  0  0  0
   38.1050   27.7990   41.3000 C   0  0  2  0  0  0  0  0  0  0  0  0
   39.5430   27.5660   41.7300 C   0  0  0  0  0  0  0  0  0  0  0  0
   38.5800   28.1790   42.6560 C   0  0  1  0  0  0  0  0  0  0  0  0
   38.0220   28.5680   40.4970 H   0  0  0  0  0  0  0  0  0  0  0  0
   39.8850   26.5480   41.9750 H   0  0  0  0  0  0  0  0  0  0  0  0
   40.3490   28.1900   41.2960 H   0  0  0  0  0  0  0  0  0  0  0  0
   38.1800   27.5560   43.4880 H   0  0  0  0  0  0  0  0  0  0  0  0
   38.4810   29.6470   42.9180 C   0  0  0  0  0  0  0  0  0  0  0  0
   37.4400   29.9440   42.6100 H   0  0  0  0  0  0  0  0  0  0  0  0
   38.5410   29.8970   43.9950 H   0  0  0  0  0  0  0  0  0  0  0  0
   39.4290   30.4820   42.1090 C   0  0  0  0  0  0  0  0  0  0  0  0
   40.1100   29.8440   41.5180 H   0  0  0  0  0  0  0  0  0  0  0  0
   40.0250   31.0910   42.8210 H   0  0  0  0  0  0  0  0  0  0  0  0
   39.4120   31.4510   39.8910 C   0  0  2  0  0  3  0  0  0  0  0  0
   38.6730   31.4320   41.2130 C   0  0  1  0  0  3  0  0  0  0  0  0
   37.3450   31.0620   41.0550 O   0  0  0  0  0  0  0  0  0  0  0  0
   36.8520   31.2780   39.7880 C   0  0  0  0  0  2  0  0  0  0  0  0
   37.3620   32.5720   39.1820 C   0  0  2  0  0  3  0  0  0  0  0  0
   38.8530   32.5500   39.0430 C   0  0  2  0  0  3  0  0  0  0  0  0
   39.3080   30.2120   39.2770 O   0  0  0  0  0  0  0  0  0  0  0  0
   40.1910   29.8140   39.0780 H   0  0  0  0  0  0  0  0  0  0  0  0
   36.9320   33.6390   39.9830 O   0  0  0  0  0  0  0  0  0  0  0  0
   36.0770   33.9580   39.6030 H   0  0  0  0  0  0  0  0  0  0  0  0
   39.2570   32.3260   37.7310 O   0  0  0  0  0  0  0  0  0  0  0  0
   40.1770   32.6700   37.6220 H   0  0  0  0  0  0  0  0  0  0  0  0
  1  7  1  6  0  0  0
  1  6  1  0  0  0  0
  2  1  1  0  0  0  0
  2  3  1  0  0  0  0
  3  4  1  0  0  0  0
  4  5  1  0  0  0  0
  4 13  1  0  0  0  0
  4 12  1  0  0  0  0
  5 15  1  0  0  0  0
  5 14  1  0  0  0  0
  6 16  1  6  0  0  0
  6 26  1  0  0  0  0
  6  5  1  0  0  0  0
  8  2  1  0  0  0  0
  9  2  1  0  0  0  0
 10  3  1  0  0  0  0
 11  3  1  0  0  0  0
 17  1  1  0  0  0  0
 18 17  1  0  0  0  0
 18 23  1  0  0  0  0
 19 18  2  0  0  0  0
 20 21  2  0  0  0  0
 20 19  1  0  0  0  0
 21 22  1  0  0  0  0
 22 17  2  0  0  0  0
 24 19  1  0  0  0  0
 25 21  1  0  0  0  0
 26 29  1  6  0  0  0
 26 27  1  0  0  0  0
 26 28  1  0  0  0  0
 27 30  1  0  0  0  0
 27 28  1  0  0  0  0
 28 33  1  0  0  0  0
 28 32  1  1  0  0  0
 31 27  1  0  0  0  0
 33 35  1  0  0  0  0
 34 33  1  0  0  0  0
 36 38  1  0  0  0  0
 36 33  1  0  0  0  0
 37 36  1  0  0  0  0
 39 45  1  6  0  0  0
 39 40  1  0  0  0  0
 40 36  1  1  0  0  0
 41 40  1  0  0  0  0
 42 41  1  0  0  0  0
 43 42  1  0  0  0  0
 43 47  1  1  0  0  0
 44 49  1  6  0  0  0
 44 43  1  0  0  0  0
 44 39  1  0  0  0  0
 46 45  1  0  0  0  0
 48 47  1  0  0  0  0
 50 49  1  0  0  0  0
M  END
>  <minimizedAffinity>
-6.00329924

$$$$

 OpenBabel03242512033D

 50 53  0  0  1  0  0  0  0  0999 V2000
   37.3880   26.2000   39.3200 C   0  0  2  0  0  0  0  0  0  0  0  0
   37.2560   25.0090   38.4250 C   0  0  0  0  0  0  0  0  0  0  0  0
   36.2210   24.0650   38.8900 C   0  0  0  0  0  0  0  0  0  0  0  0
   36.4300   23.6080   40.3100 C   0  0  0  0  0  0  0  0  0  0  0  0
   36.8820   24.7020   41.2340 C   0  0  0  0  0  0  0  0  0  0  0  0
   36.7290   26.0830   40.6430 C   0  0  1  0  0  0  0  0  0  0  0  0
   38.5010   26.3190   39.5020 H   0  0  0  0  0  0  0  0  0  0  0  0
   36.9440   25.3840   37.4140 H   0  0  0  0  0  0  0  0  0  0  0  0
   38.2190   24.4860   38.2620 H   0  0  0  0  0  0  0  0  0  0  0  0
   35.1920   24.4360   38.7200 H   0  0  0  0  0  0  0  0  0  0  0  0
   36.2870   23.1370   38.2600 H   0  0  0  0  0  0  0  0  0  0  0  0
   35.4630   23.1380   40.6340 H   0  0  0  0  0  0  0  0  0  0  0  0
   37.1780   22.7910   40.3780 H   0  0  0  0  0  0  0  0  0  0  0  0
   36.2410   24.6590   42.1390 H   0  0  0  0  0  0  0  0  0  0  0  0
   37.9210   24.5330   41.6110 H   0  0  0  0  0  0  0  0  0  0  0  0
   35.6520   26.2990   40.6900 H   0  0  0  0  0  0  0  0  0  0  0  0
   36.9960   27.4610   38.6570 C   0  0  0  0  0  0  0  0  0  0  0  0
   35.6320   27.6930   38.6940 C   0  0  0  0  0  0  0  0  0  0  0  0
   35.1070   28.8580   38.1100 C   0  0  0  0  0  0  0  0  0  0  0  0
   36.0480   29.7120   37.5220 N   0  0  0  0  0  0  0  0  0  0  0  0
   37.3690   29.4380   37.5130 C   0  0  0  0  0  0  0  0  0  0  0  0
   37.8280   28.3080   38.0850 N   0  0  0  0  0  0  0  0  0  0  0  0
   34.7630   27.1780   39.0750 H   0  0  0  0  0  0  0  0  0  0  0  0
   34.1140   29.2160   38.0340 H   0  0  0  0  0  0  0  0  0  0  0  0
   38.0320   30.1310   37.0470 H   0  0  0  0  0  0  0  0  0  0  0  0
   37.3910   27.0600   41.5760 C   0  0  2  0  0  0  0  0  0  0  0  0
   36.9490   27.0470   43.0290 C   0  0  0  0  0  0  0  0  0  0  0  0
   36.6220   28.1890   42.1620 C   0  0  1  0  0  0  0  0  0  0  0  0
   38.4990   27.1290   41.4700 H   0  0  0  0  0  0  0  0  0  0  0  0
   36.1080   26.4080   43.3420 H   0  0  0  0  0  0  0  0  0  0  0  0
   37.7050   27.1740   43.8290 H   0  0  0  0  0  0  0  0  0  0  0  0
   35.5750   28.2880   41.7940 H   0  0  0  0  0  0  0  0  0  0  0  0
   37.3770   29.4780   42.1470 C   0  0  0  0  0  0  0  0  0  0  0  0
   36.7290   30.2070   41.5840 H   0  0  0  0  0  0  0  0  0  0  0  0
   37.4930   29.9210   43.1550 H   0  0  0  0  0  0  0  0  0  0  0  0
   38.6900   29.4150   41.4240 C   0  0  0  0  0  0  0  0  0  0  0  0
   38.7650   28.4900   40.8240 H   0  0  0  0  0  0  0  0  0  0  0  0
   39.4910   29.4190   42.1910 H   0  0  0  0  0  0  0  0  0  0  0  0
   38.7610   31.8340   41.4700 C   0  0  2  0  0  3  0  0  0  0  0  0
   38.8800   30.6330   40.5540 C   0  0  1  0  0  3  0  0  0  0  0  0
   40.0950   30.6170   39.8830 O   0  0  0  0  0  0  0  0  0  0  0  0
   40.6900   31.8530   39.7750 C   0  0  0  0  0  2  0  0  0  0  0  0
   39.6850   32.9580   39.5090 C   0  0  2  0  0  3  0  0  0  0  0  0
   38.7020   33.0730   40.6330 C   0  0  2  0  0  3  0  0  0  0  0  0
   39.8240   31.8530   42.3590 O   0  0  0  0  0  0  0  0  0  0  0  0
   39.5280   31.8610   43.3020 H   0  0  0  0  0  0  0  0  0  0  0  0
   39.0470   32.6960   38.2880 O   0  0  0  0  0  0  0  0  0  0  0  0
   39.5550   33.1760   37.5880 H   0  0  0  0  0  0  0  0  0  0  0  0
   38.9710   34.1610   41.4580 O   0  0  0  0  0  0  0  0  0  0  0  0
   38.1410   34.4070   41.9340 H   0  0  0  0  0  0  0  0  0  0  0  0
  1  7  1  1  0  0  0
  1  6  1  0  0  0  0
  2  3  1  0  0  0  0
  2  1  1  0  0  0  0
  3  4  1  0  0  0  0
  4 13  1  0  0  0  0
  4 12  1  0  0  0  0
  4  5  1  0  0  0  0
  5 15  1  0  0  0  0
  5 14  1  0  0  0  0
  6 16  1  6  0  0  0
  6  5  1  0  0  0  0
  6 26  1  0  0  0  0
  8  2  1  0  0  0  0
  9  2  1  0  0  0  0
 10  3  1  0  0  0  0
 11  3  1  0  0  0  0
 17 18  1  0  0  0  0
 17  1  1  0  0  0  0
 18 23  1  0  0  0  0
 19 18  2  0  0  0  0
 20 19  1  0  0  0  0
 21 20  2  0  0  0  0
 21 22  1  0  0  0  0
 22 17  2  0  0  0  0
 24 19  1  0  0  0  0
 25 21  1  0  0  0  0
 26 29  1  6  0  0  0
 26 28  1  0  0  0  0
 26 27  1  0  0  0  0
 27 30  1  0  0  0  0
 27 31  1  0  0  0  0
 28 32  1  6  0  0  0
 28 27  1  0  0  0  0
 33 28  1  0  0  0  0
 33 35  1  0  0  0  0
 34 33  1  0  0  0  0
 36 33  1  0  0  0  0
 36 38  1  0  0  0  0
 37 36  1  0  0  0  0
 39 45  1  1  0  0  0
 40 36  1  1  0  0  0
 40 39  1  0  0  0  0
 41 40  1  0  0  0  0
 42 41  1  0  0  0  0
 43 47  1  6  0  0  0
 43 42  1  0  0  0  0
 43 44  1  0  0  0  0
 44 49  1  1  0  0  0
 44 39  1  0  0  0  0
 45 46  1  0  0  0  0
 48 47  1  0  0  0  0
 49 50  1  0  0  0  0
M  END
>  <minimizedAffinity>
-5.97549486

$$$$

 OpenBabel03242512033D

 50 53  0  0  1  0  0  0  0  0999 V2000
   36.9510   25.1850   41.0220 C   0  0  2  0  0  0  0  0  0  0  0  0
   37.4490   23.8160   41.3590 C   0  0  0  0  0  0  0  0  0  0  0  0
   38.4010   23.2990   40.3560 C   0  0  0  0  0  0  0  0  0  0  0  0
   37.8480   23.3040   38.9550 C   0  0  0  0  0  0  0  0  0  0  0  0
   37.0450   24.5300   38.6290 C   0  0  0  0  0  0  0  0  0  0  0  0
   37.2180   25.6410   39.6370 C   0  0  1  0  0  0  0  0  0  0  0  0
   35.8260   25.1380   41.1550 H   0  0  0  0  0  0  0  0  0  0  0  0
   37.9950   23.8900   42.3370 H   0  0  0  0  0  0  0  0  0  0  0  0
   36.6300   23.0910   41.5310 H   0  0  0  0  0  0  0  0  0  0  0  0
   39.3940   23.7860   40.4130 H   0  0  0  0  0  0  0  0  0  0  0  0
   38.6100   22.2210   40.5960 H   0  0  0  0  0  0  0  0  0  0  0  0
   38.7270   23.1650   38.2690 H   0  0  0  0  0  0  0  0  0  0  0  0
   37.1970   22.4250   38.7620 H   0  0  0  0  0  0  0  0  0  0  0  0
   37.4060   24.9140   37.6520 H   0  0  0  0  0  0  0  0  0  0  0  0
   35.9650   24.2960   38.4630 H   0  0  0  0  0  0  0  0  0  0  0  0
   38.2110   26.0670   39.4290 H   0  0  0  0  0  0  0  0  0  0  0  0
   37.3850   26.2080   41.9960 C   0  0  0  0  0  0  0  0  0  0  0  0
   38.7470   26.4500   41.9590 C   0  0  0  0  0  0  0  0  0  0  0  0
   39.3090   27.4050   42.8240 C   0  0  0  0  0  0  0  0  0  0  0  0
   38.4040   28.0490   43.6770 N   0  0  0  0  0  0  0  0  0  0  0  0
   37.0840   27.7750   43.6720 C   0  0  0  0  0  0  0  0  0  0  0  0
   36.5880   26.8510   42.8250 N   0  0  0  0  0  0  0  0  0  0  0  0
   39.5920   26.0710   41.4050 H   0  0  0  0  0  0  0  0  0  0  0  0
   40.3070   27.7320   42.9500 H   0  0  0  0  0  0  0  0  0  0  0  0
   36.4500   28.3030   44.3490 H   0  0  0  0  0  0  0  0  0  0  0  0
   36.2260   26.7220   39.3070 C   0  0  2  0  0  0  0  0  0  0  0  0
   36.4610   27.5240   38.0390 C   0  0  0  0  0  0  0  0  0  0  0  0
   36.6190   28.1550   39.3580 C   0  0  1  0  0  0  0  0  0  0  0  0
   35.1570   26.4270   39.4310 H   0  0  0  0  0  0  0  0  0  0  0  0
   37.3800   27.3670   37.4530 H   0  0  0  0  0  0  0  0  0  0  0  0
   35.5970   27.8050   37.4050 H   0  0  0  0  0  0  0  0  0  0  0  0
   37.6510   28.3480   39.7290 H   0  0  0  0  0  0  0  0  0  0  0  0
   35.5880   29.0200   40.0060 C   0  0  0  0  0  0  0  0  0  0  0  0
   35.0890   29.5830   39.1690 H   0  0  0  0  0  0  0  0  0  0  0  0
   34.7750   28.4390   40.4820 H   0  0  0  0  0  0  0  0  0  0  0  0
   36.1490   30.0460   40.9470 C   0  0  0  0  0  0  0  0  0  0  0  0
   36.1090   29.6870   41.9900 H   0  0  0  0  0  0  0  0  0  0  0  0
   35.5260   30.9590   40.8510 H   0  0  0  0  0  0  0  0  0  0  0  0
   37.4680   31.7070   39.7820 C   0  0  2  0  0  3  0  0  0  0  0  0
   37.5610   30.4110   40.5600 C   0  0  1  0  0  3  0  0  0  0  0  0
   38.3940   30.5320   41.6630 O   0  0  0  0  0  0  0  0  0  0  0  0
   39.3160   31.5480   41.5580 C   0  0  0  0  0  2  0  0  0  0  0  0
   39.8810   31.6730   40.1550 C   0  0  2  0  0  3  0  0  0  0  0  0
   38.8020   31.9950   39.1680 C   0  0  2  0  0  3  0  0  0  0  0  0
   37.0460   32.7280   40.6190 O   0  0  0  0  0  0  0  0  0  0  0  0
   36.2270   33.1730   40.2900 H   0  0  0  0  0  0  0  0  0  0  0  0
   40.5410   30.4800   39.8320 O   0  0  0  0  0  0  0  0  0  0  0  0
   41.4910   30.5990   40.0780 H   0  0  0  0  0  0  0  0  0  0  0  0
   38.8180   33.3340   38.7870 O   0  0  0  0  0  0  0  0  0  0  0  0
   38.3650   33.4170   37.9130 H   0  0  0  0  0  0  0  0  0  0  0  0
  1  7  1  1  0  0  0
  1  2  1  0  0  0  0
  1 17  1  0  0  0  0
  2  9  1  0  0  0  0
  2  8  1  0  0  0  0
  3 10  1  0  0  0  0
  3 11  1  0  0  0  0
  3  2  1  0  0  0  0
  4  3  1  0  0  0  0
  5  4  1  0  0  0  0
  5  6  1  0  0  0  0
  6 16  1  6  0  0  0
  6  1  1  0  0  0  0
 12  4  1  0  0  0  0
 13  4  1  0  0  0  0
 14  5  1  0  0  0  0
 15  5  1  0  0  0  0
 17 22  1  0  0  0  0
 18 17  2  0  0  0  0
 18 19  1  0  0  0  0
 19 24  1  0  0  0  0
 19 20  2  0  0  0  0
 21 20  1  0  0  0  0
 21 25  1  0  0  0  0
 22 21  2  0  0  0  0
 23 18  1  0  0  0  0
 26 28  1  0  0  0  0
 26 29  1  1  0  0  0
 26  6  1  0  0  0  0
 27 26  1  0  0  0  0
 27 28  1  0  0  0  0
 28 32  1  1  0  0  0
 28 33  1  0  0  0  0
 30 27  1  0  0  0  0
 31 27  1  0  0  0  0
 33 35  1  0  0  0  0
 33 36  1  0  0  0  0
 34 33  1  0  0  0  0
 36 37  1  0  0  0  0
 38 36  1  0  0  0  0
 39 40  1  0  0  0  0
 39 45  1  1  0  0  0
 40 36  1  1  0  0  0
 40 41  1  0  0  0  0
 42 41  1  0  0  0  0
 43 47  1  6  0  0  0
 43 42  1  0  0  0  0
 44 49  1  1  0  0  0
 44 39  1  0  0  0  0
 44 43  1  0  0  0  0
 46 45  1  0  0  0  0
 47 48  1  0  0  0  0
 50 49  1  0  0  0  0
M  END
>  <minimizedAffinity>
-5.96567297

$$$$

 OpenBabel03242512033D

 50 53  0  0  1  0  0  0  0  0999 V2000
   37.6160   27.0370   42.3910 C   0  0  2  0  0  0  0  0  0  0  0  0
   38.4170   27.2770   43.6320 C   0  0  0  0  0  0  0  0  0  0  0  0
   39.7220   26.5890   43.6020 C   0  0  0  0  0  0  0  0  0  0  0  0
   39.6060   25.1070   43.3560 C   0  0  0  0  0  0  0  0  0  0  0  0
   38.5730   24.7470   42.3280 C   0  0  0  0  0  0  0  0  0  0  0  0
   38.0920   25.9320   41.5260 C   0  0  1  0  0  0  0  0  0  0  0  0
   36.5760   26.7640   42.7520 H   0  0  0  0  0  0  0  0  0  0  0  0
   38.6160   28.3810   43.6920 H   0  0  0  0  0  0  0  0  0  0  0  0
   37.8620   27.0260   44.5570 H   0  0  0  0  0  0  0  0  0  0  0  0
   40.4470   27.0690   42.9170 H   0  0  0  0  0  0  0  0  0  0  0  0
   40.1930   26.6910   44.6170 H   0  0  0  0  0  0  0  0  0  0  0  0
   40.6360   24.7530   43.0790 H   0  0  0  0  0  0  0  0  0  0  0  0
   39.3550   24.5500   44.2830 H   0  0  0  0  0  0  0  0  0  0  0  0
   39.0450   24.0380   41.6160 H   0  0  0  0  0  0  0  0  0  0  0  0
   37.7170   24.1810   42.7700 H   0  0  0  0  0  0  0  0  0  0  0  0
   38.9100   26.1580   40.8250 H   0  0  0  0  0  0  0  0  0  0  0  0
   37.4080   28.2650   41.5960 C   0  0  0  0  0  0  0  0  0  0  0  0
   36.0730   28.6050   41.4620 C   0  0  0  0  0  0  0  0  0  0  0  0
   35.7170   29.7550   40.7370 C   0  0  0  0  0  0  0  0  0  0  0  0
   36.7850   30.4800   40.1960 N   0  0  0  0  0  0  0  0  0  0  0  0
   38.0710   30.1030   40.3560 C   0  0  0  0  0  0  0  0  0  0  0  0
   38.3660   28.9920   41.0590 N   0  0  0  0  0  0  0  0  0  0  0  0
   35.1270   28.1940   41.7800 H   0  0  0  0  0  0  0  0  0  0  0  0
   34.7720   30.1810   40.5230 H   0  0  0  0  0  0  0  0  0  0  0  0
   38.8370   30.7000   39.9170 H   0  0  0  0  0  0  0  0  0  0  0  0
   36.9340   25.4770   40.6790 C   0  0  2  0  0  0  0  0  0  0  0  0
   36.7950   23.9860   40.4290 C   0  0  0  0  0  0  0  0  0  0  0  0
   37.1630   24.8930   39.3320 C   0  0  1  0  0  0  0  0  0  0  0  0
   35.9590   25.9600   40.9250 H   0  0  0  0  0  0  0  0  0  0  0  0
   37.5760   23.2940   40.7820 H   0  0  0  0  0  0  0  0  0  0  0  0
   35.7880   23.5250   40.4360 H   0  0  0  0  0  0  0  0  0  0  0  0
   38.2220   24.9000   38.9880 H   0  0  0  0  0  0  0  0  0  0  0  0
   36.2060   25.4030   38.3050 C   0  0  0  0  0  0  0  0  0  0  0  0
   36.7230   25.2760   37.3130 H   0  0  0  0  0  0  0  0  0  0  0  0
   35.2880   24.7890   38.2280 H   0  0  0  0  0  0  0  0  0  0  0  0
   35.8780   26.8620   38.4400 C   0  0  0  0  0  0  0  0  0  0  0  0
   36.4020   27.3050   39.3040 H   0  0  0  0  0  0  0  0  0  0  0  0
   34.7820   26.9420   38.5960 H   0  0  0  0  0  0  0  0  0  0  0  0
   34.9100   28.1610   36.6420 C   0  0  2  0  0  3  0  0  0  0  0  0
   36.2160   27.6050   37.1700 C   0  0  1  0  0  3  0  0  0  0  0  0
   37.1530   28.6060   37.3810 O   0  0  0  0  0  0  0  0  0  0  0  0
   36.9330   29.7430   36.6380 C   0  0  0  0  0  2  0  0  0  0  0  0
   36.4480   29.4320   35.2340 C   0  0  2  0  0  3  0  0  0  0  0  0
   35.1400   28.7030   35.2660 C   0  0  2  0  0  3  0  0  0  0  0  0
   34.4240   29.1270   37.5100 O   0  0  0  0  0  0  0  0  0  0  0  0
   33.5120   28.9230   37.8300 H   0  0  0  0  0  0  0  0  0  0  0  0
   37.4390   28.6920   34.5750 O   0  0  0  0  0  0  0  0  0  0  0  0
   38.0070   29.3390   34.0880 H   0  0  0  0  0  0  0  0  0  0  0  0
   34.0680   29.5300   34.9450 O   0  0  0  0  0  0  0  0  0  0  0  0
   33.3200   28.9670   34.6300 H   0  0  0  0  0  0  0  0  0  0  0  0
  1  7  1  1  0  0  0
  1  2  1  0  0  0  0
  2  8  1  0  0  0  0
  2  9  1  0  0  0  0
  3  2  1  0  0  0  0
  3 11  1  0  0  0  0
  4  3  1  0  0  0  0
  4 13  1  0  0  0  0
  5 15  1  0  0  0  0
  5  4  1  0  0  0  0
  6 16  1  6  0  0  0
  6  5  1  0  0  0  0
  6  1  1  0  0  0  0
 10  3  1  0  0  0  0
 12  4  1  0  0  0  0
 14  5  1  0  0  0  0
 17  1  1  0  0  0  0
 18 17  1  0  0  0  0
 18 23  1  0  0  0  0
 19 18  2  0  0  0  0
 20 21  2  0  0  0  0
 20 19  1  0  0  0  0
 21 22  1  0  0  0  0
 22 17  2  0  0  0  0
 24 19  1  0  0  0  0
 25 21  1  0  0  0  0
 26 29  1  1  0  0  0
 26  6  1  0  0  0  0
 27 31  1  0  0  0  0
 27 26  1  0  0  0  0
 27 30  1  0  0  0  0
 28 32  1  6  0  0  0
 28 27  1  0  0  0  0
 28 26  1  0  0  0  0
 33 36  1  0  0  0  0
 33 28  1  0  0  0  0
 34 33  1  0  0  0  0
 35 33  1  0  0  0  0
 36 38  1  0  0  0  0
 36 37  1  0  0  0  0
 39 40  1  0  0  0  0
 39 45  1  1  0  0  0
 40 41  1  0  0  0  0
 40 36  1  1  0  0  0
 42 41  1  0  0  0  0
 43 47  1  1  0  0  0
 43 44  1  0  0  0  0
 43 42  1  0  0  0  0
 44 49  1  1  0  0  0
 44 39  1  0  0  0  0
 45 46  1  0  0  0  0
 48 47  1  0  0  0  0
 50 49  1  0  0  0  0
M  END
>  <minimizedAffinity>
-5.82398605

$$$$

 OpenBabel03242512033D

 50 53  0  0  1  0  0  0  0  0999 V2000
   37.4670   29.5710   38.3160 C   0  0  2  0  0  0  0  0  0  0  0  0
   37.1120   29.6180   36.8640 C   0  0  0  0  0  0  0  0  0  0  0  0
   35.6650   29.4440   36.6300 C   0  0  0  0  0  0  0  0  0  0  0  0
   35.1120   28.1850   37.2440 C   0  0  0  0  0  0  0  0  0  0  0  0
   35.6690   27.8840   38.6050 C   0  0  0  0  0  0  0  0  0  0  0  0
   36.4120   29.0480   39.2160 C   0  0  1  0  0  0  0  0  0  0  0  0
   38.3550   28.8690   38.3870 H   0  0  0  0  0  0  0  0  0  0  0  0
   37.3970   30.6350   36.4830 H   0  0  0  0  0  0  0  0  0  0  0  0
   37.6960   28.9000   36.2550 H   0  0  0  0  0  0  0  0  0  0  0  0
   35.0730   30.3370   36.9100 H   0  0  0  0  0  0  0  0  0  0  0  0
   35.5000   29.3400   35.5240 H   0  0  0  0  0  0  0  0  0  0  0  0
   33.9940   28.3010   37.2480 H   0  0  0  0  0  0  0  0  0  0  0  0
   35.3020   27.2940   36.6080 H   0  0  0  0  0  0  0  0  0  0  0  0
   34.8110   27.6560   39.2720 H   0  0  0  0  0  0  0  0  0  0  0  0
   36.2910   26.9560   38.6120 H   0  0  0  0  0  0  0  0  0  0  0  0
   35.6300   29.7520   39.5390 H   0  0  0  0  0  0  0  0  0  0  0  0
   37.9860   30.8590   38.8210 C   0  0  0  0  0  0  0  0  0  0  0  0
   37.0080   31.8310   38.9370 C   0  0  0  0  0  0  0  0  0  0  0  0
   37.3480   33.1080   39.4120 C   0  0  0  0  0  0  0  0  0  0  0  0
   38.6980   33.2890   39.7380 N   0  0  0  0  0  0  0  0  0  0  0  0
   39.6120   32.3070   39.6050 C   0  0  0  0  0  0  0  0  0  0  0  0
   39.2410   31.0950   39.1450 N   0  0  0  0  0  0  0  0  0  0  0  0
   35.9490   31.8990   38.7380 H   0  0  0  0  0  0  0  0  0  0  0  0
   36.7610   33.9740   39.5720 H   0  0  0  0  0  0  0  0  0  0  0  0
   40.6250   32.5110   39.8710 H   0  0  0  0  0  0  0  0  0  0  0  0
   37.0780   28.5610   40.4740 C   0  0  2  0  0  0  0  0  0  0  0  0
   36.1960   28.3380   41.6900 C   0  0  0  0  0  0  0  0  0  0  0  0
   37.1720   29.4380   41.6710 C   0  0  1  0  0  0  0  0  0  0  0  0
   37.8110   27.7340   40.3230 H   0  0  0  0  0  0  0  0  0  0  0  0
   35.1320   28.6200   41.6570 H   0  0  0  0  0  0  0  0  0  0  0  0
   36.3810   27.4620   42.3430 H   0  0  0  0  0  0  0  0  0  0  0  0
   36.7930   30.4750   41.5270 H   0  0  0  0  0  0  0  0  0  0  0  0
   38.5120   29.3860   42.3280 C   0  0  0  0  0  0  0  0  0  0  0  0
   39.2450   29.1310   41.5120 H   0  0  0  0  0  0  0  0  0  0  0  0
   38.8440   30.3700   42.7100 H   0  0  0  0  0  0  0  0  0  0  0  0
   38.6430   28.3210   43.3780 C   0  0  0  0  0  0  0  0  0  0  0  0
   37.6880   27.7840   43.5150 H   0  0  0  0  0  0  0  0  0  0  0  0
   38.9190   28.8240   44.3270 H   0  0  0  0  0  0  0  0  0  0  0  0
   39.2290   25.9730   43.3410 C   0  0  2  0  0  3  0  0  0  0  0  0
   39.7520   27.3590   43.0280 C   0  0  1  0  0  3  0  0  0  0  0  0
   40.1480   27.4720   41.7030 O   0  0  0  0  0  0  0  0  0  0  0  0
   40.4640   26.2710   41.1100 C   0  0  0  0  0  2  0  0  0  0  0  0
   41.2030   25.3390   42.0520 C   0  0  2  0  0  3  0  0  0  0  0  0
   40.3610   24.9980   43.2420 C   0  0  2  0  0  3  0  0  0  0  0  0
   38.1890   25.6570   42.4800 O   0  0  0  0  0  0  0  0  0  0  0  0
   37.3580   25.4250   42.9610 H   0  0  0  0  0  0  0  0  0  0  0  0
   42.4090   25.9470   42.4270 O   0  0  0  0  0  0  0  0  0  0  0  0
   43.1000   25.6330   41.7930 H   0  0  0  0  0  0  0  0  0  0  0  0
   39.8180   23.7190   43.1560 O   0  0  0  0  0  0  0  0  0  0  0  0
   39.5940   23.4120   44.0680 H   0  0  0  0  0  0  0  0  0  0  0  0
  1  7  1  1  0  0  0
  1 17  1  0  0  0  0
  1  6  1  0  0  0  0
  2  1  1  0  0  0  0
  3  2  1  0  0  0  0
  3 10  1  0  0  0  0
  3  4  1  0  0  0  0
  4 12  1  0  0  0  0
  4  5  1  0  0  0  0
  5 15  1  0  0  0  0
  5  6  1  0  0  0  0
  5 14  1  0  0  0  0
  6 16  1  1  0  0  0
  6 26  1  0  0  0  0
  8  2  1  0  0  0  0
  9  2  1  0  0  0  0
 11  3  1  0  0  0  0
 13  4  1  0  0  0  0
 17 18  2  0  0  0  0
 17 22  1  0  0  0  0
 18 19  1  0  0  0  0
 19 24  1  0  0  0  0
 19 20  2  0  0  0  0
 21 20  1  0  0  0  0
 21 25  1  0  0  0  0
 22 21  2  0  0  0  0
 23 18  1  0  0  0  0
 26 29  1  6  0  0  0
 26 28  1  0  0  0  0
 26 27  1  0  0  0  0
 27 31  1  0  0  0  0
 28 32  1  6  0  0  0
 28 27  1  0  0  0  0
 28 33  1  0  0  0  0
 30 27  1  0  0  0  0
 33 35  1  0  0  0  0
 33 36  1  0  0  0  0
 34 33  1  0  0  0  0
 36 37  1  0  0  0  0
 36 38  1  0  0  0  0
 39 45  1  6  0  0  0
 40 39  1  0  0  0  0
 40 36  1  6  0  0  0
 41 40  1  0  0  0  0
 42 41  1  0  0  0  0
 42 43  1  0  0  0  0
 43 47  1  1  0  0  0
 43 44  1  0  0  0  0
 44 49  1  6  0  0  0
 44 39  1  0  0  0  0
 45 46  1  0  0  0  0
 48 47  1  0  0  0  0
 49 50  1  0  0  0  0
M  END
>  <minimizedAffinity>
-5.70649242

$$$$
