
     RDKit          3D

 43 45  0  0  0  0  0  0  0  0999 V2000
   46.8835   34.6002   42.2272 N   0  0  0  0  0  0  0  0  0  0  0  0
   48.3250   34.7517   42.2568 C   0  0  0  0  0  0  0  0  0  0  0  0
   48.6451   35.5345   40.9676 C   0  0  0  0  0  0  0  0  0  0  0  0
   48.3569   34.6365   39.7877 C   0  0  0  0  0  0  0  0  0  0  0  0
   47.0884   33.8568   39.9033 C   0  0  0  0  0  0  0  0  0  0  0  0
   46.1889   34.2553   41.0337 C   0  0  1  0  0  0  0  0  0  0  0  0
   44.5031   35.9744   44.7676 C   0  0  0  0  0  0  0  0  0  0  0  0
   45.2191   35.8807   43.5624 C   0  0  0  0  0  0  0  0  0  0  0  0
   46.1049   34.7948   43.4096 C   0  0  0  0  0  0  0  0  0  0  0  0
   46.2016   33.9177   44.4393 N   0  0  0  0  0  0  0  0  0  0  0  0
   45.4946   34.0424   45.5850 C   0  0  0  0  0  0  0  0  0  0  0  0
   44.6351   35.0910   45.7403 N   0  0  0  0  0  0  0  0  0  0  0  0
   45.3249   33.1801   41.2975 O   0  0  0  0  0  0  0  0  0  0  0  0
   48.6979   35.2596   43.1394 H   0  0  0  0  0  0  0  0  0  0  0  0
   48.7597   33.7446   42.0756 H   0  0  0  0  0  0  0  0  0  0  0  0
   47.9303   36.4038   40.9639 H   0  0  0  0  0  0  0  0  0  0  0  0
   49.6865   35.8557   40.9243 H   0  0  0  0  0  0  0  0  0  0  0  0
   48.4193   35.2564   38.8706 H   0  0  0  0  0  0  0  0  0  0  0  0
   49.2220   33.9205   39.7361 H   0  0  0  0  0  0  0  0  0  0  0  0
   47.3099   32.7634   40.0333 H   0  0  0  0  0  0  0  0  0  0  0  0
   46.5617   33.9328   38.9291 H   0  0  0  0  0  0  0  0  0  0  0  0
   45.6276   35.1682   40.7205 H   0  0  0  0  0  0  0  0  0  0  0  0
   43.8220   36.8000   44.8980 H   0  0  0  0  0  0  0  0  0  0  0  0
   45.1272   36.5905   42.7545 H   0  0  0  0  0  0  0  0  0  0  0  0
   45.5990   33.3207   46.3859 H   0  0  0  0  0  0  0  0  0  0  0  0
   44.6063   33.9717   38.8365 O   0  0  0  0  0  0  0  0  0  0  0  0
   43.5618   33.7152   39.7155 C   0  0  2  0  0  0  0  0  0  0  0  0
   43.9987   33.4782   41.1169 C   0  0  1  0  0  0  0  0  0  0  0  0
   43.1028   32.6482   41.7499 O   0  0  0  0  0  0  0  0  0  0  0  0
   43.4348   31.3227   41.3794 C   0  0  0  0  0  0  0  0  0  0  0  0
   43.4417   31.2015   39.8795 C   0  0  2  0  0  0  0  0  0  0  0  0
   44.7433   30.9717   39.4644 O   0  0  0  0  0  0  0  0  0  0  0  0
   42.8847   32.4530   39.2212 C   0  0  2  0  0  0  0  0  0  0  0  0
   43.0704   32.3585   37.8454 O   0  0  0  0  0  0  0  0  0  0  0  0
   44.2564   34.2834   37.9787 H   0  0  0  0  0  0  0  0  0  0  0  0
   42.8456   34.5542   39.6028 H   0  0  0  0  0  0  0  0  0  0  0  0
   43.8884   34.4850   41.6260 H   0  0  0  0  0  0  0  0  0  0  0  0
   44.3888   31.0091   41.7966 H   0  0  0  0  0  0  0  0  0  0  0  0
   42.5688   30.7278   41.7703 H   0  0  0  0  0  0  0  0  0  0  0  0
   42.7973   30.3638   39.5665 H   0  0  0  0  0  0  0  0  0  0  0  0
   44.7686   30.8701   38.4648 H   0  0  0  0  0  0  0  0  0  0  0  0
   41.8047   32.5436   39.4474 H   0  0  0  0  0  0  0  0  0  0  0  0
   42.6532   33.1228   37.4119 H   0  0  0  0  0  0  0  0  0  0  0  0
  1  2  1  0
  1  9  1  0
  3  2  1  0
  4  5  1  0
  4  3  1  0
  5  6  1  0
  6 13  1  0
  6  1  1  0
  7 12  2  0
  8  7  1  0
  9  8  2  0
  9 10  1  0
 10 11  2  0
 11 12  1  0
  2 14  1  0
  2 15  1  0
  3 16  1  0
  3 17  1  0
  4 18  1  0
  4 19  1  0
  5 20  1  0
  5 21  1  0
  6 22  1  6
  7 23  1  0
  8 24  1  0
 11 25  1  0
 26 27  1  0
 27 28  1  0
 28 29  1  0
 29 30  1  0
 30 31  1  0
 31 32  1  0
 31 33  1  0
 33 34  1  0
 33 27  1  0
 26 35  1  0
 27 36  1  1
 28 37  1  1
 30 38  1  0
 30 39  1  0
 31 40  1  1
 32 41  1  0
 33 42  1  6
 34 43  1  0
 13 28  1  0
M  ISO  8  14  13  15  13  16  13  17  13  18  13  19  13  20  13  21  13
M  ISO  4  22  13  23  14  24  14  25  14
M  END
>  <DihAtoms>  (1) 
5,12,27,26

>  <DihDeg>  (1) 
113.75366388153697

$$$$
