
 OpenBabel03242510493D

 42 44  0  0  1  0  0  0  0  0999 V2000
   40.6650   30.1450   39.3170 C   0  0  1  0  0  0  0  0  0  0  0  0
   39.2750   29.6520   39.3890 C   0  0  2  0  0  0  0  0  0  0  0  0
   38.5620   29.9400   38.1810 O   0  0  0  0  0  0  0  0  0  0  0  0
   38.3720   31.3250   38.1930 C   0  0  0  0  0  0  0  0  0  0  0  0
   39.6850   32.0340   37.9370 C   0  0  1  0  0  0  0  0  0  0  0  0
   40.8680   31.1300   38.1790 C   0  0  1  0  0  0  0  0  0  0  0  0
   41.3650   29.3010   39.1150 H   0  0  0  0  0  0  0  0  0  0  0  0
   39.2310   28.5320   39.4050 H   0  0  0  0  0  0  0  0  0  0  0  0
   37.8850   31.6660   39.1290 H   0  0  0  0  0  0  0  0  0  0  0  0
   37.6170   31.5140   37.3840 H   0  0  0  0  0  0  0  0  0  0  0  0
   39.7410   32.9540   38.5550 H   0  0  0  0  0  0  0  0  0  0  0  0
   41.1700   30.6400   37.2370 H   0  0  0  0  0  0  0  0  0  0  0  0
   41.0700   30.7130   40.5420 O   0  0  0  0  0  0  0  0  0  0  0  0
   41.4820   30.0140   41.1150 H   0  0  0  0  0  0  0  0  0  0  0  0
   39.6700   32.3690   36.5700 O   0  0  0  0  0  0  0  0  0  0  0  0
   39.6930   31.4910   36.0970 H   0  0  0  0  0  0  0  0  0  0  0  0
   38.4830   30.1720   40.4480 O   0  0  0  0  0  0  0  0  0  0  0  0
   37.4370   27.0200   41.7900 C   0  0  0  0  0  0  0  0  0  0  0  0
   37.2600   27.2800   43.1560 C   0  0  0  0  0  0  0  0  0  0  0  0
   37.5100   28.5760   43.6090 C   0  0  0  0  0  0  0  0  0  0  0  0
   37.9100   29.5120   42.7070 N   0  0  0  0  0  0  0  0  0  0  0  0
   38.0720   29.2460   41.4140 C   0  0  0  0  0  0  0  0  0  0  0  0
   37.8370   27.9940   40.9410 N   0  0  0  0  0  0  0  0  0  0  0  0
   36.9400   26.5020   43.8440 H   0  0  0  0  0  0  0  0  0  0  0  0
   37.3940   28.8450   44.6480 H   0  0  0  0  0  0  0  0  0  0  0  0
   37.1710   25.6210   41.3150 C   0  0  0  0  0  0  0  0  0  0  0  0
   36.3740   25.6140   40.2110 F   0  0  0  0  0  0  0  0  0  0  0  0
   38.3930   25.0030   41.0900 F   0  0  0  0  0  0  0  0  0  0  0  0
   36.5890   24.8930   42.3760 F   0  0  0  0  0  0  0  0  0  0  0  0
   41.9500   31.9680   38.5450 O   0  0  0  0  0  0  0  0  0  0  0  0
   42.4730   34.1780   38.0490 C   0  0  1  0  0  3  0  0  0  0  0  0
   41.4980   33.2820   38.8070 C   0  0  2  0  0  3  0  0  0  0  0  0
   41.6440   33.4510   40.1640 O   0  0  0  0  0  0  0  0  0  0  0  0
   42.6170   34.3270   40.5640 C   0  0  0  0  0  2  0  0  0  0  0  0
   43.9680   34.1250   39.9510 C   0  0  2  0  0  3  0  0  0  0  0  0
   43.8360   33.6970   38.5110 C   0  0  2  0  0  3  0  0  0  0  0  0
   42.2930   34.0580   36.6920 O   0  0  0  0  0  0  0  0  0  0  0  0
   41.3330   34.2070   36.5150 H   0  0  0  0  0  0  0  0  0  0  0  0
   44.8070   33.2900   40.6760 O   0  0  0  0  0  0  0  0  0  0  0  0
   45.7430   33.5340   40.3900 H   0  0  0  0  0  0  0  0  0  0  0  0
   44.8610   34.1900   37.7160 O   0  0  0  0  0  0  0  0  0  0  0  0
   44.8930   33.6240   36.8800 H   0  0  0  0  0  0  0  0  0  0  0  0
  1  7  1  6  0  0  0
  1  2  1  0  0  0  0
  1 13  1  0  0  0  0
  2  8  1  1  0  0  0
  2 17  1  0  0  0  0
  3  4  1  0  0  0  0
  3  2  1  0  0  0  0
  4  9  1  0  0  0  0
  5  6  1  0  0  0  0
  5  4  1  0  0  0  0
  5 11  1  1  0  0  0
  6 12  1  6  0  0  0
  6 30  1  0  0  0  0
  6  1  1  0  0  0  0
 10  4  1  0  0  0  0
 13 14  1  0  0  0  0
 15  5  1  0  0  0  0
 16 15  1  0  0  0  0
 17 22  1  0  0  0  0
 18 19  1  0  0  0  0
 19 20  2  0  0  0  0
 19 24  1  0  0  0  0
 20 25  1  0  0  0  0
 21 20  1  0  0  0  0
 22 21  2  0  0  0  0
 23 22  1  0  0  0  0
 23 18  2  0  0  0  0
 26 18  1  0  0  0  0
 26 29  1  0  0  0  0
 27 26  1  0  0  0  0
 28 26  1  0  0  0  0
 31 37  1  6  0  0  0
 31 36  1  0  0  0  0
 31 32  1  0  0  0  0
 32 30  1  1  0  0  0
 32 33  1  0  0  0  0
 33 34  1  0  0  0  0
 35 34  1  0  0  0  0
 35 39  1  1  0  0  0
 36 41  1  6  0  0  0
 36 35  1  0  0  0  0
 38 37  1  0  0  0  0
 40 39  1  0  0  0  0
 42 41  1  0  0  0  0
M  END
>  <minimizedAffinity>
-6.9657259

$$$$

 OpenBabel03242510493D

 42 44  0  0  1  0  0  0  0  0999 V2000
   39.3680   31.2890   41.0020 C   0  0  1  0  0  0  0  0  0  0  0  0
   39.2690   32.5820   40.2980 C   0  0  2  0  0  0  0  0  0  0  0  0
   37.9900   33.1910   40.5120 O   0  0  0  0  0  0  0  0  0  0  0  0
   37.0890   32.4050   39.7880 C   0  0  0  0  0  0  0  0  0  0  0  0
   36.8970   31.0680   40.4710 C   0  0  1  0  0  0  0  0  0  0  0  0
   38.0110   30.7690   41.4440 C   0  0  1  0  0  0  0  0  0  0  0  0
   39.9670   31.4010   41.9360 H   0  0  0  0  0  0  0  0  0  0  0  0
   39.9530   33.3520   40.7430 H   0  0  0  0  0  0  0  0  0  0  0  0
   37.3950   32.2970   38.7280 H   0  0  0  0  0  0  0  0  0  0  0  0
   36.1450   33.0120   39.7590 H   0  0  0  0  0  0  0  0  0  0  0  0
   36.7970   30.2680   39.7080 H   0  0  0  0  0  0  0  0  0  0  0  0
   37.7310   31.1100   42.4570 H   0  0  0  0  0  0  0  0  0  0  0  0
   40.0340   30.3280   40.2160 O   0  0  0  0  0  0  0  0  0  0  0  0
   41.0090   30.3590   40.4030 H   0  0  0  0  0  0  0  0  0  0  0  0
   35.7030   31.1890   41.2050 O   0  0  0  0  0  0  0  0  0  0  0  0
   35.9080   31.8690   41.9050 H   0  0  0  0  0  0  0  0  0  0  0  0
   39.4560   32.5420   38.8900 O   0  0  0  0  0  0  0  0  0  0  0  0
   42.6540   32.0750   37.3470 C   0  0  0  0  0  0  0  0  0  0  0  0
   43.2700   33.3290   37.4650 C   0  0  0  0  0  0  0  0  0  0  0  0
   42.5540   34.3480   38.0950 C   0  0  0  0  0  0  0  0  0  0  0  0
   41.3040   34.0720   38.5570 N   0  0  0  0  0  0  0  0  0  0  0  0
   40.7370   32.8750   38.4340 C   0  0  0  0  0  0  0  0  0  0  0  0
   41.4080   31.8610   37.8270 N   0  0  0  0  0  0  0  0  0  0  0  0
   44.2710   33.5080   37.0810 H   0  0  0  0  0  0  0  0  0  0  0  0
   42.9660   35.3370   38.2200 H   0  0  0  0  0  0  0  0  0  0  0  0
   43.4320   30.9880   36.6620 C   0  0  0  0  0  0  0  0  0  0  0  0
   42.6750   30.3500   35.7270 F   0  0  0  0  0  0  0  0  0  0  0  0
   44.5770   31.5520   36.1220 F   0  0  0  0  0  0  0  0  0  0  0  0
   43.9010   30.0890   37.6460 F   0  0  0  0  0  0  0  0  0  0  0  0
   38.1130   29.3590   41.5230 O   0  0  0  0  0  0  0  0  0  0  0  0
   39.1850   27.8960   42.9780 C   0  0  1  0  0  3  0  0  0  0  0  0
   38.0680   28.9300   42.8690 C   0  0  2  0  0  3  0  0  0  0  0  0
   36.8390   28.3290   43.0160 O   0  0  0  0  0  0  0  0  0  0  0  0
   36.8470   26.9700   43.1900 C   0  0  0  0  0  2  0  0  0  0  0  0
   37.6540   26.1910   42.1990 C   0  0  2  0  0  3  0  0  0  0  0  0
   38.9060   26.9450   41.8280 C   0  0  2  0  0  3  0  0  0  0  0  0
   40.4170   28.4980   42.8900 O   0  0  0  0  0  0  0  0  0  0  0  0
   40.4290   29.2270   43.5560 H   0  0  0  0  0  0  0  0  0  0  0  0
   36.9420   25.7690   41.0850 O   0  0  0  0  0  0  0  0  0  0  0  0
   37.4550   24.9820   40.7190 H   0  0  0  0  0  0  0  0  0  0  0  0
   39.9790   26.1010   41.5780 O   0  0  0  0  0  0  0  0  0  0  0  0
   40.6570   26.6250   41.0420 H   0  0  0  0  0  0  0  0  0  0  0  0
  1  6  1  0  0  0  0
  1  7  1  1  0  0  0
  2  3  1  0  0  0  0
  2  8  1  1  0  0  0
  2  1  1  0  0  0  0
  4  5  1  0  0  0  0
  4  3  1  0  0  0  0
  5 11  1  6  0  0  0
  5 15  1  0  0  0  0
  5  6  1  0  0  0  0
  6 30  1  0  0  0  0
  6 12  1  1  0  0  0
  9  4  1  0  0  0  0
 10  4  1  0  0  0  0
 13 14  1  0  0  0  0
 13  1  1  0  0  0  0
 15 16  1  0  0  0  0
 17  2  1  0  0  0  0
 18 19  2  0  0  0  0
 18 23  1  0  0  0  0
 19 20  1  0  0  0  0
 20 25  1  0  0  0  0
 20 21  2  0  0  0  0
 22 21  1  0  0  0  0
 22 17  1  0  0  0  0
 23 22  2  0  0  0  0
 24 19  1  0  0  0  0
 26 18  1  0  0  0  0
 26 29  1  0  0  0  0
 27 26  1  0  0  0  0
 28 26  1  0  0  0  0
 31 37  1  6  0  0  0
 32 30  1  6  0  0  0
 32 31  1  0  0  0  0
 32 33  1  0  0  0  0
 33 34  1  0  0  0  0
 35 39  1  6  0  0  0
 35 34  1  0  0  0  0
 36 41  1  1  0  0  0
 36 35  1  0  0  0  0
 36 31  1  0  0  0  0
 37 38  1  0  0  0  0
 40 39  1  0  0  0  0
 42 41  1  0  0  0  0
M  END
>  <minimizedAffinity>
-6.34240818

$$$$

 OpenBabel03242510493D

 42 44  0  0  1  0  0  0  0  0999 V2000
   39.2970   32.2210   38.0020 C   0  0  1  0  0  0  0  0  0  0  0  0
   38.0470   31.5460   38.4050 C   0  0  2  0  0  0  0  0  0  0  0  0
   37.7670   31.7620   39.7930 O   0  0  0  0  0  0  0  0  0  0  0  0
   38.7280   31.0120   40.4780 C   0  0  0  0  0  0  0  0  0  0  0  0
   40.0880   31.6620   40.3460 C   0  0  1  0  0  0  0  0  0  0  0  0
   40.1360   32.6380   39.1970 C   0  0  1  0  0  0  0  0  0  0  0  0
   39.0670   33.1620   37.4500 H   0  0  0  0  0  0  0  0  0  0  0  0
   37.1470   32.0140   37.9270 H   0  0  0  0  0  0  0  0  0  0  0  0
   38.7330   29.9530   40.1520 H   0  0  0  0  0  0  0  0  0  0  0  0
   38.3640   30.9890   41.5400 H   0  0  0  0  0  0  0  0  0  0  0  0
   40.8700   30.8800   40.2500 H   0  0  0  0  0  0  0  0  0  0  0  0
   39.8980   33.6560   39.5530 H   0  0  0  0  0  0  0  0  0  0  0  0
   40.0500   31.4180   37.1230 O   0  0  0  0  0  0  0  0  0  0  0  0
   39.7910   31.6140   36.1840 H   0  0  0  0  0  0  0  0  0  0  0  0
   40.2750   32.3890   41.5380 O   0  0  0  0  0  0  0  0  0  0  0  0
   39.5830   33.1060   41.5030 H   0  0  0  0  0  0  0  0  0  0  0  0
   38.0070   30.1390   38.2100 O   0  0  0  0  0  0  0  0  0  0  0  0
   36.3120   30.1110   35.0540 C   0  0  0  0  0  0  0  0  0  0  0  0
   35.5090   28.9640   35.1150 C   0  0  0  0  0  0  0  0  0  0  0  0
   35.5630   28.1940   36.2780 C   0  0  0  0  0  0  0  0  0  0  0  0
   36.3870   28.5950   37.2830 N   0  0  0  0  0  0  0  0  0  0  0  0
   37.1420   29.6860   37.2060 C   0  0  0  0  0  0  0  0  0  0  0  0
   37.1130   30.4590   36.0880 N   0  0  0  0  0  0  0  0  0  0  0  0
   34.8640   28.6790   34.2880 H   0  0  0  0  0  0  0  0  0  0  0  0
   34.9710   27.2990   36.3930 H   0  0  0  0  0  0  0  0  0  0  0  0
   36.2510   30.9290   33.7960 C   0  0  0  0  0  0  0  0  0  0  0  0
   34.9770   31.3230   33.5210 F   0  0  0  0  0  0  0  0  0  0  0  0
   37.1190   32.0010   33.9370 F   0  0  0  0  0  0  0  0  0  0  0  0
   36.7930   30.1620   32.7400 F   0  0  0  0  0  0  0  0  0  0  0  0
   41.4820   32.6850   38.7600 O   0  0  0  0  0  0  0  0  0  0  0  0
   43.0300   34.1390   37.8130 C   0  0  1  0  0  3  0  0  0  0  0  0
   42.0230   33.9780   38.9480 C   0  0  2  0  0  3  0  0  0  0  0  0
   42.6700   33.9260   40.1610 O   0  0  0  0  0  0  0  0  0  0  0  0
   44.0370   33.9920   40.1210 C   0  0  0  0  0  2  0  0  0  0  0  0
   44.7080   33.0480   39.1730 C   0  0  2  0  0  3  0  0  0  0  0  0
   43.8890   32.8920   37.9160 C   0  0  2  0  0  3  0  0  0  0  0  0
   42.3880   34.2490   36.6030 O   0  0  0  0  0  0  0  0  0  0  0  0
   41.7170   34.9670   36.6980 H   0  0  0  0  0  0  0  0  0  0  0  0
   45.0550   31.8250   39.7320 O   0  0  0  0  0  0  0  0  0  0  0  0
   45.7950   31.4640   39.1490 H   0  0  0  0  0  0  0  0  0  0  0  0
   44.6790   32.7070   36.7890 O   0  0  0  0  0  0  0  0  0  0  0  0
   44.0920   32.3010   36.0740 H   0  0  0  0  0  0  0  0  0  0  0  0
  1  7  1  6  0  0  0
  1  2  1  0  0  0  0
  1  6  1  0  0  0  0
  2  8  1  6  0  0  0
  2  3  1  0  0  0  0
  3  4  1  0  0  0  0
  4 10  1  0  0  0  0
  5 11  1  6  0  0  0
  5  4  1  0  0  0  0
  5 15  1  0  0  0  0
  6 12  1  1  0  0  0
  6  5  1  0  0  0  0
  9  4  1  0  0  0  0
 13  1  1  0  0  0  0
 14 13  1  0  0  0  0
 16 15  1  0  0  0  0
 17  2  1  0  0  0  0
 18 19  2  0  0  0  0
 18 23  1  0  0  0  0
 19 20  1  0  0  0  0
 20 25  1  0  0  0  0
 20 21  2  0  0  0  0
 22 21  1  0  0  0  0
 22 17  1  0  0  0  0
 23 22  2  0  0  0  0
 24 19  1  0  0  0  0
 26 28  1  0  0  0  0
 26 18  1  0  0  0  0
 27 26  1  0  0  0  0
 29 26  1  0  0  0  0
 30  6  1  0  0  0  0
 31 37  1  6  0  0  0
 31 36  1  0  0  0  0
 31 32  1  0  0  0  0
 32 30  1  6  0  0  0
 32 33  1  0  0  0  0
 34 33  1  0  0  0  0
 35 39  1  1  0  0  0
 35 34  1  0  0  0  0
 36 41  1  6  0  0  0
 36 35  1  0  0  0  0
 37 38  1  0  0  0  0
 40 39  1  0  0  0  0
 42 41  1  0  0  0  0
M  END
>  <minimizedAffinity>
-6.17969418

$$$$

 OpenBabel03242510493D

 42 44  0  0  1  0  0  0  0  0999 V2000
   39.4140   32.3520   38.3030 C   0  0  1  0  0  0  0  0  0  0  0  0
   38.1820   31.7360   38.8340 C   0  0  2  0  0  0  0  0  0  0  0  0
   38.0410   31.9880   40.2370 O   0  0  0  0  0  0  0  0  0  0  0  0
   39.0310   31.2110   40.8460 C   0  0  0  0  0  0  0  0  0  0  0  0
   40.3980   31.8030   40.5760 C   0  0  1  0  0  0  0  0  0  0  0  0
   40.3770   32.7560   39.4060 C   0  0  1  0  0  0  0  0  0  0  0  0
   39.1710   33.2930   37.7550 H   0  0  0  0  0  0  0  0  0  0  0  0
   37.2610   32.2320   38.4310 H   0  0  0  0  0  0  0  0  0  0  0  0
   38.9650   30.1470   40.5430 H   0  0  0  0  0  0  0  0  0  0  0  0
   38.7670   31.2220   41.9370 H   0  0  0  0  0  0  0  0  0  0  0  0
   41.1360   30.9880   40.4240 H   0  0  0  0  0  0  0  0  0  0  0  0
   40.2120   33.7880   39.7610 H   0  0  0  0  0  0  0  0  0  0  0  0
   40.0510   31.5040   37.3750 O   0  0  0  0  0  0  0  0  0  0  0  0
   39.7140   31.6950   36.4600 H   0  0  0  0  0  0  0  0  0  0  0  0
   40.7220   32.5410   41.7290 O   0  0  0  0  0  0  0  0  0  0  0  0
   40.0590   33.2860   41.7440 H   0  0  0  0  0  0  0  0  0  0  0  0
   38.0690   30.3290   38.6730 O   0  0  0  0  0  0  0  0  0  0  0  0
   34.9870   29.1890   37.2460 C   0  0  0  0  0  0  0  0  0  0  0  0
   35.2840   29.0380   35.8850 C   0  0  0  0  0  0  0  0  0  0  0  0
   36.5800   29.3380   35.4650 C   0  0  0  0  0  0  0  0  0  0  0  0
   37.4810   29.7590   36.3930 N   0  0  0  0  0  0  0  0  0  0  0  0
   37.1800   29.8970   37.6810 C   0  0  0  0  0  0  0  0  0  0  0  0
   35.9270   29.6130   38.1230 N   0  0  0  0  0  0  0  0  0  0  0  0
   34.5330   28.6990   35.1760 H   0  0  0  0  0  0  0  0  0  0  0  0
   36.8770   29.2430   34.4320 H   0  0  0  0  0  0  0  0  0  0  0  0
   33.5870   28.8700   37.6870 C   0  0  0  0  0  0  0  0  0  0  0  0
   32.6760   29.6630   37.0580 F   0  0  0  0  0  0  0  0  0  0  0  0
   33.3620   27.5210   37.4600 F   0  0  0  0  0  0  0  0  0  0  0  0
   33.5180   29.0170   39.0900 F   0  0  0  0  0  0  0  0  0  0  0  0
   41.6770   32.7400   38.8470 O   0  0  0  0  0  0  0  0  0  0  0  0
   43.1900   34.1160   37.7400 C   0  0  1  0  0  3  0  0  0  0  0  0
   42.2870   34.0100   38.9650 C   0  0  2  0  0  3  0  0  0  0  0  0
   43.0400   33.9440   40.1140 O   0  0  0  0  0  0  0  0  0  0  0  0
   44.4000   33.9500   39.9480 C   0  0  0  0  0  2  0  0  0  0  0  0
   44.9390   32.9680   38.9550 C   0  0  2  0  0  3  0  0  0  0  0  0
   44.0020   32.8350   37.7820 C   0  0  2  0  0  3  0  0  0  0  0  0
   42.4430   34.2410   36.5930 O   0  0  0  0  0  0  0  0  0  0  0  0
   41.8150   34.9880   36.7390 H   0  0  0  0  0  0  0  0  0  0  0  0
   45.2860   31.7380   39.4970 O   0  0  0  0  0  0  0  0  0  0  0  0
   45.9520   31.3390   38.8540 H   0  0  0  0  0  0  0  0  0  0  0  0
   44.6760   32.6040   36.5890 O   0  0  0  0  0  0  0  0  0  0  0  0
   44.0090   32.2160   35.9370 H   0  0  0  0  0  0  0  0  0  0  0  0
  1  7  1  6  0  0  0
  1  2  1  0  0  0  0
  1  6  1  0  0  0  0
  2  8  1  6  0  0  0
  2  3  1  0  0  0  0
  3  4  1  0  0  0  0
  4 10  1  0  0  0  0
  5 11  1  6  0  0  0
  5  4  1  0  0  0  0
  5 15  1  0  0  0  0
  6 12  1  1  0  0  0
  6  5  1  0  0  0  0
  9  4  1  0  0  0  0
 13  1  1  0  0  0  0
 14 13  1  0  0  0  0
 15 16  1  0  0  0  0
 17  2  1  0  0  0  0
 18 26  1  0  0  0  0
 18 23  1  0  0  0  0
 19 18  2  0  0  0  0
 20 19  1  0  0  0  0
 20 21  2  0  0  0  0
 21 22  1  0  0  0  0
 22 23  2  0  0  0  0
 22 17  1  0  0  0  0
 24 19  1  0  0  0  0
 25 20  1  0  0  0  0
 26 29  1  0  0  0  0
 27 26  1  0  0  0  0
 28 26  1  0  0  0  0
 30  6  1  0  0  0  0
 31 37  1  6  0  0  0
 31 36  1  0  0  0  0
 31 32  1  0  0  0  0
 32 30  1  6  0  0  0
 32 33  1  0  0  0  0
 34 33  1  0  0  0  0
 35 39  1  1  0  0  0
 35 34  1  0  0  0  0
 36 41  1  6  0  0  0
 36 35  1  0  0  0  0
 37 38  1  0  0  0  0
 40 39  1  0  0  0  0
 42 41  1  0  0  0  0
M  END
>  <minimizedAffinity>
-6.13756752

$$$$

 OpenBabel03242510493D

 42 44  0  0  1  0  0  0  0  0999 V2000
   38.6650   29.7790   39.9880 C   0  0  1  0  0  0  0  0  0  0  0  0
   37.3910   29.0930   40.2840 C   0  0  2  0  0  0  0  0  0  0  0  0
   36.2710   29.9470   40.0220 O   0  0  0  0  0  0  0  0  0  0  0  0
   36.3110   30.9170   41.0280 C   0  0  0  0  0  0  0  0  0  0  0  0
   37.4680   31.8650   40.7920 C   0  0  1  0  0  0  0  0  0  0  0  0
   38.4910   31.2810   39.8510 C   0  0  1  0  0  0  0  0  0  0  0  0
   39.0730   29.4310   39.0100 H   0  0  0  0  0  0  0  0  0  0  0  0
   37.1950   28.2520   39.5690 H   0  0  0  0  0  0  0  0  0  0  0  0
   36.3380   30.4620   42.0380 H   0  0  0  0  0  0  0  0  0  0  0  0
   35.3150   31.4300   40.9640 H   0  0  0  0  0  0  0  0  0  0  0  0
   37.9230   32.1500   41.7640 H   0  0  0  0  0  0  0  0  0  0  0  0
   38.2750   31.5940   38.8140 H   0  0  0  0  0  0  0  0  0  0  0  0
   39.6430   29.4790   40.9570 O   0  0  0  0  0  0  0  0  0  0  0  0
   40.1570   28.6770   40.6780 H   0  0  0  0  0  0  0  0  0  0  0  0
   36.9050   32.9970   40.1710 O   0  0  0  0  0  0  0  0  0  0  0  0
   36.5900   32.6640   39.2850 H   0  0  0  0  0  0  0  0  0  0  0  0
   37.2280   28.6280   41.6170 O   0  0  0  0  0  0  0  0  0  0  0  0
   37.5120   25.0660   41.3650 C   0  0  0  0  0  0  0  0  0  0  0  0
   38.5490   24.7490   42.2530 C   0  0  0  0  0  0  0  0  0  0  0  0
   39.1530   25.7980   42.9480 C   0  0  0  0  0  0  0  0  0  0  0  0
   38.7060   27.0640   42.7270 N   0  0  0  0  0  0  0  0  0  0  0  0
   37.7210   27.3440   41.8800 C   0  0  0  0  0  0  0  0  0  0  0  0
   37.1120   26.3460   41.1870 N   0  0  0  0  0  0  0  0  0  0  0  0
   38.8760   23.7230   42.3990 H   0  0  0  0  0  0  0  0  0  0  0  0
   39.9570   25.6250   43.6470 H   0  0  0  0  0  0  0  0  0  0  0  0
   36.8740   23.9310   40.6170 C   0  0  0  0  0  0  0  0  0  0  0  0
   35.5850   23.7400   41.0100 F   0  0  0  0  0  0  0  0  0  0  0  0
   36.9810   24.1950   39.2600 F   0  0  0  0  0  0  0  0  0  0  0  0
   37.6520   22.7700   40.8220 F   0  0  0  0  0  0  0  0  0  0  0  0
   39.7330   31.8730   40.1830 O   0  0  0  0  0  0  0  0  0  0  0  0
   41.8070   31.8430   39.1310 C   0  0  1  0  0  3  0  0  0  0  0  0
   40.3770   32.3670   39.0250 C   0  0  2  0  0  3  0  0  0  0  0  0
   40.3550   33.7360   39.1550 O   0  0  0  0  0  0  0  0  0  0  0  0
   41.5620   34.3420   39.3790 C   0  0  0  0  0  2  0  0  0  0  0  0
   42.3880   33.7620   40.4850 C   0  0  2  0  0  3  0  0  0  0  0  0
   42.2400   32.2620   40.5240 C   0  0  2  0  0  3  0  0  0  0  0  0
   41.8430   30.4820   38.9440 O   0  0  0  0  0  0  0  0  0  0  0  0
   41.3700   30.2950   38.0980 H   0  0  0  0  0  0  0  0  0  0  0  0
   42.1730   34.3470   41.7260 O   0  0  0  0  0  0  0  0  0  0  0  0
   43.0070   34.1560   42.2610 H   0  0  0  0  0  0  0  0  0  0  0  0
   43.4070   31.6250   40.9210 O   0  0  0  0  0  0  0  0  0  0  0  0
   43.1540   30.6960   41.2290 H   0  0  0  0  0  0  0  0  0  0  0  0
  1  7  1  6  0  0  0
  1  2  1  0  0  0  0
  1 13  1  0  0  0  0
  2  8  1  6  0  0  0
  2 17  1  0  0  0  0
  3  2  1  0  0  0  0
  3  4  1  0  0  0  0
  4  9  1  0  0  0  0
  5  4  1  0  0  0  0
  5 11  1  1  0  0  0
  6 12  1  6  0  0  0
  6  1  1  0  0  0  0
  6 30  1  0  0  0  0
  6  5  1  0  0  0  0
 10  4  1  0  0  0  0
 14 13  1  0  0  0  0
 15  5  1  0  0  0  0
 16 15  1  0  0  0  0
 17 22  1  0  0  0  0
 18 19  1  0  0  0  0
 19 24  1  0  0  0  0
 19 20  2  0  0  0  0
 20 25  1  0  0  0  0
 21 20  1  0  0  0  0
 22 21  2  0  0  0  0
 23 18  2  0  0  0  0
 23 22  1  0  0  0  0
 26 29  1  0  0  0  0
 26 27  1  0  0  0  0
 26 18  1  0  0  0  0
 28 26  1  0  0  0  0
 31 37  1  1  0  0  0
 31 36  1  0  0  0  0
 32 31  1  0  0  0  0
 32 33  1  0  0  0  0
 32 30  1  1  0  0  0
 33 34  1  0  0  0  0
 34 35  1  0  0  0  0
 35 36  1  0  0  0  0
 35 39  1  1  0  0  0
 36 41  1  6  0  0  0
 38 37  1  0  0  0  0
 39 40  1  0  0  0  0
 41 42  1  0  0  0  0
M  END
>  <minimizedAffinity>
-6.01335716

$$$$

 OpenBabel03242510493D

 42 44  0  0  1  0  0  0  0  0999 V2000
   37.8460   28.6990   39.3510 C   0  0  1  0  0  0  0  0  0  0  0  0
   37.0010   27.5910   39.8390 C   0  0  2  0  0  0  0  0  0  0  0  0
   35.7440   28.0750   40.3270 O   0  0  0  0  0  0  0  0  0  0  0  0
   36.0500   28.7440   41.5160 C   0  0  0  0  0  0  0  0  0  0  0  0
   36.7700   30.0410   41.2140 C   0  0  1  0  0  0  0  0  0  0  0  0
   37.3460   30.0530   39.8200 C   0  0  1  0  0  0  0  0  0  0  0  0
   37.8260   28.7380   38.2360 H   0  0  0  0  0  0  0  0  0  0  0  0
   36.6670   26.9220   39.0040 H   0  0  0  0  0  0  0  0  0  0  0  0
   36.6180   28.1000   42.2170 H   0  0  0  0  0  0  0  0  0  0  0  0
   35.0560   28.9100   42.0090 H   0  0  0  0  0  0  0  0  0  0  0  0
   37.5520   30.2230   41.9800 H   0  0  0  0  0  0  0  0  0  0  0  0
   36.6290   30.5120   39.1170 H   0  0  0  0  0  0  0  0  0  0  0  0
   39.1940   28.5130   39.7180 O   0  0  0  0  0  0  0  0  0  0  0  0
   39.6690   28.0070   39.0070 H   0  0  0  0  0  0  0  0  0  0  0  0
   35.7830   31.0430   41.2820 O   0  0  0  0  0  0  0  0  0  0  0  0
   35.1710   30.8430   40.5210 H   0  0  0  0  0  0  0  0  0  0  0  0
   37.5520   26.8010   40.8850 O   0  0  0  0  0  0  0  0  0  0  0  0
   36.3360   23.5890   39.8690 C   0  0  0  0  0  0  0  0  0  0  0  0
   37.4040   22.7240   40.1450 C   0  0  0  0  0  0  0  0  0  0  0  0
   38.5620   23.2750   40.6950 C   0  0  0  0  0  0  0  0  0  0  0  0
   38.5930   24.6150   40.9320 N   0  0  0  0  0  0  0  0  0  0  0  0
   37.5690   25.4190   40.6620 C   0  0  0  0  0  0  0  0  0  0  0  0
   36.4260   24.9140   40.1270 N   0  0  0  0  0  0  0  0  0  0  0  0
   37.3390   21.6590   39.9390 H   0  0  0  0  0  0  0  0  0  0  0  0
   39.4220   22.6680   40.9320 H   0  0  0  0  0  0  0  0  0  0  0  0
   35.0980   22.9860   39.2720 C   0  0  0  0  0  0  0  0  0  0  0  0
   35.3370   21.7340   38.7910 F   0  0  0  0  0  0  0  0  0  0  0  0
   34.1020   23.0020   40.2370 F   0  0  0  0  0  0  0  0  0  0  0  0
   34.6290   23.8470   38.2550 F   0  0  0  0  0  0  0  0  0  0  0  0
   38.4660   30.9200   39.8510 O   0  0  0  0  0  0  0  0  0  0  0  0
   39.4840   32.2650   38.2510 C   0  0  1  0  0  3  0  0  0  0  0  0
   38.2190   32.0820   39.0850 C   0  0  2  0  0  3  0  0  0  0  0  0
   38.0970   33.1000   40.0020 O   0  0  0  0  0  0  0  0  0  0  0  0
   39.1060   34.0260   40.0170 C   0  0  0  0  0  2  0  0  0  0  0  0
   40.4960   33.4750   40.0850 C   0  0  2  0  0  3  0  0  0  0  0  0
   40.6010   32.2070   39.2760 C   0  0  2  0  0  3  0  0  0  0  0  0
   39.5820   31.2830   37.2940 O   0  0  0  0  0  0  0  0  0  0  0  0
   38.7280   31.2770   36.7990 H   0  0  0  0  0  0  0  0  0  0  0  0
   40.9890   33.3210   41.3740 O   0  0  0  0  0  0  0  0  0  0  0  0
   41.9930   33.3200   41.2800 H   0  0  0  0  0  0  0  0  0  0  0  0
   41.8480   32.0600   38.6820 O   0  0  0  0  0  0  0  0  0  0  0  0
   41.9540   31.0840   38.4420 H   0  0  0  0  0  0  0  0  0  0  0  0
  1  7  1  6  0  0  0
  1 13  1  0  0  0  0
  1  6  1  0  0  0  0
  1  2  1  0  0  0  0
  2  8  1  6  0  0  0
  2  3  1  0  0  0  0
  2 17  1  0  0  0  0
  3  4  1  0  0  0  0
  4 10  1  0  0  0  0
  4  9  1  0  0  0  0
  5 15  1  0  0  0  0
  5  4  1  0  0  0  0
  5 11  1  1  0  0  0
  6 12  1  6  0  0  0
  6 30  1  0  0  0  0
  6  5  1  0  0  0  0
 14 13  1  0  0  0  0
 16 15  1  0  0  0  0
 18 23  2  0  0  0  0
 18 19  1  0  0  0  0
 19 20  2  0  0  0  0
 20 25  1  0  0  0  0
 20 21  1  0  0  0  0
 22 17  1  0  0  0  0
 22 21  2  0  0  0  0
 23 22  1  0  0  0  0
 24 19  1  0  0  0  0
 26 18  1  0  0  0  0
 26 28  1  0  0  0  0
 27 26  1  0  0  0  0
 29 26  1  0  0  0  0
 31 37  1  6  0  0  0
 31 32  1  0  0  0  0
 31 36  1  0  0  0  0
 32 30  1  1  0  0  0
 32 33  1  0  0  0  0
 33 34  1  0  0  0  0
 34 35  1  0  0  0  0
 35 39  1  1  0  0  0
 36 41  1  6  0  0  0
 36 35  1  0  0  0  0
 38 37  1  0  0  0  0
 40 39  1  0  0  0  0
 42 41  1  0  0  0  0
M  END
>  <minimizedAffinity>
-6.01311302

$$$$

 OpenBabel03242510493D

 42 44  0  0  1  0  0  0  0  0999 V2000
   37.7670   29.5110   39.0820 C   0  0  1  0  0  0  0  0  0  0  0  0
   36.5780   28.9140   39.7200 C   0  0  2  0  0  0  0  0  0  0  0  0
   35.5870   29.9090   40.0020 O   0  0  0  0  0  0  0  0  0  0  0  0
   36.1210   30.6660   41.0490 C   0  0  0  0  0  0  0  0  0  0  0  0
   37.2650   31.5210   40.5450 C   0  0  1  0  0  0  0  0  0  0  0  0
   37.8000   31.0220   39.2260 C   0  0  1  0  0  0  0  0  0  0  0  0
   37.7580   29.3120   37.9840 H   0  0  0  0  0  0  0  0  0  0  0  0
   36.0180   28.2440   39.0160 H   0  0  0  0  0  0  0  0  0  0  0  0
   36.4170   30.0300   41.9080 H   0  0  0  0  0  0  0  0  0  0  0  0
   35.2590   31.2800   41.4220 H   0  0  0  0  0  0  0  0  0  0  0  0
   38.0620   31.5720   41.3150 H   0  0  0  0  0  0  0  0  0  0  0  0
   37.2970   31.5420   38.3910 H   0  0  0  0  0  0  0  0  0  0  0  0
   38.9550   28.9400   39.5800 O   0  0  0  0  0  0  0  0  0  0  0  0
   39.2090   28.1560   39.0250 H   0  0  0  0  0  0  0  0  0  0  0  0
   36.7130   32.7980   40.3330 O   0  0  0  0  0  0  0  0  0  0  0  0
   36.0670   32.6700   39.5840 H   0  0  0  0  0  0  0  0  0  0  0  0
   36.8050   28.2270   40.9430 O   0  0  0  0  0  0  0  0  0  0  0  0
   38.9940   25.5230   41.7950 C   0  0  0  0  0  0  0  0  0  0  0  0
   38.7470   24.5660   40.8020 C   0  0  0  0  0  0  0  0  0  0  0  0
   37.8030   24.8750   39.8220 C   0  0  0  0  0  0  0  0  0  0  0  0
   37.1760   26.0810   39.8840 N   0  0  0  0  0  0  0  0  0  0  0  0
   37.4240   26.9760   40.8350 C   0  0  0  0  0  0  0  0  0  0  0  0
   38.3390   26.7070   41.8040 N   0  0  0  0  0  0  0  0  0  0  0  0
   39.2710   23.6130   40.7900 H   0  0  0  0  0  0  0  0  0  0  0  0
   37.5640   24.1850   39.0280 H   0  0  0  0  0  0  0  0  0  0  0  0
   40.0080   25.1780   42.8480 C   0  0  0  0  0  0  0  0  0  0  0  0
   41.1860   24.7820   42.2930 F   0  0  0  0  0  0  0  0  0  0  0  0
   40.1570   26.2780   43.6800 F   0  0  0  0  0  0  0  0  0  0  0  0
   39.4640   24.1710   43.6760 F   0  0  0  0  0  0  0  0  0  0  0  0
   39.1590   31.4150   39.1650 O   0  0  0  0  0  0  0  0  0  0  0  0
   40.1910   33.3330   39.9790 C   0  0  1  0  0  3  0  0  0  0  0  0
   39.5640   32.0020   40.3850 C   0  0  2  0  0  3  0  0  0  0  0  0
   40.5210   31.1550   40.8940 O   0  0  0  0  0  0  0  0  0  0  0  0
   41.8050   31.6310   40.9080 C   0  0  0  0  0  2  0  0  0  0  0  0
   42.3010   32.2050   39.6180 C   0  0  2  0  0  3  0  0  0  0  0  0
   41.1940   32.9440   38.9090 C   0  0  2  0  0  3  0  0  0  0  0  0
   39.2320   34.2050   39.5230 O   0  0  0  0  0  0  0  0  0  0  0  0
   38.5280   34.2460   40.2150 H   0  0  0  0  0  0  0  0  0  0  0  0
   42.9400   31.2900   38.7920 O   0  0  0  0  0  0  0  0  0  0  0  0
   43.5300   31.8410   38.1860 H   0  0  0  0  0  0  0  0  0  0  0  0
   41.6600   34.0470   38.2040 O   0  0  0  0  0  0  0  0  0  0  0  0
   40.9550   34.2870   37.5220 H   0  0  0  0  0  0  0  0  0  0  0  0
  1  7  1  6  0  0  0
  1  6  1  0  0  0  0
  1 13  1  0  0  0  0
  1  2  1  0  0  0  0
  2  8  1  6  0  0  0
  2  3  1  0  0  0  0
  2 17  1  0  0  0  0
  3  4  1  0  0  0  0
  4 10  1  0  0  0  0
  4  9  1  0  0  0  0
  5  4  1  0  0  0  0
  5 11  1  1  0  0  0
  6 12  1  6  0  0  0
  6  5  1  0  0  0  0
 14 13  1  0  0  0  0
 15  5  1  0  0  0  0
 16 15  1  0  0  0  0
 18 23  1  0  0  0  0
 18 26  1  0  0  0  0
 19 18  2  0  0  0  0
 20 21  2  0  0  0  0
 20 19  1  0  0  0  0
 21 22  1  0  0  0  0
 22 17  1  0  0  0  0
 22 23  2  0  0  0  0
 24 19  1  0  0  0  0
 25 20  1  0  0  0  0
 26 29  1  0  0  0  0
 26 28  1  0  0  0  0
 27 26  1  0  0  0  0
 30  6  1  0  0  0  0
 31 37  1  6  0  0  0
 31 32  1  0  0  0  0
 32 30  1  6  0  0  0
 32 33  1  0  0  0  0
 33 34  1  0  0  0  0
 35 39  1  6  0  0  0
 35 34  1  0  0  0  0
 36 41  1  1  0  0  0
 36 35  1  0  0  0  0
 36 31  1  0  0  0  0
 37 38  1  0  0  0  0
 40 39  1  0  0  0  0
 42 41  1  0  0  0  0
M  END
>  <minimizedAffinity>
-5.99227715

$$$$

 OpenBabel03242510493D

 42 44  0  0  1  0  0  0  0  0999 V2000
   39.3880   30.3620   39.2300 C   0  0  1  0  0  0  0  0  0  0  0  0
   38.1800   30.2470   40.0710 C   0  0  2  0  0  0  0  0  0  0  0  0
   37.3850   31.4360   40.0010 O   0  0  0  0  0  0  0  0  0  0  0  0
   38.1200   32.4050   40.6910 C   0  0  0  0  0  0  0  0  0  0  0  0
   39.3340   32.8120   39.8840 C   0  0  1  0  0  0  0  0  0  0  0  0
   39.6680   31.7970   38.8190 C   0  0  1  0  0  0  0  0  0  0  0  0
   39.2520   29.7960   38.2780 H   0  0  0  0  0  0  0  0  0  0  0  0
   37.4640   29.4830   39.6700 H   0  0  0  0  0  0  0  0  0  0  0  0
   38.3870   32.0690   41.7130 H   0  0  0  0  0  0  0  0  0  0  0  0
   37.4000   33.2520   40.8400 H   0  0  0  0  0  0  0  0  0  0  0  0
   40.1940   32.9880   40.5620 H   0  0  0  0  0  0  0  0  0  0  0  0
   39.1810   32.0720   37.8670 H   0  0  0  0  0  0  0  0  0  0  0  0
   40.5120   29.8010   39.8690 O   0  0  0  0  0  0  0  0  0  0  0  0
   40.5900   28.8410   39.6280 H   0  0  0  0  0  0  0  0  0  0  0  0
   38.9720   34.0110   39.2400 O   0  0  0  0  0  0  0  0  0  0  0  0
   38.2510   33.7450   38.6040 H   0  0  0  0  0  0  0  0  0  0  0  0
   38.4040   30.0040   41.4530 O   0  0  0  0  0  0  0  0  0  0  0  0
   37.1470   26.6500   41.5090 C   0  0  0  0  0  0  0  0  0  0  0  0
   36.6550   26.4980   42.8130 C   0  0  0  0  0  0  0  0  0  0  0  0
   36.7640   27.5860   43.6800 C   0  0  0  0  0  0  0  0  0  0  0  0
   37.3400   28.7290   43.2160 N   0  0  0  0  0  0  0  0  0  0  0  0
   37.8020   28.8520   41.9760 C   0  0  0  0  0  0  0  0  0  0  0  0
   37.7100   27.8120   41.1060 N   0  0  0  0  0  0  0  0  0  0  0  0
   36.2020   25.5670   43.1430 H   0  0  0  0  0  0  0  0  0  0  0  0
   36.4060   27.5390   44.6960 H   0  0  0  0  0  0  0  0  0  0  0  0
   37.0300   25.4710   40.5870 C   0  0  0  0  0  0  0  0  0  0  0  0
   36.5700   24.3710   41.2430 F   0  0  0  0  0  0  0  0  0  0  0  0
   36.2150   25.8340   39.5250 F   0  0  0  0  0  0  0  0  0  0  0  0
   38.2960   25.2330   40.0060 F   0  0  0  0  0  0  0  0  0  0  0  0
   41.0610   31.8960   38.5860 O   0  0  0  0  0  0  0  0  0  0  0  0
   42.4430   31.6210   36.7360 C   0  0  1  0  0  3  0  0  0  0  0  0
   41.3150   32.4690   37.3180 C   0  0  2  0  0  3  0  0  0  0  0  0
   41.7580   33.7440   37.5790 O   0  0  0  0  0  0  0  0  0  0  0  0
   43.0780   33.9940   37.3130 C   0  0  0  0  0  2  0  0  0  0  0  0
   44.0550   33.0140   37.8830 C   0  0  2  0  0  3  0  0  0  0  0  0
   43.4910   31.6160   37.8330 C   0  0  2  0  0  3  0  0  0  0  0  0
   41.9920   30.3620   36.4180 O   0  0  0  0  0  0  0  0  0  0  0  0
   41.1940   30.4770   35.8500 H   0  0  0  0  0  0  0  0  0  0  0  0
   44.5300   33.3470   39.1450 O   0  0  0  0  0  0  0  0  0  0  0  0
   45.4070   32.8580   39.2400 H   0  0  0  0  0  0  0  0  0  0  0  0
   44.4710   30.6570   37.6150 O   0  0  0  0  0  0  0  0  0  0  0  0
   44.0920   29.7670   37.9090 H   0  0  0  0  0  0  0  0  0  0  0  0
  1  7  1  6  0  0  0
  1 13  1  0  0  0  0
  1  2  1  0  0  0  0
  2  8  1  6  0  0  0
  2 17  1  0  0  0  0
  3  2  1  0  0  0  0
  3  4  1  0  0  0  0
  4 10  1  0  0  0  0
  4  9  1  0  0  0  0
  5 11  1  1  0  0  0
  5  4  1  0  0  0  0
  6 12  1  6  0  0  0
  6  1  1  0  0  0  0
  6  5  1  0  0  0  0
 14 13  1  0  0  0  0
 15  5  1  0  0  0  0
 16 15  1  0  0  0  0
 17 22  1  0  0  0  0
 18 19  1  0  0  0  0
 19 24  1  0  0  0  0
 19 20  2  0  0  0  0
 20 25  1  0  0  0  0
 21 20  1  0  0  0  0
 22 21  2  0  0  0  0
 23 18  2  0  0  0  0
 23 22  1  0  0  0  0
 26 27  1  0  0  0  0
 26 18  1  0  0  0  0
 28 26  1  0  0  0  0
 29 26  1  0  0  0  0
 30  6  1  0  0  0  0
 31 37  1  1  0  0  0
 31 32  1  0  0  0  0
 31 36  1  0  0  0  0
 32 33  1  0  0  0  0
 32 30  1  1  0  0  0
 34 33  1  0  0  0  0
 34 35  1  0  0  0  0
 35 39  1  1  0  0  0
 36 41  1  6  0  0  0
 36 35  1  0  0  0  0
 38 37  1  0  0  0  0
 39 40  1  0  0  0  0
 41 42  1  0  0  0  0
M  END
>  <minimizedAffinity>
-5.95324039

$$$$

 OpenBabel03242510493D

 42 44  0  0  1  0  0  0  0  0999 V2000
   36.3580   30.3680   39.8080 C   0  0  1  0  0  0  0  0  0  0  0  0
   35.3610   29.3010   40.0250 C   0  0  2  0  0  0  0  0  0  0  0  0
   35.5970   28.6140   41.2590 O   0  0  0  0  0  0  0  0  0  0  0  0
   36.7630   27.8730   41.0440 C   0  0  0  0  0  0  0  0  0  0  0  0
   37.9630   28.7940   40.9830 C   0  0  1  0  0  0  0  0  0  0  0  0
   37.5610   30.2250   40.7240 C   0  0  1  0  0  0  0  0  0  0  0  0
   35.9160   31.3640   40.0430 H   0  0  0  0  0  0  0  0  0  0  0  0
   34.3350   29.7190   40.2020 H   0  0  0  0  0  0  0  0  0  0  0  0
   36.6820   27.2270   40.1470 H   0  0  0  0  0  0  0  0  0  0  0  0
   36.8100   27.1640   41.9130 H   0  0  0  0  0  0  0  0  0  0  0  0
   38.6790   28.4270   40.2190 H   0  0  0  0  0  0  0  0  0  0  0  0
   37.4380   30.7640   41.6790 H   0  0  0  0  0  0  0  0  0  0  0  0
   36.7640   30.4210   38.4600 O   0  0  0  0  0  0  0  0  0  0  0  0
   36.1760   31.0440   37.9570 H   0  0  0  0  0  0  0  0  0  0  0  0
   38.5480   28.7350   42.2620 O   0  0  0  0  0  0  0  0  0  0  0  0
   37.8690   29.1480   42.8660 H   0  0  0  0  0  0  0  0  0  0  0  0
   35.2940   28.2960   39.0220 O   0  0  0  0  0  0  0  0  0  0  0  0
   32.4200   29.3770   37.1780 C   0  0  0  0  0  0  0  0  0  0  0  0
   32.8180   29.2610   35.8390 C   0  0  0  0  0  0  0  0  0  0  0  0
   34.1080   28.7960   35.5820 C   0  0  0  0  0  0  0  0  0  0  0  0
   34.9070   28.4840   36.6390 N   0  0  0  0  0  0  0  0  0  0  0  0
   34.5110   28.6020   37.9020 C   0  0  0  0  0  0  0  0  0  0  0  0
   33.2600   29.0510   38.1870 N   0  0  0  0  0  0  0  0  0  0  0  0
   32.1480   29.5220   35.0240 H   0  0  0  0  0  0  0  0  0  0  0  0
   34.4800   28.6820   34.5750 H   0  0  0  0  0  0  0  0  0  0  0  0
   31.0320   29.8840   37.4430 C   0  0  0  0  0  0  0  0  0  0  0  0
   30.7780   29.9630   38.7780 F   0  0  0  0  0  0  0  0  0  0  0  0
   30.8900   31.1070   36.8040 F   0  0  0  0  0  0  0  0  0  0  0  0
   30.1140   29.0290   36.7930 F   0  0  0  0  0  0  0  0  0  0  0  0
   38.6550   30.8410   40.0690 O   0  0  0  0  0  0  0  0  0  0  0  0
   39.1010   33.0170   39.3790 C   0  0  1  0  0  3  0  0  0  0  0  0
   38.8960   32.1280   40.6030 C   0  0  2  0  0  3  0  0  0  0  0  0
   40.0670   32.0100   41.3140 O   0  0  0  0  0  0  0  0  0  0  0  0
   41.1580   32.6560   40.7950 C   0  0  0  0  0  2  0  0  0  0  0  0
   41.4400   32.3990   39.3480 C   0  0  2  0  0  3  0  0  0  0  0  0
   40.1530   32.2780   38.5720 C   0  0  2  0  0  3  0  0  0  0  0  0
   37.9210   33.1860   38.6960 O   0  0  0  0  0  0  0  0  0  0  0  0
   37.2500   33.4920   39.3520 H   0  0  0  0  0  0  0  0  0  0  0  0
   42.3010   31.3350   39.1130 O   0  0  0  0  0  0  0  0  0  0  0  0
   42.6930   31.5030   38.1990 H   0  0  0  0  0  0  0  0  0  0  0  0
   40.2640   32.7760   37.2810 O   0  0  0  0  0  0  0  0  0  0  0  0
   39.5060   32.3820   36.7400 H   0  0  0  0  0  0  0  0  0  0  0  0
  1  2  1  0  0  0  0
  1  7  1  1  0  0  0
  1  6  1  0  0  0  0
  2  8  1  1  0  0  0
  2  3  1  0  0  0  0
  4  3  1  0  0  0  0
  4 10  1  0  0  0  0
  5 11  1  6  0  0  0
  5  4  1  0  0  0  0
  5 15  1  0  0  0  0
  6  5  1  0  0  0  0
  6 12  1  1  0  0  0
  9  4  1  0  0  0  0
 13  1  1  0  0  0  0
 14 13  1  0  0  0  0
 15 16  1  0  0  0  0
 17  2  1  0  0  0  0
 18 26  1  0  0  0  0
 18 23  1  0  0  0  0
 19 18  2  0  0  0  0
 20 19  1  0  0  0  0
 20 21  2  0  0  0  0
 21 22  1  0  0  0  0
 22 23  2  0  0  0  0
 22 17  1  0  0  0  0
 24 19  1  0  0  0  0
 25 20  1  0  0  0  0
 26 27  1  0  0  0  0
 28 26  1  0  0  0  0
 29 26  1  0  0  0  0
 30  6  1  0  0  0  0
 31 37  1  6  0  0  0
 31 32  1  0  0  0  0
 32 30  1  6  0  0  0
 32 33  1  0  0  0  0
 34 33  1  0  0  0  0
 35 39  1  1  0  0  0
 35 34  1  0  0  0  0
 36 41  1  6  0  0  0
 36 35  1  0  0  0  0
 36 31  1  0  0  0  0
 37 38  1  0  0  0  0
 40 39  1  0  0  0  0
 42 41  1  0  0  0  0
M  END
>  <minimizedAffinity>
-5.92211676

$$$$
