
     RDKit          3D

 28 29  0  0  0  0  0  0  0  0999 V2000
   44.5543   35.6256   45.0666 C   0  0  0  0  0  0  0  0  0  0  0  0
   45.0365   35.8729   43.7730 C   0  0  0  0  0  0  0  0  0  0  0  0
   45.9724   34.9806   43.2455 C   0  0  0  0  0  0  0  0  0  0  0  0
   46.3711   33.9275   43.9933 N   0  0  0  0  0  0  0  0  0  0  0  0
   45.8888   33.7127   45.2401 C   0  0  0  0  0  0  0  0  0  0  0  0
   44.9873   34.5649   45.7587 N   0  0  0  0  0  0  0  0  0  0  0  0
   44.6356   36.9528   42.9908 O   0  0  0  0  0  0  0  0  0  0  0  0
   43.8295   36.3275   45.4596 H   0  0  0  0  0  0  0  0  0  0  0  0
   46.2381   32.8489   45.8102 H   0  0  0  0  0  0  0  0  0  0  0  0
   44.9548   37.8936   43.1282 H   0  0  0  0  0  0  0  0  0  0  0  0
   48.3638   35.6491   43.2345 O   0  0  0  0  0  0  0  0  0  0  0  0
   47.9454   35.6935   41.8951 C   0  0  2  0  0  0  0  0  0  0  0  0
   46.5369   35.1756   41.8678 C   0  0  1  0  0  0  0  0  0  0  0  0
   46.3871   33.9703   41.2018 O   0  0  0  0  0  0  0  0  0  0  0  0
   46.8728   34.0298   39.9148 C   0  0  0  0  0  0  0  0  0  0  0  0
   48.3645   34.1329   39.9408 C   0  0  1  0  0  0  0  0  0  0  0  0
   48.8063   34.5537   38.6698 O   0  0  0  0  0  0  0  0  0  0  0  0
   48.9212   34.9772   41.0446 C   0  0  2  0  0  0  0  0  0  0  0  0
   49.7647   34.1905   41.8616 O   0  0  0  0  0  0  0  0  0  0  0  0
   49.0021   36.3685   43.4152 H   0  0  0  0  0  0  0  0  0  0  0  0
   47.9742   36.7907   41.6358 H   0  0  0  0  0  0  0  0  0  0  0  0
   45.8999   35.9443   41.3825 H   0  0  0  0  0  0  0  0  0  0  0  0
   46.5946   33.0620   39.4075 H   0  0  0  0  0  0  0  0  0  0  0  0
   46.4281   34.8297   39.3018 H   0  0  0  0  0  0  0  0  0  0  0  0
   48.7621   33.0839   40.0279 H   0  0  0  0  0  0  0  0  0  0  0  0
   48.6115   33.7937   38.0585 H   0  0  0  0  0  0  0  0  0  0  0  0
   49.6340   35.7072   40.5610 H   0  0  0  0  0  0  0  0  0  0  0  0
   50.6458   34.0829   41.4237 H   0  0  0  0  0  0  0  0  0  0  0  0
  1  6  2  0
  2  1  1  0
  3  2  2  0
  3  4  1  0
  4  5  2  0
  5  6  1  0
  7  2  1  0
  1  8  1  0
  5  9  1  0
  7 10  1  0
 11 12  1  0
 12 13  1  0
 13 14  1  0
 14 15  1  0
 15 16  1  0
 16 17  1  0
 16 18  1  0
 18 19  1  0
 18 12  1  0
 11 20  1  0
 12 21  1  6
 13 22  1  6
 15 23  1  0
 15 24  1  0
 16 25  1  1
 17 26  1  0
 18 27  1  6
 19 28  1  0
  3 13  1  0
M  ISO  3   8  14   9  14  10   3
M  END
>  <DihAtoms>  (1) 
1,2,12,11

>  <DihDeg>  (1) 
-89.99073827819375

$$$$
