
 OpenBabel03252504333D

 43 45  0  0  1  0  0  0  0  0999 V2000
   41.7260   35.3690   40.5540 C   0  0  0  0  0  0  0  0  0  0  0  0
   41.5860   35.6910   41.6230 H   0  0  0  0  0  0  0  0  0  0  0  0
   41.4230   36.2510   39.9490 H   0  0  0  0  0  0  0  0  0  0  0  0
   41.1510   33.1370   39.7740 C   0  0  0  0  0  0  0  0  0  0  0  0
   40.6760   34.3190   40.3700 C   0  0  0  0  0  0  0  0  0  0  0  0
   39.3710   34.3870   40.7190 C   0  0  0  0  0  0  0  0  0  0  0  0
   38.6340   33.3190   40.4680 N   0  0  0  0  0  0  0  0  0  0  0  0
   39.0470   32.1930   39.9110 C   0  0  0  0  0  0  0  0  0  0  0  0
   40.3840   32.0610   39.5270 N   0  0  0  0  0  0  0  0  0  0  0  0
   42.1790   32.9970   39.4630 H   0  0  0  0  0  0  0  0  0  0  0  0
   39.0490   35.3120   41.1730 H   0  0  0  0  0  0  0  0  0  0  0  0
   38.2990   30.0020   40.7050 C   0  0  1  0  0  3  0  0  0  0  0  0
   38.1680   31.0160   39.6510 C   0  0  2  0  0  3  0  0  0  0  0  0
   38.3860   30.6350   38.3580 O   0  0  0  0  0  0  0  0  0  0  0  0
   38.3760   29.2980   38.0900 C   0  0  0  0  0  2  0  0  0  0  0  0
   39.5380   28.7400   38.9230 C   0  0  1  0  0  3  0  0  0  0  0  0
   38.9780   28.7180   40.3280 C   0  0  1  0  0  3  0  0  0  0  0  0
   38.9580   30.4730   41.8630 O   0  0  0  0  0  0  0  0  0  0  0  0
   39.8770   30.1500   41.9150 H   0  0  0  0  0  0  0  0  0  0  0  0
   39.7970   27.4720   38.4640 O   0  0  0  0  0  0  0  0  0  0  0  0
   39.6440   27.4400   37.4760 H   0  0  0  0  0  0  0  0  0  0  0  0
   40.0350   28.3800   41.1760 O   0  0  0  0  0  0  0  0  0  0  0  0
   39.9120   27.5020   41.6130 H   0  0  0  0  0  0  0  0  0  0  0  0
   42.9700   34.9740   40.1800 O   0  0  0  0  0  0  0  0  0  0  0  0
   44.1230   34.9220   40.9520 C   0  0  0  0  0  3  0  0  0  0  0  0
   44.0480   35.4870   42.1540 C   0  0  0  0  0  3  0  0  0  0  0  0
   45.1700   35.5530   43.1730 C   0  0  0  0  0  0  0  0  0  0  0  0
   46.1220   35.2840   42.6720 H   0  0  0  0  0  0  0  0  0  0  0  0
   45.2570   36.5590   43.6180 H   0  0  0  0  0  0  0  0  0  0  0  0
   44.8930   34.6130   44.1460 O   0  0  0  0  0  0  0  0  0  0  0  0
   45.7960   32.4860   42.8250 O   0  0  0  0  0  0  0  0  0  0  0  0
   45.9770   33.3240   44.0710 P   0  0  1  0  0  0  0  0  0  0  0  0
   47.5800   33.9070   44.0460 O   0  0  0  0  0  0  0  0  0  0  0  0
   47.5450   34.7170   44.6470 H   0  0  0  0  0  0  0  0  0  0  0  0
   45.8270   32.3580   45.4450 O   0  0  0  0  0  0  0  0  0  0  0  0
   46.1430   33.0370   46.6050 C   0  0  0  0  0  0  0  0  0  0  0  0
   47.0530   32.3850   47.6010 C   0  0  0  0  0  0  0  0  0  0  0  0
   45.5580   32.4690   47.8740 C   0  0  0  0  0  0  0  0  0  0  0  0
   46.1560   34.1390   46.5170 H   0  0  0  0  0  0  0  0  0  0  0  0
   47.4720   31.4080   47.2760 H   0  0  0  0  0  0  0  0  0  0  0  0
   47.6760   33.0800   48.1950 H   0  0  0  0  0  0  0  0  0  0  0  0
   45.1990   33.1550   48.6650 H   0  0  0  0  0  0  0  0  0  0  0  0
   45.0510   31.4830   47.8390 H   0  0  0  0  0  0  0  0  0  0  0  0
  1  2  1  0  0  0  0
  3  1  1  0  0  0  0
  4  5  1  0  0  0  0
  5  1  1  0  0  0  0
  5  6  2  0  0  0  0
  6 11  1  0  0  0  0
  7  6  1  0  0  0  0
  8  7  2  0  0  0  0
  9  4  2  0  0  0  0
  9  8  1  0  0  0  0
 10  4  1  0  0  0  0
 12 18  1  1  0  0  0
 13  8  1  1  0  0  0
 13 12  1  0  0  0  0
 14 13  1  0  0  0  0
 15 14  1  0  0  0  0
 15 16  1  0  0  0  0
 16 20  1  6  0  0  0
 16 17  1  0  0  0  0
 17 12  1  0  0  0  0
 17 22  1  1  0  0  0
 18 19  1  0  0  0  0
 21 20  1  0  0  0  0
 22 23  1  0  0  0  0
 24  1  1  0  0  0  0
 24 25  1  0  0  0  0
 25 26  2  0  0  0  0
 26 27  1  0  0  0  0
 27 29  1  0  0  0  0
 27 30  1  0  0  0  0
 28 27  1  0  0  0  0
 32 31  2  6  0  0  0
 32 30  1  0  0  0  0
 32 35  1  0  0  0  0
 33 32  1  0  0  0  0
 33 34  1  0  0  0  0
 35 36  1  0  0  0  0
 36 37  1  0  0  0  0
 36 38  1  0  0  0  0
 37 38  1  0  0  0  0
 37 41  1  0  0  0  0
 38 42  1  0  0  0  0
 39 36  1  0  0  0  0
 40 37  1  0  0  0  0
 43 38  1  0  0  0  0
M  END
>  <minimizedAffinity>
-4.83996058

>  <minimizedRMSD>
1.0681169

$$$$
