
 OpenBabel03242523473D

 22 23  0  0  1  0  0  0  0  0999 V2000
   49.2370   33.3630   42.8900 C   0  0  1  0  0  0  0  0  0  0  0  0
   48.0670   33.6980   42.0150 C   0  0  1  0  0  0  0  0  0  0  0  0
   47.5640   32.6330   41.2890 O   0  0  0  0  0  0  0  0  0  0  0  0
   48.4690   31.5910   41.1570 C   0  0  0  0  0  0  0  0  0  0  0  0
   49.8680   32.1150   40.8690 C   0  0  1  0  0  0  0  0  0  0  0  0
   50.3740   32.6810   42.1970 C   0  0  1  0  0  0  0  0  0  0  0  0
   45.2580   35.7910   43.4650 C   0  0  0  0  0  0  0  0  0  0  0  0
   46.2660   35.3640   42.5720 C   0  0  0  0  0  0  0  0  0  0  0  0
   46.9880   34.2120   42.9030 C   0  0  0  0  0  0  0  0  0  0  0  0
   46.6730   33.5710   44.0650 N   0  0  0  0  0  0  0  0  0  0  0  0
   45.7080   34.0060   44.8900 C   0  0  0  0  0  0  0  0  0  0  0  0
   45.0050   35.1130   44.5860 N   0  0  0  0  0  0  0  0  0  0  0  0
   46.5140   35.8750   41.6510 H   0  0  0  0  0  0  0  0  0  0  0  0
   45.5230   33.4280   45.8030 H   0  0  0  0  0  0  0  0  0  0  0  0
   44.5620   36.9200   43.1280 O   0  0  0  0  0  0  0  0  0  0  0  0
   44.4990   37.7640   43.6860 H   0  0  0  0  0  0  0  0  0  0  0  0
   49.7400   34.6030   43.3400 O   0  0  0  0  0  0  0  0  0  0  0  0
   50.6430   34.4500   43.7610 H   0  0  0  0  0  0  0  0  0  0  0  0
   50.6480   31.0220   40.5120 O   0  0  0  0  0  0  0  0  0  0  0  0
   50.1800   30.5460   39.7790 H   0  0  0  0  0  0  0  0  0  0  0  0
   51.4500   33.5080   41.9790 O   0  0  0  0  0  0  0  0  0  0  0  0
   52.3110   33.1510   42.3120 H   0  0  0  0  0  0  0  0  0  0  0  0
  1 17  1  6  0  0  0
  2  1  1  0  0  0  0
  2  9  1  1  0  0  0
  3  2  1  0  0  0  0
  4  3  1  0  0  0  0
  5 19  1  1  0  0  0
  5  4  1  0  0  0  0
  5  6  1  0  0  0  0
  6 21  1  6  0  0  0
  6  1  1  0  0  0  0
  7 12  1  0  0  0  0
  8  9  1  0  0  0  0
  8  7  2  0  0  0  0
  9 10  2  0  0  0  0
 10 11  1  0  0  0  0
 11 14  1  0  0  0  0
 12 11  2  0  0  0  0
 13  8  1  0  0  0  0
 15  7  1  0  0  0  0
 15 16  1  0  0  0  0
 17 18  1  0  0  0  0
 20 19  1  0  0  0  0
 21 22  1  0  0  0  0
M  END
>  <minimizedAffinity>
-5.13404369

>  <minimizedRMSD>
1.1975019

$$$$
