
     RDKit          3D

 51 53  0  0  0  0  0  0  0  0999 V2000
   50.2199   34.9007   42.7097 O   0  0  0  0  0  0  0  0  0  0  0  0
   49.0584   34.6147   41.8340 P   0  0  1  0  0  0  0  0  0  0  0  0
   48.9799   35.8871   40.7267 O   0  0  0  0  0  0  0  0  0  0  0  0
   49.3107   33.1557   40.9546 O   0  0  0  0  0  0  0  0  0  0  0  0
   49.5302   31.4395   42.5590 C   0  0  0  0  0  0  0  0  0  0  0  0
   50.0532   32.1169   41.4812 C   0  0  0  0  0  0  0  0  0  0  0  0
   51.3136   31.7202   40.9693 C   0  0  0  0  0  0  0  0  0  0  0  0
   51.9338   30.6822   41.5832 N   0  0  0  0  0  0  0  0  0  0  0  0
   51.4015   30.0575   42.6133 C   0  0  0  0  0  0  0  0  0  0  0  0
   50.1908   30.4448   43.0988 N   0  0  0  0  0  0  0  0  0  0  0  0
   47.0909   31.0399   42.8371 C   0  0  0  0  0  0  0  0  0  0  0  0
   46.9229   30.6966   41.6108 O   0  0  0  0  0  0  0  0  0  0  0  0
   48.3859   31.4383   43.3991 N   0  0  0  0  0  0  0  0  0  0  0  0
   47.6230   34.5597   42.6435 O   0  0  0  0  0  0  0  0  0  0  0  0
   46.5352   35.1228   42.0795 C   0  0  2  0  0  0  0  0  0  0  0  0
   45.4923   35.6080   43.0210 C   0  0  0  0  0  0  0  0  0  0  0  0
   44.1827   35.7378   42.3160 C   0  0  0  0  0  0  0  0  0  0  0  0
   43.6583   34.5310   41.8952 O   0  0  0  0  0  0  0  0  0  0  0  0
   44.6477   33.5790   41.7495 C   0  0  0  0  0  0  0  0  0  0  0  0
   45.8573   34.2127   41.0673 C   0  0  1  0  0  0  0  0  0  0  0  0
   49.0638   36.7258   41.2533 H   0  0  0  0  0  0  0  0  0  0  0  0
   51.7005   32.2623   40.1301 H   0  0  0  0  0  0  0  0  0  0  0  0
   51.8452   29.2187   43.1512 H   0  0  0  0  0  0  0  0  0  0  0  0
   46.1769   31.0003   43.3962 H   0  0  0  0  0  0  0  0  0  0  0  0
   48.3206   31.6906   44.3897 H   0  0  0  0  0  0  0  0  0  0  0  0
   46.8722   35.9735   41.4392 H   0  0  0  0  0  0  0  0  0  0  0  0
   45.7744   36.5325   43.5651 H   0  0  0  0  0  0  0  0  0  0  0  0
   45.3463   34.8417   43.8331 H   0  0  0  0  0  0  0  0  0  0  0  0
   44.0848   36.5810   41.6249 H   0  0  0  0  0  0  0  0  0  0  0  0
   43.4596   36.0419   43.1575 H   0  0  0  0  0  0  0  0  0  0  0  0
   44.9997   33.1782   42.7289 H   0  0  0  0  0  0  0  0  0  0  0  0
   44.2538   32.7557   41.1284 H   0  0  0  0  0  0  0  0  0  0  0  0
   46.5681   33.3310   40.9713 H   0  0  0  0  0  0  0  0  0  0  0  0
   43.3359   35.4284   39.9292 O   0  0  0  0  0  0  0  0  0  0  0  0
   44.1301   34.4037   39.3642 C   0  0  2  0  0  0  0  0  0  0  0  0
   45.5812   34.7541   39.7275 C   0  0  2  0  0  0  0  0  0  0  0  0
   46.3406   34.1935   38.7106 O   0  0  0  0  0  0  0  0  0  0  0  0
   46.2526   34.9382   37.5438 C   0  0  0  0  0  0  0  0  0  0  0  0
   44.8393   35.0010   37.0248 C   0  0  1  0  0  0  0  0  0  0  0  0
   44.7749   34.5244   35.7197 O   0  0  0  0  0  0  0  0  0  0  0  0
   43.8686   34.2764   37.9105 C   0  0  2  0  0  0  0  0  0  0  0  0
   42.5617   34.7255   37.6759 O   0  0  0  0  0  0  0  0  0  0  0  0
   42.3813   35.2057   39.8767 H   0  0  0  0  0  0  0  0  0  0  0  0
   43.8750   33.4765   39.9023 H   0  0  0  0  0  0  0  0  0  0  0  0
   45.6205   35.8514   39.6169 H   0  0  0  0  0  0  0  0  0  0  0  0
   46.6842   35.9364   37.7427 H   0  0  0  0  0  0  0  0  0  0  0  0
   46.8968   34.4479   36.7898 H   0  0  0  0  0  0  0  0  0  0  0  0
   44.5480   36.0679   36.9940 H   0  0  0  0  0  0  0  0  0  0  0  0
   43.8293   34.3571   35.4659 H   0  0  0  0  0  0  0  0  0  0  0  0
   43.8677   33.1973   37.6477 H   0  0  0  0  0  0  0  0  0  0  0  0
   42.4286   35.6716   37.8752 H   0  0  0  0  0  0  0  0  0  0  0  0
  2 14  1  1
  2  1  2  0
  3  2  1  0
  4  6  1  0
  4  2  1  0
  5 10  2  0
  5 13  1  0
  6  5  1  0
  7  6  2  0
  7  8  1  0
  8  9  2  0
  9 10  1  0
 11 13  1  0
 12 11  2  0
 15 14  1  0
 15 16  1  0
 17 16  1  0
 18 17  1  0
 19 18  1  0
 20 19  1  0
 20 15  1  0
  3 21  1  0
  7 22  1  0
  9 23  1  0
 11 24  1  0
 13 25  1  0
 15 26  1  6
 16 27  1  0
 16 28  1  0
 17 29  1  0
 17 30  1  0
 19 31  1  0
 19 32  1  0
 20 33  1  6
 34 35  1  0
 35 36  1  0
 36 37  1  0
 37 38  1  0
 38 39  1  0
 39 40  1  0
 39 41  1  0
 41 42  1  0
 41 35  1  0
 34 43  1  0
 35 44  1  1
 36 45  1  1
 38 46  1  0
 38 47  1  0
 39 48  1  6
 40 49  1  0
 41 50  1  6
 42 51  1  0
 20 36  1  0
M  ISO  8  21   3  22  14  23  14  24   6  26  13  27  13  28  13  29  13
M  ISO  4  30  13  31  13  32  13  33  13
M  END
>  <DihAtoms>  (1) 
18,19,35,34

>  <DihDeg>  (1) 
-49.58614278810539

$$$$
