REMARK  Name = 
REMARK  7 active torsions:
REMARK  status: ('A' for Active; 'I' for Inactive)
REMARK    1  A    between atoms: C_2  and  C_12
REMARK    2  A    between atoms: C_3  and  C_7
REMARK    3  A    between atoms: C_12  and  C_14
REMARK    4  A    between atoms: C_17  and  C_28
REMARK    5  A    between atoms: O_26  and  C_27
REMARK    6  A    between atoms: C_31  and  O_32
REMARK    7  A    between atoms: C_33  and  O_34
REMARK                            x       y       z     vdW  Elec       q    Type
REMARK                         _______ _______ _______ _____ _____    ______ ____
ROOT
ATOM      1  C   UNL     1      45.755  34.221  40.746  0.00  0.00    +0.000 A 
ATOM      2  C   UNL     1      44.407  34.339  40.486  0.00  0.00    +0.000 A 
ATOM      3  N   UNL     1      44.192  33.635  39.360  0.00  0.00    +0.000 N 
ATOM      4  C   UNL     1      45.385  33.100  38.944  0.00  0.00    +0.000 A 
ATOM      5  N   UNL     1      46.351  33.465  39.805  0.00  0.00    +0.000 NA
ATOM      6  H   UNL     1      43.687  34.890  41.080  0.00  0.00    +0.000 HD
ATOM      7  H   UNL     1      43.308  33.491  38.858  0.00  0.00    +0.000 HD
ENDROOT
BRANCH   4   9
ATOM      8  C   UNL     1      44.543  32.020  36.883  0.00  0.00    +0.000 C 
ATOM      9  C   UNL     1      45.707  32.246  37.768  0.00  0.00    +0.000 C 
ATOM     10  O   UNL     1      46.846  32.725  37.174  0.00  0.00    +0.000 OA
ATOM     11  C   UNL     1      46.736  33.151  35.874  0.00  0.00    +0.000 C 
ATOM     12  C   UNL     1      45.517  34.013  35.694  0.00  0.00    +0.000 C 
ATOM     13  C   UNL     1      44.322  33.085  35.840  0.00  0.00    +0.000 C 
BRANCH   8  14
ATOM     14  O   UNL     1      44.592  30.728  36.310  0.00  0.00    +0.000 OA
ATOM     15  H   UNL     1      45.284  30.166  36.724  0.00  0.00    +0.000 HD
ENDBRANCH   8  14
BRANCH  12  16
ATOM     16  O   UNL     1      45.540  34.467  34.358  0.00  0.00    +0.000 OA
ATOM     17  H   UNL     1      44.611  34.432  33.971  0.00  0.00    +0.000 HD
ENDBRANCH  12  16
BRANCH  13  18
ATOM     18  O   UNL     1      44.190  32.439  34.611  0.00  0.00    +0.000 OA
ATOM     19  H   UNL     1      43.280  32.398  34.273  0.00  0.00    +0.000 HD
ENDBRANCH  13  18
ENDBRANCH   4   9
BRANCH   1  20
ATOM     20  C   UNL     1      46.496  34.831  41.903  0.00  0.00    +0.000 C 
ATOM     21  O   UNL     1      47.693  35.238  41.830  0.00  0.00    +0.000 OA
BRANCH  20  23
ATOM     22  C   UNL     1      45.218  36.178  43.490  0.00  0.00    +0.000 A 
ATOM     23  C   UNL     1      45.856  34.977  43.162  0.00  0.00    +0.000 A 
ATOM     24  C   UNL     1      45.803  33.986  44.144  0.00  0.00    +0.000 A 
ATOM     25  N   UNL     1      45.184  34.180  45.316  0.00  0.00    +0.000 NA
ATOM     26  C   UNL     1      44.578  35.371  45.584  0.00  0.00    +0.000 A 
ATOM     27  N   UNL     1      44.598  36.356  44.676  0.00  0.00    +0.000 NA
ATOM     28  H   UNL     1      45.221  36.996  42.768  0.00  0.00    +0.000 HD
ATOM     29  H   UNL     1      44.086  35.494  46.542  0.00  0.00    +0.000 HD
BRANCH  24  30
ATOM     30  C   UNL     1      46.423  32.753  43.892  0.00  0.00    +0.000 A 
ATOM     31  C   UNL     1      47.704  32.289  44.011  0.00  0.00    +0.000 A 
ATOM     32  C   UNL     1      48.039  31.042  43.692  0.00  0.00    +0.000 A 
ATOM     33  C   UNL     1      47.047  30.226  43.235  0.00  0.00    +0.000 A 
ATOM     34  S   UNL     1      45.565  31.332  43.274  0.00  0.00    +0.000 S 
ATOM     35  H   UNL     1      48.437  33.030  44.392  0.00  0.00    +0.000 HD
ATOM     36  H   UNL     1      49.027  30.606  43.760  0.00  0.00    +0.000 HD
ATOM     37  H   UNL     1      47.028  29.200  42.912  0.00  0.00    +0.000 HD
ENDBRANCH  24  30
ENDBRANCH  20  23
ENDBRANCH   1  20
TORSDOF 7
