
 OpenBabel03252506193D

 26 27  0  0  1  0  0  0  0  0999 V2000
   44.9430   35.2610   44.2330 C   0  0  0  0  0  0  0  0  0  0  0  0
   44.7580   34.6240   42.9690 C   0  0  0  0  0  0  0  0  0  0  0  0
   44.9970   33.2400   42.9220 C   0  0  0  0  0  0  0  0  0  0  0  0
   45.3860   32.5880   44.0600 N   0  0  0  0  0  0  0  0  0  0  0  0
   45.5490   33.2480   45.2440 C   0  0  0  0  0  0  0  0  0  0  0  0
   45.3220   34.5770   45.3030 N   0  0  0  0  0  0  0  0  0  0  0  0
   44.4500   35.2270   42.1380 H   0  0  0  0  0  0  0  0  0  0  0  0
   44.8620   32.7450   41.9820 H   0  0  0  0  0  0  0  0  0  0  0  0
   45.9230   31.0210   46.2230 C   0  0  2  0  0  3  0  0  0  0  0  0
   45.9690   32.5180   46.4520 C   0  0  1  0  0  3  0  0  0  0  0  0
   47.2740   32.8120   46.8500 O   0  0  0  0  0  0  0  0  0  0  0  0
   47.4230   32.3460   48.1540 C   0  0  0  0  0  2  0  0  0  0  0  0
   47.2390   30.8560   48.2810 C   0  0  2  0  0  3  0  0  0  0  0  0
   45.9730   30.3760   47.6020 C   0  0  2  0  0  3  0  0  0  0  0  0
   47.0250   30.5520   45.5150 O   0  0  0  0  0  0  0  0  0  0  0  0
   47.0000   30.7710   44.5500 H   0  0  0  0  0  0  0  0  0  0  0  0
   47.0880   30.5720   49.6470 O   0  0  0  0  0  0  0  0  0  0  0  0
   48.0090   30.5180   50.0130 H   0  0  0  0  0  0  0  0  0  0  0  0
   46.0410   28.9940   47.4150 O   0  0  0  0  0  0  0  0  0  0  0  0
   45.1380   28.5860   47.4670 H   0  0  0  0  0  0  0  0  0  0  0  0
   44.6970   36.6930   44.3000 C   0  0  0  0  0  3  0  0  0  0  0  0
   45.4290   37.5070   43.5710 C   0  0  0  0  0  3  0  0  0  0  0  0
   45.2590   38.9730   43.5580 C   0  0  0  0  0  0  0  0  0  0  0  0
   44.4720   39.2030   42.7870 H   0  0  0  0  0  0  0  0  0  0  0  0
   46.1610   39.4810   43.2100 H   0  0  0  0  0  0  0  0  0  0  0  0
   44.8580   39.3640   44.5040 H   0  0  0  0  0  0  0  0  0  0  0  0
  1 21  1  0  0  0  0
  1  6  1  0  0  0  0
  2  1  2  0  0  0  0
  3  2  1  0  0  0  0
  3  4  2  0  0  0  0
  4  5  1  0  0  0  0
  5  6  2  0  0  0  0
  7  2  1  0  0  0  0
  8  3  1  0  0  0  0
  9 15  1  6  0  0  0
  9 10  1  0  0  0  0
  9 14  1  0  0  0  0
 10  5  1  6  0  0  0
 10 11  1  0  0  0  0
 11 12  1  0  0  0  0
 12 13  1  0  0  0  0
 13 17  1  1  0  0  0
 14 19  1  6  0  0  0
 14 13  1  0  0  0  0
 16 15  1  0  0  0  0
 17 18  1  0  0  0  0
 19 20  1  0  0  0  0
 22 21  2  0  0  0  0
 23 22  1  0  0  0  0
 23 26  1  0  0  0  0
 24 23  1  0  0  0  0
 25 23  1  0  0  0  0
M  END
>  <minimizedAffinity>
-4.52139235

>  <minimizedRMSD>
2.49349356

$$$$
