
     RDKit          3D

 30 31  0  0  0  0  0  0  0  0999 V2000
   44.3829   35.7790   44.4335 C   0  0  0  0  0  0  0  0  0  0  0  0
   44.6644   35.0699   43.2768 C   0  0  0  0  0  0  0  0  0  0  0  0
   45.2884   33.8346   43.3925 C   0  0  0  0  0  0  0  0  0  0  0  0
   45.5922   33.3804   44.6245 N   0  0  0  0  0  0  0  0  0  0  0  0
   45.3078   34.0908   45.7449 C   0  0  0  0  0  0  0  0  0  0  0  0
   44.6992   35.3001   45.6676 N   0  0  0  0  0  0  0  0  0  0  0  0
   44.2642   35.7112   41.9971 C   0  0  0  0  0  0  0  0  0  0  0  0
   43.8972   36.7463   44.3890 H   0  0  0  0  0  0  0  0  0  0  0  0
   45.4956   33.3043   42.4726 H   0  0  0  0  0  0  0  0  0  0  0  0
   43.2092   35.4279   41.8083 H   0  0  0  0  0  0  0  0  0  0  0  0
   44.9305   35.2707   41.2102 H   0  0  0  0  0  0  0  0  0  0  0  0
   44.4350   36.7831   42.0780 H   0  0  0  0  0  0  0  0  0  0  0  0
   43.6642   32.5368   47.8585 O   0  0  0  0  0  0  0  0  0  0  0  0
   44.5170   33.6338   48.0724 C   0  0  2  0  0  0  0  0  0  0  0  0
   45.6619   33.5459   47.0556 C   0  0  1  0  0  0  0  0  0  0  0  0
   45.9696   32.1809   47.0275 O   0  0  0  0  0  0  0  0  0  0  0  0
   46.7525   31.9396   48.1402 C   0  0  0  0  0  0  0  0  0  0  0  0
   46.1267   32.2984   49.4520 C   0  0  2  0  0  0  0  0  0  0  0  0
   45.4170   31.1979   49.9259 O   0  0  0  0  0  0  0  0  0  0  0  0
   45.2136   33.4814   49.4242 C   0  0  1  0  0  0  0  0  0  0  0  0
   45.9860   34.6332   49.5956 O   0  0  0  0  0  0  0  0  0  0  0  0
   42.7455   32.8500   47.6587 H   0  0  0  0  0  0  0  0  0  0  0  0
   43.9951   34.5885   48.0561 H   0  0  0  0  0  0  0  0  0  0  0  0
   46.5351   34.0784   47.4849 H   0  0  0  0  0  0  0  0  0  0  0  0
   47.0104   30.8508   48.1810 H   0  0  0  0  0  0  0  0  0  0  0  0
   47.7169   32.4715   47.9545 H   0  0  0  0  0  0  0  0  0  0  0  0
   46.9666   32.5513   50.1594 H   0  0  0  0  0  0  0  0  0  0  0  0
   46.0549   30.4624   50.1036 H   0  0  0  0  0  0  0  0  0  0  0  0
   44.4542   33.3811   50.2319 H   0  0  0  0  0  0  0  0  0  0  0  0
   46.9174   34.4298   49.8077 H   0  0  0  0  0  0  0  0  0  0  0  0
  1  6  2  0
  2  3  2  0
  2  1  1  0
  3  4  1  0
  4  5  2  0
  6  5  1  0
  7  2  1  0
  1  8  1  0
  3  9  1  0
  7 10  1  0
  7 11  1  0
  7 12  1  0
 13 14  1  0
 14 15  1  0
 15 16  1  0
 16 17  1  0
 17 18  1  0
 18 19  1  0
 18 20  1  0
 20 21  1  0
 20 14  1  0
 13 22  1  0
 14 23  1  1
 15 24  1  1
 17 25  1  0
 17 26  1  0
 18 27  1  1
 19 28  1  0
 20 29  1  1
 21 30  1  0
  5 15  1  0
M  ISO  5   8  14   9  14  10   8  11   8  12   8
M  END
>  <DihAtoms>  (1) 
3,4,14,13

>  <DihDeg>  (1) 
107.50952945895756

$$$$
