
     RDKit          3D

 51 53  0  0  0  0  0  0  0  0999 V2000
   50.2199   34.9007   42.7097 O   0  0  0  0  0  0  0  0  0  0  0  0
   49.0584   34.6147   41.8340 P   0  0  1  0  0  0  0  0  0  0  0  0
   48.9799   35.8871   40.7267 O   0  0  0  0  0  0  0  0  0  0  0  0
   49.3107   33.1557   40.9546 O   0  0  0  0  0  0  0  0  0  0  0  0
   49.5302   31.4395   42.5590 C   0  0  0  0  0  0  0  0  0  0  0  0
   50.0532   32.1169   41.4812 C   0  0  0  0  0  0  0  0  0  0  0  0
   51.3136   31.7202   40.9693 C   0  0  0  0  0  0  0  0  0  0  0  0
   51.9338   30.6822   41.5832 N   0  0  0  0  0  0  0  0  0  0  0  0
   51.4015   30.0575   42.6133 C   0  0  0  0  0  0  0  0  0  0  0  0
   50.1908   30.4448   43.0988 N   0  0  0  0  0  0  0  0  0  0  0  0
   47.0909   31.0399   42.8371 C   0  0  0  0  0  0  0  0  0  0  0  0
   46.9229   30.6966   41.6108 O   0  0  0  0  0  0  0  0  0  0  0  0
   48.3859   31.4383   43.3991 N   0  0  0  0  0  0  0  0  0  0  0  0
   47.6230   34.5597   42.6435 O   0  0  0  0  0  0  0  0  0  0  0  0
   46.5352   35.1228   42.0795 C   0  0  2  0  0  0  0  0  0  0  0  0
   45.4923   35.6080   43.0210 C   0  0  0  0  0  0  0  0  0  0  0  0
   44.1827   35.7378   42.3160 C   0  0  0  0  0  0  0  0  0  0  0  0
   43.6583   34.5310   41.8952 O   0  0  0  0  0  0  0  0  0  0  0  0
   44.6477   33.5790   41.7495 C   0  0  0  0  0  0  0  0  0  0  0  0
   45.8573   34.2127   41.0673 C   0  0  1  0  0  0  0  0  0  0  0  0
   49.0638   36.7258   41.2533 H   0  0  0  0  0  0  0  0  0  0  0  0
   51.7005   32.2623   40.1301 H   0  0  0  0  0  0  0  0  0  0  0  0
   51.8452   29.2187   43.1512 H   0  0  0  0  0  0  0  0  0  0  0  0
   46.1769   31.0003   43.3962 H   0  0  0  0  0  0  0  0  0  0  0  0
   48.3206   31.6906   44.3897 H   0  0  0  0  0  0  0  0  0  0  0  0
   46.8722   35.9735   41.4392 H   0  0  0  0  0  0  0  0  0  0  0  0
   45.7744   36.5325   43.5651 H   0  0  0  0  0  0  0  0  0  0  0  0
   45.3463   34.8417   43.8331 H   0  0  0  0  0  0  0  0  0  0  0  0
   44.0848   36.5810   41.6249 H   0  0  0  0  0  0  0  0  0  0  0  0
   43.4596   36.0419   43.1575 H   0  0  0  0  0  0  0  0  0  0  0  0
   44.9997   33.1782   42.7289 H   0  0  0  0  0  0  0  0  0  0  0  0
   44.2538   32.7557   41.1284 H   0  0  0  0  0  0  0  0  0  0  0  0
   46.5681   33.3310   40.9713 H   0  0  0  0  0  0  0  0  0  0  0  0
   45.0090   36.9843   40.2131 O   0  0  0  0  0  0  0  0  0  0  0  0
   44.4190   35.7516   39.8493 C   0  0  2  0  0  0  0  0  0  0  0  0
   45.5812   34.7541   39.7275 C   0  0  2  0  0  0  0  0  0  0  0  0
   45.1405   33.8158   38.8053 O   0  0  0  0  0  0  0  0  0  0  0  0
   45.1850   34.3169   37.5127 C   0  0  0  0  0  0  0  0  0  0  0  0
   44.2911   35.5186   37.3469 C   0  0  1  0  0  0  0  0  0  0  0  0
   43.3708   35.3076   36.3255 O   0  0  0  0  0  0  0  0  0  0  0  0
   43.6001   35.9019   38.6227 C   0  0  2  0  0  0  0  0  0  0  0  0
   43.1675   37.2339   38.5647 O   0  0  0  0  0  0  0  0  0  0  0  0
   44.3258   37.6440   40.4613 H   0  0  0  0  0  0  0  0  0  0  0  0
   43.8052   35.4325   40.7070 H   0  0  0  0  0  0  0  0  0  0  0  0
   46.3844   35.3453   39.2549 H   0  0  0  0  0  0  0  0  0  0  0  0
   46.2416   34.5273   37.2645 H   0  0  0  0  0  0  0  0  0  0  0  0
   44.8439   33.5121   36.8346 H   0  0  0  0  0  0  0  0  0  0  0  0
   44.9324   36.3643   37.0345 H   0  0  0  0  0  0  0  0  0  0  0  0
   42.6527   35.9923   36.3691 H   0  0  0  0  0  0  0  0  0  0  0  0
   42.6796   35.2914   38.7387 H   0  0  0  0  0  0  0  0  0  0  0  0
   43.8927   37.8796   38.4657 H   0  0  0  0  0  0  0  0  0  0  0  0
  2 14  1  1
  2  1  2  0
  3  2  1  0
  4  6  1  0
  4  2  1  0
  5 10  2  0
  5 13  1  0
  6  5  1  0
  7  6  2  0
  7  8  1  0
  8  9  2  0
  9 10  1  0
 11 13  1  0
 12 11  2  0
 15 14  1  0
 15 16  1  0
 17 16  1  0
 18 17  1  0
 19 18  1  0
 20 19  1  0
 20 15  1  0
  3 21  1  0
  7 22  1  0
  9 23  1  0
 11 24  1  0
 13 25  1  0
 15 26  1  6
 16 27  1  0
 16 28  1  0
 17 29  1  0
 17 30  1  0
 19 31  1  0
 19 32  1  0
 20 33  1  6
 34 35  1  0
 35 36  1  0
 36 37  1  0
 37 38  1  0
 38 39  1  0
 39 40  1  0
 39 41  1  0
 41 42  1  0
 41 35  1  0
 34 43  1  0
 35 44  1  1
 36 45  1  6
 38 46  1  0
 38 47  1  0
 39 48  1  6
 40 49  1  0
 41 50  1  1
 42 51  1  0
 20 36  1  0
M  ISO  8  21   3  22  14  23  14  24   6  26  13  27  13  28  13  29  13
M  ISO  4  30  13  31  13  32  13  33  13
M  END
>  <DihAtoms>  (1) 
18,19,35,34

>  <DihDeg>  (1) 
-49.58614278810539

$$$$
