
 OpenBabel03242511483D

 47 49  0  0  1  0  0  0  0  0999 V2000
   36.4110   29.9190   39.8490 C   0  0  0  0  0  0  0  0  0  0  0  0
   36.8490   31.1740   39.3620 C   0  0  0  0  0  0  0  0  0  0  0  0
   37.8380   31.8130   40.0830 C   0  0  0  0  0  0  0  0  0  0  0  0
   38.3340   31.2330   41.1950 N   0  0  0  0  0  0  0  0  0  0  0  0
   37.8800   30.0370   41.6110 C   0  0  0  0  0  0  0  0  0  0  0  0
   36.9410   29.3810   40.9660 N   0  0  0  0  0  0  0  0  0  0  0  0
   35.6350   29.4070   39.2910 H   0  0  0  0  0  0  0  0  0  0  0  0
   36.4200   31.6070   38.4580 H   0  0  0  0  0  0  0  0  0  0  0  0
   38.4760   29.4720   42.8360 C   0  0  0  0  0  0  0  0  0  0  0  0
   39.5300   29.1960   42.5730 H   0  0  0  0  0  0  0  0  0  0  0  0
   38.5070   30.1930   43.6750 H   0  0  0  0  0  0  0  0  0  0  0  0
   37.7140   28.2250   43.2200 C   0  0  0  0  0  0  0  0  0  0  0  0
   36.8280   28.0880   42.5380 H   0  0  0  0  0  0  0  0  0  0  0  0
   37.2700   28.3900   44.2340 H   0  0  0  0  0  0  0  0  0  0  0  0
   38.5410   27.0420   43.1940 C   0  0  0  0  0  0  0  0  0  0  0  0
   39.6910   26.7860   43.8880 C   0  0  0  0  0  0  0  0  0  0  0  0
   40.3990   25.6310   43.7930 C   0  0  0  0  0  0  0  0  0  0  0  0
   39.9290   24.6520   42.9420 C   0  0  0  0  0  0  0  0  0  0  0  0
   38.7750   24.8960   42.2380 C   0  0  0  0  0  0  0  0  0  0  0  0
   38.0760   26.0800   42.3550 C   0  0  0  0  0  0  0  0  0  0  0  0
   40.0310   27.5890   44.5520 H   0  0  0  0  0  0  0  0  0  0  0  0
   41.2970   25.5380   44.3900 H   0  0  0  0  0  0  0  0  0  0  0  0
   40.5370   23.7470   42.9060 H   0  0  0  0  0  0  0  0  0  0  0  0
   38.5400   24.0210   41.6120 H   0  0  0  0  0  0  0  0  0  0  0  0
   37.2360   26.1760   40.0840 C   0  0  0  0  0  0  0  0  0  0  0  0
   38.2440   26.4170   39.3280 O   0  0  0  0  0  0  0  0  0  0  0  0
   36.9350   26.0010   41.4850 N   0  0  0  0  0  0  0  0  0  0  0  0
   36.6000   26.1430   39.2030 H   0  0  0  0  0  0  0  0  0  0  0  0
   35.9160   25.8430   41.6330 H   0  0  0  0  0  0  0  0  0  0  0  0
   38.2890   33.1280   39.5640 C   0  0  0  0  0  0  0  0  0  0  0  0
   38.1780   33.1190   38.4640 H   0  0  0  0  0  0  0  0  0  0  0  0
   37.6150   33.9100   39.9440 H   0  0  0  0  0  0  0  0  0  0  0  0
   39.7390   33.4040   39.9400 C   0  0  0  0  0  0  0  0  0  0  0  0
   39.8400   33.2240   41.0200 H   0  0  0  0  0  0  0  0  0  0  0  0
   40.0150   34.4470   39.7040 H   0  0  0  0  0  0  0  0  0  0  0  0
   40.9730   33.1180   37.8060 C   0  0  1  0  0  3  0  0  0  0  0  0
   40.7070   32.5510   39.1300 C   0  0  1  0  0  3  0  0  0  0  0  0
   41.7520   32.2700   39.9630 O   0  0  0  0  0  0  0  0  0  0  0  0
   42.9490   32.0000   39.3550 C   0  0  0  0  0  2  0  0  0  0  0  0
   43.3500   33.2800   38.6430 C   0  0  1  0  0  3  0  0  0  0  0  0
   42.4100   33.3370   37.4410 C   0  0  2  0  0  3  0  0  0  0  0  0
   40.4060   32.3490   36.7690 O   0  0  0  0  0  0  0  0  0  0  0  0
   39.7800   31.6790   37.1510 H   0  0  0  0  0  0  0  0  0  0  0  0
   43.1690   34.4020   39.4540 O   0  0  0  0  0  0  0  0  0  0  0  0
   42.9840   34.1530   40.3910 H   0  0  0  0  0  0  0  0  0  0  0  0
   42.5810   34.5520   36.7550 O   0  0  0  0  0  0  0  0  0  0  0  0
   42.9670   35.2260   37.3980 H   0  0  0  0  0  0  0  0  0  0  0  0
  1  6  1  0  0  0  0
  2  1  2  0  0  0  0
  2  3  1  0  0  0  0
  3  4  2  0  0  0  0
  4  5  1  0  0  0  0
  5  9  1  0  0  0  0
  6  5  2  0  0  0  0
  7  1  1  0  0  0  0
  8  2  1  0  0  0  0
  9 12  1  0  0  0  0
  9 11  1  0  0  0  0
 10  9  1  0  0  0  0
 12 14  1  0  0  0  0
 13 12  1  0  0  0  0
 15 12  1  0  0  0  0
 15 16  1  0  0  0  0
 16 21  1  0  0  0  0
 17 16  2  0  0  0  0
 17 22  1  0  0  0  0
 18 17  1  0  0  0  0
 19 20  1  0  0  0  0
 19 18  2  0  0  0  0
 20 15  2  0  0  0  0
 23 18  1  0  0  0  0
 24 19  1  0  0  0  0
 25 27  1  0  0  0  0
 26 25  2  0  0  0  0
 27 29  1  0  0  0  0
 27 20  1  0  0  0  0
 28 25  1  0  0  0  0
 30 33  1  0  0  0  0
 30 32  1  0  0  0  0
 30  3  1  0  0  0  0
 31 30  1  0  0  0  0
 33 34  1  0  0  0  0
 35 33  1  0  0  0  0
 36 42  1  6  0  0  0
 36 37  1  0  0  0  0
 37 33  1  1  0  0  0
 37 38  1  0  0  0  0
 39 38  1  0  0  0  0
 40 39  1  0  0  0  0
 40 44  1  1  0  0  0
 41 46  1  1  0  0  0
 41 36  1  0  0  0  0
 41 40  1  0  0  0  0
 42 43  1  0  0  0  0
 44 45  1  0  0  0  0
 46 47  1  0  0  0  0
M  END
>  <minimizedAffinity>
-6.92590046

$$$$

 OpenBabel03242511483D

 47 49  0  0  1  0  0  0  0  0999 V2000
   42.1070   28.2320   42.8860 C   0  0  0  0  0  0  0  0  0  0  0  0
   41.6960   29.5260   42.4860 C   0  0  0  0  0  0  0  0  0  0  0  0
   40.3400   29.7900   42.5230 C   0  0  0  0  0  0  0  0  0  0  0  0
   39.4850   28.8290   42.9280 N   0  0  0  0  0  0  0  0  0  0  0  0
   39.9330   27.6160   43.2970 C   0  0  0  0  0  0  0  0  0  0  0  0
   41.2100   27.3070   43.2830 N   0  0  0  0  0  0  0  0  0  0  0  0
   43.1680   28.0130   42.8610 H   0  0  0  0  0  0  0  0  0  0  0  0
   42.4220   30.2730   42.1650 H   0  0  0  0  0  0  0  0  0  0  0  0
   38.9320   26.6220   43.7280 C   0  0  0  0  0  0  0  0  0  0  0  0
   39.2530   25.6430   43.2870 H   0  0  0  0  0  0  0  0  0  0  0  0
   38.8820   26.5070   44.8280 H   0  0  0  0  0  0  0  0  0  0  0  0
   37.5860   27.0070   43.1610 C   0  0  0  0  0  0  0  0  0  0  0  0
   37.5980   28.0850   42.8350 H   0  0  0  0  0  0  0  0  0  0  0  0
   36.8370   26.9700   43.9930 H   0  0  0  0  0  0  0  0  0  0  0  0
   37.1890   26.1650   42.0590 C   0  0  0  0  0  0  0  0  0  0  0  0
   36.8520   24.8400   42.0710 C   0  0  0  0  0  0  0  0  0  0  0  0
   36.4880   24.1330   40.9700 C   0  0  0  0  0  0  0  0  0  0  0  0
   36.4560   24.7940   39.7590 C   0  0  0  0  0  0  0  0  0  0  0  0
   36.7930   26.1250   39.7320 C   0  0  0  0  0  0  0  0  0  0  0  0
   37.1590   26.8180   40.8670 C   0  0  0  0  0  0  0  0  0  0  0  0
   36.8900   24.3520   43.0520 H   0  0  0  0  0  0  0  0  0  0  0  0
   36.2420   23.0870   41.0990 H   0  0  0  0  0  0  0  0  0  0  0  0
   36.1580   24.1780   38.9100 H   0  0  0  0  0  0  0  0  0  0  0  0
   36.7160   26.4980   38.6970 H   0  0  0  0  0  0  0  0  0  0  0  0
   36.2990   29.0470   40.4650 C   0  0  0  0  0  0  0  0  0  0  0  0
   35.0350   28.9980   40.6720 O   0  0  0  0  0  0  0  0  0  0  0  0
   37.4470   28.1710   40.4800 N   0  0  0  0  0  0  0  0  0  0  0  0
   36.2080   30.1080   40.2440 H   0  0  0  0  0  0  0  0  0  0  0  0
   38.3110   28.6810   40.2000 H   0  0  0  0  0  0  0  0  0  0  0  0
   39.9200   31.1490   42.1010 C   0  0  0  0  0  0  0  0  0  0  0  0
   39.0510   31.0460   41.4270 H   0  0  0  0  0  0  0  0  0  0  0  0
   39.5720   31.7030   42.9860 H   0  0  0  0  0  0  0  0  0  0  0  0
   41.0510   31.8810   41.3890 C   0  0  0  0  0  0  0  0  0  0  0  0
   41.8020   31.1320   41.1040 H   0  0  0  0  0  0  0  0  0  0  0  0
   41.5060   32.6390   42.0510 H   0  0  0  0  0  0  0  0  0  0  0  0
   39.1600   32.3370   39.8480 C   0  0  1  0  0  3  0  0  0  0  0  0
   40.5470   32.6660   40.1850 C   0  0  1  0  0  3  0  0  0  0  0  0
   40.8940   33.9680   40.4100 O   0  0  0  0  0  0  0  0  0  0  0  0
   40.1210   34.9110   39.7850 C   0  0  0  0  0  2  0  0  0  0  0  0
   38.7310   34.7680   40.3780 C   0  0  1  0  0  3  0  0  0  0  0  0
   38.1990   33.4830   39.7510 C   0  0  2  0  0  3  0  0  0  0  0  0
   39.0580   31.6200   38.6380 O   0  0  0  0  0  0  0  0  0  0  0  0
   39.9580   31.3170   38.3490 H   0  0  0  0  0  0  0  0  0  0  0  0
   38.7720   34.6490   41.7690 O   0  0  0  0  0  0  0  0  0  0  0  0
   39.6670   34.8530   42.1300 H   0  0  0  0  0  0  0  0  0  0  0  0
   36.9550   33.1510   40.3160 O   0  0  0  0  0  0  0  0  0  0  0  0
   36.8950   33.5860   41.2240 H   0  0  0  0  0  0  0  0  0  0  0  0
  1  6  1  0  0  0  0
  2  3  1  0  0  0  0
  2  1  2  0  0  0  0
  3  4  2  0  0  0  0
  4  5  1  0  0  0  0
  5  9  1  0  0  0  0
  6  5  2  0  0  0  0
  7  1  1  0  0  0  0
  8  2  1  0  0  0  0
  9 11  1  0  0  0  0
 10  9  1  0  0  0  0
 12  9  1  0  0  0  0
 12 14  1  0  0  0  0
 13 12  1  0  0  0  0
 15 16  1  0  0  0  0
 15 12  1  0  0  0  0
 16 21  1  0  0  0  0
 17 22  1  0  0  0  0
 17 16  2  0  0  0  0
 18 17  1  0  0  0  0
 19 18  2  0  0  0  0
 19 20  1  0  0  0  0
 20 15  2  0  0  0  0
 23 18  1  0  0  0  0
 24 19  1  0  0  0  0
 25 27  1  0  0  0  0
 25 26  2  0  0  0  0
 27 20  1  0  0  0  0
 28 25  1  0  0  0  0
 29 27  1  0  0  0  0
 30  3  1  0  0  0  0
 30 32  1  0  0  0  0
 31 30  1  0  0  0  0
 33 35  1  0  0  0  0
 33 30  1  0  0  0  0
 34 33  1  0  0  0  0
 36 42  1  6  0  0  0
 36 37  1  0  0  0  0
 37 38  1  0  0  0  0
 37 33  1  1  0  0  0
 39 40  1  0  0  0  0
 39 38  1  0  0  0  0
 40 44  1  1  0  0  0
 41 36  1  0  0  0  0
 41 46  1  1  0  0  0
 41 40  1  0  0  0  0
 43 42  1  0  0  0  0
 44 45  1  0  0  0  0
 46 47  1  0  0  0  0
M  END
>  <minimizedAffinity>
-6.75659609

$$$$

 OpenBabel03242511483D

 47 49  0  0  1  0  0  0  0  0999 V2000
   40.7420   26.9080   43.6360 C   0  0  0  0  0  0  0  0  0  0  0  0
   41.4050   27.9920   43.0120 C   0  0  0  0  0  0  0  0  0  0  0  0
   40.6240   29.0660   42.6320 C   0  0  0  0  0  0  0  0  0  0  0  0
   39.2960   29.0400   42.8620 N   0  0  0  0  0  0  0  0  0  0  0  0
   38.7190   27.9820   43.4600 C   0  0  0  0  0  0  0  0  0  0  0  0
   39.4100   26.9320   43.8450 N   0  0  0  0  0  0  0  0  0  0  0  0
   41.3440   26.0590   43.9390 H   0  0  0  0  0  0  0  0  0  0  0  0
   42.4820   27.9720   42.8440 H   0  0  0  0  0  0  0  0  0  0  0  0
   37.2610   28.0330   43.6760 C   0  0  0  0  0  0  0  0  0  0  0  0
   37.0820   27.6220   44.7040 H   0  0  0  0  0  0  0  0  0  0  0  0
   36.8540   29.0620   43.6400 H   0  0  0  0  0  0  0  0  0  0  0  0
   36.5840   27.1460   42.6590 C   0  0  0  0  0  0  0  0  0  0  0  0
   35.6040   26.7700   43.0660 H   0  0  0  0  0  0  0  0  0  0  0  0
   37.2100   26.2260   42.5310 H   0  0  0  0  0  0  0  0  0  0  0  0
   36.3690   27.8150   41.3980 C   0  0  0  0  0  0  0  0  0  0  0  0
   35.8520   29.0580   41.1660 C   0  0  0  0  0  0  0  0  0  0  0  0
   35.6900   29.6010   39.9320 C   0  0  0  0  0  0  0  0  0  0  0  0
   36.0730   28.8490   38.8390 C   0  0  0  0  0  0  0  0  0  0  0  0
   36.5940   27.5970   39.0580 C   0  0  0  0  0  0  0  0  0  0  0  0
   36.7460   27.0720   40.3250 C   0  0  0  0  0  0  0  0  0  0  0  0
   35.5590   29.6230   42.0590 H   0  0  0  0  0  0  0  0  0  0  0  0
   35.2690   30.5960   39.8670 H   0  0  0  0  0  0  0  0  0  0  0  0
   35.9210   29.3340   37.8750 H   0  0  0  0  0  0  0  0  0  0  0  0
   36.8470   27.1350   38.0900 H   0  0  0  0  0  0  0  0  0  0  0  0
   38.7520   25.7200   40.1840 C   0  0  0  0  0  0  0  0  0  0  0  0
   39.7460   26.5280   40.2420 O   0  0  0  0  0  0  0  0  0  0  0  0
   37.3090   25.7560   40.1870 N   0  0  0  0  0  0  0  0  0  0  0  0
   39.4490   24.8870   40.1230 H   0  0  0  0  0  0  0  0  0  0  0  0
   36.9090   24.8000   40.0870 H   0  0  0  0  0  0  0  0  0  0  0  0
   41.3290   30.1970   41.9790 C   0  0  0  0  0  0  0  0  0  0  0  0
   42.2970   30.3400   42.4930 H   0  0  0  0  0  0  0  0  0  0  0  0
   41.5600   29.9180   40.9390 H   0  0  0  0  0  0  0  0  0  0  0  0
   40.5060   31.4770   42.0480 C   0  0  0  0  0  0  0  0  0  0  0  0
   41.0250   32.1680   42.7260 H   0  0  0  0  0  0  0  0  0  0  0  0
   39.4890   31.2700   42.4270 H   0  0  0  0  0  0  0  0  0  0  0  0
   38.9130   31.9270   40.2000 C   0  0  1  0  0  3  0  0  0  0  0  0
   40.2910   32.0880   40.6690 C   0  0  1  0  0  3  0  0  0  0  0  0
   40.8440   33.3350   40.7180 O   0  0  0  0  0  0  0  0  0  0  0  0
   40.3310   34.2540   39.8400 C   0  0  0  0  0  2  0  0  0  0  0  0
   38.8820   34.4520   40.2460 C   0  0  1  0  0  3  0  0  0  0  0  0
   38.1950   33.1730   39.7760 C   0  0  2  0  0  3  0  0  0  0  0  0
   38.8140   31.0190   39.1250 O   0  0  0  0  0  0  0  0  0  0  0  0
   39.6700   30.5260   39.0230 H   0  0  0  0  0  0  0  0  0  0  0  0
   38.7460   34.5950   41.6290 O   0  0  0  0  0  0  0  0  0  0  0  0
   39.6180   34.7180   42.0740 H   0  0  0  0  0  0  0  0  0  0  0  0
   36.8570   33.1600   40.2070 O   0  0  0  0  0  0  0  0  0  0  0  0
   36.7780   33.7640   41.0100 H   0  0  0  0  0  0  0  0  0  0  0  0
  1  6  1  0  0  0  0
  1  7  1  0  0  0  0
  2  1  2  0  0  0  0
  3  4  2  0  0  0  0
  3  2  1  0  0  0  0
  4  5  1  0  0  0  0
  5  9  1  0  0  0  0
  5  6  2  0  0  0  0
  8  2  1  0  0  0  0
  9 10  1  0  0  0  0
 11  9  1  0  0  0  0
 12 13  1  0  0  0  0
 12  9  1  0  0  0  0
 14 12  1  0  0  0  0
 15 12  1  0  0  0  0
 16 15  1  0  0  0  0
 16 21  1  0  0  0  0
 17 16  2  0  0  0  0
 18 19  2  0  0  0  0
 18 17  1  0  0  0  0
 19 20  1  0  0  0  0
 20 15  2  0  0  0  0
 22 17  1  0  0  0  0
 23 18  1  0  0  0  0
 24 19  1  0  0  0  0
 25 27  1  0  0  0  0
 25 26  2  0  0  0  0
 27 20  1  0  0  0  0
 28 25  1  0  0  0  0
 29 27  1  0  0  0  0
 30 33  1  0  0  0  0
 30 31  1  0  0  0  0
 30  3  1  0  0  0  0
 32 30  1  0  0  0  0
 33 35  1  0  0  0  0
 33 34  1  0  0  0  0
 36 42  1  6  0  0  0
 36 37  1  0  0  0  0
 37 38  1  0  0  0  0
 37 33  1  1  0  0  0
 39 40  1  0  0  0  0
 39 38  1  0  0  0  0
 40 44  1  1  0  0  0
 41 36  1  0  0  0  0
 41 46  1  1  0  0  0
 41 40  1  0  0  0  0
 43 42  1  0  0  0  0
 44 45  1  0  0  0  0
 46 47  1  0  0  0  0
M  END
>  <minimizedAffinity>
-6.60332394

$$$$

 OpenBabel03242511483D

 47 49  0  0  1  0  0  0  0  0999 V2000
   35.4170   28.8490   40.7060 C   0  0  0  0  0  0  0  0  0  0  0  0
   35.6620   30.0080   39.9310 C   0  0  0  0  0  0  0  0  0  0  0  0
   36.7360   30.7920   40.3040 C   0  0  0  0  0  0  0  0  0  0  0  0
   37.4880   30.4330   41.3640 N   0  0  0  0  0  0  0  0  0  0  0  0
   37.2080   29.3190   42.0640 C   0  0  0  0  0  0  0  0  0  0  0  0
   36.2000   28.5340   41.7560 N   0  0  0  0  0  0  0  0  0  0  0  0
   34.5760   28.2250   40.4230 H   0  0  0  0  0  0  0  0  0  0  0  0
   35.0280   30.2620   39.0810 H   0  0  0  0  0  0  0  0  0  0  0  0
   38.0800   28.9970   43.2090 C   0  0  0  0  0  0  0  0  0  0  0  0
   39.1310   29.1620   42.8580 H   0  0  0  0  0  0  0  0  0  0  0  0
   37.9020   29.6500   44.0860 H   0  0  0  0  0  0  0  0  0  0  0  0
   37.8970   27.5420   43.5700 C   0  0  0  0  0  0  0  0  0  0  0  0
   37.0380   27.1050   42.9870 H   0  0  0  0  0  0  0  0  0  0  0  0
   37.5700   27.4900   44.6400 H   0  0  0  0  0  0  0  0  0  0  0  0
   39.0900   26.7630   43.3470 C   0  0  0  0  0  0  0  0  0  0  0  0
   40.2330   26.7130   44.0940 C   0  0  0  0  0  0  0  0  0  0  0  0
   41.3090   25.9390   43.7960 C   0  0  0  0  0  0  0  0  0  0  0  0
   41.2450   25.1500   42.6650 C   0  0  0  0  0  0  0  0  0  0  0  0
   40.1020   25.1910   41.9040 C   0  0  0  0  0  0  0  0  0  0  0  0
   39.0250   25.9880   42.2320 C   0  0  0  0  0  0  0  0  0  0  0  0
   40.2450   27.3540   44.9840 H   0  0  0  0  0  0  0  0  0  0  0  0
   42.1610   25.9800   44.4610 H   0  0  0  0  0  0  0  0  0  0  0  0
   42.1360   24.5500   42.4750 H   0  0  0  0  0  0  0  0  0  0  0  0
   40.2140   24.5090   41.0460 H   0  0  0  0  0  0  0  0  0  0  0  0
   38.2500   26.5000   39.9940 C   0  0  0  0  0  0  0  0  0  0  0  0
   39.1020   27.3110   39.4850 O   0  0  0  0  0  0  0  0  0  0  0  0
   38.0140   25.7900   41.2290 N   0  0  0  0  0  0  0  0  0  0  0  0
   37.6880   26.5260   39.0630 H   0  0  0  0  0  0  0  0  0  0  0  0
   37.1300   25.2420   41.1840 H   0  0  0  0  0  0  0  0  0  0  0  0
   36.9840   32.0050   39.4860 C   0  0  0  0  0  0  0  0  0  0  0  0
   36.0070   32.4640   39.2470 H   0  0  0  0  0  0  0  0  0  0  0  0
   37.5380   32.7360   40.0940 H   0  0  0  0  0  0  0  0  0  0  0  0
   37.7280   31.6630   38.2010 C   0  0  0  0  0  0  0  0  0  0  0  0
   37.1990   32.1520   37.3720 H   0  0  0  0  0  0  0  0  0  0  0  0
   37.7530   30.5700   38.0410 H   0  0  0  0  0  0  0  0  0  0  0  0
   39.5170   32.7730   39.5150 C   0  0  1  0  0  3  0  0  0  0  0  0
   39.1910   32.0810   38.2650 C   0  0  1  0  0  3  0  0  0  0  0  0
   39.9150   30.9840   37.8960 O   0  0  0  0  0  0  0  0  0  0  0  0
   41.1980   30.9220   38.3740 C   0  0  0  0  0  2  0  0  0  0  0  0
   41.0740   30.8200   39.8840 C   0  0  1  0  0  3  0  0  0  0  0  0
   40.6630   32.2260   40.3110 C   0  0  2  0  0  3  0  0  0  0  0  0
   39.7800   34.1440   39.3160 O   0  0  0  0  0  0  0  0  0  0  0  0
   39.5100   34.4090   38.3980 H   0  0  0  0  0  0  0  0  0  0  0  0
   40.1000   29.8940   40.2620 O   0  0  0  0  0  0  0  0  0  0  0  0
   39.7930   29.3490   39.4980 H   0  0  0  0  0  0  0  0  0  0  0  0
   40.3820   32.2470   41.6880 O   0  0  0  0  0  0  0  0  0  0  0  0
   40.1430   31.3110   41.9760 H   0  0  0  0  0  0  0  0  0  0  0  0
  1  6  1  0  0  0  0
  2  3  1  0  0  0  0
  2  1  2  0  0  0  0
  3  4  2  0  0  0  0
  4  5  1  0  0  0  0
  5  9  1  0  0  0  0
  6  5  2  0  0  0  0
  7  1  1  0  0  0  0
  8  2  1  0  0  0  0
  9 12  1  0  0  0  0
  9 11  1  0  0  0  0
 10  9  1  0  0  0  0
 12 14  1  0  0  0  0
 13 12  1  0  0  0  0
 15 12  1  0  0  0  0
 15 16  1  0  0  0  0
 16 21  1  0  0  0  0
 17 16  2  0  0  0  0
 17 22  1  0  0  0  0
 18 17  1  0  0  0  0
 19 20  1  0  0  0  0
 19 18  2  0  0  0  0
 20 15  2  0  0  0  0
 23 18  1  0  0  0  0
 24 19  1  0  0  0  0
 25 27  1  0  0  0  0
 26 25  2  0  0  0  0
 27 20  1  0  0  0  0
 28 25  1  0  0  0  0
 29 27  1  0  0  0  0
 30 32  1  0  0  0  0
 30  3  1  0  0  0  0
 31 30  1  0  0  0  0
 33 30  1  0  0  0  0
 34 33  1  0  0  0  0
 35 33  1  0  0  0  0
 36 42  1  6  0  0  0
 36 41  1  0  0  0  0
 37 33  1  1  0  0  0
 37 36  1  0  0  0  0
 38 37  1  0  0  0  0
 38 39  1  0  0  0  0
 39 40  1  0  0  0  0
 40 44  1  6  0  0  0
 40 41  1  0  0  0  0
 41 46  1  1  0  0  0
 43 42  1  0  0  0  0
 45 44  1  0  0  0  0
 46 47  1  0  0  0  0
M  END
>  <minimizedAffinity>
-6.11676168

$$$$

 OpenBabel03242511483D

 47 49  0  0  1  0  0  0  0  0999 V2000
   36.3120   26.5050   38.8830 C   0  0  0  0  0  0  0  0  0  0  0  0
   35.9720   27.8730   38.7460 C   0  0  0  0  0  0  0  0  0  0  0  0
   36.0940   28.6620   39.8730 C   0  0  0  0  0  0  0  0  0  0  0  0
   36.5190   28.1140   41.0280 N   0  0  0  0  0  0  0  0  0  0  0  0
   36.8290   26.8070   41.1000 C   0  0  0  0  0  0  0  0  0  0  0  0
   36.7340   26.0060   40.0620 N   0  0  0  0  0  0  0  0  0  0  0  0
   36.2200   25.8750   38.0060 H   0  0  0  0  0  0  0  0  0  0  0  0
   35.6310   28.2750   37.7920 H   0  0  0  0  0  0  0  0  0  0  0  0
   37.2870   26.2860   42.4020 C   0  0  0  0  0  0  0  0  0  0  0  0
   37.6500   27.1730   42.9830 H   0  0  0  0  0  0  0  0  0  0  0  0
   36.4790   25.8000   42.9820 H   0  0  0  0  0  0  0  0  0  0  0  0
   38.4380   25.3350   42.1710 C   0  0  0  0  0  0  0  0  0  0  0  0
   38.5060   25.0690   41.0790 H   0  0  0  0  0  0  0  0  0  0  0  0
   38.1970   24.3700   42.6850 H   0  0  0  0  0  0  0  0  0  0  0  0
   39.6980   25.8720   42.6250 C   0  0  0  0  0  0  0  0  0  0  0  0
   40.0570   26.2670   43.8840 C   0  0  0  0  0  0  0  0  0  0  0  0
   41.2790   26.7610   44.2100 C   0  0  0  0  0  0  0  0  0  0  0  0
   42.2210   26.8730   43.2080 C   0  0  0  0  0  0  0  0  0  0  0  0
   41.8730   26.4810   41.9380 C   0  0  0  0  0  0  0  0  0  0  0  0
   40.6230   25.9820   41.6360 C   0  0  0  0  0  0  0  0  0  0  0  0
   39.2820   26.1620   44.6520 H   0  0  0  0  0  0  0  0  0  0  0  0
   41.4520   27.0420   45.2410 H   0  0  0  0  0  0  0  0  0  0  0  0
   43.1830   27.2760   43.5270 H   0  0  0  0  0  0  0  0  0  0  0  0
   42.7320   26.6330   41.2630 H   0  0  0  0  0  0  0  0  0  0  0  0
   40.1510   26.7630   39.3910 C   0  0  0  0  0  0  0  0  0  0  0  0
   39.7170   27.9650   39.5030 O   0  0  0  0  0  0  0  0  0  0  0  0
   40.6020   25.6790   40.2310 N   0  0  0  0  0  0  0  0  0  0  0  0
   40.0530   26.8420   38.3110 H   0  0  0  0  0  0  0  0  0  0  0  0
   40.8410   24.8390   39.6630 H   0  0  0  0  0  0  0  0  0  0  0  0
   35.7350   30.0940   39.7170 C   0  0  0  0  0  0  0  0  0  0  0  0
   35.8500   30.3630   38.6510 H   0  0  0  0  0  0  0  0  0  0  0  0
   34.6700   30.2210   39.9640 H   0  0  0  0  0  0  0  0  0  0  0  0
   36.6220   30.9830   40.5800 C   0  0  0  0  0  0  0  0  0  0  0  0
   37.1750   30.3290   41.2680 H   0  0  0  0  0  0  0  0  0  0  0  0
   36.0150   31.7060   41.1520 H   0  0  0  0  0  0  0  0  0  0  0  0
   37.5380   33.2470   40.1430 C   0  0  1  0  0  3  0  0  0  0  0  0
   37.5570   31.8400   39.7360 C   0  0  1  0  0  3  0  0  0  0  0  0
   38.7450   31.1690   39.6900 O   0  0  0  0  0  0  0  0  0  0  0  0
   39.8600   31.9360   39.4730 C   0  0  0  0  0  2  0  0  0  0  0  0
   39.9740   32.8510   40.6800 C   0  0  1  0  0  3  0  0  0  0  0  0
   38.8610   33.8730   40.4670 C   0  0  2  0  0  3  0  0  0  0  0  0
   36.9250   34.0750   39.1810 O   0  0  0  0  0  0  0  0  0  0  0  0
   36.4590   33.5170   38.5040 H   0  0  0  0  0  0  0  0  0  0  0  0
   39.7740   32.1580   41.8760 O   0  0  0  0  0  0  0  0  0  0  0  0
   39.7700   31.1810   41.7390 H   0  0  0  0  0  0  0  0  0  0  0  0
   38.7630   34.7170   41.5880 O   0  0  0  0  0  0  0  0  0  0  0  0
   39.1510   34.2320   42.3830 H   0  0  0  0  0  0  0  0  0  0  0  0
  1  6  1  0  0  0  0
  2  1  2  0  0  0  0
  2  3  1  0  0  0  0
  3  4  2  0  0  0  0
  4  5  1  0  0  0  0
  5  9  1  0  0  0  0
  6  5  2  0  0  0  0
  7  1  1  0  0  0  0
  8  2  1  0  0  0  0
  9 11  1  0  0  0  0
  9 10  1  0  0  0  0
 12  9  1  0  0  0  0
 12 15  1  0  0  0  0
 12 14  1  0  0  0  0
 13 12  1  0  0  0  0
 15 16  1  0  0  0  0
 16 17  2  0  0  0  0
 16 21  1  0  0  0  0
 17 22  1  0  0  0  0
 18 23  1  0  0  0  0
 18 17  1  0  0  0  0
 19 18  2  0  0  0  0
 20 19  1  0  0  0  0
 20 15  2  0  0  0  0
 24 19  1  0  0  0  0
 25 26  2  0  0  0  0
 25 27  1  0  0  0  0
 27 20  1  0  0  0  0
 28 25  1  0  0  0  0
 29 27  1  0  0  0  0
 30  3  1  0  0  0  0
 30 32  1  0  0  0  0
 30 33  1  0  0  0  0
 31 30  1  0  0  0  0
 33 35  1  0  0  0  0
 33 34  1  0  0  0  0
 36 42  1  6  0  0  0
 36 41  1  0  0  0  0
 37 36  1  0  0  0  0
 37 33  1  1  0  0  0
 38 37  1  0  0  0  0
 39 38  1  0  0  0  0
 39 40  1  0  0  0  0
 40 44  1  1  0  0  0
 41 40  1  0  0  0  0
 41 46  1  1  0  0  0
 43 42  1  0  0  0  0
 45 44  1  0  0  0  0
 46 47  1  0  0  0  0
M  END
>  <minimizedAffinity>
-6.06677818

$$$$

 OpenBabel03242511483D

 47 49  0  0  1  0  0  0  0  0999 V2000
   36.5820   29.5660   36.7570 C   0  0  0  0  0  0  0  0  0  0  0  0
   37.4040   30.6890   37.0200 C   0  0  0  0  0  0  0  0  0  0  0  0
   37.5500   31.0580   38.3430 C   0  0  0  0  0  0  0  0  0  0  0  0
   36.9210   30.3550   39.3060 N   0  0  0  0  0  0  0  0  0  0  0  0
   36.1520   29.2950   38.9960 C   0  0  0  0  0  0  0  0  0  0  0  0
   35.9760   28.8960   37.7570 N   0  0  0  0  0  0  0  0  0  0  0  0
   36.4600   29.2660   35.7220 H   0  0  0  0  0  0  0  0  0  0  0  0
   37.8940   31.2290   36.2100 H   0  0  0  0  0  0  0  0  0  0  0  0
   35.5000   28.5800   40.1090 C   0  0  0  0  0  0  0  0  0  0  0  0
   34.4330   28.9220   40.1180 H   0  0  0  0  0  0  0  0  0  0  0  0
   35.5090   27.4800   39.9810 H   0  0  0  0  0  0  0  0  0  0  0  0
   36.1640   28.9810   41.4050 C   0  0  0  0  0  0  0  0  0  0  0  0
   35.3840   29.2310   42.1770 H   0  0  0  0  0  0  0  0  0  0  0  0
   36.7110   29.9420   41.2310 H   0  0  0  0  0  0  0  0  0  0  0  0
   37.0470   27.9580   41.9120 C   0  0  0  0  0  0  0  0  0  0  0  0
   37.0050   26.6090   41.7020 C   0  0  0  0  0  0  0  0  0  0  0  0
   37.8920   25.7250   42.2280 C   0  0  0  0  0  0  0  0  0  0  0  0
   38.9020   26.2200   43.0270 C   0  0  0  0  0  0  0  0  0  0  0  0
   38.9560   27.5750   43.2470 C   0  0  0  0  0  0  0  0  0  0  0  0
   38.0410   28.4490   42.6990 C   0  0  0  0  0  0  0  0  0  0  0  0
   36.1880   26.2550   41.0620 H   0  0  0  0  0  0  0  0  0  0  0  0
   37.7610   24.6760   41.9930 H   0  0  0  0  0  0  0  0  0  0  0  0
   39.5850   25.4660   43.4220 H   0  0  0  0  0  0  0  0  0  0  0  0
   39.8150   27.8020   43.9000 H   0  0  0  0  0  0  0  0  0  0  0  0
   39.3540   30.4460   42.2970 C   0  0  0  0  0  0  0  0  0  0  0  0
   40.0580   30.2190   41.2500 O   0  0  0  0  0  0  0  0  0  0  0  0
   38.3870   29.7740   43.1340 N   0  0  0  0  0  0  0  0  0  0  0  0
   39.7820   31.4440   42.3540 H   0  0  0  0  0  0  0  0  0  0  0  0
   38.0980   30.3780   43.9310 H   0  0  0  0  0  0  0  0  0  0  0  0
   38.4130   32.2370   38.6070 C   0  0  0  0  0  0  0  0  0  0  0  0
   37.9220   33.1260   38.1710 H   0  0  0  0  0  0  0  0  0  0  0  0
   38.4640   32.4020   39.6940 H   0  0  0  0  0  0  0  0  0  0  0  0
   39.7990   32.0540   38.0010 C   0  0  0  0  0  0  0  0  0  0  0  0
   39.7920   32.5320   37.0110 H   0  0  0  0  0  0  0  0  0  0  0  0
   40.0460   30.9830   37.9000 H   0  0  0  0  0  0  0  0  0  0  0  0
   42.1710   31.9370   38.7190 C   0  0  1  0  0  3  0  0  0  0  0  0
   40.8900   32.6240   38.8980 C   0  0  1  0  0  3  0  0  0  0  0  0
   40.8280   33.9810   38.7540 O   0  0  0  0  0  0  0  0  0  0  0  0
   41.9880   34.6650   39.0060 C   0  0  0  0  0  2  0  0  0  0  0  0
   42.9790   34.2030   37.9520 C   0  0  1  0  0  3  0  0  0  0  0  0
   43.3580   32.7950   38.4020 C   0  0  2  0  0  3  0  0  0  0  0  0
   42.5230   31.1580   39.8400 O   0  0  0  0  0  0  0  0  0  0  0  0
   41.7460   31.0790   40.4530 H   0  0  0  0  0  0  0  0  0  0  0  0
   42.4030   34.1680   36.6800 O   0  0  0  0  0  0  0  0  0  0  0  0
   41.5220   34.6110   36.6630 H   0  0  0  0  0  0  0  0  0  0  0  0
   44.1810   32.1880   37.4370 O   0  0  0  0  0  0  0  0  0  0  0  0
   44.0130   32.6380   36.5500 H   0  0  0  0  0  0  0  0  0  0  0  0
  1  2  2  0  0  0  0
  1  6  1  0  0  0  0
  2  3  1  0  0  0  0
  3 30  1  0  0  0  0
  3  4  2  0  0  0  0
  5  4  1  0  0  0  0
  5  9  1  0  0  0  0
  6  5  2  0  0  0  0
  7  1  1  0  0  0  0
  8  2  1  0  0  0  0
  9 10  1  0  0  0  0
  9 12  1  0  0  0  0
 11  9  1  0  0  0  0
 12 15  1  0  0  0  0
 12 13  1  0  0  0  0
 14 12  1  0  0  0  0
 15 20  1  0  0  0  0
 16 15  2  0  0  0  0
 16 17  1  0  0  0  0
 17 18  2  0  0  0  0
 18 19  1  0  0  0  0
 18 23  1  0  0  0  0
 19 24  1  0  0  0  0
 20 27  1  0  0  0  0
 20 19  2  0  0  0  0
 21 16  1  0  0  0  0
 22 17  1  0  0  0  0
 25 28  1  0  0  0  0
 25 27  1  0  0  0  0
 26 25  2  0  0  0  0
 27 29  1  0  0  0  0
 30 32  1  0  0  0  0
 31 30  1  0  0  0  0
 33 30  1  0  0  0  0
 34 33  1  0  0  0  0
 35 33  1  0  0  0  0
 36 37  1  0  0  0  0
 36 42  1  1  0  0  0
 37 33  1  6  0  0  0
 38 37  1  0  0  0  0
 38 39  1  0  0  0  0
 40 44  1  6  0  0  0
 40 41  1  0  0  0  0
 40 39  1  0  0  0  0
 41 46  1  6  0  0  0
 41 36  1  0  0  0  0
 42 43  1  0  0  0  0
 45 44  1  0  0  0  0
 47 46  1  0  0  0  0
M  END
>  <minimizedAffinity>
-6.06200409

$$$$

 OpenBabel03242511483D

 47 49  0  0  1  0  0  0  0  0999 V2000
   35.6160   28.6420   37.5360 C   0  0  0  0  0  0  0  0  0  0  0  0
   35.7960   29.8860   38.1870 C   0  0  0  0  0  0  0  0  0  0  0  0
   36.6030   29.8930   39.3080 C   0  0  0  0  0  0  0  0  0  0  0  0
   37.1730   28.7440   39.7270 N   0  0  0  0  0  0  0  0  0  0  0  0
   36.9660   27.5900   39.0670 C   0  0  0  0  0  0  0  0  0  0  0  0
   36.2090   27.5220   37.9950 N   0  0  0  0  0  0  0  0  0  0  0  0
   34.9840   28.6240   36.6550 H   0  0  0  0  0  0  0  0  0  0  0  0
   35.3160   30.7910   37.8140 H   0  0  0  0  0  0  0  0  0  0  0  0
   37.6260   26.3800   39.5900 C   0  0  0  0  0  0  0  0  0  0  0  0
   37.2550   25.5260   38.9660 H   0  0  0  0  0  0  0  0  0  0  0  0
   38.7300   26.4170   39.5040 H   0  0  0  0  0  0  0  0  0  0  0  0
   37.2010   26.1710   41.0250 C   0  0  0  0  0  0  0  0  0  0  0  0
   36.4210   25.3610   41.0820 H   0  0  0  0  0  0  0  0  0  0  0  0
   36.6730   27.0980   41.3670 H   0  0  0  0  0  0  0  0  0  0  0  0
   38.3100   25.8490   41.8890 C   0  0  0  0  0  0  0  0  0  0  0  0
   38.8090   24.6200   42.2210 C   0  0  0  0  0  0  0  0  0  0  0  0
   39.8670   24.4220   43.0490 C   0  0  0  0  0  0  0  0  0  0  0  0
   40.4800   25.5330   43.5920 C   0  0  0  0  0  0  0  0  0  0  0  0
   39.9890   26.7750   43.2670 C   0  0  0  0  0  0  0  0  0  0  0  0
   38.9120   26.9450   42.4220 C   0  0  0  0  0  0  0  0  0  0  0  0
   38.2940   23.7630   41.7700 H   0  0  0  0  0  0  0  0  0  0  0  0
   40.1750   23.4030   43.2410 H   0  0  0  0  0  0  0  0  0  0  0  0
   41.3230   25.3150   44.2480 H   0  0  0  0  0  0  0  0  0  0  0  0
   40.5870   27.5460   43.7790 H   0  0  0  0  0  0  0  0  0  0  0  0
   37.7350   28.8830   43.2760 C   0  0  0  0  0  0  0  0  0  0  0  0
   36.9990   28.4720   44.2420 O   0  0  0  0  0  0  0  0  0  0  0  0
   38.6660   28.3560   42.3070 N   0  0  0  0  0  0  0  0  0  0  0  0
   37.3780   29.8950   43.4520 H   0  0  0  0  0  0  0  0  0  0  0  0
   39.0110   29.1050   41.6710 H   0  0  0  0  0  0  0  0  0  0  0  0
   36.7850   31.2020   39.9830 C   0  0  0  0  0  0  0  0  0  0  0  0
   35.8160   31.4980   40.4230 H   0  0  0  0  0  0  0  0  0  0  0  0
   37.4890   31.0750   40.8200 H   0  0  0  0  0  0  0  0  0  0  0  0
   37.2620   32.2670   39.0040 C   0  0  0  0  0  0  0  0  0  0  0  0
   36.4850   33.0420   38.9540 H   0  0  0  0  0  0  0  0  0  0  0  0
   37.4270   31.8340   38.0010 H   0  0  0  0  0  0  0  0  0  0  0  0
   38.8090   32.8350   40.8590 C   0  0  1  0  0  3  0  0  0  0  0  0
   38.6140   32.8430   39.4070 C   0  0  1  0  0  3  0  0  0  0  0  0
   39.5370   32.2420   38.6000 O   0  0  0  0  0  0  0  0  0  0  0  0
   40.8120   32.1710   39.0970 C   0  0  0  0  0  2  0  0  0  0  0  0
   40.7290   31.2830   40.3270 C   0  0  1  0  0  3  0  0  0  0  0  0
   40.0510   32.1680   41.3690 C   0  0  2  0  0  3  0  0  0  0  0  0
   38.7920   34.1330   41.4100 O   0  0  0  0  0  0  0  0  0  0  0  0
   38.4640   34.7810   40.7330 H   0  0  0  0  0  0  0  0  0  0  0  0
   39.9630   30.1400   40.0890 O   0  0  0  0  0  0  0  0  0  0  0  0
   39.7620   30.0240   39.1300 H   0  0  0  0  0  0  0  0  0  0  0  0
   39.7880   31.4250   42.5320 O   0  0  0  0  0  0  0  0  0  0  0  0
   39.7440   30.4490   42.2810 H   0  0  0  0  0  0  0  0  0  0  0  0
  1  6  2  0  0  0  0
  1  2  1  0  0  0  0
  2  3  2  0  0  0  0
  3  4  1  0  0  0  0
  3 30  1  0  0  0  0
  5  9  1  0  0  0  0
  5  4  2  0  0  0  0
  6  5  1  0  0  0  0
  7  1  1  0  0  0  0
  8  2  1  0  0  0  0
  9 12  1  0  0  0  0
 10  9  1  0  0  0  0
 11  9  1  0  0  0  0
 12 13  1  0  0  0  0
 12 14  1  0  0  0  0
 12 15  1  0  0  0  0
 15 16  2  0  0  0  0
 15 20  1  0  0  0  0
 16 17  1  0  0  0  0
 17 22  1  0  0  0  0
 17 18  2  0  0  0  0
 18 23  1  0  0  0  0
 19 18  1  0  0  0  0
 19 24  1  0  0  0  0
 20 19  2  0  0  0  0
 21 16  1  0  0  0  0
 25 28  1  0  0  0  0
 25 26  2  0  0  0  0
 27 20  1  0  0  0  0
 27 25  1  0  0  0  0
 29 27  1  0  0  0  0
 30 31  1  0  0  0  0
 30 32  1  0  0  0  0
 33 30  1  0  0  0  0
 34 33  1  0  0  0  0
 35 33  1  0  0  0  0
 36 41  1  0  0  0  0
 36 42  1  6  0  0  0
 37 33  1  1  0  0  0
 37 36  1  0  0  0  0
 38 39  1  0  0  0  0
 38 37  1  0  0  0  0
 39 40  1  0  0  0  0
 40 44  1  6  0  0  0
 40 41  1  0  0  0  0
 41 46  1  1  0  0  0
 43 42  1  0  0  0  0
 45 44  1  0  0  0  0
 47 46  1  0  0  0  0
M  END
>  <minimizedAffinity>
-6.03359652

$$$$

 OpenBabel03242511483D

 47 49  0  0  1  0  0  0  0  0999 V2000
   37.0730   29.8880   37.1960 C   0  0  0  0  0  0  0  0  0  0  0  0
   37.0950   30.9160   38.1700 C   0  0  0  0  0  0  0  0  0  0  0  0
   36.9990   30.5250   39.4910 C   0  0  0  0  0  0  0  0  0  0  0  0
   36.8890   29.2160   39.7940 N   0  0  0  0  0  0  0  0  0  0  0  0
   36.8730   28.2820   38.8260 C   0  0  0  0  0  0  0  0  0  0  0  0
   36.9620   28.5920   37.5520 N   0  0  0  0  0  0  0  0  0  0  0  0
   37.1470   30.1820   36.1560 H   0  0  0  0  0  0  0  0  0  0  0  0
   37.1860   31.9630   37.8810 H   0  0  0  0  0  0  0  0  0  0  0  0
   36.7500   26.8730   39.2420 C   0  0  0  0  0  0  0  0  0  0  0  0
   35.7970   26.4940   38.7890 H   0  0  0  0  0  0  0  0  0  0  0  0
   37.5820   26.2390   38.8760 H   0  0  0  0  0  0  0  0  0  0  0  0
   36.6450   26.8140   40.7480 C   0  0  0  0  0  0  0  0  0  0  0  0
   35.7170   26.2520   41.0480 H   0  0  0  0  0  0  0  0  0  0  0  0
   36.4820   27.8550   41.1240 H   0  0  0  0  0  0  0  0  0  0  0  0
   37.8050   26.2100   41.3590 C   0  0  0  0  0  0  0  0  0  0  0  0
   38.6830   25.3090   40.8250 C   0  0  0  0  0  0  0  0  0  0  0  0
   39.7530   24.7990   41.4880 C   0  0  0  0  0  0  0  0  0  0  0  0
   39.9680   25.2150   42.7860 C   0  0  0  0  0  0  0  0  0  0  0  0
   39.0920   26.1200   43.3360 C   0  0  0  0  0  0  0  0  0  0  0  0
   38.0140   26.6220   42.6370 C   0  0  0  0  0  0  0  0  0  0  0  0
   38.4770   25.0030   39.7920 H   0  0  0  0  0  0  0  0  0  0  0  0
   40.3810   24.0900   40.9650 H   0  0  0  0  0  0  0  0  0  0  0  0
   40.8400   24.7730   43.2700 H   0  0  0  0  0  0  0  0  0  0  0  0
   39.4050   26.3460   44.3680 H   0  0  0  0  0  0  0  0  0  0  0  0
   37.8040   28.8870   43.4710 C   0  0  0  0  0  0  0  0  0  0  0  0
   38.7260   29.5750   42.9040 O   0  0  0  0  0  0  0  0  0  0  0  0
   37.3150   27.5290   43.5050 N   0  0  0  0  0  0  0  0  0  0  0  0
   37.4680   29.7850   43.9850 H   0  0  0  0  0  0  0  0  0  0  0  0
   36.5190   27.4340   44.1690 H   0  0  0  0  0  0  0  0  0  0  0  0
   37.0240   31.6100   40.5040 C   0  0  0  0  0  0  0  0  0  0  0  0
   35.9910   31.7670   40.8650 H   0  0  0  0  0  0  0  0  0  0  0  0
   37.6150   31.2740   41.3690 H   0  0  0  0  0  0  0  0  0  0  0  0
   37.5730   32.9030   39.9150 C   0  0  0  0  0  0  0  0  0  0  0  0
   36.7620   33.6450   39.9310 H   0  0  0  0  0  0  0  0  0  0  0  0
   37.9200   32.7470   38.8780 H   0  0  0  0  0  0  0  0  0  0  0  0
   39.7990   32.3330   40.8520 C   0  0  1  0  0  3  0  0  0  0  0  0
   38.8030   33.3920   40.6690 C   0  0  1  0  0  3  0  0  0  0  0  0
   39.1700   34.5650   40.0730 O   0  0  0  0  0  0  0  0  0  0  0  0
   40.4910   34.9100   40.1910 C   0  0  0  0  0  2  0  0  0  0  0  0
   41.2680   33.8350   39.4520 C   0  0  1  0  0  3  0  0  0  0  0  0
   41.1910   32.6270   40.3810 C   0  0  2  0  0  3  0  0  0  0  0  0
   39.9060   31.9250   42.1980 O   0  0  0  0  0  0  0  0  0  0  0  0
   39.1530   32.3030   42.7250 H   0  0  0  0  0  0  0  0  0  0  0  0
   40.6900   33.5360   38.2160 O   0  0  0  0  0  0  0  0  0  0  0  0
   39.9930   34.1890   37.9680 H   0  0  0  0  0  0  0  0  0  0  0  0
   41.7630   31.5040   39.7570 O   0  0  0  0  0  0  0  0  0  0  0  0
   41.7310   31.6470   38.7590 H   0  0  0  0  0  0  0  0  0  0  0  0
  1  6  2  0  0  0  0
  1  2  1  0  0  0  0
  2  3  2  0  0  0  0
  3  4  1  0  0  0  0
  3 30  1  0  0  0  0
  5  9  1  0  0  0  0
  5  4  2  0  0  0  0
  6  5  1  0  0  0  0
  7  1  1  0  0  0  0
  8  2  1  0  0  0  0
  9 12  1  0  0  0  0
 10  9  1  0  0  0  0
 11  9  1  0  0  0  0
 12 13  1  0  0  0  0
 12 14  1  0  0  0  0
 12 15  1  0  0  0  0
 15 20  1  0  0  0  0
 16 15  2  0  0  0  0
 16 17  1  0  0  0  0
 17 18  2  0  0  0  0
 18 23  1  0  0  0  0
 18 19  1  0  0  0  0
 19 24  1  0  0  0  0
 20 19  2  0  0  0  0
 20 27  1  0  0  0  0
 21 16  1  0  0  0  0
 22 17  1  0  0  0  0
 25 27  1  0  0  0  0
 25 28  1  0  0  0  0
 26 25  2  0  0  0  0
 27 29  1  0  0  0  0
 30 31  1  0  0  0  0
 30 32  1  0  0  0  0
 33 34  1  0  0  0  0
 33 30  1  0  0  0  0
 35 33  1  0  0  0  0
 36 42  1  1  0  0  0
 37 33  1  6  0  0  0
 37 36  1  0  0  0  0
 38 39  1  0  0  0  0
 38 37  1  0  0  0  0
 40 44  1  6  0  0  0
 40 39  1  0  0  0  0
 40 41  1  0  0  0  0
 41 46  1  6  0  0  0
 41 36  1  0  0  0  0
 42 43  1  0  0  0  0
 45 44  1  0  0  0  0
 47 46  1  0  0  0  0
M  END
>  <minimizedAffinity>
-6.0314703

$$$$

 OpenBabel03242511483D

 47 49  0  0  1  0  0  0  0  0999 V2000
   39.6030   30.8060   42.3390 C   0  0  0  0  0  0  0  0  0  0  0  0
   38.7880   31.4320   41.3640 C   0  0  0  0  0  0  0  0  0  0  0  0
   37.5220   30.9110   41.1820 C   0  0  0  0  0  0  0  0  0  0  0  0
   37.1220   29.8540   41.9180 N   0  0  0  0  0  0  0  0  0  0  0  0
   37.9400   29.3000   42.8310 C   0  0  0  0  0  0  0  0  0  0  0  0
   39.1540   29.7520   43.0490 N   0  0  0  0  0  0  0  0  0  0  0  0
   40.5990   31.2050   42.4910 H   0  0  0  0  0  0  0  0  0  0  0  0
   39.1510   32.2840   40.7910 H   0  0  0  0  0  0  0  0  0  0  0  0
   37.4260   28.1480   43.5940 C   0  0  0  0  0  0  0  0  0  0  0  0
   37.2360   28.5210   44.6340 H   0  0  0  0  0  0  0  0  0  0  0  0
   36.4740   27.7500   43.1900 H   0  0  0  0  0  0  0  0  0  0  0  0
   38.4880   27.0740   43.6350 C   0  0  0  0  0  0  0  0  0  0  0  0
   38.5580   26.6400   44.6710 H   0  0  0  0  0  0  0  0  0  0  0  0
   39.4800   27.5630   43.4630 H   0  0  0  0  0  0  0  0  0  0  0  0
   38.2470   26.0220   42.6760 C   0  0  0  0  0  0  0  0  0  0  0  0
   37.0750   25.3850   42.3800 C   0  0  0  0  0  0  0  0  0  0  0  0
   36.9530   24.4010   41.4520 C   0  0  0  0  0  0  0  0  0  0  0  0
   38.0850   24.0180   40.7620 C   0  0  0  0  0  0  0  0  0  0  0  0
   39.2700   24.6510   41.0490 C   0  0  0  0  0  0  0  0  0  0  0  0
   39.3640   25.6480   41.9980 C   0  0  0  0  0  0  0  0  0  0  0  0
   36.1990   25.7160   42.9510 H   0  0  0  0  0  0  0  0  0  0  0  0
   35.9730   23.9660   41.3020 H   0  0  0  0  0  0  0  0  0  0  0  0
   37.9280   23.2250   40.0300 H   0  0  0  0  0  0  0  0  0  0  0  0
   40.0680   24.2320   40.4150 H   0  0  0  0  0  0  0  0  0  0  0  0
   41.0360   27.2050   41.1920 C   0  0  0  0  0  0  0  0  0  0  0  0
   40.4520   27.9670   40.3430 O   0  0  0  0  0  0  0  0  0  0  0  0
   40.7340   26.0800   42.0440 N   0  0  0  0  0  0  0  0  0  0  0  0
   41.9590   27.7600   41.0360 H   0  0  0  0  0  0  0  0  0  0  0  0
   41.5800   25.7630   42.5620 H   0  0  0  0  0  0  0  0  0  0  0  0
   36.6760   31.5750   40.1580 C   0  0  0  0  0  0  0  0  0  0  0  0
   36.1730   30.7890   39.5670 H   0  0  0  0  0  0  0  0  0  0  0  0
   35.8840   32.1450   40.6680 H   0  0  0  0  0  0  0  0  0  0  0  0
   37.5100   32.4640   39.2440 C   0  0  0  0  0  0  0  0  0  0  0  0
   38.4420   32.7020   39.7750 H   0  0  0  0  0  0  0  0  0  0  0  0
   36.9680   33.3940   39.0000 H   0  0  0  0  0  0  0  0  0  0  0  0
   39.1950   31.4930   37.7030 C   0  0  1  0  0  3  0  0  0  0  0  0
   37.7760   31.8020   37.8990 C   0  0  1  0  0  3  0  0  0  0  0  0
   36.8480   30.8080   37.7760 O   0  0  0  0  0  0  0  0  0  0  0  0
   37.1930   29.7630   36.9600 C   0  0  0  0  0  2  0  0  0  0  0  0
   38.3910   29.1010   37.6170 C   0  0  1  0  0  3  0  0  0  0  0  0
   39.5350   30.0760   37.3530 C   0  0  2  0  0  3  0  0  0  0  0  0
   39.7910   32.3070   36.7180 O   0  0  0  0  0  0  0  0  0  0  0  0
   39.1800   33.0540   36.4840 H   0  0  0  0  0  0  0  0  0  0  0  0
   38.2020   28.9350   38.9910 O   0  0  0  0  0  0  0  0  0  0  0  0
   37.2680   29.1120   39.2580 H   0  0  0  0  0  0  0  0  0  0  0  0
   40.6940   29.6500   38.0260 O   0  0  0  0  0  0  0  0  0  0  0  0
   40.4140   29.0630   38.7960 H   0  0  0  0  0  0  0  0  0  0  0  0
  1  7  1  0  0  0  0
  1  6  1  0  0  0  0
  2  1  2  0  0  0  0
  3  2  1  0  0  0  0
  3  4  2  0  0  0  0
  4  5  1  0  0  0  0
  5  6  2  0  0  0  0
  5  9  1  0  0  0  0
  8  2  1  0  0  0  0
  9 12  1  0  0  0  0
  9 10  1  0  0  0  0
 11  9  1  0  0  0  0
 12 13  1  0  0  0  0
 14 12  1  0  0  0  0
 15 12  1  0  0  0  0
 16 15  1  0  0  0  0
 16 21  1  0  0  0  0
 17 16  2  0  0  0  0
 18 19  2  0  0  0  0
 18 17  1  0  0  0  0
 19 20  1  0  0  0  0
 20 27  1  0  0  0  0
 20 15  2  0  0  0  0
 22 17  1  0  0  0  0
 23 18  1  0  0  0  0
 24 19  1  0  0  0  0
 25 27  1  0  0  0  0
 26 25  2  0  0  0  0
 27 29  1  0  0  0  0
 28 25  1  0  0  0  0
 30 32  1  0  0  0  0
 30  3  1  0  0  0  0
 31 30  1  0  0  0  0
 33 34  1  0  0  0  0
 33 30  1  0  0  0  0
 35 33  1  0  0  0  0
 36 42  1  6  0  0  0
 36 37  1  0  0  0  0
 37 33  1  1  0  0  0
 38 37  1  0  0  0  0
 39 40  1  0  0  0  0
 39 38  1  0  0  0  0
 40 44  1  1  0  0  0
 41 40  1  0  0  0  0
 41 36  1  0  0  0  0
 41 46  1  1  0  0  0
 43 42  1  0  0  0  0
 44 45  1  0  0  0  0
 46 47  1  0  0  0  0
M  END
>  <minimizedAffinity>
-6.02878523

$$$$
