
     RDKit          3D

 30 31  0  0  0  0  0  0  0  0999 V2000
   44.3869   35.7709   44.4362 C   0  0  0  0  0  0  0  0  0  0  0  0
   44.6696   35.0568   43.2578 C   0  0  0  0  0  0  0  0  0  0  0  0
   45.2929   33.8255   43.3936 C   0  0  0  0  0  0  0  0  0  0  0  0
   45.5902   33.3857   44.6330 N   0  0  0  0  0  0  0  0  0  0  0  0
   45.3074   34.0911   45.7392 C   0  0  0  0  0  0  0  0  0  0  0  0
   44.6944   35.3096   45.6662 N   0  0  0  0  0  0  0  0  0  0  0  0
   44.2576   35.7265   42.0109 C   0  0  0  0  0  0  0  0  0  0  0  0
   43.8983   36.7532   44.4668 H   0  0  0  0  0  0  0  0  0  0  0  0
   45.4913   33.3120   42.4632 H   0  0  0  0  0  0  0  0  0  0  0  0
   45.5700   33.6868   46.7080 H   0  0  0  0  0  0  0  0  0  0  0  0
   44.9845   35.3668   41.2299 H   0  0  0  0  0  0  0  0  0  0  0  0
   44.3288   36.8152   42.1129 H   0  0  0  0  0  0  0  0  0  0  0  0
   42.0778   36.2713   43.5949 O   0  0  0  0  0  0  0  0  0  0  0  0
   41.8628   36.3119   42.2020 C   0  0  1  0  0  0  0  0  0  0  0  0
   42.8441   35.3656   41.6062 C   0  0  2  0  0  0  0  0  0  0  0  0
   42.5612   34.0477   41.7203 O   0  0  0  0  0  0  0  0  0  0  0  0
   41.2842   33.6452   41.6290 C   0  0  0  0  0  0  0  0  0  0  0  0
   40.2135   34.4802   42.2193 C   0  0  2  0  0  0  0  0  0  0  0  0
   39.0025   34.1349   41.6161 O   0  0  0  0  0  0  0  0  0  0  0  0
   40.4311   35.9528   41.9512 C   0  0  1  0  0  0  0  0  0  0  0  0
   39.5483   36.6306   42.7716 O   0  0  0  0  0  0  0  0  0  0  0  0
   41.6564   37.0359   44.0444 H   0  0  0  0  0  0  0  0  0  0  0  0
   42.0475   37.3584   41.8853 H   0  0  0  0  0  0  0  0  0  0  0  0
   42.7964   35.5774   40.4944 H   0  0  0  0  0  0  0  0  0  0  0  0
   41.1596   32.6140   42.0536 H   0  0  0  0  0  0  0  0  0  0  0  0
   41.0283   33.5352   40.5341 H   0  0  0  0  0  0  0  0  0  0  0  0
   40.0794   34.2789   43.3026 H   0  0  0  0  0  0  0  0  0  0  0  0
   38.5674   33.3756   42.0500 H   0  0  0  0  0  0  0  0  0  0  0  0
   40.1830   36.1304   40.8801 H   0  0  0  0  0  0  0  0  0  0  0  0
   39.1191   36.0703   43.4357 H   0  0  0  0  0  0  0  0  0  0  0  0
  1  6  2  0
  2  3  2  0
  2  1  1  0
  3  4  1  0
  4  5  2  0
  6  5  1  0
  7  2  1  0
  1  8  1  0
  3  9  1  0
  5 10  1  0
  7 11  1  0
  7 12  1  0
 13 14  1  0
 14 15  1  0
 15 16  1  0
 16 17  1  0
 17 18  1  0
 18 19  1  0
 18 20  1  0
 20 21  1  0
 20 14  1  0
 13 22  1  0
 14 23  1  6
 15 24  1  6
 17 25  1  0
 17 26  1  0
 18 27  1  1
 19 28  1  0
 20 29  1  6
 21 30  1  0
  7 15  1  0
M  ISO  5   8  14   9  14  10  14  11   8  12   8
M  END
>  <DihAtoms>  (1) 
1,6,14,13

>  <DihDeg>  (1) 
-60.04773343459554

$$$$
