
     RDKit          3D

 30 31  0  0  0  0  0  0  0  0999 V2000
   44.3829   35.7790   44.4335 C   0  0  0  0  0  0  0  0  0  0  0  0
   44.6644   35.0699   43.2768 C   0  0  0  0  0  0  0  0  0  0  0  0
   45.2884   33.8346   43.3925 C   0  0  0  0  0  0  0  0  0  0  0  0
   45.5922   33.3804   44.6245 N   0  0  0  0  0  0  0  0  0  0  0  0
   45.3078   34.0908   45.7449 C   0  0  0  0  0  0  0  0  0  0  0  0
   44.6992   35.3001   45.6676 N   0  0  0  0  0  0  0  0  0  0  0  0
   44.2642   35.7112   41.9971 C   0  0  0  0  0  0  0  0  0  0  0  0
   43.8972   36.7463   44.3890 H   0  0  0  0  0  0  0  0  0  0  0  0
   45.4956   33.3043   42.4726 H   0  0  0  0  0  0  0  0  0  0  0  0
   43.2092   35.4279   41.8083 H   0  0  0  0  0  0  0  0  0  0  0  0
   44.9305   35.2707   41.2102 H   0  0  0  0  0  0  0  0  0  0  0  0
   44.4350   36.7831   42.0780 H   0  0  0  0  0  0  0  0  0  0  0  0
   44.2542   31.6494   47.3301 O   0  0  0  0  0  0  0  0  0  0  0  0
   44.4612   32.9561   47.8058 C   0  0  2  0  0  0  0  0  0  0  0  0
   45.6619   33.5459   47.0556 C   0  0  1  0  0  0  0  0  0  0  0  0
   46.5631   32.4772   46.9903 O   0  0  0  0  0  0  0  0  0  0  0  0
   47.1834   32.4206   48.2237 C   0  0  0  0  0  0  0  0  0  0  0  0
   46.2653   32.2478   49.3935 C   0  0  2  0  0  0  0  0  0  0  0  0
   46.0770   30.8864   49.6181 O   0  0  0  0  0  0  0  0  0  0  0  0
   44.9275   32.9009   49.2601 C   0  0  1  0  0  0  0  0  0  0  0  0
   45.0457   34.2280   49.6812 O   0  0  0  0  0  0  0  0  0  0  0  0
   43.3387   31.5591   46.9618 H   0  0  0  0  0  0  0  0  0  0  0  0
   43.5684   33.5758   47.7504 H   0  0  0  0  0  0  0  0  0  0  0  0
   46.1125   34.3264   47.7022 H   0  0  0  0  0  0  0  0  0  0  0  0
   47.9033   31.5631   48.2359 H   0  0  0  0  0  0  0  0  0  0  0  0
   47.8107   33.3423   48.2912 H   0  0  0  0  0  0  0  0  0  0  0  0
   46.7717   32.7204   50.2823 H   0  0  0  0  0  0  0  0  0  0  0  0
   46.9447   30.4844   49.8723 H   0  0  0  0  0  0  0  0  0  0  0  0
   44.1831   32.3473   49.8753 H   0  0  0  0  0  0  0  0  0  0  0  0
   45.9198   34.4190   50.0726 H   0  0  0  0  0  0  0  0  0  0  0  0
  1  6  2  0
  2  3  2  0
  2  1  1  0
  3  4  1  0
  4  5  2  0
  6  5  1  0
  7  2  1  0
  1  8  1  0
  3  9  1  0
  7 10  1  0
  7 11  1  0
  7 12  1  0
 13 14  1  0
 14 15  1  0
 15 16  1  0
 16 17  1  0
 17 18  1  0
 18 19  1  0
 18 20  1  0
 20 21  1  0
 20 14  1  0
 13 22  1  0
 14 23  1  1
 15 24  1  1
 17 25  1  0
 17 26  1  0
 18 27  1  1
 19 28  1  0
 20 29  1  1
 21 30  1  0
  5 15  1  0
M  ISO  5   8  14   9  14  10   8  11   8  12   8
M  END
>  <DihAtoms>  (1) 
3,4,14,13

>  <DihDeg>  (1) 
107.50952945895756

$$$$
