
 OpenBabel03252503133D

 37 40  0  0  1  0  0  0  0  0999 V2000
   45.9480   34.2610   40.8420 C   0  0  0  0  0  0  0  0  0  0  0  0
   44.5980   34.2410   40.5640 C   0  0  0  0  0  0  0  0  0  0  0  0
   44.4740   33.5440   39.4200 N   0  0  0  0  0  0  0  0  0  0  0  0
   45.7230   33.1490   39.0110 C   0  0  0  0  0  0  0  0  0  0  0  0
   46.6330   33.5950   39.8940 N   0  0  0  0  0  0  0  0  0  0  0  0
   43.8160   34.6980   41.1590 H   0  0  0  0  0  0  0  0  0  0  0  0
   43.6170   33.3190   38.9020 H   0  0  0  0  0  0  0  0  0  0  0  0
   46.5120   33.2130   36.6650 C   0  0  1  0  0  3  0  0  0  0  0  0
   46.1490   32.3620   37.8210 C   0  0  1  0  0  3  0  0  0  0  0  0
   47.0780   31.4340   38.2160 O   0  0  0  0  0  0  0  0  0  0  0  0
   48.3260   31.5260   37.6510 C   0  0  0  0  0  2  0  0  0  0  0  0
   48.8110   32.9500   37.6550 C   0  0  2  0  0  3  0  0  0  0  0  0
   47.9400   33.6910   36.6540 C   0  0  1  0  0  3  0  0  0  0  0  0
   46.1590   32.5820   35.4500 O   0  0  0  0  0  0  0  0  0  0  0  0
   45.5980   31.7880   35.5930 H   0  0  0  0  0  0  0  0  0  0  0  0
   50.1240   32.9260   37.1380 O   0  0  0  0  0  0  0  0  0  0  0  0
   50.2580   33.7060   36.5130 H   0  0  0  0  0  0  0  0  0  0  0  0
   48.4660   33.3910   35.3970 O   0  0  0  0  0  0  0  0  0  0  0  0
   48.5600   34.1580   34.8070 H   0  0  0  0  0  0  0  0  0  0  0  0
   46.6050   34.9190   42.0230 C   0  0  0  0  0  0  0  0  0  0  0  0
   47.7790   35.3920   41.9960 O   0  0  0  0  0  0  0  0  0  0  0  0
   45.2570   36.2330   43.5800 C   0  0  0  0  0  0  0  0  0  0  0  0
   45.9060   35.0370   43.2530 C   0  0  0  0  0  0  0  0  0  0  0  0
   45.8020   34.0230   44.2070 C   0  0  0  0  0  0  0  0  0  0  0  0
   45.1280   34.1910   45.3520 N   0  0  0  0  0  0  0  0  0  0  0  0
   44.5140   35.3780   45.6200 C   0  0  0  0  0  0  0  0  0  0  0  0
   44.5810   36.3850   44.7390 N   0  0  0  0  0  0  0  0  0  0  0  0
   45.2980   37.0680   42.8790 H   0  0  0  0  0  0  0  0  0  0  0  0
   43.9770   35.4800   46.5570 H   0  0  0  0  0  0  0  0  0  0  0  0
   46.4290   32.7930   43.9540 C   0  0  0  0  0  0  0  0  0  0  0  0
   47.7100   32.3320   44.0880 C   0  0  0  0  0  0  0  0  0  0  0  0
   48.0520   31.0880   43.7640 C   0  0  0  0  0  0  0  0  0  0  0  0
   47.0690   30.2730   43.2870 C   0  0  0  0  0  0  0  0  0  0  0  0
   45.5840   31.3750   43.3140 S   0  0  0  0  0  0  0  0  0  0  0  0
   48.4350   33.0720   44.4840 H   0  0  0  0  0  0  0  0  0  0  0  0
   49.0410   30.6550   43.8420 H   0  0  0  0  0  0  0  0  0  0  0  0
   47.0580   29.2490   42.9570 H   0  0  0  0  0  0  0  0  0  0  0  0
  1 20  1  0  0  0  0
  2  1  2  0  0  0  0
  2  6  1  0  0  0  0
  3  2  1  0  0  0  0
  4  3  1  0  0  0  0
  4  5  2  0  0  0  0
  5  1  1  0  0  0  0
  7  3  1  0  0  0  0
  8 14  1  6  0  0  0
  8  9  1  0  0  0  0
  9 10  1  0  0  0  0
  9  4  1  1  0  0  0
 11 12  1  0  0  0  0
 11 10  1  0  0  0  0
 12 16  1  6  0  0  0
 13 18  1  6  0  0  0
 13  8  1  0  0  0  0
 13 12  1  0  0  0  0
 14 15  1  0  0  0  0
 17 16  1  0  0  0  0
 19 18  1  0  0  0  0
 20 23  1  0  0  0  0
 21 20  2  0  0  0  0
 22 27  1  0  0  0  0
 23 22  2  0  0  0  0
 23 24  1  0  0  0  0
 24 25  2  0  0  0  0
 25 26  1  0  0  0  0
 26 29  1  0  0  0  0
 27 26  2  0  0  0  0
 28 22  1  0  0  0  0
 30 31  2  0  0  0  0
 30 24  1  0  0  0  0
 31 35  1  0  0  0  0
 32 36  1  0  0  0  0
 32 31  1  0  0  0  0
 33 34  1  0  0  0  0
 33 32  2  0  0  0  0
 34 30  1  0  0  0  0
 37 33  1  0  0  0  0
M  END
>  <minimizedAffinity>
-5.95620871

>  <minimizedRMSD>
0.4654724

$$$$
