
     RDKit          3D

 42 44  0  0  0  0  0  0  0  0999 V2000
   46.5935   34.8090   42.1007 C   0  0  0  0  0  0  0  0  0  0  0  0
   47.9206   35.2166   42.0407 C   0  0  0  0  0  0  0  0  0  0  0  0
   48.7143   35.0310   40.9047 C   0  0  0  0  0  0  0  0  0  0  0  0
   48.1794   34.4266   39.8009 C   0  0  0  0  0  0  0  0  0  0  0  0
   46.8647   34.0213   39.8560 C   0  0  0  0  0  0  0  0  0  0  0  0
   46.0738   34.2046   40.9844 C   0  0  0  0  0  0  0  0  0  0  0  0
   44.4207   36.2190   44.7906 C   0  0  0  0  0  0  0  0  0  0  0  0
   45.0767   36.1320   43.5359 C   0  0  0  0  0  0  0  0  0  0  0  0
   45.8828   35.0351   43.3200 C   0  0  0  0  0  0  0  0  0  0  0  0
   46.0059   34.1087   44.3113 N   0  0  0  0  0  0  0  0  0  0  0  0
   45.3604   34.2354   45.4963 C   0  0  0  0  0  0  0  0  0  0  0  0
   44.5723   35.2848   45.7312 N   0  0  0  0  0  0  0  0  0  0  0  0
   45.5260   33.2655   46.5274 N   0  0  0  0  0  0  0  0  0  0  0  0
   44.6732   33.7561   41.0249 C   0  0  0  0  0  0  0  0  0  0  0  0
   44.4638   32.9035   39.9429 F   0  0  0  0  0  0  0  0  0  0  0  0
   43.8313   34.8472   40.9379 F   0  0  0  0  0  0  0  0  0  0  0  0
   44.3324   33.0956   42.1771 F   0  0  0  0  0  0  0  0  0  0  0  0
   48.3722   35.6977   42.8974 H   0  0  0  0  0  0  0  0  0  0  0  0
   49.7414   35.3790   40.9419 H   0  0  0  0  0  0  0  0  0  0  0  0
   48.7847   34.2785   38.9175 H   0  0  0  0  0  0  0  0  0  0  0  0
   46.4068   33.5361   38.9931 H   0  0  0  0  0  0  0  0  0  0  0  0
   43.7697   37.0499   45.0333 H   0  0  0  0  0  0  0  0  0  0  0  0
   44.7801   32.9348   47.1743 H   0  0  0  0  0  0  0  0  0  0  0  0
   46.4805   32.8239   46.6733 H   0  0  0  0  0  0  0  0  0  0  0  0
   46.8771   37.0800   41.3557 O   0  0  0  0  0  0  0  0  0  0  0  0
   46.2223   37.8643   42.2738 C   0  0  2  0  0  0  0  0  0  0  0  0
   44.8667   37.2664   42.5995 C   0  0  2  0  0  0  0  0  0  0  0  0
   44.0028   38.1378   43.2156 O   0  0  0  0  0  0  0  0  0  0  0  0
   43.9273   39.3970   42.6780 C   0  0  0  0  0  0  0  0  0  0  0  0
   45.3038   40.0397   42.9045 C   0  0  2  0  0  0  0  0  0  0  0  0
   45.2730   41.4072   42.6867 O   0  0  0  0  0  0  0  0  0  0  0  0
   46.2168   39.3106   41.9444 C   0  0  1  0  0  0  0  0  0  0  0  0
   47.5305   39.7818   42.1168 O   0  0  0  0  0  0  0  0  0  0  0  0
   47.6308   36.5416   41.7323 H   0  0  0  0  0  0  0  0  0  0  0  0
   46.8173   37.7651   43.2296 H   0  0  0  0  0  0  0  0  0  0  0  0
   44.4462   36.9071   41.6372 H   0  0  0  0  0  0  0  0  0  0  0  0
   43.1761   39.9690   43.2182 H   0  0  0  0  0  0  0  0  0  0  0  0
   43.8023   39.3997   41.5721 H   0  0  0  0  0  0  0  0  0  0  0  0
   45.6543   39.8216   43.9465 H   0  0  0  0  0  0  0  0  0  0  0  0
   44.4206   41.7277   43.1235 H   0  0  0  0  0  0  0  0  0  0  0  0
   45.8447   39.5390   40.9200 H   0  0  0  0  0  0  0  0  0  0  0  0
   48.0189   39.2211   42.7763 H   0  0  0  0  0  0  0  0  0  0  0  0
  1  9  1  0
  2  1  2  0
  3  2  1  0
  4  5  1  0
  4  3  2  0
  5  6  2  0
  6 14  1  0
  6  1  1  0
  7 12  2  0
  8  7  1  0
  9  8  2  0
  9 10  1  0
 10 11  2  0
 11 12  1  0
 11 13  1  0
 14 17  1  0
 15 14  1  0
 16 14  1  0
  2 18  1  0
  3 19  1  0
  4 20  1  0
  5 21  1  0
  7 22  1  0
 13 23  1  0
 13 24  1  0
 25 26  1  0
 26 27  1  0
 27 28  1  0
 28 29  1  0
 29 30  1  0
 30 31  1  0
 30 32  1  0
 32 33  1  0
 32 26  1  0
 25 34  1  0
 26 35  1  1
 27 36  1  6
 29 37  1  0
 29 38  1  0
 30 39  1  1
 31 40  1  0
 32 41  1  6
 33 42  1  0
  8 27  1  0
M  ISO  5  18  14  19  14  20  14  21  14  22  14
M  END
>  <DihAtoms>  (1) 
6,7,26,25

>  <DihDeg>  (1) 
76.20087285634004

$$$$
