
     RDKit          3D

 30 31  0  0  0  0  0  0  0  0999 V2000
   44.3829   35.7790   44.4335 C   0  0  0  0  0  0  0  0  0  0  0  0
   44.6644   35.0699   43.2768 C   0  0  0  0  0  0  0  0  0  0  0  0
   45.2884   33.8346   43.3925 C   0  0  0  0  0  0  0  0  0  0  0  0
   45.5922   33.3804   44.6245 N   0  0  0  0  0  0  0  0  0  0  0  0
   45.3078   34.0908   45.7449 C   0  0  0  0  0  0  0  0  0  0  0  0
   44.6992   35.3001   45.6676 N   0  0  0  0  0  0  0  0  0  0  0  0
   44.2642   35.7112   41.9971 C   0  0  0  0  0  0  0  0  0  0  0  0
   43.8972   36.7463   44.3890 H   0  0  0  0  0  0  0  0  0  0  0  0
   45.4956   33.3043   42.4726 H   0  0  0  0  0  0  0  0  0  0  0  0
   43.2092   35.4279   41.8083 H   0  0  0  0  0  0  0  0  0  0  0  0
   44.9305   35.2707   41.2102 H   0  0  0  0  0  0  0  0  0  0  0  0
   44.4350   36.7831   42.0780 H   0  0  0  0  0  0  0  0  0  0  0  0
   43.8939   32.0499   47.5940 O   0  0  0  0  0  0  0  0  0  0  0  0
   44.4426   33.2940   47.9513 C   0  0  2  0  0  0  0  0  0  0  0  0
   45.6619   33.5459   47.0556 C   0  0  1  0  0  0  0  0  0  0  0  0
   46.2829   32.2935   46.9897 O   0  0  0  0  0  0  0  0  0  0  0  0
   46.9984   32.1560   48.1637 C   0  0  0  0  0  0  0  0  0  0  0  0
   46.1916   32.2640   49.4202 C   0  0  2  0  0  0  0  0  0  0  0  0
   45.7211   30.9983   49.7608 O   0  0  0  0  0  0  0  0  0  0  0  0
   45.0323   33.2054   49.3584 C   0  0  1  0  0  0  0  0  0  0  0  0
   45.4940   34.4874   49.6679 O   0  0  0  0  0  0  0  0  0  0  0  0
   42.9489   32.1585   47.3163 H   0  0  0  0  0  0  0  0  0  0  0  0
   43.7145   34.1025   47.9298 H   0  0  0  0  0  0  0  0  0  0  0  0
   46.3437   34.2308   47.5999 H   0  0  0  0  0  0  0  0  0  0  0  0
   47.5002   31.1552   48.1752 H   0  0  0  0  0  0  0  0  0  0  0  0
   47.8234   32.9067   48.1067 H   0  0  0  0  0  0  0  0  0  0  0  0
   46.8822   32.6493   50.2229 H   0  0  0  0  0  0  0  0  0  0  0  0
   46.4954   30.4172   49.9658 H   0  0  0  0  0  0  0  0  0  0  0  0
   44.2489   32.8745   50.0767 H   0  0  0  0  0  0  0  0  0  0  0  0
   46.4245   34.4875   49.9648 H   0  0  0  0  0  0  0  0  0  0  0  0
  1  6  2  0
  2  3  2  0
  2  1  1  0
  3  4  1  0
  4  5  2  0
  6  5  1  0
  7  2  1  0
  1  8  1  0
  3  9  1  0
  7 10  1  0
  7 11  1  0
  7 12  1  0
 13 14  1  0
 14 15  1  0
 15 16  1  0
 16 17  1  0
 17 18  1  0
 18 19  1  0
 18 20  1  0
 20 21  1  0
 20 14  1  0
 13 22  1  0
 14 23  1  1
 15 24  1  1
 17 25  1  0
 17 26  1  0
 18 27  1  1
 19 28  1  0
 20 29  1  1
 21 30  1  0
  5 15  1  0
M  ISO  5   8  14   9  14  10   8  11   8  12   8
M  END
>  <DihAtoms>  (1) 
3,4,14,13

>  <DihDeg>  (1) 
107.50952945895756

$$$$
