
 OpenBabel03252504333D

 43 45  0  0  1  0  0  0  0  0999 V2000
   40.9600   35.1420   41.5750 C   0  0  0  0  0  0  0  0  0  0  0  0
   41.1800   34.8460   42.6380 H   0  0  0  0  0  0  0  0  0  0  0  0
   40.2690   36.0090   41.6570 H   0  0  0  0  0  0  0  0  0  0  0  0
   40.6390   32.7320   41.4790 C   0  0  0  0  0  0  0  0  0  0  0  0
   40.1670   33.9860   41.0520 C   0  0  0  0  0  0  0  0  0  0  0  0
   39.0760   34.0280   40.2540 C   0  0  0  0  0  0  0  0  0  0  0  0
   38.5310   32.8670   39.9320 N   0  0  0  0  0  0  0  0  0  0  0  0
   38.9480   31.6720   40.3150 C   0  0  0  0  0  0  0  0  0  0  0  0
   40.0700   31.5620   41.1400 N   0  0  0  0  0  0  0  0  0  0  0  0
   41.5040   32.6060   42.1180 H   0  0  0  0  0  0  0  0  0  0  0  0
   38.7480   35.0100   39.9500 H   0  0  0  0  0  0  0  0  0  0  0  0
   37.1950   30.0440   40.8320 C   0  0  1  0  0  3  0  0  0  0  0  0
   38.2920   30.3910   39.9210 C   0  0  2  0  0  3  0  0  0  0  0  0
   39.2890   29.4760   39.7330 O   0  0  0  0  0  0  0  0  0  0  0  0
   39.0410   28.1930   40.1220 C   0  0  0  0  0  2  0  0  0  0  0  0
   38.8100   28.2990   41.6360 C   0  0  1  0  0  3  0  0  0  0  0  0
   37.4120   28.8650   41.7350 C   0  0  1  0  0  3  0  0  0  0  0  0
   36.7940   31.1120   41.6670 O   0  0  0  0  0  0  0  0  0  0  0  0
   37.1260   31.0070   42.5770 H   0  0  0  0  0  0  0  0  0  0  0  0
   38.8760   27.0260   42.1490 O   0  0  0  0  0  0  0  0  0  0  0  0
   39.5580   26.5000   41.6400 H   0  0  0  0  0  0  0  0  0  0  0  0
   37.1880   29.1510   43.0840 O   0  0  0  0  0  0  0  0  0  0  0  0
   36.4840   28.5840   43.4860 H   0  0  0  0  0  0  0  0  0  0  0  0
   42.0160   35.4820   40.7920 O   0  0  0  0  0  0  0  0  0  0  0  0
   43.3660   35.4730   41.1190 C   0  0  0  0  0  3  0  0  0  0  0  0
   43.6530   35.4850   42.4170 C   0  0  0  0  0  3  0  0  0  0  0  0
   45.0470   35.4750   43.0150 C   0  0  0  0  0  0  0  0  0  0  0  0
   45.7370   34.9800   42.3030 H   0  0  0  0  0  0  0  0  0  0  0  0
   45.4060   36.4980   43.2280 H   0  0  0  0  0  0  0  0  0  0  0  0
   44.9880   34.7300   44.1770 O   0  0  0  0  0  0  0  0  0  0  0  0
   45.7260   32.5620   42.8210 O   0  0  0  0  0  0  0  0  0  0  0  0
   45.9780   33.3690   44.0750 P   0  0  1  0  0  0  0  0  0  0  0  0
   47.6170   33.8380   44.0400 O   0  0  0  0  0  0  0  0  0  0  0  0
   47.6460   34.6420   44.6500 H   0  0  0  0  0  0  0  0  0  0  0  0
   45.7740   32.3990   45.4390 O   0  0  0  0  0  0  0  0  0  0  0  0
   46.1110   33.0540   46.6070 C   0  0  0  0  0  0  0  0  0  0  0  0
   47.0390   32.3810   47.5720 C   0  0  0  0  0  0  0  0  0  0  0  0
   45.5500   32.4580   47.8740 C   0  0  0  0  0  0  0  0  0  0  0  0
   46.1210   34.1580   46.5430 H   0  0  0  0  0  0  0  0  0  0  0  0
   47.4530   31.4120   47.2190 H   0  0  0  0  0  0  0  0  0  0  0  0
   47.6720   33.0650   48.1700 H   0  0  0  0  0  0  0  0  0  0  0  0
   45.2040   33.1270   48.6870 H   0  0  0  0  0  0  0  0  0  0  0  0
   45.0420   31.4730   47.8270 H   0  0  0  0  0  0  0  0  0  0  0  0
  1  3  1  0  0  0  0
  1  2  1  0  0  0  0
  4 10  1  0  0  0  0
  5  4  2  0  0  0  0
  5  1  1  0  0  0  0
  6  5  1  0  0  0  0
  7  6  2  0  0  0  0
  7  8  1  0  0  0  0
  8  9  2  0  0  0  0
  9  4  1  0  0  0  0
 11  6  1  0  0  0  0
 12 18  1  1  0  0  0
 12 17  1  0  0  0  0
 13  8  1  1  0  0  0
 13 12  1  0  0  0  0
 14 13  1  0  0  0  0
 14 15  1  0  0  0  0
 15 16  1  0  0  0  0
 16 17  1  0  0  0  0
 16 20  1  1  0  0  0
 17 22  1  1  0  0  0
 18 19  1  0  0  0  0
 21 20  1  0  0  0  0
 22 23  1  0  0  0  0
 24 25  1  0  0  0  0
 24  1  1  0  0  0  0
 25 26  2  0  0  0  0
 26 27  1  0  0  0  0
 27 29  1  0  0  0  0
 27 30  1  0  0  0  0
 28 27  1  0  0  0  0
 32 31  2  6  0  0  0
 32 30  1  0  0  0  0
 32 35  1  0  0  0  0
 33 32  1  0  0  0  0
 33 34  1  0  0  0  0
 35 36  1  0  0  0  0
 36 37  1  0  0  0  0
 36 38  1  0  0  0  0
 37 38  1  0  0  0  0
 37 41  1  0  0  0  0
 38 42  1  0  0  0  0
 39 36  1  0  0  0  0
 40 37  1  0  0  0  0
 43 38  1  0  0  0  0
M  END
>  <minimizedAffinity>
-5.87290812

>  <minimizedRMSD>
1.93262529

$$$$
