
 OpenBabel03252505343D

 33 35  0  0  1  0  0  0  0  0999 V2000
   46.6020   34.7630   42.1290 C   0  0  0  0  0  0  0  0  0  0  0  0
   47.8420   35.3720   41.9940 C   0  0  0  0  0  0  0  0  0  0  0  0
   48.6190   35.2250   40.8330 C   0  0  0  0  0  0  0  0  0  0  0  0
   48.1380   34.4460   39.7830 C   0  0  0  0  0  0  0  0  0  0  0  0
   46.9000   33.8550   39.9530 C   0  0  0  0  0  0  0  0  0  0  0  0
   46.1460   34.0010   41.0880 C   0  0  0  0  0  0  0  0  0  0  0  0
   48.2800   35.9900   42.7660 H   0  0  0  0  0  0  0  0  0  0  0  0
   49.5840   35.6980   40.7240 H   0  0  0  0  0  0  0  0  0  0  0  0
   48.7540   34.3470   38.8960 H   0  0  0  0  0  0  0  0  0  0  0  0
   46.5930   33.2670   39.0980 H   0  0  0  0  0  0  0  0  0  0  0  0
   44.4400   36.1790   44.8570 C   0  0  0  0  0  0  0  0  0  0  0  0
   45.0820   36.0790   43.6060 C   0  0  0  0  0  0  0  0  0  0  0  0
   45.8960   34.9790   43.3550 C   0  0  0  0  0  0  0  0  0  0  0  0
   46.0330   34.0460   44.3420 N   0  0  0  0  0  0  0  0  0  0  0  0
   45.3940   34.1790   45.5350 C   0  0  0  0  0  0  0  0  0  0  0  0
   44.6050   35.2350   45.7920 N   0  0  0  0  0  0  0  0  0  0  0  0
   45.5480   33.2090   46.5570 N   0  0  0  0  0  0  0  0  0  0  0  0
   43.8270   37.0320   45.0120 H   0  0  0  0  0  0  0  0  0  0  0  0
   44.9960   36.7930   42.8170 H   0  0  0  0  0  0  0  0  0  0  0  0
   44.8680   32.5130   46.9680 H   0  0  0  0  0  0  0  0  0  0  0  0
   46.5320   33.2730   46.8970 H   0  0  0  0  0  0  0  0  0  0  0  0
   43.7390   34.3560   41.2750 C   0  0  2  0  0  0  0  0  0  0  0  0
   44.8240   33.3350   41.1970 C   0  0  1  0  0  0  0  0  0  0  0  0
   44.6220   32.3630   40.2530 O   0  0  0  0  0  0  0  0  0  0  0  0
   43.6270   32.6010   39.3550 C   0  0  0  0  0  0  0  0  0  0  0  0
   42.2990   32.9980   39.9080 C   0  0  2  0  0  0  0  0  0  0  0  0
   42.4140   33.5850   41.3110 C   0  0  2  0  0  0  0  0  0  0  0  0
   43.6800   35.1430   40.1130 O   0  0  0  0  0  0  0  0  0  0  0  0
   44.4570   35.7760   40.1910 H   0  0  0  0  0  0  0  0  0  0  0  0
   41.3230   32.0040   39.8380 O   0  0  0  0  0  0  0  0  0  0  0  0
   40.6720   32.1600   40.5630 H   0  0  0  0  0  0  0  0  0  0  0  0
   41.3400   34.4410   41.5510 O   0  0  0  0  0  0  0  0  0  0  0  0
   41.5780   35.1730   42.1800 H   0  0  0  0  0  0  0  0  0  0  0  0
  1 13  1  0  0  0  0
  2  1  1  0  0  0  0
  2  7  1  0  0  0  0
  3  2  2  0  0  0  0
  4  5  2  0  0  0  0
  4  3  1  0  0  0  0
  5  6  1  0  0  0  0
  6  1  2  0  0  0  0
  8  3  1  0  0  0  0
  9  4  1  0  0  0  0
 10  5  1  0  0  0  0
 11 18  1  0  0  0  0
 11 16  1  0  0  0  0
 12 11  2  0  0  0  0
 13 12  1  0  0  0  0
 13 14  2  0  0  0  0
 14 15  1  0  0  0  0
 15 16  2  0  0  0  0
 15 17  1  0  0  0  0
 17 21  1  0  0  0  0
 17 20  1  0  0  0  0
 19 12  1  0  0  0  0
 22 28  1  6  0  0  0
 22 27  1  0  0  0  0
 23  6  1  6  0  0  0
 23 22  1  0  0  0  0
 24 23  1  0  0  0  0
 25 26  1  0  0  0  0
 25 24  1  0  0  0  0
 26 30  1  1  0  0  0
 26 27  1  0  0  0  0
 27 32  1  6  0  0  0
 28 29  1  0  0  0  0
 30 31  1  0  0  0  0
 32 33  1  0  0  0  0
M  END
>  <minimizedAffinity>
-7.00934601

>  <minimizedRMSD>
0.618784249

$$$$
