
 OpenBabel03242515233D

 24 25  0  0  1  0  0  0  0  0999 V2000
   44.4290   35.7430   42.3060 C   0  0  0  0  0  0  0  0  0  0  0  0
   45.3530   36.0090   41.7220 H   0  0  0  0  0  0  0  0  0  0  0  0
   43.8940   36.6540   42.5940 H   0  0  0  0  0  0  0  0  0  0  0  0
   44.3930   35.4790   44.7200 C   0  0  0  0  0  0  0  0  0  0  0  0
   44.9190   35.0260   43.4970 C   0  0  0  0  0  0  0  0  0  0  0  0
   45.8230   33.9740   43.5430 C   0  0  0  0  0  0  0  0  0  0  0  0
   46.1440   33.4520   44.7430 N   0  0  0  0  0  0  0  0  0  0  0  0
   45.6250   33.9070   45.8940 C   0  0  0  0  0  0  0  0  0  0  0  0
   44.7300   34.9390   45.9100 N   0  0  0  0  0  0  0  0  0  0  0  0
   43.6710   36.2990   44.8220 H   0  0  0  0  0  0  0  0  0  0  0  0
   46.2010   33.6590   42.5800 H   0  0  0  0  0  0  0  0  0  0  0  0
   45.9210   33.4470   46.8280 H   0  0  0  0  0  0  0  0  0  0  0  0
   42.1930   35.5470   41.2690 C   0  0  1  0  0  3  0  0  0  0  0  0
   43.5120   34.8870   41.4580 C   0  0  2  0  0  3  0  0  0  0  0  0
   43.4910   33.5830   41.8180 O   0  0  0  0  0  0  0  0  0  0  0  0
   42.5430   32.7810   41.3090 C   0  0  0  0  0  2  0  0  0  0  0  0
   41.1750   33.3080   41.1100 C   0  0  1  0  0  3  0  0  0  0  0  0
   41.1840   34.7110   40.5440 C   0  0  1  0  0  3  0  0  0  0  0  0
   41.6930   35.7960   42.5640 O   0  0  0  0  0  0  0  0  0  0  0  0
   40.9550   36.4450   42.5430 H   0  0  0  0  0  0  0  0  0  0  0  0
   40.5230   32.5010   40.1740 O   0  0  0  0  0  0  0  0  0  0  0  0
   40.0990   31.7200   40.5800 H   0  0  0  0  0  0  0  0  0  0  0  0
   39.8910   35.1880   40.6680 O   0  0  0  0  0  0  0  0  0  0  0  0
   39.3170   34.6300   41.2150 H   0  0  0  0  0  0  0  0  0  0  0  0
  1  3  1  0  0  0  0
  1  5  1  0  0  0  0
  2  1  1  0  0  0  0
  4 10  1  0  0  0  0
  4  9  1  0  0  0  0
  5  6  1  0  0  0  0
  5  4  2  0  0  0  0
  6  7  2  0  0  0  0
  7  8  1  0  0  0  0
  8  9  2  0  0  0  0
  8 12  1  0  0  0  0
 11  6  1  0  0  0  0
 13 14  1  0  0  0  0
 13 19  1  1  0  0  0
 14 15  1  0  0  0  0
 14  1  1  1  0  0  0
 16 15  1  0  0  0  0
 17 21  1  6  0  0  0
 17 16  1  0  0  0  0
 18 23  1  1  0  0  0
 18 17  1  0  0  0  0
 18 13  1  0  0  0  0
 20 19  1  0  0  0  0
 21 22  1  0  0  0  0
 23 24  1  0  0  0  0
M  END
>  <minimizedAffinity>
-4.93842506

>  <minimizedRMSD>
1.36799192

$$$$
