REMARK  Name = 
REMARK  8 active torsions:
REMARK  status: ('A' for Active; 'I' for Inactive)
REMARK    1  A    between atoms: C_3  and  O_7
REMARK    2  A    between atoms: C_5  and  C_18
REMARK    3  A    between atoms: O_7  and  P_9
REMARK    4  A    between atoms: P_9  and  O_10
REMARK    5  A    between atoms: P_9  and  O_11
REMARK    6  A    between atoms: O_16  and  C_17
REMARK    7  A    between atoms: C_21  and  O_22
REMARK    8  A    between atoms: C_23  and  O_24
REMARK                            x       y       z     vdW  Elec       q    Type
REMARK                         _______ _______ _______ _____ _____    ______ ____
ROOT
ATOM      1  C   UNL     1      44.582  35.996  44.513  0.00  0.00    +0.000 A 
ATOM      2  C   UNL     1      45.222  35.996  43.258  0.00  0.00    +0.000 A 
ATOM      3  C   UNL     1      46.094  34.952  42.973  0.00  0.00    +0.000 A 
ATOM      4  N   UNL     1      46.298  33.973  43.911  0.00  0.00    +0.000 NA
ATOM      5  C   UNL     1      45.671  34.008  45.093  0.00  0.00    +0.000 A 
ATOM      6  N   UNL     1      44.814  35.010  45.406  0.00  0.00    +0.000 NA
ATOM      7  H   UNL     1      43.913  36.817  44.703  0.00  0.00    +0.000 HD
ATOM      8  H   UNL     1      45.050  36.766  42.543  0.00  0.00    +0.000 HD
ENDROOT
BRANCH   5  10
ATOM      9  C   UNL     1      46.881  31.951  45.490  0.00  0.00    +0.000 C 
ATOM     10  C   UNL     1      45.907  32.941  46.089  0.00  0.00    +0.000 C 
ATOM     11  O   UNL     1      46.425  33.401  47.285  0.00  0.00    +0.000 OA
ATOM     12  C   UNL     1      46.423  32.327  48.174  0.00  0.00    +0.000 C 
ATOM     13  C   UNL     1      47.432  31.279  47.752  0.00  0.00    +0.000 C 
ATOM     14  C   UNL     1      47.001  30.746  46.398  0.00  0.00    +0.000 C 
BRANCH   9  15
ATOM     15  O   UNL     1      46.492  31.571  44.200  0.00  0.00    +0.000 OA
ATOM     16  H   UNL     1      45.510  31.466  44.144  0.00  0.00    +0.000 HD
ENDBRANCH   9  15
BRANCH  13  17
ATOM     17  O   UNL     1      47.467  30.274  48.694  0.00  0.00    +0.000 OA
ATOM     18  H   UNL     1      46.577  29.913  48.861  0.00  0.00    +0.000 HD
ENDBRANCH  13  17
BRANCH  14  19
ATOM     19  O   UNL     1      45.813  30.071  46.557  0.00  0.00    +0.000 OA
ATOM     20  H   UNL     1      45.060  30.386  46.024  0.00  0.00    +0.000 HD
ENDBRANCH  14  19
ENDBRANCH   5  10
BRANCH   3  21
ATOM     21  O   UNL     1      46.715  34.977  41.721  0.00  0.00    +0.000 OA
BRANCH  21  23
ATOM     22  O   UNL     1      48.654  33.333  40.968  0.00  0.00    +0.000 OA
ATOM     23  P   UNL     1      48.407  34.674  41.632  0.00  0.00    +0.000 P 
BRANCH  23  24
ATOM     24  O   UNL     1      49.122  35.934  40.787  0.00  0.00    +0.000 OA
ATOM     25  H   UNL     1      49.196  36.703  41.406  0.00  0.00    +0.000 HD
ENDBRANCH  23  24
BRANCH  23  26
ATOM     26  O   UNL     1      48.997  34.588  43.219  0.00  0.00    +0.000 OA
ATOM     27  H   UNL     1      49.471  35.440  43.463  0.00  0.00    +0.000 HD
ENDBRANCH  23  26
ENDBRANCH  21  23
ENDBRANCH   3  21
TORSDOF 8
