
     RDKit          3D

 30 31  0  0  0  0  0  0  0  0999 V2000
   45.4392   35.0671   43.9943 C   0  0  0  0  0  0  0  0  0  0  0  0
   46.4958   34.3015   43.5022 C   0  0  0  0  0  0  0  0  0  0  0  0
   47.0207   33.2873   44.3325 C   0  0  0  0  0  0  0  0  0  0  0  0
   46.4558   33.1226   45.5690 N   0  0  0  0  0  0  0  0  0  0  0  0
   45.4313   33.8937   45.9974 C   0  0  0  0  0  0  0  0  0  0  0  0
   44.9235   34.8617   45.2163 N   0  0  0  0  0  0  0  0  0  0  0  0
   44.8988   36.1390   43.0923 C   0  0  0  0  0  0  0  0  0  0  0  0
   46.9345   34.4460   42.5139 H   0  0  0  0  0  0  0  0  0  0  0  0
   45.0252   33.7109   46.9953 H   0  0  0  0  0  0  0  0  0  0  0  0
   43.9148   35.7497   42.7139 H   0  0  0  0  0  0  0  0  0  0  0  0
   45.6013   36.3825   42.2993 H   0  0  0  0  0  0  0  0  0  0  0  0
   44.6205   37.0265   43.7146 H   0  0  0  0  0  0  0  0  0  0  0  0
   46.9184   30.5060   44.5114 O   0  0  0  0  0  0  0  0  0  0  0  0
   47.5586   31.1108   43.4470 C   0  0  1  0  0  0  0  0  0  0  0  0
   48.1455   32.4257   43.8878 C   0  0  1  0  0  0  0  0  0  0  0  0
   48.7263   33.0138   42.7862 O   0  0  0  0  0  0  0  0  0  0  0  0
   49.7808   32.3330   42.2427 C   0  0  0  0  0  0  0  0  0  0  0  0
   49.5737   30.8904   41.9643 C   0  0  1  0  0  0  0  0  0  0  0  0
   50.8045   30.2519   42.1261 O   0  0  0  0  0  0  0  0  0  0  0  0
   48.6022   30.1951   42.8664 C   0  0  2  0  0  0  0  0  0  0  0  0
   47.9342   29.2058   42.1452 O   0  0  0  0  0  0  0  0  0  0  0  0
   46.8212   29.5394   44.3854 H   0  0  0  0  0  0  0  0  0  0  0  0
   46.8126   31.3238   42.6530 H   0  0  0  0  0  0  0  0  0  0  0  0
   48.8381   32.2891   44.7478 H   0  0  0  0  0  0  0  0  0  0  0  0
   49.9909   32.8219   41.2464 H   0  0  0  0  0  0  0  0  0  0  0  0
   50.7085   32.5466   42.8421 H   0  0  0  0  0  0  0  0  0  0  0  0
   49.2823   30.7077   40.8899 H   0  0  0  0  0  0  0  0  0  0  0  0
   50.6849   29.2671   42.1554 H   0  0  0  0  0  0  0  0  0  0  0  0
   49.0941   29.6764   43.7170 H   0  0  0  0  0  0  0  0  0  0  0  0
   47.0116   29.0606   42.4111 H   0  0  0  0  0  0  0  0  0  0  0  0
  1  6  2  0
  2  1  1  0
  2  3  2  0
  3  4  1  0
  4  5  2  0
  6  5  1  0
  7  1  1  0
  2  8  1  0
  5  9  1  0
  7 10  1  0
  7 11  1  0
  7 12  1  0
 13 14  1  0
 14 15  1  0
 15 16  1  0
 16 17  1  0
 17 18  1  0
 18 19  1  0
 18 20  1  0
 20 21  1  0
 20 14  1  0
 13 22  1  0
 14 23  1  6
 15 24  1  1
 17 25  1  0
 17 26  1  0
 18 27  1  6
 19 28  1  0
 20 29  1  1
 21 30  1  0
  3 15  1  0
M  ISO  5   8  14   9  14  10   8  11   8  12   8
M  END
>  <DihAtoms>  (1) 
1,2,14,13

>  <DihDeg>  (1) 
-160.9074581986511

$$$$
