
     RDKit          3D

 53 55  0  0  0  0  0  0  0  0999 V2000
   46.7240   32.5164   45.8951 C   0  0  0  0  0  0  0  0  0  0  0  0
   46.1415   31.7900   46.9983 C   0  0  0  0  0  0  0  0  0  0  0  0
   45.3961   32.2675   48.0388 C   0  0  0  0  0  0  0  0  0  0  0  0
   44.8893   31.4936   49.0344 C   0  0  0  0  0  0  0  0  0  0  0  0
   45.1428   30.1376   48.9934 C   0  0  0  0  0  0  0  0  0  0  0  0
   45.8918   29.6445   47.9516 C   0  0  0  0  0  0  0  0  0  0  0  0
   46.3935   30.4547   46.9549 C   0  0  0  0  0  0  0  0  0  0  0  0
   48.4914   29.3609   46.4287 C   0  0  0  0  0  0  0  0  0  0  0  0
   49.3133   29.6714   47.3631 O   0  0  0  0  0  0  0  0  0  0  0  0
   47.1251   29.6214   46.0412 N   0  0  0  0  0  0  0  0  0  0  0  0
   45.9542   32.3288   44.6094 C   0  0  0  0  0  0  0  0  0  0  0  0
   44.6134   35.7288   44.7548 C   0  0  0  0  0  0  0  0  0  0  0  0
   44.1871   35.9463   43.4219 C   0  0  0  0  0  0  0  0  0  0  0  0
   44.3803   34.9105   42.5288 C   0  0  0  0  0  0  0  0  0  0  0  0
   44.9515   33.7640   42.9495 N   0  0  0  0  0  0  0  0  0  0  0  0
   45.3373   33.6140   44.2305 C   0  0  0  0  0  0  0  0  0  0  0  0
   45.1793   34.5635   45.1247 N   0  0  0  0  0  0  0  0  0  0  0  0
   43.9303   35.1483   41.1351 C   0  0  0  0  0  0  0  0  0  0  0  0
   42.4238   35.3689   41.0699 C   0  0  0  0  0  0  0  0  0  0  0  0
   46.7910   33.6112   46.1486 H   0  0  0  0  0  0  0  0  0  0  0  0
   47.7830   32.2007   45.7134 H   0  0  0  0  0  0  0  0  0  0  0  0
   45.2166   33.3489   48.0357 H   0  0  0  0  0  0  0  0  0  0  0  0
   44.3125   31.9810   49.8086 H   0  0  0  0  0  0  0  0  0  0  0  0
   44.7122   29.5666   49.8163 H   0  0  0  0  0  0  0  0  0  0  0  0
   46.0002   28.5541   48.0678 H   0  0  0  0  0  0  0  0  0  0  0  0
   49.2665   28.7572   45.9643 H   0  0  0  0  0  0  0  0  0  0  0  0
   46.8943   29.1491   45.1418 H   0  0  0  0  0  0  0  0  0  0  0  0
   45.1081   31.6146   44.7839 H   0  0  0  0  0  0  0  0  0  0  0  0
   46.6024   31.9091   43.8146 H   0  0  0  0  0  0  0  0  0  0  0  0
   44.4670   36.5346   45.4651 H   0  0  0  0  0  0  0  0  0  0  0  0
   43.7293   36.8894   43.1237 H   0  0  0  0  0  0  0  0  0  0  0  0
   44.4605   36.0382   40.7501 H   0  0  0  0  0  0  0  0  0  0  0  0
   44.2430   34.2972   40.5110 H   0  0  0  0  0  0  0  0  0  0  0  0
   42.1855   36.2126   41.7318 H   0  0  0  0  0  0  0  0  0  0  0  0
   41.8802   34.4656   41.3992 H   0  0  0  0  0  0  0  0  0  0  0  0
   43.5073   36.3604   37.9951 O   0  0  0  0  0  0  0  0  0  0  0  0
   42.9570   35.2394   38.6502 C   0  0  1  0  0  0  0  0  0  0  0  0
   41.9479   35.6145   39.6439 C   0  0  1  0  0  0  0  0  0  0  0  0
   40.6948   35.0767   39.5658 O   0  0  0  0  0  0  0  0  0  0  0  0
   40.2841   34.6913   38.3174 C   0  0  0  0  0  0  0  0  0  0  0  0
   41.2182   33.5678   37.9016 C   0  0  2  0  0  0  0  0  0  0  0  0
   41.4112   32.6472   38.9335 O   0  0  0  0  0  0  0  0  0  0  0  0
   42.5265   34.2837   37.5784 C   0  0  2  0  0  0  0  0  0  0  0  0
   43.5327   33.3432   37.3015 O   0  0  0  0  0  0  0  0  0  0  0  0
   43.2395   37.1906   38.4676 H   0  0  0  0  0  0  0  0  0  0  0  0
   43.8289   34.7691   39.1681 H   0  0  0  0  0  0  0  0  0  0  0  0
   41.8060   36.7337   39.6079 H   0  0  0  0  0  0  0  0  0  0  0  0
   40.3026   35.4558   37.5374 H   0  0  0  0  0  0  0  0  0  0  0  0
   39.2773   34.2246   38.4321 H   0  0  0  0  0  0  0  0  0  0  0  0
   40.8598   33.0826   36.9843 H   0  0  0  0  0  0  0  0  0  0  0  0
   40.7793   32.7901   39.6775 H   0  0  0  0  0  0  0  0  0  0  0  0
   42.3540   34.8074   36.6087 H   0  0  0  0  0  0  0  0  0  0  0  0
   43.2811   32.4721   37.7424 H   0  0  0  0  0  0  0  0  0  0  0  0
  1  2  1  0
  2  3  2  0
  3  4  1  0
  5  4  2  0
  6  5  1  0
  7  2  1  0
  7  6  2  0
  8  9  2  0
 10  8  1  0
 10  7  1  0
 11  1  1  0
 12 17  2  0
 13 12  1  0
 14 15  1  0
 14 13  2  0
 15 16  2  0
 16 11  1  0
 16 17  1  0
 18 14  1  0
 19 18  1  0
  1 20  1  0
  1 21  1  0
  3 22  1  0
  4 23  1  0
  5 24  1  0
  6 25  1  0
  8 26  1  0
 10 27  1  0
 11 28  1  0
 11 29  1  0
 12 30  1  0
 13 31  1  0
 18 32  1  0
 18 33  1  0
 19 34  1  0
 19 35  1  0
 36 37  1  0
 37 38  1  0
 38 39  1  0
 39 40  1  0
 40 41  1  0
 41 42  1  0
 41 43  1  0
 43 44  1  0
 43 37  1  0
 36 45  1  0
 37 46  1  1
 38 47  1  1
 40 48  1  0
 40 49  1  0
 41 50  1  6
 42 51  1  0
 43 52  1  6
 44 53  1  0
 19 38  1  0
M  ISO  8  20   8  21   8  22  14  23  14  24  14  25  14  26   6  28   8
M  ISO  7  29   8  30  14  31  14  32   8  33   8  34   8  35   8
M  END
>  <DihAtoms>  (1) 
17,18,37,36

>  <DihDeg>  (1) 
59.999702156703286

$$$$
