
 OpenBabel03252503413D

 24 25  0  0  1  0  0  0  0  0999 V2000
   44.1870   33.5650   42.1970 C   0  0  0  0  0  0  0  0  0  0  0  0
   44.4710   34.9210   42.2320 C   0  0  0  0  0  0  0  0  0  0  0  0
   43.6620   35.7870   41.5090 C   0  0  0  0  0  0  0  0  0  0  0  0
   42.6350   35.2700   40.8050 N   0  0  0  0  0  0  0  0  0  0  0  0
   42.3740   33.9380   40.7840 C   0  0  0  0  0  0  0  0  0  0  0  0
   43.1440   33.0650   41.4800 N   0  0  0  0  0  0  0  0  0  0  0  0
   44.7930   32.8560   42.7480 H   0  0  0  0  0  0  0  0  0  0  0  0
   43.9070   36.8390   41.5530 H   0  0  0  0  0  0  0  0  0  0  0  0
   41.3460   33.7790   38.5100 C   0  0  2  0  0  3  0  0  0  0  0  0
   41.2440   33.4340   40.0020 C   0  0  1  0  0  3  0  0  0  0  0  0
   41.1390   32.0390   40.0080 O   0  0  0  0  0  0  0  0  0  0  0  0
   39.8220   31.7510   39.7090 C   0  0  0  0  0  2  0  0  0  0  0  0
   39.3280   32.2960   38.4050 C   0  0  1  0  0  3  0  0  0  0  0  0
   39.9170   33.6080   37.9960 C   0  0  1  0  0  3  0  0  0  0  0  0
   42.1790   32.8240   37.9020 O   0  0  0  0  0  0  0  0  0  0  0  0
   42.9520   33.2680   37.4700 H   0  0  0  0  0  0  0  0  0  0  0  0
   39.5800   31.3630   37.4040 O   0  0  0  0  0  0  0  0  0  0  0  0
   39.0530   30.5470   37.5920 H   0  0  0  0  0  0  0  0  0  0  0  0
   39.1670   34.6270   38.5890 O   0  0  0  0  0  0  0  0  0  0  0  0
   38.3680   34.2900   39.0390 H   0  0  0  0  0  0  0  0  0  0  0  0
   45.6390   35.3290   43.0560 C   0  0  0  0  0  0  0  0  0  0  0  0
   45.2710   35.4700   44.0930 H   0  0  0  0  0  0  0  0  0  0  0  0
   45.9890   36.3070   42.6320 H   0  0  0  0  0  0  0  0  0  0  0  0
   46.4170   34.5750   42.9530 H   0  0  0  0  0  0  0  0  0  0  0  0
  1  2  1  0  0  0  0
  1  7  1  0  0  0  0
  2 21  1  0  0  0  0
  3  8  1  0  0  0  0
  3  2  2  0  0  0  0
  4  3  1  0  0  0  0
  5  4  2  0  0  0  0
  5  6  1  0  0  0  0
  6  1  2  0  0  0  0
  9 15  1  6  0  0  0
  9 10  1  0  0  0  0
 10 11  1  0  0  0  0
 10  5  1  1  0  0  0
 12 11  1  0  0  0  0
 13 17  1  6  0  0  0
 13 12  1  0  0  0  0
 14 13  1  0  0  0  0
 14  9  1  0  0  0  0
 14 19  1  1  0  0  0
 16 15  1  0  0  0  0
 17 18  1  0  0  0  0
 19 20  1  0  0  0  0
 21 22  1  0  0  0  0
 23 21  1  0  0  0  0
 24 21  1  0  0  0  0
M  END
>  <minimizedAffinity>
-4.1521368

>  <minimizedRMSD>
9.18827724

$$$$
