
 OpenBabel03252507143D

 45 47  0  0  1  0  0  0  0  0999 V2000
   37.3420   26.6550   40.9300 C   0  0  2  0  0  0  0  0  0  0  0  0
   36.4760   26.0910   39.8620 C   0  0  0  0  0  0  0  0  0  0  0  0
   37.0680   24.8280   39.3320 C   0  0  0  0  0  0  0  0  0  0  0  0
   37.0980   23.8000   40.2560 O   0  0  0  0  0  0  0  0  0  0  0  0
   37.0710   24.2890   41.5480 C   0  0  0  0  0  0  0  0  0  0  0  0
   38.0060   25.4910   41.6490 C   0  0  1  0  0  0  0  0  0  0  0  0
   38.2160   27.1660   40.4580 H   0  0  0  0  0  0  0  0  0  0  0  0
   36.2290   26.8130   39.0580 H   0  0  0  0  0  0  0  0  0  0  0  0
   35.4770   25.8180   40.3050 H   0  0  0  0  0  0  0  0  0  0  0  0
   37.9480   24.9350   38.6920 H   0  0  0  0  0  0  0  0  0  0  0  0
   36.2770   24.4610   38.5810 H   0  0  0  0  0  0  0  0  0  0  0  0
   36.0560   24.6390   41.8490 H   0  0  0  0  0  0  0  0  0  0  0  0
   37.4090   23.4900   42.2310 H   0  0  0  0  0  0  0  0  0  0  0  0
   37.9250   25.7650   42.7500 H   0  0  0  0  0  0  0  0  0  0  0  0
   40.1900   25.1200   42.6540 C   0  0  2  0  0  3  0  0  0  0  0  0
   39.4110   25.1930   41.3320 C   0  0  2  0  0  3  0  0  0  0  0  0
   40.0590   26.1770   40.5990 O   0  0  0  0  0  0  0  0  0  0  0  0
   41.2610   25.7150   40.0840 C   0  0  0  0  0  2  0  0  0  0  0  0
   42.2180   25.3080   41.1750 C   0  0  2  0  0  3  0  0  0  0  0  0
   41.6270   25.4660   42.5460 C   0  0  2  0  0  3  0  0  0  0  0  0
   40.0270   23.7950   43.1230 O   0  0  0  0  0  0  0  0  0  0  0  0
   40.3650   23.7000   44.0390 H   0  0  0  0  0  0  0  0  0  0  0  0
   43.4140   26.0080   41.0640 O   0  0  0  0  0  0  0  0  0  0  0  0
   43.9450   25.9090   41.8970 H   0  0  0  0  0  0  0  0  0  0  0  0
   42.3220   24.6770   43.4730 O   0  0  0  0  0  0  0  0  0  0  0  0
   42.2780   23.7210   43.2880 H   0  0  0  0  0  0  0  0  0  0  0  0
   36.7480   27.5220   41.7750 O   0  0  0  0  0  0  0  0  0  0  0  0
   38.8780   29.0430   41.6390 O   0  0  0  0  0  0  0  0  0  0  0  0
   37.4460   28.9950   42.0240 P   0  0  2  0  0  0  0  0  0  0  0  0
   37.3940   29.3210   43.6790 O   0  0  0  0  0  0  0  0  0  0  0  0
   38.0840   28.7460   44.1030 H   0  0  0  0  0  0  0  0  0  0  0  0
   36.5620   30.2270   41.2080 O   0  0  0  0  0  0  0  0  0  0  0  0
   37.1370   31.8050   39.5490 C   0  0  0  0  0  0  0  0  0  0  0  0
   36.7870   30.5140   39.8760 C   0  0  0  0  0  0  0  0  0  0  0  0
   36.6750   29.5530   38.8400 C   0  0  0  0  0  0  0  0  0  0  0  0
   36.9240   29.9720   37.5750 N   0  0  0  0  0  0  0  0  0  0  0  0
   37.2570   31.2170   37.3020 C   0  0  0  0  0  0  0  0  0  0  0  0
   37.3610   32.1340   38.3010 N   0  0  0  0  0  0  0  0  0  0  0  0
   38.5380   33.2290   41.0300 C   0  0  0  0  0  0  0  0  0  0  0  0
   39.3770   32.2890   41.2790 O   0  0  0  0  0  0  0  0  0  0  0  0
   37.3670   33.0640   40.1640 N   0  0  0  0  0  0  0  0  0  0  0  0
   36.4020   28.5550   39.1180 H   0  0  0  0  0  0  0  0  0  0  0  0
   37.4690   31.6180   36.3100 H   0  0  0  0  0  0  0  0  0  0  0  0
   38.7970   34.1430   41.5270 H   0  0  0  0  0  0  0  0  0  0  0  0
   36.8070   33.9190   40.0960 H   0  0  0  0  0  0  0  0  0  0  0  0
  1  7  1  6  0  0  0
  1  6  1  0  0  0  0
  1 27  1  0  0  0  0
  2  9  1  0  0  0  0
  2  1  1  0  0  0  0
  3  2  1  0  0  0  0
  3  4  1  0  0  0  0
  4  5  1  0  0  0  0
  5  6  1  0  0  0  0
  5 12  1  0  0  0  0
  5 13  1  0  0  0  0
  6 14  1  1  0  0  0
  8  2  1  0  0  0  0
 10  3  1  0  0  0  0
 11  3  1  0  0  0  0
 15 21  1  6  0  0  0
 16 17  1  6  0  0  0
 16  6  1  0  0  0  0
 16 15  1  0  0  0  0
 18 17  1  0  0  0  0
 18 19  1  0  0  0  0
 19 23  1  1  0  0  0
 19 20  1  0  0  0  0
 20 15  1  0  0  0  0
 20 25  1  1  0  0  0
 21 22  1  0  0  0  0
 23 24  1  0  0  0  0
 26 25  1  0  0  0  0
 27 29  1  0  0  0  0
 29 28  2  6  0  0  0
 29 30  1  0  0  0  0
 30 31  1  0  0  0  0
 32 29  1  0  0  0  0
 33 34  1  0  0  0  0
 33 41  1  0  0  0  0
 34 32  1  0  0  0  0
 35 42  1  0  0  0  0
 35 34  2  0  0  0  0
 36 35  1  0  0  0  0
 37 36  2  0  0  0  0
 37 38  1  0  0  0  0
 38 33  2  0  0  0  0
 39 40  2  0  0  0  0
 39 44  1  0  0  0  0
 41 39  1  0  0  0  0
 43 37  1  0  0  0  0
 45 41  1  0  0  0  0
M  END
>  <minimizedAffinity>
-6.61788225

$$$$

 OpenBabel03252507143D

 45 47  0  0  1  0  0  0  0  0999 V2000
   37.3500   29.0390   37.5530 C   0  0  2  0  0  0  0  0  0  0  0  0
   37.2920   27.9030   36.5960 C   0  0  0  0  0  0  0  0  0  0  0  0
   37.2260   26.6090   37.3360 C   0  0  0  0  0  0  0  0  0  0  0  0
   36.0600   26.4420   38.0580 O   0  0  0  0  0  0  0  0  0  0  0  0
   35.4770   27.6590   38.3550 C   0  0  0  0  0  0  0  0  0  0  0  0
   36.5610   28.6410   38.7910 C   0  0  1  0  0  0  0  0  0  0  0  0
   38.3890   29.1230   37.9560 H   0  0  0  0  0  0  0  0  0  0  0  0
   38.0990   27.9160   35.8360 H   0  0  0  0  0  0  0  0  0  0  0  0
   36.3430   27.9790   35.9940 H   0  0  0  0  0  0  0  0  0  0  0  0
   38.1510   26.2780   37.8180 H   0  0  0  0  0  0  0  0  0  0  0  0
   37.1100   25.8310   36.4960 H   0  0  0  0  0  0  0  0  0  0  0  0
   34.9640   28.1110   37.4730 H   0  0  0  0  0  0  0  0  0  0  0  0
   34.7520   27.5100   39.1740 H   0  0  0  0  0  0  0  0  0  0  0  0
   35.9560   29.5700   39.0420 H   0  0  0  0  0  0  0  0  0  0  0  0
   36.8950   29.1320   41.1500 C   0  0  2  0  0  3  0  0  0  0  0  0
   37.3120   28.2220   39.9850 C   0  0  2  0  0  3  0  0  0  0  0  0
   38.6860   28.3840   39.8890 O   0  0  0  0  0  0  0  0  0  0  0  0
   39.3480   27.7060   40.9030 C   0  0  0  0  0  2  0  0  0  0  0  0
   38.9590   28.2210   42.2650 C   0  0  2  0  0  3  0  0  0  0  0  0
   37.9300   29.3100   42.1960 C   0  0  2  0  0  3  0  0  0  0  0  0
   35.7270   28.5480   41.6940 O   0  0  0  0  0  0  0  0  0  0  0  0
   35.3050   29.1450   42.3480 H   0  0  0  0  0  0  0  0  0  0  0  0
   40.0830   28.6400   42.9690 O   0  0  0  0  0  0  0  0  0  0  0  0
   39.8090   29.1770   43.7570 H   0  0  0  0  0  0  0  0  0  0  0  0
   37.2690   29.4380   43.4260 O   0  0  0  0  0  0  0  0  0  0  0  0
   36.7750   28.6400   43.6920 H   0  0  0  0  0  0  0  0  0  0  0  0
   36.9860   30.2420   37.0640 O   0  0  0  0  0  0  0  0  0  0  0  0
   37.2280   32.5080   38.3570 O   0  0  0  0  0  0  0  0  0  0  0  0
   37.9020   31.5620   37.4360 P   0  0  2  0  0  0  0  0  0  0  0  0
   38.1820   32.4170   36.0070 O   0  0  0  0  0  0  0  0  0  0  0  0
   37.3300   32.8750   35.7800 H   0  0  0  0  0  0  0  0  0  0  0  0
   39.4250   31.0780   38.0770 O   0  0  0  0  0  0  0  0  0  0  0  0
   40.6520   33.0560   38.4680 C   0  0  0  0  0  0  0  0  0  0  0  0
   40.5670   31.8230   37.8610 C   0  0  0  0  0  0  0  0  0  0  0  0
   41.6450   31.3840   37.0510 C   0  0  0  0  0  0  0  0  0  0  0  0
   42.7070   32.2180   36.9260 N   0  0  0  0  0  0  0  0  0  0  0  0
   42.7510   33.3910   37.5230 C   0  0  0  0  0  0  0  0  0  0  0  0
   41.7120   33.8060   38.2980 N   0  0  0  0  0  0  0  0  0  0  0  0
   39.6860   33.5120   40.7140 C   0  0  0  0  0  0  0  0  0  0  0  0
   40.1320   32.4190   41.2200 O   0  0  0  0  0  0  0  0  0  0  0  0
   39.9010   33.9090   39.3190 N   0  0  0  0  0  0  0  0  0  0  0  0
   41.5570   30.4220   36.5890 H   0  0  0  0  0  0  0  0  0  0  0  0
   43.5710   34.1080   37.4640 H   0  0  0  0  0  0  0  0  0  0  0  0
   39.1410   34.0950   41.4300 H   0  0  0  0  0  0  0  0  0  0  0  0
   39.4580   34.8050   39.0940 H   0  0  0  0  0  0  0  0  0  0  0  0
  1  7  1  1  0  0  0
  1  6  1  0  0  0  0
  2  3  1  0  0  0  0
  2  1  1  0  0  0  0
  3 10  1  0  0  0  0
  3  4  1  0  0  0  0
  4  5  1  0  0  0  0
  5  6  1  0  0  0  0
  5 13  1  0  0  0  0
  6 14  1  1  0  0  0
  6 16  1  0  0  0  0
  8  2  1  0  0  0  0
  9  2  1  0  0  0  0
 11  3  1  0  0  0  0
 12  5  1  0  0  0  0
 15 21  1  1  0  0  0
 15 20  1  0  0  0  0
 16 17  1  6  0  0  0
 16 15  1  0  0  0  0
 17 18  1  0  0  0  0
 18 19  1  0  0  0  0
 19 23  1  6  0  0  0
 20 19  1  0  0  0  0
 20 25  1  1  0  0  0
 21 22  1  0  0  0  0
 23 24  1  0  0  0  0
 25 26  1  0  0  0  0
 27 29  1  0  0  0  0
 27  1  1  0  0  0  0
 29 32  1  0  0  0  0
 29 28  2  1  0  0  0
 30 29  1  0  0  0  0
 31 30  1  0  0  0  0
 33 41  1  0  0  0  0
 34 32  1  0  0  0  0
 34 33  2  0  0  0  0
 35 34  1  0  0  0  0
 36 35  2  0  0  0  0
 36 37  1  0  0  0  0
 37 38  2  0  0  0  0
 38 33  1  0  0  0  0
 39 40  2  0  0  0  0
 39 44  1  0  0  0  0
 41 39  1  0  0  0  0
 42 35  1  0  0  0  0
 43 37  1  0  0  0  0
 45 41  1  0  0  0  0
M  END
>  <minimizedAffinity>
-6.38115215

$$$$

 OpenBabel03252507143D

 45 47  0  0  1  0  0  0  0  0999 V2000
   39.9200   30.4070   40.8860 C   0  0  2  0  0  0  0  0  0  0  0  0
   40.9380   31.3050   40.2810 C   0  0  0  0  0  0  0  0  0  0  0  0
   40.2890   32.2460   39.3220 C   0  0  0  0  0  0  0  0  0  0  0  0
   39.4280   33.1440   39.9240 O   0  0  0  0  0  0  0  0  0  0  0  0
   38.9690   32.6620   41.1340 C   0  0  0  0  0  0  0  0  0  0  0  0
   38.6170   31.1850   40.9850 C   0  0  1  0  0  0  0  0  0  0  0  0
   39.6580   29.6060   40.1510 H   0  0  0  0  0  0  0  0  0  0  0  0
   41.7990   30.7690   39.8320 H   0  0  0  0  0  0  0  0  0  0  0  0
   41.3980   31.9370   41.0920 H   0  0  0  0  0  0  0  0  0  0  0  0
   39.9620   31.8200   38.3690 H   0  0  0  0  0  0  0  0  0  0  0  0
   41.1580   32.9220   38.9880 H   0  0  0  0  0  0  0  0  0  0  0  0
   39.7380   32.7340   41.9390 H   0  0  0  0  0  0  0  0  0  0  0  0
   38.0720   33.2360   41.4220 H   0  0  0  0  0  0  0  0  0  0  0  0
   38.2210   30.9280   42.0190 H   0  0  0  0  0  0  0  0  0  0  0  0
   36.4250   30.1700   40.6970 C   0  0  2  0  0  3  0  0  0  0  0  0
   37.5700   30.9100   39.9890 C   0  0  2  0  0  3  0  0  0  0  0  0
   37.9560   30.0580   38.9650 O   0  0  0  0  0  0  0  0  0  0  0  0
   37.0440   30.0770   37.9200 C   0  0  0  0  0  2  0  0  0  0  0  0
   35.6790   29.6120   38.3600 C   0  0  2  0  0  3  0  0  0  0  0  0
   35.6290   29.2780   39.8210 C   0  0  2  0  0  3  0  0  0  0  0  0
   35.6080   31.1780   41.2610 O   0  0  0  0  0  0  0  0  0  0  0  0
   34.9350   30.7930   41.8620 H   0  0  0  0  0  0  0  0  0  0  0  0
   35.2560   28.5360   37.5870 O   0  0  0  0  0  0  0  0  0  0  0  0
   34.4760   28.0960   38.0160 H   0  0  0  0  0  0  0  0  0  0  0  0
   34.3060   29.3020   40.2850 O   0  0  0  0  0  0  0  0  0  0  0  0
   33.8790   30.1760   40.2100 H   0  0  0  0  0  0  0  0  0  0  0  0
   40.2680   29.8180   42.0480 O   0  0  0  0  0  0  0  0  0  0  0  0
   38.3080   28.8260   43.4760 O   0  0  0  0  0  0  0  0  0  0  0  0
   39.4230   28.4960   42.5550 P   0  0  2  0  0  0  0  0  0  0  0  0
   40.4790   27.5110   43.4300 O   0  0  0  0  0  0  0  0  0  0  0  0
   40.6190   27.9540   44.3080 H   0  0  0  0  0  0  0  0  0  0  0  0
   38.8450   27.5960   41.2060 O   0  0  0  0  0  0  0  0  0  0  0  0
   39.1120   25.3020   40.7190 C   0  0  0  0  0  0  0  0  0  0  0  0
   38.3960   26.2970   41.3450 C   0  0  0  0  0  0  0  0  0  0  0  0
   37.2440   25.9450   42.0940 C   0  0  0  0  0  0  0  0  0  0  0  0
   36.9170   24.6300   42.1470 N   0  0  0  0  0  0  0  0  0  0  0  0
   37.6280   23.7060   41.5340 C   0  0  0  0  0  0  0  0  0  0  0  0
   38.7310   24.0520   40.8170 N   0  0  0  0  0  0  0  0  0  0  0  0
   41.5850   25.3820   40.4740 C   0  0  0  0  0  0  0  0  0  0  0  0
   41.7760   25.7640   41.6850 O   0  0  0  0  0  0  0  0  0  0  0  0
   40.2590   25.1300   39.9010 N   0  0  0  0  0  0  0  0  0  0  0  0
   36.7040   26.7360   42.5720 H   0  0  0  0  0  0  0  0  0  0  0  0
   37.4210   22.6350   41.5350 H   0  0  0  0  0  0  0  0  0  0  0  0
   42.5060   25.2690   39.9360 H   0  0  0  0  0  0  0  0  0  0  0  0
   40.3050   24.8470   38.9170 H   0  0  0  0  0  0  0  0  0  0  0  0
  1  7  1  6  0  0  0
  1  6  1  0  0  0  0
  1 27  1  0  0  0  0
  2  1  1  0  0  0  0
  2  9  1  0  0  0  0
  3  4  1  0  0  0  0
  3  2  1  0  0  0  0
  4  5  1  0  0  0  0
  5 13  1  0  0  0  0
  5 12  1  0  0  0  0
  6  5  1  0  0  0  0
  6 14  1  1  0  0  0
  8  2  1  0  0  0  0
 10  3  1  0  0  0  0
 11  3  1  0  0  0  0
 15 21  1  6  0  0  0
 16 17  1  6  0  0  0
 16 15  1  0  0  0  0
 16  6  1  0  0  0  0
 18 19  1  0  0  0  0
 18 17  1  0  0  0  0
 19 23  1  6  0  0  0
 19 20  1  0  0  0  0
 20 25  1  1  0  0  0
 20 15  1  0  0  0  0
 21 22  1  0  0  0  0
 23 24  1  0  0  0  0
 26 25  1  0  0  0  0
 27 29  1  0  0  0  0
 29 30  1  0  0  0  0
 29 28  2  1  0  0  0
 30 31  1  0  0  0  0
 32 34  1  0  0  0  0
 32 29  1  0  0  0  0
 33 38  2  0  0  0  0
 33 34  1  0  0  0  0
 34 35  2  0  0  0  0
 35 36  1  0  0  0  0
 35 42  1  0  0  0  0
 37 43  1  0  0  0  0
 37 36  2  0  0  0  0
 38 37  1  0  0  0  0
 39 40  2  0  0  0  0
 41 39  1  0  0  0  0
 41 33  1  0  0  0  0
 44 39  1  0  0  0  0
 45 41  1  0  0  0  0
M  END
>  <minimizedAffinity>
-6.11475325

$$$$

 OpenBabel03252507143D

 45 47  0  0  1  0  0  0  0  0999 V2000
   38.2600   29.7810   39.5960 C   0  0  2  0  0  0  0  0  0  0  0  0
   37.0830   30.2260   40.3850 C   0  0  0  0  0  0  0  0  0  0  0  0
   37.0680   31.7150   40.4920 C   0  0  0  0  0  0  0  0  0  0  0  0
   36.8690   32.3550   39.2840 O   0  0  0  0  0  0  0  0  0  0  0  0
   37.2400   31.5500   38.2250 C   0  0  0  0  0  0  0  0  0  0  0  0
   38.5560   30.8550   38.5600 C   0  0  1  0  0  0  0  0  0  0  0  0
   39.1710   29.8250   40.2430 H   0  0  0  0  0  0  0  0  0  0  0  0
   36.9910   29.7290   41.3720 H   0  0  0  0  0  0  0  0  0  0  0  0
   36.1430   29.9330   39.8390 H   0  0  0  0  0  0  0  0  0  0  0  0
   37.8060   32.1610   41.1660 H   0  0  0  0  0  0  0  0  0  0  0  0
   36.0850   31.9290   41.0500 H   0  0  0  0  0  0  0  0  0  0  0  0
   36.4910   30.7490   38.0170 H   0  0  0  0  0  0  0  0  0  0  0  0
   37.3660   32.1850   37.3300 H   0  0  0  0  0  0  0  0  0  0  0  0
   38.7660   30.2680   37.6090 H   0  0  0  0  0  0  0  0  0  0  0  0
   40.6470   31.6770   37.6270 C   0  0  2  0  0  3  0  0  0  0  0  0
   39.6770   31.7720   38.8150 C   0  0  2  0  0  3  0  0  0  0  0  0
   40.4480   31.4480   39.9220 O   0  0  0  0  0  0  0  0  0  0  0  0
   41.2860   32.4940   40.2790 C   0  0  0  0  0  2  0  0  0  0  0  0
   42.2570   32.8330   39.1770 C   0  0  2  0  0  3  0  0  0  0  0  0
   42.0590   31.9870   37.9550 C   0  0  2  0  0  3  0  0  0  0  0  0
   40.1490   32.5750   36.6540 O   0  0  0  0  0  0  0  0  0  0  0  0
   40.6210   32.4670   35.8000 H   0  0  0  0  0  0  0  0  0  0  0  0
   43.5670   32.7480   39.6360 O   0  0  0  0  0  0  0  0  0  0  0  0
   44.1970   32.7490   38.8680 H   0  0  0  0  0  0  0  0  0  0  0  0
   42.6260   32.6050   36.8320 O   0  0  0  0  0  0  0  0  0  0  0  0
   42.2230   33.4660   36.6120 H   0  0  0  0  0  0  0  0  0  0  0  0
   38.1790   28.5450   39.0610 O   0  0  0  0  0  0  0  0  0  0  0  0
   36.7140   26.4710   38.4160 O   0  0  0  0  0  0  0  0  0  0  0  0
   36.8000   27.6710   39.2840 P   0  0  2  0  0  0  0  0  0  0  0  0
   35.4910   28.6500   38.8610 O   0  0  0  0  0  0  0  0  0  0  0  0
   35.4860   28.7030   37.8690 H   0  0  0  0  0  0  0  0  0  0  0  0
   36.6250   27.2300   40.9390 O   0  0  0  0  0  0  0  0  0  0  0  0
   38.6550   26.5860   41.9550 C   0  0  0  0  0  0  0  0  0  0  0  0
   37.4000   26.2380   41.5070 C   0  0  0  0  0  0  0  0  0  0  0  0
   36.9710   24.8950   41.6490 C   0  0  0  0  0  0  0  0  0  0  0  0
   37.8360   24.0240   42.2250 N   0  0  0  0  0  0  0  0  0  0  0  0
   39.0290   24.3950   42.6410 C   0  0  0  0  0  0  0  0  0  0  0  0
   39.4350   25.6860   42.5010 N   0  0  0  0  0  0  0  0  0  0  0  0
   39.1550   28.8080   42.9520 C   0  0  0  0  0  0  0  0  0  0  0  0
   38.0960   28.8130   43.6790 O   0  0  0  0  0  0  0  0  0  0  0  0
   39.5110   27.7150   42.0420 N   0  0  0  0  0  0  0  0  0  0  0  0
   35.9910   24.6490   41.2930 H   0  0  0  0  0  0  0  0  0  0  0  0
   39.7710   23.7480   43.1120 H   0  0  0  0  0  0  0  0  0  0  0  0
   39.7430   29.6940   43.0910 H   0  0  0  0  0  0  0  0  0  0  0  0
   40.3830   27.8960   41.5360 H   0  0  0  0  0  0  0  0  0  0  0  0
  1  7  1  1  0  0  0
  1  2  1  0  0  0  0
  2  3  1  0  0  0  0
  2  8  1  0  0  0  0
  3 11  1  0  0  0  0
  3 10  1  0  0  0  0
  4  3  1  0  0  0  0
  5  6  1  0  0  0  0
  5  4  1  0  0  0  0
  6 14  1  6  0  0  0
  6 16  1  0  0  0  0
  6  1  1  0  0  0  0
  9  2  1  0  0  0  0
 12  5  1  0  0  0  0
 13  5  1  0  0  0  0
 15 21  1  6  0  0  0
 15 20  1  0  0  0  0
 15 16  1  0  0  0  0
 16 17  1  1  0  0  0
 17 18  1  0  0  0  0
 19 23  1  1  0  0  0
 19 18  1  0  0  0  0
 20 25  1  6  0  0  0
 20 19  1  0  0  0  0
 22 21  1  0  0  0  0
 24 23  1  0  0  0  0
 26 25  1  0  0  0  0
 27 29  1  0  0  0  0
 27  1  1  0  0  0  0
 29 28  2  6  0  0  0
 29 32  1  0  0  0  0
 30 29  1  0  0  0  0
 31 30  1  0  0  0  0
 32 34  1  0  0  0  0
 33 41  1  0  0  0  0
 33 38  1  0  0  0  0
 34 35  1  0  0  0  0
 34 33  2  0  0  0  0
 35 36  2  0  0  0  0
 36 37  1  0  0  0  0
 37 43  1  0  0  0  0
 38 37  2  0  0  0  0
 39 44  1  0  0  0  0
 39 40  2  0  0  0  0
 41 39  1  0  0  0  0
 42 35  1  0  0  0  0
 45 41  1  0  0  0  0
M  END
>  <minimizedAffinity>
-6.05470085

$$$$

 OpenBabel03252507143D

 45 47  0  0  1  0  0  0  0  0999 V2000
   38.3330   27.3980   41.0750 C   0  0  2  0  0  0  0  0  0  0  0  0
   38.4890   26.5660   42.2960 C   0  0  0  0  0  0  0  0  0  0  0  0
   38.2620   27.3950   43.5160 C   0  0  0  0  0  0  0  0  0  0  0  0
   36.9650   27.8550   43.6400 O   0  0  0  0  0  0  0  0  0  0  0  0
   36.3300   27.8970   42.4140 C   0  0  0  0  0  0  0  0  0  0  0  0
   37.2900   28.4640   41.3710 C   0  0  1  0  0  0  0  0  0  0  0  0
   39.2570   28.0100   40.9300 H   0  0  0  0  0  0  0  0  0  0  0  0
   39.4450   26.0050   42.3370 H   0  0  0  0  0  0  0  0  0  0  0  0
   37.6970   25.7660   42.2980 H   0  0  0  0  0  0  0  0  0  0  0  0
   39.0570   28.0990   43.7800 H   0  0  0  0  0  0  0  0  0  0  0  0
   38.3360   26.6300   44.3720 H   0  0  0  0  0  0  0  0  0  0  0  0
   36.0250   26.8840   42.0580 H   0  0  0  0  0  0  0  0  0  0  0  0
   35.4420   28.5460   42.5010 H   0  0  0  0  0  0  0  0  0  0  0  0
   36.6440   28.4840   40.4360 H   0  0  0  0  0  0  0  0  0  0  0  0
   36.9920   30.7960   40.7430 C   0  0  2  0  0  3  0  0  0  0  0  0
   37.7580   29.8290   41.6590 C   0  0  2  0  0  3  0  0  0  0  0  0
   39.0950   30.0550   41.3650 O   0  0  0  0  0  0  0  0  0  0  0  0
   39.5430   31.2420   41.9270 C   0  0  0  0  0  2  0  0  0  0  0  0
   38.7890   32.4330   41.3930 C   0  0  2  0  0  3  0  0  0  0  0  0
   37.7190   32.0450   40.4160 C   0  0  2  0  0  3  0  0  0  0  0  0
   35.7800   31.0820   41.4160 O   0  0  0  0  0  0  0  0  0  0  0  0
   35.1610   31.5730   40.8350 H   0  0  0  0  0  0  0  0  0  0  0  0
   39.6660   33.3550   40.8320 O   0  0  0  0  0  0  0  0  0  0  0  0
   39.1610   34.0170   40.2900 H   0  0  0  0  0  0  0  0  0  0  0  0
   36.7680   33.0680   40.2990 O   0  0  0  0  0  0  0  0  0  0  0  0
   36.2940   33.2620   41.1300 H   0  0  0  0  0  0  0  0  0  0  0  0
   38.0860   26.7270   39.9310 O   0  0  0  0  0  0  0  0  0  0  0  0
   39.5250   24.7880   38.9150 O   0  0  0  0  0  0  0  0  0  0  0  0
   39.3570   26.2590   38.9920 P   0  0  2  0  0  0  0  0  0  0  0  0
   40.7700   26.8560   39.6970 O   0  0  0  0  0  0  0  0  0  0  0  0
   40.9490   26.2920   40.4960 H   0  0  0  0  0  0  0  0  0  0  0  0
   39.2220   26.9330   37.4130 O   0  0  0  0  0  0  0  0  0  0  0  0
   39.0180   29.2680   37.6870 C   0  0  0  0  0  0  0  0  0  0  0  0
   38.5080   28.0930   37.1840 C   0  0  0  0  0  0  0  0  0  0  0  0
   37.2880   28.1300   36.4620 C   0  0  0  0  0  0  0  0  0  0  0  0
   36.6920   29.3390   36.3120 N   0  0  0  0  0  0  0  0  0  0  0  0
   37.2120   30.4420   36.8080 C   0  0  0  0  0  0  0  0  0  0  0  0
   38.3830   30.3990   37.5000 N   0  0  0  0  0  0  0  0  0  0  0  0
   41.4600   29.7210   37.8210 C   0  0  0  0  0  0  0  0  0  0  0  0
   41.6920   29.2740   36.6400 O   0  0  0  0  0  0  0  0  0  0  0  0
   40.1270   29.7480   38.4320 N   0  0  0  0  0  0  0  0  0  0  0  0
   36.9110   27.2030   36.0810 H   0  0  0  0  0  0  0  0  0  0  0  0
   36.7860   31.4430   36.7230 H   0  0  0  0  0  0  0  0  0  0  0  0
   42.3520   30.0700   38.3030 H   0  0  0  0  0  0  0  0  0  0  0  0
   40.1410   30.1260   39.3840 H   0  0  0  0  0  0  0  0  0  0  0  0
  1  7  1  6  0  0  0
  1  6  1  0  0  0  0
  1  2  1  0  0  0  0
  2  9  1  0  0  0  0
  2  8  1  0  0  0  0
  2  3  1  0  0  0  0
  3  4  1  0  0  0  0
  3 10  1  0  0  0  0
  3 11  1  0  0  0  0
  5 13  1  0  0  0  0
  5  4  1  0  0  0  0
  6 14  1  6  0  0  0
  6 16  1  0  0  0  0
  6  5  1  0  0  0  0
 12  5  1  0  0  0  0
 15 21  1  1  0  0  0
 15 16  1  0  0  0  0
 16 17  1  6  0  0  0
 17 18  1  0  0  0  0
 19 23  1  6  0  0  0
 19 18  1  0  0  0  0
 20 25  1  1  0  0  0
 20 15  1  0  0  0  0
 20 19  1  0  0  0  0
 22 21  1  0  0  0  0
 24 23  1  0  0  0  0
 25 26  1  0  0  0  0
 27  1  1  0  0  0  0
 29 28  2  6  0  0  0
 29 30  1  0  0  0  0
 29 27  1  0  0  0  0
 30 31  1  0  0  0  0
 32 29  1  0  0  0  0
 33 41  1  0  0  0  0
 34 32  1  0  0  0  0
 34 33  2  0  0  0  0
 35 34  1  0  0  0  0
 36 35  2  0  0  0  0
 36 37  1  0  0  0  0
 37 38  2  0  0  0  0
 38 33  1  0  0  0  0
 39 44  1  0  0  0  0
 39 41  1  0  0  0  0
 40 39  2  0  0  0  0
 41 45  1  0  0  0  0
 42 35  1  0  0  0  0
 43 37  1  0  0  0  0
M  END
>  <minimizedAffinity>
-5.96478844

$$$$

 OpenBabel03252507143D

 45 47  0  0  1  0  0  0  0  0999 V2000
   37.4910   27.2080   40.7590 C   0  0  2  0  0  0  0  0  0  0  0  0
   38.1110   26.2900   41.7500 C   0  0  0  0  0  0  0  0  0  0  0  0
   38.5300   27.0500   42.9640 C   0  0  0  0  0  0  0  0  0  0  0  0
   37.4730   27.5810   43.6780 O   0  0  0  0  0  0  0  0  0  0  0  0
   36.3590   27.7420   42.8770 C   0  0  0  0  0  0  0  0  0  0  0  0
   36.7890   28.3150   41.5300 C   0  0  1  0  0  0  0  0  0  0  0  0
   38.2980   27.7700   40.2280 H   0  0  0  0  0  0  0  0  0  0  0  0
   38.9300   25.6690   41.3350 H   0  0  0  0  0  0  0  0  0  0  0  0
   37.3400   25.5420   42.0880 H   0  0  0  0  0  0  0  0  0  0  0  0
   39.4160   27.6840   42.8580 H   0  0  0  0  0  0  0  0  0  0  0  0
   38.9170   26.2280   43.6690 H   0  0  0  0  0  0  0  0  0  0  0  0
   35.8410   26.7760   42.6690 H   0  0  0  0  0  0  0  0  0  0  0  0
   35.6650   28.4390   43.3780 H   0  0  0  0  0  0  0  0  0  0  0  0
   35.7950   28.4360   40.9920 H   0  0  0  0  0  0  0  0  0  0  0  0
   36.6740   30.6080   40.7220 C   0  0  2  0  0  3  0  0  0  0  0  0
   37.4510   29.6270   41.6130 C   0  0  2  0  0  3  0  0  0  0  0  0
   38.7460   29.6530   41.1150 O   0  0  0  0  0  0  0  0  0  0  0  0
   39.4090   30.8130   41.4890 C   0  0  0  0  0  2  0  0  0  0  0  0
   38.7270   32.0440   40.9500 C   0  0  2  0  0  3  0  0  0  0  0  0
   37.4840   31.7220   40.1750 C   0  0  2  0  0  3  0  0  0  0  0  0
   35.6190   31.1020   41.5260 O   0  0  0  0  0  0  0  0  0  0  0  0
   34.9810   31.6200   40.9910 H   0  0  0  0  0  0  0  0  0  0  0  0
   39.6110   32.7970   40.1850 O   0  0  0  0  0  0  0  0  0  0  0  0
   39.1110   33.4730   39.6560 H   0  0  0  0  0  0  0  0  0  0  0  0
   36.6520   32.8470   40.0920 O   0  0  0  0  0  0  0  0  0  0  0  0
   36.3350   33.1670   40.9570 H   0  0  0  0  0  0  0  0  0  0  0  0
   36.6980   26.6300   39.8340 O   0  0  0  0  0  0  0  0  0  0  0  0
   37.1480   26.1880   37.2900 O   0  0  0  0  0  0  0  0  0  0  0  0
   36.7290   27.2030   38.2880 P   0  0  2  0  0  0  0  0  0  0  0  0
   37.8800   28.4360   38.2150 O   0  0  0  0  0  0  0  0  0  0  0  0
   38.7700   27.9940   38.2370 H   0  0  0  0  0  0  0  0  0  0  0  0
   35.2010   27.8720   37.8620 O   0  0  0  0  0  0  0  0  0  0  0  0
   34.3930   28.1150   35.6580 C   0  0  0  0  0  0  0  0  0  0  0  0
   34.4600   27.3670   36.8120 C   0  0  0  0  0  0  0  0  0  0  0  0
   33.7730   26.1280   36.8660 C   0  0  0  0  0  0  0  0  0  0  0  0
   33.0830   25.7530   35.7600 N   0  0  0  0  0  0  0  0  0  0  0  0
   33.0420   26.4960   34.6740 C   0  0  0  0  0  0  0  0  0  0  0  0
   33.7030   27.6840   34.6300 N   0  0  0  0  0  0  0  0  0  0  0  0
   36.2940   29.4950   34.8420 C   0  0  0  0  0  0  0  0  0  0  0  0
   37.1640   28.5770   35.0640 O   0  0  0  0  0  0  0  0  0  0  0  0
   34.8620   29.3420   35.1230 N   0  0  0  0  0  0  0  0  0  0  0  0
   33.8410   25.5640   37.7730 H   0  0  0  0  0  0  0  0  0  0  0  0
   32.5080   26.2540   33.7540 H   0  0  0  0  0  0  0  0  0  0  0  0
   36.7370   30.3790   34.4290 H   0  0  0  0  0  0  0  0  0  0  0  0
   34.3270   30.1860   34.8940 H   0  0  0  0  0  0  0  0  0  0  0  0
  1  7  1  6  0  0  0
  1  6  1  0  0  0  0
  1  2  1  0  0  0  0
  2  9  1  0  0  0  0
  2  3  1  0  0  0  0
  3 11  1  0  0  0  0
  3  4  1  0  0  0  0
  5 13  1  0  0  0  0
  5  4  1  0  0  0  0
  6 14  1  6  0  0  0
  6 16  1  0  0  0  0
  6  5  1  0  0  0  0
  8  2  1  0  0  0  0
 10  3  1  0  0  0  0
 12  5  1  0  0  0  0
 15 21  1  1  0  0  0
 15 16  1  0  0  0  0
 16 17  1  6  0  0  0
 17 18  1  0  0  0  0
 19 23  1  6  0  0  0
 19 18  1  0  0  0  0
 20 25  1  1  0  0  0
 20 15  1  0  0  0  0
 20 19  1  0  0  0  0
 22 21  1  0  0  0  0
 24 23  1  0  0  0  0
 25 26  1  0  0  0  0
 27  1  1  0  0  0  0
 29 28  2  6  0  0  0
 29 27  1  0  0  0  0
 30 31  1  0  0  0  0
 30 29  1  0  0  0  0
 32 29  1  0  0  0  0
 33 34  1  0  0  0  0
 34 35  2  0  0  0  0
 34 32  1  0  0  0  0
 35 42  1  0  0  0  0
 36 35  1  0  0  0  0
 37 36  2  0  0  0  0
 38 37  1  0  0  0  0
 38 33  2  0  0  0  0
 39 40  2  0  0  0  0
 39 41  1  0  0  0  0
 41 33  1  0  0  0  0
 43 37  1  0  0  0  0
 44 39  1  0  0  0  0
 45 41  1  0  0  0  0
M  END
>  <minimizedAffinity>
-5.95012617

$$$$

 OpenBabel03252507143D

 45 47  0  0  1  0  0  0  0  0999 V2000
   39.5420   28.4570   42.3520 C   0  0  2  0  0  0  0  0  0  0  0  0
   39.0410   27.7120   43.5370 C   0  0  0  0  0  0  0  0  0  0  0  0
   37.6970   27.1300   43.2480 C   0  0  0  0  0  0  0  0  0  0  0  0
   37.7150   26.1510   42.2730 O   0  0  0  0  0  0  0  0  0  0  0  0
   38.8120   26.2890   41.4460 C   0  0  0  0  0  0  0  0  0  0  0  0
   39.0040   27.7650   41.1090 C   0  0  1  0  0  0  0  0  0  0  0  0
   39.0320   29.4510   42.3040 H   0  0  0  0  0  0  0  0  0  0  0  0
   39.0550   28.3010   44.4760 H   0  0  0  0  0  0  0  0  0  0  0  0
   39.7300   26.8460   43.7430 H   0  0  0  0  0  0  0  0  0  0  0  0
   36.8590   27.8340   43.2190 H   0  0  0  0  0  0  0  0  0  0  0  0
   37.4610   26.5280   44.1990 H   0  0  0  0  0  0  0  0  0  0  0  0
   39.7550   25.9400   41.9290 H   0  0  0  0  0  0  0  0  0  0  0  0
   38.6300   25.7130   40.5220 H   0  0  0  0  0  0  0  0  0  0  0  0
   39.8960   27.7360   40.4040 H   0  0  0  0  0  0  0  0  0  0  0  0
   37.2890   29.4770   41.3240 C   0  0  2  0  0  3  0  0  0  0  0  0
   37.8630   28.3800   40.4130 C   0  0  2  0  0  3  0  0  0  0  0  0
   36.7970   27.5230   40.1830 O   0  0  0  0  0  0  0  0  0  0  0  0
   35.8970   28.0670   39.2780 C   0  0  0  0  0  2  0  0  0  0  0  0
   35.2980   29.3530   39.7890 C   0  0  2  0  0  3  0  0  0  0  0  0
   35.8450   29.7500   41.1280 C   0  0  2  0  0  3  0  0  0  0  0  0
   38.0580   30.6350   41.0610 O   0  0  0  0  0  0  0  0  0  0  0  0
   37.8600   31.3450   41.7090 H   0  0  0  0  0  0  0  0  0  0  0  0
   33.9110   29.2670   39.8210 O   0  0  0  0  0  0  0  0  0  0  0  0
   33.5370   30.0130   40.3600 H   0  0  0  0  0  0  0  0  0  0  0  0
   35.6400   31.1170   41.3560 O   0  0  0  0  0  0  0  0  0  0  0  0
   36.0950   31.6960   40.7150 H   0  0  0  0  0  0  0  0  0  0  0  0
   40.8740   28.6620   42.3040 O   0  0  0  0  0  0  0  0  0  0  0  0
   42.5040   30.3450   43.4750 O   0  0  0  0  0  0  0  0  0  0  0  0
   41.4490   30.2010   42.4440 P   0  0  2  0  0  0  0  0  0  0  0  0
   40.1720   31.1880   42.9360 O   0  0  0  0  0  0  0  0  0  0  0  0
   40.0150   30.9910   43.8980 H   0  0  0  0  0  0  0  0  0  0  0  0
   42.0120   30.7750   40.9210 O   0  0  0  0  0  0  0  0  0  0  0  0
   40.3480   31.8480   39.6370 C   0  0  0  0  0  0  0  0  0  0  0  0
   41.1980   30.7780   39.8060 C   0  0  0  0  0  0  0  0  0  0  0  0
   41.1960   29.7430   38.8370 C   0  0  0  0  0  0  0  0  0  0  0  0
   40.3440   29.8750   37.7900 N   0  0  0  0  0  0  0  0  0  0  0  0
   39.5460   30.9140   37.6640 C   0  0  0  0  0  0  0  0  0  0  0  0
   39.5530   31.9030   38.5970 N   0  0  0  0  0  0  0  0  0  0  0  0
   40.9520   34.1610   40.3220 C   0  0  0  0  0  0  0  0  0  0  0  0
   42.1360   34.0870   39.8290 O   0  0  0  0  0  0  0  0  0  0  0  0
   39.9810   33.0630   40.2720 N   0  0  0  0  0  0  0  0  0  0  0  0
   41.8660   28.9210   38.9900 H   0  0  0  0  0  0  0  0  0  0  0  0
   38.8390   31.0810   36.8490 H   0  0  0  0  0  0  0  0  0  0  0  0
   40.7610   35.1160   40.7720 H   0  0  0  0  0  0  0  0  0  0  0  0
   39.0960   33.3020   40.7300 H   0  0  0  0  0  0  0  0  0  0  0  0
  1  7  1  1  0  0  0
  1  2  1  0  0  0  0
  2  9  1  0  0  0  0
  2  8  1  0  0  0  0
  3  2  1  0  0  0  0
  3 11  1  0  0  0  0
  4  3  1  0  0  0  0
  5 12  1  0  0  0  0
  5  4  1  0  0  0  0
  6 14  1  6  0  0  0
  6  5  1  0  0  0  0
  6  1  1  0  0  0  0
 10  3  1  0  0  0  0
 13  5  1  0  0  0  0
 15 21  1  6  0  0  0
 16 17  1  1  0  0  0
 16  6  1  0  0  0  0
 16 15  1  0  0  0  0
 18 19  1  0  0  0  0
 18 17  1  0  0  0  0
 19 23  1  1  0  0  0
 19 20  1  0  0  0  0
 20 15  1  0  0  0  0
 20 25  1  6  0  0  0
 21 22  1  0  0  0  0
 23 24  1  0  0  0  0
 26 25  1  0  0  0  0
 27  1  1  0  0  0  0
 27 29  1  0  0  0  0
 29 30  1  0  0  0  0
 29 28  2  1  0  0  0
 30 31  1  0  0  0  0
 32 29  1  0  0  0  0
 33 34  1  0  0  0  0
 33 41  1  0  0  0  0
 34 32  1  0  0  0  0
 35 42  1  0  0  0  0
 35 34  2  0  0  0  0
 36 35  1  0  0  0  0
 37 36  2  0  0  0  0
 37 38  1  0  0  0  0
 38 33  2  0  0  0  0
 39 44  1  0  0  0  0
 40 39  2  0  0  0  0
 41 39  1  0  0  0  0
 41 45  1  0  0  0  0
 43 37  1  0  0  0  0
M  END
>  <minimizedAffinity>
-5.93835783

$$$$

 OpenBabel03252507143D

 45 47  0  0  1  0  0  0  0  0999 V2000
   37.2240   27.6430   39.9410 C   0  0  2  0  0  0  0  0  0  0  0  0
   37.0360   27.5380   38.4710 C   0  0  0  0  0  0  0  0  0  0  0  0
   37.6750   26.2910   37.9580 C   0  0  0  0  0  0  0  0  0  0  0  0
   37.0750   25.1320   38.4120 O   0  0  0  0  0  0  0  0  0  0  0  0
   36.3930   25.3530   39.5940 C   0  0  0  0  0  0  0  0  0  0  0  0
   37.2440   26.2310   40.5070 C   0  0  1  0  0  0  0  0  0  0  0  0
   38.2640   27.9920   40.1520 H   0  0  0  0  0  0  0  0  0  0  0  0
   37.3580   28.4400   37.9130 H   0  0  0  0  0  0  0  0  0  0  0  0
   35.9360   27.4510   38.2470 H   0  0  0  0  0  0  0  0  0  0  0  0
   38.7690   26.2890   37.9130 H   0  0  0  0  0  0  0  0  0  0  0  0
   37.3970   26.2920   36.8420 H   0  0  0  0  0  0  0  0  0  0  0  0
   35.4280   25.8890   39.4340 H   0  0  0  0  0  0  0  0  0  0  0  0
   36.2050   24.3790   40.0770 H   0  0  0  0  0  0  0  0  0  0  0  0
   36.6000   26.3000   41.4410 H   0  0  0  0  0  0  0  0  0  0  0  0
   38.3770   24.8880   42.1900 C   0  0  2  0  0  3  0  0  0  0  0  0
   38.5460   25.6480   40.8650 C   0  0  2  0  0  3  0  0  0  0  0  0
   39.5440   26.5770   41.1210 O   0  0  0  0  0  0  0  0  0  0  0  0
   40.7960   25.9790   41.1560 C   0  0  0  0  0  2  0  0  0  0  0  0
   40.8920   24.9480   42.2520 C   0  0  2  0  0  3  0  0  0  0  0  0
   39.6070   24.7940   43.0110 C   0  0  2  0  0  3  0  0  0  0  0  0
   37.9110   23.6000   41.8360 O   0  0  0  0  0  0  0  0  0  0  0  0
   37.6300   23.0960   42.6300 H   0  0  0  0  0  0  0  0  0  0  0  0
   41.9460   25.2440   43.1090 O   0  0  0  0  0  0  0  0  0  0  0  0
   41.8690   24.7050   43.9400 H   0  0  0  0  0  0  0  0  0  0  0  0
   39.5760   23.5620   43.6780 O   0  0  0  0  0  0  0  0  0  0  0  0
   39.6110   22.7910   43.0810 H   0  0  0  0  0  0  0  0  0  0  0  0
   36.3640   28.4550   40.5900 O   0  0  0  0  0  0  0  0  0  0  0  0
   37.6700   29.8810   42.3580 O   0  0  0  0  0  0  0  0  0  0  0  0
   36.8920   29.9320   41.0960 P   0  0  2  0  0  0  0  0  0  0  0  0
   35.5370   30.8850   41.4180 O   0  0  0  0  0  0  0  0  0  0  0  0
   35.1540   30.5540   42.2730 H   0  0  0  0  0  0  0  0  0  0  0  0
   37.8060   30.7030   39.8570 O   0  0  0  0  0  0  0  0  0  0  0  0
   40.1520   30.6400   40.1030 C   0  0  0  0  0  0  0  0  0  0  0  0
   38.9840   31.3670   40.1370 C   0  0  0  0  0  0  0  0  0  0  0  0
   39.0460   32.7480   40.4550 C   0  0  0  0  0  0  0  0  0  0  0  0
   40.2710   33.2720   40.7080 N   0  0  0  0  0  0  0  0  0  0  0  0
   41.3670   32.5430   40.6660 C   0  0  0  0  0  0  0  0  0  0  0  0
   41.2990   31.2190   40.3610 N   0  0  0  0  0  0  0  0  0  0  0  0
   40.5250   28.7760   38.4990 C   0  0  0  0  0  0  0  0  0  0  0  0
   40.0440   29.4270   37.5020 O   0  0  0  0  0  0  0  0  0  0  0  0
   40.6110   29.3190   39.8590 N   0  0  0  0  0  0  0  0  0  0  0  0
   38.1240   33.2920   40.4750 H   0  0  0  0  0  0  0  0  0  0  0  0
   42.3790   32.9000   40.8590 H   0  0  0  0  0  0  0  0  0  0  0  0
   40.8540   27.7950   38.2190 H   0  0  0  0  0  0  0  0  0  0  0  0
   41.0100   28.6490   40.5230 H   0  0  0  0  0  0  0  0  0  0  0  0
  1  7  1  1  0  0  0
  1  6  1  0  0  0  0
  1 27  1  0  0  0  0
  2  1  1  0  0  0  0
  3  4  1  0  0  0  0
  3  2  1  0  0  0  0
  4  5  1  0  0  0  0
  5 13  1  0  0  0  0
  5  6  1  0  0  0  0
  6 16  1  0  0  0  0
  6 14  1  1  0  0  0
  8  2  1  0  0  0  0
  9  2  1  0  0  0  0
 10  3  1  0  0  0  0
 11  3  1  0  0  0  0
 12  5  1  0  0  0  0
 15 21  1  6  0  0  0
 15 20  1  0  0  0  0
 16 17  1  1  0  0  0
 16 15  1  0  0  0  0
 17 18  1  0  0  0  0
 18 19  1  0  0  0  0
 19 20  1  0  0  0  0
 19 23  1  1  0  0  0
 20 25  1  6  0  0  0
 21 22  1  0  0  0  0
 23 24  1  0  0  0  0
 26 25  1  0  0  0  0
 27 29  1  0  0  0  0
 29 30  1  0  0  0  0
 29 28  2  1  0  0  0
 30 31  1  0  0  0  0
 32 34  1  0  0  0  0
 32 29  1  0  0  0  0
 33 34  2  0  0  0  0
 33 38  1  0  0  0  0
 34 35  1  0  0  0  0
 35 42  1  0  0  0  0
 35 36  2  0  0  0  0
 37 36  1  0  0  0  0
 37 43  1  0  0  0  0
 38 37  2  0  0  0  0
 39 41  1  0  0  0  0
 40 39  2  0  0  0  0
 41 33  1  0  0  0  0
 41 45  1  0  0  0  0
 44 39  1  0  0  0  0
M  END
>  <minimizedAffinity>
-5.91856146

$$$$

 OpenBabel03252507143D

 45 47  0  0  1  0  0  0  0  0999 V2000
   37.7290   28.6280   40.8810 C   0  0  2  0  0  0  0  0  0  0  0  0
   38.4450   27.5310   41.5820 C   0  0  0  0  0  0  0  0  0  0  0  0
   39.8480   27.9400   41.8830 C   0  0  0  0  0  0  0  0  0  0  0  0
   39.9390   28.9760   42.7930 O   0  0  0  0  0  0  0  0  0  0  0  0
   38.7770   29.7220   42.8200 C   0  0  0  0  0  0  0  0  0  0  0  0
   38.2920   29.9470   41.3910 C   0  0  1  0  0  0  0  0  0  0  0  0
   38.0420   28.6410   39.8090 H   0  0  0  0  0  0  0  0  0  0  0  0
   38.3910   26.5550   41.0580 H   0  0  0  0  0  0  0  0  0  0  0  0
   37.9450   27.3410   42.5730 H   0  0  0  0  0  0  0  0  0  0  0  0
   40.5370   27.9740   41.0340 H   0  0  0  0  0  0  0  0  0  0  0  0
   40.2600   27.0490   42.4810 H   0  0  0  0  0  0  0  0  0  0  0  0
   37.9530   29.2060   43.3670 H   0  0  0  0  0  0  0  0  0  0  0  0
   38.9940   30.6920   43.3010 H   0  0  0  0  0  0  0  0  0  0  0  0
   37.3720   30.5950   41.5490 H   0  0  0  0  0  0  0  0  0  0  0  0
   38.7640   32.1220   40.4090 C   0  0  2  0  0  3  0  0  0  0  0  0
   39.2460   30.6690   40.5340 C   0  0  2  0  0  3  0  0  0  0  0  0
   39.3110   30.2080   39.2270 O   0  0  0  0  0  0  0  0  0  0  0  0
   40.4190   30.7180   38.5660 C   0  0  0  0  0  2  0  0  0  0  0  0
   40.3750   32.2220   38.4790 C   0  0  2  0  0  3  0  0  0  0  0  0
   39.1690   32.8030   39.1570 C   0  0  2  0  0  3  0  0  0  0  0  0
   39.2840   32.7970   41.5380 O   0  0  0  0  0  0  0  0  0  0  0  0
   38.9000   33.6960   41.6210 H   0  0  0  0  0  0  0  0  0  0  0  0
   40.4520   32.6380   37.1540 O   0  0  0  0  0  0  0  0  0  0  0  0
   40.1990   33.5960   37.0840 H   0  0  0  0  0  0  0  0  0  0  0  0
   39.3810   34.1550   39.4610 O   0  0  0  0  0  0  0  0  0  0  0  0
   40.1180   34.3080   40.0820 H   0  0  0  0  0  0  0  0  0  0  0  0
   36.3820   28.5800   40.9300 O   0  0  0  0  0  0  0  0  0  0  0  0
   35.8410   30.5830   39.3290 O   0  0  0  0  0  0  0  0  0  0  0  0
   35.5180   29.1730   39.6560 P   0  0  2  0  0  0  0  0  0  0  0  0
   33.8850   29.1520   40.0830 O   0  0  0  0  0  0  0  0  0  0  0  0
   33.7510   29.8980   40.7260 H   0  0  0  0  0  0  0  0  0  0  0  0
   35.7220   28.1710   38.2710 O   0  0  0  0  0  0  0  0  0  0  0  0
   36.7510   28.9220   36.2850 C   0  0  0  0  0  0  0  0  0  0  0  0
   35.5960   28.6750   36.9920 C   0  0  0  0  0  0  0  0  0  0  0  0
   34.3470   28.9480   36.3790 C   0  0  0  0  0  0  0  0  0  0  0  0
   34.3700   29.4420   35.1160 N   0  0  0  0  0  0  0  0  0  0  0  0
   35.4970   29.6650   34.4720 C   0  0  0  0  0  0  0  0  0  0  0  0
   36.6910   29.4020   35.0670 N   0  0  0  0  0  0  0  0  0  0  0  0
   38.7850   27.5070   36.5030 C   0  0  0  0  0  0  0  0  0  0  0  0
   38.1250   26.4070   36.4570 O   0  0  0  0  0  0  0  0  0  0  0  0
   38.1600   28.8320   36.4280 N   0  0  0  0  0  0  0  0  0  0  0  0
   33.4620   28.7480   36.9480 H   0  0  0  0  0  0  0  0  0  0  0  0
   35.5860   30.0600   33.4590 H   0  0  0  0  0  0  0  0  0  0  0  0
   39.8390   27.3420   36.6010 H   0  0  0  0  0  0  0  0  0  0  0  0
   38.8450   29.5920   36.4950 H   0  0  0  0  0  0  0  0  0  0  0  0
  1  7  1  6  0  0  0
  1 27  1  0  0  0  0
  1  6  1  0  0  0  0
  1  2  1  0  0  0  0
  2  3  1  0  0  0  0
  2  9  1  0  0  0  0
  3 11  1  0  0  0  0
  3  4  1  0  0  0  0
  4  5  1  0  0  0  0
  5 13  1  0  0  0  0
  5 12  1  0  0  0  0
  6 14  1  1  0  0  0
  6  5  1  0  0  0  0
  8  2  1  0  0  0  0
 10  3  1  0  0  0  0
 15 16  1  0  0  0  0
 15 21  1  1  0  0  0
 16 17  1  6  0  0  0
 16  6  1  0  0  0  0
 18 17  1  0  0  0  0
 19 23  1  6  0  0  0
 19 18  1  0  0  0  0
 19 20  1  0  0  0  0
 20 25  1  1  0  0  0
 20 15  1  0  0  0  0
 21 22  1  0  0  0  0
 24 23  1  0  0  0  0
 25 26  1  0  0  0  0
 29 28  2  6  0  0  0
 29 30  1  0  0  0  0
 29 27  1  0  0  0  0
 30 31  1  0  0  0  0
 32 29  1  0  0  0  0
 33 41  1  0  0  0  0
 33 34  1  0  0  0  0
 34 32  1  0  0  0  0
 35 42  1  0  0  0  0
 35 34  2  0  0  0  0
 36 35  1  0  0  0  0
 37 38  1  0  0  0  0
 37 36  2  0  0  0  0
 38 33  2  0  0  0  0
 39 44  1  0  0  0  0
 40 39  2  0  0  0  0
 41 45  1  0  0  0  0
 41 39  1  0  0  0  0
 43 37  1  0  0  0  0
M  END
>  <minimizedAffinity>
-5.91187477

$$$$
