
 OpenBabel03242519313D

 51 54  0  0  1  0  0  0  0  0999 V2000
   50.3530   31.0710   42.0900 C   0  0  0  0  0  0  0  0  0  0  0  0
   50.6000   30.6830   40.8320 N   0  0  0  0  0  0  0  0  0  0  0  0
   51.2590   29.4950   40.8530 C   0  0  0  0  0  0  0  0  0  0  0  0
   51.4130   29.1620   42.1510 N   0  0  0  0  0  0  0  0  0  0  0  0
   50.8680   30.1110   42.9140 N   0  0  0  0  0  0  0  0  0  0  0  0
   51.5900   28.9350   39.9920 H   0  0  0  0  0  0  0  0  0  0  0  0
   47.8200   33.6340   42.8310 C   0  0  0  0  0  0  0  0  0  0  0  0
   48.6110   34.8110   42.7260 C   0  0  0  0  0  0  0  0  0  0  0  0
   49.9690   34.7010   42.4070 C   0  0  0  0  0  0  0  0  0  0  0  0
   50.4640   33.4350   42.2110 N   0  0  0  0  0  0  0  0  0  0  0  0
   49.6490   32.3270   42.3270 C   0  0  0  0  0  0  0  0  0  0  0  0
   48.3600   32.4270   42.6290 N   0  0  0  0  0  0  0  0  0  0  0  0
   48.2890   35.8060   42.8640 H   0  0  0  0  0  0  0  0  0  0  0  0
   50.6130   35.5600   42.3150 H   0  0  0  0  0  0  0  0  0  0  0  0
   46.4150   33.8730   43.1780 C   0  0  0  0  0  0  0  0  0  0  0  0
   45.7680   34.9130   42.4170 C   0  0  0  0  0  0  0  0  0  0  0  0
   45.4040   36.1110   43.1900 C   0  0  0  0  0  0  0  0  0  0  0  0
   44.5300   35.7410   44.3940 C   0  0  0  0  0  0  0  0  0  0  0  0
   45.0010   34.5330   45.1370 C   0  0  0  0  0  0  0  0  0  0  0  0
   46.4080   34.1370   44.7210 C   0  0  0  0  0  0  0  0  0  0  0  0
   45.8870   32.8760   43.1280 H   0  0  0  0  0  0  0  0  0  0  0  0
   44.8070   34.5180   41.9690 H   0  0  0  0  0  0  0  0  0  0  0  0
   46.3610   35.2390   41.5270 H   0  0  0  0  0  0  0  0  0  0  0  0
   44.7300   36.7380   42.5390 H   0  0  0  0  0  0  0  0  0  0  0  0
   46.2110   36.7850   43.4950 H   0  0  0  0  0  0  0  0  0  0  0  0
   43.5200   35.4760   43.9640 H   0  0  0  0  0  0  0  0  0  0  0  0
   44.3670   36.6420   45.0120 H   0  0  0  0  0  0  0  0  0  0  0  0
   45.0830   34.8250   46.2040 H   0  0  0  0  0  0  0  0  0  0  0  0
   44.3070   33.6680   45.0960 H   0  0  0  0  0  0  0  0  0  0  0  0
   47.0660   34.9980   44.9170 H   0  0  0  0  0  0  0  0  0  0  0  0
   46.6890   33.2070   45.2550 H   0  0  0  0  0  0  0  0  0  0  0  0
   52.0770   27.9980   42.6750 C   0  0  0  0  0  0  0  0  0  0  0  0
   52.1740   27.1780   41.9760 H   0  0  0  0  0  0  0  0  0  0  0  0
   51.4460   27.5910   43.5220 H   0  0  0  0  0  0  0  0  0  0  0  0
   53.3880   28.3720   43.2030 C   0  0  0  0  0  3  0  0  0  0  0  0
   54.4740   27.6920   43.5530 C   0  0  0  0  0  3  0  0  0  0  0  0
   55.8170   28.2940   44.0100 C   0  0  0  0  0  0  0  0  0  0  0  0
   56.1450   27.7120   44.8680 H   0  0  0  0  0  0  0  0  0  0  0  0
   56.5040   28.1490   43.1600 H   0  0  0  0  0  0  0  0  0  0  0  0
   56.8440   30.4250   43.5080 C   0  0  1  0  0  3  0  0  0  0  0  0
   55.6960   29.7650   44.2550 C   0  0  2  0  0  3  0  0  0  0  0  0
   55.5960   30.1410   45.5700 O   0  0  0  0  0  0  0  0  0  0  0  0
   56.7470   30.0470   46.3120 C   0  0  0  0  0  2  0  0  0  0  0  0
   57.9230   30.7950   45.7280 C   0  0  1  0  0  3  0  0  0  0  0  0
   58.1380   30.3300   44.3070 C   0  0  2  0  0  3  0  0  0  0  0  0
   57.0830   29.6840   42.3380 O   0  0  0  0  0  0  0  0  0  0  0  0
   56.3970   29.8460   41.6630 H   0  0  0  0  0  0  0  0  0  0  0  0
   57.7120   32.1670   45.7180 O   0  0  0  0  0  0  0  0  0  0  0  0
   57.0970   32.4340   44.9920 H   0  0  0  0  0  0  0  0  0  0  0  0
   59.0670   31.1430   43.6920 O   0  0  0  0  0  0  0  0  0  0  0  0
   59.2310   30.8910   42.7630 H   0  0  0  0  0  0  0  0  0  0  0  0
  1 11  1  0  0  0  0
  1  5  2  0  0  0  0
  2  3  2  0  0  0  0
  2  1  1  0  0  0  0
  3  4  1  0  0  0  0
  4 32  1  0  0  0  0
  4  5  1  0  0  0  0
  6  3  1  0  0  0  0
  7 15  1  0  0  0  0
  8  7  1  0  0  0  0
  8 13  1  0  0  0  0
  9  8  2  0  0  0  0
 10 11  2  0  0  0  0
 10  9  1  0  0  0  0
 11 12  1  0  0  0  0
 12  7  2  0  0  0  0
 14  9  1  0  0  0  0
 15 20  1  0  0  0  0
 16 15  1  0  0  0  0
 16 17  1  0  0  0  0
 17 25  1  0  0  0  0
 17 18  1  0  0  0  0
 18 27  1  0  0  0  0
 18 19  1  0  0  0  0
 19 28  1  0  0  0  0
 20 30  1  0  0  0  0
 20 19  1  0  0  0  0
 20 31  1  0  0  0  0
 21 15  1  0  0  0  0
 22 16  1  0  0  0  0
 23 16  1  0  0  0  0
 24 17  1  0  0  0  0
 26 18  1  0  0  0  0
 29 19  1  0  0  0  0
 32 35  1  0  0  0  0
 32 34  1  0  0  0  0
 33 32  1  0  0  0  0
 35 36  2  0  0  0  0
 36 37  1  0  0  0  0
 37 38  1  0  0  0  0
 39 37  1  0  0  0  0
 40 46  1  6  0  0  0
 40 41  1  0  0  0  0
 40 45  1  0  0  0  0
 41 37  1  1  0  0  0
 41 42  1  0  0  0  0
 42 43  1  0  0  0  0
 44 48  1  6  0  0  0
 44 43  1  0  0  0  0
 45 50  1  6  0  0  0
 45 44  1  0  0  0  0
 47 46  1  0  0  0  0
 49 48  1  0  0  0  0
 51 50  1  0  0  0  0
M  END
>  <minimizedAffinity>
-4.43085003

>  <minimizedRMSD>
1.04724658

$$$$
