
 OpenBabel03252505353D

 33 35  0  0  1  0  0  0  0  0999 V2000
   35.9750   26.3440   38.5210 C   0  0  0  0  0  0  0  0  0  0  0  0
   35.5920   25.0180   38.3730 C   0  0  0  0  0  0  0  0  0  0  0  0
   35.9090   24.0420   39.3320 C   0  0  0  0  0  0  0  0  0  0  0  0
   36.6300   24.4080   40.4670 C   0  0  0  0  0  0  0  0  0  0  0  0
   36.9940   25.7360   40.5800 C   0  0  0  0  0  0  0  0  0  0  0  0
   36.6830   26.6850   39.6410 C   0  0  0  0  0  0  0  0  0  0  0  0
   35.0320   24.6600   37.5200 H   0  0  0  0  0  0  0  0  0  0  0  0
   35.6120   23.0090   39.2200 H   0  0  0  0  0  0  0  0  0  0  0  0
   36.8630   23.6380   41.1940 H   0  0  0  0  0  0  0  0  0  0  0  0
   37.5500   25.9450   41.4850 H   0  0  0  0  0  0  0  0  0  0  0  0
   34.0940   28.7220   36.3000 C   0  0  0  0  0  0  0  0  0  0  0  0
   34.3430   27.8400   37.3720 C   0  0  0  0  0  0  0  0  0  0  0  0
   35.6000   27.2540   37.4830 C   0  0  0  0  0  0  0  0  0  0  0  0
   36.5350   27.5660   36.5390 N   0  0  0  0  0  0  0  0  0  0  0  0
   36.2560   28.4230   35.5210 C   0  0  0  0  0  0  0  0  0  0  0  0
   35.0470   28.9960   35.4010 N   0  0  0  0  0  0  0  0  0  0  0  0
   37.2320   28.7350   34.5410 N   0  0  0  0  0  0  0  0  0  0  0  0
   33.1230   29.1500   36.2480 H   0  0  0  0  0  0  0  0  0  0  0  0
   33.6310   27.5770   38.1230 H   0  0  0  0  0  0  0  0  0  0  0  0
   37.7540   29.6300   34.3350 H   0  0  0  0  0  0  0  0  0  0  0  0
   37.3920   27.8710   33.9800 H   0  0  0  0  0  0  0  0  0  0  0  0
   36.0880   28.8350   40.6300 C   0  0  2  0  0  3  0  0  0  0  0  0
   37.1080   28.0930   39.8340 C   0  0  1  0  0  3  0  0  0  0  0  0
   38.3910   28.2190   40.2970 O   0  0  0  0  0  0  0  0  0  0  0  0
   38.5270   28.7600   41.5390 C   0  0  0  0  0  2  0  0  0  0  0  0
   37.8090   30.0430   41.7980 C   0  0  2  0  0  3  0  0  0  0  0  0
   36.6400   30.2500   40.8400 C   0  0  2  0  0  3  0  0  0  0  0  0
   35.9420   28.2970   41.9190 O   0  0  0  0  0  0  0  0  0  0  0  0
   35.4120   27.4530   41.7870 H   0  0  0  0  0  0  0  0  0  0  0  0
   38.6360   31.1650   41.8610 O   0  0  0  0  0  0  0  0  0  0  0  0
   38.1030   31.9540   41.6020 H   0  0  0  0  0  0  0  0  0  0  0  0
   35.6900   31.0780   41.4340 O   0  0  0  0  0  0  0  0  0  0  0  0
   34.7690   30.8800   41.1160 H   0  0  0  0  0  0  0  0  0  0  0  0
  1  6  1  0  0  0  0
  2  1  2  0  0  0  0
  2  3  1  0  0  0  0
  3  4  2  0  0  0  0
  4  5  1  0  0  0  0
  4  9  1  0  0  0  0
  5 10  1  0  0  0  0
  6  5  2  0  0  0  0
  7  2  1  0  0  0  0
  8  3  1  0  0  0  0
 11 12  1  0  0  0  0
 12 13  2  0  0  0  0
 12 19  1  0  0  0  0
 13  1  1  0  0  0  0
 14 13  1  0  0  0  0
 15 14  2  0  0  0  0
 16 15  1  0  0  0  0
 16 11  2  0  0  0  0
 17 15  1  0  0  0  0
 18 11  1  0  0  0  0
 20 17  1  0  0  0  0
 21 17  1  0  0  0  0
 22 27  1  0  0  0  0
 22 28  1  1  0  0  0
 23  6  1  1  0  0  0
 23 24  1  0  0  0  0
 23 22  1  0  0  0  0
 24 25  1  0  0  0  0
 25 26  1  0  0  0  0
 26 30  1  6  0  0  0
 27 32  1  1  0  0  0
 27 26  1  0  0  0  0
 29 28  1  0  0  0  0
 31 30  1  0  0  0  0
 33 32  1  0  0  0  0
M  END
>  <minimizedAffinity>
-6.04238415

$$$$

 OpenBabel03252505353D

 33 35  0  0  1  0  0  0  0  0999 V2000
   36.5320   29.5860   38.2620 C   0  0  0  0  0  0  0  0  0  0  0  0
   35.6530   29.6250   37.1890 C   0  0  0  0  0  0  0  0  0  0  0  0
   34.8300   28.5340   36.8630 C   0  0  0  0  0  0  0  0  0  0  0  0
   34.8930   27.3760   37.6350 C   0  0  0  0  0  0  0  0  0  0  0  0
   35.7790   27.3730   38.6950 C   0  0  0  0  0  0  0  0  0  0  0  0
   36.5810   28.4390   39.0090 C   0  0  0  0  0  0  0  0  0  0  0  0
   35.5500   30.4880   36.5460 H   0  0  0  0  0  0  0  0  0  0  0  0
   34.1440   28.5620   36.0290 H   0  0  0  0  0  0  0  0  0  0  0  0
   34.2480   26.5470   37.3650 H   0  0  0  0  0  0  0  0  0  0  0  0
   35.7730   26.4420   39.2470 H   0  0  0  0  0  0  0  0  0  0  0  0
   37.9160   32.7990   39.6360 C   0  0  0  0  0  0  0  0  0  0  0  0
   37.0590   31.6870   39.4990 C   0  0  0  0  0  0  0  0  0  0  0  0
   37.3240   30.7530   38.5030 C   0  0  0  0  0  0  0  0  0  0  0  0
   38.4100   30.9620   37.7030 N   0  0  0  0  0  0  0  0  0  0  0  0
   39.2120   32.0480   37.8690 C   0  0  0  0  0  0  0  0  0  0  0  0
   38.9680   32.9580   38.8250 N   0  0  0  0  0  0  0  0  0  0  0  0
   40.3330   32.2620   37.0270 N   0  0  0  0  0  0  0  0  0  0  0  0
   37.6810   33.4910   40.4070 H   0  0  0  0  0  0  0  0  0  0  0  0
   36.2030   31.4970   40.1090 H   0  0  0  0  0  0  0  0  0  0  0  0
   41.3700   32.2310   37.2230 H   0  0  0  0  0  0  0  0  0  0  0  0
   39.9660   32.4810   36.0760 H   0  0  0  0  0  0  0  0  0  0  0  0
   36.8690   28.9470   41.3780 C   0  0  2  0  0  3  0  0  0  0  0  0
   37.5090   28.3620   40.1640 C   0  0  1  0  0  3  0  0  0  0  0  0
   38.0470   27.1160   40.3510 O   0  0  0  0  0  0  0  0  0  0  0  0
   37.6980   26.4820   41.5050 C   0  0  0  0  0  2  0  0  0  0  0  0
   37.8550   27.2540   42.7730 C   0  0  2  0  0  3  0  0  0  0  0  0
   37.8630   28.7600   42.5300 C   0  0  2  0  0  3  0  0  0  0  0  0
   35.7210   28.2330   41.7570 O   0  0  0  0  0  0  0  0  0  0  0  0
   35.0160   28.5090   41.0950 H   0  0  0  0  0  0  0  0  0  0  0  0
   38.9290   26.8490   43.5660 O   0  0  0  0  0  0  0  0  0  0  0  0
   39.2200   27.6210   44.1060 H   0  0  0  0  0  0  0  0  0  0  0  0
   37.4320   29.4210   43.6800 O   0  0  0  0  0  0  0  0  0  0  0  0
   36.9760   30.2790   43.4690 H   0  0  0  0  0  0  0  0  0  0  0  0
  1 13  1  0  0  0  0
  1  6  1  0  0  0  0
  2  1  2  0  0  0  0
  3  2  1  0  0  0  0
  3  4  2  0  0  0  0
  4  5  1  0  0  0  0
  5  6  2  0  0  0  0
  5 10  1  0  0  0  0
  7  2  1  0  0  0  0
  8  3  1  0  0  0  0
  9  4  1  0  0  0  0
 11 18  1  0  0  0  0
 12 11  1  0  0  0  0
 12 19  1  0  0  0  0
 13 12  2  0  0  0  0
 14 15  2  0  0  0  0
 14 13  1  0  0  0  0
 15 16  1  0  0  0  0
 16 11  2  0  0  0  0
 17 20  1  0  0  0  0
 17 15  1  0  0  0  0
 21 17  1  0  0  0  0
 22 28  1  1  0  0  0
 22 27  1  0  0  0  0
 23  6  1  6  0  0  0
 23 24  1  0  0  0  0
 23 22  1  0  0  0  0
 24 25  1  0  0  0  0
 25 26  1  0  0  0  0
 26 30  1  6  0  0  0
 27 26  1  0  0  0  0
 27 32  1  1  0  0  0
 29 28  1  0  0  0  0
 30 31  1  0  0  0  0
 33 32  1  0  0  0  0
M  END
>  <minimizedAffinity>
-6.00726271

$$$$

 OpenBabel03252505353D

 33 35  0  0  1  0  0  0  0  0999 V2000
   36.6430   28.5570   41.1150 C   0  0  0  0  0  0  0  0  0  0  0  0
   36.3100   27.8400   42.2560 C   0  0  0  0  0  0  0  0  0  0  0  0
   37.0360   27.9690   43.4520 C   0  0  0  0  0  0  0  0  0  0  0  0
   38.1220   28.8400   43.5020 C   0  0  0  0  0  0  0  0  0  0  0  0
   38.4250   29.5360   42.3470 C   0  0  0  0  0  0  0  0  0  0  0  0
   37.7140   29.4070   41.1820 C   0  0  0  0  0  0  0  0  0  0  0  0
   35.4810   27.1470   42.2930 H   0  0  0  0  0  0  0  0  0  0  0  0
   36.7790   27.4140   44.3430 H   0  0  0  0  0  0  0  0  0  0  0  0
   38.6670   28.9240   44.4350 H   0  0  0  0  0  0  0  0  0  0  0  0
   39.2790   30.1910   42.4610 H   0  0  0  0  0  0  0  0  0  0  0  0
   34.0030   28.8010   38.4510 C   0  0  0  0  0  0  0  0  0  0  0  0
   34.7180   29.1070   39.6280 C   0  0  0  0  0  0  0  0  0  0  0  0
   35.8370   28.3480   39.9520 C   0  0  0  0  0  0  0  0  0  0  0  0
   36.1890   27.3360   39.1060 N   0  0  0  0  0  0  0  0  0  0  0  0
   35.4740   27.0730   37.9790 C   0  0  0  0  0  0  0  0  0  0  0  0
   34.3910   27.7980   37.6540 N   0  0  0  0  0  0  0  0  0  0  0  0
   35.8420   26.0150   37.1110 N   0  0  0  0  0  0  0  0  0  0  0  0
   33.1550   29.4030   38.2370 H   0  0  0  0  0  0  0  0  0  0  0  0
   34.4650   29.8910   40.3080 H   0  0  0  0  0  0  0  0  0  0  0  0
   36.2280   26.0200   36.1280 H   0  0  0  0  0  0  0  0  0  0  0  0
   35.6660   25.1220   37.6210 H   0  0  0  0  0  0  0  0  0  0  0  0
   37.4140   31.5150   39.9920 C   0  0  2  0  0  3  0  0  0  0  0  0
   38.0980   30.1900   39.9820 C   0  0  1  0  0  3  0  0  0  0  0  0
   39.4520   30.2510   39.7790 O   0  0  0  0  0  0  0  0  0  0  0  0
   40.0160   31.4860   39.8830 C   0  0  0  0  0  2  0  0  0  0  0  0
   39.3770   32.5870   39.1050 C   0  0  2  0  0  3  0  0  0  0  0  0
   37.9230   32.2790   38.7630 C   0  0  2  0  0  3  0  0  0  0  0  0
   37.7990   32.2910   41.0970 O   0  0  0  0  0  0  0  0  0  0  0  0
   37.3080   31.8880   41.8770 H   0  0  0  0  0  0  0  0  0  0  0  0
   40.0990   32.9970   37.9840 O   0  0  0  0  0  0  0  0  0  0  0  0
   39.4640   33.3700   37.3280 H   0  0  0  0  0  0  0  0  0  0  0  0
   37.2210   33.4710   38.5850 O   0  0  0  0  0  0  0  0  0  0  0  0
   36.2610   33.3800   38.8290 H   0  0  0  0  0  0  0  0  0  0  0  0
  1  6  2  0  0  0  0
  1  2  1  0  0  0  0
  2  7  1  0  0  0  0
  2  3  2  0  0  0  0
  3  4  1  0  0  0  0
  3  8  1  0  0  0  0
  4  9  1  0  0  0  0
  5 10  1  0  0  0  0
  5  4  2  0  0  0  0
  6  5  1  0  0  0  0
 11 12  1  0  0  0  0
 12 13  2  0  0  0  0
 12 19  1  0  0  0  0
 13  1  1  0  0  0  0
 14 13  1  0  0  0  0
 15 14  2  0  0  0  0
 16 15  1  0  0  0  0
 16 11  2  0  0  0  0
 17 21  1  0  0  0  0
 17 15  1  0  0  0  0
 18 11  1  0  0  0  0
 20 17  1  0  0  0  0
 22 28  1  1  0  0  0
 23 22  1  0  0  0  0
 23  6  1  1  0  0  0
 24 25  1  0  0  0  0
 24 23  1  0  0  0  0
 26 30  1  6  0  0  0
 26 25  1  0  0  0  0
 27 32  1  1  0  0  0
 27 26  1  0  0  0  0
 27 22  1  0  0  0  0
 28 29  1  0  0  0  0
 31 30  1  0  0  0  0
 32 33  1  0  0  0  0
M  END
>  <minimizedAffinity>
-5.98215008

$$$$

 OpenBabel03252505353D

 33 35  0  0  1  0  0  0  0  0999 V2000
   37.0500   26.4110   40.6690 C   0  0  0  0  0  0  0  0  0  0  0  0
   36.9460   25.3780   41.5900 C   0  0  0  0  0  0  0  0  0  0  0  0
   36.6180   24.0680   41.2030 C   0  0  0  0  0  0  0  0  0  0  0  0
   36.3900   23.7900   39.8570 C   0  0  0  0  0  0  0  0  0  0  0  0
   36.5020   24.8430   38.9690 C   0  0  0  0  0  0  0  0  0  0  0  0
   36.8210   26.1200   39.3520 C   0  0  0  0  0  0  0  0  0  0  0  0
   37.1090   25.5170   42.6500 H   0  0  0  0  0  0  0  0  0  0  0  0
   36.5370   23.2610   41.9170 H   0  0  0  0  0  0  0  0  0  0  0  0
   36.1390   22.7720   39.5810 H   0  0  0  0  0  0  0  0  0  0  0  0
   36.3110   24.5520   37.9440 H   0  0  0  0  0  0  0  0  0  0  0  0
   38.8190   29.3380   42.2280 C   0  0  0  0  0  0  0  0  0  0  0  0
   38.6060   28.0220   41.7680 C   0  0  0  0  0  0  0  0  0  0  0  0
   37.3880   27.7070   41.1730 C   0  0  0  0  0  0  0  0  0  0  0  0
   36.4550   28.6960   41.0650 N   0  0  0  0  0  0  0  0  0  0  0  0
   36.7000   29.9540   41.5200 C   0  0  0  0  0  0  0  0  0  0  0  0
   37.8700   30.2730   42.0960 N   0  0  0  0  0  0  0  0  0  0  0  0
   35.7210   30.9730   41.4100 N   0  0  0  0  0  0  0  0  0  0  0  0
   39.7600   29.5410   42.6760 H   0  0  0  0  0  0  0  0  0  0  0  0
   39.3160   27.2280   41.8410 H   0  0  0  0  0  0  0  0  0  0  0  0
   35.6900   31.8520   40.8240 H   0  0  0  0  0  0  0  0  0  0  0  0
   34.9410   30.7220   42.0550 H   0  0  0  0  0  0  0  0  0  0  0  0
   38.3570   27.4600   38.0090 C   0  0  2  0  0  3  0  0  0  0  0  0
   36.9250   27.1990   38.3390 C   0  0  1  0  0  3  0  0  0  0  0  0
   36.1180   27.0050   37.2490 O   0  0  0  0  0  0  0  0  0  0  0  0
   36.7550   26.8110   36.0610 C   0  0  0  0  0  2  0  0  0  0  0  0
   37.8100   27.8000   35.6920 C   0  0  2  0  0  3  0  0  0  0  0  0
   38.3650   28.5290   36.9110 C   0  0  2  0  0  3  0  0  0  0  0  0
   38.9720   26.3340   37.4380 O   0  0  0  0  0  0  0  0  0  0  0  0
   39.1310   25.7090   38.2090 H   0  0  0  0  0  0  0  0  0  0  0  0
   37.4420   28.6850   34.6780 O   0  0  0  0  0  0  0  0  0  0  0  0
   37.9610   29.5160   34.7920 H   0  0  0  0  0  0  0  0  0  0  0  0
   39.6610   28.9670   36.6440 O   0  0  0  0  0  0  0  0  0  0  0  0
   40.2200   29.0060   37.4660 H   0  0  0  0  0  0  0  0  0  0  0  0
  1 13  1  0  0  0  0
  1  2  1  0  0  0  0
  2  7  1  0  0  0  0
  3  2  2  0  0  0  0
  3  8  1  0  0  0  0
  4  3  1  0  0  0  0
  5  6  1  0  0  0  0
  5  4  2  0  0  0  0
  6  1  2  0  0  0  0
  9  4  1  0  0  0  0
 10  5  1  0  0  0  0
 11 18  1  0  0  0  0
 12 19  1  0  0  0  0
 12 11  2  0  0  0  0
 13 12  1  0  0  0  0
 14 13  2  0  0  0  0
 14 15  1  0  0  0  0
 15 16  2  0  0  0  0
 16 11  1  0  0  0  0
 17 15  1  0  0  0  0
 17 21  1  0  0  0  0
 20 17  1  0  0  0  0
 22 28  1  6  0  0  0
 22 23  1  0  0  0  0
 23  6  1  1  0  0  0
 24 23  1  0  0  0  0
 25 24  1  0  0  0  0
 26 30  1  6  0  0  0
 26 25  1  0  0  0  0
 26 27  1  0  0  0  0
 27 32  1  6  0  0  0
 27 22  1  0  0  0  0
 28 29  1  0  0  0  0
 30 31  1  0  0  0  0
 32 33  1  0  0  0  0
M  END
>  <minimizedAffinity>
-5.95932198

$$$$

 OpenBabel03252505353D

 33 35  0  0  1  0  0  0  0  0999 V2000
   38.4950   25.5150   41.2840 C   0  0  0  0  0  0  0  0  0  0  0  0
   39.1020   24.4810   41.9830 C   0  0  0  0  0  0  0  0  0  0  0  0
   39.8090   24.7060   43.1760 C   0  0  0  0  0  0  0  0  0  0  0  0
   39.9090   26.0020   43.6780 C   0  0  0  0  0  0  0  0  0  0  0  0
   39.2920   27.0060   42.9560 C   0  0  0  0  0  0  0  0  0  0  0  0
   38.6040   26.7820   41.7920 C   0  0  0  0  0  0  0  0  0  0  0  0
   39.0680   23.4510   41.6560 H   0  0  0  0  0  0  0  0  0  0  0  0
   40.2820   23.9030   43.7230 H   0  0  0  0  0  0  0  0  0  0  0  0
   40.4590   26.1520   44.6000 H   0  0  0  0  0  0  0  0  0  0  0  0
   39.4120   27.9830   43.4050 H   0  0  0  0  0  0  0  0  0  0  0  0
   35.9720   24.2740   38.7900 C   0  0  0  0  0  0  0  0  0  0  0  0
   36.5530   24.5610   40.0430 C   0  0  0  0  0  0  0  0  0  0  0  0
   37.8010   25.1740   40.0800 C   0  0  0  0  0  0  0  0  0  0  0  0
   38.4050   25.4670   38.8920 N   0  0  0  0  0  0  0  0  0  0  0  0
   37.8110   25.1740   37.7040 C   0  0  0  0  0  0  0  0  0  0  0  0
   36.6060   24.5830   37.6530 N   0  0  0  0  0  0  0  0  0  0  0  0
   38.4490   25.4750   36.4750 N   0  0  0  0  0  0  0  0  0  0  0  0
   35.0190   23.8060   38.8020 H   0  0  0  0  0  0  0  0  0  0  0  0
   36.1050   24.3430   40.9870 H   0  0  0  0  0  0  0  0  0  0  0  0
   38.2160   26.1760   35.7200 H   0  0  0  0  0  0  0  0  0  0  0  0
   39.2770   24.8460   36.3960 H   0  0  0  0  0  0  0  0  0  0  0  0
   36.5080   27.9630   41.3820 C   0  0  2  0  0  3  0  0  0  0  0  0
   37.9670   27.9120   41.0720 C   0  0  1  0  0  3  0  0  0  0  0  0
   38.6230   29.1030   41.2340 O   0  0  0  0  0  0  0  0  0  0  0  0
   37.9390   30.0770   41.8960 C   0  0  0  0  0  2  0  0  0  0  0  0
   36.5530   30.3670   41.4250 C   0  0  2  0  0  3  0  0  0  0  0  0
   35.9500   29.1950   40.6590 C   0  0  2  0  0  3  0  0  0  0  0  0
   36.2740   28.1950   42.7480 O   0  0  0  0  0  0  0  0  0  0  0  0
   36.4690   27.3160   43.1940 H   0  0  0  0  0  0  0  0  0  0  0  0
   36.4200   31.5680   40.7270 O   0  0  0  0  0  0  0  0  0  0  0  0
   35.6540   31.4830   40.1120 H   0  0  0  0  0  0  0  0  0  0  0  0
   34.5590   29.2430   40.7490 O   0  0  0  0  0  0  0  0  0  0  0  0
   34.1500   28.3380   40.7080 H   0  0  0  0  0  0  0  0  0  0  0  0
  1  6  2  0  0  0  0
  1  2  1  0  0  0  0
  2  3  2  0  0  0  0
  3  4  1  0  0  0  0
  3  8  1  0  0  0  0
  4  9  1  0  0  0  0
  5 10  1  0  0  0  0
  5  4  2  0  0  0  0
  6  5  1  0  0  0  0
  7  2  1  0  0  0  0
 11 18  1  0  0  0  0
 11 12  1  0  0  0  0
 12 13  2  0  0  0  0
 12 19  1  0  0  0  0
 13  1  1  0  0  0  0
 14 13  1  0  0  0  0
 15 14  2  0  0  0  0
 16 15  1  0  0  0  0
 16 11  2  0  0  0  0
 17 15  1  0  0  0  0
 20 17  1  0  0  0  0
 21 17  1  0  0  0  0
 22 28  1  1  0  0  0
 23 24  1  0  0  0  0
 23 22  1  0  0  0  0
 23  6  1  1  0  0  0
 24 25  1  0  0  0  0
 26 30  1  6  0  0  0
 26 25  1  0  0  0  0
 27 32  1  1  0  0  0
 27 22  1  0  0  0  0
 27 26  1  0  0  0  0
 28 29  1  0  0  0  0
 31 30  1  0  0  0  0
 33 32  1  0  0  0  0
M  END
>  <minimizedAffinity>
-5.94797277

$$$$

 OpenBabel03252505353D

 33 35  0  0  1  0  0  0  0  0999 V2000
   36.8400   28.3670   41.0330 C   0  0  0  0  0  0  0  0  0  0  0  0
   36.4510   27.6650   42.1650 C   0  0  0  0  0  0  0  0  0  0  0  0
   37.0080   27.9260   43.4290 C   0  0  0  0  0  0  0  0  0  0  0  0
   37.9800   28.9160   43.5550 C   0  0  0  0  0  0  0  0  0  0  0  0
   38.3420   29.5940   42.4060 C   0  0  0  0  0  0  0  0  0  0  0  0
   37.7960   29.3350   41.1760 C   0  0  0  0  0  0  0  0  0  0  0  0
   35.7040   26.8830   42.1450 H   0  0  0  0  0  0  0  0  0  0  0  0
   36.7080   27.3820   44.3120 H   0  0  0  0  0  0  0  0  0  0  0  0
   38.3960   29.1010   44.5390 H   0  0  0  0  0  0  0  0  0  0  0  0
   39.1000   30.3460   42.5820 H   0  0  0  0  0  0  0  0  0  0  0  0
   36.0060   26.8460   37.6980 C   0  0  0  0  0  0  0  0  0  0  0  0
   36.7240   27.1040   38.8840 C   0  0  0  0  0  0  0  0  0  0  0  0
   36.2080   28.0180   39.7970 C   0  0  0  0  0  0  0  0  0  0  0  0
   35.0230   28.6230   39.4950 N   0  0  0  0  0  0  0  0  0  0  0  0
   34.3600   28.3460   38.3400 C   0  0  0  0  0  0  0  0  0  0  0  0
   34.8460   27.4660   37.4500 N   0  0  0  0  0  0  0  0  0  0  0  0
   33.1330   28.9850   38.0310 N   0  0  0  0  0  0  0  0  0  0  0  0
   36.4310   26.1420   37.0260 H   0  0  0  0  0  0  0  0  0  0  0  0
   37.6530   26.6470   39.1470 H   0  0  0  0  0  0  0  0  0  0  0  0
   32.1470   28.6120   37.9670 H   0  0  0  0  0  0  0  0  0  0  0  0
   33.3460   29.9900   37.8520 H   0  0  0  0  0  0  0  0  0  0  0  0
   37.4270   31.3530   39.8550 C   0  0  2  0  0  3  0  0  0  0  0  0
   38.2360   30.1060   39.9870 C   0  0  1  0  0  3  0  0  0  0  0  0
   39.5910   30.3000   39.9300 O   0  0  0  0  0  0  0  0  0  0  0  0
   40.0140   31.5900   40.0330 C   0  0  0  0  0  2  0  0  0  0  0  0
   39.3620   32.5870   39.1350 C   0  0  2  0  0  3  0  0  0  0  0  0
   37.9940   32.1170   38.6520 C   0  0  2  0  0  3  0  0  0  0  0  0
   37.6050   32.2080   40.9550 O   0  0  0  0  0  0  0  0  0  0  0  0
   37.0700   31.7870   41.6960 H   0  0  0  0  0  0  0  0  0  0  0  0
   40.1640   33.0260   38.0810 O   0  0  0  0  0  0  0  0  0  0  0  0
   39.5730   33.3040   37.3410 H   0  0  0  0  0  0  0  0  0  0  0  0
   37.2030   33.2210   38.3390 O   0  0  0  0  0  0  0  0  0  0  0  0
   36.2350   33.0410   38.4810 H   0  0  0  0  0  0  0  0  0  0  0  0
  1  6  2  0  0  0  0
  1  2  1  0  0  0  0
  2  3  2  0  0  0  0
  3  4  1  0  0  0  0
  3  8  1  0  0  0  0
  4  9  1  0  0  0  0
  5 10  1  0  0  0  0
  5  4  2  0  0  0  0
  6  5  1  0  0  0  0
  7  2  1  0  0  0  0
 11 12  1  0  0  0  0
 12 19  1  0  0  0  0
 12 13  2  0  0  0  0
 13  1  1  0  0  0  0
 14 13  1  0  0  0  0
 15 14  2  0  0  0  0
 16 11  2  0  0  0  0
 16 15  1  0  0  0  0
 17 15  1  0  0  0  0
 18 11  1  0  0  0  0
 20 17  1  0  0  0  0
 21 17  1  0  0  0  0
 22 23  1  0  0  0  0
 22 28  1  1  0  0  0
 23  6  1  1  0  0  0
 24 23  1  0  0  0  0
 24 25  1  0  0  0  0
 26 30  1  6  0  0  0
 26 25  1  0  0  0  0
 27 32  1  1  0  0  0
 27 26  1  0  0  0  0
 27 22  1  0  0  0  0
 28 29  1  0  0  0  0
 31 30  1  0  0  0  0
 32 33  1  0  0  0  0
M  END
>  <minimizedAffinity>
-5.90218067

$$$$

 OpenBabel03252505353D

 33 35  0  0  1  0  0  0  0  0999 V2000
   36.6980   29.3150   38.2640 C   0  0  0  0  0  0  0  0  0  0  0  0
   35.8130   29.3490   37.1950 C   0  0  0  0  0  0  0  0  0  0  0  0
   34.9370   28.2850   36.9220 C   0  0  0  0  0  0  0  0  0  0  0  0
   34.9530   27.1600   37.7430 C   0  0  0  0  0  0  0  0  0  0  0  0
   35.8470   27.1610   38.7970 C   0  0  0  0  0  0  0  0  0  0  0  0
   36.7000   28.2010   39.0590 C   0  0  0  0  0  0  0  0  0  0  0  0
   35.7440   30.1880   36.5160 H   0  0  0  0  0  0  0  0  0  0  0  0
   34.2460   28.3090   36.0920 H   0  0  0  0  0  0  0  0  0  0  0  0
   34.2680   26.3510   37.5140 H   0  0  0  0  0  0  0  0  0  0  0  0
   35.8020   26.2560   39.3890 H   0  0  0  0  0  0  0  0  0  0  0  0
   39.6090   31.6920   38.2920 C   0  0  0  0  0  0  0  0  0  0  0  0
   38.8770   30.5110   38.0520 C   0  0  0  0  0  0  0  0  0  0  0  0
   37.5450   30.4530   38.4490 C   0  0  0  0  0  0  0  0  0  0  0  0
   37.0110   31.5530   39.0560 N   0  0  0  0  0  0  0  0  0  0  0  0
   37.7520   32.6740   39.2680 C   0  0  0  0  0  0  0  0  0  0  0  0
   39.0380   32.7440   38.8910 N   0  0  0  0  0  0  0  0  0  0  0  0
   37.1910   33.8090   39.9070 N   0  0  0  0  0  0  0  0  0  0  0  0
   40.6230   31.6980   37.9750 H   0  0  0  0  0  0  0  0  0  0  0  0
   39.2680   29.6360   37.5810 H   0  0  0  0  0  0  0  0  0  0  0  0
   36.9580   34.7720   39.5420 H   0  0  0  0  0  0  0  0  0  0  0  0
   37.0130   33.5470   40.9010 H   0  0  0  0  0  0  0  0  0  0  0  0
   37.0390   28.8170   41.3960 C   0  0  2  0  0  3  0  0  0  0  0  0
   37.6320   28.1300   40.2110 C   0  0  1  0  0  3  0  0  0  0  0  0
   38.0980   26.8660   40.4610 O   0  0  0  0  0  0  0  0  0  0  0  0
   37.7230   26.3170   41.6490 C   0  0  0  0  0  2  0  0  0  0  0  0
   37.9380   27.1440   42.8730 C   0  0  2  0  0  3  0  0  0  0  0  0
   38.0320   28.6320   42.5500 C   0  0  2  0  0  3  0  0  0  0  0  0
   35.8550   28.1930   41.8200 O   0  0  0  0  0  0  0  0  0  0  0  0
   35.1620   28.4750   41.1490 H   0  0  0  0  0  0  0  0  0  0  0  0
   38.9930   26.7190   43.6800 O   0  0  0  0  0  0  0  0  0  0  0  0
   39.3350   27.5000   44.1760 H   0  0  0  0  0  0  0  0  0  0  0  0
   37.6510   29.3770   43.6650 O   0  0  0  0  0  0  0  0  0  0  0  0
   37.2450   30.2490   43.4110 H   0  0  0  0  0  0  0  0  0  0  0  0
  1 13  1  0  0  0  0
  1  6  1  0  0  0  0
  2  1  2  0  0  0  0
  3  2  1  0  0  0  0
  3  4  2  0  0  0  0
  4  5  1  0  0  0  0
  5  6  2  0  0  0  0
  5 10  1  0  0  0  0
  7  2  1  0  0  0  0
  8  3  1  0  0  0  0
  9  4  1  0  0  0  0
 11 16  1  0  0  0  0
 12 11  2  0  0  0  0
 12 13  1  0  0  0  0
 13 14  2  0  0  0  0
 14 15  1  0  0  0  0
 15 17  1  0  0  0  0
 16 15  2  0  0  0  0
 17 21  1  0  0  0  0
 18 11  1  0  0  0  0
 19 12  1  0  0  0  0
 20 17  1  0  0  0  0
 22 28  1  1  0  0  0
 22 27  1  0  0  0  0
 23  6  1  6  0  0  0
 23 24  1  0  0  0  0
 23 22  1  0  0  0  0
 24 25  1  0  0  0  0
 25 26  1  0  0  0  0
 26 30  1  6  0  0  0
 27 26  1  0  0  0  0
 27 32  1  1  0  0  0
 29 28  1  0  0  0  0
 30 31  1  0  0  0  0
 33 32  1  0  0  0  0
M  END
>  <minimizedAffinity>
-5.89447689

$$$$

 OpenBabel03252505353D

 33 35  0  0  1  0  0  0  0  0999 V2000
   36.3620   25.7690   39.3980 C   0  0  0  0  0  0  0  0  0  0  0  0
   36.1500   24.4130   39.6040 C   0  0  0  0  0  0  0  0  0  0  0  0
   36.5060   23.7790   40.8060 C   0  0  0  0  0  0  0  0  0  0  0  0
   37.0910   24.5270   41.8260 C   0  0  0  0  0  0  0  0  0  0  0  0
   37.2870   25.8740   41.5860 C   0  0  0  0  0  0  0  0  0  0  0  0
   36.9380   26.4880   40.4110 C   0  0  0  0  0  0  0  0  0  0  0  0
   35.7020   23.7690   38.8600 H   0  0  0  0  0  0  0  0  0  0  0  0
   36.3410   22.7240   40.9700 H   0  0  0  0  0  0  0  0  0  0  0  0
   37.3570   24.0180   42.7450 H   0  0  0  0  0  0  0  0  0  0  0  0
   37.7440   26.3890   42.4210 H   0  0  0  0  0  0  0  0  0  0  0  0
   36.2880   26.9830   35.8420 C   0  0  0  0  0  0  0  0  0  0  0  0
   36.8020   26.4300   37.0340 C   0  0  0  0  0  0  0  0  0  0  0  0
   35.9620   26.3110   38.1360 C   0  0  0  0  0  0  0  0  0  0  0  0
   34.6730   26.7390   38.0070 N   0  0  0  0  0  0  0  0  0  0  0  0
   34.2150   27.2660   36.8390 C   0  0  0  0  0  0  0  0  0  0  0  0
   35.0150   27.3880   35.7670 N   0  0  0  0  0  0  0  0  0  0  0  0
   32.8770   27.7160   36.7160 N   0  0  0  0  0  0  0  0  0  0  0  0
   36.9590   27.0580   35.0230 H   0  0  0  0  0  0  0  0  0  0  0  0
   37.8050   26.0880   37.1650 H   0  0  0  0  0  0  0  0  0  0  0  0
   32.0630   27.3430   36.1550 H   0  0  0  0  0  0  0  0  0  0  0  0
   32.7790   28.5610   37.3190 H   0  0  0  0  0  0  0  0  0  0  0  0
   36.1780   28.7300   41.0010 C   0  0  2  0  0  3  0  0  0  0  0  0
   37.1790   27.9400   40.2270 C   0  0  1  0  0  3  0  0  0  0  0  0
   38.4810   28.3100   40.4390 O   0  0  0  0  0  0  0  0  0  0  0  0
   38.7020   29.1360   41.4980 C   0  0  0  0  0  2  0  0  0  0  0  0
   37.8490   30.3570   41.5900 C   0  0  2  0  0  3  0  0  0  0  0  0
   36.5460   30.2070   40.8120 C   0  0  2  0  0  3  0  0  0  0  0  0
   36.2840   28.4940   42.3820 O   0  0  0  0  0  0  0  0  0  0  0  0
   35.8680   27.5890   42.5200 H   0  0  0  0  0  0  0  0  0  0  0  0
   38.5080   31.5470   41.2780 O   0  0  0  0  0  0  0  0  0  0  0  0
   37.8380   32.1910   40.9460 H   0  0  0  0  0  0  0  0  0  0  0  0
   35.5740   31.0420   41.3620 O   0  0  0  0  0  0  0  0  0  0  0  0
   34.6570   30.6750   41.2470 H   0  0  0  0  0  0  0  0  0  0  0  0
  1  2  2  0  0  0  0
  1  6  1  0  0  0  0
  2  3  1  0  0  0  0
  3  8  1  0  0  0  0
  3  4  2  0  0  0  0
  4  9  1  0  0  0  0
  5  4  1  0  0  0  0
  5 10  1  0  0  0  0
  6  5  2  0  0  0  0
  7  2  1  0  0  0  0
 11 12  1  0  0  0  0
 12 19  1  0  0  0  0
 12 13  2  0  0  0  0
 13  1  1  0  0  0  0
 14 13  1  0  0  0  0
 15 14  2  0  0  0  0
 16 11  2  0  0  0  0
 16 15  1  0  0  0  0
 17 15  1  0  0  0  0
 17 21  1  0  0  0  0
 18 11  1  0  0  0  0
 20 17  1  0  0  0  0
 22 28  1  1  0  0  0
 23  6  1  1  0  0  0
 23 24  1  0  0  0  0
 23 22  1  0  0  0  0
 24 25  1  0  0  0  0
 25 26  1  0  0  0  0
 26 30  1  6  0  0  0
 27 22  1  0  0  0  0
 27 32  1  1  0  0  0
 27 26  1  0  0  0  0
 28 29  1  0  0  0  0
 31 30  1  0  0  0  0
 33 32  1  0  0  0  0
M  END
>  <minimizedAffinity>
-5.88242817

$$$$

 OpenBabel03252505353D

 33 35  0  0  1  0  0  0  0  0999 V2000
   36.7280   28.3040   39.7970 C   0  0  0  0  0  0  0  0  0  0  0  0
   36.1720   27.4030   38.9000 C   0  0  0  0  0  0  0  0  0  0  0  0
   35.6280   27.8170   37.6730 C   0  0  0  0  0  0  0  0  0  0  0  0
   35.6430   29.1700   37.3400 C   0  0  0  0  0  0  0  0  0  0  0  0
   36.2050   30.0370   38.2580 C   0  0  0  0  0  0  0  0  0  0  0  0
   36.7340   29.6290   39.4540 C   0  0  0  0  0  0  0  0  0  0  0  0
   36.1240   26.3390   39.0890 H   0  0  0  0  0  0  0  0  0  0  0  0
   35.1940   27.1180   36.9720 H   0  0  0  0  0  0  0  0  0  0  0  0
   35.2180   29.4670   36.3880 H   0  0  0  0  0  0  0  0  0  0  0  0
   36.1810   31.0690   37.9310 H   0  0  0  0  0  0  0  0  0  0  0  0
   37.2000   27.2310   43.3690 C   0  0  0  0  0  0  0  0  0  0  0  0
   36.5740   27.7860   42.2330 C   0  0  0  0  0  0  0  0  0  0  0  0
   37.2530   27.7730   41.0180 C   0  0  0  0  0  0  0  0  0  0  0  0
   38.5000   27.2200   40.9890 N   0  0  0  0  0  0  0  0  0  0  0  0
   39.0680   26.6940   42.1070 C   0  0  0  0  0  0  0  0  0  0  0  0
   38.4250   26.7000   43.2860 N   0  0  0  0  0  0  0  0  0  0  0  0
   40.3680   26.1300   42.0690 N   0  0  0  0  0  0  0  0  0  0  0  0
   36.6510   27.2590   44.2780 H   0  0  0  0  0  0  0  0  0  0  0  0
   35.6010   28.2250   42.2260 H   0  0  0  0  0  0  0  0  0  0  0  0
   40.7000   25.1320   42.1740 H   0  0  0  0  0  0  0  0  0  0  0  0
   41.0390   26.9110   41.9040 H   0  0  0  0  0  0  0  0  0  0  0  0
   38.7960   30.7160   40.1770 C   0  0  2  0  0  3  0  0  0  0  0  0
   37.3220   30.6200   40.3890 C   0  0  1  0  0  3  0  0  0  0  0  0
   36.6690   31.8250   40.3890 O   0  0  0  0  0  0  0  0  0  0  0  0
   37.3850   32.8920   39.9400 C   0  0  0  0  0  2  0  0  0  0  0  0
   38.7390   33.0940   40.5330 C   0  0  2  0  0  3  0  0  0  0  0  0
   39.3040   31.8080   41.1260 C   0  0  2  0  0  3  0  0  0  0  0  0
   39.1070   31.1710   38.8850 O   0  0  0  0  0  0  0  0  0  0  0  0
   38.9440   30.3800   38.2880 H   0  0  0  0  0  0  0  0  0  0  0  0
   38.8250   34.1610   41.4270 O   0  0  0  0  0  0  0  0  0  0  0  0
   39.5540   33.9710   42.0640 H   0  0  0  0  0  0  0  0  0  0  0  0
   40.6970   31.8650   41.1280 O   0  0  0  0  0  0  0  0  0  0  0  0
   41.1080   30.9630   41.0410 H   0  0  0  0  0  0  0  0  0  0  0  0
  1 13  1  0  0  0  0
  2  7  1  0  0  0  0
  2  1  2  0  0  0  0
  3  2  1  0  0  0  0
  4  3  2  0  0  0  0
  4  5  1  0  0  0  0
  5  6  2  0  0  0  0
  6  1  1  0  0  0  0
  8  3  1  0  0  0  0
  9  4  1  0  0  0  0
 10  5  1  0  0  0  0
 11 18  1  0  0  0  0
 12 11  2  0  0  0  0
 13 12  1  0  0  0  0
 14 13  2  0  0  0  0
 14 15  1  0  0  0  0
 15 16  2  0  0  0  0
 16 11  1  0  0  0  0
 17 15  1  0  0  0  0
 17 20  1  0  0  0  0
 19 12  1  0  0  0  0
 21 17  1  0  0  0  0
 22 28  1  6  0  0  0
 22 23  1  0  0  0  0
 22 27  1  0  0  0  0
 23  6  1  6  0  0  0
 24 23  1  0  0  0  0
 25 24  1  0  0  0  0
 25 26  1  0  0  0  0
 26 27  1  0  0  0  0
 26 30  1  1  0  0  0
 27 32  1  6  0  0  0
 29 28  1  0  0  0  0
 30 31  1  0  0  0  0
 33 32  1  0  0  0  0
M  END
>  <minimizedAffinity>
-5.82925844

$$$$
