
 OpenBabel03242521153D

 31 33  0  0  1  0  0  0  0  0999 V2000
   37.9100   27.6990   43.6800 C   0  0  0  0  0  0  0  0  0  0  0  0
   37.8980   29.0270   43.1720 C   0  0  0  0  0  0  0  0  0  0  0  0
   37.8420   29.1690   41.7810 C   0  0  0  0  0  0  0  0  0  0  0  0
   37.8030   28.0420   41.0200 N   0  0  0  0  0  0  0  0  0  0  0  0
   37.8150   26.8140   41.5320 C   0  0  0  0  0  0  0  0  0  0  0  0
   37.8690   26.6220   42.8750 N   0  0  0  0  0  0  0  0  0  0  0  0
   37.9540   27.5990   44.7690 H   0  0  0  0  0  0  0  0  0  0  0  0
   37.9330   29.8370   43.8820 H   0  0  0  0  0  0  0  0  0  0  0  0
   37.8300   30.4840   41.2570 N   0  0  0  0  0  0  0  0  0  0  0  0
   38.9870   31.1580   41.2020 C   0  0  0  0  0  0  0  0  0  0  0  0
   38.9830   32.4550   40.6860 C   0  0  0  0  0  0  0  0  0  0  0  0
   37.7790   32.9770   40.2580 C   0  0  0  0  0  0  0  0  0  0  0  0
   37.7880   34.1610   39.7900 O   0  0  0  0  0  0  0  0  0  0  0  0
   36.6070   32.3100   40.3070 N   0  0  0  0  0  0  0  0  0  0  0  0
   36.6920   31.0650   40.8170 C   0  0  0  0  0  0  0  0  0  0  0  0
   35.6650   30.3640   40.9070 O   0  0  0  0  0  0  0  0  0  0  0  0
   39.9170   30.7130   41.5490 H   0  0  0  0  0  0  0  0  0  0  0  0
   39.8870   33.0410   40.6200 H   0  0  0  0  0  0  0  0  0  0  0  0
   35.7010   32.7110   39.9810 H   0  0  0  0  0  0  0  0  0  0  0  0
   37.4770   24.3600   41.4370 C   0  0  2  0  0  3  0  0  0  0  0  0
   37.7710   25.6310   40.6560 C   0  0  1  0  0  3  0  0  0  0  0  0
   36.7910   25.6970   39.6640 O   0  0  0  0  0  0  0  0  0  0  0  0
   37.2100   24.8810   38.5890 C   0  0  0  0  0  2  0  0  0  0  0  0
   37.9480   23.6620   39.0680 C   0  0  1  0  0  3  0  0  0  0  0  0
   37.4290   23.2470   40.4280 C   0  0  1  0  0  3  0  0  0  0  0  0
   36.2720   24.4440   42.1300 O   0  0  0  0  0  0  0  0  0  0  0  0
   35.5140   24.7460   41.5600 H   0  0  0  0  0  0  0  0  0  0  0  0
   37.6510   22.5950   38.1900 O   0  0  0  0  0  0  0  0  0  0  0  0
   36.7020   22.3310   38.2210 H   0  0  0  0  0  0  0  0  0  0  0  0
   38.0450   22.0920   40.8700 O   0  0  0  0  0  0  0  0  0  0  0  0
   37.5100   21.6330   41.5650 H   0  0  0  0  0  0  0  0  0  0  0  0
  1  7  1  0  0  0  0
  2  1  1  0  0  0  0
  2  8  1  0  0  0  0
  3  2  2  0  0  0  0
  4  5  2  0  0  0  0
  4  3  1  0  0  0  0
  5  6  1  0  0  0  0
  6  1  2  0  0  0  0
  9  3  1  0  0  0  0
 10  9  1  0  0  0  0
 10 17  1  0  0  0  0
 11 10  2  0  0  0  0
 12 14  1  0  0  0  0
 12 11  1  0  0  0  0
 13 12  2  0  0  0  0
 14 15  1  0  0  0  0
 15 16  2  0  0  0  0
 15  9  1  0  0  0  0
 18 11  1  0  0  0  0
 19 14  1  0  0  0  0
 20 26  1  6  0  0  0
 21 20  1  0  0  0  0
 21  5  1  1  0  0  0
 22 21  1  0  0  0  0
 23 24  1  0  0  0  0
 23 22  1  0  0  0  0
 24 28  1  6  0  0  0
 24 25  1  0  0  0  0
 25 30  1  1  0  0  0
 25 20  1  0  0  0  0
 27 26  1  0  0  0  0
 28 29  1  0  0  0  0
 30 31  1  0  0  0  0
M  END
>  <minimizedAffinity>
-6.27281427

$$$$

 OpenBabel03242521153D

 31 33  0  0  1  0  0  0  0  0999 V2000
   37.3000   32.7730   39.9700 C   0  0  0  0  0  0  0  0  0  0  0  0
   37.0420   31.4850   40.5120 C   0  0  0  0  0  0  0  0  0  0  0  0
   38.0900   30.5580   40.4610 C   0  0  0  0  0  0  0  0  0  0  0  0
   39.2680   30.9490   39.9050 N   0  0  0  0  0  0  0  0  0  0  0  0
   39.4730   32.1660   39.4090 C   0  0  0  0  0  0  0  0  0  0  0  0
   38.4890   33.1010   39.4330 N   0  0  0  0  0  0  0  0  0  0  0  0
   36.4740   33.4900   40.0150 H   0  0  0  0  0  0  0  0  0  0  0  0
   36.0630   31.2990   40.9250 H   0  0  0  0  0  0  0  0  0  0  0  0
   37.8510   29.2690   40.9960 N   0  0  0  0  0  0  0  0  0  0  0  0
   37.2560   28.3570   40.2150 C   0  0  0  0  0  0  0  0  0  0  0  0
   37.0170   27.0840   40.7360 C   0  0  0  0  0  0  0  0  0  0  0  0
   37.4100   26.8310   42.0340 C   0  0  0  0  0  0  0  0  0  0  0  0
   37.1870   25.6660   42.4980 O   0  0  0  0  0  0  0  0  0  0  0  0
   38.0100   27.7400   42.8310 N   0  0  0  0  0  0  0  0  0  0  0  0
   38.2060   28.9440   42.2590 C   0  0  0  0  0  0  0  0  0  0  0  0
   38.7530   29.8550   42.9110 O   0  0  0  0  0  0  0  0  0  0  0  0
   36.9610   28.5920   39.1950 H   0  0  0  0  0  0  0  0  0  0  0  0
   36.5410   26.3120   40.1490 H   0  0  0  0  0  0  0  0  0  0  0  0
   38.3040   27.5430   43.8130 H   0  0  0  0  0  0  0  0  0  0  0  0
   40.9490   31.9380   37.4290 C   0  0  2  0  0  3  0  0  0  0  0  0
   40.7710   32.5310   38.8180 C   0  0  1  0  0  3  0  0  0  0  0  0
   40.9560   33.9070   38.6650 O   0  0  0  0  0  0  0  0  0  0  0  0
   42.3460   34.1610   38.6800 C   0  0  0  0  0  2  0  0  0  0  0  0
   43.1220   33.0530   38.0220 C   0  0  1  0  0  3  0  0  0  0  0  0
   42.2870   32.4130   36.9360 C   0  0  1  0  0  3  0  0  0  0  0  0
   39.9360   32.3410   36.5610 O   0  0  0  0  0  0  0  0  0  0  0  0
   39.7920   33.3250   36.5580 H   0  0  0  0  0  0  0  0  0  0  0  0
   44.2420   33.6240   37.3760 O   0  0  0  0  0  0  0  0  0  0  0  0
   43.9870   34.2160   36.6310 H   0  0  0  0  0  0  0  0  0  0  0  0
   42.9940   31.4300   36.2710 O   0  0  0  0  0  0  0  0  0  0  0  0
   42.6090   31.2400   35.3780 H   0  0  0  0  0  0  0  0  0  0  0  0
  1  7  1  0  0  0  0
  1  2  1  0  0  0  0
  2  8  1  0  0  0  0
  3  2  2  0  0  0  0
  3  9  1  0  0  0  0
  4  3  1  0  0  0  0
  5  6  1  0  0  0  0
  5  4  2  0  0  0  0
  6  1  2  0  0  0  0
  9 15  1  0  0  0  0
 10 11  2  0  0  0  0
 10  9  1  0  0  0  0
 11 12  1  0  0  0  0
 12 13  2  0  0  0  0
 12 14  1  0  0  0  0
 14 19  1  0  0  0  0
 15 14  1  0  0  0  0
 15 16  2  0  0  0  0
 17 10  1  0  0  0  0
 18 11  1  0  0  0  0
 20 26  1  6  0  0  0
 20 21  1  0  0  0  0
 21  5  1  6  0  0  0
 22 23  1  0  0  0  0
 22 21  1  0  0  0  0
 24 28  1  6  0  0  0
 24 23  1  0  0  0  0
 25 30  1  1  0  0  0
 25 20  1  0  0  0  0
 25 24  1  0  0  0  0
 27 26  1  0  0  0  0
 29 28  1  0  0  0  0
 31 30  1  0  0  0  0
M  END
>  <minimizedAffinity>
-6.26033735

$$$$

 OpenBabel03242521153D

 31 33  0  0  1  0  0  0  0  0999 V2000
   36.9770   28.3090   43.6410 C   0  0  0  0  0  0  0  0  0  0  0  0
   37.0110   26.9780   43.1430 C   0  0  0  0  0  0  0  0  0  0  0  0
   37.5020   26.8050   41.8430 C   0  0  0  0  0  0  0  0  0  0  0  0
   37.9070   27.9060   41.1560 N   0  0  0  0  0  0  0  0  0  0  0  0
   37.8610   29.1370   41.6570 C   0  0  0  0  0  0  0  0  0  0  0  0
   37.3930   29.3600   42.9120 N   0  0  0  0  0  0  0  0  0  0  0  0
   36.5920   28.4340   44.6580 H   0  0  0  0  0  0  0  0  0  0  0  0
   36.6600   26.1900   43.7880 H   0  0  0  0  0  0  0  0  0  0  0  0
   37.5430   25.4860   41.3300 N   0  0  0  0  0  0  0  0  0  0  0  0
   36.6580   25.1440   40.3830 C   0  0  0  0  0  0  0  0  0  0  0  0
   36.6930   23.8460   39.8720 C   0  0  0  0  0  0  0  0  0  0  0  0
   37.6430   22.9780   40.3710 C   0  0  0  0  0  0  0  0  0  0  0  0
   37.6650   21.7970   39.8970 O   0  0  0  0  0  0  0  0  0  0  0  0
   38.5400   23.3090   41.3230 N   0  0  0  0  0  0  0  0  0  0  0  0
   38.4440   24.5780   41.7670 C   0  0  0  0  0  0  0  0  0  0  0  0
   39.2270   24.9850   42.6480 O   0  0  0  0  0  0  0  0  0  0  0  0
   35.9230   25.8550   40.0130 H   0  0  0  0  0  0  0  0  0  0  0  0
   36.0030   23.5180   39.1080 H   0  0  0  0  0  0  0  0  0  0  0  0
   39.2560   22.6490   41.6970 H   0  0  0  0  0  0  0  0  0  0  0  0
   37.1640   30.9600   40.1270 C   0  0  2  0  0  3  0  0  0  0  0  0
   38.3140   30.2920   40.8640 C   0  0  1  0  0  3  0  0  0  0  0  0
   38.9100   31.3020   41.6230 O   0  0  0  0  0  0  0  0  0  0  0  0
   39.7950   32.0110   40.7810 C   0  0  0  0  0  2  0  0  0  0  0  0
   39.2680   32.1110   39.3760 C   0  0  1  0  0  3  0  0  0  0  0  0
   37.7560   32.1300   39.3930 C   0  0  1  0  0  3  0  0  0  0  0  0
   36.1660   31.3850   41.0010 O   0  0  0  0  0  0  0  0  0  0  0  0
   36.5160   31.9210   41.7620 H   0  0  0  0  0  0  0  0  0  0  0  0
   39.6740   33.3550   38.8420 O   0  0  0  0  0  0  0  0  0  0  0  0
   39.2630   34.1200   39.3090 H   0  0  0  0  0  0  0  0  0  0  0  0
   37.2410   32.2820   38.1200 O   0  0  0  0  0  0  0  0  0  0  0  0
   36.3110   32.6230   38.1370 H   0  0  0  0  0  0  0  0  0  0  0  0
  1  7  1  0  0  0  0
  2  1  1  0  0  0  0
  2  8  1  0  0  0  0
  3  2  2  0  0  0  0
  4  5  2  0  0  0  0
  4  3  1  0  0  0  0
  5  6  1  0  0  0  0
  6  1  2  0  0  0  0
  9 15  1  0  0  0  0
  9  3  1  0  0  0  0
 10  9  1  0  0  0  0
 11 12  1  0  0  0  0
 11 10  2  0  0  0  0
 12 14  1  0  0  0  0
 13 12  2  0  0  0  0
 14 19  1  0  0  0  0
 14 15  1  0  0  0  0
 15 16  2  0  0  0  0
 17 10  1  0  0  0  0
 18 11  1  0  0  0  0
 20 21  1  0  0  0  0
 20 26  1  1  0  0  0
 21 22  1  0  0  0  0
 21  5  1  1  0  0  0
 23 22  1  0  0  0  0
 24 28  1  1  0  0  0
 24 25  1  0  0  0  0
 24 23  1  0  0  0  0
 25 30  1  6  0  0  0
 25 20  1  0  0  0  0
 26 27  1  0  0  0  0
 28 29  1  0  0  0  0
 30 31  1  0  0  0  0
M  END
>  <minimizedAffinity>
-6.22852421

$$$$

 OpenBabel03242521153D

 31 33  0  0  1  0  0  0  0  0999 V2000
   36.2870   30.7480   41.0450 C   0  0  0  0  0  0  0  0  0  0  0  0
   37.2330   31.5660   40.3680 C   0  0  0  0  0  0  0  0  0  0  0  0
   38.4480   30.9660   40.0190 C   0  0  0  0  0  0  0  0  0  0  0  0
   38.6390   29.6600   40.3460 N   0  0  0  0  0  0  0  0  0  0  0  0
   37.7290   28.9250   40.9800 C   0  0  0  0  0  0  0  0  0  0  0  0
   36.5340   29.4600   41.3410 N   0  0  0  0  0  0  0  0  0  0  0  0
   35.3410   31.2270   41.3140 H   0  0  0  0  0  0  0  0  0  0  0  0
   36.9610   32.5900   40.1670 H   0  0  0  0  0  0  0  0  0  0  0  0
   39.4030   31.7650   39.3440 N   0  0  0  0  0  0  0  0  0  0  0  0
   40.2840   32.4600   40.0780 C   0  0  0  0  0  0  0  0  0  0  0  0
   41.2280   33.2490   39.4200 C   0  0  0  0  0  0  0  0  0  0  0  0
   41.2040   33.2730   38.0400 C   0  0  0  0  0  0  0  0  0  0  0  0
   42.0700   33.9970   37.4510 O   0  0  0  0  0  0  0  0  0  0  0  0
   40.3230   32.5790   37.2890 N   0  0  0  0  0  0  0  0  0  0  0  0
   39.4440   31.8410   37.9950 C   0  0  0  0  0  0  0  0  0  0  0  0
   38.5870   31.1620   37.3970 O   0  0  0  0  0  0  0  0  0  0  0  0
   40.2740   32.4160   41.1640 H   0  0  0  0  0  0  0  0  0  0  0  0
   41.9600   33.8280   39.9630 H   0  0  0  0  0  0  0  0  0  0  0  0
   40.3100   32.6010   36.2460 H   0  0  0  0  0  0  0  0  0  0  0  0
   38.5820   27.3570   42.7010 C   0  0  2  0  0  3  0  0  0  0  0  0
   37.9930   27.5140   41.3080 C   0  0  1  0  0  3  0  0  0  0  0  0
   36.8540   26.7060   41.2890 O   0  0  0  0  0  0  0  0  0  0  0  0
   37.2670   25.3830   41.0190 C   0  0  0  0  0  2  0  0  0  0  0  0
   38.5990   25.0750   41.6470 C   0  0  1  0  0  3  0  0  0  0  0  0
   38.7680   25.8820   42.9160 C   0  0  1  0  0  3  0  0  0  0  0  0
   37.7470   27.8930   43.6800 O   0  0  0  0  0  0  0  0  0  0  0  0
   36.8070   27.5770   43.6070 H   0  0  0  0  0  0  0  0  0  0  0  0
   38.5970   23.7170   42.0390 O   0  0  0  0  0  0  0  0  0  0  0  0
   37.9440   23.5300   42.7530 H   0  0  0  0  0  0  0  0  0  0  0  0
   39.9570   25.5770   43.5500 O   0  0  0  0  0  0  0  0  0  0  0  0
   39.9370   25.8260   44.5090 H   0  0  0  0  0  0  0  0  0  0  0  0
  1  7  1  0  0  0  0
  1  6  1  0  0  0  0
  2  1  2  0  0  0  0
  3  4  2  0  0  0  0
  3  2  1  0  0  0  0
  4  5  1  0  0  0  0
  5  6  2  0  0  0  0
  8  2  1  0  0  0  0
  9  3  1  0  0  0  0
  9 10  1  0  0  0  0
 10 17  1  0  0  0  0
 11 18  1  0  0  0  0
 11 10  2  0  0  0  0
 12 11  1  0  0  0  0
 13 12  2  0  0  0  0
 14 15  1  0  0  0  0
 14 12  1  0  0  0  0
 15  9  1  0  0  0  0
 16 15  2  0  0  0  0
 19 14  1  0  0  0  0
 20 25  1  0  0  0  0
 20 26  1  1  0  0  0
 21  5  1  1  0  0  0
 21 20  1  0  0  0  0
 22 21  1  0  0  0  0
 23 22  1  0  0  0  0
 23 24  1  0  0  0  0
 24 28  1  1  0  0  0
 24 25  1  0  0  0  0
 25 30  1  6  0  0  0
 27 26  1  0  0  0  0
 28 29  1  0  0  0  0
 30 31  1  0  0  0  0
M  END
>  <minimizedAffinity>
-6.13608551

$$$$

 OpenBabel03242521153D

 31 33  0  0  1  0  0  0  0  0999 V2000
   39.7060   28.2460   43.2160 C   0  0  0  0  0  0  0  0  0  0  0  0
   39.3240   26.9920   42.6670 C   0  0  0  0  0  0  0  0  0  0  0  0
   38.5390   27.0250   41.5090 C   0  0  0  0  0  0  0  0  0  0  0  0
   38.2010   28.2370   40.9940 N   0  0  0  0  0  0  0  0  0  0  0  0
   38.5780   29.3920   41.5370 C   0  0  0  0  0  0  0  0  0  0  0  0
   39.3400   29.4150   42.6610 N   0  0  0  0  0  0  0  0  0  0  0  0
   40.3190   28.2100   44.1220 H   0  0  0  0  0  0  0  0  0  0  0  0
   39.6570   26.0990   43.1710 H   0  0  0  0  0  0  0  0  0  0  0  0
   38.1490   25.7850   40.9470 N   0  0  0  0  0  0  0  0  0  0  0  0
   37.0530   25.1840   41.4310 C   0  0  0  0  0  0  0  0  0  0  0  0
   36.6620   23.9620   40.8820 C   0  0  0  0  0  0  0  0  0  0  0  0
   37.4290   23.4350   39.8630 C   0  0  0  0  0  0  0  0  0  0  0  0
   37.0620   22.3190   39.3710 O   0  0  0  0  0  0  0  0  0  0  0  0
   38.5330   24.0290   39.3650 N   0  0  0  0  0  0  0  0  0  0  0  0
   38.8470   25.2040   39.9460 C   0  0  0  0  0  0  0  0  0  0  0  0
   39.8510   25.8350   39.5590 O   0  0  0  0  0  0  0  0  0  0  0  0
   36.4730   25.6300   42.2360 H   0  0  0  0  0  0  0  0  0  0  0  0
   35.7880   23.4360   41.2360 H   0  0  0  0  0  0  0  0  0  0  0  0
   39.1090   23.6260   38.5950 H   0  0  0  0  0  0  0  0  0  0  0  0
   39.1420   31.7950   41.2990 C   0  0  2  0  0  3  0  0  0  0  0  0
   38.1800   30.6750   40.9350 C   0  0  1  0  0  3  0  0  0  0  0  0
   38.1380   30.6570   39.5390 O   0  0  0  0  0  0  0  0  0  0  0  0
   37.2210   31.6470   39.1210 C   0  0  0  0  0  2  0  0  0  0  0  0
   37.2540   32.8520   40.0210 C   0  0  1  0  0  3  0  0  0  0  0  0
   38.6410   33.0270   40.5990 C   0  0  1  0  0  3  0  0  0  0  0  0
   40.4470   31.5060   40.9060 O   0  0  0  0  0  0  0  0  0  0  0  0
   40.5140   31.2160   39.9560 H   0  0  0  0  0  0  0  0  0  0  0  0
   37.0070   33.9980   39.2310 O   0  0  0  0  0  0  0  0  0  0  0  0
   37.7240   34.1670   38.5750 H   0  0  0  0  0  0  0  0  0  0  0  0
   38.7190   34.1610   41.3830 O   0  0  0  0  0  0  0  0  0  0  0  0
   39.6540   34.4700   41.4910 H   0  0  0  0  0  0  0  0  0  0  0  0
  1  7  1  0  0  0  0
  2  8  1  0  0  0  0
  2  1  1  0  0  0  0
  3  2  2  0  0  0  0
  4  3  1  0  0  0  0
  4  5  2  0  0  0  0
  5  6  1  0  0  0  0
  6  1  2  0  0  0  0
  9 10  1  0  0  0  0
  9  3  1  0  0  0  0
 10 17  1  0  0  0  0
 11 18  1  0  0  0  0
 11 10  2  0  0  0  0
 12 11  1  0  0  0  0
 13 12  2  0  0  0  0
 14 12  1  0  0  0  0
 14 15  1  0  0  0  0
 15  9  1  0  0  0  0
 16 15  2  0  0  0  0
 19 14  1  0  0  0  0
 20 26  1  6  0  0  0
 21 20  1  0  0  0  0
 21  5  1  6  0  0  0
 22 21  1  0  0  0  0
 23 22  1  0  0  0  0
 23 24  1  0  0  0  0
 24 28  1  6  0  0  0
 24 25  1  0  0  0  0
 25 20  1  0  0  0  0
 25 30  1  1  0  0  0
 27 26  1  0  0  0  0
 29 28  1  0  0  0  0
 30 31  1  0  0  0  0
M  END
>  <minimizedAffinity>
-5.78929377

$$$$

 OpenBabel03242521153D

 31 33  0  0  1  0  0  0  0  0999 V2000
   38.8760   29.9590   42.8170 C   0  0  0  0  0  0  0  0  0  0  0  0
   38.5470   28.5830   42.6690 C   0  0  0  0  0  0  0  0  0  0  0  0
   38.8310   27.9980   41.4300 C   0  0  0  0  0  0  0  0  0  0  0  0
   39.3940   28.7730   40.4650 N   0  0  0  0  0  0  0  0  0  0  0  0
   39.6890   30.0590   40.6410 C   0  0  0  0  0  0  0  0  0  0  0  0
   39.4330   30.6750   41.8240 N   0  0  0  0  0  0  0  0  0  0  0  0
   38.6510   30.4070   43.7900 H   0  0  0  0  0  0  0  0  0  0  0  0
   38.1030   28.0780   43.5120 H   0  0  0  0  0  0  0  0  0  0  0  0
   38.5100   26.6290   41.2640 N   0  0  0  0  0  0  0  0  0  0  0  0
   39.4200   25.7140   41.6270 C   0  0  0  0  0  0  0  0  0  0  0  0
   39.1110   24.3620   41.4670 C   0  0  0  0  0  0  0  0  0  0  0  0
   37.8780   24.0380   40.9390 C   0  0  0  0  0  0  0  0  0  0  0  0
   37.6080   22.8020   40.7970 O   0  0  0  0  0  0  0  0  0  0  0  0
   36.9520   24.9480   40.5700 N   0  0  0  0  0  0  0  0  0  0  0  0
   37.3230   26.2310   40.7550 C   0  0  0  0  0  0  0  0  0  0  0  0
   36.5400   27.1500   40.4450 O   0  0  0  0  0  0  0  0  0  0  0  0
   40.3820   26.0070   42.0410 H   0  0  0  0  0  0  0  0  0  0  0  0
   39.8080   23.5850   41.7430 H   0  0  0  0  0  0  0  0  0  0  0  0
   36.0210   24.6970   40.1710 H   0  0  0  0  0  0  0  0  0  0  0  0
   39.2510   31.5850   38.7370 C   0  0  2  0  0  3  0  0  0  0  0  0
   40.2970   30.8490   39.5580 C   0  0  1  0  0  3  0  0  0  0  0  0
   41.1840   31.8310   40.0030 O   0  0  0  0  0  0  0  0  0  0  0  0
   42.1070   32.0850   38.9640 C   0  0  0  0  0  2  0  0  0  0  0  0
   41.4630   31.9780   37.6090 C   0  0  1  0  0  3  0  0  0  0  0  0
   40.0040   32.3700   37.6990 C   0  0  1  0  0  3  0  0  0  0  0  0
   38.4780   32.4340   39.5250 O   0  0  0  0  0  0  0  0  0  0  0  0
   39.0210   33.0320   40.1060 H   0  0  0  0  0  0  0  0  0  0  0  0
   42.0750   32.9240   36.7560 O   0  0  0  0  0  0  0  0  0  0  0  0
   41.9000   33.8540   37.0340 H   0  0  0  0  0  0  0  0  0  0  0  0
   39.3990   32.3400   36.4580 O   0  0  0  0  0  0  0  0  0  0  0  0
   38.5760   32.8920   36.4370 H   0  0  0  0  0  0  0  0  0  0  0  0
  1  7  1  0  0  0  0
  2  1  1  0  0  0  0
  2  8  1  0  0  0  0
  3  2  2  0  0  0  0
  4  5  2  0  0  0  0
  4  3  1  0  0  0  0
  5  6  1  0  0  0  0
  6  1  2  0  0  0  0
  9  3  1  0  0  0  0
  9 10  1  0  0  0  0
 10 17  1  0  0  0  0
 11 10  2  0  0  0  0
 11 18  1  0  0  0  0
 12 11  1  0  0  0  0
 13 12  2  0  0  0  0
 14 15  1  0  0  0  0
 14 12  1  0  0  0  0
 15  9  1  0  0  0  0
 16 15  2  0  0  0  0
 19 14  1  0  0  0  0
 20 26  1  1  0  0  0
 20 21  1  0  0  0  0
 21 22  1  0  0  0  0
 21  5  1  1  0  0  0
 23 22  1  0  0  0  0
 24 28  1  6  0  0  0
 24 25  1  0  0  0  0
 24 23  1  0  0  0  0
 25 30  1  6  0  0  0
 25 20  1  0  0  0  0
 26 27  1  0  0  0  0
 28 29  1  0  0  0  0
 31 30  1  0  0  0  0
M  END
>  <minimizedAffinity>
-5.62893867

$$$$

 OpenBabel03242521153D

 31 33  0  0  1  0  0  0  0  0999 V2000
   36.8560   26.7630   40.5480 C   0  0  0  0  0  0  0  0  0  0  0  0
   36.4420   26.4130   39.2340 C   0  0  0  0  0  0  0  0  0  0  0  0
   36.5390   27.4100   38.2560 C   0  0  0  0  0  0  0  0  0  0  0  0
   37.0160   28.6290   38.6250 N   0  0  0  0  0  0  0  0  0  0  0  0
   37.3950   28.9200   39.8670 C   0  0  0  0  0  0  0  0  0  0  0  0
   37.3210   27.9880   40.8520 N   0  0  0  0  0  0  0  0  0  0  0  0
   36.7760   25.9760   41.3040 H   0  0  0  0  0  0  0  0  0  0  0  0
   36.0810   25.4110   39.0700 H   0  0  0  0  0  0  0  0  0  0  0  0
   36.1310   27.0800   36.9410 N   0  0  0  0  0  0  0  0  0  0  0  0
   34.8230   27.1230   36.6510 C   0  0  0  0  0  0  0  0  0  0  0  0
   34.4140   26.7990   35.3560 C   0  0  0  0  0  0  0  0  0  0  0  0
   35.3840   26.4500   34.4390 C   0  0  0  0  0  0  0  0  0  0  0  0
   34.9980   26.1560   33.2620 O   0  0  0  0  0  0  0  0  0  0  0  0
   36.7030   26.4030   34.7170 N   0  0  0  0  0  0  0  0  0  0  0  0
   37.0200   26.7280   35.9860 C   0  0  0  0  0  0  0  0  0  0  0  0
   38.2140   26.7160   36.3470 O   0  0  0  0  0  0  0  0  0  0  0  0
   34.0870   27.4030   37.4000 H   0  0  0  0  0  0  0  0  0  0  0  0
   33.3730   26.8180   35.0700 H   0  0  0  0  0  0  0  0  0  0  0  0
   37.4320   26.1380   34.0190 H   0  0  0  0  0  0  0  0  0  0  0  0
   36.7950   31.3000   40.2200 C   0  0  2  0  0  3  0  0  0  0  0  0
   37.9040   30.2590   40.2070 C   0  0  1  0  0  3  0  0  0  0  0  0
   38.5030   30.3340   41.4660 O   0  0  0  0  0  0  0  0  0  0  0  0
   39.4330   31.3970   41.4400 C   0  0  0  0  0  2  0  0  0  0  0  0
   38.9520   32.5370   40.5840 C   0  0  1  0  0  3  0  0  0  0  0  0
   37.4410   32.5990   40.6100 C   0  0  1  0  0  3  0  0  0  0  0  0
   35.7830   30.9670   41.1170 O   0  0  0  0  0  0  0  0  0  0  0  0
   36.1240   30.7380   42.0230 H   0  0  0  0  0  0  0  0  0  0  0  0
   39.4080   33.7430   41.1630 O   0  0  0  0  0  0  0  0  0  0  0  0
   39.0040   33.9170   42.0450 H   0  0  0  0  0  0  0  0  0  0  0  0
   36.9700   33.6740   39.8810 O   0  0  0  0  0  0  0  0  0  0  0  0
   36.0490   33.9250   40.1490 H   0  0  0  0  0  0  0  0  0  0  0  0
  1  6  1  0  0  0  0
  1  7  1  0  0  0  0
  2  1  2  0  0  0  0
  3  4  2  0  0  0  0
  3  2  1  0  0  0  0
  4  5  1  0  0  0  0
  5  6  2  0  0  0  0
  8  2  1  0  0  0  0
  9  3  1  0  0  0  0
 10  9  1  0  0  0  0
 10 17  1  0  0  0  0
 11 10  2  0  0  0  0
 12 14  1  0  0  0  0
 12 11  1  0  0  0  0
 13 12  2  0  0  0  0
 14 15  1  0  0  0  0
 15 16  2  0  0  0  0
 15  9  1  0  0  0  0
 18 11  1  0  0  0  0
 19 14  1  0  0  0  0
 20 25  1  0  0  0  0
 20 26  1  1  0  0  0
 21  5  1  1  0  0  0
 21 20  1  0  0  0  0
 21 22  1  0  0  0  0
 23 22  1  0  0  0  0
 24 25  1  0  0  0  0
 24 28  1  1  0  0  0
 24 23  1  0  0  0  0
 25 30  1  6  0  0  0
 26 27  1  0  0  0  0
 28 29  1  0  0  0  0
 30 31  1  0  0  0  0
M  END
>  <minimizedAffinity>
-5.52783155

$$$$

 OpenBabel03242521153D

 31 33  0  0  1  0  0  0  0  0999 V2000
   36.2080   30.7720   41.0340 C   0  0  0  0  0  0  0  0  0  0  0  0
   37.2110   31.5070   40.3450 C   0  0  0  0  0  0  0  0  0  0  0  0
   38.3800   30.8150   40.0100 C   0  0  0  0  0  0  0  0  0  0  0  0
   38.4760   29.5050   40.3630 N   0  0  0  0  0  0  0  0  0  0  0  0
   37.5150   28.8500   41.0080 C   0  0  0  0  0  0  0  0  0  0  0  0
   36.3610   29.4750   41.3560 N   0  0  0  0  0  0  0  0  0  0  0  0
   35.2980   31.3230   41.2920 H   0  0  0  0  0  0  0  0  0  0  0  0
   37.0130   32.5430   40.1230 H   0  0  0  0  0  0  0  0  0  0  0  0
   39.3900   31.5300   39.3220 N   0  0  0  0  0  0  0  0  0  0  0  0
   39.3930   31.4980   37.9820 C   0  0  0  0  0  0  0  0  0  0  0  0
   40.3850   32.2000   37.2980 C   0  0  0  0  0  0  0  0  0  0  0  0
   41.3170   32.8950   38.0410 C   0  0  0  0  0  0  0  0  0  0  0  0
   42.2180   33.5320   37.4060 O   0  0  0  0  0  0  0  0  0  0  0  0
   41.3260   32.9370   39.3900 N   0  0  0  0  0  0  0  0  0  0  0  0
   40.3380   32.2350   39.9790 C   0  0  0  0  0  0  0  0  0  0  0  0
   40.2570   32.2070   41.2230 O   0  0  0  0  0  0  0  0  0  0  0  0
   38.6410   30.9390   37.4290 H   0  0  0  0  0  0  0  0  0  0  0  0
   40.4330   32.2070   36.2190 H   0  0  0  0  0  0  0  0  0  0  0  0
   42.0340   33.4640   39.9470 H   0  0  0  0  0  0  0  0  0  0  0  0
   37.1040   26.5100   40.2980 C   0  0  2  0  0  3  0  0  0  0  0  0
   37.6760   27.4300   41.3650 C   0  0  1  0  0  3  0  0  0  0  0  0
   39.0060   27.0350   41.5270 O   0  0  0  0  0  0  0  0  0  0  0  0
   39.0230   25.9270   42.4040 C   0  0  0  0  0  2  0  0  0  0  0  0
   37.8220   25.0430   42.2090 C   0  0  1  0  0  3  0  0  0  0  0  0
   37.3640   25.1070   40.7680 C   0  0  1  0  0  3  0  0  0  0  0  0
   37.6960   26.7260   39.0560 O   0  0  0  0  0  0  0  0  0  0  0  0
   38.6910   26.7260   39.0910 H   0  0  0  0  0  0  0  0  0  0  0  0
   38.2180   23.7060   42.4400 O   0  0  0  0  0  0  0  0  0  0  0  0
   38.8660   23.3830   41.7730 H   0  0  0  0  0  0  0  0  0  0  0  0
   36.2970   24.2580   40.5430 O   0  0  0  0  0  0  0  0  0  0  0  0
   36.2010   24.0350   39.5820 H   0  0  0  0  0  0  0  0  0  0  0  0
  1  7  1  0  0  0  0
  1  6  1  0  0  0  0
  2  1  2  0  0  0  0
  3  2  1  0  0  0  0
  3  4  2  0  0  0  0
  4  5  1  0  0  0  0
  5  6  2  0  0  0  0
  8  2  1  0  0  0  0
  9 15  1  0  0  0  0
  9  3  1  0  0  0  0
 10  9  1  0  0  0  0
 11 10  2  0  0  0  0
 11 12  1  0  0  0  0
 12 14  1  0  0  0  0
 13 12  2  0  0  0  0
 14 19  1  0  0  0  0
 14 15  1  0  0  0  0
 15 16  2  0  0  0  0
 17 10  1  0  0  0  0
 18 11  1  0  0  0  0
 20 26  1  6  0  0  0
 20 25  1  0  0  0  0
 20 21  1  0  0  0  0
 21  5  1  6  0  0  0
 21 22  1  0  0  0  0
 22 23  1  0  0  0  0
 24 23  1  0  0  0  0
 24 28  1  6  0  0  0
 25 30  1  1  0  0  0
 25 24  1  0  0  0  0
 26 27  1  0  0  0  0
 29 28  1  0  0  0  0
 31 30  1  0  0  0  0
M  END
>  <minimizedAffinity>
-5.43199539

$$$$

 OpenBabel03242521153D

 31 33  0  0  1  0  0  0  0  0999 V2000
   38.5800   28.2950   36.6020 C   0  0  0  0  0  0  0  0  0  0  0  0
   37.1930   28.1630   36.3180 C   0  0  0  0  0  0  0  0  0  0  0  0
   36.3410   29.1210   36.8790 C   0  0  0  0  0  0  0  0  0  0  0  0
   36.8900   30.0990   37.6480 N   0  0  0  0  0  0  0  0  0  0  0  0
   38.1940   30.1910   37.8910 C   0  0  0  0  0  0  0  0  0  0  0  0
   39.0640   29.2870   37.3710 N   0  0  0  0  0  0  0  0  0  0  0  0
   39.2370   27.5410   36.1580 H   0  0  0  0  0  0  0  0  0  0  0  0
   36.8830   27.3410   35.6930 H   0  0  0  0  0  0  0  0  0  0  0  0
   34.9560   29.0050   36.6070 N   0  0  0  0  0  0  0  0  0  0  0  0
   34.5290   29.2580   35.3620 C   0  0  0  0  0  0  0  0  0  0  0  0
   33.1660   29.1460   35.0860 C   0  0  0  0  0  0  0  0  0  0  0  0
   32.3240   28.7790   36.1170 C   0  0  0  0  0  0  0  0  0  0  0  0
   31.0830   28.6810   35.8530 O   0  0  0  0  0  0  0  0  0  0  0  0
   32.7410   28.5210   37.3740 N   0  0  0  0  0  0  0  0  0  0  0  0
   34.0690   28.6500   37.5630 C   0  0  0  0  0  0  0  0  0  0  0  0
   34.5560   28.4350   38.6900 O   0  0  0  0  0  0  0  0  0  0  0  0
   35.2220   29.5440   34.5740 H   0  0  0  0  0  0  0  0  0  0  0  0
   32.7690   29.3380   34.1000 H   0  0  0  0  0  0  0  0  0  0  0  0
   32.0990   28.2450   38.1500 H   0  0  0  0  0  0  0  0  0  0  0  0
   40.0370   31.8250   38.1820 C   0  0  2  0  0  3  0  0  0  0  0  0
   38.7310   31.2740   38.7330 C   0  0  1  0  0  3  0  0  0  0  0  0
   37.8800   32.3750   38.8500 O   0  0  0  0  0  0  0  0  0  0  0  0
   38.1770   33.0230   40.0690 C   0  0  0  0  0  2  0  0  0  0  0  0
   39.6460   32.9620   40.3890 C   0  0  1  0  0  3  0  0  0  0  0  0
   40.4510   32.9330   39.1090 C   0  0  1  0  0  3  0  0  0  0  0  0
   39.8900   32.3030   36.8820 O   0  0  0  0  0  0  0  0  0  0  0  0
   39.1210   32.9260   36.7790 H   0  0  0  0  0  0  0  0  0  0  0  0
   40.0010   34.1590   41.0530 O   0  0  0  0  0  0  0  0  0  0  0  0
   39.9120   34.9530   40.4760 H   0  0  0  0  0  0  0  0  0  0  0  0
   41.8080   32.9380   39.3690 O   0  0  0  0  0  0  0  0  0  0  0  0
   42.3310   33.2480   38.5870 H   0  0  0  0  0  0  0  0  0  0  0  0
  1  6  1  0  0  0  0
  2  1  2  0  0  0  0
  2  3  1  0  0  0  0
  3  4  2  0  0  0  0
  4  5  1  0  0  0  0
  6  5  2  0  0  0  0
  7  1  1  0  0  0  0
  8  2  1  0  0  0  0
  9  3  1  0  0  0  0
  9 15  1  0  0  0  0
 10  9  1  0  0  0  0
 11 10  2  0  0  0  0
 11 12  1  0  0  0  0
 12 14  1  0  0  0  0
 13 12  2  0  0  0  0
 14 15  1  0  0  0  0
 14 19  1  0  0  0  0
 15 16  2  0  0  0  0
 17 10  1  0  0  0  0
 18 11  1  0  0  0  0
 20 26  1  6  0  0  0
 20 21  1  0  0  0  0
 20 25  1  0  0  0  0
 21  5  1  6  0  0  0
 21 22  1  0  0  0  0
 22 23  1  0  0  0  0
 23 24  1  0  0  0  0
 24 28  1  1  0  0  0
 25 30  1  1  0  0  0
 25 24  1  0  0  0  0
 27 26  1  0  0  0  0
 29 28  1  0  0  0  0
 31 30  1  0  0  0  0
M  END
>  <minimizedAffinity>
-5.39916134

$$$$
