
     RDKit          3D

 53 55  0  0  0  0  0  0  0  0999 V2000
   46.5735   34.9082   43.2483 O   0  0  0  0  0  0  0  0  0  0  0  0
   46.8055   33.9737   42.2307 C   0  0  1  0  0  0  0  0  0  0  0  0
   46.0793   34.4099   40.9548 C   0  0  0  0  0  0  0  0  0  0  0  0
   46.6868   33.4714   39.9452 C   0  0  0  0  0  0  0  0  0  0  0  0
   48.0757   33.1429   40.4720 C   0  0  0  0  0  0  0  0  0  0  0  0
   48.2210   33.9623   41.7463 C   0  0  1  0  0  0  0  0  0  0  0  0
   48.7608   35.3377   41.4637 C   0  0  0  0  0  0  0  0  0  0  0  0
   49.6552   35.7595   42.4224 O   0  0  0  0  0  0  0  0  0  0  0  0
   44.7236   35.3508   44.9894 O   0  0  0  0  0  0  0  0  0  0  0  0
   45.5762   34.2398   44.4109 P   0  0  1  0  0  0  0  0  0  0  0  0
   44.6044   33.0396   43.7147 O   0  0  0  0  0  0  0  0  0  0  0  0
   46.4695   33.4932   45.6034 O   0  0  0  0  0  0  0  0  0  0  0  0
   46.2281   32.1558   45.5705 C   0  0  0  0  0  0  0  0  0  0  0  0
   45.6627   31.8988   49.2384 C   0  0  0  0  0  0  0  0  0  0  0  0
   45.9957   32.4478   47.9891 C   0  0  0  0  0  0  0  0  0  0  0  0
   45.8824   31.6075   46.8930 C   0  0  0  0  0  0  0  0  0  0  0  0
   45.4624   30.3176   47.0764 N   0  0  0  0  0  0  0  0  0  0  0  0
   45.1495   29.8187   48.2907 C   0  0  0  0  0  0  0  0  0  0  0  0
   45.2520   30.6107   49.3570 N   0  0  0  0  0  0  0  0  0  0  0  0
   46.4577   32.9665   42.4579 H   0  0  0  0  0  0  0  0  0  0  0  0
   46.1711   35.4670   40.7338 H   0  0  0  0  0  0  0  0  0  0  0  0
   45.0020   34.1724   41.0570 H   0  0  0  0  0  0  0  0  0  0  0  0
   46.1052   32.5069   40.0034 H   0  0  0  0  0  0  0  0  0  0  0  0
   46.7018   33.8722   38.9243 H   0  0  0  0  0  0  0  0  0  0  0  0
   48.7852   33.5882   39.7410 H   0  0  0  0  0  0  0  0  0  0  0  0
   48.2389   32.0783   40.6465 H   0  0  0  0  0  0  0  0  0  0  0  0
   48.9065   33.4477   42.4384 H   0  0  0  0  0  0  0  0  0  0  0  0
   47.9971   36.1241   41.3641 H   0  0  0  0  0  0  0  0  0  0  0  0
   49.3063   35.2743   40.4849 H   0  0  0  0  0  0  0  0  0  0  0  0
   50.3393   35.0786   42.6084 H   0  0  0  0  0  0  0  0  0  0  0  0
   43.7661   33.4562   43.3914 H   0  0  0  0  0  0  0  0  0  0  0  0
   47.2064   31.6663   45.2958 H   0  0  0  0  0  0  0  0  0  0  0  0
   45.5037   31.7776   44.8550 H   0  0  0  0  0  0  0  0  0  0  0  0
   45.7339   32.5168   50.1367 H   0  0  0  0  0  0  0  0  0  0  0  0
   46.3226   33.4673   47.8814 H   0  0  0  0  0  0  0  0  0  0  0  0
   44.5738   27.8783   45.9898 O   0  0  0  0  0  0  0  0  0  0  0  0
   43.7861   28.0790   47.1455 C   0  0  2  0  0  0  0  0  0  0  0  0
   44.7142   28.3962   48.2825 C   0  0  1  0  0  0  0  0  0  0  0  0
   45.8555   27.6213   48.0991 O   0  0  0  0  0  0  0  0  0  0  0  0
   45.5993   26.2653   48.1665 C   0  0  0  0  0  0  0  0  0  0  0  0
   44.1531   25.9050   48.3315 C   0  0  2  0  0  0  0  0  0  0  0  0
   44.0074   24.5577   47.9885 O   0  0  0  0  0  0  0  0  0  0  0  0
   43.2131   26.6945   47.4651 C   0  0  2  0  0  0  0  0  0  0  0  0
   42.7706   26.0271   46.3416 O   0  0  0  0  0  0  0  0  0  0  0  0
   44.0310   27.4026   45.2968 H   0  0  0  0  0  0  0  0  0  0  0  0
   42.9934   28.8256   46.9736 H   0  0  0  0  0  0  0  0  0  0  0  0
   44.2495   28.0822   49.2444 H   0  0  0  0  0  0  0  0  0  0  0  0
   46.1002   25.7077   47.3375 H   0  0  0  0  0  0  0  0  0  0  0  0
   46.1184   25.8880   49.0954 H   0  0  0  0  0  0  0  0  0  0  0  0
   43.8724   25.9745   49.4218 H   0  0  0  0  0  0  0  0  0  0  0  0
   43.8094   24.5346   47.0184 H   0  0  0  0  0  0  0  0  0  0  0  0
   42.3046   26.9168   48.0941 H   0  0  0  0  0  0  0  0  0  0  0  0
   41.8006   25.7544   46.4097 H   0  0  0  0  0  0  0  0  0  0  0  0
 10  1  1  6
  2  1  1  0
  3  2  1  0
  4  5  1  0
  4  3  1  0
  5  6  1  0
  6  2  1  0
  7  6  1  0
  7  8  1  0
 10  9  2  0
 10 12  1  0
 11 10  1  0
 13 12  1  0
 13 16  1  0
 14 19  2  0
 15 14  1  0
 16 17  1  0
 16 15  2  0
 17 18  2  0
 18 19  1  0
  2 20  1  1
  3 21  1  0
  3 22  1  0
  4 23  1  0
  4 24  1  0
  5 25  1  0
  5 26  1  0
  6 27  1  1
  7 28  1  0
  7 29  1  0
  8 30  1  0
 11 31  1  0
 13 32  1  0
 13 33  1  0
 14 34  1  0
 15 35  1  0
 36 37  1  0
 37 38  1  0
 38 39  1  0
 39 40  1  0
 40 41  1  0
 41 42  1  0
 41 43  1  0
 43 44  1  0
 43 37  1  0
 36 45  1  0
 37 46  1  6
 38 47  1  1
 40 48  1  0
 40 49  1  0
 41 50  1  1
 42 51  1  0
 43 52  1  1
 44 53  1  0
 18 38  1  0
M  ISO  8  20  13  21  13  22  13  23  13  24  13  25  13  26  13  27  13
M  ISO  8  28   8  29   8  30   3  31   3  32   8  33   8  34  14  35  14
M  END
>  <DihAtoms>  (1) 
16,17,37,36

>  <DihDeg>  (1) 
-162.19857666910997

$$$$
