
     RDKit          3D

 30 31  0  0  0  0  0  0  0  0999 V2000
   44.3829   35.7790   44.4335 C   0  0  0  0  0  0  0  0  0  0  0  0
   44.6644   35.0699   43.2768 C   0  0  0  0  0  0  0  0  0  0  0  0
   45.2884   33.8346   43.3925 C   0  0  0  0  0  0  0  0  0  0  0  0
   45.5922   33.3804   44.6245 N   0  0  0  0  0  0  0  0  0  0  0  0
   45.3078   34.0908   45.7449 C   0  0  0  0  0  0  0  0  0  0  0  0
   44.6992   35.3001   45.6676 N   0  0  0  0  0  0  0  0  0  0  0  0
   44.2642   35.7112   41.9971 C   0  0  0  0  0  0  0  0  0  0  0  0
   43.8972   36.7463   44.3890 H   0  0  0  0  0  0  0  0  0  0  0  0
   45.4956   33.3043   42.4726 H   0  0  0  0  0  0  0  0  0  0  0  0
   43.2092   35.4279   41.8083 H   0  0  0  0  0  0  0  0  0  0  0  0
   44.9305   35.2707   41.2102 H   0  0  0  0  0  0  0  0  0  0  0  0
   44.4350   36.7831   42.0780 H   0  0  0  0  0  0  0  0  0  0  0  0
   45.2610   31.2091   46.8751 O   0  0  0  0  0  0  0  0  0  0  0  0
   44.7661   32.3764   47.4824 C   0  0  2  0  0  0  0  0  0  0  0  0
   45.6619   33.5459   47.0556 C   0  0  1  0  0  0  0  0  0  0  0  0
   46.9514   33.0042   47.1045 O   0  0  0  0  0  0  0  0  0  0  0  0
   47.3256   33.0201   48.4345 C   0  0  0  0  0  0  0  0  0  0  0  0
   46.4189   32.2732   49.3626 C   0  0  2  0  0  0  0  0  0  0  0  0
   46.8453   30.9495   49.4368 O   0  0  0  0  0  0  0  0  0  0  0  0
   44.9704   32.2898   48.9945 C   0  0  1  0  0  0  0  0  0  0  0  0
   44.3969   33.4456   49.5312 O   0  0  0  0  0  0  0  0  0  0  0  0
   44.5605   30.7913   46.3125 H   0  0  0  0  0  0  0  0  0  0  0  0
   43.7095   32.5447   47.2836 H   0  0  0  0  0  0  0  0  0  0  0  0
   45.5949   34.3256   47.8416 H   0  0  0  0  0  0  0  0  0  0  0  0
   48.3472   32.5732   48.5359 H   0  0  0  0  0  0  0  0  0  0  0  0
   47.4392   34.0976   48.7056 H   0  0  0  0  0  0  0  0  0  0  0  0
   46.5044   32.7646   50.3729 H   0  0  0  0  0  0  0  0  0  0  0  0
   47.7487   30.9300   49.8404 H   0  0  0  0  0  0  0  0  0  0  0  0
   44.4778   31.3737   49.3909 H   0  0  0  0  0  0  0  0  0  0  0  0
   45.0114   33.9306   50.1150 H   0  0  0  0  0  0  0  0  0  0  0  0
  1  6  2  0
  2  3  2  0
  2  1  1  0
  3  4  1  0
  4  5  2  0
  6  5  1  0
  7  2  1  0
  1  8  1  0
  3  9  1  0
  7 10  1  0
  7 11  1  0
  7 12  1  0
 13 14  1  0
 14 15  1  0
 15 16  1  0
 16 17  1  0
 17 18  1  0
 18 19  1  0
 18 20  1  0
 20 21  1  0
 20 14  1  0
 13 22  1  0
 14 23  1  1
 15 24  1  1
 17 25  1  0
 17 26  1  0
 18 27  1  1
 19 28  1  0
 20 29  1  1
 21 30  1  0
  5 15  1  0
M  ISO  5   8  14   9  14  10   8  11   8  12   8
M  END
>  <DihAtoms>  (1) 
3,4,14,13

>  <DihDeg>  (1) 
107.50952945895756

$$$$
