
     RDKit          3D

 30 31  0  0  0  0  0  0  0  0999 V2000
   44.3829   35.7790   44.4335 C   0  0  0  0  0  0  0  0  0  0  0  0
   44.6644   35.0699   43.2768 C   0  0  0  0  0  0  0  0  0  0  0  0
   45.2884   33.8346   43.3925 C   0  0  0  0  0  0  0  0  0  0  0  0
   45.5922   33.3804   44.6245 N   0  0  0  0  0  0  0  0  0  0  0  0
   45.3078   34.0908   45.7449 C   0  0  0  0  0  0  0  0  0  0  0  0
   44.6992   35.3001   45.6676 N   0  0  0  0  0  0  0  0  0  0  0  0
   44.2642   35.7112   41.9971 C   0  0  0  0  0  0  0  0  0  0  0  0
   43.8972   36.7463   44.3890 H   0  0  0  0  0  0  0  0  0  0  0  0
   45.4956   33.3043   42.4726 H   0  0  0  0  0  0  0  0  0  0  0  0
   43.2092   35.4279   41.8083 H   0  0  0  0  0  0  0  0  0  0  0  0
   44.9305   35.2707   41.2102 H   0  0  0  0  0  0  0  0  0  0  0  0
   44.4350   36.7831   42.0780 H   0  0  0  0  0  0  0  0  0  0  0  0
   47.9708   33.0026   46.8887 O   0  0  0  0  0  0  0  0  0  0  0  0
   46.6962   32.4161   46.9775 C   0  0  2  0  0  0  0  0  0  0  0  0
   45.6619   33.5459   47.0556 C   0  0  1  0  0  0  0  0  0  0  0  0
   46.2640   34.4816   47.9044 O   0  0  0  0  0  0  0  0  0  0  0  0
   46.0633   34.0196   49.1911 C   0  0  0  0  0  0  0  0  0  0  0  0
   46.6023   32.6511   49.4701 C   0  0  2  0  0  0  0  0  0  0  0  0
   47.9210   32.7683   49.9023 O   0  0  0  0  0  0  0  0  0  0  0  0
   46.5583   31.6981   48.3195 C   0  0  1  0  0  0  0  0  0  0  0  0
   45.3015   31.0874   48.3064 O   0  0  0  0  0  0  0  0  0  0  0  0
   48.4293   32.7040   46.0625 H   0  0  0  0  0  0  0  0  0  0  0  0
   46.4993   31.7025   46.1798 H   0  0  0  0  0  0  0  0  0  0  0  0
   44.7668   33.1476   47.5756 H   0  0  0  0  0  0  0  0  0  0  0  0
   46.5480   34.7224   49.9155 H   0  0  0  0  0  0  0  0  0  0  0  0
   44.9652   34.1045   49.3768 H   0  0  0  0  0  0  0  0  0  0  0  0
   45.9654   32.2064   50.2865 H   0  0  0  0  0  0  0  0  0  0  0  0
   47.9303   33.2611   50.7604 H   0  0  0  0  0  0  0  0  0  0  0  0
   47.3711   30.9459   48.4314 H   0  0  0  0  0  0  0  0  0  0  0  0
   44.7683   31.3137   49.0928 H   0  0  0  0  0  0  0  0  0  0  0  0
  1  6  2  0
  2  3  2  0
  2  1  1  0
  3  4  1  0
  4  5  2  0
  6  5  1  0
  7  2  1  0
  1  8  1  0
  3  9  1  0
  7 10  1  0
  7 11  1  0
  7 12  1  0
 13 14  1  0
 14 15  1  0
 15 16  1  0
 16 17  1  0
 17 18  1  0
 18 19  1  0
 18 20  1  0
 20 21  1  0
 20 14  1  0
 13 22  1  0
 14 23  1  6
 15 24  1  1
 17 25  1  0
 17 26  1  0
 18 27  1  1
 19 28  1  0
 20 29  1  1
 21 30  1  0
  5 15  1  0
M  ISO  5   8  14   9  14  10   8  11   8  12   8
M  END
>  <DihAtoms>  (1) 
3,4,14,13

>  <DihDeg>  (1) 
107.50952945895756

$$$$
