
 OpenBabel03252504023D

 39 42  0  0  1  0  0  0  0  0999 V2000
   48.1670   34.3040   42.2530 C   0  0  0  0  0  0  0  0  0  0  0  0
   47.5430   33.9320   41.0740 C   0  0  0  0  0  0  0  0  0  0  0  0
   46.5500   32.9610   41.1580 C   0  0  0  0  0  0  0  0  0  0  0  0
   46.2560   32.4450   42.3640 N   0  0  0  0  0  0  0  0  0  0  0  0
   46.8770   32.8250   43.4920 C   0  0  0  0  0  0  0  0  0  0  0  0
   47.8410   33.7630   43.4280 N   0  0  0  0  0  0  0  0  0  0  0  0
   47.7700   34.3360   40.1130 H   0  0  0  0  0  0  0  0  0  0  0  0
   46.3570   30.9030   44.9100 C   0  0  0  0  0  0  0  0  0  0  0  0
   46.5540   32.2590   44.8040 C   0  0  0  0  0  0  0  0  0  0  0  0
   46.4450   33.0620   45.9290 C   0  0  0  0  0  0  0  0  0  0  0  0
   46.1370   32.4620   47.1370 C   0  0  0  0  0  0  0  0  0  0  0  0
   45.9670   32.9740   48.3780 N   0  0  0  0  0  0  0  0  0  0  0  0
   45.6730   31.9790   49.2400 C   0  0  0  0  0  0  0  0  0  0  0  0
   45.6490   30.7870   48.5450 C   0  0  0  0  0  0  0  0  0  0  0  0
   45.9370   31.0900   47.2430 C   0  0  0  0  0  0  0  0  0  0  0  0
   46.0480   30.3120   46.1260 C   0  0  0  0  0  0  0  0  0  0  0  0
   46.4460   30.2920   44.0210 H   0  0  0  0  0  0  0  0  0  0  0  0
   46.5990   34.1320   45.8520 H   0  0  0  0  0  0  0  0  0  0  0  0
   46.0660   34.0020   48.5700 H   0  0  0  0  0  0  0  0  0  0  0  0
   45.5050   32.2190   50.2910 H   0  0  0  0  0  0  0  0  0  0  0  0
   45.4360   29.8420   49.0170 H   0  0  0  0  0  0  0  0  0  0  0  0
   45.8940   29.2420   46.1970 H   0  0  0  0  0  0  0  0  0  0  0  0
   45.7250   33.4990   38.8610 C   0  0  1  0  0  0  0  0  0  0  0  0
   45.8150   32.4890   39.9480 C   0  0  1  0  0  0  0  0  0  0  0  0
   46.2490   31.2270   39.5670 O   0  0  0  0  0  0  0  0  0  0  0  0
   47.3530   31.2600   38.7320 C   0  0  0  0  0  0  0  0  0  0  0  0
   46.8500   31.7890   37.3860 C   0  0  2  0  0  0  0  0  0  0  0  0
   46.5120   33.2380   37.6360 C   0  0  1  0  0  0  0  0  0  0  0  0
   44.3950   33.7740   38.4750 O   0  0  0  0  0  0  0  0  0  0  0  0
   43.8750   32.9450   38.3200 H   0  0  0  0  0  0  0  0  0  0  0  0
   45.7370   31.0090   37.0840 O   0  0  0  0  0  0  0  0  0  0  0  0
   46.0380   30.0760   37.1210 H   0  0  0  0  0  0  0  0  0  0  0  0
   45.8480   33.7340   36.5090 O   0  0  0  0  0  0  0  0  0  0  0  0
   44.9000   33.4530   36.4800 H   0  0  0  0  0  0  0  0  0  0  0  0
   49.1860   35.3120   42.1120 C   0  0  0  0  0  0  0  0  0  0  0  0
   49.2010   36.2610   41.2920 O   0  0  0  0  0  0  0  0  0  0  0  0
   50.1820   35.0190   43.0890 N   0  0  0  0  0  0  0  0  0  0  0  0
   51.0380   34.5040   42.8000 H   0  0  0  0  0  0  0  0  0  0  0  0
   50.0030   35.3410   44.0640 H   0  0  0  0  0  0  0  0  0  0  0  0
  1  6  1  0  0  0  0
  2  3  1  0  0  0  0
  2  1  2  0  0  0  0
  3  4  2  0  0  0  0
  4  5  1  0  0  0  0
  5  9  1  0  0  0  0
  6  5  2  0  0  0  0
  7  2  1  0  0  0  0
  8 16  1  0  0  0  0
  9  8  2  0  0  0  0
  9 10  1  0  0  0  0
 10 11  2  0  0  0  0
 11 15  1  0  0  0  0
 11 12  1  0  0  0  0
 12 19  1  0  0  0  0
 12 13  1  0  0  0  0
 13 20  1  0  0  0  0
 14 21  1  0  0  0  0
 14 13  2  0  0  0  0
 15 14  1  0  0  0  0
 16 22  1  0  0  0  0
 16 15  2  0  0  0  0
 17  8  1  0  0  0  0
 18 10  1  0  0  0  0
 23 29  1  6  0  0  0
 23 24  1  0  0  0  0
 24  3  1  1  0  0  0
 25 24  1  0  0  0  0
 26 25  1  0  0  0  0
 27 31  1  1  0  0  0
 27 28  1  0  0  0  0
 27 26  1  0  0  0  0
 28 33  1  6  0  0  0
 28 23  1  0  0  0  0
 30 29  1  0  0  0  0
 31 32  1  0  0  0  0
 34 33  1  0  0  0  0
 35  1  1  0  0  0  0
 35 37  1  0  0  0  0
 36 35  2  0  0  0  0
 37 39  1  0  0  0  0
 38 37  1  0  0  0  0
M  END
>  <minimizedAffinity>
-6.96355152

>  <minimizedRMSD>
4.97170305

$$$$
