
     RDKit          3D

 59 62  0  0  0  0  0  0  0  0999 V2000
   47.9134   33.8569   42.8611 C   0  0  0  0  0  0  0  0  0  0  0  0
   48.5650   35.1017   42.6428 C   0  0  0  0  0  0  0  0  0  0  0  0
   49.9258   35.1169   42.3163 C   0  0  0  0  0  0  0  0  0  0  0  0
   50.5597   33.9032   42.2255 N   0  0  0  0  0  0  0  0  0  0  0  0
   49.8764   32.7251   42.4481 C   0  0  0  0  0  0  0  0  0  0  0  0
   48.5848   32.7049   42.7580 N   0  0  0  0  0  0  0  0  0  0  0  0
   46.4911   33.9670   43.2045 C   0  0  0  0  0  0  0  0  0  0  0  0
   45.7532   34.9426   42.4425 C   0  0  0  0  0  0  0  0  0  0  0  0
   45.2803   36.1034   43.2152 C   0  0  0  0  0  0  0  0  0  0  0  0
   44.4395   35.6536   44.4174 C   0  0  0  0  0  0  0  0  0  0  0  0
   45.0177   34.4941   45.1612 C   0  0  0  0  0  0  0  0  0  0  0  0
   46.4565   34.2283   44.7480 C   0  0  0  0  0  0  0  0  0  0  0  0
   50.7170   31.5404   42.3125 C   0  0  0  0  0  0  0  0  0  0  0  0
   51.3452   31.3086   41.1519 N   0  0  0  0  0  0  0  0  0  0  0  0
   52.0635   30.1599   41.2545 C   0  0  0  0  0  0  0  0  0  0  0  0
   51.8644   29.6910   42.5030 N   0  0  0  0  0  0  0  0  0  0  0  0
   51.0479   30.5188   43.1579 N   0  0  0  0  0  0  0  0  0  0  0  0
   52.4403   28.5095   43.0881 C   0  0  0  0  0  0  0  0  0  0  0  0
   53.7171   28.8408   43.7183 C   0  0  0  0  0  0  0  0  0  0  0  0
   54.0690   29.5801   44.7640 C   0  0  0  0  0  0  0  0  0  0  0  0
   55.4933   29.7312   45.3334 C   0  0  0  0  0  0  0  0  0  0  0  0
   48.1331   36.0635   42.6980 H   0  0  0  0  0  0  0  0  0  0  0  0
   50.4675   36.0323   42.1407 H   0  0  0  0  0  0  0  0  0  0  0  0
   46.0566   32.9254   43.1533 H   0  0  0  0  0  0  0  0  0  0  0  0
   44.8340   34.4616   41.9918 H   0  0  0  0  0  0  0  0  0  0  0  0
   46.3161   35.3230   41.5545 H   0  0  0  0  0  0  0  0  0  0  0  0
   44.5522   36.6662   42.5632 H   0  0  0  0  0  0  0  0  0  0  0  0
   46.0206   36.8477   43.5223 H   0  0  0  0  0  0  0  0  0  0  0  0
   43.4597   35.2985   43.9840 H   0  0  0  0  0  0  0  0  0  0  0  0
   44.1938   36.5358   45.0355 H   0  0  0  0  0  0  0  0  0  0  0  0
   45.0706   34.7906   46.2277 H   0  0  0  0  0  0  0  0  0  0  0  0
   44.4055   33.5686   45.1176 H   0  0  0  0  0  0  0  0  0  0  0  0
   47.0323   35.1457   44.9458 H   0  0  0  0  0  0  0  0  0  0  0  0
   46.8201   33.3271   45.2820 H   0  0  0  0  0  0  0  0  0  0  0  0
   52.6717   29.7179   40.4807 H   0  0  0  0  0  0  0  0  0  0  0  0
   52.5634   27.6788   42.4054 H   0  0  0  0  0  0  0  0  0  0  0  0
   51.7278   28.1334   43.8836 H   0  0  0  0  0  0  0  0  0  0  0  0
   54.6481   28.4188   43.2826 H   0  0  0  0  0  0  0  0  0  0  0  0
   53.2319   30.0751   45.2965 H   0  0  0  0  0  0  0  0  0  0  0  0
   55.4845   29.2801   46.3234 H   0  0  0  0  0  0  0  0  0  0  0  0
   56.1408   29.1541   44.6533 H   0  0  0  0  0  0  0  0  0  0  0  0
   57.0484   30.2276   43.4185 O   0  0  0  0  0  0  0  0  0  0  0  0
   57.1917   31.1955   44.4279 C   0  0  1  0  0  0  0  0  0  0  0  0
   55.9444   31.1571   45.2948 C   0  0  2  0  0  0  0  0  0  0  0  0
   56.0931   31.7648   46.5151 O   0  0  0  0  0  0  0  0  0  0  0  0
   57.1818   31.3737   47.2543 C   0  0  0  0  0  0  0  0  0  0  0  0
   58.5018   31.5094   46.5301 C   0  0  2  0  0  0  0  0  0  0  0  0
   58.8120   32.8347   46.2609 O   0  0  0  0  0  0  0  0  0  0  0  0
   58.4180   30.7580   45.2213 C   0  0  2  0  0  0  0  0  0  0  0  0
   59.5296   31.0409   44.4561 O   0  0  0  0  0  0  0  0  0  0  0  0
   56.4204   30.5173   42.7299 H   0  0  0  0  0  0  0  0  0  0  0  0
   57.3472   32.1804   43.9787 H   0  0  0  0  0  0  0  0  0  0  0  0
   55.1825   31.7457   44.7296 H   0  0  0  0  0  0  0  0  0  0  0  0
   57.1308   30.3760   47.6996 H   0  0  0  0  0  0  0  0  0  0  0  0
   57.2334   32.0878   48.1239 H   0  0  0  0  0  0  0  0  0  0  0  0
   59.2828   31.0700   47.1509 H   0  0  0  0  0  0  0  0  0  0  0  0
   58.2850   33.1842   45.5006 H   0  0  0  0  0  0  0  0  0  0  0  0
   58.3656   29.6840   45.4491 H   0  0  0  0  0  0  0  0  0  0  0  0
   59.5162   30.5880   43.5911 H   0  0  0  0  0  0  0  0  0  0  0  0
  1  7  1  0
  2  1  2  0
  3  2  1  0
  4  3  2  0
  4  5  1  0
  5  6  2  0
  6  1  1  0
  7 12  1  0
  8  7  1  0
  8  9  1  0
  9 10  1  0
 10 11  1  0
 12 11  1  0
 13  5  1  0
 13 17  2  0
 14 15  2  0
 14 13  1  0
 15 16  1  0
 16 18  1  0
 16 17  1  0
 18 19  1  0
 19 20  2  0
 20 21  1  0
  2 22  1  0
  3 23  1  0
  7 24  1  0
  8 25  1  0
  8 26  1  0
  9 27  1  0
  9 28  1  0
 10 29  1  0
 10 30  1  0
 11 31  1  0
 11 32  1  0
 12 33  1  0
 12 34  1  0
 15 35  1  0
 18 36  1  0
 18 37  1  0
 19 38  1  0
 20 39  1  0
 21 40  1  0
 21 41  1  0
 42 43  1  0
 43 44  1  0
 44 45  1  0
 45 46  1  0
 46 47  1  0
 47 48  1  0
 47 49  1  0
 49 50  1  0
 49 43  1  0
 42 51  1  0
 43 52  1  6
 44 53  1  6
 46 54  1  0
 46 55  1  0
 47 56  1  1
 48 57  1  0
 49 58  1  1
 50 59  1  0
 21 44  1  0
M  ISO  8  22  14  23  14  24  13  25  13  26  13  27  13  28  13  29  13
M  ISO  8  30  13  31  13  32  13  33  13  34  13  35  14  36   8  37   8
M  ISO  2  40   8  41   8
M  END
>  <DihAtoms>  (1) 
19,20,43,42

>  <DihDeg>  (1) 
179.99979666176256

$$$$
