
 OpenBabel03252503413D

 24 25  0  0  1  0  0  0  0  0999 V2000
   45.3280   34.8940   43.9420 C   0  0  0  0  0  0  0  0  0  0  0  0
   44.8470   35.8890   43.1070 C   0  0  0  0  0  0  0  0  0  0  0  0
   44.0450   35.5230   42.0340 C   0  0  0  0  0  0  0  0  0  0  0  0
   43.7690   34.2160   41.8540 N   0  0  0  0  0  0  0  0  0  0  0  0
   44.2500   33.2570   42.6850 C   0  0  0  0  0  0  0  0  0  0  0  0
   45.0360   33.5800   43.7420 N   0  0  0  0  0  0  0  0  0  0  0  0
   45.9570   35.1360   44.7900 H   0  0  0  0  0  0  0  0  0  0  0  0
   43.6840   36.3200   41.3980 H   0  0  0  0  0  0  0  0  0  0  0  0
   42.4900   31.6590   41.9120 C   0  0  2  0  0  3  0  0  0  0  0  0
   43.9170   31.8530   42.4390 C   0  0  1  0  0  3  0  0  0  0  0  0
   44.7130   31.2550   41.4570 O   0  0  0  0  0  0  0  0  0  0  0  0
   44.6610   29.8950   41.6950 C   0  0  0  0  0  2  0  0  0  0  0  0
   43.2900   29.2950   41.6810 C   0  0  1  0  0  3  0  0  0  0  0  0
   42.1960   30.1830   42.1810 C   0  0  1  0  0  3  0  0  0  0  0  0
   42.5080   31.8860   40.5240 O   0  0  0  0  0  0  0  0  0  0  0  0
   41.8810   32.6170   40.2880 H   0  0  0  0  0  0  0  0  0  0  0  0
   42.9860   28.9050   40.3780 O   0  0  0  0  0  0  0  0  0  0  0  0
   43.6140   28.1900   40.1070 H   0  0  0  0  0  0  0  0  0  0  0  0
   42.1270   30.0490   43.5700 O   0  0  0  0  0  0  0  0  0  0  0  0
   42.7090   29.3400   43.9060 H   0  0  0  0  0  0  0  0  0  0  0  0
   45.2440   37.2820   43.4430 C   0  0  0  0  0  0  0  0  0  0  0  0
   44.5040   37.6620   44.1750 H   0  0  0  0  0  0  0  0  0  0  0  0
   45.1760   37.8620   42.4850 H   0  0  0  0  0  0  0  0  0  0  0  0
   46.2710   37.2720   43.8040 H   0  0  0  0  0  0  0  0  0  0  0  0
  1  7  1  0  0  0  0
  2 21  1  0  0  0  0
  2  1  2  0  0  0  0
  3  2  1  0  0  0  0
  4  3  2  0  0  0  0
  4  5  1  0  0  0  0
  5  6  2  0  0  0  0
  6  1  1  0  0  0  0
  8  3  1  0  0  0  0
  9 15  1  6  0  0  0
  9 14  1  0  0  0  0
  9 10  1  0  0  0  0
 10  5  1  6  0  0  0
 11 12  1  0  0  0  0
 11 10  1  0  0  0  0
 13 17  1  6  0  0  0
 13 12  1  0  0  0  0
 13 14  1  0  0  0  0
 14 19  1  1  0  0  0
 16 15  1  0  0  0  0
 18 17  1  0  0  0  0
 19 20  1  0  0  0  0
 21 24  1  0  0  0  0
 21 22  1  0  0  0  0
 23 21  1  0  0  0  0
M  END
>  <minimizedAffinity>
-3.12722635

>  <minimizedRMSD>
6.05280876

$$$$
