REMARK  Name = 
REMARK  12 active torsions:
REMARK  status: ('A' for Active; 'I' for Inactive)
REMARK    1  A    between atoms: O_1  and  C_2
REMARK    2  A    between atoms: O_1  and  P_10
REMARK    3  A    between atoms: C_6  and  C_7
REMARK    4  A    between atoms: C_7  and  O_8
REMARK    5  A    between atoms: P_10  and  O_11
REMARK    6  A    between atoms: P_10  and  O_12
REMARK    7  A    between atoms: O_12  and  C_13
REMARK    8  A    between atoms: C_13  and  C_16
REMARK    9  A    between atoms: C_18  and  C_38
REMARK   10  A    between atoms: O_36  and  C_37
REMARK   11  A    between atoms: C_41  and  O_42
REMARK   12  A    between atoms: C_43  and  O_44
REMARK                            x       y       z     vdW  Elec       q    Type
REMARK                         _______ _______ _______ _____ _____    ______ ____
ROOT
ATOM      1  O   UNL     1      46.469  33.493  45.603  0.00  0.00    +0.000 OA
ENDROOT
BRANCH   1   2
ATOM      2  C   UNL     1      46.228  32.156  45.571  0.00  0.00    +0.000 C 
ATOM      3  H   UNL     1      47.206  31.666  45.296  0.00  0.00    +0.000 HD
ATOM      4  H   UNL     1      45.504  31.778  44.855  0.00  0.00    +0.000 HD
BRANCH   2   7
ATOM      5  C   UNL     1      45.663  31.899  49.238  0.00  0.00    +0.000 A 
ATOM      6  C   UNL     1      45.996  32.448  47.989  0.00  0.00    +0.000 A 
ATOM      7  C   UNL     1      45.882  31.608  46.893  0.00  0.00    +0.000 A 
ATOM      8  N   UNL     1      45.462  30.318  47.076  0.00  0.00    +0.000 NA
ATOM      9  C   UNL     1      45.150  29.819  48.291  0.00  0.00    +0.000 A 
ATOM     10  N   UNL     1      45.252  30.611  49.357  0.00  0.00    +0.000 NA
ATOM     11  H   UNL     1      45.734  32.517  50.137  0.00  0.00    +0.000 HD
ATOM     12  H   UNL     1      46.323  33.467  47.881  0.00  0.00    +0.000 HD
BRANCH   9  14
ATOM     13  C   UNL     1      45.789  27.462  47.805  0.00  0.00    +0.000 C 
ATOM     14  C   UNL     1      44.714  28.396  48.282  0.00  0.00    +0.000 C 
ATOM     15  O   UNL     1      44.434  28.048  49.600  0.00  0.00    +0.000 OA
ATOM     16  C   UNL     1      43.925  26.768  49.720  0.00  0.00    +0.000 C 
ATOM     17  C   UNL     1      43.863  25.993  48.438  0.00  0.00    +0.000 C 
ATOM     18  C   UNL     1      45.086  26.121  47.574  0.00  0.00    +0.000 C 
BRANCH  13  19
ATOM     19  O   UNL     1      46.663  27.222  48.889  0.00  0.00    +0.000 OA
ATOM     20  H   UNL     1      47.214  26.409  48.697  0.00  0.00    +0.000 HD
ENDBRANCH  13  19
BRANCH  17  21
ATOM     21  O   UNL     1      43.719  24.641  48.764  0.00  0.00    +0.000 OA
ATOM     22  H   UNL     1      44.635  24.271  48.838  0.00  0.00    +0.000 HD
ENDBRANCH  17  21
BRANCH  18  23
ATOM     23  O   UNL     1      45.949  25.047  47.640  0.00  0.00    +0.000 OA
ATOM     24  H   UNL     1      45.936  24.487  46.799  0.00  0.00    +0.000 HD
ENDBRANCH  18  23
ENDBRANCH   9  14
ENDBRANCH   2   7
ENDBRANCH   1   2
BRANCH   1  26
ATOM     25  O   UNL     1      44.724  35.351  44.989  0.00  0.00    +0.000 OA
ATOM     26  P   UNL     1      45.576  34.240  44.411  0.00  0.00    +0.000 P 
BRANCH  26  27
ATOM     27  O   UNL     1      44.604  33.040  43.715  0.00  0.00    +0.000 OA
ATOM     28  H   UNL     1      43.766  33.456  43.391  0.00  0.00    +0.000 HD
ENDBRANCH  26  27
BRANCH  26  29
ATOM     29  O   UNL     1      46.574  34.908  43.248  0.00  0.00    +0.000 OA
BRANCH  29  30
ATOM     30  C   UNL     1      46.806  33.974  42.231  0.00  0.00    +0.000 C 
ATOM     31  C   UNL     1      46.079  34.410  40.955  0.00  0.00    +0.000 C 
ATOM     32  C   UNL     1      46.687  33.471  39.945  0.00  0.00    +0.000 C 
ATOM     33  C   UNL     1      48.076  33.143  40.472  0.00  0.00    +0.000 C 
ATOM     34  C   UNL     1      48.221  33.962  41.746  0.00  0.00    +0.000 C 
ATOM     35  H   UNL     1      46.458  32.967  42.458  0.00  0.00    +0.000 HD
ATOM     36  H   UNL     1      46.171  35.467  40.734  0.00  0.00    +0.000 HD
ATOM     37  H   UNL     1      45.002  34.172  41.057  0.00  0.00    +0.000 HD
ATOM     38  H   UNL     1      46.105  32.507  40.003  0.00  0.00    +0.000 HD
ATOM     39  H   UNL     1      46.702  33.872  38.924  0.00  0.00    +0.000 HD
ATOM     40  H   UNL     1      48.785  33.588  39.741  0.00  0.00    +0.000 HD
ATOM     41  H   UNL     1      48.239  32.078  40.647  0.00  0.00    +0.000 HD
ATOM     42  H   UNL     1      48.907  33.448  42.438  0.00  0.00    +0.000 HD
BRANCH  34  43
ATOM     43  C   UNL     1      48.761  35.338  41.464  0.00  0.00    +0.000 C 
ATOM     44  H   UNL     1      47.997  36.124  41.364  0.00  0.00    +0.000 HD
ATOM     45  H   UNL     1      49.306  35.274  40.485  0.00  0.00    +0.000 HD
BRANCH  43  46
ATOM     46  O   UNL     1      49.655  35.760  42.422  0.00  0.00    +0.000 OA
ATOM     47  H   UNL     1      50.339  35.079  42.608  0.00  0.00    +0.000 HD
ENDBRANCH  43  46
ENDBRANCH  34  43
ENDBRANCH  29  30
ENDBRANCH  26  29
ENDBRANCH   1  26
TORSDOF 12
