
 OpenBabel03252506193D

 26 27  0  0  1  0  0  0  0  0999 V2000
   37.3030   27.3300   41.4380 C   0  0  0  0  0  0  0  0  0  0  0  0
   37.1250   27.2950   42.8540 C   0  0  0  0  0  0  0  0  0  0  0  0
   37.4840   28.4560   43.5610 C   0  0  0  0  0  0  0  0  0  0  0  0
   37.9740   29.5330   42.8750 N   0  0  0  0  0  0  0  0  0  0  0  0
   38.1250   29.5120   41.5180 C   0  0  0  0  0  0  0  0  0  0  0  0
   37.7830   28.4030   40.8270 N   0  0  0  0  0  0  0  0  0  0  0  0
   36.7320   26.4010   43.2940 H   0  0  0  0  0  0  0  0  0  0  0  0
   37.3560   28.4490   44.6230 H   0  0  0  0  0  0  0  0  0  0  0  0
   37.5750   31.3500   39.9780 C   0  0  2  0  0  3  0  0  0  0  0  0
   38.6550   30.6880   40.8080 C   0  0  1  0  0  3  0  0  0  0  0  0
   39.1480   31.6730   41.6640 O   0  0  0  0  0  0  0  0  0  0  0  0
   39.9140   32.5450   40.8910 C   0  0  0  0  0  2  0  0  0  0  0  0
   39.1240   33.2400   39.8140 C   0  0  2  0  0  3  0  0  0  0  0  0
   38.2920   32.2700   38.9990 C   0  0  2  0  0  3  0  0  0  0  0  0
   36.7260   32.1490   40.7380 O   0  0  0  0  0  0  0  0  0  0  0  0
   36.0850   31.6340   41.2890 H   0  0  0  0  0  0  0  0  0  0  0  0
   40.0470   33.8130   38.9270 O   0  0  0  0  0  0  0  0  0  0  0  0
   40.3080   34.6800   39.3350 H   0  0  0  0  0  0  0  0  0  0  0  0
   37.3150   32.9760   38.2950 O   0  0  0  0  0  0  0  0  0  0  0  0
   37.1130   32.5310   37.4300 H   0  0  0  0  0  0  0  0  0  0  0  0
   36.9330   26.1380   40.6910 C   0  0  0  0  0  3  0  0  0  0  0  0
   36.9760   24.9660   41.2860 C   0  0  0  0  0  3  0  0  0  0  0  0
   36.6160   23.6970   40.6250 C   0  0  0  0  0  0  0  0  0  0  0  0
   35.5050   23.5700   40.7460 H   0  0  0  0  0  0  0  0  0  0  0  0
   37.0610   22.8370   41.1320 H   0  0  0  0  0  0  0  0  0  0  0  0
   36.7860   23.7180   39.5390 H   0  0  0  0  0  0  0  0  0  0  0  0
  1  2  1  0  0  0  0
  2  7  1  0  0  0  0
  2  3  2  0  0  0  0
  3  8  1  0  0  0  0
  4  3  1  0  0  0  0
  5  4  2  0  0  0  0
  6  1  2  0  0  0  0
  6  5  1  0  0  0  0
  9 15  1  1  0  0  0
  9 10  1  0  0  0  0
 10  5  1  1  0  0  0
 10 11  1  0  0  0  0
 12 11  1  0  0  0  0
 13 17  1  6  0  0  0
 13 12  1  0  0  0  0
 14 19  1  1  0  0  0
 14 13  1  0  0  0  0
 14  9  1  0  0  0  0
 15 16  1  0  0  0  0
 17 18  1  0  0  0  0
 20 19  1  0  0  0  0
 21 22  2  0  0  0  0
 21  1  1  0  0  0  0
 23 24  1  0  0  0  0
 23 25  1  0  0  0  0
 23 22  1  0  0  0  0
 26 23  1  0  0  0  0
M  END
>  <minimizedAffinity>
-5.69432402

$$$$

 OpenBabel03252506193D

 26 27  0  0  1  0  0  0  0  0999 V2000
   37.4050   27.1060   41.9470 C   0  0  0  0  0  0  0  0  0  0  0  0
   37.4430   27.6270   43.2760 C   0  0  0  0  0  0  0  0  0  0  0  0
   37.7830   28.9840   43.4090 C   0  0  0  0  0  0  0  0  0  0  0  0
   38.0550   29.7190   42.2890 N   0  0  0  0  0  0  0  0  0  0  0  0
   38.0040   29.1700   41.0390 C   0  0  0  0  0  0  0  0  0  0  0  0
   37.6780   27.8670   40.8980 N   0  0  0  0  0  0  0  0  0  0  0  0
   37.2130   26.9650   44.0870 H   0  0  0  0  0  0  0  0  0  0  0  0
   37.8160   29.3930   44.3980 H   0  0  0  0  0  0  0  0  0  0  0  0
   37.7040   31.3730   39.9880 C   0  0  2  0  0  3  0  0  0  0  0  0
   38.3010   29.9880   39.8520 C   0  0  1  0  0  3  0  0  0  0  0  0
   39.6680   30.1720   39.6360 O   0  0  0  0  0  0  0  0  0  0  0  0
   39.8190   30.6470   38.3350 C   0  0  0  0  0  2  0  0  0  0  0  0
   39.1450   31.9730   38.1000 C   0  0  2  0  0  3  0  0  0  0  0  0
   37.7110   31.9800   38.5900 C   0  0  2  0  0  3  0  0  0  0  0  0
   38.4660   32.2100   40.7970 O   0  0  0  0  0  0  0  0  0  0  0  0
   38.3880   32.0060   41.7630 H   0  0  0  0  0  0  0  0  0  0  0  0
   39.0900   32.1700   36.7120 O   0  0  0  0  0  0  0  0  0  0  0  0
   39.9740   32.5430   36.4600 H   0  0  0  0  0  0  0  0  0  0  0  0
   37.2670   33.2990   38.7040 O   0  0  0  0  0  0  0  0  0  0  0  0
   36.2930   33.3600   38.5180 H   0  0  0  0  0  0  0  0  0  0  0  0
   37.0520   25.7030   41.7920 C   0  0  0  0  0  3  0  0  0  0  0  0
   36.8700   25.2150   40.5850 C   0  0  0  0  0  3  0  0  0  0  0  0
   36.5160   23.8090   40.3140 C   0  0  0  0  0  0  0  0  0  0  0  0
   37.4820   23.2340   40.2570 H   0  0  0  0  0  0  0  0  0  0  0  0
   36.0520   23.6910   39.3320 H   0  0  0  0  0  0  0  0  0  0  0  0
   35.9540   23.3440   41.1360 H   0  0  0  0  0  0  0  0  0  0  0  0
  1  2  1  0  0  0  0
  2  3  2  0  0  0  0
  2  7  1  0  0  0  0
  3  8  1  0  0  0  0
  4  3  1  0  0  0  0
  5  4  2  0  0  0  0
  6  5  1  0  0  0  0
  6  1  2  0  0  0  0
  9 15  1  1  0  0  0
 10  9  1  0  0  0  0
 10  5  1  1  0  0  0
 11 10  1  0  0  0  0
 12 11  1  0  0  0  0
 13 17  1  6  0  0  0
 13 12  1  0  0  0  0
 13 14  1  0  0  0  0
 14 19  1  1  0  0  0
 14  9  1  0  0  0  0
 15 16  1  0  0  0  0
 18 17  1  0  0  0  0
 20 19  1  0  0  0  0
 21  1  1  0  0  0  0
 22 21  2  0  0  0  0
 23 22  1  0  0  0  0
 23 26  1  0  0  0  0
 24 23  1  0  0  0  0
 25 23  1  0  0  0  0
M  END
>  <minimizedAffinity>
-5.3843255

$$$$

 OpenBabel03252506193D

 26 27  0  0  1  0  0  0  0  0999 V2000
   36.8410   29.6300   41.2120 C   0  0  0  0  0  0  0  0  0  0  0  0
   37.1920   29.0530   42.4710 C   0  0  0  0  0  0  0  0  0  0  0  0
   38.4480   29.4050   42.9950 C   0  0  0  0  0  0  0  0  0  0  0  0
   39.2510   30.2590   42.2920 N   0  0  0  0  0  0  0  0  0  0  0  0
   38.8660   30.7820   41.0910 C   0  0  0  0  0  0  0  0  0  0  0  0
   37.6620   30.4530   40.5760 N   0  0  0  0  0  0  0  0  0  0  0  0
   36.4890   28.3940   42.9400 H   0  0  0  0  0  0  0  0  0  0  0  0
   38.7270   28.9820   43.9380 H   0  0  0  0  0  0  0  0  0  0  0  0
   39.3670   31.7740   38.8950 C   0  0  2  0  0  3  0  0  0  0  0  0
   39.7540   31.7000   40.3580 C   0  0  1  0  0  3  0  0  0  0  0  0
   39.7130   33.0090   40.8390 O   0  0  0  0  0  0  0  0  0  0  0  0
   40.8170   33.6770   40.3120 C   0  0  0  0  0  2  0  0  0  0  0  0
   40.8100   33.7500   38.8080 C   0  0  2  0  0  3  0  0  0  0  0  0
   40.5510   32.4000   38.1710 C   0  0  2  0  0  3  0  0  0  0  0  0
   38.2700   32.6010   38.6710 O   0  0  0  0  0  0  0  0  0  0  0  0
   37.4090   32.2020   38.9510 H   0  0  0  0  0  0  0  0  0  0  0  0
   42.0970   34.1380   38.4060 O   0  0  0  0  0  0  0  0  0  0  0  0
   42.1140   35.1280   38.4830 H   0  0  0  0  0  0  0  0  0  0  0  0
   40.1780   32.5810   36.8380 O   0  0  0  0  0  0  0  0  0  0  0  0
   40.4850   31.8190   36.2790 H   0  0  0  0  0  0  0  0  0  0  0  0
   35.5430   29.2780   40.6570 C   0  0  0  0  0  3  0  0  0  0  0  0
   35.3860   29.2560   39.3520 C   0  0  0  0  0  3  0  0  0  0  0  0
   34.1170   28.9070   38.6850 C   0  0  0  0  0  0  0  0  0  0  0  0
   34.1030   27.7880   38.5740 H   0  0  0  0  0  0  0  0  0  0  0  0
   34.0760   29.2990   37.6660 H   0  0  0  0  0  0  0  0  0  0  0  0
   33.2350   29.1460   39.2960 H   0  0  0  0  0  0  0  0  0  0  0  0
  1  2  1  0  0  0  0
  2  7  1  0  0  0  0
  2  3  2  0  0  0  0
  3  8  1  0  0  0  0
  4  3  1  0  0  0  0
  5  4  2  0  0  0  0
  6  5  1  0  0  0  0
  6  1  2  0  0  0  0
  9 15  1  1  0  0  0
  9 10  1  0  0  0  0
 10 11  1  0  0  0  0
 10  5  1  1  0  0  0
 12 11  1  0  0  0  0
 13 17  1  6  0  0  0
 13 12  1  0  0  0  0
 14 19  1  6  0  0  0
 14 13  1  0  0  0  0
 14  9  1  0  0  0  0
 15 16  1  0  0  0  0
 17 18  1  0  0  0  0
 20 19  1  0  0  0  0
 21  1  1  0  0  0  0
 22 21  2  0  0  0  0
 23 26  1  0  0  0  0
 23 22  1  0  0  0  0
 24 23  1  0  0  0  0
 25 23  1  0  0  0  0
M  END
>  <minimizedAffinity>
-5.28591585

$$$$

 OpenBabel03252506193D

 26 27  0  0  1  0  0  0  0  0999 V2000
   37.8420   25.9090   42.1770 C   0  0  0  0  0  0  0  0  0  0  0  0
   38.9640   25.6820   43.0300 C   0  0  0  0  0  0  0  0  0  0  0  0
   39.7180   26.8120   43.3900 C   0  0  0  0  0  0  0  0  0  0  0  0
   39.3500   28.0410   42.9170 N   0  0  0  0  0  0  0  0  0  0  0  0
   38.2660   28.2020   42.1030 C   0  0  0  0  0  0  0  0  0  0  0  0
   37.5330   27.1250   41.7500 N   0  0  0  0  0  0  0  0  0  0  0  0
   39.1670   24.6780   43.3440 H   0  0  0  0  0  0  0  0  0  0  0  0
   40.5630   26.6610   44.0290 H   0  0  0  0  0  0  0  0  0  0  0  0
   38.7110   29.9130   40.3910 C   0  0  2  0  0  3  0  0  0  0  0  0
   37.8940   29.5390   41.6110 C   0  0  1  0  0  3  0  0  0  0  0  0
   36.5560   29.6350   41.2290 O   0  0  0  0  0  0  0  0  0  0  0  0
   36.2540   30.9910   41.1210 C   0  0  0  0  0  2  0  0  0  0  0  0
   37.0720   31.7040   40.0760 C   0  0  2  0  0  3  0  0  0  0  0  0
   38.5530   31.4170   40.2150 C   0  0  2  0  0  3  0  0  0  0  0  0
   38.2390   29.3150   39.2260 O   0  0  0  0  0  0  0  0  0  0  0  0
   38.4530   28.3510   39.1600 H   0  0  0  0  0  0  0  0  0  0  0  0
   36.9130   33.0810   40.2930 O   0  0  0  0  0  0  0  0  0  0  0  0
   36.0650   33.3270   39.8390 H   0  0  0  0  0  0  0  0  0  0  0  0
   39.2060   31.7710   39.0330 O   0  0  0  0  0  0  0  0  0  0  0  0
   40.1310   32.0840   39.2210 H   0  0  0  0  0  0  0  0  0  0  0  0
   37.0490   24.7500   41.7970 C   0  0  0  0  0  3  0  0  0  0  0  0
   36.7500   24.5620   40.5300 C   0  0  0  0  0  3  0  0  0  0  0  0
   35.9580   23.4190   40.0360 C   0  0  0  0  0  0  0  0  0  0  0  0
   36.6810   22.5750   39.8550 H   0  0  0  0  0  0  0  0  0  0  0  0
   35.5100   23.6290   39.0620 H   0  0  0  0  0  0  0  0  0  0  0  0
   35.2510   23.0350   40.7850 H   0  0  0  0  0  0  0  0  0  0  0  0
  1  2  1  0  0  0  0
  2  7  1  0  0  0  0
  2  3  2  0  0  0  0
  3  8  1  0  0  0  0
  4  3  1  0  0  0  0
  5  4  2  0  0  0  0
  6  5  1  0  0  0  0
  6  1  2  0  0  0  0
  9 15  1  6  0  0  0
  9 10  1  0  0  0  0
 10  5  1  6  0  0  0
 11 10  1  0  0  0  0
 12 11  1  0  0  0  0
 13 14  1  0  0  0  0
 13 17  1  1  0  0  0
 13 12  1  0  0  0  0
 14 19  1  6  0  0  0
 14  9  1  0  0  0  0
 16 15  1  0  0  0  0
 18 17  1  0  0  0  0
 19 20  1  0  0  0  0
 21  1  1  0  0  0  0
 22 21  2  0  0  0  0
 23 22  1  0  0  0  0
 23 26  1  0  0  0  0
 24 23  1  0  0  0  0
 25 23  1  0  0  0  0
M  END
>  <minimizedAffinity>
-5.19046879

$$$$

 OpenBabel03252506193D

 26 27  0  0  1  0  0  0  0  0999 V2000
   36.6230   26.7270   39.6110 C   0  0  0  0  0  0  0  0  0  0  0  0
   35.8740   26.6770   38.3960 C   0  0  0  0  0  0  0  0  0  0  0  0
   35.8060   27.8670   37.6510 C   0  0  0  0  0  0  0  0  0  0  0  0
   36.4420   28.9850   38.1140 N   0  0  0  0  0  0  0  0  0  0  0  0
   37.1460   28.9770   39.2840 C   0  0  0  0  0  0  0  0  0  0  0  0
   37.2200   27.8410   40.0100 N   0  0  0  0  0  0  0  0  0  0  0  0
   35.4130   25.7490   38.1230 H   0  0  0  0  0  0  0  0  0  0  0  0
   35.2490   27.8480   36.7370 H   0  0  0  0  0  0  0  0  0  0  0  0
   36.8730   31.3780   39.7460 C   0  0  2  0  0  3  0  0  0  0  0  0
   37.8210   30.1970   39.7560 C   0  0  1  0  0  3  0  0  0  0  0  0
   38.3010   30.0930   41.0620 O   0  0  0  0  0  0  0  0  0  0  0  0
   39.1950   31.1450   41.2580 C   0  0  0  0  0  2  0  0  0  0  0  0
   38.5600   32.5030   41.1200 C   0  0  2  0  0  3  0  0  0  0  0  0
   37.7410   32.6250   39.8500 C   0  0  2  0  0  3  0  0  0  0  0  0
   36.0160   31.3880   40.8420 O   0  0  0  0  0  0  0  0  0  0  0  0
   35.2910   30.7160   40.7850 H   0  0  0  0  0  0  0  0  0  0  0  0
   39.6000   33.4380   41.0120 O   0  0  0  0  0  0  0  0  0  0  0  0
   39.8810   33.6330   41.9440 H   0  0  0  0  0  0  0  0  0  0  0  0
   36.8870   33.7240   39.9540 O   0  0  0  0  0  0  0  0  0  0  0  0
   36.7340   34.1380   39.0640 H   0  0  0  0  0  0  0  0  0  0  0  0
   36.7060   25.5030   40.3930 C   0  0  0  0  0  3  0  0  0  0  0  0
   37.6490   25.3830   41.3020 C   0  0  0  0  0  3  0  0  0  0  0  0
   37.8200   24.1900   42.1530 C   0  0  0  0  0  0  0  0  0  0  0  0
   37.1560   24.3310   43.0500 H   0  0  0  0  0  0  0  0  0  0  0  0
   38.8340   24.1210   42.5530 H   0  0  0  0  0  0  0  0  0  0  0  0
   37.4610   23.2690   41.6720 H   0  0  0  0  0  0  0  0  0  0  0  0
  1  6  1  0  0  0  0
  1 21  1  0  0  0  0
  2  1  2  0  0  0  0
  3  4  2  0  0  0  0
  3  2  1  0  0  0  0
  4  5  1  0  0  0  0
  5  6  2  0  0  0  0
  7  2  1  0  0  0  0
  8  3  1  0  0  0  0
  9 10  1  0  0  0  0
  9 14  1  0  0  0  0
  9 15  1  1  0  0  0
 10  5  1  1  0  0  0
 10 11  1  0  0  0  0
 11 12  1  0  0  0  0
 13 17  1  6  0  0  0
 13 12  1  0  0  0  0
 14 19  1  1  0  0  0
 14 13  1  0  0  0  0
 16 15  1  0  0  0  0
 17 18  1  0  0  0  0
 20 19  1  0  0  0  0
 21 22  2  0  0  0  0
 22 23  1  0  0  0  0
 23 25  1  0  0  0  0
 23 24  1  0  0  0  0
 26 23  1  0  0  0  0
M  END
>  <minimizedAffinity>
-5.16983747

$$$$

 OpenBabel03252506193D

 26 27  0  0  1  0  0  0  0  0999 V2000
   37.5510   27.0150   41.8430 C   0  0  0  0  0  0  0  0  0  0  0  0
   37.5090   27.5290   43.1750 C   0  0  0  0  0  0  0  0  0  0  0  0
   37.6990   28.9140   43.3190 C   0  0  0  0  0  0  0  0  0  0  0  0
   37.9110   29.6810   42.2070 N   0  0  0  0  0  0  0  0  0  0  0  0
   37.9420   29.1360   40.9550 C   0  0  0  0  0  0  0  0  0  0  0  0
   37.7600   27.8070   40.8020 N   0  0  0  0  0  0  0  0  0  0  0  0
   37.3360   26.8410   43.9780 H   0  0  0  0  0  0  0  0  0  0  0  0
   37.6700   29.3170   44.3100 H   0  0  0  0  0  0  0  0  0  0  0  0
   37.6330   29.3320   38.5220 C   0  0  2  0  0  3  0  0  0  0  0  0
   38.1710   29.9890   39.7770 C   0  0  1  0  0  3  0  0  0  0  0  0
   37.5460   31.2330   39.8650 O   0  0  0  0  0  0  0  0  0  0  0  0
   38.1100   32.0480   38.8850 C   0  0  0  0  0  2  0  0  0  0  0  0
   37.8940   31.5360   37.4860 C   0  0  2  0  0  3  0  0  0  0  0  0
   38.2630   30.0720   37.3490 C   0  0  2  0  0  3  0  0  0  0  0  0
   36.2540   29.4680   38.3940 O   0  0  0  0  0  0  0  0  0  0  0  0
   35.7400   28.8830   39.0050 H   0  0  0  0  0  0  0  0  0  0  0  0
   38.7670   32.2440   36.6460 O   0  0  0  0  0  0  0  0  0  0  0  0
   38.3030   33.0960   36.4360 H   0  0  0  0  0  0  0  0  0  0  0  0
   37.6990   29.5600   36.1790 O   0  0  0  0  0  0  0  0  0  0  0  0
   38.2750   28.8490   35.7920 H   0  0  0  0  0  0  0  0  0  0  0  0
   37.3530   25.5830   41.6750 C   0  0  0  0  0  3  0  0  0  0  0  0
   36.8130   25.1340   40.5640 C   0  0  0  0  0  3  0  0  0  0  0  0
   36.5730   23.7050   40.2880 C   0  0  0  0  0  0  0  0  0  0  0  0
   37.5190   23.2960   39.8380 H   0  0  0  0  0  0  0  0  0  0  0  0
   35.8050   23.5640   39.5230 H   0  0  0  0  0  0  0  0  0  0  0  0
   36.4120   23.1150   41.2020 H   0  0  0  0  0  0  0  0  0  0  0  0
  1  2  1  0  0  0  0
  2  3  2  0  0  0  0
  2  7  1  0  0  0  0
  3  8  1  0  0  0  0
  4  3  1  0  0  0  0
  5  4  2  0  0  0  0
  6  5  1  0  0  0  0
  6  1  2  0  0  0  0
  9 15  1  6  0  0  0
  9 10  1  0  0  0  0
 10 11  1  0  0  0  0
 10  5  1  1  0  0  0
 12 11  1  0  0  0  0
 13 17  1  6  0  0  0
 13 12  1  0  0  0  0
 14 19  1  6  0  0  0
 14 13  1  0  0  0  0
 14  9  1  0  0  0  0
 15 16  1  0  0  0  0
 18 17  1  0  0  0  0
 20 19  1  0  0  0  0
 21  1  1  0  0  0  0
 22 21  2  0  0  0  0
 23 22  1  0  0  0  0
 23 26  1  0  0  0  0
 24 23  1  0  0  0  0
 25 23  1  0  0  0  0
M  END
>  <minimizedAffinity>
-5.11218452

$$$$

 OpenBabel03252506193D

 26 27  0  0  1  0  0  0  0  0999 V2000
   35.3540   28.4040   38.5230 C   0  0  0  0  0  0  0  0  0  0  0  0
   35.9580   27.1110   38.5020 C   0  0  0  0  0  0  0  0  0  0  0  0
   37.2960   27.0360   38.9270 C   0  0  0  0  0  0  0  0  0  0  0  0
   37.9360   28.1760   39.3280 N   0  0  0  0  0  0  0  0  0  0  0  0
   37.3090   29.3890   39.3290 C   0  0  0  0  0  0  0  0  0  0  0  0
   36.0240   29.4750   38.9230 N   0  0  0  0  0  0  0  0  0  0  0  0
   35.3680   26.2810   38.1690 H   0  0  0  0  0  0  0  0  0  0  0  0
   37.7660   26.0740   38.9180 H   0  0  0  0  0  0  0  0  0  0  0  0
   37.1160   31.8090   39.7280 C   0  0  2  0  0  3  0  0  0  0  0  0
   38.0250   30.5980   39.7680 C   0  0  1  0  0  3  0  0  0  0  0  0
   38.5040   30.5120   41.0750 O   0  0  0  0  0  0  0  0  0  0  0  0
   39.4320   31.5380   41.2430 C   0  0  0  0  0  2  0  0  0  0  0  0
   38.8410   32.9130   41.0700 C   0  0  2  0  0  3  0  0  0  0  0  0
   38.0250   33.0290   39.7990 C   0  0  2  0  0  3  0  0  0  0  0  0
   36.2620   31.8750   40.8250 O   0  0  0  0  0  0  0  0  0  0  0  0
   35.5150   31.2260   40.7860 H   0  0  0  0  0  0  0  0  0  0  0  0
   39.9110   33.8100   40.9370 O   0  0  0  0  0  0  0  0  0  0  0  0
   40.2010   34.0200   41.8630 H   0  0  0  0  0  0  0  0  0  0  0  0
   37.2070   34.1570   39.8750 O   0  0  0  0  0  0  0  0  0  0  0  0
   37.0660   34.5530   38.9750 H   0  0  0  0  0  0  0  0  0  0  0  0
   33.9680   28.4990   38.0890 C   0  0  0  0  0  3  0  0  0  0  0  0
   33.6900   29.0870   36.9470 C   0  0  0  0  0  3  0  0  0  0  0  0
   32.3230   29.2310   36.4100 C   0  0  0  0  0  0  0  0  0  0  0  0
   32.0990   28.2930   35.8310 H   0  0  0  0  0  0  0  0  0  0  0  0
   32.2590   30.0420   35.6810 H   0  0  0  0  0  0  0  0  0  0  0  0
   31.5580   29.2710   37.1980 H   0  0  0  0  0  0  0  0  0  0  0  0
  1  6  1  0  0  0  0
  2  1  2  0  0  0  0
  2  3  1  0  0  0  0
  3  4  2  0  0  0  0
  4  5  1  0  0  0  0
  6  5  2  0  0  0  0
  7  2  1  0  0  0  0
  8  3  1  0  0  0  0
  9 10  1  0  0  0  0
  9 14  1  0  0  0  0
  9 15  1  1  0  0  0
 10  5  1  1  0  0  0
 10 11  1  0  0  0  0
 11 12  1  0  0  0  0
 13 17  1  6  0  0  0
 13 12  1  0  0  0  0
 14 19  1  1  0  0  0
 14 13  1  0  0  0  0
 16 15  1  0  0  0  0
 17 18  1  0  0  0  0
 20 19  1  0  0  0  0
 21  1  1  0  0  0  0
 22 21  2  0  0  0  0
 23 22  1  0  0  0  0
 23 26  1  0  0  0  0
 24 23  1  0  0  0  0
 25 23  1  0  0  0  0
M  END
>  <minimizedAffinity>
-5.04952431

$$$$

 OpenBabel03252506193D

 26 27  0  0  1  0  0  0  0  0999 V2000
   37.5910   30.2420   40.7770 C   0  0  0  0  0  0  0  0  0  0  0  0
   36.2070   30.3160   40.4330 C   0  0  0  0  0  0  0  0  0  0  0  0
   35.4340   29.1690   40.6860 C   0  0  0  0  0  0  0  0  0  0  0  0
   36.0310   28.0670   41.2330 N   0  0  0  0  0  0  0  0  0  0  0  0
   37.3610   28.0500   41.5420 C   0  0  0  0  0  0  0  0  0  0  0  0
   38.1140   29.1450   41.3050 N   0  0  0  0  0  0  0  0  0  0  0  0
   35.8380   31.2280   40.0090 H   0  0  0  0  0  0  0  0  0  0  0  0
   34.3940   29.2060   40.4350 H   0  0  0  0  0  0  0  0  0  0  0  0
   37.7630   25.6410   41.2390 C   0  0  2  0  0  3  0  0  0  0  0  0
   37.9740   26.8480   42.1310 C   0  0  1  0  0  3  0  0  0  0  0  0
   39.3530   26.9630   42.3110 O   0  0  0  0  0  0  0  0  0  0  0  0
   39.7440   25.9360   43.1680 C   0  0  0  0  0  2  0  0  0  0  0  0
   39.4770   24.5610   42.6150 C   0  0  2  0  0  3  0  0  0  0  0  0
   38.0600   24.4180   42.0970 C   0  0  2  0  0  3  0  0  0  0  0  0
   38.6460   25.6070   40.1640 O   0  0  0  0  0  0  0  0  0  0  0  0
   38.4290   26.2590   39.4520 H   0  0  0  0  0  0  0  0  0  0  0  0
   39.6030   23.6540   43.6780 O   0  0  0  0  0  0  0  0  0  0  0  0
   40.5750   23.4660   43.7550 H   0  0  0  0  0  0  0  0  0  0  0  0
   37.9800   23.2970   41.2690 O   0  0  0  0  0  0  0  0  0  0  0  0
   37.0800   22.8800   41.3260 H   0  0  0  0  0  0  0  0  0  0  0  0
   38.4030   31.4220   40.5250 C   0  0  0  0  0  3  0  0  0  0  0  0
   37.8120   32.5760   40.3070 C   0  0  0  0  0  3  0  0  0  0  0  0
   38.5390   33.8330   40.0480 C   0  0  0  0  0  0  0  0  0  0  0  0
   38.7690   34.2900   41.0500 H   0  0  0  0  0  0  0  0  0  0  0  0
   37.9110   34.5650   39.5350 H   0  0  0  0  0  0  0  0  0  0  0  0
   39.5190   33.6700   39.5760 H   0  0  0  0  0  0  0  0  0  0  0  0
  1  6  1  0  0  0  0
  2  3  1  0  0  0  0
  2  1  2  0  0  0  0
  3  4  2  0  0  0  0
  4  5  1  0  0  0  0
  6  5  2  0  0  0  0
  7  2  1  0  0  0  0
  8  3  1  0  0  0  0
  9 15  1  6  0  0  0
  9 14  1  0  0  0  0
  9 10  1  0  0  0  0
 10  5  1  6  0  0  0
 10 11  1  0  0  0  0
 11 12  1  0  0  0  0
 13 12  1  0  0  0  0
 13 17  1  1  0  0  0
 14 19  1  6  0  0  0
 14 13  1  0  0  0  0
 16 15  1  0  0  0  0
 17 18  1  0  0  0  0
 19 20  1  0  0  0  0
 21  1  1  0  0  0  0
 22 21  2  0  0  0  0
 23 22  1  0  0  0  0
 23 24  1  0  0  0  0
 25 23  1  0  0  0  0
 26 23  1  0  0  0  0
M  END
>  <minimizedAffinity>
-4.98462152

$$$$

 OpenBabel03252506193D

 26 27  0  0  1  0  0  0  0  0999 V2000
   36.4110   29.5980   39.9170 C   0  0  0  0  0  0  0  0  0  0  0  0
   35.5620   29.2230   38.8310 C   0  0  0  0  0  0  0  0  0  0  0  0
   35.4570   27.8470   38.5620 C   0  0  0  0  0  0  0  0  0  0  0  0
   36.1550   26.9590   39.3330 N   0  0  0  0  0  0  0  0  0  0  0  0
   36.9540   27.3720   40.3610 C   0  0  0  0  0  0  0  0  0  0  0  0
   37.0630   28.6910   40.6300 N   0  0  0  0  0  0  0  0  0  0  0  0
   35.0590   29.9990   38.2900 H   0  0  0  0  0  0  0  0  0  0  0  0
   34.8250   27.5470   37.7520 H   0  0  0  0  0  0  0  0  0  0  0  0
   37.5160   24.9910   40.6200 C   0  0  2  0  0  3  0  0  0  0  0  0
   37.6920   26.3910   41.1720 C   0  0  1  0  0  3  0  0  0  0  0  0
   39.0670   26.6260   41.2080 O   0  0  0  0  0  0  0  0  0  0  0  0
   39.5880   25.8680   42.2550 C   0  0  0  0  0  2  0  0  0  0  0  0
   39.3910   24.3860   42.0750 C   0  0  2  0  0  3  0  0  0  0  0  0
   37.9590   24.0380   41.7230 C   0  0  2  0  0  3  0  0  0  0  0  0
   38.3300   24.7430   39.5180 O   0  0  0  0  0  0  0  0  0  0  0  0
   38.0190   25.1840   38.6890 H   0  0  0  0  0  0  0  0  0  0  0  0
   39.6520   23.7800   43.3130 O   0  0  0  0  0  0  0  0  0  0  0  0
   40.6380   23.6720   43.3550 H   0  0  0  0  0  0  0  0  0  0  0  0
   37.9110   22.7440   41.2020 O   0  0  0  0  0  0  0  0  0  0  0  0
   37.0500   22.3030   41.4300 H   0  0  0  0  0  0  0  0  0  0  0  0
   36.5290   31.0180   40.2110 C   0  0  0  0  0  3  0  0  0  0  0  0
   37.1040   31.8110   39.3340 C   0  0  0  0  0  3  0  0  0  0  0  0
   37.2690   33.2640   39.5280 C   0  0  0  0  0  0  0  0  0  0  0  0
   36.3270   33.7520   39.1540 H   0  0  0  0  0  0  0  0  0  0  0  0
   38.0700   33.6670   38.9030 H   0  0  0  0  0  0  0  0  0  0  0  0
   37.3380   33.5480   40.5880 H   0  0  0  0  0  0  0  0  0  0  0  0
  1 21  1  0  0  0  0
  1  6  1  0  0  0  0
  2  1  2  0  0  0  0
  3  2  1  0  0  0  0
  3  4  2  0  0  0  0
  4  5  1  0  0  0  0
  5  6  2  0  0  0  0
  7  2  1  0  0  0  0
  8  3  1  0  0  0  0
  9 15  1  6  0  0  0
  9 10  1  0  0  0  0
  9 14  1  0  0  0  0
 10  5  1  6  0  0  0
 10 11  1  0  0  0  0
 11 12  1  0  0  0  0
 13 12  1  0  0  0  0
 13 17  1  1  0  0  0
 14 19  1  6  0  0  0
 14 13  1  0  0  0  0
 16 15  1  0  0  0  0
 17 18  1  0  0  0  0
 19 20  1  0  0  0  0
 22 23  1  0  0  0  0
 22 21  2  0  0  0  0
 23 26  1  0  0  0  0
 24 23  1  0  0  0  0
 25 23  1  0  0  0  0
M  END
>  <minimizedAffinity>
-4.92838955

$$$$
