
 OpenBabel03242518273D

 48 52  0  0  1  0  0  0  0  0999 V2000
   36.2420   29.3400   40.6880 C   0  0  0  0  0  0  0  0  0  0  0  0
   37.2990   28.7270   40.0870 C   0  0  0  0  0  0  0  0  0  0  0  0
   38.3660   29.5130   39.7030 C   0  0  0  0  0  0  0  0  0  0  0  0
   38.3570   30.8710   39.9230 C   0  0  0  0  0  0  0  0  0  0  0  0
   37.2700   31.4790   40.5410 C   0  0  0  0  0  0  0  0  0  0  0  0
   36.1860   30.7010   40.9330 C   0  0  0  0  0  0  0  0  0  0  0  0
   37.5360   32.8430   40.6310 O   0  0  0  0  0  0  0  0  0  0  0  0
   38.6490   33.1160   39.7890 C   0  0  2  0  0  0  0  0  0  0  0  0
   39.2940   31.8810   39.6380 O   0  0  0  0  0  0  0  0  0  0  0  0
   35.3580   28.8050   41.0250 H   0  0  0  0  0  0  0  0  0  0  0  0
   39.2270   29.0730   39.2210 H   0  0  0  0  0  0  0  0  0  0  0  0
   35.3720   31.1990   41.4000 H   0  0  0  0  0  0  0  0  0  0  0  0
   38.3260   33.4810   38.7860 H   0  0  0  0  0  0  0  0  0  0  0  0
   38.2860   25.1720   40.1140 C   0  0  0  0  0  0  0  0  0  0  0  0
   37.2610   24.5720   39.4070 C   0  0  0  0  0  0  0  0  0  0  0  0
   36.2430   25.3940   38.9300 C   0  0  0  0  0  0  0  0  0  0  0  0
   36.2700   26.7330   39.1570 N   0  0  0  0  0  0  0  0  0  0  0  0
   37.2970   27.2860   39.8570 C   0  0  0  0  0  0  0  0  0  0  0  0
   38.2930   26.5020   40.3270 N   0  0  0  0  0  0  0  0  0  0  0  0
   39.1430   24.6760   40.5470 H   0  0  0  0  0  0  0  0  0  0  0  0
   35.4600   24.9110   38.3860 H   0  0  0  0  0  0  0  0  0  0  0  0
   37.3290   23.1740   39.2260 N   0  0  0  0  0  0  0  0  0  0  0  0
   38.0760   22.4050   40.1830 C   0  0  0  0  0  0  0  0  0  0  0  0
   38.1710   20.9600   39.8630 C   0  0  0  0  0  0  0  0  0  0  0  0
   36.9250   20.3810   39.4730 N   0  0  0  0  0  0  0  0  0  0  0  0
   36.0170   21.1800   38.7530 C   0  0  0  0  0  0  0  0  0  0  0  0
   36.7320   22.4030   38.1770 C   0  0  0  0  0  0  0  0  0  0  0  0
   37.6550   22.6110   41.2030 H   0  0  0  0  0  0  0  0  0  0  0  0
   39.1150   22.8290   40.2030 H   0  0  0  0  0  0  0  0  0  0  0  0
   38.9140   20.7720   39.0850 H   0  0  0  0  0  0  0  0  0  0  0  0
   38.5390   20.4340   40.7790 H   0  0  0  0  0  0  0  0  0  0  0  0
   37.1180   19.4960   38.9460 H   0  0  0  0  0  0  0  0  0  0  0  0
   35.2440   21.5810   39.4420 H   0  0  0  0  0  0  0  0  0  0  0  0
   35.4600   20.6610   37.9560 H   0  0  0  0  0  0  0  0  0  0  0  0
   36.0080   22.9620   37.5540 H   0  0  0  0  0  0  0  0  0  0  0  0
   37.5380   22.0320   37.5090 H   0  0  0  0  0  0  0  0  0  0  0  0
   40.8920   34.1130   40.0010 C   0  0  2  0  0  3  0  0  0  0  0  0
   39.4800   34.1350   40.5140 C   0  0  1  0  0  3  0  0  0  0  0  0
   38.8630   35.3620   40.4230 O   0  0  0  0  0  0  0  0  0  0  0  0
   39.6970   36.4230   40.1710 C   0  0  0  0  0  2  0  0  0  0  0  0
   41.0000   36.3900   40.9040 C   0  0  2  0  0  3  0  0  0  0  0  0
   41.6810   35.0560   40.9160 C   0  0  2  0  0  3  0  0  0  0  0  0
   41.0190   34.4520   38.6720 O   0  0  0  0  0  0  0  0  0  0  0  0
   41.2610   33.6940   38.0870 H   0  0  0  0  0  0  0  0  0  0  0  0
   40.8390   36.8970   42.1950 O   0  0  0  0  0  0  0  0  0  0  0  0
   40.3430   36.2940   42.7750 H   0  0  0  0  0  0  0  0  0  0  0  0
   43.0040   35.0870   40.5150 O   0  0  0  0  0  0  0  0  0  0  0  0
   43.5990   34.6380   41.1920 H   0  0  0  0  0  0  0  0  0  0  0  0
  1  6  1  0  0  0  0
  1 10  1  0  0  0  0
  2  1  2  0  0  0  0
  3  4  2  0  0  0  0
  3  2  1  0  0  0  0
  4  5  1  0  0  0  0
  5  7  1  0  0  0  0
  5  6  2  0  0  0  0
  6 12  1  0  0  0  0
  8 13  1  6  0  0  0
  8 38  1  0  0  0  0
  8  7  1  0  0  0  0
  9  8  1  0  0  0  0
  9  4  1  0  0  0  0
 11  3  1  0  0  0  0
 14 19  1  0  0  0  0
 14 20  1  0  0  0  0
 15 14  2  0  0  0  0
 16 17  2  0  0  0  0
 16 15  1  0  0  0  0
 17 18  1  0  0  0  0
 18  2  1  0  0  0  0
 18 19  2  0  0  0  0
 21 16  1  0  0  0  0
 22 15  1  0  0  0  0
 22 23  1  0  0  0  0
 23 29  1  0  0  0  0
 23 28  1  0  0  0  0
 24 23  1  0  0  0  0
 24 31  1  0  0  0  0
 25 24  1  0  0  0  0
 26 33  1  0  0  0  0
 26 25  1  0  0  0  0
 27 26  1  0  0  0  0
 27 22  1  0  0  0  0
 30 24  1  0  0  0  0
 32 25  1  0  0  0  0
 34 26  1  0  0  0  0
 35 27  1  0  0  0  0
 36 27  1  0  0  0  0
 37 43  1  6  0  0  0
 37 38  1  0  0  0  0
 37 42  1  0  0  0  0
 38 39  1  6  0  0  0
 40 39  1  0  0  0  0
 40 41  1  0  0  0  0
 41 42  1  0  0  0  0
 41 45  1  1  0  0  0
 42 47  1  6  0  0  0
 44 43  1  0  0  0  0
 45 46  1  0  0  0  0
 47 48  1  0  0  0  0
M  END
>  <minimizedAffinity>
-7.23889828

$$$$

 OpenBabel03242518273D

 48 52  0  0  1  0  0  0  0  0999 V2000
   37.0830   28.4840   41.5230 C   0  0  0  0  0  0  0  0  0  0  0  0
   37.0230   28.1150   40.2140 C   0  0  0  0  0  0  0  0  0  0  0  0
   37.3350   29.0640   39.2630 C   0  0  0  0  0  0  0  0  0  0  0  0
   37.6950   30.3400   39.6290 C   0  0  0  0  0  0  0  0  0  0  0  0
   37.7510   30.6980   40.9710 C   0  0  0  0  0  0  0  0  0  0  0  0
   37.4390   29.7550   41.9440 C   0  0  0  0  0  0  0  0  0  0  0  0
   38.1380   32.0340   41.0420 O   0  0  0  0  0  0  0  0  0  0  0  0
   38.0160   32.5820   39.7350 C   0  0  2  0  0  0  0  0  0  0  0  0
   38.0540   31.4740   38.8780 O   0  0  0  0  0  0  0  0  0  0  0  0
   36.8550   27.8080   42.3430 H   0  0  0  0  0  0  0  0  0  0  0  0
   37.3020   28.8180   38.2100 H   0  0  0  0  0  0  0  0  0  0  0  0
   37.4910   30.0640   42.9590 H   0  0  0  0  0  0  0  0  0  0  0  0
   37.0440   33.1120   39.6000 H   0  0  0  0  0  0  0  0  0  0  0  0
   36.5310   24.4590   40.3000 C   0  0  0  0  0  0  0  0  0  0  0  0
   35.9040   24.2130   39.0940 C   0  0  0  0  0  0  0  0  0  0  0  0
   35.6570   25.3060   38.2640 C   0  0  0  0  0  0  0  0  0  0  0  0
   36.0250   26.5570   38.6400 N   0  0  0  0  0  0  0  0  0  0  0  0
   36.6400   26.7580   39.8360 C   0  0  0  0  0  0  0  0  0  0  0  0
   36.8870   25.7090   40.6530 N   0  0  0  0  0  0  0  0  0  0  0  0
   36.7910   23.7250   41.0500 H   0  0  0  0  0  0  0  0  0  0  0  0
   35.1710   25.0940   37.3360 H   0  0  0  0  0  0  0  0  0  0  0  0
   35.5640   22.8760   38.7990 N   0  0  0  0  0  0  0  0  0  0  0  0
   36.5070   21.8480   39.1440 C   0  0  0  0  0  0  0  0  0  0  0  0
   36.1090   20.4860   38.7140 C   0  0  0  0  0  0  0  0  0  0  0  0
   34.7480   20.1710   39.0110 N   0  0  0  0  0  0  0  0  0  0  0  0
   33.7980   21.2090   38.9550 C   0  0  0  0  0  0  0  0  0  0  0  0
   34.3630   22.4000   38.1800 C   0  0  0  0  0  0  0  0  0  0  0  0
   36.7240   21.9260   40.2420 H   0  0  0  0  0  0  0  0  0  0  0  0
   37.4740   22.1080   38.6340 H   0  0  0  0  0  0  0  0  0  0  0  0
   36.2870   20.3360   37.6470 H   0  0  0  0  0  0  0  0  0  0  0  0
   36.7700   19.7560   39.2460 H   0  0  0  0  0  0  0  0  0  0  0  0
   34.4470   19.3770   38.3980 H   0  0  0  0  0  0  0  0  0  0  0  0
   33.5950   21.5860   39.9800 H   0  0  0  0  0  0  0  0  0  0  0  0
   32.8150   20.9270   38.5450 H   0  0  0  0  0  0  0  0  0  0  0  0
   33.5650   23.1600   38.0880 H   0  0  0  0  0  0  0  0  0  0  0  0
   34.6110   22.0430   37.1580 H   0  0  0  0  0  0  0  0  0  0  0  0
   38.9420   34.7970   40.2940 C   0  0  2  0  0  3  0  0  0  0  0  0
   39.1860   33.5080   39.5610 C   0  0  1  0  0  3  0  0  0  0  0  0
   40.3360   32.8510   39.9370 O   0  0  0  0  0  0  0  0  0  0  0  0
   41.2200   33.5920   40.6800 C   0  0  0  0  0  2  0  0  0  0  0  0
   41.3830   35.0120   40.2370 C   0  0  2  0  0  3  0  0  0  0  0  0
   40.1040   35.7190   39.9110 C   0  0  2  0  0  3  0  0  0  0  0  0
   38.8150   34.6590   41.6580 O   0  0  0  0  0  0  0  0  0  0  0  0
   37.8980   34.8070   41.9930 H   0  0  0  0  0  0  0  0  0  0  0  0
   42.2960   35.0850   39.1830 O   0  0  0  0  0  0  0  0  0  0  0  0
   41.9390   34.7250   38.3530 H   0  0  0  0  0  0  0  0  0  0  0  0
   39.9500   36.9400   40.5410 O   0  0  0  0  0  0  0  0  0  0  0  0
   39.7300   37.6650   39.8790 H   0  0  0  0  0  0  0  0  0  0  0  0
  1  6  1  0  0  0  0
  1 10  1  0  0  0  0
  2  1  2  0  0  0  0
  3  4  2  0  0  0  0
  3  2  1  0  0  0  0
  4  5  1  0  0  0  0
  5  7  1  0  0  0  0
  5  6  2  0  0  0  0
  6 12  1  0  0  0  0
  8 13  1  6  0  0  0
  8  7  1  0  0  0  0
  9  4  1  0  0  0  0
  9  8  1  0  0  0  0
 11  3  1  0  0  0  0
 14 19  1  0  0  0  0
 14 20  1  0  0  0  0
 15 14  2  0  0  0  0
 16 17  2  0  0  0  0
 16 15  1  0  0  0  0
 17 18  1  0  0  0  0
 18  2  1  0  0  0  0
 18 19  2  0  0  0  0
 21 16  1  0  0  0  0
 22 15  1  0  0  0  0
 22 23  1  0  0  0  0
 23 28  1  0  0  0  0
 24 25  1  0  0  0  0
 24 23  1  0  0  0  0
 24 31  1  0  0  0  0
 26 25  1  0  0  0  0
 26 33  1  0  0  0  0
 27 22  1  0  0  0  0
 27 26  1  0  0  0  0
 29 23  1  0  0  0  0
 30 24  1  0  0  0  0
 32 25  1  0  0  0  0
 34 26  1  0  0  0  0
 35 27  1  0  0  0  0
 36 27  1  0  0  0  0
 37 43  1  1  0  0  0
 38  8  1  0  0  0  0
 38 39  1  1  0  0  0
 38 37  1  0  0  0  0
 39 40  1  0  0  0  0
 41 45  1  6  0  0  0
 41 40  1  0  0  0  0
 42 41  1  0  0  0  0
 42 37  1  0  0  0  0
 42 47  1  1  0  0  0
 43 44  1  0  0  0  0
 46 45  1  0  0  0  0
 48 47  1  0  0  0  0
M  END
>  <minimizedAffinity>
-6.92825508

$$$$

 OpenBabel03242518273D

 48 52  0  0  1  0  0  0  0  0999 V2000
   37.3240   28.9220   42.5410 C   0  0  0  0  0  0  0  0  0  0  0  0
   38.2630   29.1390   41.5790 C   0  0  0  0  0  0  0  0  0  0  0  0
   38.7180   28.0490   40.8650 C   0  0  0  0  0  0  0  0  0  0  0  0
   38.2350   26.7870   41.1200 C   0  0  0  0  0  0  0  0  0  0  0  0
   37.2740   26.5850   42.1050 C   0  0  0  0  0  0  0  0  0  0  0  0
   36.8050   27.6720   42.8350 C   0  0  0  0  0  0  0  0  0  0  0  0
   36.9770   25.2250   42.1420 O   0  0  0  0  0  0  0  0  0  0  0  0
   37.9810   24.5500   41.3940 C   0  0  2  0  0  0  0  0  0  0  0  0
   38.5200   25.5320   40.5520 O   0  0  0  0  0  0  0  0  0  0  0  0
   36.9060   29.7160   43.1540 H   0  0  0  0  0  0  0  0  0  0  0  0
   39.4640   28.1710   40.0930 H   0  0  0  0  0  0  0  0  0  0  0  0
   36.0730   27.4810   43.5800 H   0  0  0  0  0  0  0  0  0  0  0  0
   38.7880   24.1540   42.0530 H   0  0  0  0  0  0  0  0  0  0  0  0
   40.5430   32.0200   41.2310 C   0  0  0  0  0  0  0  0  0  0  0  0
   39.6920   33.0250   40.8140 C   0  0  0  0  0  0  0  0  0  0  0  0
   38.3450   32.7030   40.6570 C   0  0  0  0  0  0  0  0  0  0  0  0
   37.9010   31.4450   40.9080 N   0  0  0  0  0  0  0  0  0  0  0  0
   38.7700   30.4820   41.3170 C   0  0  0  0  0  0  0  0  0  0  0  0
   40.0800   30.7780   41.4750 N   0  0  0  0  0  0  0  0  0  0  0  0
   41.6070   32.1080   41.3990 H   0  0  0  0  0  0  0  0  0  0  0  0
   37.7040   33.4940   40.3330 H   0  0  0  0  0  0  0  0  0  0  0  0
   40.2560   34.2970   40.5810 N   0  0  0  0  0  0  0  0  0  0  0  0
   39.3640   35.3970   40.3340 C   0  0  0  0  0  0  0  0  0  0  0  0
   40.0450   36.6730   40.0080 C   0  0  0  0  0  0  0  0  0  0  0  0
   41.1370   36.9730   40.8780 N   0  0  0  0  0  0  0  0  0  0  0  0
   41.9000   35.9030   41.3820 C   0  0  0  0  0  0  0  0  0  0  0  0
   41.6470   34.6400   40.5570 C   0  0  0  0  0  0  0  0  0  0  0  0
   38.6570   35.4750   41.2020 H   0  0  0  0  0  0  0  0  0  0  0  0
   38.7250   35.1070   39.4580 H   0  0  0  0  0  0  0  0  0  0  0  0
   40.3970   36.6850   38.9740 H   0  0  0  0  0  0  0  0  0  0  0  0
   39.2870   37.4920   40.0890 H   0  0  0  0  0  0  0  0  0  0  0  0
   41.7630   37.6660   40.4030 H   0  0  0  0  0  0  0  0  0  0  0  0
   41.5680   35.6590   42.4140 H   0  0  0  0  0  0  0  0  0  0  0  0
   42.9830   36.0910   41.4580 H   0  0  0  0  0  0  0  0  0  0  0  0
   42.3200   33.8460   40.9290 H   0  0  0  0  0  0  0  0  0  0  0  0
   41.9360   34.8660   39.5080 H   0  0  0  0  0  0  0  0  0  0  0  0
   35.9920   23.9620   40.0640 C   0  0  2  0  0  3  0  0  0  0  0  0
   37.2780   23.4510   40.6500 C   0  0  1  0  0  3  0  0  0  0  0  0
   38.1450   22.9100   39.7280 O   0  0  0  0  0  0  0  0  0  0  0  0
   37.6020   22.6430   38.4960 C   0  0  0  0  0  2  0  0  0  0  0  0
   36.2220   22.0680   38.5240 C   0  0  2  0  0  3  0  0  0  0  0  0
   35.2830   22.7330   39.4830 C   0  0  2  0  0  3  0  0  0  0  0  0
   36.1510   24.9610   39.1290 O   0  0  0  0  0  0  0  0  0  0  0  0
   35.8510   25.8500   39.4370 H   0  0  0  0  0  0  0  0  0  0  0  0
   36.2790   20.6890   38.7330 O   0  0  0  0  0  0  0  0  0  0  0  0
   36.5400   20.4580   39.6410 H   0  0  0  0  0  0  0  0  0  0  0  0
   34.0770   23.1170   38.9270 O   0  0  0  0  0  0  0  0  0  0  0  0
   33.3010   22.7680   39.4650 H   0  0  0  0  0  0  0  0  0  0  0  0
  1  6  1  0  0  0  0
  1 10  1  0  0  0  0
  2  1  2  0  0  0  0
  3  4  2  0  0  0  0
  3  2  1  0  0  0  0
  4  5  1  0  0  0  0
  5  7  1  0  0  0  0
  5  6  2  0  0  0  0
  6 12  1  0  0  0  0
  8 13  1  1  0  0  0
  8  7  1  0  0  0  0
  9  4  1  0  0  0  0
  9  8  1  0  0  0  0
 11  3  1  0  0  0  0
 14 20  1  0  0  0  0
 14 19  1  0  0  0  0
 15 14  2  0  0  0  0
 16 15  1  0  0  0  0
 16 17  2  0  0  0  0
 17 18  1  0  0  0  0
 18 19  2  0  0  0  0
 18  2  1  0  0  0  0
 21 16  1  0  0  0  0
 22 15  1  0  0  0  0
 23 22  1  0  0  0  0
 23 28  1  0  0  0  0
 24 31  1  0  0  0  0
 24 23  1  0  0  0  0
 24 25  1  0  0  0  0
 25 26  1  0  0  0  0
 26 34  1  0  0  0  0
 26 33  1  0  0  0  0
 27 22  1  0  0  0  0
 27 35  1  0  0  0  0
 27 26  1  0  0  0  0
 29 23  1  0  0  0  0
 30 24  1  0  0  0  0
 32 25  1  0  0  0  0
 36 27  1  0  0  0  0
 37 43  1  6  0  0  0
 37 38  1  0  0  0  0
 38 39  1  6  0  0  0
 38  8  1  0  0  0  0
 40 41  1  0  0  0  0
 40 39  1  0  0  0  0
 41 45  1  1  0  0  0
 41 42  1  0  0  0  0
 42 47  1  6  0  0  0
 42 37  1  0  0  0  0
 43 44  1  0  0  0  0
 45 46  1  0  0  0  0
 47 48  1  0  0  0  0
M  END
>  <minimizedAffinity>
-6.81070328

$$$$

 OpenBabel03242518273D

 48 52  0  0  1  0  0  0  0  0999 V2000
   38.3510   31.7170   40.7280 C   0  0  0  0  0  0  0  0  0  0  0  0
   39.1280   30.6320   40.4570 C   0  0  0  0  0  0  0  0  0  0  0  0
   40.4640   30.8470   40.1900 C   0  0  0  0  0  0  0  0  0  0  0  0
   40.9900   32.1180   40.1990 C   0  0  0  0  0  0  0  0  0  0  0  0
   40.1810   33.2140   40.4790 C   0  0  0  0  0  0  0  0  0  0  0  0
   38.8320   33.0150   40.7500 C   0  0  0  0  0  0  0  0  0  0  0  0
   40.9730   34.3580   40.4170 O   0  0  0  0  0  0  0  0  0  0  0  0
   42.1990   33.9940   39.7930 C   0  0  2  0  0  0  0  0  0  0  0  0
   42.2890   32.6060   39.9660 O   0  0  0  0  0  0  0  0  0  0  0  0
   37.2900   31.6480   40.9500 H   0  0  0  0  0  0  0  0  0  0  0  0
   41.1210   30.0180   39.9690 H   0  0  0  0  0  0  0  0  0  0  0  0
   38.2440   33.8750   40.9580 H   0  0  0  0  0  0  0  0  0  0  0  0
   42.1890   34.2230   38.7020 H   0  0  0  0  0  0  0  0  0  0  0  0
   38.4880   27.1010   39.5960 C   0  0  0  0  0  0  0  0  0  0  0  0
   37.4670   26.7630   40.4640 C   0  0  0  0  0  0  0  0  0  0  0  0
   37.0100   27.7500   41.3350 C   0  0  0  0  0  0  0  0  0  0  0  0
   37.5570   28.9930   41.3190 N   0  0  0  0  0  0  0  0  0  0  0  0
   38.5600   29.2870   40.4500 C   0  0  0  0  0  0  0  0  0  0  0  0
   39.0150   28.3410   39.5980 N   0  0  0  0  0  0  0  0  0  0  0  0
   38.9490   26.4540   38.8640 H   0  0  0  0  0  0  0  0  0  0  0  0
   36.2210   27.4680   41.9970 H   0  0  0  0  0  0  0  0  0  0  0  0
   36.9700   25.4440   40.3970 N   0  0  0  0  0  0  0  0  0  0  0  0
   36.2000   25.0690   39.2440 C   0  0  0  0  0  0  0  0  0  0  0  0
   35.6410   23.6970   39.3020 C   0  0  0  0  0  0  0  0  0  0  0  0
   36.5850   22.7170   39.7340 N   0  0  0  0  0  0  0  0  0  0  0  0
   37.5550   23.0990   40.6790 C   0  0  0  0  0  0  0  0  0  0  0  0
   37.1400   24.4010   41.3660 C   0  0  0  0  0  0  0  0  0  0  0  0
   36.8230   25.2600   38.3300 H   0  0  0  0  0  0  0  0  0  0  0  0
   35.3440   25.7930   39.1740 H   0  0  0  0  0  0  0  0  0  0  0  0
   34.7580   23.6530   39.9450 H   0  0  0  0  0  0  0  0  0  0  0  0
   35.2910   23.4290   38.2740 H   0  0  0  0  0  0  0  0  0  0  0  0
   36.0620   21.8770   40.0770 H   0  0  0  0  0  0  0  0  0  0  0  0
   38.5130   23.3230   40.1640 H   0  0  0  0  0  0  0  0  0  0  0  0
   37.8000   22.3370   41.4380 H   0  0  0  0  0  0  0  0  0  0  0  0
   37.8820   24.6260   42.1540 H   0  0  0  0  0  0  0  0  0  0  0  0
   36.1630   24.2180   41.8610 H   0  0  0  0  0  0  0  0  0  0  0  0
   42.9740   34.8070   41.9870 C   0  0  2  0  0  3  0  0  0  0  0  0
   43.2750   34.7540   40.5150 C   0  0  1  0  0  3  0  0  0  0  0  0
   44.4970   34.1990   40.2060 O   0  0  0  0  0  0  0  0  0  0  0  0
   45.3640   34.0630   41.2600 C   0  0  0  0  0  2  0  0  0  0  0  0
   45.3810   35.2120   42.2180 C   0  0  2  0  0  3  0  0  0  0  0  0
   44.0300   35.7390   42.5920 C   0  0  2  0  0  3  0  0  0  0  0  0
   42.9490   33.5780   42.6060 O   0  0  0  0  0  0  0  0  0  0  0  0
   42.0470   33.2850   42.8800 H   0  0  0  0  0  0  0  0  0  0  0  0
   46.2140   36.2260   41.7390 O   0  0  0  0  0  0  0  0  0  0  0  0
   45.8340   36.6920   40.9750 H   0  0  0  0  0  0  0  0  0  0  0  0
   43.8180   35.8510   43.9540 O   0  0  0  0  0  0  0  0  0  0  0  0
   43.4960   36.7730   44.1970 H   0  0  0  0  0  0  0  0  0  0  0  0
  1  6  1  0  0  0  0
  1 10  1  0  0  0  0
  2  1  2  0  0  0  0
  3  4  2  0  0  0  0
  3  2  1  0  0  0  0
  4  5  1  0  0  0  0
  5  6  2  0  0  0  0
  6 12  1  0  0  0  0
  7  5  1  0  0  0  0
  8 13  1  6  0  0  0
  8  9  1  0  0  0  0
  8  7  1  0  0  0  0
  8 38  1  0  0  0  0
  9  4  1  0  0  0  0
 11  3  1  0  0  0  0
 14 19  2  0  0  0  0
 14 15  1  0  0  0  0
 15 16  2  0  0  0  0
 16 21  1  0  0  0  0
 17 16  1  0  0  0  0
 18  2  1  0  0  0  0
 18 17  2  0  0  0  0
 19 18  1  0  0  0  0
 20 14  1  0  0  0  0
 22 15  1  0  0  0  0
 22 27  1  0  0  0  0
 23 24  1  0  0  0  0
 23 22  1  0  0  0  0
 24 25  1  0  0  0  0
 24 30  1  0  0  0  0
 25 32  1  0  0  0  0
 25 26  1  0  0  0  0
 26 27  1  0  0  0  0
 26 34  1  0  0  0  0
 27 36  1  0  0  0  0
 27 35  1  0  0  0  0
 28 23  1  0  0  0  0
 29 23  1  0  0  0  0
 31 24  1  0  0  0  0
 33 26  1  0  0  0  0
 37 42  1  0  0  0  0
 37 43  1  1  0  0  0
 38 39  1  1  0  0  0
 38 37  1  0  0  0  0
 39 40  1  0  0  0  0
 40 41  1  0  0  0  0
 41 45  1  6  0  0  0
 41 42  1  0  0  0  0
 42 47  1  1  0  0  0
 43 44  1  0  0  0  0
 46 45  1  0  0  0  0
 47 48  1  0  0  0  0
M  END
>  <minimizedAffinity>
-6.77048349

$$$$

 OpenBabel03242518273D

 48 52  0  0  1  0  0  0  0  0999 V2000
   38.1420   27.5280   42.3010 C   0  0  0  0  0  0  0  0  0  0  0  0
   37.5790   27.4180   41.0660 C   0  0  0  0  0  0  0  0  0  0  0  0
   37.5540   28.5420   40.2670 C   0  0  0  0  0  0  0  0  0  0  0  0
   38.0820   29.7330   40.7070 C   0  0  0  0  0  0  0  0  0  0  0  0
   38.6540   29.8260   41.9710 C   0  0  0  0  0  0  0  0  0  0  0  0
   38.6870   28.7030   42.7910 C   0  0  0  0  0  0  0  0  0  0  0  0
   39.1000   31.1340   42.1450 O   0  0  0  0  0  0  0  0  0  0  0  0
   38.5210   31.9210   41.1110 C   0  0  2  0  0  0  0  0  0  0  0  0
   38.1850   31.0010   40.1080 O   0  0  0  0  0  0  0  0  0  0  0  0
   38.2080   26.6990   43.0010 H   0  0  0  0  0  0  0  0  0  0  0  0
   37.1180   28.5040   39.2790 H   0  0  0  0  0  0  0  0  0  0  0  0
   39.1300   28.8110   43.7500 H   0  0  0  0  0  0  0  0  0  0  0  0
   37.5950   32.4370   41.4540 H   0  0  0  0  0  0  0  0  0  0  0  0
   35.8980   24.8730   38.9890 C   0  0  0  0  0  0  0  0  0  0  0  0
   35.9820   23.7410   39.7770 C   0  0  0  0  0  0  0  0  0  0  0  0
   36.6140   23.8640   41.0130 C   0  0  0  0  0  0  0  0  0  0  0  0
   37.1230   25.0570   41.4130 N   0  0  0  0  0  0  0  0  0  0  0  0
   37.0210   26.1480   40.6090 C   0  0  0  0  0  0  0  0  0  0  0  0
   36.4100   26.0460   39.4070 N   0  0  0  0  0  0  0  0  0  0  0  0
   35.4420   24.9420   38.0110 H   0  0  0  0  0  0  0  0  0  0  0  0
   36.6680   22.9770   41.6060 H   0  0  0  0  0  0  0  0  0  0  0  0
   35.4190   22.5520   39.2660 N   0  0  0  0  0  0  0  0  0  0  0  0
   33.9870   22.4380   39.2420 C   0  0  0  0  0  0  0  0  0  0  0  0
   33.4880   21.1210   38.7780 C   0  0  0  0  0  0  0  0  0  0  0  0
   34.1450   20.6470   37.6010 N   0  0  0  0  0  0  0  0  0  0  0  0
   35.5060   20.9600   37.4280 C   0  0  0  0  0  0  0  0  0  0  0  0
   36.1170   21.4090   38.7560 C   0  0  0  0  0  0  0  0  0  0  0  0
   33.5770   23.3040   38.6590 H   0  0  0  0  0  0  0  0  0  0  0  0
   33.6300   22.5960   40.2950 H   0  0  0  0  0  0  0  0  0  0  0  0
   33.5670   20.3650   39.5620 H   0  0  0  0  0  0  0  0  0  0  0  0
   32.3960   21.2310   38.5590 H   0  0  0  0  0  0  0  0  0  0  0  0
   34.0040   19.6110   37.5340 H   0  0  0  0  0  0  0  0  0  0  0  0
   35.6070   21.8270   36.7420 H   0  0  0  0  0  0  0  0  0  0  0  0
   36.1210   20.1600   36.9840 H   0  0  0  0  0  0  0  0  0  0  0  0
   37.2000   21.5680   38.5990 H   0  0  0  0  0  0  0  0  0  0  0  0
   35.9980   20.5730   39.4760 H   0  0  0  0  0  0  0  0  0  0  0  0
   39.8390   32.7770   39.2120 C   0  0  2  0  0  3  0  0  0  0  0  0
   39.5810   32.8980   40.6880 C   0  0  1  0  0  3  0  0  0  0  0  0
   39.2150   34.1600   41.0980 O   0  0  0  0  0  0  0  0  0  0  0  0
   39.4300   35.1610   40.1830 C   0  0  0  0  0  2  0  0  0  0  0  0
   40.7140   35.0580   39.4230 C   0  0  2  0  0  3  0  0  0  0  0  0
   41.0410   33.6840   38.9250 C   0  0  2  0  0  3  0  0  0  0  0  0
   38.7560   33.0840   38.4190 O   0  0  0  0  0  0  0  0  0  0  0  0
   38.3560   32.3020   37.9670 H   0  0  0  0  0  0  0  0  0  0  0  0
   41.7610   35.5970   40.1730 O   0  0  0  0  0  0  0  0  0  0  0  0
   42.0070   35.0370   40.9290 H   0  0  0  0  0  0  0  0  0  0  0  0
   41.3530   33.6230   37.5800 O   0  0  0  0  0  0  0  0  0  0  0  0
   42.2280   33.1500   37.4300 H   0  0  0  0  0  0  0  0  0  0  0  0
  1  6  1  0  0  0  0
  1 10  1  0  0  0  0
  2  1  2  0  0  0  0
  3  4  2  0  0  0  0
  3  2  1  0  0  0  0
  4  5  1  0  0  0  0
  5  7  1  0  0  0  0
  5  6  2  0  0  0  0
  6 12  1  0  0  0  0
  8 13  1  1  0  0  0
  8  7  1  0  0  0  0
  9  4  1  0  0  0  0
  9  8  1  0  0  0  0
 11  3  1  0  0  0  0
 14 19  2  0  0  0  0
 14 15  1  0  0  0  0
 15 16  2  0  0  0  0
 16 17  1  0  0  0  0
 16 21  1  0  0  0  0
 18  2  1  0  0  0  0
 18 17  2  0  0  0  0
 19 18  1  0  0  0  0
 20 14  1  0  0  0  0
 22 15  1  0  0  0  0
 23 22  1  0  0  0  0
 23 29  1  0  0  0  0
 24 23  1  0  0  0  0
 24 30  1  0  0  0  0
 25 24  1  0  0  0  0
 26 25  1  0  0  0  0
 26 27  1  0  0  0  0
 27 22  1  0  0  0  0
 27 36  1  0  0  0  0
 28 23  1  0  0  0  0
 31 24  1  0  0  0  0
 32 25  1  0  0  0  0
 33 26  1  0  0  0  0
 34 26  1  0  0  0  0
 35 27  1  0  0  0  0
 37 43  1  6  0  0  0
 37 38  1  0  0  0  0
 38 39  1  6  0  0  0
 38  8  1  0  0  0  0
 40 39  1  0  0  0  0
 41 45  1  1  0  0  0
 41 40  1  0  0  0  0
 42 47  1  6  0  0  0
 42 37  1  0  0  0  0
 42 41  1  0  0  0  0
 44 43  1  0  0  0  0
 45 46  1  0  0  0  0
 48 47  1  0  0  0  0
M  END
>  <minimizedAffinity>
-6.50979662

$$$$

 OpenBabel03242518273D

 48 52  0  0  1  0  0  0  0  0999 V2000
   37.2850   32.0350   39.8240 C   0  0  0  0  0  0  0  0  0  0  0  0
   37.8800   31.0630   39.0790 C   0  0  0  0  0  0  0  0  0  0  0  0
   39.1760   31.2770   38.6570 C   0  0  0  0  0  0  0  0  0  0  0  0
   39.8400   32.4370   38.9810 C   0  0  0  0  0  0  0  0  0  0  0  0
   39.2170   33.4180   39.7430 C   0  0  0  0  0  0  0  0  0  0  0  0
   37.9110   33.2180   40.1760 C   0  0  0  0  0  0  0  0  0  0  0  0
   40.1180   34.4670   39.9120 O   0  0  0  0  0  0  0  0  0  0  0  0
   41.1830   34.2650   38.9910 C   0  0  2  0  0  0  0  0  0  0  0  0
   41.1370   32.8980   38.6860 O   0  0  0  0  0  0  0  0  0  0  0  0
   36.2690   31.9570   40.2010 H   0  0  0  0  0  0  0  0  0  0  0  0
   39.6900   30.5350   38.0630 H   0  0  0  0  0  0  0  0  0  0  0  0
   37.4650   33.9900   40.7550 H   0  0  0  0  0  0  0  0  0  0  0  0
   41.0340   34.8500   38.0540 H   0  0  0  0  0  0  0  0  0  0  0  0
   36.9360   27.5020   38.8620 C   0  0  0  0  0  0  0  0  0  0  0  0
   35.7930   27.5430   38.0860 C   0  0  0  0  0  0  0  0  0  0  0  0
   35.3590   28.7920   37.6470 C   0  0  0  0  0  0  0  0  0  0  0  0
   36.0440   29.9170   37.9760 N   0  0  0  0  0  0  0  0  0  0  0  0
   37.1650   29.8360   38.7410 C   0  0  0  0  0  0  0  0  0  0  0  0
   37.5990   28.6310   39.1760 N   0  0  0  0  0  0  0  0  0  0  0  0
   37.3980   26.6180   39.2780 H   0  0  0  0  0  0  0  0  0  0  0  0
   34.4740   28.8020   37.0490 H   0  0  0  0  0  0  0  0  0  0  0  0
   35.1570   26.3150   37.8020 N   0  0  0  0  0  0  0  0  0  0  0  0
   33.9640   26.3410   37.0020 C   0  0  0  0  0  0  0  0  0  0  0  0
   33.3140   25.0200   36.8330 C   0  0  0  0  0  0  0  0  0  0  0  0
   34.2290   23.9730   36.5060 N   0  0  0  0  0  0  0  0  0  0  0  0
   35.5260   24.0310   37.0500 C   0  0  0  0  0  0  0  0  0  0  0  0
   35.5630   25.0080   38.2260 C   0  0  0  0  0  0  0  0  0  0  0  0
   34.2050   26.8500   36.0310 H   0  0  0  0  0  0  0  0  0  0  0  0
   33.2390   27.0250   37.5200 H   0  0  0  0  0  0  0  0  0  0  0  0
   32.7480   24.7360   37.7240 H   0  0  0  0  0  0  0  0  0  0  0  0
   32.5660   25.1130   36.0060 H   0  0  0  0  0  0  0  0  0  0  0  0
   33.7840   23.0540   36.7380 H   0  0  0  0  0  0  0  0  0  0  0  0
   36.2310   24.4410   36.2960 H   0  0  0  0  0  0  0  0  0  0  0  0
   35.9530   23.0610   37.3540 H   0  0  0  0  0  0  0  0  0  0  0  0
   36.5720   24.9660   38.6760 H   0  0  0  0  0  0  0  0  0  0  0  0
   34.8380   24.6420   38.9840 H   0  0  0  0  0  0  0  0  0  0  0  0
   42.2540   34.5250   41.1950 C   0  0  2  0  0  3  0  0  0  0  0  0
   42.4370   34.6700   39.7100 C   0  0  1  0  0  3  0  0  0  0  0  0
   43.4970   33.9570   39.1970 O   0  0  0  0  0  0  0  0  0  0  0  0
   44.3880   33.4790   40.1260 C   0  0  0  0  0  2  0  0  0  0  0  0
   44.7030   34.4210   41.2440 C   0  0  2  0  0  3  0  0  0  0  0  0
   43.5160   35.1210   41.8300 C   0  0  2  0  0  3  0  0  0  0  0  0
   42.0210   33.2340   41.6150 O   0  0  0  0  0  0  0  0  0  0  0  0
   41.0990   33.0750   41.9290 H   0  0  0  0  0  0  0  0  0  0  0  0
   45.6900   35.3250   40.8470 O   0  0  0  0  0  0  0  0  0  0  0  0
   45.3620   35.9810   40.2070 H   0  0  0  0  0  0  0  0  0  0  0  0
   43.4240   35.0340   43.2060 O   0  0  0  0  0  0  0  0  0  0  0  0
   43.3130   35.9450   43.6210 H   0  0  0  0  0  0  0  0  0  0  0  0
  1  6  1  0  0  0  0
  1 10  1  0  0  0  0
  2  1  2  0  0  0  0
  3  4  2  0  0  0  0
  3  2  1  0  0  0  0
  4  5  1  0  0  0  0
  5  7  1  0  0  0  0
  5  6  2  0  0  0  0
  6 12  1  0  0  0  0
  8 13  1  6  0  0  0
  8 38  1  0  0  0  0
  8  7  1  0  0  0  0
  9  4  1  0  0  0  0
  9  8  1  0  0  0  0
 11  3  1  0  0  0  0
 14 19  1  0  0  0  0
 14 20  1  0  0  0  0
 15 14  2  0  0  0  0
 16 17  2  0  0  0  0
 16 15  1  0  0  0  0
 17 18  1  0  0  0  0
 18  2  1  0  0  0  0
 18 19  2  0  0  0  0
 21 16  1  0  0  0  0
 22 15  1  0  0  0  0
 22 27  1  0  0  0  0
 23 29  1  0  0  0  0
 23 22  1  0  0  0  0
 24 23  1  0  0  0  0
 24 30  1  0  0  0  0
 25 32  1  0  0  0  0
 25 24  1  0  0  0  0
 25 26  1  0  0  0  0
 26 34  1  0  0  0  0
 26 27  1  0  0  0  0
 27 35  1  0  0  0  0
 27 36  1  0  0  0  0
 28 23  1  0  0  0  0
 31 24  1  0  0  0  0
 33 26  1  0  0  0  0
 37 43  1  6  0  0  0
 37 42  1  0  0  0  0
 38 39  1  6  0  0  0
 38 37  1  0  0  0  0
 39 40  1  0  0  0  0
 40 41  1  0  0  0  0
 41 45  1  6  0  0  0
 41 42  1  0  0  0  0
 42 47  1  1  0  0  0
 43 44  1  0  0  0  0
 46 45  1  0  0  0  0
 47 48  1  0  0  0  0
M  END
>  <minimizedAffinity>
-6.47293377

$$$$

 OpenBabel03242518273D

 48 52  0  0  1  0  0  0  0  0999 V2000
   36.9430   29.8480   39.6130 C   0  0  0  0  0  0  0  0  0  0  0  0
   38.0960   29.2380   39.2250 C   0  0  0  0  0  0  0  0  0  0  0  0
   39.2460   30.0000   39.1830 C   0  0  0  0  0  0  0  0  0  0  0  0
   39.2220   31.3320   39.5230 C   0  0  0  0  0  0  0  0  0  0  0  0
   38.0340   31.9380   39.9170 C   0  0  0  0  0  0  0  0  0  0  0  0
   36.8660   31.1850   39.9650 C   0  0  0  0  0  0  0  0  0  0  0  0
   38.3070   33.2750   40.1970 O   0  0  0  0  0  0  0  0  0  0  0  0
   39.5980   33.5640   39.6750 C   0  0  2  0  0  0  0  0  0  0  0  0
   40.2270   32.3160   39.5660 O   0  0  0  0  0  0  0  0  0  0  0  0
   35.9890   29.3310   39.6760 H   0  0  0  0  0  0  0  0  0  0  0  0
   40.1860   29.5600   38.8810 H   0  0  0  0  0  0  0  0  0  0  0  0
   35.9780   31.6810   40.2700 H   0  0  0  0  0  0  0  0  0  0  0  0
   39.5380   34.0280   38.6630 H   0  0  0  0  0  0  0  0  0  0  0  0
   39.0200   25.6680   39.0750 C   0  0  0  0  0  0  0  0  0  0  0  0
   38.1080   25.1620   38.1680 C   0  0  0  0  0  0  0  0  0  0  0  0
   37.1880   26.0510   37.6180 C   0  0  0  0  0  0  0  0  0  0  0  0
   37.1980   27.3630   37.9690 N   0  0  0  0  0  0  0  0  0  0  0  0
   38.1100   27.8230   38.8660 C   0  0  0  0  0  0  0  0  0  0  0  0
   39.0120   26.9730   39.4090 N   0  0  0  0  0  0  0  0  0  0  0  0
   39.7930   25.1120   39.5860 H   0  0  0  0  0  0  0  0  0  0  0  0
   36.4920   25.6390   36.9190 H   0  0  0  0  0  0  0  0  0  0  0  0
   38.1850   23.7840   37.8720 N   0  0  0  0  0  0  0  0  0  0  0  0
   39.1390   22.9890   38.5950 C   0  0  0  0  0  0  0  0  0  0  0  0
   39.2150   21.5760   38.1540 C   0  0  0  0  0  0  0  0  0  0  0  0
   37.9350   20.9640   37.9830 N   0  0  0  0  0  0  0  0  0  0  0  0
   36.8710   21.7650   37.5270 C   0  0  0  0  0  0  0  0  0  0  0  0
   37.4090   23.0570   36.9110 C   0  0  0  0  0  0  0  0  0  0  0  0
   38.9310   23.1060   39.6920 H   0  0  0  0  0  0  0  0  0  0  0  0
   40.1450   23.4610   38.4340 H   0  0  0  0  0  0  0  0  0  0  0  0
   39.7860   21.4770   37.2280 H   0  0  0  0  0  0  0  0  0  0  0  0
   39.7820   21.0080   38.9330 H   0  0  0  0  0  0  0  0  0  0  0  0
   38.0450   20.1270   37.3630 H   0  0  0  0  0  0  0  0  0  0  0  0
   36.2440   22.0810   38.3870 H   0  0  0  0  0  0  0  0  0  0  0  0
   36.1800   21.2740   36.8230 H   0  0  0  0  0  0  0  0  0  0  0  0
   36.5550   23.6210   36.4930 H   0  0  0  0  0  0  0  0  0  0  0  0
   38.0730   22.7710   36.0670 H   0  0  0  0  0  0  0  0  0  0  0  0
   41.7320   34.5610   40.3980 C   0  0  2  0  0  3  0  0  0  0  0  0
   40.2560   34.4750   40.6700 C   0  0  1  0  0  3  0  0  0  0  0  0
   39.6080   35.6890   40.6630 O   0  0  0  0  0  0  0  0  0  0  0  0
   40.4230   36.7920   40.7120 C   0  0  0  0  0  2  0  0  0  0  0  0
   41.5930   36.6720   41.6370 C   0  0  2  0  0  3  0  0  0  0  0  0
   42.3230   35.3660   41.5610 C   0  0  2  0  0  3  0  0  0  0  0  0
   42.0540   35.1030   39.1740 O   0  0  0  0  0  0  0  0  0  0  0  0
   42.4200   34.4500   38.5300 H   0  0  0  0  0  0  0  0  0  0  0  0
   41.2060   36.9710   42.9440 O   0  0  0  0  0  0  0  0  0  0  0  0
   40.6520   36.2760   43.3380 H   0  0  0  0  0  0  0  0  0  0  0  0
   43.6900   35.4850   41.3920 O   0  0  0  0  0  0  0  0  0  0  0  0
   44.1890   34.9490   42.0820 H   0  0  0  0  0  0  0  0  0  0  0  0
  1 10  1  0  0  0  0
  1  6  1  0  0  0  0
  2  1  2  0  0  0  0
  3  2  1  0  0  0  0
  3  4  2  0  0  0  0
  4  9  1  0  0  0  0
  4  5  1  0  0  0  0
  5  6  2  0  0  0  0
  5  7  1  0  0  0  0
  6 12  1  0  0  0  0
  8 13  1  6  0  0  0
  8  7  1  0  0  0  0
  8 38  1  0  0  0  0
  9  8  1  0  0  0  0
 11  3  1  0  0  0  0
 14 19  1  0  0  0  0
 14 20  1  0  0  0  0
 15 14  2  0  0  0  0
 16 17  2  0  0  0  0
 16 15  1  0  0  0  0
 17 18  1  0  0  0  0
 18  2  1  0  0  0  0
 18 19  2  0  0  0  0
 21 16  1  0  0  0  0
 22 15  1  0  0  0  0
 22 23  1  0  0  0  0
 23 28  1  0  0  0  0
 24 23  1  0  0  0  0
 24 31  1  0  0  0  0
 25 24  1  0  0  0  0
 26 25  1  0  0  0  0
 26 33  1  0  0  0  0
 27 26  1  0  0  0  0
 27 22  1  0  0  0  0
 29 23  1  0  0  0  0
 30 24  1  0  0  0  0
 32 25  1  0  0  0  0
 34 26  1  0  0  0  0
 35 27  1  0  0  0  0
 36 27  1  0  0  0  0
 37 43  1  6  0  0  0
 37 38  1  0  0  0  0
 37 42  1  0  0  0  0
 38 39  1  6  0  0  0
 39 40  1  0  0  0  0
 40 41  1  0  0  0  0
 41 45  1  1  0  0  0
 42 47  1  6  0  0  0
 42 41  1  0  0  0  0
 44 43  1  0  0  0  0
 45 46  1  0  0  0  0
 47 48  1  0  0  0  0
M  END
>  <minimizedAffinity>
-6.35892391

$$$$

 OpenBabel03242518273D

 48 52  0  0  1  0  0  0  0  0999 V2000
   35.4350   29.3310   39.5270 C   0  0  0  0  0  0  0  0  0  0  0  0
   35.8230   29.4100   38.2250 C   0  0  0  0  0  0  0  0  0  0  0  0
   36.6690   30.4390   37.8670 C   0  0  0  0  0  0  0  0  0  0  0  0
   37.1020   31.3530   38.7980 C   0  0  0  0  0  0  0  0  0  0  0  0
   36.6950   31.2560   40.1240 C   0  0  0  0  0  0  0  0  0  0  0  0
   35.8430   30.2250   40.5030 C   0  0  0  0  0  0  0  0  0  0  0  0
   37.2820   32.3030   40.8310 O   0  0  0  0  0  0  0  0  0  0  0  0
   37.7980   33.2230   39.8770 C   0  0  2  0  0  0  0  0  0  0  0  0
   37.9480   32.4740   38.7020 O   0  0  0  0  0  0  0  0  0  0  0  0
   34.7710   28.5570   39.9040 H   0  0  0  0  0  0  0  0  0  0  0  0
   37.0040   30.5440   36.8440 H   0  0  0  0  0  0  0  0  0  0  0  0
   35.5510   30.1820   41.5230 H   0  0  0  0  0  0  0  0  0  0  0  0
   37.0860   34.0590   39.6840 H   0  0  0  0  0  0  0  0  0  0  0  0
   35.1370   27.7140   35.0200 C   0  0  0  0  0  0  0  0  0  0  0  0
   34.4660   26.5750   35.4220 C   0  0  0  0  0  0  0  0  0  0  0  0
   34.2560   26.4020   36.7890 C   0  0  0  0  0  0  0  0  0  0  0  0
   34.7000   27.3260   37.6800 N   0  0  0  0  0  0  0  0  0  0  0  0
   35.3570   28.4340   37.2440 C   0  0  0  0  0  0  0  0  0  0  0  0
   35.5690   28.6170   35.9210 N   0  0  0  0  0  0  0  0  0  0  0  0
   35.3770   27.9920   34.0040 H   0  0  0  0  0  0  0  0  0  0  0  0
   33.7350   25.5150   37.0790 H   0  0  0  0  0  0  0  0  0  0  0  0
   34.0470   25.6790   34.4160 N   0  0  0  0  0  0  0  0  0  0  0  0
   34.1650   26.0980   33.0470 C   0  0  0  0  0  0  0  0  0  0  0  0
   33.6150   25.1340   32.0640 C   0  0  0  0  0  0  0  0  0  0  0  0
   34.0090   23.7830   32.3110 N   0  0  0  0  0  0  0  0  0  0  0  0
   34.1780   23.3740   33.6470 C   0  0  0  0  0  0  0  0  0  0  0  0
   33.5000   24.3670   34.5930 C   0  0  0  0  0  0  0  0  0  0  0  0
   35.2360   26.3710   32.8560 H   0  0  0  0  0  0  0  0  0  0  0  0
   33.5950   27.0610   32.9500 H   0  0  0  0  0  0  0  0  0  0  0  0
   32.5250   25.1870   32.0190 H   0  0  0  0  0  0  0  0  0  0  0  0
   33.9840   25.4340   31.0510 H   0  0  0  0  0  0  0  0  0  0  0  0
   33.3380   23.1440   31.8230 H   0  0  0  0  0  0  0  0  0  0  0  0
   35.2560   23.3950   33.9130 H   0  0  0  0  0  0  0  0  0  0  0  0
   33.8390   22.3500   33.8730 H   0  0  0  0  0  0  0  0  0  0  0  0
   33.5830   23.9720   35.6230 H   0  0  0  0  0  0  0  0  0  0  0  0
   32.4220   24.3960   34.3270 H   0  0  0  0  0  0  0  0  0  0  0  0
   40.2520   33.0700   39.7170 C   0  0  2  0  0  3  0  0  0  0  0  0
   39.1020   33.7170   40.4360 C   0  0  1  0  0  3  0  0  0  0  0  0
   39.1120   35.0920   40.4000 O   0  0  0  0  0  0  0  0  0  0  0  0
   40.2930   35.6610   39.9920 C   0  0  0  0  0  2  0  0  0  0  0  0
   41.5280   35.0030   40.5210 C   0  0  2  0  0  3  0  0  0  0  0  0
   41.5120   33.5060   40.4730 C   0  0  2  0  0  3  0  0  0  0  0  0
   40.3220   33.3670   38.3750 O   0  0  0  0  0  0  0  0  0  0  0  0
   40.0990   32.6070   37.7840 H   0  0  0  0  0  0  0  0  0  0  0  0
   41.8110   35.4740   41.8050 O   0  0  0  0  0  0  0  0  0  0  0  0
   41.1850   35.1430   42.4720 H   0  0  0  0  0  0  0  0  0  0  0  0
   42.6250   32.9430   39.8770 O   0  0  0  0  0  0  0  0  0  0  0  0
   43.0400   32.2440   40.4700 H   0  0  0  0  0  0  0  0  0  0  0  0
  1 10  1  0  0  0  0
  1  6  1  0  0  0  0
  2  1  2  0  0  0  0
  3  2  1  0  0  0  0
  3  4  2  0  0  0  0
  4  5  1  0  0  0  0
  5  6  2  0  0  0  0
  5  7  1  0  0  0  0
  6 12  1  0  0  0  0
  8 13  1  6  0  0  0
  8 38  1  0  0  0  0
  8  7  1  0  0  0  0
  9  4  1  0  0  0  0
  9  8  1  0  0  0  0
 11  3  1  0  0  0  0
 14 15  2  0  0  0  0
 14 19  1  0  0  0  0
 15 16  1  0  0  0  0
 16 21  1  0  0  0  0
 16 17  2  0  0  0  0
 18 17  1  0  0  0  0
 18  2  1  0  0  0  0
 19 18  2  0  0  0  0
 20 14  1  0  0  0  0
 22 27  1  0  0  0  0
 22 15  1  0  0  0  0
 23 22  1  0  0  0  0
 24 25  1  0  0  0  0
 24 23  1  0  0  0  0
 25 26  1  0  0  0  0
 26 34  1  0  0  0  0
 26 33  1  0  0  0  0
 26 27  1  0  0  0  0
 27 35  1  0  0  0  0
 28 23  1  0  0  0  0
 29 23  1  0  0  0  0
 30 24  1  0  0  0  0
 31 24  1  0  0  0  0
 32 25  1  0  0  0  0
 36 27  1  0  0  0  0
 37 43  1  6  0  0  0
 37 38  1  0  0  0  0
 37 42  1  0  0  0  0
 38 39  1  6  0  0  0
 40 39  1  0  0  0  0
 40 41  1  0  0  0  0
 41 45  1  1  0  0  0
 42 47  1  6  0  0  0
 42 41  1  0  0  0  0
 44 43  1  0  0  0  0
 45 46  1  0  0  0  0
 47 48  1  0  0  0  0
M  END
>  <minimizedAffinity>
-6.26329422

$$$$

 OpenBabel03242518273D

 48 52  0  0  1  0  0  0  0  0999 V2000
   34.9400   27.1110   37.5710 C   0  0  0  0  0  0  0  0  0  0  0  0
   34.3980   28.3270   37.8550 C   0  0  0  0  0  0  0  0  0  0  0  0
   34.7970   28.9550   39.0170 C   0  0  0  0  0  0  0  0  0  0  0  0
   35.7120   28.3670   39.8580 C   0  0  0  0  0  0  0  0  0  0  0  0
   36.2560   27.1240   39.5510 C   0  0  0  0  0  0  0  0  0  0  0  0
   35.8650   26.4770   38.3840 C   0  0  0  0  0  0  0  0  0  0  0  0
   37.1420   26.7810   40.5690 O   0  0  0  0  0  0  0  0  0  0  0  0
   36.9080   27.6690   41.6550 C   0  0  2  0  0  0  0  0  0  0  0  0
   36.2790   28.7810   41.0770 O   0  0  0  0  0  0  0  0  0  0  0  0
   34.6880   26.5400   36.6810 H   0  0  0  0  0  0  0  0  0  0  0  0
   34.3940   29.9210   39.2850 H   0  0  0  0  0  0  0  0  0  0  0  0
   36.2990   25.5290   38.1830 H   0  0  0  0  0  0  0  0  0  0  0  0
   36.2250   27.2210   42.4140 H   0  0  0  0  0  0  0  0  0  0  0  0
   32.7710   29.6140   34.8030 C   0  0  0  0  0  0  0  0  0  0  0  0
   31.5730   30.1040   35.2870 C   0  0  0  0  0  0  0  0  0  0  0  0
   31.3380   29.9880   36.6560 C   0  0  0  0  0  0  0  0  0  0  0  0
   32.2590   29.4120   37.4700 N   0  0  0  0  0  0  0  0  0  0  0  0
   33.4260   28.9420   36.9550 C   0  0  0  0  0  0  0  0  0  0  0  0
   33.6710   29.0470   35.6290 N   0  0  0  0  0  0  0  0  0  0  0  0
   33.1020   29.6290   33.7740 H   0  0  0  0  0  0  0  0  0  0  0  0
   30.4060   30.3730   37.0090 H   0  0  0  0  0  0  0  0  0  0  0  0
   30.6860   30.6840   34.3560 N   0  0  0  0  0  0  0  0  0  0  0  0
   30.7580   32.1040   34.1470 C   0  0  0  0  0  0  0  0  0  0  0  0
   29.7280   32.6380   33.2230 C   0  0  0  0  0  0  0  0  0  0  0  0
   29.5790   31.8650   32.0310 N   0  0  0  0  0  0  0  0  0  0  0  0
   29.7650   30.4730   32.1130 C   0  0  0  0  0  0  0  0  0  0  0  0
   29.6910   30.0150   33.5710 C   0  0  0  0  0  0  0  0  0  0  0  0
   31.8080   32.3600   33.8440 H   0  0  0  0  0  0  0  0  0  0  0  0
   30.6140   32.5890   35.1490 H   0  0  0  0  0  0  0  0  0  0  0  0
   28.7580   32.7280   33.7170 H   0  0  0  0  0  0  0  0  0  0  0  0
   30.0320   33.6770   32.9410 H   0  0  0  0  0  0  0  0  0  0  0  0
   28.6430   32.0770   31.6100 H   0  0  0  0  0  0  0  0  0  0  0  0
   30.7870   30.2100   31.7680 H   0  0  0  0  0  0  0  0  0  0  0  0
   29.0810   29.8680   31.4960 H   0  0  0  0  0  0  0  0  0  0  0  0
   29.7600   28.9120   33.5890 H   0  0  0  0  0  0  0  0  0  0  0  0
   28.6880   30.2990   33.9570 H   0  0  0  0  0  0  0  0  0  0  0  0
   38.7770   26.8070   43.0090 C   0  0  2  0  0  3  0  0  0  0  0  0
   38.2570   27.9850   42.2340 C   0  0  1  0  0  3  0  0  0  0  0  0
   39.0890   28.4100   41.2230 O   0  0  0  0  0  0  0  0  0  0  0  0
   40.3670   27.9110   41.2650 C   0  0  0  0  0  2  0  0  0  0  0  0
   40.9710   27.8330   42.6310 C   0  0  2  0  0  3  0  0  0  0  0  0
   40.0610   27.2930   43.6910 C   0  0  2  0  0  3  0  0  0  0  0  0
   38.9860   25.6760   42.2520 O   0  0  0  0  0  0  0  0  0  0  0  0
   38.3420   24.9490   42.4310 H   0  0  0  0  0  0  0  0  0  0  0  0
   41.5040   29.0720   42.9930 O   0  0  0  0  0  0  0  0  0  0  0  0
   40.8170   29.7330   43.1870 H   0  0  0  0  0  0  0  0  0  0  0  0
   40.6040   26.2640   44.4380 O   0  0  0  0  0  0  0  0  0  0  0  0
   40.5280   26.4520   45.4240 H   0  0  0  0  0  0  0  0  0  0  0  0
  1  2  2  0  0  0  0
  1  6  1  0  0  0  0
  2  3  1  0  0  0  0
  3 11  1  0  0  0  0
  3  4  2  0  0  0  0
  4  9  1  0  0  0  0
  5  4  1  0  0  0  0
  5  7  1  0  0  0  0
  6  5  2  0  0  0  0
  7  8  1  0  0  0  0
  8 38  1  0  0  0  0
  8 13  1  1  0  0  0
  9  8  1  0  0  0  0
 10  1  1  0  0  0  0
 12  6  1  0  0  0  0
 14 15  2  0  0  0  0
 14 19  1  0  0  0  0
 15 16  1  0  0  0  0
 16 21  1  0  0  0  0
 16 17  2  0  0  0  0
 18 17  1  0  0  0  0
 18  2  1  0  0  0  0
 19 18  2  0  0  0  0
 20 14  1  0  0  0  0
 22 15  1  0  0  0  0
 23 22  1  0  0  0  0
 23 29  1  0  0  0  0
 24 30  1  0  0  0  0
 24 23  1  0  0  0  0
 25 26  1  0  0  0  0
 25 24  1  0  0  0  0
 26 27  1  0  0  0  0
 27 35  1  0  0  0  0
 27 36  1  0  0  0  0
 27 22  1  0  0  0  0
 28 23  1  0  0  0  0
 31 24  1  0  0  0  0
 32 25  1  0  0  0  0
 33 26  1  0  0  0  0
 34 26  1  0  0  0  0
 37 43  1  6  0  0  0
 37 42  1  0  0  0  0
 38 39  1  6  0  0  0
 38 37  1  0  0  0  0
 39 40  1  0  0  0  0
 40 41  1  0  0  0  0
 41 45  1  1  0  0  0
 41 42  1  0  0  0  0
 42 47  1  6  0  0  0
 43 44  1  0  0  0  0
 45 46  1  0  0  0  0
 47 48  1  0  0  0  0
M  END
>  <minimizedAffinity>
-6.22395658

$$$$
