
     RDKit          3D

 36 37  0  0  0  0  0  0  0  0999 V2000
   44.5283   35.8185   44.7157 C   0  0  0  0  0  0  0  0  0  0  0  0
   45.1943   35.7705   43.4657 C   0  0  0  0  0  0  0  0  0  0  0  0
   46.1225   34.7467   43.2915 C   0  0  0  0  0  0  0  0  0  0  0  0
   46.3400   33.8573   44.3152 N   0  0  0  0  0  0  0  0  0  0  0  0
   45.6715   33.9532   45.4916 C   0  0  0  0  0  0  0  0  0  0  0  0
   44.7716   34.9272   45.6910 N   0  0  0  0  0  0  0  0  0  0  0  0
   46.7994   34.7064   42.0073 C   0  0  0  0  0  0  0  0  0  0  0  0
   47.5945   33.5593   41.9243 F   0  0  0  0  0  0  0  0  0  0  0  0
   47.6913   35.7666   42.0007 F   0  0  0  0  0  0  0  0  0  0  0  0
   45.9473   34.7098   40.9403 F   0  0  0  0  0  0  0  0  0  0  0  0
   46.0944   32.8691   46.4246 C   0  0  0  0  0  0  0  0  0  0  0  0
   45.2829   32.8362   47.6690 C   0  0  0  0  0  0  0  0  0  0  0  0
   43.7921   36.5796   44.9372 H   0  0  0  0  0  0  0  0  0  0  0  0
   44.9634   36.5053   42.7222 H   0  0  0  0  0  0  0  0  0  0  0  0
   45.9125   31.9003   45.8749 H   0  0  0  0  0  0  0  0  0  0  0  0
   47.1784   32.9429   46.5571 H   0  0  0  0  0  0  0  0  0  0  0  0
   45.1897   33.8156   48.1702 H   0  0  0  0  0  0  0  0  0  0  0  0
   44.2317   32.5802   47.3593 H   0  0  0  0  0  0  0  0  0  0  0  0
   43.7766   30.4687   47.8773 O   0  0  0  0  0  0  0  0  0  0  0  0
   44.6377   30.7527   48.9067 C   0  0  2  0  0  0  0  0  0  0  0  0
   45.7087   31.7517   48.5983 C   0  0  1  0  0  0  0  0  0  0  0  0
   46.8244   31.0826   48.1014 O   0  0  0  0  0  0  0  0  0  0  0  0
   46.5155   30.0970   47.1951 C   0  0  0  0  0  0  0  0  0  0  0  0
   45.9731   28.9192   47.9629 C   0  0  2  0  0  0  0  0  0  0  0  0
   45.0653   28.1670   47.2201 O   0  0  0  0  0  0  0  0  0  0  0  0
   45.3327   29.4295   49.2472 C   0  0  2  0  0  0  0  0  0  0  0  0
   44.4052   28.4971   49.7105 O   0  0  0  0  0  0  0  0  0  0  0  0
   43.7054   31.1186   47.1623 H   0  0  0  0  0  0  0  0  0  0  0  0
   44.1146   31.0515   49.8612 H   0  0  0  0  0  0  0  0  0  0  0  0
   46.0361   32.2169   49.5620 H   0  0  0  0  0  0  0  0  0  0  0  0
   47.4850   29.8209   46.6879 H   0  0  0  0  0  0  0  0  0  0  0  0
   45.8631   30.4188   46.3579 H   0  0  0  0  0  0  0  0  0  0  0  0
   46.8375   28.2802   48.2385 H   0  0  0  0  0  0  0  0  0  0  0  0
   45.1239   28.4094   46.2486 H   0  0  0  0  0  0  0  0  0  0  0  0
   46.0769   29.6078   50.0445 H   0  0  0  0  0  0  0  0  0  0  0  0
   44.4295   28.3791   50.6937 H   0  0  0  0  0  0  0  0  0  0  0  0
  1  6  2  0
  2  1  1  0
  3  2  2  0
  3  4  1  0
  4  5  2  0
  5  6  1  0
  5 11  1  0
  7  3  1  0
  8  7  1  0
  9  7  1  0
 10  7  1  0
 11 12  1  0
  1 13  1  0
  2 14  1  0
 11 15  1  0
 11 16  1  0
 12 17  1  0
 12 18  1  0
 19 20  1  0
 20 21  1  0
 21 22  1  0
 22 23  1  0
 23 24  1  0
 24 25  1  0
 24 26  1  0
 26 27  1  0
 26 20  1  0
 19 28  1  0
 20 29  1  1
 21 30  1  1
 23 31  1  0
 23 32  1  0
 24 33  1  1
 25 34  1  0
 26 35  1  1
 27 36  1  0
 12 21  1  0
M  ISO  6  13  14  14  14  15   8  16   8  17   8  18   8
M  END
>  <DihAtoms>  (1) 
10,11,20,19

>  <DihDeg>  (1) 
59.99788218949464

$$$$
