
 OpenBabel03242519323D

 51 54  0  0  1  0  0  0  0  0999 V2000
   50.3400   31.2110   42.7570 C   0  0  0  0  0  0  0  0  0  0  0  0
   51.4050   31.0340   41.9640 N   0  0  0  0  0  0  0  0  0  0  0  0
   51.9780   29.8350   42.2490 C   0  0  0  0  0  0  0  0  0  0  0  0
   51.2440   29.2810   43.2340 N   0  0  0  0  0  0  0  0  0  0  0  0
   50.2450   30.1050   43.5540 N   0  0  0  0  0  0  0  0  0  0  0  0
   52.8530   29.4180   41.7730 H   0  0  0  0  0  0  0  0  0  0  0  0
   47.6610   33.7300   42.8520 C   0  0  0  0  0  0  0  0  0  0  0  0
   48.3450   34.8490   42.3030 C   0  0  0  0  0  0  0  0  0  0  0  0
   49.6840   34.7160   41.9170 C   0  0  0  0  0  0  0  0  0  0  0  0
   50.2660   33.4860   42.0970 N   0  0  0  0  0  0  0  0  0  0  0  0
   49.5530   32.4340   42.6370 C   0  0  0  0  0  0  0  0  0  0  0  0
   48.2830   32.5550   43.0040 N   0  0  0  0  0  0  0  0  0  0  0  0
   47.9520   35.8150   42.1400 H   0  0  0  0  0  0  0  0  0  0  0  0
   50.2480   35.5320   41.4960 H   0  0  0  0  0  0  0  0  0  0  0  0
   46.2670   33.9920   43.2260 C   0  0  0  0  0  0  0  0  0  0  0  0
   45.6270   35.0530   42.4900 C   0  0  0  0  0  0  0  0  0  0  0  0
   45.3000   36.2480   43.2840 C   0  0  0  0  0  0  0  0  0  0  0  0
   44.4390   35.8790   44.4980 C   0  0  0  0  0  0  0  0  0  0  0  0
   44.8990   34.6530   45.2180 C   0  0  0  0  0  0  0  0  0  0  0  0
   46.2910   34.2350   44.7730 C   0  0  0  0  0  0  0  0  0  0  0  0
   45.7190   33.0050   43.1720 H   0  0  0  0  0  0  0  0  0  0  0  0
   44.6520   34.6820   42.0530 H   0  0  0  0  0  0  0  0  0  0  0  0
   46.2110   35.3800   41.5940 H   0  0  0  0  0  0  0  0  0  0  0  0
   44.6270   36.8960   42.6530 H   0  0  0  0  0  0  0  0  0  0  0  0
   46.1250   36.9030   43.5840 H   0  0  0  0  0  0  0  0  0  0  0  0
   43.4180   35.6390   44.0820 H   0  0  0  0  0  0  0  0  0  0  0  0
   44.3040   36.7750   45.1310 H   0  0  0  0  0  0  0  0  0  0  0  0
   45.0060   34.9290   46.2870 H   0  0  0  0  0  0  0  0  0  0  0  0
   44.1880   33.8020   45.1780 H   0  0  0  0  0  0  0  0  0  0  0  0
   46.9690   35.0810   44.9680 H   0  0  0  0  0  0  0  0  0  0  0  0
   46.5630   33.2930   45.2890 H   0  0  0  0  0  0  0  0  0  0  0  0
   51.4790   28.0200   43.8870 C   0  0  0  0  0  0  0  0  0  0  0  0
   52.2390   27.4040   43.4240 H   0  0  0  0  0  0  0  0  0  0  0  0
   50.5260   27.4120   43.8210 H   0  0  0  0  0  0  0  0  0  0  0  0
   51.7980   28.2440   45.2960 C   0  0  0  0  0  0  0  0  0  0  0  0
   51.0940   28.2050   46.4220 C   0  0  0  0  0  0  0  0  0  0  0  0
   51.6490   28.3860   47.8480 C   0  0  0  0  0  0  0  0  0  0  0  0
   51.1580   27.6410   48.4710 H   0  0  0  0  0  0  0  0  0  0  0  0
   52.7280   28.1720   47.7700 H   0  0  0  0  0  0  0  0  0  0  0  0
   52.2770   29.9160   49.6120 C   0  0  1  0  0  0  0  0  0  0  0  0
   51.4940   29.7980   48.3150 C   0  0  2  0  0  0  0  0  0  0  0  0
   50.2060   30.2580   48.3970 O   0  0  0  0  0  0  0  0  0  0  0  0
   49.4550   29.7660   49.4360 C   0  0  0  0  0  0  0  0  0  0  0  0
   50.0810   29.9620   50.7980 C   0  0  1  0  0  0  0  0  0  0  0  0
   51.4700   29.3690   50.7850 C   0  0  2  0  0  0  0  0  0  0  0  0
   53.3990   29.0740   49.5200 O   0  0  0  0  0  0  0  0  0  0  0  0
   54.0850   29.4510   48.9380 H   0  0  0  0  0  0  0  0  0  0  0  0
   50.1750   31.3040   51.1370 O   0  0  0  0  0  0  0  0  0  0  0  0
   50.9190   31.7480   50.6590 H   0  0  0  0  0  0  0  0  0  0  0  0
   52.1310   29.7200   51.9420 O   0  0  0  0  0  0  0  0  0  0  0  0
   53.0430   29.3700   51.9760 H   0  0  0  0  0  0  0  0  0  0  0  0
  1  5  2  0  0  0  0
  2  3  2  0  0  0  0
  2  1  1  0  0  0  0
  3  4  1  0  0  0  0
  4  5  1  0  0  0  0
  4 32  1  0  0  0  0
  6  3  1  0  0  0  0
  7 12  1  0  0  0  0
  7 15  1  0  0  0  0
  8  7  2  0  0  0  0
  9 10  2  0  0  0  0
  9  8  1  0  0  0  0
 10 11  1  0  0  0  0
 11  1  1  0  0  0  0
 11 12  2  0  0  0  0
 13  8  1  0  0  0  0
 14  9  1  0  0  0  0
 15 20  1  0  0  0  0
 16 15  1  0  0  0  0
 16 17  1  0  0  0  0
 17 25  1  0  0  0  0
 17 18  1  0  0  0  0
 18 27  1  0  0  0  0
 18 19  1  0  0  0  0
 19 28  1  0  0  0  0
 20 30  1  0  0  0  0
 20 19  1  0  0  0  0
 20 31  1  0  0  0  0
 21 15  1  0  0  0  0
 22 16  1  0  0  0  0
 23 16  1  0  0  0  0
 24 17  1  0  0  0  0
 26 18  1  0  0  0  0
 29 19  1  0  0  0  0
 32 35  1  0  0  0  0
 33 32  1  0  0  0  0
 34 32  1  0  0  0  0
 35 36  2  0  0  0  0
 36 37  1  0  0  0  0
 37 38  1  0  0  0  0
 39 37  1  0  0  0  0
 40 46  1  6  0  0  0
 40 45  1  0  0  0  0
 41 37  1  1  0  0  0
 41 42  1  0  0  0  0
 41 40  1  0  0  0  0
 42 43  1  0  0  0  0
 43 44  1  0  0  0  0
 44 48  1  6  0  0  0
 45 44  1  0  0  0  0
 45 50  1  1  0  0  0
 47 46  1  0  0  0  0
 49 48  1  0  0  0  0
 50 51  1  0  0  0  0
M  END
>  <minimizedAffinity>
-5.06891727

>  <minimizedRMSD>
3.91653061

$$$$
