
 OpenBabel03252506193D

 26 27  0  0  1  0  0  0  0  0999 V2000
   44.8720   35.4090   43.9180 C   0  0  0  0  0  0  0  0  0  0  0  0
   44.3050   35.0570   42.6550 C   0  0  0  0  0  0  0  0  0  0  0  0
   44.3800   33.7020   42.2900 C   0  0  0  0  0  0  0  0  0  0  0  0
   44.9780   32.8110   43.1380 N   0  0  0  0  0  0  0  0  0  0  0  0
   45.5050   33.2030   44.3360 C   0  0  0  0  0  0  0  0  0  0  0  0
   45.4380   34.5020   44.6990 N   0  0  0  0  0  0  0  0  0  0  0  0
   43.8600   35.8320   42.0650 H   0  0  0  0  0  0  0  0  0  0  0  0
   43.9600   33.4180   41.3470 H   0  0  0  0  0  0  0  0  0  0  0  0
   46.2170   32.7470   46.6460 C   0  0  2  0  0  3  0  0  0  0  0  0
   46.1410   32.2200   45.2280 C   0  0  1  0  0  3  0  0  0  0  0  0
   45.4510   31.0090   45.2980 O   0  0  0  0  0  0  0  0  0  0  0  0
   46.3110   30.0780   45.8760 C   0  0  0  0  0  2  0  0  0  0  0  0
   46.7300   30.4380   47.2760 C   0  0  2  0  0  3  0  0  0  0  0  0
   47.2240   31.8670   47.3760 C   0  0  2  0  0  3  0  0  0  0  0  0
   45.0090   32.6340   47.3270 O   0  0  0  0  0  0  0  0  0  0  0  0
   44.3300   33.2950   47.0430 H   0  0  0  0  0  0  0  0  0  0  0  0
   47.8200   29.6190   47.6060 O   0  0  0  0  0  0  0  0  0  0  0  0
   47.4290   28.7610   47.9140 H   0  0  0  0  0  0  0  0  0  0  0  0
   47.2320   32.2620   48.7160 O   0  0  0  0  0  0  0  0  0  0  0  0
   47.9640   32.9110   48.8870 H   0  0  0  0  0  0  0  0  0  0  0  0
   44.7990   36.8080   44.3130 C   0  0  0  0  0  3  0  0  0  0  0  0
   45.3550   37.7220   43.5480 C   0  0  0  0  0  3  0  0  0  0  0  0
   45.3350   39.1660   43.8510 C   0  0  0  0  0  0  0  0  0  0  0  0
   44.3790   39.5760   43.4210 H   0  0  0  0  0  0  0  0  0  0  0  0
   46.1360   39.6990   43.3330 H   0  0  0  0  0  0  0  0  0  0  0  0
   45.2770   39.3750   44.9290 H   0  0  0  0  0  0  0  0  0  0  0  0
  1 21  1  0  0  0  0
  1  6  1  0  0  0  0
  2  1  2  0  0  0  0
  3  2  1  0  0  0  0
  3  4  2  0  0  0  0
  4  5  1  0  0  0  0
  5  6  2  0  0  0  0
  7  2  1  0  0  0  0
  8  3  1  0  0  0  0
  9 15  1  1  0  0  0
  9 14  1  0  0  0  0
 10  5  1  6  0  0  0
 10 11  1  0  0  0  0
 10  9  1  0  0  0  0
 11 12  1  0  0  0  0
 12 13  1  0  0  0  0
 13 14  1  0  0  0  0
 13 17  1  6  0  0  0
 14 19  1  1  0  0  0
 16 15  1  0  0  0  0
 17 18  1  0  0  0  0
 19 20  1  0  0  0  0
 22 23  1  0  0  0  0
 22 21  2  0  0  0  0
 23 26  1  0  0  0  0
 24 23  1  0  0  0  0
 25 23  1  0  0  0  0
M  END
>  <minimizedAffinity>
-4.40203285

>  <minimizedRMSD>
1.21516764

$$$$
