
 OpenBabel03242523263D

 48 51  0  0  1  0  0  0  0  0999 V2000
   47.3350   32.6340   44.2240 C   0  0  0  0  0  0  0  0  0  0  0  0
   48.1670   33.0640   43.2950 C   0  0  0  0  0  0  0  0  0  0  0  0
   48.9860   32.0880   42.7490 C   0  0  0  0  0  0  0  0  0  0  0  0
   48.8430   30.7680   43.2390 N   0  0  0  0  0  0  0  0  0  0  0  0
   47.9930   30.4180   44.1680 C   0  0  0  0  0  0  0  0  0  0  0  0
   47.1650   31.3800   44.7250 N   0  0  0  0  0  0  0  0  0  0  0  0
   49.7270   32.2040   41.9870 H   0  0  0  0  0  0  0  0  0  0  0  0
   48.0050   29.3700   44.4370 H   0  0  0  0  0  0  0  0  0  0  0  0
   48.3980   34.4270   42.8800 C   0  0  1  0  0  0  0  0  0  0  0  0
   49.3280   34.8620   41.9990 C   0  0  0  0  0  0  0  0  0  0  0  0
   47.9740   34.7360   41.3660 C   0  0  1  0  0  0  0  0  0  0  0  0
   47.7970   35.1300   43.5390 H   0  0  0  0  0  0  0  0  0  0  0  0
   49.7290   35.9050   42.0100 H   0  0  0  0  0  0  0  0  0  0  0  0
   50.1420   34.1750   41.6220 H   0  0  0  0  0  0  0  0  0  0  0  0
   47.3860   35.6690   41.2370 H   0  0  0  0  0  0  0  0  0  0  0  0
   47.7250   33.5970   40.5650 N   0  0  0  0  0  0  0  0  0  0  0  0
   47.1710   32.8420   40.9800 H   0  0  0  0  0  0  0  0  0  0  0  0
   46.6830   32.8690   38.4380 C   0  0  1  0  0  0  0  0  0  0  0  0
   47.3040   33.9620   39.2370 C   0  0  2  0  0  0  0  0  0  0  0  0
   48.3560   34.5470   38.5610 O   0  0  0  0  0  0  0  0  0  0  0  0
   48.2820   34.5410   37.2000 C   0  0  0  0  0  0  0  0  0  0  0  0
   48.5150   33.1180   36.7330 C   0  0  2  0  0  0  0  0  0  0  0  0
   47.5630   32.1890   37.4470 C   0  0  1  0  0  0  0  0  0  0  0  0
   46.1000   31.8590   39.2280 O   0  0  0  0  0  0  0  0  0  0  0  0
   45.2270   32.1610   39.6100 H   0  0  0  0  0  0  0  0  0  0  0  0
   49.8150   32.7200   37.0310 O   0  0  0  0  0  0  0  0  0  0  0  0
   50.2570   33.4070   37.5930 H   0  0  0  0  0  0  0  0  0  0  0  0
   48.2030   31.0780   37.9820 O   0  0  0  0  0  0  0  0  0  0  0  0
   47.5470   30.3420   38.0720 H   0  0  0  0  0  0  0  0  0  0  0  0
   46.3040   33.4590   44.9140 C   0  0  0  0  0  0  0  0  0  0  0  0
   45.7380   33.9120   45.8630 O   0  0  0  0  0  0  0  0  0  0  0  0
   44.5090   31.7210   43.0820 Cl  0  0  0  0  0  0  0  0  0  0  0  0
   44.6080   33.4670   42.9350 C   0  0  0  0  0  0  0  0  0  0  0  0
   45.4620   34.1310   43.8510 C   0  0  0  0  0  0  0  0  0  0  0  0
   45.4400   35.4840   43.6330 C   0  0  0  0  0  0  0  0  0  0  0  0
   44.7810   36.2120   42.7490 C   0  0  0  0  0  0  0  0  0  0  0  0
   43.9660   35.5050   41.8850 C   0  0  0  0  0  0  0  0  0  0  0  0
   43.8740   34.1580   41.9690 C   0  0  0  0  0  0  0  0  0  0  0  0
   46.0750   36.1020   44.3210 H   0  0  0  0  0  0  0  0  0  0  0  0
   44.8390   37.2940   42.6650 H   0  0  0  0  0  0  0  0  0  0  0  0
   43.4010   36.0860   41.1340 H   0  0  0  0  0  0  0  0  0  0  0  0
   43.0340   33.5690   41.0590 O   0  0  0  0  0  0  0  0  0  0  0  0
   40.8120   32.9810   39.7990 O   0  0  0  0  0  0  0  0  0  0  0  0
   41.3760   33.2450   41.1700 P   0  0  0  0  0  0  0  0  0  0  0  0
   41.1430   31.9130   42.1960 O   0  0  0  0  0  0  0  0  0  0  0  0
   41.3790   31.0720   41.7060 H   0  0  0  0  0  0  0  0  0  0  0  0
   40.5360   34.5330   41.8940 O   0  0  0  0  0  0  0  0  0  0  0  0
   40.4250   34.4010   42.8700 H   0  0  0  0  0  0  0  0  0  0  0  0
  1  6  1  0  0  0  0
  1 30  1  0  0  0  0
  2  1  2  0  0  0  0
  3  4  2  0  0  0  0
  3  2  1  0  0  0  0
  4  5  1  0  0  0  0
  5  8  1  0  0  0  0
  5  6  2  0  0  0  0
  7  3  1  0  0  0  0
  9  2  1  0  0  0  0
  9 12  1  1  0  0  0
 10 13  1  0  0  0  0
 10  9  1  0  0  0  0
 11 15  1  6  0  0  0
 11 10  1  0  0  0  0
 11  9  1  0  0  0  0
 14 10  1  0  0  0  0
 16 17  1  0  0  0  0
 16 11  1  0  0  0  0
 18 24  1  1  0  0  0
 18 19  1  0  0  0  0
 19 16  1  1  0  0  0
 20 19  1  0  0  0  0
 21 20  1  0  0  0  0
 22 26  1  1  0  0  0
 22 21  1  0  0  0  0
 22 23  1  0  0  0  0
 23 28  1  1  0  0  0
 23 18  1  0  0  0  0
 24 25  1  0  0  0  0
 26 27  1  0  0  0  0
 28 29  1  0  0  0  0
 30 31  2  0  0  0  0
 33 32  1  0  0  0  0
 33 34  1  0  0  0  0
 34 30  1  0  0  0  0
 35 34  2  0  0  0  0
 35 39  1  0  0  0  0
 36 35  1  0  0  0  0
 37 38  1  0  0  0  0
 37 36  2  0  0  0  0
 38 33  2  0  0  0  0
 40 36  1  0  0  0  0
 41 37  1  0  0  0  0
 42 44  1  0  0  0  0
 42 38  1  0  0  0  0
 43 44  2  0  0  0  0
 44 47  1  0  0  0  0
 44 45  1  0  0  0  0
 46 45  1  0  0  0  0
 47 48  1  0  0  0  0
M  END
>  <minimizedAffinity>
-6.56725597

>  <minimizedRMSD>
0.818473697

$$$$
