
     RDKit          3D

 51 53  0  0  0  0  0  0  0  0999 V2000
   50.2199   34.9007   42.7097 O   0  0  0  0  0  0  0  0  0  0  0  0
   49.0584   34.6147   41.8340 P   0  0  1  0  0  0  0  0  0  0  0  0
   48.9799   35.8871   40.7267 O   0  0  0  0  0  0  0  0  0  0  0  0
   49.3107   33.1557   40.9546 O   0  0  0  0  0  0  0  0  0  0  0  0
   49.5302   31.4395   42.5590 C   0  0  0  0  0  0  0  0  0  0  0  0
   50.0532   32.1169   41.4812 C   0  0  0  0  0  0  0  0  0  0  0  0
   51.3136   31.7202   40.9693 C   0  0  0  0  0  0  0  0  0  0  0  0
   51.9338   30.6822   41.5832 N   0  0  0  0  0  0  0  0  0  0  0  0
   51.4015   30.0575   42.6133 C   0  0  0  0  0  0  0  0  0  0  0  0
   50.1908   30.4448   43.0988 N   0  0  0  0  0  0  0  0  0  0  0  0
   47.0909   31.0399   42.8371 C   0  0  0  0  0  0  0  0  0  0  0  0
   46.9229   30.6966   41.6108 O   0  0  0  0  0  0  0  0  0  0  0  0
   48.3859   31.4383   43.3991 N   0  0  0  0  0  0  0  0  0  0  0  0
   47.6230   34.5597   42.6435 O   0  0  0  0  0  0  0  0  0  0  0  0
   46.5352   35.1228   42.0795 C   0  0  2  0  0  0  0  0  0  0  0  0
   45.4923   35.6080   43.0210 C   0  0  0  0  0  0  0  0  0  0  0  0
   44.1827   35.7378   42.3160 C   0  0  0  0  0  0  0  0  0  0  0  0
   43.6583   34.5310   41.8952 O   0  0  0  0  0  0  0  0  0  0  0  0
   44.6477   33.5790   41.7495 C   0  0  0  0  0  0  0  0  0  0  0  0
   45.8573   34.2127   41.0673 C   0  0  1  0  0  0  0  0  0  0  0  0
   49.0638   36.7258   41.2533 H   0  0  0  0  0  0  0  0  0  0  0  0
   51.7005   32.2623   40.1301 H   0  0  0  0  0  0  0  0  0  0  0  0
   51.8452   29.2187   43.1512 H   0  0  0  0  0  0  0  0  0  0  0  0
   46.1769   31.0003   43.3962 H   0  0  0  0  0  0  0  0  0  0  0  0
   48.3206   31.6906   44.3897 H   0  0  0  0  0  0  0  0  0  0  0  0
   46.8722   35.9735   41.4392 H   0  0  0  0  0  0  0  0  0  0  0  0
   45.7744   36.5325   43.5651 H   0  0  0  0  0  0  0  0  0  0  0  0
   45.3463   34.8417   43.8331 H   0  0  0  0  0  0  0  0  0  0  0  0
   44.0848   36.5810   41.6249 H   0  0  0  0  0  0  0  0  0  0  0  0
   43.4596   36.0419   43.1575 H   0  0  0  0  0  0  0  0  0  0  0  0
   44.9997   33.1782   42.7289 H   0  0  0  0  0  0  0  0  0  0  0  0
   44.2538   32.7557   41.1284 H   0  0  0  0  0  0  0  0  0  0  0  0
   46.5681   33.3310   40.9713 H   0  0  0  0  0  0  0  0  0  0  0  0
   43.9686   36.4034   40.1927 O   0  0  0  0  0  0  0  0  0  0  0  0
   44.0862   35.1007   39.6549 C   0  0  2  0  0  0  0  0  0  0  0  0
   45.5812   34.7541   39.7275 C   0  0  2  0  0  0  0  0  0  0  0  0
   45.7820   33.8558   38.6893 O   0  0  0  0  0  0  0  0  0  0  0  0
   45.7961   34.4981   37.4600 C   0  0  0  0  0  0  0  0  0  0  0  0
   44.4862   35.1848   37.1718 C   0  0  1  0  0  0  0  0  0  0  0  0
   43.9474   34.7295   35.9731 O   0  0  0  0  0  0  0  0  0  0  0  0
   43.5009   35.0385   38.2942 C   0  0  2  0  0  0  0  0  0  0  0  0
   42.5147   36.0313   38.2133 O   0  0  0  0  0  0  0  0  0  0  0  0
   43.0272   36.6474   40.3262 H   0  0  0  0  0  0  0  0  0  0  0  0
   43.5618   34.4257   40.3504 H   0  0  0  0  0  0  0  0  0  0  0  0
   46.0820   35.7007   39.4608 H   0  0  0  0  0  0  0  0  0  0  0  0
   46.6584   35.1898   37.4464 H   0  0  0  0  0  0  0  0  0  0  0  0
   45.9823   33.7284   36.6875 H   0  0  0  0  0  0  0  0  0  0  0  0
   44.7020   36.2620   37.0407 H   0  0  0  0  0  0  0  0  0  0  0  0
   42.9970   35.0084   35.9006 H   0  0  0  0  0  0  0  0  0  0  0  0
   42.9644   34.0719   38.1873 H   0  0  0  0  0  0  0  0  0  0  0  0
   42.8621   36.9394   38.2982 H   0  0  0  0  0  0  0  0  0  0  0  0
  2 14  1  1
  2  1  2  0
  3  2  1  0
  4  6  1  0
  4  2  1  0
  5 10  2  0
  5 13  1  0
  6  5  1  0
  7  6  2  0
  7  8  1  0
  8  9  2  0
  9 10  1  0
 11 13  1  0
 12 11  2  0
 15 14  1  0
 15 16  1  0
 17 16  1  0
 18 17  1  0
 19 18  1  0
 20 19  1  0
 20 15  1  0
  3 21  1  0
  7 22  1  0
  9 23  1  0
 11 24  1  0
 13 25  1  0
 15 26  1  6
 16 27  1  0
 16 28  1  0
 17 29  1  0
 17 30  1  0
 19 31  1  0
 19 32  1  0
 20 33  1  6
 34 35  1  0
 35 36  1  0
 36 37  1  0
 37 38  1  0
 38 39  1  0
 39 40  1  0
 39 41  1  0
 41 42  1  0
 41 35  1  0
 34 43  1  0
 35 44  1  1
 36 45  1  6
 38 46  1  0
 38 47  1  0
 39 48  1  6
 40 49  1  0
 41 50  1  6
 42 51  1  0
 20 36  1  0
M  ISO  8  21   3  22  14  23  14  24   6  26  13  27  13  28  13  29  13
M  ISO  4  30  13  31  13  32  13  33  13
M  END
>  <DihAtoms>  (1) 
18,19,35,34

>  <DihDeg>  (1) 
-49.58614278810539

$$$$
