
     RDKit          3D

 56 60  0  0  0  0  0  0  0  0999 V2000
   45.7895   30.0573   48.4416 C   0  0  0  0  0  0  0  0  0  0  0  0
   45.0090   27.6512   48.0164 C   0  0  0  0  0  0  0  0  0  0  0  0
   45.0565   29.0067   47.7521 C   0  0  0  0  0  0  0  0  0  0  0  0
   44.2945   29.4452   46.6677 C   0  0  0  0  0  0  0  0  0  0  0  0
   43.5430   28.5890   45.9078 C   0  0  0  0  0  0  0  0  0  0  0  0
   42.7343   28.7186   44.8376 N   0  0  0  0  0  0  0  0  0  0  0  0
   42.2235   27.5543   44.4608 C   0  0  0  0  0  0  0  0  0  0  0  0
   42.6989   26.5527   45.3120 C   0  0  0  0  0  0  0  0  0  0  0  0
   43.5053   27.2493   46.1810 C   0  0  0  0  0  0  0  0  0  0  0  0
   44.2563   26.7972   47.2543 C   0  0  0  0  0  0  0  0  0  0  0  0
   44.2467   25.3758   47.5832 C   0  0  0  0  0  0  0  0  0  0  0  0
   44.9246   24.9348   48.5589 O   0  0  0  0  0  0  0  0  0  0  0  0
   47.1487   30.3785   47.9220 C   0  0  0  0  0  0  0  0  0  0  0  0
   46.5078   32.7160   45.2929 C   0  0  0  0  0  0  0  0  0  0  0  0
   47.2562   31.7168   44.6227 C   0  0  0  0  0  0  0  0  0  0  0  0
   47.5739   30.7513   45.5081 C   0  0  0  0  0  0  0  0  0  0  0  0
   47.0474   31.1279   46.6851 N   0  0  0  0  0  0  0  0  0  0  0  0
   46.4108   32.2979   46.5633 N   0  0  0  0  0  0  0  0  0  0  0  0
   44.5700   35.7560   44.7454 C   0  0  0  0  0  0  0  0  0  0  0  0
   44.9870   36.1890   43.4787 C   0  0  0  0  0  0  0  0  0  0  0  0
   45.9437   35.4034   42.8381 C   0  0  0  0  0  0  0  0  0  0  0  0
   46.4022   34.3025   43.4535 N   0  0  0  0  0  0  0  0  0  0  0  0
   45.9973   33.9036   44.6560 C   0  0  0  0  0  0  0  0  0  0  0  0
   45.0739   34.6419   45.2998 N   0  0  0  0  0  0  0  0  0  0  0  0
   45.2052   30.9987   48.4966 H   0  0  0  0  0  0  0  0  0  0  0  0
   45.9282   29.7223   49.5067 H   0  0  0  0  0  0  0  0  0  0  0  0
   45.6142   27.3528   48.8656 H   0  0  0  0  0  0  0  0  0  0  0  0
   44.2479   30.4897   46.3571 H   0  0  0  0  0  0  0  0  0  0  0  0
   42.5314   29.6434   44.3549 H   0  0  0  0  0  0  0  0  0  0  0  0
   41.5423   27.4118   43.6197 H   0  0  0  0  0  0  0  0  0  0  0  0
   42.4593   25.5089   45.2548 H   0  0  0  0  0  0  0  0  0  0  0  0
   43.6570   24.6710   46.9958 H   0  0  0  0  0  0  0  0  0  0  0  0
   47.6410   31.0257   48.6937 H   0  0  0  0  0  0  0  0  0  0  0  0
   47.7479   29.4801   47.7830 H   0  0  0  0  0  0  0  0  0  0  0  0
   47.5103   31.7587   43.5713 H   0  0  0  0  0  0  0  0  0  0  0  0
   48.1459   29.8758   45.2377 H   0  0  0  0  0  0  0  0  0  0  0  0
   43.8339   36.3584   45.2408 H   0  0  0  0  0  0  0  0  0  0  0  0
   44.5657   37.0855   43.0596 H   0  0  0  0  0  0  0  0  0  0  0  0
   48.6967   35.2406   41.7832 O   0  0  0  0  0  0  0  0  0  0  0  0
   47.8547   36.3362   41.5558 C   0  0  2  0  0  0  0  0  0  0  0  0
   46.4052   35.8388   41.4920 C   0  0  1  0  0  0  0  0  0  0  0  0
   46.4514   34.7451   40.6073 O   0  0  0  0  0  0  0  0  0  0  0  0
   46.6821   35.2148   39.3376 C   0  0  0  0  0  0  0  0  0  0  0  0
   48.0209   35.9149   39.1755 C   0  0  2  0  0  0  0  0  0  0  0  0
   49.0879   35.0183   39.2603 O   0  0  0  0  0  0  0  0  0  0  0  0
   48.1831   36.9801   40.2458 C   0  0  2  0  0  0  0  0  0  0  0  0
   49.5158   37.3857   40.3080 O   0  0  0  0  0  0  0  0  0  0  0  0
   48.1456   34.4210   41.9233 H   0  0  0  0  0  0  0  0  0  0  0  0
   47.9367   36.9901   42.4358 H   0  0  0  0  0  0  0  0  0  0  0  0
   45.7695   36.6032   41.0285 H   0  0  0  0  0  0  0  0  0  0  0  0
   45.8964   35.9103   38.9626 H   0  0  0  0  0  0  0  0  0  0  0  0
   46.6960   34.3755   38.6110 H   0  0  0  0  0  0  0  0  0  0  0  0
   48.0223   36.3913   38.1900 H   0  0  0  0  0  0  0  0  0  0  0  0
   49.8460   35.5264   39.6637 H   0  0  0  0  0  0  0  0  0  0  0  0
   47.4911   37.8010   40.0549 H   0  0  0  0  0  0  0  0  0  0  0  0
   49.6389   38.3035   39.9691 H   0  0  0  0  0  0  0  0  0  0  0  0
  3  2  2  0
  3  1  1  0
  4  3  1  0
  5  9  1  0
  5  4  2  0
  6  5  1  0
  7  6  1  0
  7  8  2  0
  8  9  1  0
  9 10  2  0
 10 11  1  0
 10  2  1  0
 11 12  2  0
 13  1  1  0
 14 18  2  0
 15 14  1  0
 15 16  2  0
 16 17  1  0
 17 13  1  0
 18 17  1  0
 19 24  2  0
 20 19  1  0
 21 22  1  0
 21 20  2  0
 22 23  2  0
 23 14  1  0
 23 24  1  0
  1 25  1  0
  1 26  1  0
  2 27  1  0
  4 28  1  0
  6 29  1  0
  7 30  1  0
  8 31  1  0
 11 32  1  0
 13 33  1  0
 13 34  1  0
 15 35  1  0
 16 36  1  0
 19 37  1  0
 20 38  1  0
 39 40  1  0
 40 41  1  0
 41 42  1  0
 42 43  1  0
 43 44  1  0
 44 45  1  0
 44 46  1  0
 46 47  1  0
 46 40  1  0
 39 48  1  0
 40 49  1  1
 41 50  1  6
 43 51  1  0
 43 52  1  0
 44 53  1  6
 45 54  1  0
 46 55  1  6
 47 56  1  0
 21 41  1  0
M  ISO  8  25   8  26   8  27  14  28  14  29   9  30  14  31  14  32   6
M  ISO  6  33   8  34   8  35  14  36  14  37  14  38  14
M  END
>  <DihAtoms>  (1) 
21,20,40,39

>  <DihDeg>  (1) 
20.03277554338969

$$$$
