REMARK  Name = 
REMARK  9 active torsions:
REMARK  status: ('A' for Active; 'I' for Inactive)
REMARK    1  A    between atoms: C_1  and  C_7
REMARK    2  A    between atoms: C_5  and  C_13
REMARK    3  A    between atoms: N_16  and  C_18
REMARK    4  A    between atoms: C_18  and  C_19
REMARK    5  A    between atoms: C_20  and  C_21
REMARK    6  A    between atoms: C_21  and  C_44
REMARK    7  A    between atoms: O_42  and  C_43
REMARK    8  A    between atoms: C_47  and  O_48
REMARK    9  A    between atoms: C_49  and  O_50
REMARK                            x       y       z     vdW  Elec       q    Type
REMARK                         _______ _______ _______ _____ _____    ______ ____
ROOT
ATOM      1  C   UNL     1      50.717  31.540  42.312  0.00  0.00    +0.000 A 
ATOM      2  N   UNL     1      51.345  31.309  41.152  0.00  0.00    +0.000 NA
ATOM      3  C   UNL     1      52.063  30.160  41.255  0.00  0.00    +0.000 A 
ATOM      4  N   UNL     1      51.864  29.691  42.503  0.00  0.00    +0.000 N 
ATOM      5  N   UNL     1      51.048  30.519  43.158  0.00  0.00    +0.000 NA
ATOM      6  H   UNL     1      52.672  29.718  40.481  0.00  0.00    +0.000 HD
ENDROOT
BRANCH   1  11
ATOM      7  C   UNL     1      47.913  33.857  42.861  0.00  0.00    +0.000 A 
ATOM      8  C   UNL     1      48.565  35.102  42.643  0.00  0.00    +0.000 A 
ATOM      9  C   UNL     1      49.926  35.117  42.316  0.00  0.00    +0.000 A 
ATOM     10  N   UNL     1      50.560  33.903  42.225  0.00  0.00    +0.000 NA
ATOM     11  C   UNL     1      49.876  32.725  42.448  0.00  0.00    +0.000 A 
ATOM     12  N   UNL     1      48.585  32.705  42.758  0.00  0.00    +0.000 NA
ATOM     13  H   UNL     1      48.133  36.063  42.698  0.00  0.00    +0.000 HD
ATOM     14  H   UNL     1      50.468  36.032  42.141  0.00  0.00    +0.000 HD
BRANCH   7  15
ATOM     15  C   UNL     1      46.491  33.967  43.205  0.00  0.00    +0.000 C 
ATOM     16  C   UNL     1      45.753  34.943  42.443  0.00  0.00    +0.000 C 
ATOM     17  C   UNL     1      45.280  36.103  43.215  0.00  0.00    +0.000 C 
ATOM     18  C   UNL     1      44.440  35.654  44.417  0.00  0.00    +0.000 C 
ATOM     19  C   UNL     1      45.018  34.494  45.161  0.00  0.00    +0.000 C 
ATOM     20  C   UNL     1      46.456  34.228  44.748  0.00  0.00    +0.000 C 
ATOM     21  H   UNL     1      46.057  32.925  43.153  0.00  0.00    +0.000 HD
ATOM     22  H   UNL     1      44.834  34.462  41.992  0.00  0.00    +0.000 HD
ATOM     23  H   UNL     1      46.316  35.323  41.554  0.00  0.00    +0.000 HD
ATOM     24  H   UNL     1      44.552  36.666  42.563  0.00  0.00    +0.000 HD
ATOM     25  H   UNL     1      46.021  36.848  43.522  0.00  0.00    +0.000 HD
ATOM     26  H   UNL     1      43.460  35.298  43.984  0.00  0.00    +0.000 HD
ATOM     27  H   UNL     1      44.194  36.536  45.035  0.00  0.00    +0.000 HD
ATOM     28  H   UNL     1      45.071  34.791  46.228  0.00  0.00    +0.000 HD
ATOM     29  H   UNL     1      44.406  33.569  45.118  0.00  0.00    +0.000 HD
ATOM     30  H   UNL     1      47.032  35.146  44.946  0.00  0.00    +0.000 HD
ATOM     31  H   UNL     1      46.820  33.327  45.282  0.00  0.00    +0.000 HD
ENDBRANCH   7  15
ENDBRANCH   1  11
BRANCH   4  32
ATOM     32  C   UNL     1      52.440  28.509  43.088  0.00  0.00    +0.000 C 
ATOM     33  H   UNL     1      52.563  27.679  42.405  0.00  0.00    +0.000 HD
ATOM     34  H   UNL     1      51.728  28.133  43.884  0.00  0.00    +0.000 HD
BRANCH  32  35
ATOM     35  C   UNL     1      53.717  28.841  43.718  0.00  0.00    +0.000 C 
ATOM     36  C   UNL     1      54.069  29.580  44.764  0.00  0.00    +0.000 C 
BRANCH  36  37
ATOM     37  C   UNL     1      55.493  29.731  45.333  0.00  0.00    +0.000 C 
ATOM     38  H   UNL     1      55.484  29.280  46.323  0.00  0.00    +0.000 HD
ATOM     39  H   UNL     1      56.141  29.154  44.653  0.00  0.00    +0.000 HD
BRANCH  37  41
ATOM     40  C   UNL     1      55.919  31.582  43.836  0.00  0.00    +0.000 C 
ATOM     41  C   UNL     1      55.944  31.157  45.295  0.00  0.00    +0.000 C 
ATOM     42  O   UNL     1      57.129  31.421  45.933  0.00  0.00    +0.000 OA
ATOM     43  C   UNL     1      58.265  30.978  45.303  0.00  0.00    +0.000 C 
ATOM     44  C   UNL     1      58.413  31.466  43.880  0.00  0.00    +0.000 C 
ATOM     45  C   UNL     1      57.167  31.097  43.107  0.00  0.00    +0.000 C 
BRANCH  40  46
ATOM     46  O   UNL     1      54.851  30.917  43.209  0.00  0.00    +0.000 OA
ATOM     47  H   UNL     1      53.991  31.306  43.458  0.00  0.00    +0.000 HD
ENDBRANCH  40  46
BRANCH  44  48
ATOM     48  O   UNL     1      58.581  32.842  43.818  0.00  0.00    +0.000 OA
ATOM     49  H   UNL     1      57.727  33.319  43.961  0.00  0.00    +0.000 HD
ENDBRANCH  44  48
BRANCH  45  50
ATOM     50  O   UNL     1      57.192  31.711  41.873  0.00  0.00    +0.000 OA
ATOM     51  H   UNL     1      56.398  31.513  41.339  0.00  0.00    +0.000 HD
ENDBRANCH  45  50
ENDBRANCH  37  41
ENDBRANCH  36  37
ENDBRANCH  32  35
ENDBRANCH   4  32
TORSDOF 9
