
 OpenBabel03252507383D

 41 45  0  0  1  0  0  0  0  0999 V2000
   45.5860   34.7920   43.6350 C   0  0  0  0  0  0  0  0  0  0  0  0
   46.3230   33.7260   44.2170 C   0  0  0  0  0  0  0  0  0  0  0  0
   46.1080   33.4690   45.5610 C   0  0  0  0  0  0  0  0  0  0  0  0
   45.2230   34.2320   46.2420 N   0  0  0  0  0  0  0  0  0  0  0  0
   44.5300   35.2440   45.6660 C   0  0  0  0  0  0  0  0  0  0  0  0
   44.7170   35.5130   44.3770 N   0  0  0  0  0  0  0  0  0  0  0  0
   47.0190   33.1220   43.6910 H   0  0  0  0  0  0  0  0  0  0  0  0
   43.8210   35.8590   46.2030 H   0  0  0  0  0  0  0  0  0  0  0  0
   47.0510   32.6440   47.6440 C   0  0  0  0  0  0  0  0  0  0  0  0
   46.7830   32.4130   46.3020 C   0  0  0  0  0  0  0  0  0  0  0  0
   47.1630   31.2180   45.7660 C   0  0  0  0  0  0  0  0  0  0  0  0
   47.8010   30.2290   46.4900 C   0  0  0  0  0  0  0  0  0  0  0  0
   48.2570   29.0010   46.1730 N   0  0  0  0  0  0  0  0  0  0  0  0
   48.8130   28.4580   47.3180 C   0  0  0  0  0  0  0  0  0  0  0  0
   48.6850   29.3600   48.2970 N   0  0  0  0  0  0  0  0  0  0  0  0
   48.0700   30.4460   47.8110 C   0  0  0  0  0  0  0  0  0  0  0  0
   47.6960   31.6520   48.3890 C   0  0  0  0  0  0  0  0  0  0  0  0
   46.7900   33.5570   48.1620 H   0  0  0  0  0  0  0  0  0  0  0  0
   46.9610   31.0190   44.7160 H   0  0  0  0  0  0  0  0  0  0  0  0
   48.1800   28.5800   45.2230 H   0  0  0  0  0  0  0  0  0  0  0  0
   49.2410   27.4610   47.2700 H   0  0  0  0  0  0  0  0  0  0  0  0
   47.9020   31.8490   49.4520 H   0  0  0  0  0  0  0  0  0  0  0  0
   45.8020   35.0510   42.2830 O   0  0  0  0  0  0  0  0  0  0  0  0
   44.7660   34.8800   41.3680 C   0  0  0  0  0  0  0  0  0  0  0  0
   45.1400   33.7220   40.7880 C   0  0  0  0  0  0  0  0  0  0  0  0
   43.7410   33.4480   39.5250 S   0  0  0  0  0  0  0  0  0  0  0  0
   42.9320   35.0570   40.1140 C   0  0  0  0  0  0  0  0  0  0  0  0
   43.6540   35.3630   40.8880 N   0  0  0  0  0  0  0  0  0  0  0  0
   45.8180   32.7700   40.5900 H   0  0  0  0  0  0  0  0  0  0  0  0
   41.4150   35.3790   38.2070 C   0  0  1  0  0  3  0  0  0  0  0  0
   41.6270   35.7320   39.6330 C   0  0  1  0  0  3  0  0  0  0  0  0
   40.6140   35.4480   40.4980 O   0  0  0  0  0  0  0  0  0  0  0  0
   39.9640   34.2500   40.2750 C   0  0  0  0  0  2  0  0  0  0  0  0
   39.2240   34.3890   38.9600 C   0  0  1  0  0  3  0  0  0  0  0  0
   40.3130   34.4410   37.8990 C   0  0  2  0  0  3  0  0  0  0  0  0
   41.1610   36.5540   37.4640 O   0  0  0  0  0  0  0  0  0  0  0  0
   40.5450   37.0770   38.0530 H   0  0  0  0  0  0  0  0  0  0  0  0
   38.3810   33.3250   38.7060 O   0  0  0  0  0  0  0  0  0  0  0  0
   37.5360   33.5100   39.2290 H   0  0  0  0  0  0  0  0  0  0  0  0
   40.7790   33.1240   37.7400 O   0  0  0  0  0  0  0  0  0  0  0  0
   40.1030   32.5540   37.3020 H   0  0  0  0  0  0  0  0  0  0  0  0
  1  2  2  0  0  0  0
  1  6  1  0  0  0  0
  2  3  1  0  0  0  0
  3  4  2  0  0  0  0
  3 10  1  0  0  0  0
  5  8  1  0  0  0  0
  5  4  1  0  0  0  0
  6  5  2  0  0  0  0
  7  2  1  0  0  0  0
  9 18  1  0  0  0  0
  9 17  1  0  0  0  0
 10  9  2  0  0  0  0
 11 10  1  0  0  0  0
 11 12  2  0  0  0  0
 12 16  1  0  0  0  0
 13 12  1  0  0  0  0
 13 14  1  0  0  0  0
 14 15  2  0  0  0  0
 16 15  1  0  0  0  0
 16 17  2  0  0  0  0
 17 22  1  0  0  0  0
 19 11  1  0  0  0  0
 20 13  1  0  0  0  0
 21 14  1  0  0  0  0
 23  1  1  0  0  0  0
 24 23  1  0  0  0  0
 25 24  2  0  0  0  0
 26 27  1  0  0  0  0
 26 25  1  0  0  0  0
 27 28  2  0  0  0  0
 28 24  1  0  0  0  0
 29 25  1  0  0  0  0
 30 36  1  6  0  0  0
 30 31  1  0  0  0  0
 31 27  1  1  0  0  0
 31 32  1  0  0  0  0
 33 32  1  0  0  0  0
 34 38  1  6  0  0  0
 34 33  1  0  0  0  0
 35 40  1  1  0  0  0
 35 30  1  0  0  0  0
 35 34  1  0  0  0  0
 36 37  1  0  0  0  0
 38 39  1  0  0  0  0
 41 40  1  0  0  0  0
M  END
>  <minimizedAffinity>
-7.16546249

>  <minimizedRMSD>
0.858481884

$$$$
