
 OpenBabel03242518263D

 48 52  0  0  1  0  0  0  0  0999 V2000
   46.7890   30.0390   45.6420 C   0  0  0  0  0  0  0  0  0  0  0  0
   46.6040   31.3870   45.6990 C   0  0  0  0  0  0  0  0  0  0  0  0
   47.1310   32.0630   46.7790 C   0  0  0  0  0  0  0  0  0  0  0  0
   47.8200   31.3940   47.7640 C   0  0  0  0  0  0  0  0  0  0  0  0
   47.9990   30.0180   47.6880 C   0  0  0  0  0  0  0  0  0  0  0  0
   47.4740   29.3190   46.6060 C   0  0  0  0  0  0  0  0  0  0  0  0
   48.7240   29.6170   48.8080 O   0  0  0  0  0  0  0  0  0  0  0  0
   48.7190   30.7020   49.7280 C   0  0  2  0  0  0  0  0  0  0  0  0
   48.4460   31.8320   48.9450 O   0  0  0  0  0  0  0  0  0  0  0  0
   46.4110   29.4210   44.8320 H   0  0  0  0  0  0  0  0  0  0  0  0
   47.0100   33.1340   46.8700 H   0  0  0  0  0  0  0  0  0  0  0  0
   47.6300   28.2690   46.5810 H   0  0  0  0  0  0  0  0  0  0  0  0
   47.9170   30.5890   50.4930 H   0  0  0  0  0  0  0  0  0  0  0  0
   45.0590   34.0740   43.6970 C   0  0  0  0  0  0  0  0  0  0  0  0
   44.4830   33.3750   42.6530 C   0  0  0  0  0  0  0  0  0  0  0  0
   44.6310   31.9900   42.6490 C   0  0  0  0  0  0  0  0  0  0  0  0
   45.3180   31.3640   43.6390 N   0  0  0  0  0  0  0  0  0  0  0  0
   45.8710   32.0870   44.6490 C   0  0  0  0  0  0  0  0  0  0  0  0
   45.7360   33.4320   44.6690 N   0  0  0  0  0  0  0  0  0  0  0  0
   45.0340   35.1440   43.8440 H   0  0  0  0  0  0  0  0  0  0  0  0
   44.1790   31.4690   41.8330 H   0  0  0  0  0  0  0  0  0  0  0  0
   43.7910   34.1220   41.6770 N   0  0  0  0  0  0  0  0  0  0  0  0
   43.5390   33.5030   40.4050 C   0  0  0  0  0  0  0  0  0  0  0  0
   42.8900   34.3910   39.4110 C   0  0  0  0  0  0  0  0  0  0  0  0
   41.7910   35.1320   39.9430 N   0  0  0  0  0  0  0  0  0  0  0  0
   41.8550   35.5450   41.2870 C   0  0  0  0  0  0  0  0  0  0  0  0
   43.2950   35.4610   41.7960 C   0  0  0  0  0  0  0  0  0  0  0  0
   42.9770   32.5480   40.5860 H   0  0  0  0  0  0  0  0  0  0  0  0
   44.5350   33.1850   39.9940 H   0  0  0  0  0  0  0  0  0  0  0  0
   43.6090   35.0840   38.9670 H   0  0  0  0  0  0  0  0  0  0  0  0
   42.5180   33.7490   38.5740 H   0  0  0  0  0  0  0  0  0  0  0  0
   41.6130   35.9580   39.3230 H   0  0  0  0  0  0  0  0  0  0  0  0
   41.2710   34.8450   41.9220 H   0  0  0  0  0  0  0  0  0  0  0  0
   41.4410   36.5450   41.4930 H   0  0  0  0  0  0  0  0  0  0  0  0
   43.3190   35.8670   42.8250 H   0  0  0  0  0  0  0  0  0  0  0  0
   43.9130   36.1250   41.1550 H   0  0  0  0  0  0  0  0  0  0  0  0
   51.0480   29.9210   49.5220 C   0  0  2  0  0  3  0  0  0  0  0  0
   50.0860   30.7270   50.3490 C   0  0  1  0  0  3  0  0  0  0  0  0
   50.4650   32.0360   50.5420 O   0  0  0  0  0  0  0  0  0  0  0  0
   51.7700   32.3250   50.2240 C   0  0  0  0  0  2  0  0  0  0  0  0
   52.7630   31.2810   50.6250 C   0  0  2  0  0  3  0  0  0  0  0  0
   52.3500   29.8720   50.3270 C   0  0  2  0  0  3  0  0  0  0  0  0
   51.2420   30.4030   48.2470 O   0  0  0  0  0  0  0  0  0  0  0  0
   50.8460   29.8380   47.5400 H   0  0  0  0  0  0  0  0  0  0  0  0
   53.1150   31.4420   51.9660 O   0  0  0  0  0  0  0  0  0  0  0  0
   52.4000   31.1880   52.5740 H   0  0  0  0  0  0  0  0  0  0  0  0
   53.2940   29.1350   49.6350 O   0  0  0  0  0  0  0  0  0  0  0  0
   53.4860   28.2630   50.1000 H   0  0  0  0  0  0  0  0  0  0  0  0
  1  2  2  0  0  0  0
  1  6  1  0  0  0  0
  2  3  1  0  0  0  0
  3 11  1  0  0  0  0
  3  4  2  0  0  0  0
  4  9  1  0  0  0  0
  5  4  1  0  0  0  0
  5  7  1  0  0  0  0
  6  5  2  0  0  0  0
  7  8  1  0  0  0  0
  8 38  1  0  0  0  0
  8 13  1  1  0  0  0
  9  8  1  0  0  0  0
 10  1  1  0  0  0  0
 12  6  1  0  0  0  0
 14 20  1  0  0  0  0
 14 19  1  0  0  0  0
 15 14  2  0  0  0  0
 16 15  1  0  0  0  0
 16 17  2  0  0  0  0
 17 18  1  0  0  0  0
 18 19  2  0  0  0  0
 18  2  1  0  0  0  0
 21 16  1  0  0  0  0
 22 27  1  0  0  0  0
 22 15  1  0  0  0  0
 23 28  1  0  0  0  0
 23 22  1  0  0  0  0
 24 25  1  0  0  0  0
 24 23  1  0  0  0  0
 25 26  1  0  0  0  0
 26 34  1  0  0  0  0
 26 27  1  0  0  0  0
 26 33  1  0  0  0  0
 27 35  1  0  0  0  0
 29 23  1  0  0  0  0
 30 24  1  0  0  0  0
 31 24  1  0  0  0  0
 32 25  1  0  0  0  0
 36 27  1  0  0  0  0
 37 43  1  6  0  0  0
 37 42  1  0  0  0  0
 37 38  1  0  0  0  0
 38 39  1  6  0  0  0
 40 39  1  0  0  0  0
 40 41  1  0  0  0  0
 41 45  1  1  0  0  0
 42 47  1  6  0  0  0
 42 41  1  0  0  0  0
 44 43  1  0  0  0  0
 45 46  1  0  0  0  0
 47 48  1  0  0  0  0
M  END
>  <minimizedAffinity>
-5.89919853

>  <minimizedRMSD>
1.72776949

$$$$
