
 OpenBabel03242518263D

 48 52  0  0  1  0  0  0  0  0999 V2000
   46.3280   29.6970   44.2300 C   0  0  0  0  0  0  0  0  0  0  0  0
   46.1020   31.0040   44.5390 C   0  0  0  0  0  0  0  0  0  0  0  0
   46.6670   31.4990   45.6960 C   0  0  0  0  0  0  0  0  0  0  0  0
   47.4330   30.6950   46.5080 C   0  0  0  0  0  0  0  0  0  0  0  0
   47.6540   29.3630   46.1750 C   0  0  0  0  0  0  0  0  0  0  0  0
   47.0920   28.8470   45.0120 C   0  0  0  0  0  0  0  0  0  0  0  0
   48.4550   28.8010   47.1670 O   0  0  0  0  0  0  0  0  0  0  0  0
   48.4650   29.7030   48.2670 C   0  0  2  0  0  0  0  0  0  0  0  0
   48.1100   30.9420   47.7160 O   0  0  0  0  0  0  0  0  0  0  0  0
   45.9260   29.2180   43.3410 H   0  0  0  0  0  0  0  0  0  0  0  0
   46.5150   32.5290   45.9840 H   0  0  0  0  0  0  0  0  0  0  0  0
   47.2810   27.8260   44.7910 H   0  0  0  0  0  0  0  0  0  0  0  0
   47.7120   29.4200   49.0380 H   0  0  0  0  0  0  0  0  0  0  0  0
   44.7080   33.9630   42.8300 C   0  0  0  0  0  0  0  0  0  0  0  0
   43.7340   33.4090   42.0220 C   0  0  0  0  0  0  0  0  0  0  0  0
   43.5660   32.0270   42.0730 C   0  0  0  0  0  0  0  0  0  0  0  0
   44.3370   31.2660   42.8910 N   0  0  0  0  0  0  0  0  0  0  0  0
   45.2860   31.8480   43.6710 C   0  0  0  0  0  0  0  0  0  0  0  0
   45.4620   33.1880   43.6340 N   0  0  0  0  0  0  0  0  0  0  0  0
   44.9610   35.0110   42.9060 H   0  0  0  0  0  0  0  0  0  0  0  0
   42.8070   31.6190   41.4400 H   0  0  0  0  0  0  0  0  0  0  0  0
   42.9870   34.2900   41.2110 N   0  0  0  0  0  0  0  0  0  0  0  0
   42.7540   33.9150   39.8440 C   0  0  0  0  0  0  0  0  0  0  0  0
   42.0420   34.9400   39.0430 C   0  0  0  0  0  0  0  0  0  0  0  0
   40.9100   35.4980   39.7110 N   0  0  0  0  0  0  0  0  0  0  0  0
   40.9680   35.6450   41.1090 C   0  0  0  0  0  0  0  0  0  0  0  0
   42.4170   35.5490   41.5900 C   0  0  0  0  0  0  0  0  0  0  0  0
   42.2500   32.9120   39.8370 H   0  0  0  0  0  0  0  0  0  0  0  0
   43.7600   33.7420   39.3770 H   0  0  0  0  0  0  0  0  0  0  0  0
   42.7140   35.7470   38.7410 H   0  0  0  0  0  0  0  0  0  0  0  0
   41.6960   34.4520   38.0970 H   0  0  0  0  0  0  0  0  0  0  0  0
   40.6760   36.4160   39.2640 H   0  0  0  0  0  0  0  0  0  0  0  0
   40.4330   34.8030   41.5970 H   0  0  0  0  0  0  0  0  0  0  0  0
   40.5010   36.5600   41.5070 H   0  0  0  0  0  0  0  0  0  0  0  0
   42.4320   35.7480   42.6780 H   0  0  0  0  0  0  0  0  0  0  0  0
   42.9870   36.3590   41.0880 H   0  0  0  0  0  0  0  0  0  0  0  0
   50.2810   31.0570   49.2370 C   0  0  2  0  0  3  0  0  0  0  0  0
   49.8640   29.6760   48.8130 C   0  0  1  0  0  3  0  0  0  0  0  0
   49.9350   28.7310   49.8120 O   0  0  0  0  0  0  0  0  0  0  0  0
   50.6440   29.1060   50.9270 C   0  0  0  0  0  2  0  0  0  0  0  0
   51.8980   29.8730   50.6510 C   0  0  2  0  0  3  0  0  0  0  0  0
   51.7620   30.9460   49.6140 C   0  0  2  0  0  3  0  0  0  0  0  0
   49.5240   31.5920   50.2570 O   0  0  0  0  0  0  0  0  0  0  0  0
   48.9360   32.3340   49.9730 H   0  0  0  0  0  0  0  0  0  0  0  0
   52.9410   28.9960   50.3520 O   0  0  0  0  0  0  0  0  0  0  0  0
   52.8430   28.5800   49.4780 H   0  0  0  0  0  0  0  0  0  0  0  0
   52.2310   32.1850   50.0110 O   0  0  0  0  0  0  0  0  0  0  0  0
   52.8800   32.5600   49.3380 H   0  0  0  0  0  0  0  0  0  0  0  0
  1  2  2  0  0  0  0
  1  6  1  0  0  0  0
  2  3  1  0  0  0  0
  3 11  1  0  0  0  0
  3  4  2  0  0  0  0
  4  9  1  0  0  0  0
  5  4  1  0  0  0  0
  5  7  1  0  0  0  0
  6  5  2  0  0  0  0
  7  8  1  0  0  0  0
  8 38  1  0  0  0  0
  8 13  1  1  0  0  0
  9  8  1  0  0  0  0
 10  1  1  0  0  0  0
 12  6  1  0  0  0  0
 14 20  1  0  0  0  0
 14 19  1  0  0  0  0
 15 16  1  0  0  0  0
 15 14  2  0  0  0  0
 16 17  2  0  0  0  0
 17 18  1  0  0  0  0
 18  2  1  0  0  0  0
 19 18  2  0  0  0  0
 21 16  1  0  0  0  0
 22 27  1  0  0  0  0
 22 15  1  0  0  0  0
 23 22  1  0  0  0  0
 24 25  1  0  0  0  0
 24 23  1  0  0  0  0
 25 26  1  0  0  0  0
 26 34  1  0  0  0  0
 26 27  1  0  0  0  0
 26 33  1  0  0  0  0
 27 35  1  0  0  0  0
 28 23  1  0  0  0  0
 29 23  1  0  0  0  0
 30 24  1  0  0  0  0
 31 24  1  0  0  0  0
 32 25  1  0  0  0  0
 36 27  1  0  0  0  0
 37 42  1  0  0  0  0
 37 43  1  1  0  0  0
 38 37  1  0  0  0  0
 38 39  1  1  0  0  0
 39 40  1  0  0  0  0
 41 45  1  6  0  0  0
 41 40  1  0  0  0  0
 42 47  1  1  0  0  0
 42 41  1  0  0  0  0
 44 43  1  0  0  0  0
 46 45  1  0  0  0  0
 48 47  1  0  0  0  0
M  END
>  <minimizedAffinity>
-5.52119303

>  <minimizedRMSD>
1.92639303

$$$$
