
     RDKit          3D

 47 51  0  0  0  0  0  0  0  0999 V2000
   45.4943   34.8302   43.5376 C   0  0  0  0  0  0  0  0  0  0  0  0
   46.2146   33.7514   44.1162 C   0  0  0  0  0  0  0  0  0  0  0  0
   46.0258   33.5174   45.4679 C   0  0  0  0  0  0  0  0  0  0  0  0
   45.1797   34.3130   46.1607 N   0  0  0  0  0  0  0  0  0  0  0  0
   44.5023   35.3374   45.5876 C   0  0  0  0  0  0  0  0  0  0  0  0
   44.6643   35.5846   44.2925 N   0  0  0  0  0  0  0  0  0  0  0  0
   47.0152   32.6987   47.5329 C   0  0  0  0  0  0  0  0  0  0  0  0
   46.6886   32.4520   46.2070 C   0  0  0  0  0  0  0  0  0  0  0  0
   47.0061   31.2327   45.6828 C   0  0  0  0  0  0  0  0  0  0  0  0
   47.6339   30.2364   46.4045 C   0  0  0  0  0  0  0  0  0  0  0  0
   48.0330   28.9847   46.0968 N   0  0  0  0  0  0  0  0  0  0  0  0
   48.6113   28.4445   47.2323 C   0  0  0  0  0  0  0  0  0  0  0  0
   48.5516   29.3704   48.1955 N   0  0  0  0  0  0  0  0  0  0  0  0
   47.9594   30.4686   47.7095 C   0  0  0  0  0  0  0  0  0  0  0  0
   47.6509   31.6993   48.2754 C   0  0  0  0  0  0  0  0  0  0  0  0
   45.6842   35.0661   42.1778 O   0  0  0  0  0  0  0  0  0  0  0  0
   44.6185   34.9227   41.2932 C   0  0  0  0  0  0  0  0  0  0  0  0
   45.0104   33.8273   40.6126 C   0  0  0  0  0  0  0  0  0  0  0  0
   43.5705   33.5942   39.3860 S   0  0  0  0  0  0  0  0  0  0  0  0
   42.7299   35.1216   40.1259 C   0  0  0  0  0  0  0  0  0  0  0  0
   43.4706   35.3977   40.8933 N   0  0  0  0  0  0  0  0  0  0  0  0
   46.8808   33.1213   43.5818 H   0  0  0  0  0  0  0  0  0  0  0  0
   43.8236   35.9787   46.1338 H   0  0  0  0  0  0  0  0  0  0  0  0
   46.8070   33.6308   48.0413 H   0  0  0  0  0  0  0  0  0  0  0  0
   46.7580   31.0212   44.6450 H   0  0  0  0  0  0  0  0  0  0  0  0
   47.9057   28.5492   45.1588 H   0  0  0  0  0  0  0  0  0  0  0  0
   49.0001   27.4324   47.1902 H   0  0  0  0  0  0  0  0  0  0  0  0
   47.9034   31.9093   49.3247 H   0  0  0  0  0  0  0  0  0  0  0  0
   45.7131   32.9196   40.3168 H   0  0  0  0  0  0  0  0  0  0  0  0
   41.0115   37.4098   38.0729 O   0  0  0  0  0  0  0  0  0  0  0  0
   41.3951   36.0669   38.2918 C   0  0  1  0  0  0  0  0  0  0  0  0
   41.3834   35.7798   39.7466 C   0  0  1  0  0  0  0  0  0  0  0  0
   40.3519   35.0285   40.2218 O   0  0  0  0  0  0  0  0  0  0  0  0
   39.9597   33.9823   39.4091 C   0  0  0  0  0  0  0  0  0  0  0  0
   39.3536   34.5961   38.1632 C   0  0  2  0  0  0  0  0  0  0  0  0
   38.7516   33.6603   37.3454 O   0  0  0  0  0  0  0  0  0  0  0  0
   40.5237   35.2366   37.4313 C   0  0  2  0  0  0  0  0  0  0  0  0
   41.2369   34.1888   36.8241 O   0  0  0  0  0  0  0  0  0  0  0  0
   40.2506   37.5447   38.7065 H   0  0  0  0  0  0  0  0  0  0  0  0
   42.4383   36.0270   37.9152 H   0  0  0  0  0  0  0  0  0  0  0  0
   41.4178   36.7340   40.3127 H   0  0  0  0  0  0  0  0  0  0  0  0
   39.1841   33.4235   39.9546 H   0  0  0  0  0  0  0  0  0  0  0  0
   40.8081   33.3644   39.1150 H   0  0  0  0  0  0  0  0  0  0  0  0
   38.6747   35.4088   38.5082 H   0  0  0  0  0  0  0  0  0  0  0  0
   37.8363   33.4950   37.7395 H   0  0  0  0  0  0  0  0  0  0  0  0
   40.0882   35.8168   36.5657 H   0  0  0  0  0  0  0  0  0  0  0  0
   40.7275   33.7921   36.0761 H   0  0  0  0  0  0  0  0  0  0  0  0
  1  2  2  0
  1  6  1  0
  2  3  1  0
  3  4  2  0
  3  8  1  0
  5  4  1  0
  6  5  2  0
  7 15  2  0
  8  7  1  0
  9  8  2  0
  9 10  1  0
 10 14  2  0
 11 10  1  0
 11 12  1  0
 12 13  2  0
 14 13  1  0
 14 15  1  0
 16  1  1  0
 17 16  1  0
 18 17  2  0
 19 20  1  0
 19 18  1  0
 20 21  2  0
 21 17  1  0
  2 22  1  0
  5 23  1  0
  7 24  1  0
  9 25  1  0
 11 26  1  0
 12 27  1  0
 15 28  1  0
 18 29  1  0
 30 31  1  0
 31 32  1  0
 32 33  1  0
 33 34  1  0
 34 35  1  0
 35 36  1  0
 35 37  1  0
 37 38  1  0
 37 31  1  0
 30 39  1  0
 31 40  1  6
 32 41  1  1
 34 42  1  0
 34 43  1  0
 35 44  1  1
 36 45  1  0
 37 46  1  6
 38 47  1  0
 20 32  1  0
M  ISO  8  22  14  23  14  24  14  25  14  26   9  27  14  28  14  29  14
M  END
>  <DihAtoms>  (1) 
18,19,31,30

>  <DihDeg>  (1) 
5.994729465458877

$$$$
