
 OpenBabel03242523393D

 22 23  0  0  1  0  0  0  0  0999 V2000
   37.1210   31.5130   40.1080 C   0  0  2  0  0  3  0  0  0  0  0  0
   38.2590   30.8060   40.7710 C   0  0  1  0  0  3  0  0  0  0  0  0
   38.8240   31.6790   41.7020 O   0  0  0  0  0  0  0  0  0  0  0  0
   39.6390   32.5590   40.9940 C   0  0  0  0  0  2  0  0  0  0  0  0
   38.9370   33.2470   39.8700 C   0  0  2  0  0  3  0  0  0  0  0  0
   37.4840   32.9140   39.7460 C   0  0  1  0  0  3  0  0  0  0  0  0
   37.2760   28.1700   43.2370 C   0  0  0  0  0  0  0  0  0  0  0  0
   36.9620   27.0920   42.3620 C   0  0  0  0  0  0  0  0  0  0  0  0
   37.1080   27.3450   40.9840 C   0  0  0  0  0  0  0  0  0  0  0  0
   37.5350   28.5800   40.5770 N   0  0  0  0  0  0  0  0  0  0  0  0
   37.8150   29.5530   41.4550 C   0  0  0  0  0  0  0  0  0  0  0  0
   37.6890   29.3580   42.7800 N   0  0  0  0  0  0  0  0  0  0  0  0
   37.1780   28.0250   44.3120 H   0  0  0  0  0  0  0  0  0  0  0  0
   36.6340   26.1520   42.7300 H   0  0  0  0  0  0  0  0  0  0  0  0
   36.7340   26.0440   39.8150 S   0  0  0  0  0  0  0  0  0  0  0  0
   36.7970   26.6150   38.5290 H   0  0  0  0  0  0  0  0  0  0  0  0
   36.0380   31.5160   41.0020 O   0  0  0  0  0  0  0  0  0  0  0  0
   35.2560   31.8550   40.4860 H   0  0  0  0  0  0  0  0  0  0  0  0
   39.6490   33.0450   38.6680 O   0  0  0  0  0  0  0  0  0  0  0  0
   40.6050   32.9680   38.9290 H   0  0  0  0  0  0  0  0  0  0  0  0
   37.1250   33.1010   38.3930 O   0  0  0  0  0  0  0  0  0  0  0  0
   37.9260   33.1320   37.8120 H   0  0  0  0  0  0  0  0  0  0  0  0
  1  2  1  0  0  0  0
  1 17  1  1  0  0  0
  2 11  1  1  0  0  0
  2  3  1  0  0  0  0
  4  3  1  0  0  0  0
  5 19  1  6  0  0  0
  5  4  1  0  0  0  0
  6 21  1  6  0  0  0
  6  5  1  0  0  0  0
  6  1  1  0  0  0  0
  7 13  1  0  0  0  0
  8 14  1  0  0  0  0
  8  7  2  0  0  0  0
  9  8  1  0  0  0  0
 10  9  2  0  0  0  0
 10 11  1  0  0  0  0
 11 12  2  0  0  0  0
 12  7  1  0  0  0  0
 15  9  1  0  0  0  0
 16 15  1  0  0  0  0
 18 17  1  0  0  0  0
 19 20  1  0  0  0  0
 22 21  1  0  0  0  0
M  END
>  <minimizedAffinity>
-5.29854345

$$$$

 OpenBabel03242523393D

 22 23  0  0  1  0  0  0  0  0999 V2000
   38.6240   31.6720   41.5370 C   0  0  2  0  0  3  0  0  0  0  0  0
   37.5660   30.7470   41.0250 C   0  0  1  0  0  3  0  0  0  0  0  0
   37.8090   30.5240   39.6690 O   0  0  0  0  0  0  0  0  0  0  0  0
   37.3260   31.6340   38.9800 C   0  0  0  0  0  2  0  0  0  0  0  0
   37.8700   32.9300   39.4850 C   0  0  2  0  0  3  0  0  0  0  0  0
   38.8690   32.7980   40.5900 C   0  0  1  0  0  3  0  0  0  0  0  0
   37.7130   28.0270   43.5900 C   0  0  0  0  0  0  0  0  0  0  0  0
   37.4800   26.8830   42.7770 C   0  0  0  0  0  0  0  0  0  0  0  0
   37.2860   27.1240   41.4020 C   0  0  0  0  0  0  0  0  0  0  0  0
   37.3350   28.4110   40.9400 N   0  0  0  0  0  0  0  0  0  0  0  0
   37.5600   29.4460   41.7620 C   0  0  0  0  0  0  0  0  0  0  0  0
   37.7500   29.2650   43.0810 N   0  0  0  0  0  0  0  0  0  0  0  0
   37.8680   27.8940   44.6600 H   0  0  0  0  0  0  0  0  0  0  0  0
   37.4520   25.9040   43.1860 H   0  0  0  0  0  0  0  0  0  0  0  0
   36.9860   25.7400   40.3090 S   0  0  0  0  0  0  0  0  0  0  0  0
   36.6610   26.2750   39.0480 H   0  0  0  0  0  0  0  0  0  0  0  0
   39.8020   30.9240   41.7060 O   0  0  0  0  0  0  0  0  0  0  0  0
   40.4410   31.5220   42.1830 H   0  0  0  0  0  0  0  0  0  0  0  0
   36.8060   33.7990   39.8100 O   0  0  0  0  0  0  0  0  0  0  0  0
   36.0660   33.5660   39.1890 H   0  0  0  0  0  0  0  0  0  0  0  0
   38.8220   33.9930   41.3430 O   0  0  0  0  0  0  0  0  0  0  0  0
   37.9920   34.5000   41.1560 H   0  0  0  0  0  0  0  0  0  0  0  0
  1 17  1  6  0  0  0
  2  1  1  0  0  0  0
  2 11  1  1  0  0  0
  3  2  1  0  0  0  0
  4  5  1  0  0  0  0
  4  3  1  0  0  0  0
  5 19  1  1  0  0  0
  5  6  1  0  0  0  0
  6 21  1  1  0  0  0
  6  1  1  0  0  0  0
  7 13  1  0  0  0  0
  8 14  1  0  0  0  0
  8  7  2  0  0  0  0
  9  8  1  0  0  0  0
 10  9  2  0  0  0  0
 10 11  1  0  0  0  0
 11 12  2  0  0  0  0
 12  7  1  0  0  0  0
 15  9  1  0  0  0  0
 16 15  1  0  0  0  0
 17 18  1  0  0  0  0
 20 19  1  0  0  0  0
 22 21  1  0  0  0  0
M  END
>  <minimizedAffinity>
-5.20989418

$$$$

 OpenBabel03242523393D

 22 23  0  0  1  0  0  0  0  0999 V2000
   37.0300   31.8660   40.0960 C   0  0  2  0  0  3  0  0  0  0  0  0
   38.1740   30.9270   40.3040 C   0  0  1  0  0  3  0  0  0  0  0  0
   38.9160   31.3880   41.3920 O   0  0  0  0  0  0  0  0  0  0  0  0
   39.7140   32.4310   40.9280 C   0  0  0  0  0  2  0  0  0  0  0  0
   38.9450   33.5010   40.2250 C   0  0  2  0  0  3  0  0  0  0  0  0
   37.4650   33.2890   40.1980 C   0  0  1  0  0  3  0  0  0  0  0  0
   36.5280   27.5690   40.1850 C   0  0  0  0  0  0  0  0  0  0  0  0
   37.0750   26.9640   41.3510 C   0  0  0  0  0  0  0  0  0  0  0  0
   37.9730   27.7510   42.0990 C   0  0  0  0  0  0  0  0  0  0  0  0
   38.2590   29.0190   41.6720 N   0  0  0  0  0  0  0  0  0  0  0  0
   37.7080   29.5300   40.5630 C   0  0  0  0  0  0  0  0  0  0  0  0
   36.8450   28.8160   39.8170 N   0  0  0  0  0  0  0  0  0  0  0  0
   35.8280   27.0020   39.5720 H   0  0  0  0  0  0  0  0  0  0  0  0
   36.8190   25.9750   41.6390 H   0  0  0  0  0  0  0  0  0  0  0  0
   38.7080   27.0660   43.5790 S   0  0  0  0  0  0  0  0  0  0  0  0
   39.6790   27.9850   44.0200 H   0  0  0  0  0  0  0  0  0  0  0  0
   36.0640   31.5900   41.0780 O   0  0  0  0  0  0  0  0  0  0  0  0
   35.2570   32.1210   40.8280 H   0  0  0  0  0  0  0  0  0  0  0  0
   39.4910   33.7150   38.9410 O   0  0  0  0  0  0  0  0  0  0  0  0
   40.4610   33.5130   39.0210 H   0  0  0  0  0  0  0  0  0  0  0  0
   36.9660   33.9610   39.0600 O   0  0  0  0  0  0  0  0  0  0  0  0
   37.6930   34.1670   38.4200 H   0  0  0  0  0  0  0  0  0  0  0  0
  1  6  1  0  0  0  0
  1  2  1  0  0  0  0
  1 17  1  1  0  0  0
  2 11  1  1  0  0  0
  2  3  1  0  0  0  0
  4  3  1  0  0  0  0
  5 19  1  6  0  0  0
  5  4  1  0  0  0  0
  6 21  1  6  0  0  0
  6  5  1  0  0  0  0
  7  8  1  0  0  0  0
  8 14  1  0  0  0  0
  8  9  2  0  0  0  0
  9 15  1  0  0  0  0
 10  9  1  0  0  0  0
 11 10  2  0  0  0  0
 12  7  2  0  0  0  0
 12 11  1  0  0  0  0
 13  7  1  0  0  0  0
 15 16  1  0  0  0  0
 18 17  1  0  0  0  0
 19 20  1  0  0  0  0
 22 21  1  0  0  0  0
M  END
>  <minimizedAffinity>
-5.12799406

$$$$

 OpenBabel03242523393D

 22 23  0  0  1  0  0  0  0  0999 V2000
   37.0460   29.4040   41.8780 C   0  0  2  0  0  3  0  0  0  0  0  0
   38.4470   29.0600   41.4860 C   0  0  1  0  0  3  0  0  0  0  0  0
   39.2590   30.1530   41.7940 O   0  0  0  0  0  0  0  0  0  0  0  0
   39.0890   31.0870   40.7760 C   0  0  0  0  0  2  0  0  0  0  0  0
   37.6590   31.4480   40.5330 C   0  0  2  0  0  3  0  0  0  0  0  0
   36.6860   30.7900   41.4580 C   0  0  1  0  0  3  0  0  0  0  0  0
   40.2380   26.6150   43.6800 C   0  0  0  0  0  0  0  0  0  0  0  0
   39.5950   25.4020   43.3050 C   0  0  0  0  0  0  0  0  0  0  0  0
   38.5890   25.5060   42.3240 C   0  0  0  0  0  0  0  0  0  0  0  0
   38.2970   26.7370   41.8010 N   0  0  0  0  0  0  0  0  0  0  0  0
   38.9420   27.8420   42.1990 C   0  0  0  0  0  0  0  0  0  0  0  0
   39.9090   27.7920   43.1320 N   0  0  0  0  0  0  0  0  0  0  0  0
   41.0230   26.5880   44.4350 H   0  0  0  0  0  0  0  0  0  0  0  0
   39.8610   24.4720   43.7420 H   0  0  0  0  0  0  0  0  0  0  0  0
   37.7300   24.0290   41.7960 S   0  0  0  0  0  0  0  0  0  0  0  0
   36.6790   24.4430   40.9550 H   0  0  0  0  0  0  0  0  0  0  0  0
   36.9490   29.2880   43.2740 O   0  0  0  0  0  0  0  0  0  0  0  0
   35.9800   29.3750   43.4920 H   0  0  0  0  0  0  0  0  0  0  0  0
   37.3420   31.2500   39.1720 O   0  0  0  0  0  0  0  0  0  0  0  0
   38.1820   31.4200   38.6710 H   0  0  0  0  0  0  0  0  0  0  0  0
   35.4500   30.7110   40.7790 O   0  0  0  0  0  0  0  0  0  0  0  0
   35.5690   30.8400   39.8040 H   0  0  0  0  0  0  0  0  0  0  0  0
  1 17  1  1  0  0  0
  2  3  1  0  0  0  0
  2  1  1  0  0  0  0
  2 11  1  1  0  0  0
  4  3  1  0  0  0  0
  5 19  1  6  0  0  0
  5  4  1  0  0  0  0
  5  6  1  0  0  0  0
  6 21  1  6  0  0  0
  6  1  1  0  0  0  0
  7 13  1  0  0  0  0
  8  7  1  0  0  0  0
  8 14  1  0  0  0  0
  9  8  2  0  0  0  0
 10 11  2  0  0  0  0
 10  9  1  0  0  0  0
 11 12  1  0  0  0  0
 12  7  2  0  0  0  0
 15  9  1  0  0  0  0
 16 15  1  0  0  0  0
 17 18  1  0  0  0  0
 20 19  1  0  0  0  0
 22 21  1  0  0  0  0
M  END
>  <minimizedAffinity>
-4.96106625

$$$$

 OpenBabel03242523393D

 22 23  0  0  1  0  0  0  0  0999 V2000
   36.4800   28.9150   41.4500 C   0  0  2  0  0  3  0  0  0  0  0  0
   37.4780   28.2230   40.5780 C   0  0  1  0  0  3  0  0  0  0  0  0
   38.7450   28.7110   40.9040 O   0  0  0  0  0  0  0  0  0  0  0  0
   38.8820   29.9430   40.2700 C   0  0  0  0  0  2  0  0  0  0  0  0
   37.7720   30.8950   40.5740 C   0  0  2  0  0  3  0  0  0  0  0  0
   36.7560   30.3780   41.5410 C   0  0  1  0  0  3  0  0  0  0  0  0
   36.6920   24.5680   40.4460 C   0  0  0  0  0  0  0  0  0  0  0  0
   37.6770   24.0520   41.3340 C   0  0  0  0  0  0  0  0  0  0  0  0
   38.5450   24.9950   41.9190 C   0  0  0  0  0  0  0  0  0  0  0  0
   38.3930   26.3190   41.6070 N   0  0  0  0  0  0  0  0  0  0  0  0
   37.4430   26.7390   40.7600 C   0  0  0  0  0  0  0  0  0  0  0  0
   36.5920   25.8750   40.1780 N   0  0  0  0  0  0  0  0  0  0  0  0
   35.9960   23.8780   39.9670 H   0  0  0  0  0  0  0  0  0  0  0  0
   37.7510   23.0140   41.5430 H   0  0  0  0  0  0  0  0  0  0  0  0
   39.8120   24.4310   43.0480 S   0  0  0  0  0  0  0  0  0  0  0  0
   40.6290   25.5410   43.3380 H   0  0  0  0  0  0  0  0  0  0  0  0
   36.5520   28.3350   42.7280 O   0  0  0  0  0  0  0  0  0  0  0  0
   35.7830   28.7060   43.2420 H   0  0  0  0  0  0  0  0  0  0  0  0
   37.1980   31.3580   39.3710 O   0  0  0  0  0  0  0  0  0  0  0  0
   37.9340   31.3600   38.7030 H   0  0  0  0  0  0  0  0  0  0  0  0
   35.5410   31.0470   41.2700 O   0  0  0  0  0  0  0  0  0  0  0  0
   35.5590   31.4710   40.3760 H   0  0  0  0  0  0  0  0  0  0  0  0
  1  6  1  0  0  0  0
  1 17  1  1  0  0  0
  2 11  1  1  0  0  0
  2  3  1  0  0  0  0
  2  1  1  0  0  0  0
  4  5  1  0  0  0  0
  4  3  1  0  0  0  0
  5 19  1  6  0  0  0
  5  6  1  0  0  0  0
  6 21  1  6  0  0  0
  7  8  1  0  0  0  0
  8 14  1  0  0  0  0
  8  9  2  0  0  0  0
  9 15  1  0  0  0  0
 10  9  1  0  0  0  0
 11 10  2  0  0  0  0
 12  7  2  0  0  0  0
 12 11  1  0  0  0  0
 13  7  1  0  0  0  0
 15 16  1  0  0  0  0
 17 18  1  0  0  0  0
 20 19  1  0  0  0  0
 22 21  1  0  0  0  0
M  END
>  <minimizedAffinity>
-4.95423031

$$$$

 OpenBabel03242523393D

 22 23  0  0  1  0  0  0  0  0999 V2000
   38.3680   29.3500   41.1970 C   0  0  2  0  0  3  0  0  0  0  0  0
   37.4850   28.2950   41.7820 C   0  0  1  0  0  3  0  0  0  0  0  0
   36.6070   27.8680   40.7850 O   0  0  0  0  0  0  0  0  0  0  0  0
   35.5940   28.8210   40.6980 C   0  0  0  0  0  2  0  0  0  0  0  0
   36.1020   30.2120   40.5000 C   0  0  2  0  0  3  0  0  0  0  0  0
   37.5880   30.3200   40.3730 C   0  0  1  0  0  3  0  0  0  0  0  0
   39.7520   26.0030   43.6790 C   0  0  0  0  0  0  0  0  0  0  0  0
   39.5580   24.7870   42.9660 C   0  0  0  0  0  0  0  0  0  0  0  0
   38.6600   24.8370   41.8810 C   0  0  0  0  0  0  0  0  0  0  0  0
   38.0440   26.0220   41.5840 N   0  0  0  0  0  0  0  0  0  0  0  0
   38.2720   27.1330   42.2980 C   0  0  0  0  0  0  0  0  0  0  0  0
   39.1210   27.1340   43.3410 N   0  0  0  0  0  0  0  0  0  0  0  0
   40.4370   26.0160   44.5270 H   0  0  0  0  0  0  0  0  0  0  0  0
   40.0620   23.8930   43.2390 H   0  0  0  0  0  0  0  0  0  0  0  0
   38.3570   23.3520   40.9310 S   0  0  0  0  0  0  0  0  0  0  0  0
   37.3070   23.6410   40.0390 H   0  0  0  0  0  0  0  0  0  0  0  0
   39.3300   28.7100   40.3980 O   0  0  0  0  0  0  0  0  0  0  0  0
   39.9890   29.4140   40.1440 H   0  0  0  0  0  0  0  0  0  0  0  0
   35.5750   31.0590   41.4980 O   0  0  0  0  0  0  0  0  0  0  0  0
   34.6830   30.6850   41.7270 H   0  0  0  0  0  0  0  0  0  0  0  0
   37.9530   31.6160   40.8000 O   0  0  0  0  0  0  0  0  0  0  0  0
   37.2250   32.0370   41.3230 H   0  0  0  0  0  0  0  0  0  0  0  0
  1 17  1  6  0  0  0
  1  2  1  0  0  0  0
  2 11  1  6  0  0  0
  3  2  1  0  0  0  0
  4  3  1  0  0  0  0
  5  4  1  0  0  0  0
  5 19  1  1  0  0  0
  6  5  1  0  0  0  0
  6 21  1  1  0  0  0
  6  1  1  0  0  0  0
  7 13  1  0  0  0  0
  8 14  1  0  0  0  0
  8  7  2  0  0  0  0
  9  8  1  0  0  0  0
 10  9  2  0  0  0  0
 10 11  1  0  0  0  0
 11 12  2  0  0  0  0
 12  7  1  0  0  0  0
 15  9  1  0  0  0  0
 16 15  1  0  0  0  0
 18 17  1  0  0  0  0
 19 20  1  0  0  0  0
 21 22  1  0  0  0  0
M  END
>  <minimizedAffinity>
-4.92908621

$$$$

 OpenBabel03242523393D

 22 23  0  0  1  0  0  0  0  0999 V2000
   36.5910   30.1090   41.1330 C   0  0  2  0  0  3  0  0  0  0  0  0
   37.3860   30.4130   39.9040 C   0  0  1  0  0  3  0  0  0  0  0  0
   36.5390   30.2860   38.8020 O   0  0  0  0  0  0  0  0  0  0  0  0
   36.4300   28.9260   38.5260 C   0  0  0  0  0  2  0  0  0  0  0  0
   36.0100   28.1120   39.7060 C   0  0  2  0  0  3  0  0  0  0  0  0
   35.7300   28.9060   40.9420 C   0  0  1  0  0  3  0  0  0  0  0  0
   37.9820   34.1050   39.7930 C   0  0  0  0  0  0  0  0  0  0  0  0
   39.3700   34.1590   40.1020 C   0  0  0  0  0  0  0  0  0  0  0  0
   40.0070   32.9230   40.3290 C   0  0  0  0  0  0  0  0  0  0  0  0
   39.2730   31.7720   40.2390 N   0  0  0  0  0  0  0  0  0  0  0  0
   37.9660   31.7910   39.9430 C   0  0  0  0  0  0  0  0  0  0  0  0
   37.3150   32.9470   39.7190 N   0  0  0  0  0  0  0  0  0  0  0  0
   37.4430   35.0340   39.6090 H   0  0  0  0  0  0  0  0  0  0  0  0
   39.8930   35.0810   40.1590 H   0  0  0  0  0  0  0  0  0  0  0  0
   41.7510   32.9020   40.7240 S   0  0  0  0  0  0  0  0  0  0  0  0
   42.0790   31.5760   41.0670 H   0  0  0  0  0  0  0  0  0  0  0  0
   35.7910   31.2290   41.4150 O   0  0  0  0  0  0  0  0  0  0  0  0
   35.3880   31.0610   42.3120 H   0  0  0  0  0  0  0  0  0  0  0  0
   36.9390   27.0710   39.9230 O   0  0  0  0  0  0  0  0  0  0  0  0
   37.2980   26.8380   39.0260 H   0  0  0  0  0  0  0  0  0  0  0  0
   35.9540   28.0540   42.0470 O   0  0  0  0  0  0  0  0  0  0  0  0
   36.4860   27.2620   41.7850 H   0  0  0  0  0  0  0  0  0  0  0  0
  1 17  1  6  0  0  0
  2 11  1  1  0  0  0
  2  1  1  0  0  0  0
  3  2  1  0  0  0  0
  4  3  1  0  0  0  0
  4  5  1  0  0  0  0
  5 19  1  1  0  0  0
  5  6  1  0  0  0  0
  6  1  1  0  0  0  0
  6 21  1  1  0  0  0
  7  8  1  0  0  0  0
  8 14  1  0  0  0  0
  8  9  2  0  0  0  0
  9 15  1  0  0  0  0
 10  9  1  0  0  0  0
 11 10  2  0  0  0  0
 12  7  2  0  0  0  0
 12 11  1  0  0  0  0
 13  7  1  0  0  0  0
 15 16  1  0  0  0  0
 17 18  1  0  0  0  0
 20 19  1  0  0  0  0
 22 21  1  0  0  0  0
M  END
>  <minimizedAffinity>
-4.88852644

$$$$

 OpenBabel03242523393D

 22 23  0  0  1  0  0  0  0  0999 V2000
   36.9560   29.2960   41.8580 C   0  0  2  0  0  3  0  0  0  0  0  0
   38.3980   29.2920   41.4620 C   0  0  1  0  0  3  0  0  0  0  0  0
   38.8990   30.5810   41.6520 O   0  0  0  0  0  0  0  0  0  0  0  0
   38.4890   31.3430   40.5610 C   0  0  0  0  0  2  0  0  0  0  0  0
   37.0150   31.2980   40.3250 C   0  0  2  0  0  3  0  0  0  0  0  0
   36.2470   30.4970   41.3280 C   0  0  1  0  0  3  0  0  0  0  0  0
   39.5840   26.4150   43.5380 C   0  0  0  0  0  0  0  0  0  0  0  0
   40.9620   26.7400   43.6790 C   0  0  0  0  0  0  0  0  0  0  0  0
   41.3910   27.9260   43.0510 C   0  0  0  0  0  0  0  0  0  0  0  0
   40.4800   28.6780   42.3610 N   0  0  0  0  0  0  0  0  0  0  0  0
   39.1940   28.3140   42.2660 C   0  0  0  0  0  0  0  0  0  0  0  0
   38.7380   27.1900   42.8490 N   0  0  0  0  0  0  0  0  0  0  0  0
   39.2030   25.5070   44.0050 H   0  0  0  0  0  0  0  0  0  0  0  0
   41.6280   26.1210   44.2280 H   0  0  0  0  0  0  0  0  0  0  0  0
   43.1080   28.4090   43.1790 S   0  0  0  0  0  0  0  0  0  0  0  0
   43.2900   29.5160   42.3280 H   0  0  0  0  0  0  0  0  0  0  0  0
   36.8960   29.2860   43.2620 O   0  0  0  0  0  0  0  0  0  0  0  0
   35.9380   29.1390   43.4950 H   0  0  0  0  0  0  0  0  0  0  0  0
   36.7570   30.9010   38.9950 O   0  0  0  0  0  0  0  0  0  0  0  0
   37.5230   31.2370   38.4590 H   0  0  0  0  0  0  0  0  0  0  0  0
   35.0730   30.0400   40.6900 O   0  0  0  0  0  0  0  0  0  0  0  0
   35.1530   30.1060   39.7060 H   0  0  0  0  0  0  0  0  0  0  0  0
  1 17  1  1  0  0  0
  2  3  1  0  0  0  0
  2  1  1  0  0  0  0
  2 11  1  1  0  0  0
  4  3  1  0  0  0  0
  5 19  1  6  0  0  0
  5  4  1  0  0  0  0
  5  6  1  0  0  0  0
  6 21  1  6  0  0  0
  6  1  1  0  0  0  0
  7  8  1  0  0  0  0
  7 13  1  0  0  0  0
  8 14  1  0  0  0  0
  9 15  1  0  0  0  0
  9  8  2  0  0  0  0
 10  9  1  0  0  0  0
 11 10  2  0  0  0  0
 11 12  1  0  0  0  0
 12  7  2  0  0  0  0
 16 15  1  0  0  0  0
 17 18  1  0  0  0  0
 20 19  1  0  0  0  0
 22 21  1  0  0  0  0
M  END
>  <minimizedAffinity>
-4.83255386

$$$$

 OpenBabel03242523393D

 22 23  0  0  1  0  0  0  0  0999 V2000
   37.5880   31.4990   40.4340 C   0  0  2  0  0  3  0  0  0  0  0  0
   39.0060   31.1630   40.7660 C   0  0  1  0  0  3  0  0  0  0  0  0
   39.2530   29.8610   40.3290 O   0  0  0  0  0  0  0  0  0  0  0  0
   38.7110   29.0010   41.2810 C   0  0  0  0  0  2  0  0  0  0  0  0
   37.2730   29.2740   41.5800 C   0  0  2  0  0  3  0  0  0  0  0  0
   36.6670   30.3740   40.7670 C   0  0  1  0  0  3  0  0  0  0  0  0
   41.1030   34.1020   39.7870 C   0  0  0  0  0  0  0  0  0  0  0  0
   41.8300   33.5560   38.6930 C   0  0  0  0  0  0  0  0  0  0  0  0
   41.5510   32.2150   38.3650 C   0  0  0  0  0  0  0  0  0  0  0  0
   40.6200   31.5330   39.1000 N   0  0  0  0  0  0  0  0  0  0  0  0
   39.9690   32.1070   40.1210 C   0  0  0  0  0  0  0  0  0  0  0  0
   40.2020   33.3850   40.4700 N   0  0  0  0  0  0  0  0  0  0  0  0
   41.2820   35.1360   40.0810 H   0  0  0  0  0  0  0  0  0  0  0  0
   42.5430   34.1310   38.1550 H   0  0  0  0  0  0  0  0  0  0  0  0
   42.4220   31.4510   37.0020 S   0  0  0  0  0  0  0  0  0  0  0  0
   42.0820   30.0850   37.0110 H   0  0  0  0  0  0  0  0  0  0  0  0
   37.5240   31.7770   39.0580 O   0  0  0  0  0  0  0  0  0  0  0  0
   36.6100   32.1400   38.8930 H   0  0  0  0  0  0  0  0  0  0  0  0
   37.1010   29.4610   42.9680 O   0  0  0  0  0  0  0  0  0  0  0  0
   37.7930   28.8960   43.4050 H   0  0  0  0  0  0  0  0  0  0  0  0
   35.6030   30.9160   41.5230 O   0  0  0  0  0  0  0  0  0  0  0  0
   35.6740   30.6560   42.4750 H   0  0  0  0  0  0  0  0  0  0  0  0
  1 17  1  6  0  0  0
  1  2  1  0  0  0  0
  1  6  1  0  0  0  0
  2 11  1  6  0  0  0
  3  2  1  0  0  0  0
  3  4  1  0  0  0  0
  4  5  1  0  0  0  0
  5 19  1  1  0  0  0
  6 21  1  1  0  0  0
  6  5  1  0  0  0  0
  7 13  1  0  0  0  0
  7 12  1  0  0  0  0
  8  7  2  0  0  0  0
  9  8  1  0  0  0  0
  9 10  2  0  0  0  0
 10 11  1  0  0  0  0
 11 12  2  0  0  0  0
 14  8  1  0  0  0  0
 15 16  1  0  0  0  0
 15  9  1  0  0  0  0
 18 17  1  0  0  0  0
 19 20  1  0  0  0  0
 21 22  1  0  0  0  0
M  END
>  <minimizedAffinity>
-4.82562733

$$$$
