
 OpenBabel03242515233D

 24 25  0  0  1  0  0  0  0  0999 V2000
   43.8310   35.6800   41.4670 C   0  0  0  0  0  0  0  0  0  0  0  0
   44.5920   35.4480   40.6710 H   0  0  0  0  0  0  0  0  0  0  0  0
   43.7460   36.7640   41.5970 H   0  0  0  0  0  0  0  0  0  0  0  0
   44.3530   35.8710   43.8310 C   0  0  0  0  0  0  0  0  0  0  0  0
   44.3490   35.0460   42.6930 C   0  0  0  0  0  0  0  0  0  0  0  0
   44.8240   33.7510   42.8430 C   0  0  0  0  0  0  0  0  0  0  0  0
   45.2590   33.3610   44.0570 N   0  0  0  0  0  0  0  0  0  0  0  0
   45.2490   34.1720   45.1260 C   0  0  0  0  0  0  0  0  0  0  0  0
   44.7930   35.4570   45.0370 N   0  0  0  0  0  0  0  0  0  0  0  0
   44.0040   36.9120   43.8480 H   0  0  0  0  0  0  0  0  0  0  0  0
   44.8030   33.1530   41.9420 H   0  0  0  0  0  0  0  0  0  0  0  0
   45.6110   33.8030   46.0770 H   0  0  0  0  0  0  0  0  0  0  0  0
   42.5460   34.4780   39.7280 C   0  0  1  0  0  3  0  0  0  0  0  0
   42.4790   35.1300   41.0640 C   0  0  2  0  0  3  0  0  0  0  0  0
   41.4540   35.9890   41.2670 O   0  0  0  0  0  0  0  0  0  0  0  0
   40.2570   35.7140   40.7290 C   0  0  0  0  0  2  0  0  0  0  0  0
   40.1870   35.1000   39.3830 C   0  0  1  0  0  3  0  0  0  0  0  0
   41.2240   34.0150   39.2020 C   0  0  1  0  0  3  0  0  0  0  0  0
   43.0430   35.4550   38.8430 O   0  0  0  0  0  0  0  0  0  0  0  0
   43.3560   35.0530   38.0030 H   0  0  0  0  0  0  0  0  0  0  0  0
   38.9370   34.4940   39.2390 O   0  0  0  0  0  0  0  0  0  0  0  0
   38.2500   35.1130   38.9260 H   0  0  0  0  0  0  0  0  0  0  0  0
   41.2490   33.7240   37.8500 O   0  0  0  0  0  0  0  0  0  0  0  0
   40.7550   34.3540   37.3030 H   0  0  0  0  0  0  0  0  0  0  0  0
  1  3  1  0  0  0  0
  1  5  1  0  0  0  0
  2  1  1  0  0  0  0
  4 10  1  0  0  0  0
  4  9  1  0  0  0  0
  5  6  1  0  0  0  0
  5  4  2  0  0  0  0
  6  7  2  0  0  0  0
  7  8  1  0  0  0  0
  8 12  1  0  0  0  0
  9  8  2  0  0  0  0
 11  6  1  0  0  0  0
 13 19  1  6  0  0  0
 13 14  1  0  0  0  0
 14 15  1  0  0  0  0
 14  1  1  6  0  0  0
 16 15  1  0  0  0  0
 17 21  1  1  0  0  0
 17 16  1  0  0  0  0
 18 23  1  6  0  0  0
 18 17  1  0  0  0  0
 18 13  1  0  0  0  0
 20 19  1  0  0  0  0
 22 21  1  0  0  0  0
 24 23  1  0  0  0  0
M  END
>  <minimizedAffinity>
-5.21836805

>  <minimizedRMSD>
0.876363993

$$$$
