
 OpenBabel03242519333D

 51 54  0  0  1  0  0  0  0  0999 V2000
   37.1820   29.7670   40.4280 C   0  0  0  0  0  0  0  0  0  0  0  0
   36.7670   30.9920   40.7750 N   0  0  0  0  0  0  0  0  0  0  0  0
   36.8530   31.8140   39.6960 C   0  0  0  0  0  0  0  0  0  0  0  0
   37.3320   31.0690   38.6800 N   0  0  0  0  0  0  0  0  0  0  0  0
   37.5370   29.8220   39.1100 N   0  0  0  0  0  0  0  0  0  0  0  0
   36.5880   32.8600   39.6700 H   0  0  0  0  0  0  0  0  0  0  0  0
   37.0850   26.5160   42.1460 C   0  0  0  0  0  0  0  0  0  0  0  0
   37.2230   26.9370   43.4970 C   0  0  0  0  0  0  0  0  0  0  0  0
   37.3410   28.3030   43.7820 C   0  0  0  0  0  0  0  0  0  0  0  0
   37.3170   29.1680   42.7170 N   0  0  0  0  0  0  0  0  0  0  0  0
   37.1810   28.7010   41.4250 C   0  0  0  0  0  0  0  0  0  0  0  0
   37.0680   27.4070   41.1490 N   0  0  0  0  0  0  0  0  0  0  0  0
   37.2480   26.3230   44.3540 H   0  0  0  0  0  0  0  0  0  0  0  0
   37.4490   28.6750   44.7880 H   0  0  0  0  0  0  0  0  0  0  0  0
   36.9770   25.0630   41.9700 C   0  0  0  0  0  0  0  0  0  0  0  0
   38.1560   24.3160   42.3310 C   0  0  0  0  0  0  0  0  0  0  0  0
   38.8470   23.6680   41.2050 C   0  0  0  0  0  0  0  0  0  0  0  0
   37.8890   22.7600   40.4250 C   0  0  0  0  0  0  0  0  0  0  0  0
   36.5460   23.3670   40.1780 C   0  0  0  0  0  0  0  0  0  0  0  0
   36.5430   24.8560   40.4800 C   0  0  0  0  0  0  0  0  0  0  0  0
   36.0440   24.7330   42.5140 H   0  0  0  0  0  0  0  0  0  0  0  0
   37.8810   23.4920   43.0550 H   0  0  0  0  0  0  0  0  0  0  0  0
   38.9060   24.9250   42.8950 H   0  0  0  0  0  0  0  0  0  0  0  0
   39.6070   22.9580   41.6420 H   0  0  0  0  0  0  0  0  0  0  0  0
   39.4160   24.3050   40.5200 H   0  0  0  0  0  0  0  0  0  0  0  0
   37.7160   21.8630   41.0870 H   0  0  0  0  0  0  0  0  0  0  0  0
   38.4060   22.3770   39.5270 H   0  0  0  0  0  0  0  0  0  0  0  0
   36.3530   23.2900   39.0890 H   0  0  0  0  0  0  0  0  0  0  0  0
   35.7060   22.8490   40.6870 H   0  0  0  0  0  0  0  0  0  0  0  0
   37.3080   25.3250   39.8400 H   0  0  0  0  0  0  0  0  0  0  0  0
   35.5150   25.2480   40.3390 H   0  0  0  0  0  0  0  0  0  0  0  0
   37.6190   31.5090   37.3410 C   0  0  0  0  0  0  0  0  0  0  0  0
   36.8710   32.1600   36.9080 H   0  0  0  0  0  0  0  0  0  0  0  0
   37.6390   30.5960   36.6710 H   0  0  0  0  0  0  0  0  0  0  0  0
   38.9330   32.1490   37.3020 C   0  0  0  0  0  3  0  0  0  0  0  0
   40.1560   31.7760   37.6600 C   0  0  0  0  0  3  0  0  0  0  0  0
   41.4530   32.5800   37.4460 C   0  0  0  0  0  0  0  0  0  0  0  0
   42.2770   31.8780   37.5450 H   0  0  0  0  0  0  0  0  0  0  0  0
   41.3930   32.9600   36.4120 H   0  0  0  0  0  0  0  0  0  0  0  0
   42.7210   34.5810   37.9330 C   0  0  1  0  0  3  0  0  0  0  0  0
   41.5170   33.7600   38.3630 C   0  0  2  0  0  3  0  0  0  0  0  0
   41.4860   33.4710   39.7030 O   0  0  0  0  0  0  0  0  0  0  0  0
   42.6310   32.9220   40.2270 C   0  0  0  0  0  2  0  0  0  0  0  0
   43.8780   33.7400   39.9790 C   0  0  1  0  0  3  0  0  0  0  0  0
   44.0090   33.9900   38.4950 C   0  0  2  0  0  3  0  0  0  0  0  0
   42.8480   34.4680   36.5380 O   0  0  0  0  0  0  0  0  0  0  0  0
   42.1750   34.9990   36.0720 H   0  0  0  0  0  0  0  0  0  0  0  0
   43.8350   34.9630   40.6320 O   0  0  0  0  0  0  0  0  0  0  0  0
   43.2440   35.6030   40.1650 H   0  0  0  0  0  0  0  0  0  0  0  0
   45.0170   34.9020   38.2700 O   0  0  0  0  0  0  0  0  0  0  0  0
   45.1330   35.1080   37.3220 H   0  0  0  0  0  0  0  0  0  0  0  0
  1  2  1  0  0  0  0
  1 11  1  0  0  0  0
  3  2  2  0  0  0  0
  4  5  1  0  0  0  0
  4  3  1  0  0  0  0
  5  1  2  0  0  0  0
  6  3  1  0  0  0  0
  7  8  1  0  0  0  0
  8  9  2  0  0  0  0
  8 13  1  0  0  0  0
  9 14  1  0  0  0  0
 10  9  1  0  0  0  0
 11 10  2  0  0  0  0
 12 11  1  0  0  0  0
 12  7  2  0  0  0  0
 15  7  1  0  0  0  0
 15 16  1  0  0  0  0
 15 21  1  0  0  0  0
 16 23  1  0  0  0  0
 16 22  1  0  0  0  0
 17 24  1  0  0  0  0
 17 16  1  0  0  0  0
 18 26  1  0  0  0  0
 18 17  1  0  0  0  0
 19 18  1  0  0  0  0
 19 20  1  0  0  0  0
 19 29  1  0  0  0  0
 20 15  1  0  0  0  0
 25 17  1  0  0  0  0
 27 18  1  0  0  0  0
 28 19  1  0  0  0  0
 30 20  1  0  0  0  0
 31 20  1  0  0  0  0
 32  4  1  0  0  0  0
 33 32  1  0  0  0  0
 34 32  1  0  0  0  0
 35 32  1  0  0  0  0
 35 36  2  0  0  0  0
 37 38  1  0  0  0  0
 37 36  1  0  0  0  0
 39 37  1  0  0  0  0
 40 46  1  6  0  0  0
 40 41  1  0  0  0  0
 40 45  1  0  0  0  0
 41 37  1  6  0  0  0
 41 42  1  0  0  0  0
 42 43  1  0  0  0  0
 44 43  1  0  0  0  0
 44 48  1  1  0  0  0
 45 50  1  1  0  0  0
 45 44  1  0  0  0  0
 47 46  1  0  0  0  0
 49 48  1  0  0  0  0
 51 50  1  0  0  0  0
M  END
>  <minimizedAffinity>
-7.48354244

$$$$

 OpenBabel03242519333D

 51 54  0  0  1  0  0  0  0  0999 V2000
   38.1070   32.4990   39.8600 C   0  0  0  0  0  0  0  0  0  0  0  0
   37.8960   32.0450   38.6180 N   0  0  0  0  0  0  0  0  0  0  0  0
   37.0170   31.0100   38.6640 C   0  0  0  0  0  0  0  0  0  0  0  0
   36.6940   30.8360   39.9620 N   0  0  0  0  0  0  0  0  0  0  0  0
   37.3490   31.7340   40.7010 N   0  0  0  0  0  0  0  0  0  0  0  0
   36.6540   30.4440   37.8200 H   0  0  0  0  0  0  0  0  0  0  0  0
   41.0620   34.5960   40.4950 C   0  0  0  0  0  0  0  0  0  0  0  0
   40.4800   35.8910   40.4010 C   0  0  0  0  0  0  0  0  0  0  0  0
   39.1120   36.0110   40.1290 C   0  0  0  0  0  0  0  0  0  0  0  0
   38.4020   34.8480   39.9670 N   0  0  0  0  0  0  0  0  0  0  0  0
   39.0210   33.6180   40.0690 C   0  0  0  0  0  0  0  0  0  0  0  0
   40.3180   33.4980   40.3270 N   0  0  0  0  0  0  0  0  0  0  0  0
   40.9710   36.8170   40.5160 H   0  0  0  0  0  0  0  0  0  0  0  0
   38.6210   36.9670   40.0470 H   0  0  0  0  0  0  0  0  0  0  0  0
   42.5020   34.5960   40.7750 C   0  0  0  0  0  0  0  0  0  0  0  0
   43.0690   33.2990   41.0470 C   0  0  0  0  0  0  0  0  0  0  0  0
   43.5410   33.1060   42.4270 C   0  0  0  0  0  0  0  0  0  0  0  0
   44.5480   34.1950   42.8180 C   0  0  0  0  0  0  0  0  0  0  0  0
   44.1500   35.5700   42.3900 C   0  0  0  0  0  0  0  0  0  0  0  0
   42.6980   35.6170   41.9450 C   0  0  0  0  0  0  0  0  0  0  0  0
   43.0040   35.1440   39.9240 H   0  0  0  0  0  0  0  0  0  0  0  0
   43.9630   33.1230   40.3760 H   0  0  0  0  0  0  0  0  0  0  0  0
   42.3790   32.4560   40.7940 H   0  0  0  0  0  0  0  0  0  0  0  0
   44.1430   32.1520   42.4460 H   0  0  0  0  0  0  0  0  0  0  0  0
   42.7870   32.9810   43.2110 H   0  0  0  0  0  0  0  0  0  0  0  0
   45.4940   33.9470   42.2550 H   0  0  0  0  0  0  0  0  0  0  0  0
   44.7980   34.0880   43.8890 H   0  0  0  0  0  0  0  0  0  0  0  0
   44.2010   36.2140   43.2910 H   0  0  0  0  0  0  0  0  0  0  0  0
   44.8210   36.0280   41.6330 H   0  0  0  0  0  0  0  0  0  0  0  0
   42.0820   35.2780   42.7930 H   0  0  0  0  0  0  0  0  0  0  0  0
   42.4680   36.6400   41.5830 H   0  0  0  0  0  0  0  0  0  0  0  0
   35.8130   29.8390   40.5110 C   0  0  0  0  0  0  0  0  0  0  0  0
   35.1790   29.3460   39.7860 H   0  0  0  0  0  0  0  0  0  0  0  0
   35.1000   30.3590   41.2210 H   0  0  0  0  0  0  0  0  0  0  0  0
   36.5890   28.8530   41.2600 C   0  0  0  0  0  3  0  0  0  0  0  0
   36.3990   28.1970   42.4000 C   0  0  0  0  0  3  0  0  0  0  0  0
   37.3150   27.1050   42.9850 C   0  0  0  0  0  0  0  0  0  0  0  0
   37.5870   27.4290   43.9870 H   0  0  0  0  0  0  0  0  0  0  0  0
   36.6940   26.1960   43.0280 H   0  0  0  0  0  0  0  0  0  0  0  0
   38.6650   25.3190   42.0690 C   0  0  1  0  0  3  0  0  0  0  0  0
   38.4730   26.8260   42.0790 C   0  0  2  0  0  3  0  0  0  0  0  0
   39.6170   27.5340   42.3430 O   0  0  0  0  0  0  0  0  0  0  0  0
   40.3180   27.1490   43.4600 C   0  0  0  0  0  2  0  0  0  0  0  0
   40.6890   25.6840   43.4840 C   0  0  1  0  0  3  0  0  0  0  0  0
   39.4340   24.8620   43.3040 C   0  0  2  0  0  3  0  0  0  0  0  0
   37.3990   24.7190   42.1880 O   0  0  0  0  0  0  0  0  0  0  0  0
   36.8940   24.7760   41.3550 H   0  0  0  0  0  0  0  0  0  0  0  0
   41.5810   25.3590   42.4730 O   0  0  0  0  0  0  0  0  0  0  0  0
   41.1290   25.2970   41.5960 H   0  0  0  0  0  0  0  0  0  0  0  0
   39.7740   23.5400   43.1140 O   0  0  0  0  0  0  0  0  0  0  0  0
   38.9950   22.9660   42.9790 H   0  0  0  0  0  0  0  0  0  0  0  0
  1 11  1  0  0  0  0
  1  5  2  0  0  0  0
  2  3  2  0  0  0  0
  2  1  1  0  0  0  0
  3  4  1  0  0  0  0
  4 32  1  0  0  0  0
  4  5  1  0  0  0  0
  6  3  1  0  0  0  0
  7 15  1  0  0  0  0
  8  7  1  0  0  0  0
  8 13  1  0  0  0  0
  9  8  2  0  0  0  0
 10 11  2  0  0  0  0
 10  9  1  0  0  0  0
 11 12  1  0  0  0  0
 12  7  2  0  0  0  0
 14  9  1  0  0  0  0
 15 16  1  0  0  0  0
 15 20  1  0  0  0  0
 16 17  1  0  0  0  0
 17 24  1  0  0  0  0
 17 18  1  0  0  0  0
 17 25  1  0  0  0  0
 18 27  1  0  0  0  0
 19 18  1  0  0  0  0
 19 28  1  0  0  0  0
 20 19  1  0  0  0  0
 20 30  1  0  0  0  0
 21 15  1  0  0  0  0
 22 16  1  0  0  0  0
 23 16  1  0  0  0  0
 26 18  1  0  0  0  0
 29 19  1  0  0  0  0
 31 20  1  0  0  0  0
 32 34  1  0  0  0  0
 32 35  1  0  0  0  0
 33 32  1  0  0  0  0
 35 36  2  0  0  0  0
 36 37  1  0  0  0  0
 37 39  1  0  0  0  0
 37 38  1  0  0  0  0
 40 41  1  0  0  0  0
 40 46  1  1  0  0  0
 40 45  1  0  0  0  0
 41 42  1  0  0  0  0
 41 37  1  1  0  0  0
 42 43  1  0  0  0  0
 43 44  1  0  0  0  0
 44 48  1  6  0  0  0
 45 50  1  6  0  0  0
 45 44  1  0  0  0  0
 47 46  1  0  0  0  0
 49 48  1  0  0  0  0
 51 50  1  0  0  0  0
M  END
>  <minimizedAffinity>
-7.09615707

$$$$

 OpenBabel03242519333D

 51 54  0  0  1  0  0  0  0  0999 V2000
   36.7600   26.3950   39.4380 C   0  0  0  0  0  0  0  0  0  0  0  0
   36.0200   25.6410   38.6150 N   0  0  0  0  0  0  0  0  0  0  0  0
   35.4360   26.4390   37.6830 C   0  0  0  0  0  0  0  0  0  0  0  0
   35.8310   27.6990   37.9520 N   0  0  0  0  0  0  0  0  0  0  0  0
   36.6370   27.6890   39.0160 N   0  0  0  0  0  0  0  0  0  0  0  0
   34.7820   26.1160   36.8870 H   0  0  0  0  0  0  0  0  0  0  0  0
   38.8610   25.7180   42.3800 C   0  0  0  0  0  0  0  0  0  0  0  0
   38.7320   24.3040   42.4660 C   0  0  0  0  0  0  0  0  0  0  0  0
   37.9430   23.6280   41.5270 C   0  0  0  0  0  0  0  0  0  0  0  0
   37.3300   24.3890   40.5630 N   0  0  0  0  0  0  0  0  0  0  0  0
   37.4910   25.7590   40.5290 C   0  0  0  0  0  0  0  0  0  0  0  0
   38.2390   26.4050   41.4160 N   0  0  0  0  0  0  0  0  0  0  0  0
   39.1760   23.6680   43.1800 H   0  0  0  0  0  0  0  0  0  0  0  0
   37.8110   22.5590   41.5470 H   0  0  0  0  0  0  0  0  0  0  0  0
   39.7050   26.3150   43.4210 C   0  0  0  0  0  0  0  0  0  0  0  0
   39.8190   27.7510   43.3630 C   0  0  0  0  0  0  0  0  0  0  0  0
   41.1580   28.2520   43.0140 C   0  0  0  0  0  0  0  0  0  0  0  0
   42.2170   27.6950   43.9730 C   0  0  0  0  0  0  0  0  0  0  0  0
   42.0600   26.2390   44.2710 C   0  0  0  0  0  0  0  0  0  0  0  0
   41.0810   25.5780   43.3140 C   0  0  0  0  0  0  0  0  0  0  0  0
   39.3290   25.9280   44.4140 H   0  0  0  0  0  0  0  0  0  0  0  0
   39.5630   28.1970   44.3710 H   0  0  0  0  0  0  0  0  0  0  0  0
   39.0790   28.2230   42.6690 H   0  0  0  0  0  0  0  0  0  0  0  0
   41.1630   29.3630   43.2110 H   0  0  0  0  0  0  0  0  0  0  0  0
   41.4880   28.1470   41.9760 H   0  0  0  0  0  0  0  0  0  0  0  0
   42.0560   28.2390   44.9490 H   0  0  0  0  0  0  0  0  0  0  0  0
   43.2190   27.9990   43.6200 H   0  0  0  0  0  0  0  0  0  0  0  0
   43.0390   25.7610   44.0630 H   0  0  0  0  0  0  0  0  0  0  0  0
   41.8110   26.0100   45.3280 H   0  0  0  0  0  0  0  0  0  0  0  0
   41.4640   25.7290   42.2920 H   0  0  0  0  0  0  0  0  0  0  0  0
   40.9540   24.5170   43.6100 H   0  0  0  0  0  0  0  0  0  0  0  0
   35.4500   28.8970   37.2500 C   0  0  0  0  0  0  0  0  0  0  0  0
   34.3840   29.0730   37.2010 H   0  0  0  0  0  0  0  0  0  0  0  0
   35.7820   28.7890   36.1730 H   0  0  0  0  0  0  0  0  0  0  0  0
   36.1280   30.0510   37.8380 C   0  0  0  0  0  3  0  0  0  0  0  0
   37.1730   30.7900   37.4850 C   0  0  0  0  0  3  0  0  0  0  0  0
   37.6830   32.0500   38.2100 C   0  0  0  0  0  0  0  0  0  0  0  0
   38.1240   32.6920   37.4510 H   0  0  0  0  0  0  0  0  0  0  0  0
   36.7850   32.5230   38.6400 H   0  0  0  0  0  0  0  0  0  0  0  0
   38.2190   32.5900   40.5060 C   0  0  1  0  0  3  0  0  0  0  0  0
   38.5970   31.6930   39.3400 C   0  0  2  0  0  3  0  0  0  0  0  0
   39.9360   31.6960   39.0430 O   0  0  0  0  0  0  0  0  0  0  0  0
   40.5140   32.9320   38.8830 C   0  0  0  0  0  2  0  0  0  0  0  0
   40.3190   33.8620   40.0580 C   0  0  1  0  0  3  0  0  0  0  0  0
   38.8420   33.9730   40.3510 C   0  0  2  0  0  3  0  0  0  0  0  0
   36.8320   32.8080   40.4540 O   0  0  0  0  0  0  0  0  0  0  0  0
   36.3330   32.0230   40.7470 H   0  0  0  0  0  0  0  0  0  0  0  0
   40.9640   33.4020   41.1960 O   0  0  0  0  0  0  0  0  0  0  0  0
   40.4680   32.6580   41.6190 H   0  0  0  0  0  0  0  0  0  0  0  0
   38.6580   34.6460   41.5400 O   0  0  0  0  0  0  0  0  0  0  0  0
   37.7160   34.7320   41.7820 H   0  0  0  0  0  0  0  0  0  0  0  0
  1 11  1  0  0  0  0
  2  1  1  0  0  0  0
  3  4  1  0  0  0  0
  3  2  2  0  0  0  0
  4  5  1  0  0  0  0
  5  1  2  0  0  0  0
  6  3  1  0  0  0  0
  7  8  1  0  0  0  0
  7 15  1  0  0  0  0
  8 13  1  0  0  0  0
  9 14  1  0  0  0  0
  9  8  2  0  0  0  0
 10  9  1  0  0  0  0
 11 10  2  0  0  0  0
 11 12  1  0  0  0  0
 12  7  2  0  0  0  0
 15 21  1  0  0  0  0
 16 15  1  0  0  0  0
 16 22  1  0  0  0  0
 17 24  1  0  0  0  0
 17 16  1  0  0  0  0
 17 18  1  0  0  0  0
 18 19  1  0  0  0  0
 18 26  1  0  0  0  0
 19 29  1  0  0  0  0
 20 15  1  0  0  0  0
 20 31  1  0  0  0  0
 20 19  1  0  0  0  0
 23 16  1  0  0  0  0
 25 17  1  0  0  0  0
 27 18  1  0  0  0  0
 28 19  1  0  0  0  0
 30 20  1  0  0  0  0
 32 35  1  0  0  0  0
 32  4  1  0  0  0  0
 33 32  1  0  0  0  0
 34 32  1  0  0  0  0
 36 35  2  0  0  0  0
 36 37  1  0  0  0  0
 37 39  1  0  0  0  0
 38 37  1  0  0  0  0
 40 46  1  6  0  0  0
 41 37  1  6  0  0  0
 41 40  1  0  0  0  0
 42 41  1  0  0  0  0
 43 42  1  0  0  0  0
 43 44  1  0  0  0  0
 44 45  1  0  0  0  0
 44 48  1  1  0  0  0
 45 40  1  0  0  0  0
 45 50  1  1  0  0  0
 46 47  1  0  0  0  0
 48 49  1  0  0  0  0
 50 51  1  0  0  0  0
M  END
>  <minimizedAffinity>
-7.05945063

$$$$

 OpenBabel03242519333D

 51 54  0  0  1  0  0  0  0  0999 V2000
   36.3960   26.4530   37.6150 C   0  0  0  0  0  0  0  0  0  0  0  0
   35.9050   26.0040   36.4520 N   0  0  0  0  0  0  0  0  0  0  0  0
   35.9200   27.0130   35.5430 C   0  0  0  0  0  0  0  0  0  0  0  0
   36.4280   28.0920   36.1710 N   0  0  0  0  0  0  0  0  0  0  0  0
   36.7220   27.7680   37.4310 N   0  0  0  0  0  0  0  0  0  0  0  0
   35.5860   26.9520   34.5180 H   0  0  0  0  0  0  0  0  0  0  0  0
   37.0270   24.9470   40.9110 C   0  0  0  0  0  0  0  0  0  0  0  0
   36.4990   23.6430   40.7000 C   0  0  0  0  0  0  0  0  0  0  0  0
   35.9510   23.3170   39.4540 C   0  0  0  0  0  0  0  0  0  0  0  0
   35.9570   24.2960   38.4930 N   0  0  0  0  0  0  0  0  0  0  0  0
   36.4830   25.5460   38.7540 C   0  0  0  0  0  0  0  0  0  0  0  0
   37.0040   25.8610   39.9340 N   0  0  0  0  0  0  0  0  0  0  0  0
   36.4660   22.8520   41.3970 H   0  0  0  0  0  0  0  0  0  0  0  0
   35.5380   22.3440   39.2420 H   0  0  0  0  0  0  0  0  0  0  0  0
   37.5650   25.1750   42.2560 C   0  0  0  0  0  0  0  0  0  0  0  0
   37.3580   26.5030   42.7790 C   0  0  0  0  0  0  0  0  0  0  0  0
   38.5830   27.3010   42.9450 C   0  0  0  0  0  0  0  0  0  0  0  0
   39.6030   26.5620   43.8210 C   0  0  0  0  0  0  0  0  0  0  0  0
   39.7400   25.1090   43.4970 C   0  0  0  0  0  0  0  0  0  0  0  0
   39.0740   24.7680   42.1740 C   0  0  0  0  0  0  0  0  0  0  0  0
   37.1570   24.3560   42.9190 H   0  0  0  0  0  0  0  0  0  0  0  0
   36.8750   26.4420   43.7990 H   0  0  0  0  0  0  0  0  0  0  0  0
   36.6310   27.1030   42.1770 H   0  0  0  0  0  0  0  0  0  0  0  0
   38.3100   28.2140   43.5480 H   0  0  0  0  0  0  0  0  0  0  0  0
   39.0650   27.6910   42.0430 H   0  0  0  0  0  0  0  0  0  0  0  0
   39.1930   26.6160   44.8720 H   0  0  0  0  0  0  0  0  0  0  0  0
   40.5480   27.1340   43.8360 H   0  0  0  0  0  0  0  0  0  0  0  0
   40.8200   24.9160   43.3390 H   0  0  0  0  0  0  0  0  0  0  0  0
   39.4090   24.4250   44.3060 H   0  0  0  0  0  0  0  0  0  0  0  0
   39.5470   25.3890   41.3970 H   0  0  0  0  0  0  0  0  0  0  0  0
   39.1520   23.6750   42.0070 H   0  0  0  0  0  0  0  0  0  0  0  0
   36.6150   29.4090   35.6210 C   0  0  0  0  0  0  0  0  0  0  0  0
   35.8310   29.7360   34.9510 H   0  0  0  0  0  0  0  0  0  0  0  0
   37.5550   29.3920   34.9900 H   0  0  0  0  0  0  0  0  0  0  0  0
   36.7930   30.3760   36.7030 C   0  0  0  0  0  3  0  0  0  0  0  0
   37.7960   31.1550   37.0930 C   0  0  0  0  0  3  0  0  0  0  0  0
   37.7510   32.1950   38.2290 C   0  0  0  0  0  0  0  0  0  0  0  0
   37.9450   33.1640   37.7730 H   0  0  0  0  0  0  0  0  0  0  0  0
   36.7220   32.1530   38.6220 H   0  0  0  0  0  0  0  0  0  0  0  0
   38.2920   32.6780   40.5360 C   0  0  1  0  0  3  0  0  0  0  0  0
   38.6820   31.8250   39.3400 C   0  0  2  0  0  3  0  0  0  0  0  0
   40.0170   31.8680   39.0350 O   0  0  0  0  0  0  0  0  0  0  0  0
   40.5670   33.1210   38.9080 C   0  0  0  0  0  2  0  0  0  0  0  0
   40.3600   34.0110   40.1120 C   0  0  1  0  0  3  0  0  0  0  0  0
   38.8820   34.0790   40.4190 C   0  0  2  0  0  3  0  0  0  0  0  0
   36.8990   32.8670   40.5000 O   0  0  0  0  0  0  0  0  0  0  0  0
   36.4200   32.0620   40.7720 H   0  0  0  0  0  0  0  0  0  0  0  0
   41.0230   33.5310   41.2320 O   0  0  0  0  0  0  0  0  0  0  0  0
   40.5460   32.7640   41.6360 H   0  0  0  0  0  0  0  0  0  0  0  0
   38.6920   34.7120   41.6290 O   0  0  0  0  0  0  0  0  0  0  0  0
   37.7500   34.7690   41.8790 H   0  0  0  0  0  0  0  0  0  0  0  0
  1 11  1  0  0  0  0
  2  1  1  0  0  0  0
  3  4  1  0  0  0  0
  3  2  2  0  0  0  0
  4  5  1  0  0  0  0
  5  1  2  0  0  0  0
  6  3  1  0  0  0  0
  7 15  1  0  0  0  0
  8  7  1  0  0  0  0
  8 13  1  0  0  0  0
  9  8  2  0  0  0  0
 10 11  2  0  0  0  0
 10  9  1  0  0  0  0
 11 12  1  0  0  0  0
 12  7  2  0  0  0  0
 14  9  1  0  0  0  0
 15 16  1  0  0  0  0
 15 21  1  0  0  0  0
 16 17  1  0  0  0  0
 16 22  1  0  0  0  0
 17 24  1  0  0  0  0
 17 18  1  0  0  0  0
 18 27  1  0  0  0  0
 18 26  1  0  0  0  0
 19 18  1  0  0  0  0
 19 29  1  0  0  0  0
 20 15  1  0  0  0  0
 20 19  1  0  0  0  0
 23 16  1  0  0  0  0
 25 17  1  0  0  0  0
 28 19  1  0  0  0  0
 30 20  1  0  0  0  0
 31 20  1  0  0  0  0
 32  4  1  0  0  0  0
 32 35  1  0  0  0  0
 33 32  1  0  0  0  0
 34 32  1  0  0  0  0
 35 36  2  0  0  0  0
 36 37  1  0  0  0  0
 37 39  1  0  0  0  0
 38 37  1  0  0  0  0
 40 46  1  6  0  0  0
 41 37  1  6  0  0  0
 41 40  1  0  0  0  0
 42 41  1  0  0  0  0
 43 42  1  0  0  0  0
 43 44  1  0  0  0  0
 44 45  1  0  0  0  0
 44 48  1  1  0  0  0
 45 40  1  0  0  0  0
 45 50  1  1  0  0  0
 46 47  1  0  0  0  0
 48 49  1  0  0  0  0
 50 51  1  0  0  0  0
M  END
>  <minimizedAffinity>
-6.94037342

$$$$

 OpenBabel03242519333D

 51 54  0  0  1  0  0  0  0  0999 V2000
   38.0930   31.6670   40.9070 C   0  0  0  0  0  0  0  0  0  0  0  0
   36.8770   31.7400   40.3510 N   0  0  0  0  0  0  0  0  0  0  0  0
   36.1870   30.6050   40.6370 C   0  0  0  0  0  0  0  0  0  0  0  0
   37.0050   29.8320   41.3790 N   0  0  0  0  0  0  0  0  0  0  0  0
   38.1680   30.4640   41.5520 N   0  0  0  0  0  0  0  0  0  0  0  0
   35.1790   30.3760   40.3240 H   0  0  0  0  0  0  0  0  0  0  0  0
   41.1030   33.7700   40.6950 C   0  0  0  0  0  0  0  0  0  0  0  0
   40.5170   35.0200   40.3510 C   0  0  0  0  0  0  0  0  0  0  0  0
   39.1280   35.1100   40.2050 C   0  0  0  0  0  0  0  0  0  0  0  0
   38.4030   33.9620   40.4070 N   0  0  0  0  0  0  0  0  0  0  0  0
   39.0260   32.7760   40.7390 C   0  0  0  0  0  0  0  0  0  0  0  0
   40.3430   32.6850   40.8790 N   0  0  0  0  0  0  0  0  0  0  0  0
   41.0200   35.9320   40.1850 H   0  0  0  0  0  0  0  0  0  0  0  0
   38.6330   36.0320   39.9460 H   0  0  0  0  0  0  0  0  0  0  0  0
   42.5660   33.7960   40.8120 C   0  0  0  0  0  0  0  0  0  0  0  0
   43.1560   32.5930   41.3420 C   0  0  0  0  0  0  0  0  0  0  0  0
   43.7770   32.7390   42.6680 C   0  0  0  0  0  0  0  0  0  0  0  0
   44.8230   33.8600   42.6610 C   0  0  0  0  0  0  0  0  0  0  0  0
   44.3850   35.0950   41.9420 C   0  0  0  0  0  0  0  0  0  0  0  0
   42.8920   35.0720   41.6570 C   0  0  0  0  0  0  0  0  0  0  0  0
   42.9720   34.0970   39.8010 H   0  0  0  0  0  0  0  0  0  0  0  0
   43.9700   32.2260   40.6460 H   0  0  0  0  0  0  0  0  0  0  0  0
   42.4400   31.7350   41.3860 H   0  0  0  0  0  0  0  0  0  0  0  0
   44.3740   31.8030   42.8640 H   0  0  0  0  0  0  0  0  0  0  0  0
   43.1140   32.8400   43.5330 H   0  0  0  0  0  0  0  0  0  0  0  0
   45.7010   33.4490   42.0820 H   0  0  0  0  0  0  0  0  0  0  0  0
   45.1890   34.0190   43.6910 H   0  0  0  0  0  0  0  0  0  0  0  0
   44.5360   35.9430   42.6390 H   0  0  0  0  0  0  0  0  0  0  0  0
   44.9690   35.3260   41.0270 H   0  0  0  0  0  0  0  0  0  0  0  0
   42.3720   34.9770   42.6230 H   0  0  0  0  0  0  0  0  0  0  0  0
   42.6270   35.9780   41.0740 H   0  0  0  0  0  0  0  0  0  0  0  0
   36.7250   28.5200   41.8980 C   0  0  0  0  0  0  0  0  0  0  0  0
   36.2340   27.8520   41.2020 H   0  0  0  0  0  0  0  0  0  0  0  0
   35.9980   28.6350   42.7590 H   0  0  0  0  0  0  0  0  0  0  0  0
   37.9560   27.9130   42.4010 C   0  0  0  0  0  3  0  0  0  0  0  0
   38.3290   27.4060   43.5700 C   0  0  0  0  0  3  0  0  0  0  0  0
   39.6720   26.7150   43.8760 C   0  0  0  0  0  0  0  0  0  0  0  0
   40.0220   27.1170   44.8250 H   0  0  0  0  0  0  0  0  0  0  0  0
   39.4310   25.6440   43.9770 H   0  0  0  0  0  0  0  0  0  0  0  0
   41.4780   25.6030   42.7140 C   0  0  1  0  0  3  0  0  0  0  0  0
   40.6300   26.8630   42.7370 C   0  0  2  0  0  3  0  0  0  0  0  0
   41.3560   28.0260   42.7220 O   0  0  0  0  0  0  0  0  0  0  0  0
   42.3570   28.1240   43.6580 C   0  0  0  0  0  2  0  0  0  0  0  0
   43.3470   26.9830   43.6260 C   0  0  1  0  0  3  0  0  0  0  0  0
   42.5930   25.6800   43.7510 C   0  0  2  0  0  3  0  0  0  0  0  0
   40.6710   24.5290   43.1290 O   0  0  0  0  0  0  0  0  0  0  0  0
   40.0450   24.2590   42.4310 H   0  0  0  0  0  0  0  0  0  0  0  0
   44.0760   26.9620   42.4460 O   0  0  0  0  0  0  0  0  0  0  0  0
   43.5410   26.6040   41.6950 H   0  0  0  0  0  0  0  0  0  0  0  0
   43.4520   24.6270   43.5150 O   0  0  0  0  0  0  0  0  0  0  0  0
   43.0070   23.7590   43.5710 H   0  0  0  0  0  0  0  0  0  0  0  0
  1  5  2  0  0  0  0
  2  3  2  0  0  0  0
  2  1  1  0  0  0  0
  3  4  1  0  0  0  0
  4  5  1  0  0  0  0
  4 32  1  0  0  0  0
  6  3  1  0  0  0  0
  7 15  1  0  0  0  0
  7 12  1  0  0  0  0
  8  7  2  0  0  0  0
  9  8  1  0  0  0  0
  9 10  2  0  0  0  0
 10 11  1  0  0  0  0
 11 12  2  0  0  0  0
 11  1  1  0  0  0  0
 13  8  1  0  0  0  0
 14  9  1  0  0  0  0
 15 16  1  0  0  0  0
 15 20  1  0  0  0  0
 16 23  1  0  0  0  0
 16 17  1  0  0  0  0
 17 24  1  0  0  0  0
 17 25  1  0  0  0  0
 18 17  1  0  0  0  0
 18 27  1  0  0  0  0
 19 28  1  0  0  0  0
 19 18  1  0  0  0  0
 20 19  1  0  0  0  0
 20 30  1  0  0  0  0
 21 15  1  0  0  0  0
 22 16  1  0  0  0  0
 26 18  1  0  0  0  0
 29 19  1  0  0  0  0
 31 20  1  0  0  0  0
 32 35  1  0  0  0  0
 32 34  1  0  0  0  0
 33 32  1  0  0  0  0
 35 36  2  0  0  0  0
 36 37  1  0  0  0  0
 37 39  1  0  0  0  0
 37 38  1  0  0  0  0
 40 41  1  0  0  0  0
 40 46  1  1  0  0  0
 40 45  1  0  0  0  0
 41 37  1  1  0  0  0
 42 41  1  0  0  0  0
 42 43  1  0  0  0  0
 44 48  1  6  0  0  0
 44 43  1  0  0  0  0
 44 45  1  0  0  0  0
 45 50  1  6  0  0  0
 47 46  1  0  0  0  0
 49 48  1  0  0  0  0
 50 51  1  0  0  0  0
M  END
>  <minimizedAffinity>
-6.92972994

$$$$

 OpenBabel03242519333D

 51 54  0  0  1  0  0  0  0  0999 V2000
   38.3160   32.1610   40.6110 C   0  0  0  0  0  0  0  0  0  0  0  0
   37.0760   32.1130   40.1080 N   0  0  0  0  0  0  0  0  0  0  0  0
   36.4420   31.0120   40.5890 C   0  0  0  0  0  0  0  0  0  0  0  0
   37.3180   30.3840   41.3980 N   0  0  0  0  0  0  0  0  0  0  0  0
   38.4620   31.0700   41.4220 N   0  0  0  0  0  0  0  0  0  0  0  0
   35.4310   30.7080   40.3610 H   0  0  0  0  0  0  0  0  0  0  0  0
   41.0280   34.2180   39.2170 C   0  0  0  0  0  0  0  0  0  0  0  0
   40.6450   35.5020   39.6940 C   0  0  0  0  0  0  0  0  0  0  0  0
   39.4880   35.6290   40.4710 C   0  0  0  0  0  0  0  0  0  0  0  0
   38.7790   34.4820   40.7290 N   0  0  0  0  0  0  0  0  0  0  0  0
   39.1990   33.2620   40.2390 C   0  0  0  0  0  0  0  0  0  0  0  0
   40.2960   33.1350   39.5010 N   0  0  0  0  0  0  0  0  0  0  0  0
   41.1460   36.4160   39.5300 H   0  0  0  0  0  0  0  0  0  0  0  0
   39.1520   36.5780   40.8580 H   0  0  0  0  0  0  0  0  0  0  0  0
   42.2520   34.2100   38.4080 C   0  0  0  0  0  0  0  0  0  0  0  0
   42.2080   33.3600   37.2440 C   0  0  0  0  0  0  0  0  0  0  0  0
   43.1040   32.1950   37.2940 C   0  0  0  0  0  0  0  0  0  0  0  0
   44.5520   32.6290   37.5530 C   0  0  0  0  0  0  0  0  0  0  0  0
   44.6910   33.6770   38.6090 C   0  0  0  0  0  0  0  0  0  0  0  0
   43.4040   33.8430   39.4010 C   0  0  0  0  0  0  0  0  0  0  0  0
   42.5010   35.2870   38.1760 H   0  0  0  0  0  0  0  0  0  0  0  0
   42.5020   33.9520   36.3260 H   0  0  0  0  0  0  0  0  0  0  0  0
   41.1770   32.9960   37.0050 H   0  0  0  0  0  0  0  0  0  0  0  0
   43.1300   31.7460   36.2590 H   0  0  0  0  0  0  0  0  0  0  0  0
   42.8280   31.3670   37.9550 H   0  0  0  0  0  0  0  0  0  0  0  0
   44.9020   33.1010   36.5890 H   0  0  0  0  0  0  0  0  0  0  0  0
   45.1790   31.7300   37.6940 H   0  0  0  0  0  0  0  0  0  0  0  0
   45.4360   33.3010   39.3390 H   0  0  0  0  0  0  0  0  0  0  0  0
   45.0700   34.6530   38.2410 H   0  0  0  0  0  0  0  0  0  0  0  0
   43.1630   32.8660   39.8490 H   0  0  0  0  0  0  0  0  0  0  0  0
   43.5380   34.6680   40.1300 H   0  0  0  0  0  0  0  0  0  0  0  0
   37.1090   29.1550   42.1170 C   0  0  0  0  0  0  0  0  0  0  0  0
   36.6250   28.3730   41.5470 H   0  0  0  0  0  0  0  0  0  0  0  0
   36.4060   29.3710   42.9770 H   0  0  0  0  0  0  0  0  0  0  0  0
   38.3800   28.6750   42.6570 C   0  0  0  0  0  3  0  0  0  0  0  0
   38.8400   27.4850   43.0250 C   0  0  0  0  0  3  0  0  0  0  0  0
   40.2730   27.1680   43.4930 C   0  0  0  0  0  0  0  0  0  0  0  0
   40.5940   28.0060   44.1080 H   0  0  0  0  0  0  0  0  0  0  0  0
   40.1850   26.2540   44.1040 H   0  0  0  0  0  0  0  0  0  0  0  0
   41.8320   25.5280   42.6390 C   0  0  1  0  0  3  0  0  0  0  0  0
   41.1660   26.8590   42.3330 C   0  0  2  0  0  3  0  0  0  0  0  0
   42.0410   27.8530   41.9780 O   0  0  0  0  0  0  0  0  0  0  0  0
   43.1050   28.0510   42.8250 C   0  0  0  0  0  2  0  0  0  0  0  0
   43.9270   26.8100   43.0840 C   0  0  1  0  0  3  0  0  0  0  0  0
   43.0130   25.7160   43.5840 C   0  0  2  0  0  3  0  0  0  0  0  0
   40.9160   24.7390   43.3550 O   0  0  0  0  0  0  0  0  0  0  0  0
   40.2150   24.3860   42.7760 H   0  0  0  0  0  0  0  0  0  0  0  0
   44.5670   26.3630   41.9380 O   0  0  0  0  0  0  0  0  0  0  0  0
   43.9410   25.8990   41.3290 H   0  0  0  0  0  0  0  0  0  0  0  0
   43.7040   24.5240   43.6280 O   0  0  0  0  0  0  0  0  0  0  0  0
   43.1500   23.7790   43.9340 H   0  0  0  0  0  0  0  0  0  0  0  0
  1  5  2  0  0  0  0
  2  3  2  0  0  0  0
  2  1  1  0  0  0  0
  3  4  1  0  0  0  0
  4  5  1  0  0  0  0
  4 32  1  0  0  0  0
  6  3  1  0  0  0  0
  7 12  2  0  0  0  0
  7  8  1  0  0  0  0
  8  9  2  0  0  0  0
  9 10  1  0  0  0  0
  9 14  1  0  0  0  0
 11  1  1  0  0  0  0
 11 10  2  0  0  0  0
 12 11  1  0  0  0  0
 13  8  1  0  0  0  0
 15  7  1  0  0  0  0
 15 20  1  0  0  0  0
 16 17  1  0  0  0  0
 16 15  1  0  0  0  0
 17 18  1  0  0  0  0
 17 25  1  0  0  0  0
 18 27  1  0  0  0  0
 18 19  1  0  0  0  0
 19 28  1  0  0  0  0
 19 20  1  0  0  0  0
 20 30  1  0  0  0  0
 20 31  1  0  0  0  0
 21 15  1  0  0  0  0
 22 16  1  0  0  0  0
 23 16  1  0  0  0  0
 24 17  1  0  0  0  0
 26 18  1  0  0  0  0
 29 19  1  0  0  0  0
 32 35  1  0  0  0  0
 32 34  1  0  0  0  0
 33 32  1  0  0  0  0
 35 36  2  0  0  0  0
 36 37  1  0  0  0  0
 37 39  1  0  0  0  0
 37 38  1  0  0  0  0
 40 46  1  1  0  0  0
 40 45  1  0  0  0  0
 41 40  1  0  0  0  0
 41 37  1  1  0  0  0
 42 41  1  0  0  0  0
 42 43  1  0  0  0  0
 43 44  1  0  0  0  0
 44 48  1  6  0  0  0
 44 45  1  0  0  0  0
 45 50  1  6  0  0  0
 47 46  1  0  0  0  0
 49 48  1  0  0  0  0
 50 51  1  0  0  0  0
M  END
>  <minimizedAffinity>
-6.7515831

$$$$

 OpenBabel03242519333D

 51 54  0  0  1  0  0  0  0  0999 V2000
   37.3460   30.6000   40.5700 C   0  0  0  0  0  0  0  0  0  0  0  0
   36.9410   30.6530   39.2950 N   0  0  0  0  0  0  0  0  0  0  0  0
   37.0810   31.9240   38.8350 C   0  0  0  0  0  0  0  0  0  0  0  0
   37.5790   32.6510   39.8540 N   0  0  0  0  0  0  0  0  0  0  0  0
   37.7460   31.8600   40.9160 N   0  0  0  0  0  0  0  0  0  0  0  0
   36.8360   32.2730   37.8430 H   0  0  0  0  0  0  0  0  0  0  0  0
   37.0890   27.0440   41.4740 C   0  0  0  0  0  0  0  0  0  0  0  0
   37.2440   27.1280   42.8850 C   0  0  0  0  0  0  0  0  0  0  0  0
   37.4260   28.3800   43.4830 C   0  0  0  0  0  0  0  0  0  0  0  0
   37.4460   29.4720   42.6520 N   0  0  0  0  0  0  0  0  0  0  0  0
   37.2920   29.3310   41.2870 C   0  0  0  0  0  0  0  0  0  0  0  0
   37.1180   28.1450   40.7150 N   0  0  0  0  0  0  0  0  0  0  0  0
   37.2370   26.3280   43.5730 H   0  0  0  0  0  0  0  0  0  0  0  0
   37.5490   28.5000   44.5470 H   0  0  0  0  0  0  0  0  0  0  0  0
   36.9130   25.6800   40.9610 C   0  0  0  0  0  0  0  0  0  0  0  0
   37.0350   24.6370   41.9480 C   0  0  0  0  0  0  0  0  0  0  0  0
   38.2090   23.7650   41.7870 C   0  0  0  0  0  0  0  0  0  0  0  0
   38.2400   23.1450   40.3850 C   0  0  0  0  0  0  0  0  0  0  0  0
   37.9150   24.1070   39.2890 C   0  0  0  0  0  0  0  0  0  0  0  0
   37.9370   25.5440   39.7840 C   0  0  0  0  0  0  0  0  0  0  0  0
   35.9340   25.6630   40.3980 H   0  0  0  0  0  0  0  0  0  0  0  0
   36.1270   23.9640   41.9080 H   0  0  0  0  0  0  0  0  0  0  0  0
   37.0300   25.0240   42.9980 H   0  0  0  0  0  0  0  0  0  0  0  0
   38.0690   22.8830   42.4770 H   0  0  0  0  0  0  0  0  0  0  0  0
   39.1890   24.1760   42.0470 H   0  0  0  0  0  0  0  0  0  0  0  0
   37.4210   22.3680   40.3800 H   0  0  0  0  0  0  0  0  0  0  0  0
   39.1850   22.5870   40.2580 H   0  0  0  0  0  0  0  0  0  0  0  0
   38.7380   24.0410   38.5490 H   0  0  0  0  0  0  0  0  0  0  0  0
   36.9760   23.8810   38.7420 H   0  0  0  0  0  0  0  0  0  0  0  0
   38.9420   25.7380   40.1900 H   0  0  0  0  0  0  0  0  0  0  0  0
   37.6340   26.2130   38.9540 H   0  0  0  0  0  0  0  0  0  0  0  0
   37.8720   34.0600   39.8540 C   0  0  0  0  0  0  0  0  0  0  0  0
   37.1910   34.6650   40.4370 H   0  0  0  0  0  0  0  0  0  0  0  0
   37.7660   34.4360   38.7910 H   0  0  0  0  0  0  0  0  0  0  0  0
   39.2490   34.2780   40.2950 C   0  0  0  0  0  3  0  0  0  0  0  0
   40.1920   35.1610   39.9840 C   0  0  0  0  0  3  0  0  0  0  0  0
   41.5790   35.2810   40.6450 C   0  0  0  0  0  0  0  0  0  0  0  0
   42.1670   35.9490   40.0190 H   0  0  0  0  0  0  0  0  0  0  0  0
   41.3930   35.7410   41.6300 H   0  0  0  0  0  0  0  0  0  0  0  0
   43.3150   34.1320   41.8750 C   0  0  1  0  0  3  0  0  0  0  0  0
   42.1880   33.9340   40.8760 C   0  0  2  0  0  3  0  0  0  0  0  0
   42.5560   33.2490   39.7470 O   0  0  0  0  0  0  0  0  0  0  0  0
   43.6740   33.7130   39.0980 C   0  0  0  0  0  2  0  0  0  0  0  0
   44.9010   33.8120   39.9740 C   0  0  1  0  0  3  0  0  0  0  0  0
   44.5690   34.6550   41.1830 C   0  0  2  0  0  3  0  0  0  0  0  0
   42.9360   35.1550   42.7610 O   0  0  0  0  0  0  0  0  0  0  0  0
   42.2670   34.8470   43.4010 H   0  0  0  0  0  0  0  0  0  0  0  0
   45.3310   32.5660   40.4070 O   0  0  0  0  0  0  0  0  0  0  0  0
   44.7590   32.2170   41.1350 H   0  0  0  0  0  0  0  0  0  0  0  0
   45.6040   34.5850   42.0920 O   0  0  0  0  0  0  0  0  0  0  0  0
   45.4300   35.1050   42.9000 H   0  0  0  0  0  0  0  0  0  0  0  0
  1  5  2  0  0  0  0
  1 11  1  0  0  0  0
  2  1  1  0  0  0  0
  3  2  2  0  0  0  0
  3  4  1  0  0  0  0
  4  5  1  0  0  0  0
  6  3  1  0  0  0  0
  7  8  1  0  0  0  0
  8  9  2  0  0  0  0
  8 13  1  0  0  0  0
  9 14  1  0  0  0  0
 10  9  1  0  0  0  0
 11 10  2  0  0  0  0
 12 11  1  0  0  0  0
 12  7  2  0  0  0  0
 15  7  1  0  0  0  0
 15 16  1  0  0  0  0
 16 23  1  0  0  0  0
 17 16  1  0  0  0  0
 17 25  1  0  0  0  0
 17 24  1  0  0  0  0
 18 17  1  0  0  0  0
 19 20  1  0  0  0  0
 19 18  1  0  0  0  0
 20 30  1  0  0  0  0
 20 15  1  0  0  0  0
 21 15  1  0  0  0  0
 22 16  1  0  0  0  0
 26 18  1  0  0  0  0
 27 18  1  0  0  0  0
 28 19  1  0  0  0  0
 29 19  1  0  0  0  0
 31 20  1  0  0  0  0
 32  4  1  0  0  0  0
 32 35  1  0  0  0  0
 32 33  1  0  0  0  0
 34 32  1  0  0  0  0
 36 35  2  0  0  0  0
 36 37  1  0  0  0  0
 37 39  1  0  0  0  0
 38 37  1  0  0  0  0
 40 46  1  1  0  0  0
 41 37  1  6  0  0  0
 41 40  1  0  0  0  0
 42 41  1  0  0  0  0
 43 42  1  0  0  0  0
 43 44  1  0  0  0  0
 44 48  1  1  0  0  0
 44 45  1  0  0  0  0
 45 40  1  0  0  0  0
 45 50  1  1  0  0  0
 46 47  1  0  0  0  0
 48 49  1  0  0  0  0
 50 51  1  0  0  0  0
M  END
>  <minimizedAffinity>
-6.73638773

$$$$

 OpenBabel03242519333D

 51 54  0  0  1  0  0  0  0  0999 V2000
   38.3010   28.8200   40.9950 C   0  0  0  0  0  0  0  0  0  0  0  0
   37.8150   29.8180   41.7430 N   0  0  0  0  0  0  0  0  0  0  0  0
   37.4910   30.8620   40.9370 C   0  0  0  0  0  0  0  0  0  0  0  0
   37.7900   30.4850   39.6780 N   0  0  0  0  0  0  0  0  0  0  0  0
   38.2840   29.2460   39.6970 N   0  0  0  0  0  0  0  0  0  0  0  0
   37.0750   31.8070   41.2540 H   0  0  0  0  0  0  0  0  0  0  0  0
   40.1280   26.2430   42.8810 C   0  0  0  0  0  0  0  0  0  0  0  0
   39.2340   25.1460   42.7440 C   0  0  0  0  0  0  0  0  0  0  0  0
   38.0480   25.3110   42.0190 C   0  0  0  0  0  0  0  0  0  0  0  0
   37.8170   26.5500   41.4750 N   0  0  0  0  0  0  0  0  0  0  0  0
   38.7210   27.5800   41.6400 C   0  0  0  0  0  0  0  0  0  0  0  0
   39.8480   27.4280   42.3260 N   0  0  0  0  0  0  0  0  0  0  0  0
   39.3560   24.1740   43.1380 H   0  0  0  0  0  0  0  0  0  0  0  0
   37.3360   24.5130   41.8860 H   0  0  0  0  0  0  0  0  0  0  0  0
   41.3320   25.9530   43.6670 C   0  0  0  0  0  0  0  0  0  0  0  0
   41.7080   26.9780   44.6080 C   0  0  0  0  0  0  0  0  0  0  0  0
   42.9660   27.6750   44.2940 C   0  0  0  0  0  0  0  0  0  0  0  0
   44.1200   26.6770   44.1410 C   0  0  0  0  0  0  0  0  0  0  0  0
   43.7670   25.4590   43.3500 C   0  0  0  0  0  0  0  0  0  0  0  0
   42.4480   25.6340   42.6160 C   0  0  0  0  0  0  0  0  0  0  0  0
   41.1820   24.9360   44.1370 H   0  0  0  0  0  0  0  0  0  0  0  0
   41.8400   26.5260   45.6360 H   0  0  0  0  0  0  0  0  0  0  0  0
   40.9120   27.7490   44.7580 H   0  0  0  0  0  0  0  0  0  0  0  0
   43.2460   28.2850   45.2000 H   0  0  0  0  0  0  0  0  0  0  0  0
   42.9620   28.3870   43.4630 H   0  0  0  0  0  0  0  0  0  0  0  0
   44.3520   26.3210   45.1870 H   0  0  0  0  0  0  0  0  0  0  0  0
   45.0210   27.2160   43.7990 H   0  0  0  0  0  0  0  0  0  0  0  0
   44.5330   25.3600   42.5540 H   0  0  0  0  0  0  0  0  0  0  0  0
   43.7860   24.5120   43.9300 H   0  0  0  0  0  0  0  0  0  0  0  0
   42.5490   26.5120   41.9590 H   0  0  0  0  0  0  0  0  0  0  0  0
   42.2020   24.6880   42.0940 H   0  0  0  0  0  0  0  0  0  0  0  0
   37.6440   31.2690   38.4790 C   0  0  0  0  0  0  0  0  0  0  0  0
   36.8120   31.9600   38.4880 H   0  0  0  0  0  0  0  0  0  0  0  0
   37.4300   30.5590   37.6240 H   0  0  0  0  0  0  0  0  0  0  0  0
   38.8910   31.9790   38.1990 C   0  0  0  0  0  3  0  0  0  0  0  0
   40.1450   31.5990   37.9840 C   0  0  0  0  0  3  0  0  0  0  0  0
   41.3230   32.5190   37.6060 C   0  0  0  0  0  0  0  0  0  0  0  0
   42.2120   31.8930   37.5790 H   0  0  0  0  0  0  0  0  0  0  0  0
   41.0860   32.8950   36.5970 H   0  0  0  0  0  0  0  0  0  0  0  0
   42.5660   34.5480   38.0340 C   0  0  1  0  0  3  0  0  0  0  0  0
   41.4080   33.6960   38.5250 C   0  0  2  0  0  3  0  0  0  0  0  0
   41.4580   33.4010   39.8630 O   0  0  0  0  0  0  0  0  0  0  0  0
   42.6430   32.8790   40.3200 C   0  0  0  0  0  2  0  0  0  0  0  0
   43.8540   33.7280   40.0090 C   0  0  1  0  0  3  0  0  0  0  0  0
   43.8970   33.9870   38.5210 C   0  0  2  0  0  3  0  0  0  0  0  0
   42.6190   34.4440   36.6340 O   0  0  0  0  0  0  0  0  0  0  0  0
   41.9090   34.9600   36.2070 H   0  0  0  0  0  0  0  0  0  0  0  0
   43.8170   34.9470   40.6700 O   0  0  0  0  0  0  0  0  0  0  0  0
   43.1850   35.5740   40.2400 H   0  0  0  0  0  0  0  0  0  0  0  0
   44.8690   34.9250   38.2460 O   0  0  0  0  0  0  0  0  0  0  0  0
   44.9280   35.1370   37.2940 H   0  0  0  0  0  0  0  0  0  0  0  0
  1 11  1  0  0  0  0
  1  2  1  0  0  0  0
  3  6  1  0  0  0  0
  3  2  2  0  0  0  0
  4  5  1  0  0  0  0
  4  3  1  0  0  0  0
  5  1  2  0  0  0  0
  7 15  1  0  0  0  0
  8  7  1  0  0  0  0
  8 13  1  0  0  0  0
  9  8  2  0  0  0  0
 10 11  2  0  0  0  0
 10  9  1  0  0  0  0
 11 12  1  0  0  0  0
 12  7  2  0  0  0  0
 14  9  1  0  0  0  0
 15 21  1  0  0  0  0
 15 16  1  0  0  0  0
 16 23  1  0  0  0  0
 16 22  1  0  0  0  0
 17 16  1  0  0  0  0
 17 24  1  0  0  0  0
 18 17  1  0  0  0  0
 18 26  1  0  0  0  0
 19 29  1  0  0  0  0
 19 18  1  0  0  0  0
 20 19  1  0  0  0  0
 20 15  1  0  0  0  0
 25 17  1  0  0  0  0
 27 18  1  0  0  0  0
 28 19  1  0  0  0  0
 30 20  1  0  0  0  0
 31 20  1  0  0  0  0
 32 33  1  0  0  0  0
 32  4  1  0  0  0  0
 34 32  1  0  0  0  0
 35 32  1  0  0  0  0
 36 35  2  0  0  0  0
 37 36  1  0  0  0  0
 38 37  1  0  0  0  0
 39 37  1  0  0  0  0
 40 46  1  6  0  0  0
 40 45  1  0  0  0  0
 40 41  1  0  0  0  0
 41 37  1  6  0  0  0
 41 42  1  0  0  0  0
 42 43  1  0  0  0  0
 44 43  1  0  0  0  0
 44 48  1  1  0  0  0
 45 50  1  1  0  0  0
 45 44  1  0  0  0  0
 47 46  1  0  0  0  0
 49 48  1  0  0  0  0
 51 50  1  0  0  0  0
M  END
>  <minimizedAffinity>
-6.68636179

$$$$

 OpenBabel03242519333D

 51 54  0  0  1  0  0  0  0  0999 V2000
   38.4510   32.4520   39.7890 C   0  0  0  0  0  0  0  0  0  0  0  0
   37.2870   32.3590   40.4450 N   0  0  0  0  0  0  0  0  0  0  0  0
   36.6400   31.2320   40.0460 C   0  0  0  0  0  0  0  0  0  0  0  0
   37.4310   30.6360   39.1310 N   0  0  0  0  0  0  0  0  0  0  0  0
   38.5360   31.3660   38.9640 N   0  0  0  0  0  0  0  0  0  0  0  0
   35.6790   30.8900   40.3990 H   0  0  0  0  0  0  0  0  0  0  0  0
   41.3330   34.6010   40.5700 C   0  0  0  0  0  0  0  0  0  0  0  0
   40.7270   35.8840   40.4740 C   0  0  0  0  0  0  0  0  0  0  0  0
   39.3680   35.9800   40.1530 C   0  0  0  0  0  0  0  0  0  0  0  0
   38.6910   34.8050   39.9450 N   0  0  0  0  0  0  0  0  0  0  0  0
   39.3310   33.5860   40.0510 C   0  0  0  0  0  0  0  0  0  0  0  0
   40.6200   33.4900   40.3560 N   0  0  0  0  0  0  0  0  0  0  0  0
   41.1930   36.8190   40.6230 H   0  0  0  0  0  0  0  0  0  0  0  0
   38.8600   36.9270   40.0670 H   0  0  0  0  0  0  0  0  0  0  0  0
   42.7610   34.6260   40.9040 C   0  0  0  0  0  0  0  0  0  0  0  0
   43.3290   33.3470   41.2490 C   0  0  0  0  0  0  0  0  0  0  0  0
   43.7490   33.2130   42.6530 C   0  0  0  0  0  0  0  0  0  0  0  0
   44.7310   34.3270   43.0380 C   0  0  0  0  0  0  0  0  0  0  0  0
   44.3380   35.6800   42.5410 C   0  0  0  0  0  0  0  0  0  0  0  0
   42.9030   35.6950   42.0400 C   0  0  0  0  0  0  0  0  0  0  0  0
   43.2910   35.1460   40.0520 H   0  0  0  0  0  0  0  0  0  0  0  0
   44.2490   33.1550   40.6190 H   0  0  0  0  0  0  0  0  0  0  0  0
   42.6570   32.4870   41.0030 H   0  0  0  0  0  0  0  0  0  0  0  0
   44.3580   32.2670   42.7320 H   0  0  0  0  0  0  0  0  0  0  0  0
   42.9670   33.1120   43.4120 H   0  0  0  0  0  0  0  0  0  0  0  0
   45.7000   34.0670   42.5210 H   0  0  0  0  0  0  0  0  0  0  0  0
   44.9400   34.2640   44.1210 H   0  0  0  0  0  0  0  0  0  0  0  0
   44.3480   36.3600   43.4170 H   0  0  0  0  0  0  0  0  0  0  0  0
   45.0330   36.1150   41.7920 H   0  0  0  0  0  0  0  0  0  0  0  0
   42.2580   35.3830   42.8760 H   0  0  0  0  0  0  0  0  0  0  0  0
   42.6780   36.7000   41.6290 H   0  0  0  0  0  0  0  0  0  0  0  0
   37.1570   29.4250   38.4040 C   0  0  0  0  0  0  0  0  0  0  0  0
   37.9640   29.0850   37.7680 H   0  0  0  0  0  0  0  0  0  0  0  0
   36.2930   29.6290   37.7020 H   0  0  0  0  0  0  0  0  0  0  0  0
   36.7660   28.3670   39.3360 C   0  0  0  0  0  3  0  0  0  0  0  0
   37.3890   27.3170   39.8580 C   0  0  0  0  0  3  0  0  0  0  0  0
   36.8170   26.3540   40.9170 C   0  0  0  0  0  0  0  0  0  0  0  0
   35.8430   26.7460   41.2020 H   0  0  0  0  0  0  0  0  0  0  0  0
   36.7070   25.3860   40.4010 H   0  0  0  0  0  0  0  0  0  0  0  0
   37.4950   27.2730   43.0490 C   0  0  1  0  0  3  0  0  0  0  0  0
   37.7750   26.1630   42.0500 C   0  0  2  0  0  3  0  0  0  0  0  0
   39.0950   26.0480   41.6970 O   0  0  0  0  0  0  0  0  0  0  0  0
   39.7120   27.2050   41.2880 C   0  0  0  0  0  2  0  0  0  0  0  0
   39.6170   28.3410   42.2810 C   0  0  1  0  0  3  0  0  0  0  0  0
   38.1630   28.5740   42.6160 C   0  0  2  0  0  3  0  0  0  0  0  0
   36.1170   27.5460   43.0200 O   0  0  0  0  0  0  0  0  0  0  0  0
   35.6030   26.8510   43.4740 H   0  0  0  0  0  0  0  0  0  0  0  0
   40.3030   28.0630   43.4540 O   0  0  0  0  0  0  0  0  0  0  0  0
   39.8010   27.4330   44.0280 H   0  0  0  0  0  0  0  0  0  0  0  0
   38.0690   29.4590   43.6690 O   0  0  0  0  0  0  0  0  0  0  0  0
   37.1450   29.6330   43.9330 H   0  0  0  0  0  0  0  0  0  0  0  0
  1 11  1  0  0  0  0
  1  2  1  0  0  0  0
  3  6  1  0  0  0  0
  3  2  2  0  0  0  0
  4  3  1  0  0  0  0
  5  4  1  0  0  0  0
  5  1  2  0  0  0  0
  7 15  1  0  0  0  0
  8  7  1  0  0  0  0
  8 13  1  0  0  0  0
  9  8  2  0  0  0  0
 10 11  2  0  0  0  0
 10  9  1  0  0  0  0
 11 12  1  0  0  0  0
 12  7  2  0  0  0  0
 14  9  1  0  0  0  0
 15 16  1  0  0  0  0
 15 20  1  0  0  0  0
 16 17  1  0  0  0  0
 17 24  1  0  0  0  0
 17 18  1  0  0  0  0
 17 25  1  0  0  0  0
 18 27  1  0  0  0  0
 19 18  1  0  0  0  0
 19 28  1  0  0  0  0
 20 19  1  0  0  0  0
 20 30  1  0  0  0  0
 21 15  1  0  0  0  0
 22 16  1  0  0  0  0
 23 16  1  0  0  0  0
 26 18  1  0  0  0  0
 29 19  1  0  0  0  0
 31 20  1  0  0  0  0
 32  4  1  0  0  0  0
 32 35  1  0  0  0  0
 33 32  1  0  0  0  0
 34 32  1  0  0  0  0
 35 36  2  0  0  0  0
 36 37  1  0  0  0  0
 37 38  1  0  0  0  0
 39 37  1  0  0  0  0
 40 46  1  6  0  0  0
 41 37  1  6  0  0  0
 41 40  1  0  0  0  0
 42 41  1  0  0  0  0
 43 42  1  0  0  0  0
 43 44  1  0  0  0  0
 44 45  1  0  0  0  0
 44 48  1  1  0  0  0
 45 40  1  0  0  0  0
 45 50  1  1  0  0  0
 46 47  1  0  0  0  0
 48 49  1  0  0  0  0
 50 51  1  0  0  0  0
M  END
>  <minimizedAffinity>
-6.65072393

$$$$
