
 OpenBabel03242523273D

 48 51  0  0  1  0  0  0  0  0999 V2000
   38.8870   31.1520   40.4870 C   0  0  0  0  0  0  0  0  0  0  0  0
   39.5410   30.8810   39.3740 C   0  0  0  0  0  0  0  0  0  0  0  0
   38.8030   31.0370   38.2110 C   0  0  0  0  0  0  0  0  0  0  0  0
   37.4590   31.4590   38.3440 N   0  0  0  0  0  0  0  0  0  0  0  0
   36.8770   31.7080   39.4880 C   0  0  0  0  0  0  0  0  0  0  0  0
   37.6000   31.5590   40.6610 N   0  0  0  0  0  0  0  0  0  0  0  0
   39.1240   30.8780   37.2040 H   0  0  0  0  0  0  0  0  0  0  0  0
   35.8430   32.0200   39.4240 H   0  0  0  0  0  0  0  0  0  0  0  0
   40.8710   30.3360   39.2430 C   0  0  1  0  0  0  0  0  0  0  0  0
   41.6820   30.4220   38.1630 C   0  0  0  0  0  0  0  0  0  0  0  0
   42.0340   31.4370   39.2100 C   0  0  1  0  0  0  0  0  0  0  0  0
   41.0900   29.6540   40.1250 H   0  0  0  0  0  0  0  0  0  0  0  0
   42.4930   29.6810   37.9570 H   0  0  0  0  0  0  0  0  0  0  0  0
   41.2990   30.8090   37.1740 H   0  0  0  0  0  0  0  0  0  0  0  0
   42.9000   31.2090   39.8670 H   0  0  0  0  0  0  0  0  0  0  0  0
   41.6000   32.7680   39.0090 N   0  0  0  0  0  0  0  0  0  0  0  0
   40.7490   33.0640   39.4960 H   0  0  0  0  0  0  0  0  0  0  0  0
   43.2940   34.1400   37.8310 C   0  0  1  0  0  3  0  0  0  0  0  0
   42.6870   33.7060   39.1200 C   0  0  2  0  0  3  0  0  0  0  0  0
   43.6400   33.2110   39.9870 O   0  0  0  0  0  0  0  0  0  0  0  0
   44.8960   33.7290   39.8680 C   0  0  0  0  0  2  0  0  0  0  0  0
   45.4970   33.1890   38.5860 C   0  0  2  0  0  3  0  0  0  0  0  0
   44.5610   33.4640   37.4340 C   0  0  1  0  0  3  0  0  0  0  0  0
   42.4150   34.0380   36.7350 O   0  0  0  0  0  0  0  0  0  0  0  0
   41.7450   34.7800   36.7410 H   0  0  0  0  0  0  0  0  0  0  0  0
   45.6750   31.8110   38.6800 O   0  0  0  0  0  0  0  0  0  0  0  0
   45.2540   31.4740   39.5120 H   0  0  0  0  0  0  0  0  0  0  0  0
   44.3370   32.3400   36.6480 O   0  0  0  0  0  0  0  0  0  0  0  0
   44.0750   32.6300   35.7380 H   0  0  0  0  0  0  0  0  0  0  0  0
   39.4670   31.1350   41.8590 C   0  0  0  0  0  0  0  0  0  0  0  0
   40.0750   31.5870   42.7820 O   0  0  0  0  0  0  0  0  0  0  0  0
   41.7180   29.0820   42.4190 Cl  0  0  0  0  0  0  0  0  0  0  0  0
   40.0320   28.7690   42.7950 C   0  0  0  0  0  0  0  0  0  0  0  0
   39.1160   29.8070   42.4940 C   0  0  0  0  0  0  0  0  0  0  0  0
   37.8420   29.4370   42.8420 C   0  0  0  0  0  0  0  0  0  0  0  0
   37.3760   28.3260   43.3810 C   0  0  0  0  0  0  0  0  0  0  0  0
   38.3210   27.3530   43.6500 C   0  0  0  0  0  0  0  0  0  0  0  0
   39.6270   27.5620   43.3660 C   0  0  0  0  0  0  0  0  0  0  0  0
   37.0420   30.2010   42.6560 H   0  0  0  0  0  0  0  0  0  0  0  0
   36.3320   28.1380   43.6180 H   0  0  0  0  0  0  0  0  0  0  0  0
   37.9620   26.4110   44.1010 H   0  0  0  0  0  0  0  0  0  0  0  0
   40.4690   26.5250   43.6780 O   0  0  0  0  0  0  0  0  0  0  0  0
   39.8920   24.0430   43.0640 O   0  0  0  0  0  0  0  0  0  0  0  0
   40.8710   25.1500   42.7760 P   0  0  0  0  0  0  0  0  0  0  0  0
   40.8710   25.5550   41.1270 O   0  0  0  0  0  0  0  0  0  0  0  0
   39.9270   25.6190   40.8020 H   0  0  0  0  0  0  0  0  0  0  0  0
   42.4490   24.6190   43.1170 O   0  0  0  0  0  0  0  0  0  0  0  0
   43.1110   24.9880   42.4790 H   0  0  0  0  0  0  0  0  0  0  0  0
  1  6  1  0  0  0  0
  1 30  1  0  0  0  0
  2  1  2  0  0  0  0
  3  4  2  0  0  0  0
  3  2  1  0  0  0  0
  4  5  1  0  0  0  0
  5  6  2  0  0  0  0
  7  3  1  0  0  0  0
  8  5  1  0  0  0  0
  9  2  1  0  0  0  0
  9 12  1  1  0  0  0
 10 11  1  0  0  0  0
 10  9  1  0  0  0  0
 11  9  1  0  0  0  0
 11 15  1  1  0  0  0
 13 10  1  0  0  0  0
 14 10  1  0  0  0  0
 16 11  1  0  0  0  0
 16 17  1  0  0  0  0
 18 24  1  6  0  0  0
 18 19  1  0  0  0  0
 19 16  1  6  0  0  0
 19 20  1  0  0  0  0
 21 20  1  0  0  0  0
 22 26  1  1  0  0  0
 22 21  1  0  0  0  0
 23 28  1  1  0  0  0
 23 18  1  0  0  0  0
 23 22  1  0  0  0  0
 24 25  1  0  0  0  0
 26 27  1  0  0  0  0
 29 28  1  0  0  0  0
 30 34  1  0  0  0  0
 30 31  2  0  0  0  0
 32 33  1  0  0  0  0
 33 38  1  0  0  0  0
 34 33  2  0  0  0  0
 34 35  1  0  0  0  0
 35 36  2  0  0  0  0
 36 40  1  0  0  0  0
 36 37  1  0  0  0  0
 37 41  1  0  0  0  0
 38 37  2  0  0  0  0
 38 42  1  0  0  0  0
 39 35  1  0  0  0  0
 44 43  2  0  0  0  0
 44 47  1  0  0  0  0
 44 42  1  0  0  0  0
 45 44  1  0  0  0  0
 46 45  1  0  0  0  0
 48 47  1  0  0  0  0
M  END
>  <minimizedAffinity>
-6.95833731

$$$$

 OpenBabel03242523273D

 48 51  0  0  1  0  0  0  0  0999 V2000
   36.8060   28.7950   40.4270 C   0  0  0  0  0  0  0  0  0  0  0  0
   37.6260   28.7230   39.3960 C   0  0  0  0  0  0  0  0  0  0  0  0
   37.0110   28.8020   38.1560 C   0  0  0  0  0  0  0  0  0  0  0  0
   35.6030   28.9450   38.1340 N   0  0  0  0  0  0  0  0  0  0  0  0
   34.8550   29.0060   39.2040 C   0  0  0  0  0  0  0  0  0  0  0  0
   35.4520   28.9310   40.4530 N   0  0  0  0  0  0  0  0  0  0  0  0
   37.4720   28.7700   37.1920 H   0  0  0  0  0  0  0  0  0  0  0  0
   33.7940   29.1130   39.0220 H   0  0  0  0  0  0  0  0  0  0  0  0
   39.0440   28.4580   39.4130 C   0  0  1  0  0  0  0  0  0  0  0  0
   39.9250   28.6820   38.4110 C   0  0  0  0  0  0  0  0  0  0  0  0
   39.9610   29.7720   39.4400 C   0  0  1  0  0  0  0  0  0  0  0  0
   39.3060   27.8570   40.3410 H   0  0  0  0  0  0  0  0  0  0  0  0
   40.8850   28.1170   38.3140 H   0  0  0  0  0  0  0  0  0  0  0  0
   39.5730   28.9590   37.3750 H   0  0  0  0  0  0  0  0  0  0  0  0
   40.7840   29.7410   40.1840 H   0  0  0  0  0  0  0  0  0  0  0  0
   39.2910   30.9810   39.1420 N   0  0  0  0  0  0  0  0  0  0  0  0
   38.4270   31.1810   39.6560 H   0  0  0  0  0  0  0  0  0  0  0  0
   40.5850   32.5420   37.7180 C   0  0  1  0  0  3  0  0  0  0  0  0
   40.2010   32.0960   39.0860 C   0  0  2  0  0  3  0  0  0  0  0  0
   41.3120   31.8270   39.8600 O   0  0  0  0  0  0  0  0  0  0  0  0
   42.4380   32.5420   39.5750 C   0  0  0  0  0  2  0  0  0  0  0  0
   42.9870   32.0300   38.2590 C   0  0  2  0  0  3  0  0  0  0  0  0
   41.9020   32.0670   37.2100 C   0  0  1  0  0  3  0  0  0  0  0  0
   39.6270   32.2230   36.7350 O   0  0  0  0  0  0  0  0  0  0  0  0
   38.8420   32.8390   36.7840 H   0  0  0  0  0  0  0  0  0  0  0  0
   43.4140   30.7110   38.3940 O   0  0  0  0  0  0  0  0  0  0  0  0
   43.1480   30.3620   39.2830 H   0  0  0  0  0  0  0  0  0  0  0  0
   41.7980   30.8740   36.5060 O   0  0  0  0  0  0  0  0  0  0  0  0
   41.3960   31.0570   35.6200 H   0  0  0  0  0  0  0  0  0  0  0  0
   37.2150   28.8090   41.8600 C   0  0  0  0  0  0  0  0  0  0  0  0
   37.3490   29.2960   42.9420 O   0  0  0  0  0  0  0  0  0  0  0  0
   40.0730   28.6500   43.0440 Cl  0  0  0  0  0  0  0  0  0  0  0  0
   39.1000   27.2260   42.7160 C   0  0  0  0  0  0  0  0  0  0  0  0
   37.8060   27.4550   42.1860 C   0  0  0  0  0  0  0  0  0  0  0  0
   37.1540   26.2650   41.9860 C   0  0  0  0  0  0  0  0  0  0  0  0
   37.5320   25.0190   42.2000 C   0  0  0  0  0  0  0  0  0  0  0  0
   38.8050   24.8640   42.7180 C   0  0  0  0  0  0  0  0  0  0  0  0
   39.5810   25.9420   42.9750 C   0  0  0  0  0  0  0  0  0  0  0  0
   36.1100   26.3410   41.5800 H   0  0  0  0  0  0  0  0  0  0  0  0
   36.9250   24.1400   42.0030 H   0  0  0  0  0  0  0  0  0  0  0  0
   39.1510   23.8330   42.9090 H   0  0  0  0  0  0  0  0  0  0  0  0
   40.8230   25.6620   43.4870 O   0  0  0  0  0  0  0  0  0  0  0  0
   42.1360   25.1190   41.2850 O   0  0  0  0  0  0  0  0  0  0  0  0
   42.3220   25.5830   42.7050 P   0  0  0  0  0  0  0  0  0  0  0  0
   43.0520   27.1140   42.7590 O   0  0  0  0  0  0  0  0  0  0  0  0
   42.6160   27.7130   42.0850 H   0  0  0  0  0  0  0  0  0  0  0  0
   43.3910   24.5370   43.5120 O   0  0  0  0  0  0  0  0  0  0  0  0
   43.9730   25.0220   44.1500 H   0  0  0  0  0  0  0  0  0  0  0  0
  1  6  1  0  0  0  0
  1 30  1  0  0  0  0
  2  9  1  0  0  0  0
  2  1  2  0  0  0  0
  3  2  1  0  0  0  0
  4  3  2  0  0  0  0
  4  5  1  0  0  0  0
  5  6  2  0  0  0  0
  7  3  1  0  0  0  0
  8  5  1  0  0  0  0
  9 11  1  0  0  0  0
  9 12  1  1  0  0  0
 10  9  1  0  0  0  0
 10 11  1  0  0  0  0
 11 15  1  1  0  0  0
 13 10  1  0  0  0  0
 14 10  1  0  0  0  0
 16 11  1  0  0  0  0
 16 17  1  0  0  0  0
 18 24  1  6  0  0  0
 18 19  1  0  0  0  0
 19 16  1  6  0  0  0
 19 20  1  0  0  0  0
 21 20  1  0  0  0  0
 22 26  1  1  0  0  0
 22 21  1  0  0  0  0
 23 28  1  1  0  0  0
 23 18  1  0  0  0  0
 23 22  1  0  0  0  0
 24 25  1  0  0  0  0
 26 27  1  0  0  0  0
 29 28  1  0  0  0  0
 30 34  1  0  0  0  0
 30 31  2  0  0  0  0
 33 38  1  0  0  0  0
 33 32  1  0  0  0  0
 34 33  2  0  0  0  0
 35 34  1  0  0  0  0
 35 36  2  0  0  0  0
 36 37  1  0  0  0  0
 37 41  1  0  0  0  0
 37 38  2  0  0  0  0
 38 42  1  0  0  0  0
 39 35  1  0  0  0  0
 40 36  1  0  0  0  0
 43 44  2  0  0  0  0
 44 45  1  0  0  0  0
 44 42  1  0  0  0  0
 44 47  1  0  0  0  0
 46 45  1  0  0  0  0
 47 48  1  0  0  0  0
M  END
>  <minimizedAffinity>
-6.72031116

$$$$

 OpenBabel03242523273D

 48 51  0  0  1  0  0  0  0  0999 V2000
   39.0240   27.6920   42.1180 C   0  0  0  0  0  0  0  0  0  0  0  0
   39.7400   28.7950   42.2210 C   0  0  0  0  0  0  0  0  0  0  0  0
   41.1030   28.6250   42.0330 C   0  0  0  0  0  0  0  0  0  0  0  0
   41.5650   27.3160   41.7600 N   0  0  0  0  0  0  0  0  0  0  0  0
   40.7900   26.2670   41.6750 C   0  0  0  0  0  0  0  0  0  0  0  0
   39.4250   26.4170   41.8590 N   0  0  0  0  0  0  0  0  0  0  0  0
   41.8670   29.3720   42.0670 H   0  0  0  0  0  0  0  0  0  0  0  0
   41.2950   25.3340   41.4620 H   0  0  0  0  0  0  0  0  0  0  0  0
   39.2870   30.1070   42.6180 C   0  0  1  0  0  0  0  0  0  0  0  0
   40.0000   31.2560   42.5900 C   0  0  0  0  0  0  0  0  0  0  0  0
   39.0920   31.1330   41.4020 C   0  0  1  0  0  0  0  0  0  0  0  0
   38.2800   30.0190   43.1360 H   0  0  0  0  0  0  0  0  0  0  0  0
   39.7680   32.1270   43.2510 H   0  0  0  0  0  0  0  0  0  0  0  0
   41.1120   31.2490   42.3950 H   0  0  0  0  0  0  0  0  0  0  0  0
   38.1390   31.7010   41.4310 H   0  0  0  0  0  0  0  0  0  0  0  0
   39.6660   30.7280   40.1740 N   0  0  0  0  0  0  0  0  0  0  0  0
   39.0290   30.5560   39.3910 H   0  0  0  0  0  0  0  0  0  0  0  0
   40.5190   32.7090   38.9550 C   0  0  1  0  0  3  0  0  0  0  0  0
   40.8060   31.5370   39.8260 C   0  0  2  0  0  3  0  0  0  0  0  0
   41.7950   30.7380   39.2900 O   0  0  0  0  0  0  0  0  0  0  0  0
   42.7280   31.3640   38.5160 C   0  0  0  0  0  2  0  0  0  0  0  0
   42.0590   31.7510   37.2130 C   0  0  2  0  0  3  0  0  0  0  0  0
   40.8070   32.5430   37.5030 C   0  0  1  0  0  3  0  0  0  0  0  0
   39.1930   33.1730   39.0590 O   0  0  0  0  0  0  0  0  0  0  0  0
   39.0570   33.6890   39.9040 H   0  0  0  0  0  0  0  0  0  0  0  0
   41.6950   30.6110   36.5000 O   0  0  0  0  0  0  0  0  0  0  0  0
   41.8400   29.8050   37.0580 H   0  0  0  0  0  0  0  0  0  0  0  0
   39.7050   32.0800   36.7940 O   0  0  0  0  0  0  0  0  0  0  0  0
   39.0530   32.8170   36.6950 H   0  0  0  0  0  0  0  0  0  0  0  0
   37.5380   27.6110   42.2030 C   0  0  0  0  0  0  0  0  0  0  0  0
   36.4990   27.3080   42.7070 O   0  0  0  0  0  0  0  0  0  0  0  0
   37.9410   26.2820   39.4340 Cl  0  0  0  0  0  0  0  0  0  0  0  0
   37.0840   27.7990   39.6440 C   0  0  0  0  0  0  0  0  0  0  0  0
   36.9670   28.2790   40.9720 C   0  0  0  0  0  0  0  0  0  0  0  0
   36.2720   29.4610   40.9950 C   0  0  0  0  0  0  0  0  0  0  0  0
   35.7320   30.1710   40.0210 C   0  0  0  0  0  0  0  0  0  0  0  0
   35.8800   29.6480   38.7500 C   0  0  0  0  0  0  0  0  0  0  0  0
   36.5420   28.4840   38.5560 C   0  0  0  0  0  0  0  0  0  0  0  0
   36.1130   29.9170   42.0080 H   0  0  0  0  0  0  0  0  0  0  0  0
   35.1950   31.1070   40.1550 H   0  0  0  0  0  0  0  0  0  0  0  0
   35.4390   30.2190   37.9140 H   0  0  0  0  0  0  0  0  0  0  0  0
   36.6240   28.0670   37.2520 O   0  0  0  0  0  0  0  0  0  0  0  0
   38.5080   26.7080   36.0370 O   0  0  0  0  0  0  0  0  0  0  0  0
   37.9410   28.0950   36.1880 P   0  0  0  0  0  0  0  0  0  0  0  0
   37.4270   28.7140   34.6940 O   0  0  0  0  0  0  0  0  0  0  0  0
   36.9140   28.0090   34.2020 H   0  0  0  0  0  0  0  0  0  0  0  0
   39.1560   29.1530   36.7290 O   0  0  0  0  0  0  0  0  0  0  0  0
   39.0680   30.0550   36.3280 H   0  0  0  0  0  0  0  0  0  0  0  0
  1 30  1  0  0  0  0
  1  2  1  0  0  0  0
  2  9  1  0  0  0  0
  3  7  1  0  0  0  0
  3  2  2  0  0  0  0
  4  3  1  0  0  0  0
  5  4  2  0  0  0  0
  5  6  1  0  0  0  0
  6  1  2  0  0  0  0
  8  5  1  0  0  0  0
  9 12  1  1  0  0  0
 10  9  1  0  0  0  0
 10 13  1  0  0  0  0
 11 15  1  6  0  0  0
 11 10  1  0  0  0  0
 11  9  1  0  0  0  0
 14 10  1  0  0  0  0
 16 11  1  0  0  0  0
 17 16  1  0  0  0  0
 18 24  1  6  0  0  0
 18 19  1  0  0  0  0
 19 16  1  6  0  0  0
 20 19  1  0  0  0  0
 21 20  1  0  0  0  0
 22 26  1  1  0  0  0
 22 23  1  0  0  0  0
 22 21  1  0  0  0  0
 23 28  1  6  0  0  0
 23 18  1  0  0  0  0
 24 25  1  0  0  0  0
 26 27  1  0  0  0  0
 29 28  1  0  0  0  0
 30 31  2  0  0  0  0
 32 33  1  0  0  0  0
 33 34  1  0  0  0  0
 34 35  2  0  0  0  0
 34 30  1  0  0  0  0
 35 39  1  0  0  0  0
 36 40  1  0  0  0  0
 36 35  1  0  0  0  0
 37 36  2  0  0  0  0
 38 37  1  0  0  0  0
 38 33  2  0  0  0  0
 41 37  1  0  0  0  0
 42 38  1  0  0  0  0
 43 44  2  0  0  0  0
 44 47  1  0  0  0  0
 44 42  1  0  0  0  0
 45 44  1  0  0  0  0
 46 45  1  0  0  0  0
 48 47  1  0  0  0  0
M  END
>  <minimizedAffinity>
-6.69577408

$$$$

 OpenBabel03242523273D

 48 51  0  0  1  0  0  0  0  0999 V2000
   38.6860   27.8090   41.5160 C   0  0  0  0  0  0  0  0  0  0  0  0
   39.5580   28.7360   41.8610 C   0  0  0  0  0  0  0  0  0  0  0  0
   40.8870   28.3660   41.7270 C   0  0  0  0  0  0  0  0  0  0  0  0
   41.1550   27.0620   41.2480 N   0  0  0  0  0  0  0  0  0  0  0  0
   40.2320   26.1930   40.9270 C   0  0  0  0  0  0  0  0  0  0  0  0
   38.8980   26.5470   41.0530 N   0  0  0  0  0  0  0  0  0  0  0  0
   41.7560   28.9500   41.9430 H   0  0  0  0  0  0  0  0  0  0  0  0
   40.5970   25.2370   40.5790 H   0  0  0  0  0  0  0  0  0  0  0  0
   39.2890   30.0210   42.4620 C   0  0  1  0  0  0  0  0  0  0  0  0
   40.1440   31.0640   42.5700 C   0  0  0  0  0  0  0  0  0  0  0  0
   39.1990   31.2320   41.4170 C   0  0  1  0  0  0  0  0  0  0  0  0
   38.2920   29.9830   43.0060 H   0  0  0  0  0  0  0  0  0  0  0  0
   40.0430   31.8490   43.3590 H   0  0  0  0  0  0  0  0  0  0  0  0
   41.2410   30.9470   42.3280 H   0  0  0  0  0  0  0  0  0  0  0  0
   38.3290   31.9050   41.5680 H   0  0  0  0  0  0  0  0  0  0  0  0
   39.6860   30.9470   40.1200 N   0  0  0  0  0  0  0  0  0  0  0  0
   39.0040   30.9200   39.3570 H   0  0  0  0  0  0  0  0  0  0  0  0
   40.6560   32.8930   38.9330 C   0  0  1  0  0  3  0  0  0  0  0  0
   40.8680   31.7120   39.8140 C   0  0  2  0  0  3  0  0  0  0  0  0
   41.8440   30.8750   39.3120 O   0  0  0  0  0  0  0  0  0  0  0  0
   42.8270   31.4650   38.5730 C   0  0  0  0  0  2  0  0  0  0  0  0
   42.2200   31.8760   37.2460 C   0  0  2  0  0  3  0  0  0  0  0  0
   40.9890   32.7150   37.4920 C   0  0  1  0  0  3  0  0  0  0  0  0
   39.3460   33.4070   38.9890 O   0  0  0  0  0  0  0  0  0  0  0  0
   39.1990   33.9290   39.8290 H   0  0  0  0  0  0  0  0  0  0  0  0
   41.8390   30.7500   36.5210 O   0  0  0  0  0  0  0  0  0  0  0  0
   41.9330   29.9400   37.0830 H   0  0  0  0  0  0  0  0  0  0  0  0
   39.8970   32.2930   36.7440 O   0  0  0  0  0  0  0  0  0  0  0  0
   39.2770   33.0540   36.6220 H   0  0  0  0  0  0  0  0  0  0  0  0
   37.2050   27.9760   41.4950 C   0  0  0  0  0  0  0  0  0  0  0  0
   36.1410   28.2480   41.9630 O   0  0  0  0  0  0  0  0  0  0  0  0
   36.5310   30.2110   39.4590 Cl  0  0  0  0  0  0  0  0  0  0  0  0
   36.3570   28.5040   39.0880 C   0  0  0  0  0  0  0  0  0  0  0  0
   36.7160   27.5960   40.1150 C   0  0  0  0  0  0  0  0  0  0  0  0
   36.5410   26.3030   39.6930 C   0  0  0  0  0  0  0  0  0  0  0  0
   36.1130   25.8140   38.5440 C   0  0  0  0  0  0  0  0  0  0  0  0
   35.7800   26.7520   37.5850 C   0  0  0  0  0  0  0  0  0  0  0  0
   35.8970   28.0750   37.8430 C   0  0  0  0  0  0  0  0  0  0  0  0
   36.8130   25.5050   40.4330 H   0  0  0  0  0  0  0  0  0  0  0  0
   36.0130   24.7560   38.3150 H   0  0  0  0  0  0  0  0  0  0  0  0
   35.4190   26.3740   36.6110 H   0  0  0  0  0  0  0  0  0  0  0  0
   35.5360   28.9070   36.8140 O   0  0  0  0  0  0  0  0  0  0  0  0
   35.5990   29.9650   34.4170 O   0  0  0  0  0  0  0  0  0  0  0  0
   36.4800   29.5570   35.5680 P   0  0  0  0  0  0  0  0  0  0  0  0
   37.3520   30.8820   36.1720 O   0  0  0  0  0  0  0  0  0  0  0  0
   36.7410   31.6690   36.2590 H   0  0  0  0  0  0  0  0  0  0  0  0
   37.6480   28.4470   35.0270 O   0  0  0  0  0  0  0  0  0  0  0  0
   38.5180   28.5730   35.4830 H   0  0  0  0  0  0  0  0  0  0  0  0
  1  2  1  0  0  0  0
  2  9  1  0  0  0  0
  3  2  2  0  0  0  0
  3  7  1  0  0  0  0
  4  3  1  0  0  0  0
  5  6  1  0  0  0  0
  5  4  2  0  0  0  0
  6  1  2  0  0  0  0
  8  5  1  0  0  0  0
  9 10  1  0  0  0  0
  9 12  1  1  0  0  0
 10 13  1  0  0  0  0
 11 15  1  1  0  0  0
 11  9  1  0  0  0  0
 11 10  1  0  0  0  0
 14 10  1  0  0  0  0
 16 11  1  0  0  0  0
 17 16  1  0  0  0  0
 18 24  1  6  0  0  0
 18 19  1  0  0  0  0
 19 16  1  6  0  0  0
 20 19  1  0  0  0  0
 21 20  1  0  0  0  0
 22 26  1  1  0  0  0
 22 23  1  0  0  0  0
 22 21  1  0  0  0  0
 23 28  1  6  0  0  0
 23 18  1  0  0  0  0
 24 25  1  0  0  0  0
 26 27  1  0  0  0  0
 29 28  1  0  0  0  0
 30  1  1  0  0  0  0
 30 31  2  0  0  0  0
 33 32  1  0  0  0  0
 33 34  1  0  0  0  0
 34 30  1  0  0  0  0
 35 34  2  0  0  0  0
 35 39  1  0  0  0  0
 36 35  1  0  0  0  0
 37 38  1  0  0  0  0
 37 36  2  0  0  0  0
 38 33  2  0  0  0  0
 40 36  1  0  0  0  0
 41 37  1  0  0  0  0
 42 38  1  0  0  0  0
 43 44  2  0  0  0  0
 44 45  1  0  0  0  0
 44 42  1  0  0  0  0
 45 46  1  0  0  0  0
 47 48  1  0  0  0  0
 47 44  1  0  0  0  0
M  END
>  <minimizedAffinity>
-6.69203711

$$$$

 OpenBabel03242523273D

 48 51  0  0  1  0  0  0  0  0999 V2000
   39.0530   26.9740   42.2710 C   0  0  0  0  0  0  0  0  0  0  0  0
   39.6580   28.1270   42.4800 C   0  0  0  0  0  0  0  0  0  0  0  0
   41.0350   28.1000   42.3230 C   0  0  0  0  0  0  0  0  0  0  0  0
   41.6270   26.8650   41.9670 N   0  0  0  0  0  0  0  0  0  0  0  0
   40.9580   25.7580   41.7780 C   0  0  0  0  0  0  0  0  0  0  0  0
   39.5800   25.7660   41.9280 N   0  0  0  0  0  0  0  0  0  0  0  0
   41.7250   28.9090   42.4380 H   0  0  0  0  0  0  0  0  0  0  0  0
   41.5540   24.8960   41.5110 H   0  0  0  0  0  0  0  0  0  0  0  0
   39.0730   29.3560   42.9600 C   0  0  1  0  0  0  0  0  0  0  0  0
   39.6490   30.5800   42.9720 C   0  0  0  0  0  0  0  0  0  0  0  0
   38.7190   30.4120   41.8080 C   0  0  1  0  0  0  0  0  0  0  0  0
   38.1020   29.1260   43.5030 H   0  0  0  0  0  0  0  0  0  0  0  0
   39.3430   31.3840   43.6860 H   0  0  0  0  0  0  0  0  0  0  0  0
   40.7470   30.7120   42.7440 H   0  0  0  0  0  0  0  0  0  0  0  0
   37.7090   30.8640   41.8950 H   0  0  0  0  0  0  0  0  0  0  0  0
   39.2900   30.1390   40.5430 N   0  0  0  0  0  0  0  0  0  0  0  0
   39.1630   29.1960   40.1620 H   0  0  0  0  0  0  0  0  0  0  0  0
   40.1600   32.0840   39.2790 C   0  0  1  0  0  3  0  0  0  0  0  0
   39.0140   31.1880   39.5950 C   0  0  2  0  0  3  0  0  0  0  0  0
   37.9090   31.9050   40.0070 O   0  0  0  0  0  0  0  0  0  0  0  0
   37.7790   33.1640   39.4990 C   0  0  0  0  0  2  0  0  0  0  0  0
   38.8340   34.0350   40.1510 C   0  0  2  0  0  3  0  0  0  0  0  0
   40.1910   33.3960   39.9850 C   0  0  1  0  0  3  0  0  0  0  0  0
   41.4170   31.4800   39.4820 O   0  0  0  0  0  0  0  0  0  0  0  0
   41.6320   30.8410   38.7450 H   0  0  0  0  0  0  0  0  0  0  0  0
   38.5780   34.1610   41.5150 O   0  0  0  0  0  0  0  0  0  0  0  0
   37.8400   33.5530   41.7760 H   0  0  0  0  0  0  0  0  0  0  0  0
   40.9050   33.3390   41.1760 O   0  0  0  0  0  0  0  0  0  0  0  0
   41.8720   33.3000   40.9700 H   0  0  0  0  0  0  0  0  0  0  0  0
   37.5810   26.7490   42.3020 C   0  0  0  0  0  0  0  0  0  0  0  0
   36.5630   26.3110   42.7450 O   0  0  0  0  0  0  0  0  0  0  0  0
   38.2370   25.7430   39.4460 Cl  0  0  0  0  0  0  0  0  0  0  0  0
   37.1980   27.1250   39.7510 C   0  0  0  0  0  0  0  0  0  0  0  0
   36.9790   27.4610   41.1100 C   0  0  0  0  0  0  0  0  0  0  0  0
   36.1480   28.5480   41.2060 C   0  0  0  0  0  0  0  0  0  0  0  0
   35.5620   29.2800   40.2770 C   0  0  0  0  0  0  0  0  0  0  0  0
   35.8170   28.9000   38.9720 C   0  0  0  0  0  0  0  0  0  0  0  0
   36.6190   27.8440   38.7050 C   0  0  0  0  0  0  0  0  0  0  0  0
   35.9000   28.8840   42.2480 H   0  0  0  0  0  0  0  0  0  0  0  0
   34.9140   30.1310   40.4690 H   0  0  0  0  0  0  0  0  0  0  0  0
   35.3410   29.4930   38.1700 H   0  0  0  0  0  0  0  0  0  0  0  0
   36.7960   27.5640   37.3740 O   0  0  0  0  0  0  0  0  0  0  0  0
   38.9810   26.7590   36.1700 O   0  0  0  0  0  0  0  0  0  0  0  0
   38.0850   27.9550   36.3490 P   0  0  0  0  0  0  0  0  0  0  0  0
   37.4640   28.4830   34.8610 O   0  0  0  0  0  0  0  0  0  0  0  0
   37.1500   27.6930   34.3330 H   0  0  0  0  0  0  0  0  0  0  0  0
   38.9900   29.2600   36.9560 O   0  0  0  0  0  0  0  0  0  0  0  0
   38.6890   30.1260   36.5820 H   0  0  0  0  0  0  0  0  0  0  0  0
  1 30  1  0  0  0  0
  1  2  1  0  0  0  0
  2  9  1  0  0  0  0
  3  7  1  0  0  0  0
  3  2  2  0  0  0  0
  4  3  1  0  0  0  0
  5  6  1  0  0  0  0
  5  4  2  0  0  0  0
  6  1  2  0  0  0  0
  8  5  1  0  0  0  0
  9 10  1  0  0  0  0
  9 12  1  1  0  0  0
 10 13  1  0  0  0  0
 11 15  1  1  0  0  0
 11  9  1  0  0  0  0
 11 10  1  0  0  0  0
 14 10  1  0  0  0  0
 16 11  1  0  0  0  0
 17 16  1  0  0  0  0
 18 24  1  1  0  0  0
 18 19  1  0  0  0  0
 18 23  1  0  0  0  0
 19 20  1  0  0  0  0
 19 16  1  1  0  0  0
 21 20  1  0  0  0  0
 21 22  1  0  0  0  0
 22 26  1  1  0  0  0
 23 22  1  0  0  0  0
 23 28  1  1  0  0  0
 25 24  1  0  0  0  0
 26 27  1  0  0  0  0
 29 28  1  0  0  0  0
 30 31  2  0  0  0  0
 32 33  1  0  0  0  0
 33 34  1  0  0  0  0
 34 35  2  0  0  0  0
 34 30  1  0  0  0  0
 35 39  1  0  0  0  0
 36 40  1  0  0  0  0
 36 35  1  0  0  0  0
 37 36  2  0  0  0  0
 38 37  1  0  0  0  0
 38 33  2  0  0  0  0
 41 37  1  0  0  0  0
 42 38  1  0  0  0  0
 43 44  2  0  0  0  0
 44 47  1  0  0  0  0
 44 42  1  0  0  0  0
 45 44  1  0  0  0  0
 46 45  1  0  0  0  0
 48 47  1  0  0  0  0
M  END
>  <minimizedAffinity>
-6.66513824

$$$$

 OpenBabel03242523273D

 48 51  0  0  1  0  0  0  0  0999 V2000
   37.5710   29.5820   37.3370 C   0  0  0  0  0  0  0  0  0  0  0  0
   36.7840   29.0100   38.2280 C   0  0  0  0  0  0  0  0  0  0  0  0
   36.9930   27.6500   38.4020 C   0  0  0  0  0  0  0  0  0  0  0  0
   38.0020   27.0400   37.6210 N   0  0  0  0  0  0  0  0  0  0  0  0
   38.7440   27.6760   36.7520 C   0  0  0  0  0  0  0  0  0  0  0  0
   38.5510   29.0360   36.5650 N   0  0  0  0  0  0  0  0  0  0  0  0
   36.4790   26.9880   39.0660 H   0  0  0  0  0  0  0  0  0  0  0  0
   39.4710   27.0690   36.2310 H   0  0  0  0  0  0  0  0  0  0  0  0
   35.6760   29.6040   38.9360 C   0  0  1  0  0  0  0  0  0  0  0  0
   34.9260   29.0260   39.9030 C   0  0  0  0  0  0  0  0  0  0  0  0
   35.9760   29.9310   40.4760 C   0  0  1  0  0  0  0  0  0  0  0  0
   35.3940   30.5870   38.4420 H   0  0  0  0  0  0  0  0  0  0  0  0
   33.8790   29.3470   40.1280 H   0  0  0  0  0  0  0  0  0  0  0  0
   35.0130   27.9230   40.1290 H   0  0  0  0  0  0  0  0  0  0  0  0
   35.6540   30.9410   40.8010 H   0  0  0  0  0  0  0  0  0  0  0  0
   37.1450   29.3320   41.0030 N   0  0  0  0  0  0  0  0  0  0  0  0
   37.9350   29.9480   41.2140 H   0  0  0  0  0  0  0  0  0  0  0  0
   37.6680   28.5270   43.2870 C   0  0  1  0  0  3  0  0  0  0  0  0
   36.8370   28.4000   42.0580 C   0  0  2  0  0  3  0  0  0  0  0  0
   36.8610   27.1130   41.5620 O   0  0  0  0  0  0  0  0  0  0  0  0
   37.0360   26.1140   42.4730 C   0  0  0  0  0  2  0  0  0  0  0  0
   38.4750   26.1700   42.9460 C   0  0  2  0  0  3  0  0  0  0  0  0
   38.7950   27.5640   43.4280 C   0  0  1  0  0  3  0  0  0  0  0  0
   38.2050   29.8160   43.4700 O   0  0  0  0  0  0  0  0  0  0  0  0
   37.5090   30.4530   43.8000 H   0  0  0  0  0  0  0  0  0  0  0  0
   39.3390   25.8650   41.8970 O   0  0  0  0  0  0  0  0  0  0  0  0
   38.8300   25.8040   41.0490 H   0  0  0  0  0  0  0  0  0  0  0  0
   39.9800   28.0550   42.8950 O   0  0  0  0  0  0  0  0  0  0  0  0
   40.3460   28.7450   43.5030 H   0  0  0  0  0  0  0  0  0  0  0  0
   37.6030   31.0370   37.0150 C   0  0  0  0  0  0  0  0  0  0  0  0
   37.4550   31.9930   36.3160 O   0  0  0  0  0  0  0  0  0  0  0  0
   40.5870   30.7980   37.8130 Cl  0  0  0  0  0  0  0  0  0  0  0  0
   39.4300   31.7450   38.7330 C   0  0  0  0  0  0  0  0  0  0  0  0
   38.1020   31.7710   38.2400 C   0  0  0  0  0  0  0  0  0  0  0  0
   37.3080   32.5490   39.0440 C   0  0  0  0  0  0  0  0  0  0  0  0
   37.5840   33.2310   40.1390 C   0  0  0  0  0  0  0  0  0  0  0  0
   38.8960   33.1650   40.5680 C   0  0  0  0  0  0  0  0  0  0  0  0
   39.8090   32.4380   39.8840 C   0  0  0  0  0  0  0  0  0  0  0  0
   36.2360   32.6450   38.7270 H   0  0  0  0  0  0  0  0  0  0  0  0
   36.8660   33.8220   40.7030 H   0  0  0  0  0  0  0  0  0  0  0  0
   39.1590   33.7250   41.4830 H   0  0  0  0  0  0  0  0  0  0  0  0
   41.0780   32.4480   40.4050 O   0  0  0  0  0  0  0  0  0  0  0  0
   40.6860   30.6290   42.2510 O   0  0  0  0  0  0  0  0  0  0  0  0
   41.7500   31.4950   41.6310 P   0  0  0  0  0  0  0  0  0  0  0  0
   43.0000   30.5530   40.9730 O   0  0  0  0  0  0  0  0  0  0  0  0
   42.6050   29.7920   40.4570 H   0  0  0  0  0  0  0  0  0  0  0  0
   42.4810   32.4490   42.8340 O   0  0  0  0  0  0  0  0  0  0  0  0
   43.4500   32.5720   42.6710 H   0  0  0  0  0  0  0  0  0  0  0  0
  1  2  1  0  0  0  0
  2  3  2  0  0  0  0
  2  9  1  0  0  0  0
  3  7  1  0  0  0  0
  4  3  1  0  0  0  0
  5  4  2  0  0  0  0
  6  5  1  0  0  0  0
  6  1  2  0  0  0  0
  8  5  1  0  0  0  0
  9 12  1  6  0  0  0
  9 10  1  0  0  0  0
  9 11  1  0  0  0  0
 10 13  1  0  0  0  0
 10 14  1  0  0  0  0
 10 11  1  0  0  0  0
 11 15  1  1  0  0  0
 11 16  1  0  0  0  0
 16 17  1  0  0  0  0
 18 23  1  0  0  0  0
 18 24  1  6  0  0  0
 19 16  1  6  0  0  0
 19 18  1  0  0  0  0
 20 19  1  0  0  0  0
 20 21  1  0  0  0  0
 21 22  1  0  0  0  0
 22 26  1  6  0  0  0
 22 23  1  0  0  0  0
 23 28  1  6  0  0  0
 24 25  1  0  0  0  0
 27 26  1  0  0  0  0
 28 29  1  0  0  0  0
 30  1  1  0  0  0  0
 30 34  1  0  0  0  0
 31 30  2  0  0  0  0
 32 33  1  0  0  0  0
 33 38  1  0  0  0  0
 34 33  2  0  0  0  0
 34 35  1  0  0  0  0
 35 36  2  0  0  0  0
 36 37  1  0  0  0  0
 36 40  1  0  0  0  0
 37 41  1  0  0  0  0
 38 42  1  0  0  0  0
 38 37  2  0  0  0  0
 39 35  1  0  0  0  0
 42 44  1  0  0  0  0
 44 43  2  0  0  0  0
 44 47  1  0  0  0  0
 45 44  1  0  0  0  0
 46 45  1  0  0  0  0
 48 47  1  0  0  0  0
M  END
>  <minimizedAffinity>
-6.23687983

$$$$

 OpenBabel03242523273D

 48 51  0  0  1  0  0  0  0  0999 V2000
   38.9480   27.0750   42.7560 C   0  0  0  0  0  0  0  0  0  0  0  0
   39.5420   28.2530   42.7550 C   0  0  0  0  0  0  0  0  0  0  0  0
   40.9220   28.2110   42.6280 C   0  0  0  0  0  0  0  0  0  0  0  0
   41.5280   26.9370   42.5190 N   0  0  0  0  0  0  0  0  0  0  0  0
   40.8700   25.8080   42.5300 C   0  0  0  0  0  0  0  0  0  0  0  0
   39.4890   25.8300   42.6540 N   0  0  0  0  0  0  0  0  0  0  0  0
   41.6030   29.0340   42.6010 H   0  0  0  0  0  0  0  0  0  0  0  0
   41.4760   24.9170   42.4390 H   0  0  0  0  0  0  0  0  0  0  0  0
   38.9400   29.5440   42.9860 C   0  0  1  0  0  0  0  0  0  0  0  0
   39.5560   30.7480   42.9410 C   0  0  0  0  0  0  0  0  0  0  0  0
   38.8070   30.4550   41.6750 C   0  0  1  0  0  0  0  0  0  0  0  0
   37.8890   29.4040   43.3950 H   0  0  0  0  0  0  0  0  0  0  0  0
   39.1770   31.6410   43.4960 H   0  0  0  0  0  0  0  0  0  0  0  0
   40.6800   30.8270   42.8720 H   0  0  0  0  0  0  0  0  0  0  0  0
   37.8140   30.9350   41.5490 H   0  0  0  0  0  0  0  0  0  0  0  0
   39.5530   30.0140   40.5560 N   0  0  0  0  0  0  0  0  0  0  0  0
   39.5870   29.0060   40.3810 H   0  0  0  0  0  0  0  0  0  0  0  0
   40.0220   32.0730   39.2610 C   0  0  1  0  0  3  0  0  0  0  0  0
   39.2650   30.7970   39.3820 C   0  0  2  0  0  3  0  0  0  0  0  0
   37.9040   31.0040   39.2840 O   0  0  0  0  0  0  0  0  0  0  0  0
   37.5040   32.0620   38.5220 C   0  0  0  0  0  2  0  0  0  0  0  0
   37.8430   33.3290   39.2800 C   0  0  2  0  0  3  0  0  0  0  0  0
   39.3020   33.3130   39.6680 C   0  0  1  0  0  3  0  0  0  0  0  0
   41.2480   32.0660   39.9540 O   0  0  0  0  0  0  0  0  0  0  0  0
   41.9380   31.5390   39.4600 H   0  0  0  0  0  0  0  0  0  0  0  0
   37.0850   33.4100   40.4460 O   0  0  0  0  0  0  0  0  0  0  0  0
   36.5890   32.5630   40.5840 H   0  0  0  0  0  0  0  0  0  0  0  0
   39.5020   33.6260   41.0060 O   0  0  0  0  0  0  0  0  0  0  0  0
   40.4180   33.9870   41.1190 H   0  0  0  0  0  0  0  0  0  0  0  0
   37.4770   26.8450   42.8040 C   0  0  0  0  0  0  0  0  0  0  0  0
   36.3770   26.9690   43.2520 O   0  0  0  0  0  0  0  0  0  0  0  0
   36.7390   28.1130   40.0750 Cl  0  0  0  0  0  0  0  0  0  0  0  0
   36.7390   26.3790   40.3480 C   0  0  0  0  0  0  0  0  0  0  0  0
   37.1110   25.9440   41.6450 C   0  0  0  0  0  0  0  0  0  0  0  0
   37.0770   24.5750   41.7200 C   0  0  0  0  0  0  0  0  0  0  0  0
   36.7670   23.6630   40.8170 C   0  0  0  0  0  0  0  0  0  0  0  0
   36.4140   24.1520   39.5730 C   0  0  0  0  0  0  0  0  0  0  0  0
   36.3980   25.4830   39.3340 C   0  0  0  0  0  0  0  0  0  0  0  0
   37.3710   24.1310   42.7070 H   0  0  0  0  0  0  0  0  0  0  0  0
   36.7750   22.5890   40.9870 H   0  0  0  0  0  0  0  0  0  0  0  0
   36.1490   23.4130   38.7960 H   0  0  0  0  0  0  0  0  0  0  0  0
   36.0310   25.8470   38.0630 O   0  0  0  0  0  0  0  0  0  0  0  0
   38.3390   25.6540   36.8360 O   0  0  0  0  0  0  0  0  0  0  0  0
   36.9930   26.3240   36.7550 P   0  0  0  0  0  0  0  0  0  0  0  0
   36.1960   25.9260   35.3110 O   0  0  0  0  0  0  0  0  0  0  0  0
   36.2800   24.9420   35.1470 H   0  0  0  0  0  0  0  0  0  0  0  0
   37.1980   28.0110   36.7140 O   0  0  0  0  0  0  0  0  0  0  0  0
   36.5310   28.4520   36.1290 H   0  0  0  0  0  0  0  0  0  0  0  0
  1 30  1  0  0  0  0
  2  1  1  0  0  0  0
  2  9  1  0  0  0  0
  3  2  2  0  0  0  0
  4  5  2  0  0  0  0
  4  3  1  0  0  0  0
  5  6  1  0  0  0  0
  6  1  2  0  0  0  0
  7  3  1  0  0  0  0
  8  5  1  0  0  0  0
  9 12  1  1  0  0  0
 10  9  1  0  0  0  0
 10 13  1  0  0  0  0
 11 15  1  6  0  0  0
 11 10  1  0  0  0  0
 11  9  1  0  0  0  0
 14 10  1  0  0  0  0
 16 11  1  0  0  0  0
 17 16  1  0  0  0  0
 18 19  1  0  0  0  0
 18 23  1  0  0  0  0
 18 24  1  1  0  0  0
 19 16  1  1  0  0  0
 20 19  1  0  0  0  0
 21 22  1  0  0  0  0
 21 20  1  0  0  0  0
 22 23  1  0  0  0  0
 22 26  1  1  0  0  0
 23 28  1  1  0  0  0
 25 24  1  0  0  0  0
 26 27  1  0  0  0  0
 28 29  1  0  0  0  0
 30 31  2  0  0  0  0
 32 33  1  0  0  0  0
 33 34  1  0  0  0  0
 34 35  2  0  0  0  0
 34 30  1  0  0  0  0
 35 39  1  0  0  0  0
 36 40  1  0  0  0  0
 36 35  1  0  0  0  0
 37 36  2  0  0  0  0
 38 37  1  0  0  0  0
 38 33  2  0  0  0  0
 41 37  1  0  0  0  0
 42 38  1  0  0  0  0
 44 43  2  0  0  0  0
 44 42  1  0  0  0  0
 45 44  1  0  0  0  0
 46 45  1  0  0  0  0
 47 44  1  0  0  0  0
 48 47  1  0  0  0  0
M  END
>  <minimizedAffinity>
-6.20743179

$$$$

 OpenBabel03242523273D

 48 51  0  0  1  0  0  0  0  0999 V2000
   38.3310   25.6880   41.8700 C   0  0  0  0  0  0  0  0  0  0  0  0
   38.3300   26.7820   42.6070 C   0  0  0  0  0  0  0  0  0  0  0  0
   39.3140   26.8290   43.5820 C   0  0  0  0  0  0  0  0  0  0  0  0
   40.1900   25.7220   43.6780 N   0  0  0  0  0  0  0  0  0  0  0  0
   40.1270   24.6670   42.9090 C   0  0  0  0  0  0  0  0  0  0  0  0
   39.1500   24.6020   41.9280 N   0  0  0  0  0  0  0  0  0  0  0  0
   39.5030   27.6110   44.2860 H   0  0  0  0  0  0  0  0  0  0  0  0
   40.8660   23.9030   43.1090 H   0  0  0  0  0  0  0  0  0  0  0  0
   37.3660   27.8560   42.5900 C   0  0  1  0  0  0  0  0  0  0  0  0
   37.5240   29.0990   43.1020 C   0  0  0  0  0  0  0  0  0  0  0  0
   37.7500   29.0720   41.6190 C   0  0  1  0  0  0  0  0  0  0  0  0
   36.3620   27.4580   42.2360 H   0  0  0  0  0  0  0  0  0  0  0  0
   36.6620   29.7350   43.4190 H   0  0  0  0  0  0  0  0  0  0  0  0
   38.4090   29.3520   43.7560 H   0  0  0  0  0  0  0  0  0  0  0  0
   36.9180   29.4220   40.9730 H   0  0  0  0  0  0  0  0  0  0  0  0
   39.0870   29.0750   41.1570 N   0  0  0  0  0  0  0  0  0  0  0  0
   39.5570   28.1700   41.0700 H   0  0  0  0  0  0  0  0  0  0  0  0
   40.1460   31.0990   40.1970 C   0  0  1  0  0  3  0  0  0  0  0  0
   39.2500   29.9250   40.0050 C   0  0  2  0  0  3  0  0  0  0  0  0
   38.0120   30.3070   39.5310 O   0  0  0  0  0  0  0  0  0  0  0  0
   37.9770   31.4300   38.7590 C   0  0  0  0  0  2  0  0  0  0  0  0
   38.2140   32.6200   39.6670 C   0  0  2  0  0  3  0  0  0  0  0  0
   39.4810   32.4060   40.4600 C   0  0  1  0  0  3  0  0  0  0  0  0
   41.1020   30.9140   41.2150 O   0  0  0  0  0  0  0  0  0  0  0  0
   41.8440   30.3190   40.9080 H   0  0  0  0  0  0  0  0  0  0  0  0
   37.1590   32.7580   40.5650 O   0  0  0  0  0  0  0  0  0  0  0  0
   36.5530   31.9770   40.4950 H   0  0  0  0  0  0  0  0  0  0  0  0
   39.3090   32.6480   41.8170 O   0  0  0  0  0  0  0  0  0  0  0  0
   40.1840   32.8860   42.2150 H   0  0  0  0  0  0  0  0  0  0  0  0
   37.4300   25.4210   40.7130 C   0  0  0  0  0  0  0  0  0  0  0  0
   36.4560   24.9830   40.1800 O   0  0  0  0  0  0  0  0  0  0  0  0
   35.8490   27.5250   39.0800 Cl  0  0  0  0  0  0  0  0  0  0  0  0
   37.4590   26.9900   38.6330 C   0  0  0  0  0  0  0  0  0  0  0  0
   38.0640   26.0310   39.4830 C   0  0  0  0  0  0  0  0  0  0  0  0
   39.3160   25.7080   39.0250 C   0  0  0  0  0  0  0  0  0  0  0  0
   39.9950   26.1330   37.9750 C   0  0  0  0  0  0  0  0  0  0  0  0
   39.3490   27.0670   37.1870 C   0  0  0  0  0  0  0  0  0  0  0  0
   38.1050   27.4940   37.5030 C   0  0  0  0  0  0  0  0  0  0  0  0
   39.8860   24.9630   39.6410 H   0  0  0  0  0  0  0  0  0  0  0  0
   40.9950   25.8040   37.7040 H   0  0  0  0  0  0  0  0  0  0  0  0
   39.8910   27.4420   36.3010 H   0  0  0  0  0  0  0  0  0  0  0  0
   37.5680   28.4220   36.6470 O   0  0  0  0  0  0  0  0  0  0  0  0
   35.1430   28.5960   35.6660 O   0  0  0  0  0  0  0  0  0  0  0  0
   36.5520   28.2000   35.3110 P   0  0  0  0  0  0  0  0  0  0  0  0
   37.1400   29.1240   34.0140 O   0  0  0  0  0  0  0  0  0  0  0  0
   36.9080   30.0870   34.1610 H   0  0  0  0  0  0  0  0  0  0  0  0
   36.5730   26.5890   34.7720 O   0  0  0  0  0  0  0  0  0  0  0  0
   37.2300   26.4490   34.0440 H   0  0  0  0  0  0  0  0  0  0  0  0
  1  6  2  0  0  0  0
  1  2  1  0  0  0  0
  2  3  2  0  0  0  0
  3  4  1  0  0  0  0
  3  7  1  0  0  0  0
  5  8  1  0  0  0  0
  5  4  2  0  0  0  0
  6  5  1  0  0  0  0
  9 12  1  6  0  0  0
  9  2  1  0  0  0  0
  9 10  1  0  0  0  0
 10 13  1  0  0  0  0
 10 14  1  0  0  0  0
 11 15  1  6  0  0  0
 11  9  1  0  0  0  0
 11 10  1  0  0  0  0
 16 11  1  0  0  0  0
 17 16  1  0  0  0  0
 18 23  1  0  0  0  0
 18 24  1  1  0  0  0
 19 18  1  0  0  0  0
 19 16  1  1  0  0  0
 20 19  1  0  0  0  0
 21 20  1  0  0  0  0
 21 22  1  0  0  0  0
 22 23  1  0  0  0  0
 22 26  1  1  0  0  0
 23 28  1  1  0  0  0
 25 24  1  0  0  0  0
 27 26  1  0  0  0  0
 28 29  1  0  0  0  0
 30  1  1  0  0  0  0
 31 30  2  0  0  0  0
 33 32  1  0  0  0  0
 33 34  1  0  0  0  0
 34 30  1  0  0  0  0
 35 34  2  0  0  0  0
 35 39  1  0  0  0  0
 36 35  1  0  0  0  0
 37 38  1  0  0  0  0
 37 36  2  0  0  0  0
 38 33  2  0  0  0  0
 40 36  1  0  0  0  0
 41 37  1  0  0  0  0
 42 38  1  0  0  0  0
 44 43  2  0  0  0  0
 44 42  1  0  0  0  0
 45 46  1  0  0  0  0
 45 44  1  0  0  0  0
 47 44  1  0  0  0  0
 48 47  1  0  0  0  0
M  END
>  <minimizedAffinity>
-6.20560789

$$$$

 OpenBabel03242523273D

 48 51  0  0  1  0  0  0  0  0999 V2000
   37.4450   27.0320   41.4020 C   0  0  0  0  0  0  0  0  0  0  0  0
   36.9260   28.2440   41.4430 C   0  0  0  0  0  0  0  0  0  0  0  0
   37.3740   29.0360   42.4890 C   0  0  0  0  0  0  0  0  0  0  0  0
   38.3160   28.4680   43.3800 N   0  0  0  0  0  0  0  0  0  0  0  0
   38.7840   27.2520   43.2750 C   0  0  0  0  0  0  0  0  0  0  0  0
   38.3490   26.4460   42.2350 N   0  0  0  0  0  0  0  0  0  0  0  0
   37.0950   30.0430   42.7160 H   0  0  0  0  0  0  0  0  0  0  0  0
   39.4960   26.9630   44.0360 H   0  0  0  0  0  0  0  0  0  0  0  0
   35.8790   28.7840   40.6090 C   0  0  1  0  0  0  0  0  0  0  0  0
   35.4520   30.0670   40.5680 C   0  0  0  0  0  0  0  0  0  0  0  0
   36.3970   29.7560   39.4450 C   0  0  1  0  0  0  0  0  0  0  0  0
   35.3230   27.9330   40.1020 H   0  0  0  0  0  0  0  0  0  0  0  0
   34.4250   30.3510   40.2320 H   0  0  0  0  0  0  0  0  0  0  0  0
   35.7920   30.8200   41.3370 H   0  0  0  0  0  0  0  0  0  0  0  0
   35.9520   29.5550   38.4480 H   0  0  0  0  0  0  0  0  0  0  0  0
   37.7370   30.1890   39.5740 N   0  0  0  0  0  0  0  0  0  0  0  0
   38.4650   29.5980   39.1610 H   0  0  0  0  0  0  0  0  0  0  0  0
   39.0060   31.9280   38.3460 C   0  0  1  0  0  3  0  0  0  0  0  0
   37.8780   31.5870   39.2570 C   0  0  2  0  0  3  0  0  0  0  0  0
   37.9290   32.3240   40.4220 O   0  0  0  0  0  0  0  0  0  0  0  0
   38.4940   33.5620   40.3330 C   0  0  0  0  0  2  0  0  0  0  0  0
   39.9870   33.3740   40.1540 C   0  0  2  0  0  3  0  0  0  0  0  0
   40.2440   32.4490   38.9890 C   0  0  1  0  0  3  0  0  0  0  0  0
   39.3950   30.8610   37.5130 O   0  0  0  0  0  0  0  0  0  0  0  0
   38.7470   30.7340   36.7630 H   0  0  0  0  0  0  0  0  0  0  0  0
   40.5410   32.7990   41.2950 O   0  0  0  0  0  0  0  0  0  0  0  0
   39.8190   32.5250   41.9180 H   0  0  0  0  0  0  0  0  0  0  0  0
   41.1450   31.4380   39.2990 O   0  0  0  0  0  0  0  0  0  0  0  0
   41.5770   31.1250   38.4650 H   0  0  0  0  0  0  0  0  0  0  0  0
   37.1900   26.0150   40.3450 C   0  0  0  0  0  0  0  0  0  0  0  0
   36.7440   24.9970   39.9080 O   0  0  0  0  0  0  0  0  0  0  0  0
   35.4480   26.5940   37.8490 Cl  0  0  0  0  0  0  0  0  0  0  0  0
   37.1930   26.7820   37.8540 C   0  0  0  0  0  0  0  0  0  0  0  0
   37.8560   26.4920   39.0730 C   0  0  0  0  0  0  0  0  0  0  0  0
   39.2070   26.6870   38.9410 C   0  0  0  0  0  0  0  0  0  0  0  0
   39.9320   27.0790   37.9100 C   0  0  0  0  0  0  0  0  0  0  0  0
   39.2260   27.3460   36.7520 C   0  0  0  0  0  0  0  0  0  0  0  0
   37.8810   27.2040   36.7150 C   0  0  0  0  0  0  0  0  0  0  0  0
   39.8210   26.4970   39.8610 H   0  0  0  0  0  0  0  0  0  0  0  0
   41.0120   27.2020   37.9180 H   0  0  0  0  0  0  0  0  0  0  0  0
   39.8050   27.6770   35.8710 H   0  0  0  0  0  0  0  0  0  0  0  0
   37.2930   27.4980   35.5120 O   0  0  0  0  0  0  0  0  0  0  0  0
   35.0560   28.8040   35.1100 O   0  0  0  0  0  0  0  0  0  0  0  0
   36.5520   28.9280   34.9920 P   0  0  0  0  0  0  0  0  0  0  0  0
   37.1350   30.2200   35.9250 O   0  0  0  0  0  0  0  0  0  0  0  0
   36.7000   30.2020   36.8260 H   0  0  0  0  0  0  0  0  0  0  0  0
   36.9680   29.2980   33.3860 O   0  0  0  0  0  0  0  0  0  0  0  0
   37.7420   29.9150   33.3360 H   0  0  0  0  0  0  0  0  0  0  0  0
  1  2  2  0  0  0  0
  1  6  1  0  0  0  0
  2  3  1  0  0  0  0
  3  7  1  0  0  0  0
  3  4  2  0  0  0  0
  5  4  1  0  0  0  0
  5  8  1  0  0  0  0
  6  5  2  0  0  0  0
  9 12  1  6  0  0  0
  9  2  1  0  0  0  0
 10  9  1  0  0  0  0
 10 14  1  0  0  0  0
 11 15  1  6  0  0  0
 11 16  1  0  0  0  0
 11 10  1  0  0  0  0
 11  9  1  0  0  0  0
 13 10  1  0  0  0  0
 17 16  1  0  0  0  0
 18 24  1  1  0  0  0
 18 23  1  0  0  0  0
 18 19  1  0  0  0  0
 19 16  1  1  0  0  0
 19 20  1  0  0  0  0
 21 20  1  0  0  0  0
 22 21  1  0  0  0  0
 22 26  1  1  0  0  0
 23 28  1  1  0  0  0
 23 22  1  0  0  0  0
 25 24  1  0  0  0  0
 26 27  1  0  0  0  0
 29 28  1  0  0  0  0
 30  1  1  0  0  0  0
 31 30  2  0  0  0  0
 32 33  1  0  0  0  0
 33 34  1  0  0  0  0
 34 30  1  0  0  0  0
 35 34  2  0  0  0  0
 35 39  1  0  0  0  0
 36 40  1  0  0  0  0
 36 35  1  0  0  0  0
 37 36  2  0  0  0  0
 38 37  1  0  0  0  0
 38 33  2  0  0  0  0
 41 37  1  0  0  0  0
 42 38  1  0  0  0  0
 44 43  2  0  0  0  0
 44 42  1  0  0  0  0
 44 45  1  0  0  0  0
 45 46  1  0  0  0  0
 47 44  1  0  0  0  0
 48 47  1  0  0  0  0
M  END
>  <minimizedAffinity>
-6.12587452

$$$$
