
 OpenBabel03252503133D

 37 40  0  0  1  0  0  0  0  0999 V2000
   48.8410   29.3650   44.1840 C   0  0  0  0  0  0  0  0  0  0  0  0
   48.7300   28.0370   43.8350 C   0  0  0  0  0  0  0  0  0  0  0  0
   48.7840   27.3520   44.9920 N   0  0  0  0  0  0  0  0  0  0  0  0
   48.9260   28.2460   46.0230 C   0  0  0  0  0  0  0  0  0  0  0  0
   48.9610   29.4920   45.5190 N   0  0  0  0  0  0  0  0  0  0  0  0
   48.6210   27.6470   42.8290 H   0  0  0  0  0  0  0  0  0  0  0  0
   48.7330   26.3360   45.1340 H   0  0  0  0  0  0  0  0  0  0  0  0
   49.1900   26.5960   47.8480 C   0  0  1  0  0  3  0  0  0  0  0  0
   49.0340   28.0240   47.4910 C   0  0  1  0  0  3  0  0  0  0  0  0
   49.9670   28.8900   48.0000 O   0  0  0  0  0  0  0  0  0  0  0  0
   51.0660   28.3330   48.6040 C   0  0  0  0  0  2  0  0  0  0  0  0
   51.6280   27.2160   47.7690 C   0  0  2  0  0  3  0  0  0  0  0  0
   50.6090   26.0900   47.8340 C   0  0  1  0  0  3  0  0  0  0  0  0
   48.5450   26.3130   49.0740 O   0  0  0  0  0  0  0  0  0  0  0  0
   47.9810   27.0590   49.3760 H   0  0  0  0  0  0  0  0  0  0  0  0
   52.7950   26.7700   48.4260 O   0  0  0  0  0  0  0  0  0  0  0  0
   52.8380   25.7650   48.3970 H   0  0  0  0  0  0  0  0  0  0  0  0
   50.8310   25.4470   49.0520 O   0  0  0  0  0  0  0  0  0  0  0  0
   50.8430   24.4770   48.9990 H   0  0  0  0  0  0  0  0  0  0  0  0
   48.8340   30.5370   43.2430 C   0  0  0  0  0  0  0  0  0  0  0  0
   49.8170   31.3220   43.0970 O   0  0  0  0  0  0  0  0  0  0  0  0
   47.6710   30.4930   41.0950 C   0  0  0  0  0  0  0  0  0  0  0  0
   47.6840   30.8130   42.4570 C   0  0  0  0  0  0  0  0  0  0  0  0
   46.5140   31.4000   42.9430 C   0  0  0  0  0  0  0  0  0  0  0  0
   45.4590   31.6380   42.1540 N   0  0  0  0  0  0  0  0  0  0  0  0
   45.5000   31.3060   40.8320 C   0  0  0  0  0  0  0  0  0  0  0  0
   46.5980   30.7390   40.3140 N   0  0  0  0  0  0  0  0  0  0  0  0
   48.5540   30.0320   40.6490 H   0  0  0  0  0  0  0  0  0  0  0  0
   44.6280   31.5120   40.2230 H   0  0  0  0  0  0  0  0  0  0  0  0
   46.4500   31.7540   44.2990 C   0  0  0  0  0  0  0  0  0  0  0  0
   46.8760   32.8330   45.0230 C   0  0  0  0  0  0  0  0  0  0  0  0
   46.6890   32.9250   46.3370 C   0  0  0  0  0  0  0  0  0  0  0  0
   46.0470   31.8890   46.9500 C   0  0  0  0  0  0  0  0  0  0  0  0
   45.7060   30.7370   45.5440 S   0  0  0  0  0  0  0  0  0  0  0  0
   47.3860   33.6220   44.4320 H   0  0  0  0  0  0  0  0  0  0  0  0
   46.9960   33.7440   46.9730 H   0  0  0  0  0  0  0  0  0  0  0  0
   45.7670   31.6980   47.9700 H   0  0  0  0  0  0  0  0  0  0  0  0
  1  5  1  0  0  0  0
  2  1  2  0  0  0  0
  2  3  1  0  0  0  0
  3  7  1  0  0  0  0
  3  4  1  0  0  0  0
  5  4  2  0  0  0  0
  6  2  1  0  0  0  0
  8 14  1  1  0  0  0
  9  4  1  6  0  0  0
  9  8  1  0  0  0  0
  9 10  1  0  0  0  0
 10 11  1  0  0  0  0
 12 13  1  0  0  0  0
 12 16  1  1  0  0  0
 12 11  1  0  0  0  0
 13  8  1  0  0  0  0
 13 18  1  1  0  0  0
 14 15  1  0  0  0  0
 17 16  1  0  0  0  0
 19 18  1  0  0  0  0
 20  1  1  0  0  0  0
 21 20  2  0  0  0  0
 22 23  1  0  0  0  0
 23 24  2  0  0  0  0
 23 20  1  0  0  0  0
 24 30  1  0  0  0  0
 25 24  1  0  0  0  0
 26 25  2  0  0  0  0
 27 26  1  0  0  0  0
 27 22  2  0  0  0  0
 28 22  1  0  0  0  0
 29 26  1  0  0  0  0
 30 31  2  0  0  0  0
 30 34  1  0  0  0  0
 31 32  1  0  0  0  0
 32 33  2  0  0  0  0
 32 36  1  0  0  0  0
 33 37  1  0  0  0  0
 34 33  1  0  0  0  0
 35 31  1  0  0  0  0
M  END
>  <minimizedAffinity>
-2.83126712

>  <minimizedRMSD>
9.68075848

$$$$
