
 OpenBabel03252500423D

 31 33  0  0  1  0  0  0  0  0999 V2000
   36.1630   30.0150   38.7730 C   0  0  1  0  0  0  0  0  0  0  0  0
   35.7840   28.5430   38.6360 C   0  0  0  0  0  0  0  0  0  0  0  0
   36.0240   29.1830   39.9760 C   0  0  1  0  0  0  0  0  0  0  0  0
   35.2510   30.6370   38.5680 H   0  0  0  0  0  0  0  0  0  0  0  0
   34.7520   28.2350   38.4530 H   0  0  0  0  0  0  0  0  0  0  0  0
   36.5410   27.8540   38.2170 H   0  0  0  0  0  0  0  0  0  0  0  0
   35.1130   29.3950   40.6210 H   0  0  0  0  0  0  0  0  0  0  0  0
   37.4910   29.4580   41.9150 C   0  0  2  0  0  3  0  0  0  0  0  0
   37.1460   28.5770   40.7740 C   0  0  1  0  0  3  0  0  0  0  0  0
   36.7120   27.2980   41.1090 O   0  0  0  0  0  0  0  0  0  0  0  0
   37.4440   26.6590   42.0700 C   0  0  0  0  0  2  0  0  0  0  0  0
   37.2940   27.4450   43.3630 C   0  0  1  0  0  3  0  0  0  0  0  0
   38.0060   28.7340   43.1450 C   0  0  1  0  0  3  0  0  0  0  0  0
   36.4120   30.2950   42.2800 O   0  0  0  0  0  0  0  0  0  0  0  0
   35.7940   29.8260   42.9110 H   0  0  0  0  0  0  0  0  0  0  0  0
   35.9530   27.6130   43.6800 O   0  0  0  0  0  0  0  0  0  0  0  0
   35.6300   26.7580   44.1060 H   0  0  0  0  0  0  0  0  0  0  0  0
   39.3650   28.5310   43.0550 O   0  0  0  0  0  0  0  0  0  0  0  0
   39.6720   27.8220   43.6760 H   0  0  0  0  0  0  0  0  0  0  0  0
   37.4950   30.4110   38.2550 C   0  0  0  0  0  0  0  0  0  0  0  0
   38.2280   29.5730   38.4760 H   0  0  0  0  0  0  0  0  0  0  0  0
   37.4960   30.5330   37.1700 H   0  0  0  0  0  0  0  0  0  0  0  0
   38.0540   31.5990   38.9610 C   0  0  0  0  0  0  0  0  0  0  0  0
   37.1680   32.6330   39.1420 C   0  0  0  0  0  0  0  0  0  0  0  0
   37.5850   33.7890   39.7970 C   0  0  0  0  0  0  0  0  0  0  0  0
   38.8810   33.8140   40.2270 N   0  0  0  0  0  0  0  0  0  0  0  0
   39.7390   32.7780   40.0360 C   0  0  0  0  0  0  0  0  0  0  0  0
   39.3220   31.6780   39.4050 N   0  0  0  0  0  0  0  0  0  0  0  0
   36.1380   32.8470   38.9170 H   0  0  0  0  0  0  0  0  0  0  0  0
   37.1000   34.7090   40.0560 H   0  0  0  0  0  0  0  0  0  0  0  0
   40.7610   32.8330   40.3910 H   0  0  0  0  0  0  0  0  0  0  0  0
  1  4  1  6  0  0  0
  1  3  1  0  0  0  0
  2  1  1  0  0  0  0
  2  3  1  0  0  0  0
  3  7  1  1  0  0  0
  3  9  1  0  0  0  0
  5  2  1  0  0  0  0
  6  2  1  0  0  0  0
  8 14  1  1  0  0  0
  8 13  1  0  0  0  0
  9 10  1  1  0  0  0
  9  8  1  0  0  0  0
 10 11  1  0  0  0  0
 11 12  1  0  0  0  0
 12 16  1  6  0  0  0
 13 18  1  6  0  0  0
 13 12  1  0  0  0  0
 14 15  1  0  0  0  0
 16 17  1  0  0  0  0
 18 19  1  0  0  0  0
 20 21  1  0  0  0  0
 20  1  1  0  0  0  0
 20 23  1  0  0  0  0
 22 20  1  0  0  0  0
 23 24  2  0  0  0  0
 23 28  1  0  0  0  0
 24 25  1  0  0  0  0
 25 30  1  0  0  0  0
 25 26  2  0  0  0  0
 27 26  1  0  0  0  0
 27 31  1  0  0  0  0
 28 27  2  0  0  0  0
 29 24  1  0  0  0  0
M  END
>  <minimizedAffinity>
-5.52027655

$$$$

 OpenBabel03252500423D

 31 33  0  0  1  0  0  0  0  0999 V2000
   38.7420   28.6750   43.0100 C   0  0  1  0  0  0  0  0  0  0  0  0
   39.2810   30.1030   42.9930 C   0  0  0  0  0  0  0  0  0  0  0  0
   37.9860   29.7310   42.3220 C   0  0  1  0  0  0  0  0  0  0  0  0
   38.3450   28.4570   44.0380 H   0  0  0  0  0  0  0  0  0  0  0  0
   39.1760   30.7610   43.8580 H   0  0  0  0  0  0  0  0  0  0  0  0
   40.1770   30.3070   42.3770 H   0  0  0  0  0  0  0  0  0  0  0  0
   37.0250   30.0620   42.8290 H   0  0  0  0  0  0  0  0  0  0  0  0
   36.5500   30.1450   40.3850 C   0  0  2  0  0  3  0  0  0  0  0  0
   37.9510   29.9770   40.8380 C   0  0  1  0  0  3  0  0  0  0  0  0
   38.7890   31.0690   40.6250 O   0  0  0  0  0  0  0  0  0  0  0  0
   38.6960   31.6520   39.3930 C   0  0  0  0  0  2  0  0  0  0  0  0
   37.2980   32.2360   39.2630 C   0  0  1  0  0  3  0  0  0  0  0  0
   36.3720   31.0710   39.1970 C   0  0  1  0  0  3  0  0  0  0  0  0
   35.7020   30.5620   41.4360 O   0  0  0  0  0  0  0  0  0  0  0  0
   35.7210   31.5560   41.5380 H   0  0  0  0  0  0  0  0  0  0  0  0
   37.0240   33.0880   40.3240 O   0  0  0  0  0  0  0  0  0  0  0  0
   37.4630   33.9730   40.1260 H   0  0  0  0  0  0  0  0  0  0  0  0
   36.5380   30.3840   38.0150 O   0  0  0  0  0  0  0  0  0  0  0  0
   36.7210   30.9940   37.2570 H   0  0  0  0  0  0  0  0  0  0  0  0
   39.5180   27.6610   42.2560 C   0  0  0  0  0  0  0  0  0  0  0  0
   39.6530   28.0330   41.1920 H   0  0  0  0  0  0  0  0  0  0  0  0
   40.5240   27.5280   42.6590 H   0  0  0  0  0  0  0  0  0  0  0  0
   38.7860   26.3690   42.1140 C   0  0  0  0  0  0  0  0  0  0  0  0
   39.5740   25.2930   41.7860 C   0  0  0  0  0  0  0  0  0  0  0  0
   38.9930   24.0370   41.6360 C   0  0  0  0  0  0  0  0  0  0  0  0
   37.6430   23.9600   41.8310 N   0  0  0  0  0  0  0  0  0  0  0  0
   36.8850   25.0390   42.1550 C   0  0  0  0  0  0  0  0  0  0  0  0
   37.4600   26.2360   42.2950 N   0  0  0  0  0  0  0  0  0  0  0  0
   40.6150   25.0970   41.5960 H   0  0  0  0  0  0  0  0  0  0  0  0
   39.3790   23.0670   41.3900 H   0  0  0  0  0  0  0  0  0  0  0  0
   35.8160   24.9410   42.3040 H   0  0  0  0  0  0  0  0  0  0  0  0
  1  4  1  1  0  0  0
  2  1  1  0  0  0  0
  2  5  1  0  0  0  0
  3  7  1  1  0  0  0
  3  2  1  0  0  0  0
  3  1  1  0  0  0  0
  6  2  1  0  0  0  0
  8  9  1  0  0  0  0
  8 14  1  1  0  0  0
  9 10  1  1  0  0  0
  9  3  1  0  0  0  0
 11 10  1  0  0  0  0
 12 11  1  0  0  0  0
 12 16  1  1  0  0  0
 13 18  1  6  0  0  0
 13 12  1  0  0  0  0
 13  8  1  0  0  0  0
 14 15  1  0  0  0  0
 17 16  1  0  0  0  0
 19 18  1  0  0  0  0
 20 22  1  0  0  0  0
 20  1  1  0  0  0  0
 21 20  1  0  0  0  0
 23 20  1  0  0  0  0
 23 28  1  0  0  0  0
 24 23  2  0  0  0  0
 25 24  1  0  0  0  0
 25 26  2  0  0  0  0
 26 27  1  0  0  0  0
 27 28  2  0  0  0  0
 27 31  1  0  0  0  0
 29 24  1  0  0  0  0
 30 25  1  0  0  0  0
M  END
>  <minimizedAffinity>
-5.48094273

$$$$

 OpenBabel03252500423D

 31 33  0  0  1  0  0  0  0  0999 V2000
   37.7560   28.0670   42.8020 C   0  0  1  0  0  0  0  0  0  0  0  0
   38.4450   29.3730   43.1860 C   0  0  0  0  0  0  0  0  0  0  0  0
   37.3040   29.3320   42.2070 C   0  0  1  0  0  0  0  0  0  0  0  0
   37.1130   27.7380   43.6620 H   0  0  0  0  0  0  0  0  0  0  0  0
   38.2230   29.8790   44.1280 H   0  0  0  0  0  0  0  0  0  0  0  0
   39.4750   29.5380   42.8180 H   0  0  0  0  0  0  0  0  0  0  0  0
   36.2970   29.7160   42.5660 H   0  0  0  0  0  0  0  0  0  0  0  0
   36.4970   30.6090   40.2820 C   0  0  2  0  0  3  0  0  0  0  0  0
   37.6370   29.8350   40.8280 C   0  0  1  0  0  3  0  0  0  0  0  0
   38.8310   30.5370   40.9700 O   0  0  0  0  0  0  0  0  0  0  0  0
   39.1830   31.3220   39.9080 C   0  0  0  0  0  2  0  0  0  0  0  0
   38.1320   32.4140   39.7740 C   0  0  1  0  0  3  0  0  0  0  0  0
   36.8850   31.7300   39.3350 C   0  0  1  0  0  3  0  0  0  0  0  0
   35.6710   31.1250   41.3060 O   0  0  0  0  0  0  0  0  0  0  0  0
   36.0210   31.9980   41.6420 H   0  0  0  0  0  0  0  0  0  0  0  0
   37.9840   33.1000   40.9710 O   0  0  0  0  0  0  0  0  0  0  0  0
   38.7370   33.7660   41.0370 H   0  0  0  0  0  0  0  0  0  0  0  0
   37.0150   31.2560   38.0490 O   0  0  0  0  0  0  0  0  0  0  0  0
   37.5400   31.8740   37.4810 H   0  0  0  0  0  0  0  0  0  0  0  0
   38.5610   27.0900   42.0290 C   0  0  0  0  0  0  0  0  0  0  0  0
   39.1750   27.6600   41.2640 H   0  0  0  0  0  0  0  0  0  0  0  0
   39.2800   26.5600   42.6570 H   0  0  0  0  0  0  0  0  0  0  0  0
   37.7170   26.1630   41.2220 C   0  0  0  0  0  0  0  0  0  0  0  0
   37.3340   25.0160   41.8750 C   0  0  0  0  0  0  0  0  0  0  0  0
   36.5370   24.0840   41.2150 C   0  0  0  0  0  0  0  0  0  0  0  0
   36.1820   24.3830   39.9310 N   0  0  0  0  0  0  0  0  0  0  0  0
   36.5730   25.5240   39.3070 C   0  0  0  0  0  0  0  0  0  0  0  0
   37.3370   26.4070   39.9550 N   0  0  0  0  0  0  0  0  0  0  0  0
   37.4670   24.5700   42.8450 H   0  0  0  0  0  0  0  0  0  0  0  0
   36.1180   23.1380   41.4970 H   0  0  0  0  0  0  0  0  0  0  0  0
   36.2710   25.7290   38.2870 H   0  0  0  0  0  0  0  0  0  0  0  0
  1  2  1  0  0  0  0
  1  4  1  1  0  0  0
  2  5  1  0  0  0  0
  3  7  1  1  0  0  0
  3  1  1  0  0  0  0
  3  2  1  0  0  0  0
  6  2  1  0  0  0  0
  8  9  1  0  0  0  0
  8 14  1  1  0  0  0
  9 10  1  1  0  0  0
  9  3  1  0  0  0  0
 11 10  1  0  0  0  0
 12 11  1  0  0  0  0
 12 16  1  1  0  0  0
 13 18  1  6  0  0  0
 13 12  1  0  0  0  0
 13  8  1  0  0  0  0
 14 15  1  0  0  0  0
 16 17  1  0  0  0  0
 19 18  1  0  0  0  0
 20 22  1  0  0  0  0
 20  1  1  0  0  0  0
 21 20  1  0  0  0  0
 23 24  1  0  0  0  0
 23 20  1  0  0  0  0
 24 29  1  0  0  0  0
 25 30  1  0  0  0  0
 25 24  2  0  0  0  0
 26 25  1  0  0  0  0
 27 26  2  0  0  0  0
 27 28  1  0  0  0  0
 28 23  2  0  0  0  0
 31 27  1  0  0  0  0
M  END
>  <minimizedAffinity>
-5.43427038

$$$$

 OpenBabel03252500423D

 31 33  0  0  1  0  0  0  0  0999 V2000
   36.9040   28.8610   41.8380 C   0  0  1  0  0  0  0  0  0  0  0  0
   38.1000   29.1620   42.7380 C   0  0  0  0  0  0  0  0  0  0  0  0
   37.4700   30.2160   41.8690 C   0  0  1  0  0  0  0  0  0  0  0  0
   35.9910   28.7570   42.4840 H   0  0  0  0  0  0  0  0  0  0  0  0
   37.9800   29.3210   43.8110 H   0  0  0  0  0  0  0  0  0  0  0  0
   39.0790   28.7330   42.4520 H   0  0  0  0  0  0  0  0  0  0  0  0
   36.8360   31.0050   42.3860 H   0  0  0  0  0  0  0  0  0  0  0  0
   37.6300   31.7400   39.9610 C   0  0  2  0  0  3  0  0  0  0  0  0
   38.3890   30.8200   40.8420 C   0  0  1  0  0  3  0  0  0  0  0  0
   39.4250   31.3990   41.5690 O   0  0  0  0  0  0  0  0  0  0  0  0
   40.2330   32.2500   40.8690 C   0  0  0  0  0  2  0  0  0  0  0  0
   39.3870   33.4370   40.4340 C   0  0  1  0  0  3  0  0  0  0  0  0
   38.4320   32.9090   39.4210 C   0  0  1  0  0  3  0  0  0  0  0  0
   36.4580   32.2240   40.5870 O   0  0  0  0  0  0  0  0  0  0  0  0
   36.6590   33.0270   41.1470 H   0  0  0  0  0  0  0  0  0  0  0  0
   38.7560   34.0130   41.5270 O   0  0  0  0  0  0  0  0  0  0  0  0
   39.4280   34.6030   41.9930 H   0  0  0  0  0  0  0  0  0  0  0  0
   39.0930   32.5530   38.2660 O   0  0  0  0  0  0  0  0  0  0  0  0
   39.8360   33.1760   38.0610 H   0  0  0  0  0  0  0  0  0  0  0  0
   37.1430   27.9470   40.6950 C   0  0  0  0  0  0  0  0  0  0  0  0
   38.0830   28.2870   40.1560 H   0  0  0  0  0  0  0  0  0  0  0  0
   37.3370   26.9220   41.0190 H   0  0  0  0  0  0  0  0  0  0  0  0
   36.0680   28.0240   39.6650 C   0  0  0  0  0  0  0  0  0  0  0  0
   36.1550   27.0820   38.6680 C   0  0  0  0  0  0  0  0  0  0  0  0
   35.1960   27.0600   37.6590 C   0  0  0  0  0  0  0  0  0  0  0  0
   34.2090   28.0010   37.7320 N   0  0  0  0  0  0  0  0  0  0  0  0
   34.1440   28.9220   38.7290 C   0  0  0  0  0  0  0  0  0  0  0  0
   35.0720   28.9280   39.6880 N   0  0  0  0  0  0  0  0  0  0  0  0
   36.7990   26.2630   38.4010 H   0  0  0  0  0  0  0  0  0  0  0  0
   35.0470   26.4450   36.7940 H   0  0  0  0  0  0  0  0  0  0  0  0
   33.3450   29.6540   38.7560 H   0  0  0  0  0  0  0  0  0  0  0  0
  1  3  1  0  0  0  0
  1  4  1  1  0  0  0
  1  2  1  0  0  0  0
  2  5  1  0  0  0  0
  3  7  1  1  0  0  0
  3  2  1  0  0  0  0
  6  2  1  0  0  0  0
  8 14  1  1  0  0  0
  8  9  1  0  0  0  0
  9 10  1  1  0  0  0
  9  3  1  0  0  0  0
 11 10  1  0  0  0  0
 12 11  1  0  0  0  0
 12 16  1  1  0  0  0
 13 18  1  6  0  0  0
 13  8  1  0  0  0  0
 13 12  1  0  0  0  0
 14 15  1  0  0  0  0
 16 17  1  0  0  0  0
 19 18  1  0  0  0  0
 20 22  1  0  0  0  0
 20  1  1  0  0  0  0
 21 20  1  0  0  0  0
 23 28  1  0  0  0  0
 23 20  1  0  0  0  0
 24 23  2  0  0  0  0
 25 26  2  0  0  0  0
 25 24  1  0  0  0  0
 26 27  1  0  0  0  0
 27 31  1  0  0  0  0
 27 28  2  0  0  0  0
 29 24  1  0  0  0  0
 30 25  1  0  0  0  0
M  END
>  <minimizedAffinity>
-5.26944256

$$$$

 OpenBabel03252500423D

 31 33  0  0  1  0  0  0  0  0999 V2000
   36.3450   28.1570   40.7530 C   0  0  1  0  0  0  0  0  0  0  0  0
   35.2580   29.1280   40.3020 C   0  0  0  0  0  0  0  0  0  0  0  0
   36.7140   29.3690   40.0100 C   0  0  1  0  0  0  0  0  0  0  0  0
   36.3000   27.2440   40.0990 H   0  0  0  0  0  0  0  0  0  0  0  0
   34.6420   28.9250   39.4240 H   0  0  0  0  0  0  0  0  0  0  0  0
   34.7500   29.7280   41.0810 H   0  0  0  0  0  0  0  0  0  0  0  0
   37.0630   29.2080   38.9410 H   0  0  0  0  0  0  0  0  0  0  0  0
   38.7540   30.5610   40.6480 C   0  0  2  0  0  3  0  0  0  0  0  0
   37.2740   30.6360   40.5970 C   0  0  1  0  0  3  0  0  0  0  0  0
   36.7480   31.6660   39.8220 O   0  0  0  0  0  0  0  0  0  0  0  0
   37.3360   32.8880   39.9890 C   0  0  0  0  0  2  0  0  0  0  0  0
   38.7770   32.7760   39.5140 C   0  0  1  0  0  3  0  0  0  0  0  0
   39.4640   31.8930   40.4980 C   0  0  1  0  0  3  0  0  0  0  0  0
   39.2680   29.6460   39.7010 O   0  0  0  0  0  0  0  0  0  0  0  0
   39.3830   30.0820   38.8090 H   0  0  0  0  0  0  0  0  0  0  0  0
   38.8270   32.2860   38.2170 O   0  0  0  0  0  0  0  0  0  0  0  0
   38.6320   33.0530   37.5930 H   0  0  0  0  0  0  0  0  0  0  0  0
   39.5810   32.5220   41.7180 O   0  0  0  0  0  0  0  0  0  0  0  0
   39.7620   33.4900   41.6170 H   0  0  0  0  0  0  0  0  0  0  0  0
   36.5740   28.0420   42.2140 C   0  0  0  0  0  0  0  0  0  0  0  0
   36.9780   29.0340   42.5900 H   0  0  0  0  0  0  0  0  0  0  0  0
   35.6470   27.8670   42.7640 H   0  0  0  0  0  0  0  0  0  0  0  0
   37.6340   27.0500   42.5520 C   0  0  0  0  0  0  0  0  0  0  0  0
   38.6760   27.5480   43.2960 C   0  0  0  0  0  0  0  0  0  0  0  0
   39.7160   26.7040   43.6730 C   0  0  0  0  0  0  0  0  0  0  0  0
   39.6260   25.4030   43.2670 N   0  0  0  0  0  0  0  0  0  0  0  0
   38.5850   24.9330   42.5320 C   0  0  0  0  0  0  0  0  0  0  0  0
   37.5960   25.7580   42.1790 N   0  0  0  0  0  0  0  0  0  0  0  0
   38.9640   28.4890   43.7310 H   0  0  0  0  0  0  0  0  0  0  0  0
   40.6170   26.8460   44.2370 H   0  0  0  0  0  0  0  0  0  0  0  0
   38.5460   23.8940   42.2270 H   0  0  0  0  0  0  0  0  0  0  0  0
  1  4  1  6  0  0  0
  1 20  1  0  0  0  0
  2  1  1  0  0  0  0
  2  6  1  0  0  0  0
  3  7  1  6  0  0  0
  3  2  1  0  0  0  0
  3  9  1  0  0  0  0
  3  1  1  0  0  0  0
  5  2  1  0  0  0  0
  8 14  1  6  0  0  0
  9 10  1  6  0  0  0
  9  8  1  0  0  0  0
 10 11  1  0  0  0  0
 12 16  1  6  0  0  0
 12 11  1  0  0  0  0
 12 13  1  0  0  0  0
 13  8  1  0  0  0  0
 13 18  1  1  0  0  0
 15 14  1  0  0  0  0
 17 16  1  0  0  0  0
 19 18  1  0  0  0  0
 20 23  1  0  0  0  0
 20 21  1  0  0  0  0
 20 22  1  0  0  0  0
 23 24  1  0  0  0  0
 24 25  2  0  0  0  0
 24 29  1  0  0  0  0
 25 30  1  0  0  0  0
 26 25  1  0  0  0  0
 27 26  2  0  0  0  0
 28 27  1  0  0  0  0
 28 23  2  0  0  0  0
 31 27  1  0  0  0  0
M  END
>  <minimizedAffinity>
-5.25768518

$$$$

 OpenBabel03252500423D

 31 33  0  0  1  0  0  0  0  0999 V2000
   35.3580   29.5270   40.0530 C   0  0  1  0  0  0  0  0  0  0  0  0
   36.2680   29.5780   41.2770 C   0  0  0  0  0  0  0  0  0  0  0  0
   36.2220   30.6960   40.2710 C   0  0  1  0  0  0  0  0  0  0  0  0
   34.3010   29.7010   40.3890 H   0  0  0  0  0  0  0  0  0  0  0  0
   35.8800   29.8350   42.2650 H   0  0  0  0  0  0  0  0  0  0  0  0
   37.1400   28.8970   41.2980 H   0  0  0  0  0  0  0  0  0  0  0  0
   35.6920   31.6520   40.5800 H   0  0  0  0  0  0  0  0  0  0  0  0
   37.6950   32.4370   39.3850 C   0  0  2  0  0  3  0  0  0  0  0  0
   37.5290   30.9770   39.5800 C   0  0  1  0  0  3  0  0  0  0  0  0
   38.5000   30.3580   40.3610 O   0  0  0  0  0  0  0  0  0  0  0  0
   39.7910   30.7130   40.0880 C   0  0  0  0  0  2  0  0  0  0  0  0
   39.9440   32.1890   40.4210 C   0  0  1  0  0  3  0  0  0  0  0  0
   39.1320   32.9220   39.4100 C   0  0  1  0  0  3  0  0  0  0  0  0
   36.9320   33.1830   40.3120 O   0  0  0  0  0  0  0  0  0  0  0  0
   37.4300   33.3050   41.1690 H   0  0  0  0  0  0  0  0  0  0  0  0
   39.5430   32.4410   41.7250 O   0  0  0  0  0  0  0  0  0  0  0  0
   40.3010   32.1770   42.3350 H   0  0  0  0  0  0  0  0  0  0  0  0
   39.7020   32.8190   38.1600 O   0  0  0  0  0  0  0  0  0  0  0  0
   40.6910   32.8430   38.2040 H   0  0  0  0  0  0  0  0  0  0  0  0
   35.6790   28.5070   39.0260 C   0  0  0  0  0  0  0  0  0  0  0  0
   36.7820   28.5910   38.7720 H   0  0  0  0  0  0  0  0  0  0  0  0
   35.5310   27.4900   39.3940 H   0  0  0  0  0  0  0  0  0  0  0  0
   34.9740   28.7520   37.7350 C   0  0  0  0  0  0  0  0  0  0  0  0
   33.6070   28.8460   37.8320 C   0  0  0  0  0  0  0  0  0  0  0  0
   32.8510   29.0810   36.6870 C   0  0  0  0  0  0  0  0  0  0  0  0
   33.5400   29.2070   35.5140 N   0  0  0  0  0  0  0  0  0  0  0  0
   34.8930   29.1110   35.4440 C   0  0  0  0  0  0  0  0  0  0  0  0
   35.6020   28.8840   36.5520 N   0  0  0  0  0  0  0  0  0  0  0  0
   32.8590   28.7960   38.6040 H   0  0  0  0  0  0  0  0  0  0  0  0
   31.8010   29.1920   36.5040 H   0  0  0  0  0  0  0  0  0  0  0  0
   35.4070   29.2170   34.4960 H   0  0  0  0  0  0  0  0  0  0  0  0
  1  3  1  0  0  0  0
  1  4  1  1  0  0  0
  1  2  1  0  0  0  0
  2  6  1  0  0  0  0
  2  5  1  0  0  0  0
  3  7  1  1  0  0  0
  3  2  1  0  0  0  0
  8 13  1  0  0  0  0
  8  9  1  0  0  0  0
  8 14  1  1  0  0  0
  9  3  1  0  0  0  0
  9 10  1  1  0  0  0
 11 10  1  0  0  0  0
 11 12  1  0  0  0  0
 12 16  1  1  0  0  0
 13 18  1  6  0  0  0
 13 12  1  0  0  0  0
 14 15  1  0  0  0  0
 16 17  1  0  0  0  0
 18 19  1  0  0  0  0
 20 22  1  0  0  0  0
 20  1  1  0  0  0  0
 21 20  1  0  0  0  0
 23 24  1  0  0  0  0
 23 20  1  0  0  0  0
 24 29  1  0  0  0  0
 25 24  2  0  0  0  0
 26 25  1  0  0  0  0
 27 26  2  0  0  0  0
 27 28  1  0  0  0  0
 28 23  2  0  0  0  0
 30 25  1  0  0  0  0
 31 27  1  0  0  0  0
M  END
>  <minimizedAffinity>
-5.15102005

$$$$

 OpenBabel03252500423D

 31 33  0  0  1  0  0  0  0  0999 V2000
   36.3780   28.7400   39.2570 C   0  0  1  0  0  0  0  0  0  0  0  0
   35.8960   29.8950   38.3840 C   0  0  0  0  0  0  0  0  0  0  0  0
   37.2900   29.8500   38.9490 C   0  0  1  0  0  0  0  0  0  0  0  0
   36.5470   27.8450   38.6000 H   0  0  0  0  0  0  0  0  0  0  0  0
   35.8390   29.8030   37.2980 H   0  0  0  0  0  0  0  0  0  0  0  0
   35.1530   30.5920   38.8180 H   0  0  0  0  0  0  0  0  0  0  0  0
   38.1350   29.6110   38.2280 H   0  0  0  0  0  0  0  0  0  0  0  0
   39.0560   30.8940   40.2820 C   0  0  2  0  0  3  0  0  0  0  0  0
   37.6380   30.9940   39.8620 C   0  0  1  0  0  3  0  0  0  0  0  0
   37.2980   32.1460   39.1570 O   0  0  0  0  0  0  0  0  0  0  0  0
   37.7830   33.3160   39.6690 C   0  0  0  0  0  2  0  0  0  0  0  0
   39.3010   33.2670   39.5740 C   0  0  1  0  0  3  0  0  0  0  0  0
   39.7380   32.2240   40.5430 C   0  0  1  0  0  3  0  0  0  0  0  0
   39.8260   30.1440   39.3650 O   0  0  0  0  0  0  0  0  0  0  0  0
   40.1540   30.7210   38.6180 H   0  0  0  0  0  0  0  0  0  0  0  0
   39.7000   33.0000   38.2720 O   0  0  0  0  0  0  0  0  0  0  0  0
   39.6480   33.8620   37.7530 H   0  0  0  0  0  0  0  0  0  0  0  0
   39.5160   32.6380   41.8380 O   0  0  0  0  0  0  0  0  0  0  0  0
   39.6860   33.6080   41.9480 H   0  0  0  0  0  0  0  0  0  0  0  0
   35.7460   28.6030   40.5920 C   0  0  0  0  0  0  0  0  0  0  0  0
   35.4760   29.6410   40.9670 H   0  0  0  0  0  0  0  0  0  0  0  0
   34.8080   28.0460   40.5490 H   0  0  0  0  0  0  0  0  0  0  0  0
   36.6830   28.0620   41.6170 C   0  0  0  0  0  0  0  0  0  0  0  0
   37.0710   26.7600   41.4150 C   0  0  0  0  0  0  0  0  0  0  0  0
   37.9510   26.1580   42.3100 C   0  0  0  0  0  0  0  0  0  0  0  0
   38.3810   26.9260   43.3550 N   0  0  0  0  0  0  0  0  0  0  0  0
   37.9830   28.2120   43.5340 C   0  0  0  0  0  0  0  0  0  0  0  0
   37.1380   28.7730   42.6650 N   0  0  0  0  0  0  0  0  0  0  0  0
   36.8920   25.9790   40.6970 H   0  0  0  0  0  0  0  0  0  0  0  0
   38.3920   25.1830   42.3720 H   0  0  0  0  0  0  0  0  0  0  0  0
   38.3440   28.7920   44.3750 H   0  0  0  0  0  0  0  0  0  0  0  0
  1  4  1  6  0  0  0
  1 20  1  0  0  0  0
  2  6  1  0  0  0  0
  2  3  1  0  0  0  0
  2  1  1  0  0  0  0
  3  7  1  6  0  0  0
  3  1  1  0  0  0  0
  3  9  1  0  0  0  0
  5  2  1  0  0  0  0
  8 14  1  6  0  0  0
  8 13  1  0  0  0  0
  9 10  1  6  0  0  0
  9  8  1  0  0  0  0
 10 11  1  0  0  0  0
 12 16  1  6  0  0  0
 12 11  1  0  0  0  0
 12 13  1  0  0  0  0
 13 18  1  1  0  0  0
 15 14  1  0  0  0  0
 17 16  1  0  0  0  0
 18 19  1  0  0  0  0
 20 21  1  0  0  0  0
 20 23  1  0  0  0  0
 22 20  1  0  0  0  0
 23 28  1  0  0  0  0
 24 23  2  0  0  0  0
 24 25  1  0  0  0  0
 25 30  1  0  0  0  0
 25 26  2  0  0  0  0
 26 27  1  0  0  0  0
 27 31  1  0  0  0  0
 28 27  2  0  0  0  0
 29 24  1  0  0  0  0
M  END
>  <minimizedAffinity>
-5.04000139

$$$$

 OpenBabel03252500423D

 31 33  0  0  1  0  0  0  0  0999 V2000
   36.7890   31.0020   39.6060 C   0  0  1  0  0  0  0  0  0  0  0  0
   37.0950   32.2860   38.8390 C   0  0  0  0  0  0  0  0  0  0  0  0
   38.0030   31.0870   38.7830 C   0  0  1  0  0  0  0  0  0  0  0  0
   35.9490   30.4690   39.0840 H   0  0  0  0  0  0  0  0  0  0  0  0
   36.5910   32.5230   37.9010 H   0  0  0  0  0  0  0  0  0  0  0  0
   37.3990   33.1740   39.4250 H   0  0  0  0  0  0  0  0  0  0  0  0
   37.9970   30.4750   37.8260 H   0  0  0  0  0  0  0  0  0  0  0  0
   40.3730   30.5650   38.4660 C   0  0  2  0  0  3  0  0  0  0  0  0
   39.4010   31.3310   39.2830 C   0  0  1  0  0  3  0  0  0  0  0  0
   39.5620   32.7140   39.2730 O   0  0  0  0  0  0  0  0  0  0  0  0
   40.8450   33.1600   39.4180 C   0  0  0  0  0  2  0  0  0  0  0  0
   41.6360   32.6930   38.2060 C   0  0  1  0  0  3  0  0  0  0  0  0
   41.7380   31.2130   38.3300 C   0  0  1  0  0  3  0  0  0  0  0  0
   39.8630   30.2680   37.1820 O   0  0  0  0  0  0  0  0  0  0  0  0
   40.0240   31.0250   36.5500 H   0  0  0  0  0  0  0  0  0  0  0  0
   41.0160   33.0990   37.0320 O   0  0  0  0  0  0  0  0  0  0  0  0
   41.2580   34.0650   36.8770 H   0  0  0  0  0  0  0  0  0  0  0  0
   42.5490   30.8670   39.3880 O   0  0  0  0  0  0  0  0  0  0  0  0
   43.3140   31.4880   39.4830 H   0  0  0  0  0  0  0  0  0  0  0  0
   36.8480   31.0780   41.0850 C   0  0  0  0  0  0  0  0  0  0  0  0
   37.7290   31.7340   41.3740 H   0  0  0  0  0  0  0  0  0  0  0  0
   35.9640   31.5580   41.5090 H   0  0  0  0  0  0  0  0  0  0  0  0
   37.1370   29.7580   41.7160 C   0  0  0  0  0  0  0  0  0  0  0  0
   38.2460   29.7360   42.5260 C   0  0  0  0  0  0  0  0  0  0  0  0
   38.6030   28.5550   43.1700 C   0  0  0  0  0  0  0  0  0  0  0  0
   37.8020   27.4710   42.9480 N   0  0  0  0  0  0  0  0  0  0  0  0
   36.7090   27.5180   42.1430 C   0  0  0  0  0  0  0  0  0  0  0  0
   36.3830   28.6600   41.5320 N   0  0  0  0  0  0  0  0  0  0  0  0
   39.0030   30.4250   42.8580 H   0  0  0  0  0  0  0  0  0  0  0  0
   39.4000   28.2860   43.8350 H   0  0  0  0  0  0  0  0  0  0  0  0
   36.0960   26.6380   41.9900 H   0  0  0  0  0  0  0  0  0  0  0  0
  1  4  1  6  0  0  0
  1 20  1  0  0  0  0
  2  6  1  0  0  0  0
  2  1  1  0  0  0  0
  3  7  1  6  0  0  0
  3  2  1  0  0  0  0
  3  9  1  0  0  0  0
  3  1  1  0  0  0  0
  5  2  1  0  0  0  0
  8 14  1  6  0  0  0
  8  9  1  0  0  0  0
  9 10  1  6  0  0  0
 10 11  1  0  0  0  0
 12 16  1  6  0  0  0
 12 13  1  0  0  0  0
 12 11  1  0  0  0  0
 13  8  1  0  0  0  0
 13 18  1  1  0  0  0
 15 14  1  0  0  0  0
 17 16  1  0  0  0  0
 18 19  1  0  0  0  0
 20 21  1  0  0  0  0
 20 22  1  0  0  0  0
 20 23  1  0  0  0  0
 23 24  1  0  0  0  0
 24 29  1  0  0  0  0
 24 25  2  0  0  0  0
 25 30  1  0  0  0  0
 26 25  1  0  0  0  0
 27 26  2  0  0  0  0
 28 23  2  0  0  0  0
 28 27  1  0  0  0  0
 31 27  1  0  0  0  0
M  END
>  <minimizedAffinity>
-5.03886032

$$$$

 OpenBabel03252500423D

 31 33  0  0  1  0  0  0  0  0999 V2000
   40.0230   28.1620   42.8650 C   0  0  1  0  0  0  0  0  0  0  0  0
   40.0290   29.6670   42.6150 C   0  0  0  0  0  0  0  0  0  0  0  0
   38.7640   28.8540   42.5580 C   0  0  1  0  0  0  0  0  0  0  0  0
   40.1630   27.9840   43.9660 H   0  0  0  0  0  0  0  0  0  0  0  0
   40.0790   30.3820   43.4380 H   0  0  0  0  0  0  0  0  0  0  0  0
   40.4880   30.0290   41.6750 H   0  0  0  0  0  0  0  0  0  0  0  0
   38.0370   28.9660   43.4230 H   0  0  0  0  0  0  0  0  0  0  0  0
   36.7190   28.2560   41.3560 C   0  0  2  0  0  3  0  0  0  0  0  0
   38.0610   28.8730   41.2280 C   0  0  1  0  0  3  0  0  0  0  0  0
   38.0770   30.2040   40.8200 O   0  0  0  0  0  0  0  0  0  0  0  0
   37.2510   30.5110   39.7770 C   0  0  0  0  0  2  0  0  0  0  0  0
   35.8190   30.2900   40.2410 C   0  0  1  0  0  3  0  0  0  0  0  0
   35.6680   28.8190   40.4170 C   0  0  1  0  0  3  0  0  0  0  0  0
   36.2380   28.3090   42.6840 O   0  0  0  0  0  0  0  0  0  0  0  0
   35.7850   29.1810   42.8650 H   0  0  0  0  0  0  0  0  0  0  0  0
   35.5660   31.0050   41.4030 O   0  0  0  0  0  0  0  0  0  0  0  0
   35.3840   31.9610   41.1400 H   0  0  0  0  0  0  0  0  0  0  0  0
   35.7090   28.1760   39.2000 O   0  0  0  0  0  0  0  0  0  0  0  0
   35.2580   28.7010   38.4910 H   0  0  0  0  0  0  0  0  0  0  0  0
   40.7070   27.3150   41.8590 C   0  0  0  0  0  0  0  0  0  0  0  0
   40.7050   27.8670   40.8670 H   0  0  0  0  0  0  0  0  0  0  0  0
   41.7570   27.1460   42.1070 H   0  0  0  0  0  0  0  0  0  0  0  0
   39.9760   26.0440   41.5860 C   0  0  0  0  0  0  0  0  0  0  0  0
   39.7160   25.2780   42.6970 C   0  0  0  0  0  0  0  0  0  0  0  0
   39.0320   24.0740   42.5550 C   0  0  0  0  0  0  0  0  0  0  0  0
   38.6550   23.7300   41.2890 N   0  0  0  0  0  0  0  0  0  0  0  0
   38.9230   24.5040   40.2060 C   0  0  0  0  0  0  0  0  0  0  0  0
   39.5810   25.6560   40.3600 N   0  0  0  0  0  0  0  0  0  0  0  0
   39.8900   25.3290   43.7570 H   0  0  0  0  0  0  0  0  0  0  0  0
   38.7160   23.3170   43.2460 H   0  0  0  0  0  0  0  0  0  0  0  0
   38.6080   24.2000   39.2150 H   0  0  0  0  0  0  0  0  0  0  0  0
  1  4  1  1  0  0  0
  2  1  1  0  0  0  0
  2  5  1  0  0  0  0
  3  2  1  0  0  0  0
  3  1  1  0  0  0  0
  3  7  1  1  0  0  0
  6  2  1  0  0  0  0
  8 14  1  1  0  0  0
  9 10  1  1  0  0  0
  9  8  1  0  0  0  0
  9  3  1  0  0  0  0
 11 12  1  0  0  0  0
 11 10  1  0  0  0  0
 12 13  1  0  0  0  0
 12 16  1  1  0  0  0
 13 18  1  6  0  0  0
 13  8  1  0  0  0  0
 14 15  1  0  0  0  0
 17 16  1  0  0  0  0
 19 18  1  0  0  0  0
 20 22  1  0  0  0  0
 20  1  1  0  0  0  0
 21 20  1  0  0  0  0
 23 20  1  0  0  0  0
 23 24  1  0  0  0  0
 24 29  1  0  0  0  0
 25 24  2  0  0  0  0
 25 30  1  0  0  0  0
 26 25  1  0  0  0  0
 27 28  1  0  0  0  0
 27 26  2  0  0  0  0
 28 23  2  0  0  0  0
 31 27  1  0  0  0  0
M  END
>  <minimizedAffinity>
-5.036551

$$$$
