
 OpenBabel03252505093D

 46 49  0  0  1  0  0  0  0  0999 V2000
   36.2770   29.7660   38.3400 C   0  0  0  0  0  0  0  0  0  0  0  0
   36.9380   31.0080   38.4790 C   0  0  0  0  0  0  0  0  0  0  0  0
   37.9210   31.1110   39.5130 C   0  0  0  0  0  0  0  0  0  0  0  0
   38.1690   30.0430   40.2920 N   0  0  0  0  0  0  0  0  0  0  0  0
   37.5170   28.8770   40.1260 C   0  0  0  0  0  0  0  0  0  0  0  0
   36.5660   28.7300   39.1490 N   0  0  0  0  0  0  0  0  0  0  0  0
   35.5210   29.6190   37.5780 H   0  0  0  0  0  0  0  0  0  0  0  0
   36.6940   31.8310   37.8210 H   0  0  0  0  0  0  0  0  0  0  0  0
   37.8340   27.7350   41.0230 C   0  0  2  0  0  0  0  0  0  0  0  0
   36.8450   27.8240   42.1520 C   0  0  0  0  0  0  0  0  0  0  0  0
   37.3560   28.3300   43.4340 C   0  0  0  0  0  0  0  0  0  0  0  0
   38.5360   27.4320   43.7850 C   0  0  0  0  0  0  0  0  0  0  0  0
   39.6380   27.5810   42.8380 C   0  0  0  0  0  0  0  0  0  0  0  0
   39.2250   27.7350   41.4170 C   0  0  0  0  0  0  0  0  0  0  0  0
   37.6220   26.8270   40.4180 H   0  0  0  0  0  0  0  0  0  0  0  0
   35.9300   28.4070   41.8700 H   0  0  0  0  0  0  0  0  0  0  0  0
   36.4560   26.7940   42.3370 H   0  0  0  0  0  0  0  0  0  0  0  0
   36.5860   28.1980   44.2010 H   0  0  0  0  0  0  0  0  0  0  0  0
   37.6840   29.3810   43.3410 H   0  0  0  0  0  0  0  0  0  0  0  0
   38.1940   26.3820   43.7740 H   0  0  0  0  0  0  0  0  0  0  0  0
   38.9070   27.8000   44.7430 H   0  0  0  0  0  0  0  0  0  0  0  0
   40.6880   27.6000   42.9750 H   0  0  0  0  0  0  0  0  0  0  0  0
   40.2110   27.8930   40.3930 N   0  0  0  0  0  0  0  0  0  0  0  0
   40.2720   27.0120   39.8440 H   0  0  0  0  0  0  0  0  0  0  0  0
   40.7430   28.7820   40.2750 H   0  0  0  0  0  0  0  0  0  0  0  0
   38.6160   32.3770   39.6730 C   0  0  0  0  0  0  0  0  0  0  0  0
   37.9580   33.3980   40.2840 C   0  0  0  0  0  0  0  0  0  0  0  0
   38.6670   34.6040   40.4120 C   0  0  0  0  0  0  0  0  0  0  0  0
   39.9510   34.6380   39.9130 C   0  0  0  0  0  0  0  0  0  0  0  0
   40.6090   33.6020   39.2970 C   0  0  0  0  0  0  0  0  0  0  0  0
   39.8620   32.4680   39.2090 N   0  0  0  0  0  0  0  0  0  0  0  0
   36.9460   33.2980   40.6530 H   0  0  0  0  0  0  0  0  0  0  0  0
   38.2070   35.4590   40.8880 H   0  0  0  0  0  0  0  0  0  0  0  0
   40.4490   35.5920   40.0390 H   0  0  0  0  0  0  0  0  0  0  0  0
   42.1040   33.4010   37.3260 C   0  0  2  0  0  3  0  0  0  0  0  0
   42.0000   33.7060   38.7790 C   0  0  2  0  0  3  0  0  0  0  0  0
   42.8620   33.0960   39.6230 O   0  0  0  0  0  0  0  0  0  0  0  0
   43.5170   31.9770   39.2190 C   0  0  0  0  0  2  0  0  0  0  0  0
   44.0040   31.9830   37.7900 C   0  0  1  0  0  3  0  0  0  0  0  0
   42.7200   32.1030   36.9580 C   0  0  1  0  0  3  0  0  0  0  0  0
   42.7610   34.4000   36.5850 O   0  0  0  0  0  0  0  0  0  0  0  0
   43.1030   33.9980   35.7430 H   0  0  0  0  0  0  0  0  0  0  0  0
   44.8730   33.0240   37.5150 O   0  0  0  0  0  0  0  0  0  0  0  0
   45.0830   33.6030   38.2840 H   0  0  0  0  0  0  0  0  0  0  0  0
   41.9490   30.9990   37.2350 O   0  0  0  0  0  0  0  0  0  0  0  0
   41.4130   30.7920   36.4260 H   0  0  0  0  0  0  0  0  0  0  0  0
  1  2  2  0  0  0  0
  1  6  1  0  0  0  0
  2  3  1  0  0  0  0
  3 26  1  0  0  0  0
  3  4  2  0  0  0  0
  5  4  1  0  0  0  0
  5  9  1  0  0  0  0
  6  5  2  0  0  0  0
  7  1  1  0  0  0  0
  8  2  1  0  0  0  0
  9 15  1  6  0  0  0
  9 14  1  0  0  0  0
  9 10  1  0  0  0  0
 10 17  1  0  0  0  0
 10 11  1  0  0  0  0
 11 12  1  0  0  0  0
 11 18  1  0  0  0  0
 12 21  1  0  0  0  0
 13 22  1  0  0  0  0
 13 12  1  0  0  0  0
 14 13  2  0  0  0  0
 16 10  1  0  0  0  0
 19 11  1  0  0  0  0
 20 12  1  0  0  0  0
 23 14  1  0  0  0  0
 24 23  1  0  0  0  0
 25 23  1  0  0  0  0
 26 27  1  0  0  0  0
 27 28  2  0  0  0  0
 27 32  1  0  0  0  0
 28 33  1  0  0  0  0
 29 34  1  0  0  0  0
 29 28  1  0  0  0  0
 30 29  2  0  0  0  0
 31 30  1  0  0  0  0
 31 26  2  0  0  0  0
 35 41  1  6  0  0  0
 35 36  1  0  0  0  0
 36 30  1  1  0  0  0
 36 37  1  0  0  0  0
 38 37  1  0  0  0  0
 39 43  1  1  0  0  0
 39 38  1  0  0  0  0
 40 45  1  1  0  0  0
 40 35  1  0  0  0  0
 40 39  1  0  0  0  0
 42 41  1  0  0  0  0
 43 44  1  0  0  0  0
 46 45  1  0  0  0  0
M  END
>  <minimizedAffinity>
-7.52690983

$$$$

 OpenBabel03252505093D

 46 49  0  0  1  0  0  0  0  0999 V2000
   36.1630   25.4220   38.7620 C   0  0  0  0  0  0  0  0  0  0  0  0
   36.4940   26.7050   38.2700 C   0  0  0  0  0  0  0  0  0  0  0  0
   37.2080   27.5760   39.1520 C   0  0  0  0  0  0  0  0  0  0  0  0
   37.5270   27.1450   40.3860 N   0  0  0  0  0  0  0  0  0  0  0  0
   37.1920   25.9140   40.8140 C   0  0  0  0  0  0  0  0  0  0  0  0
   36.5070   25.0430   40.0060 N   0  0  0  0  0  0  0  0  0  0  0  0
   35.6220   24.7130   38.1460 H   0  0  0  0  0  0  0  0  0  0  0  0
   36.2100   26.9950   37.2670 H   0  0  0  0  0  0  0  0  0  0  0  0
   37.5690   25.4980   42.1920 C   0  0  2  0  0  0  0  0  0  0  0  0
   37.8810   26.7730   42.9250 C   0  0  0  0  0  0  0  0  0  0  0  0
   39.3030   27.0670   43.1560 C   0  0  0  0  0  0  0  0  0  0  0  0
   39.8570   25.8470   43.8820 C   0  0  0  0  0  0  0  0  0  0  0  0
   39.8350   24.6520   43.0410 C   0  0  0  0  0  0  0  0  0  0  0  0
   38.6290   24.5150   42.1810 C   0  0  0  0  0  0  0  0  0  0  0  0
   36.6480   25.0440   42.6170 H   0  0  0  0  0  0  0  0  0  0  0  0
   37.3990   27.6670   42.4480 H   0  0  0  0  0  0  0  0  0  0  0  0
   37.3910   26.7110   43.9260 H   0  0  0  0  0  0  0  0  0  0  0  0
   39.3830   27.9280   43.8260 H   0  0  0  0  0  0  0  0  0  0  0  0
   39.8350   27.2230   42.2000 H   0  0  0  0  0  0  0  0  0  0  0  0
   39.2410   25.6620   44.7800 H   0  0  0  0  0  0  0  0  0  0  0  0
   40.9090   26.0700   44.0650 H   0  0  0  0  0  0  0  0  0  0  0  0
   40.5260   23.8580   42.9270 H   0  0  0  0  0  0  0  0  0  0  0  0
   38.4900   23.3900   41.3080 N   0  0  0  0  0  0  0  0  0  0  0  0
   37.7720   22.7460   41.6980 H   0  0  0  0  0  0  0  0  0  0  0  0
   39.0530   23.3000   40.4350 H   0  0  0  0  0  0  0  0  0  0  0  0
   37.5630   28.9000   38.6680 C   0  0  0  0  0  0  0  0  0  0  0  0
   36.9880   29.3380   37.5160 C   0  0  0  0  0  0  0  0  0  0  0  0
   37.3640   30.6210   37.0840 C   0  0  0  0  0  0  0  0  0  0  0  0
   38.2720   31.3080   37.8620 C   0  0  0  0  0  0  0  0  0  0  0  0
   38.8480   30.8590   39.0240 C   0  0  0  0  0  0  0  0  0  0  0  0
   38.4370   29.6110   39.3800 N   0  0  0  0  0  0  0  0  0  0  0  0
   36.2800   28.7410   36.9570 H   0  0  0  0  0  0  0  0  0  0  0  0
   36.9470   31.0350   36.1770 H   0  0  0  0  0  0  0  0  0  0  0  0
   38.5250   32.2910   37.4810 H   0  0  0  0  0  0  0  0  0  0  0  0
   39.1770   32.4980   40.8590 C   0  0  2  0  0  3  0  0  0  0  0  0
   39.8240   31.6540   39.8170 C   0  0  2  0  0  3  0  0  0  0  0  0
   40.7320   32.2330   38.9990 O   0  0  0  0  0  0  0  0  0  0  0  0
   40.7580   33.5850   38.8780 C   0  0  0  0  0  2  0  0  0  0  0  0
   40.5400   34.3630   40.1540 C   0  0  1  0  0  3  0  0  0  0  0  0
   39.1300   33.9570   40.6020 C   0  0  1  0  0  3  0  0  0  0  0  0
   39.7150   32.3170   42.1460 O   0  0  0  0  0  0  0  0  0  0  0  0
   39.5070   33.1200   42.6930 H   0  0  0  0  0  0  0  0  0  0  0  0
   41.4750   34.0750   41.1330 O   0  0  0  0  0  0  0  0  0  0  0  0
   42.1700   33.4310   40.8650 H   0  0  0  0  0  0  0  0  0  0  0  0
   38.2590   34.3420   39.6100 O   0  0  0  0  0  0  0  0  0  0  0  0
   37.3870   34.5500   40.0360 H   0  0  0  0  0  0  0  0  0  0  0  0
  1  6  1  0  0  0  0
  2  1  2  0  0  0  0
  2  3  1  0  0  0  0
  3  4  2  0  0  0  0
  4  5  1  0  0  0  0
  5  9  1  0  0  0  0
  6  5  2  0  0  0  0
  7  1  1  0  0  0  0
  8  2  1  0  0  0  0
  9 15  1  1  0  0  0
  9 10  1  0  0  0  0
 10 11  1  0  0  0  0
 10 17  1  0  0  0  0
 11 18  1  0  0  0  0
 11 12  1  0  0  0  0
 12 21  1  0  0  0  0
 12 20  1  0  0  0  0
 13 12  1  0  0  0  0
 14  9  1  0  0  0  0
 14 13  2  0  0  0  0
 16 10  1  0  0  0  0
 19 11  1  0  0  0  0
 22 13  1  0  0  0  0
 23 24  1  0  0  0  0
 23 14  1  0  0  0  0
 25 23  1  0  0  0  0
 26  3  1  0  0  0  0
 26 31  1  0  0  0  0
 27 26  2  0  0  0  0
 28 27  1  0  0  0  0
 28 29  2  0  0  0  0
 29 30  1  0  0  0  0
 30 31  2  0  0  0  0
 32 27  1  0  0  0  0
 33 28  1  0  0  0  0
 34 29  1  0  0  0  0
 35 41  1  1  0  0  0
 36 30  1  6  0  0  0
 36 35  1  0  0  0  0
 37 36  1  0  0  0  0
 38 37  1  0  0  0  0
 38 39  1  0  0  0  0
 39 40  1  0  0  0  0
 39 43  1  1  0  0  0
 40 45  1  6  0  0  0
 40 35  1  0  0  0  0
 41 42  1  0  0  0  0
 44 43  1  0  0  0  0
 45 46  1  0  0  0  0
M  END
>  <minimizedAffinity>
-7.3257308

$$$$

 OpenBabel03252505093D

 46 49  0  0  1  0  0  0  0  0999 V2000
   36.3060   29.7070   37.9680 C   0  0  0  0  0  0  0  0  0  0  0  0
   36.3570   28.9230   39.1430 C   0  0  0  0  0  0  0  0  0  0  0  0
   37.2370   29.3620   40.1810 C   0  0  0  0  0  0  0  0  0  0  0  0
   37.9640   30.4790   39.9980 N   0  0  0  0  0  0  0  0  0  0  0  0
   37.8850   31.1970   38.8630 C   0  0  0  0  0  0  0  0  0  0  0  0
   37.0560   30.8170   37.8390 N   0  0  0  0  0  0  0  0  0  0  0  0
   35.6610   29.4320   37.1420 H   0  0  0  0  0  0  0  0  0  0  0  0
   35.7480   28.0330   39.2310 H   0  0  0  0  0  0  0  0  0  0  0  0
   38.7170   32.4220   38.7200 C   0  0  2  0  0  0  0  0  0  0  0  0
   40.1420   31.9470   38.7810 C   0  0  0  0  0  0  0  0  0  0  0  0
   40.8650   32.2020   40.0360 C   0  0  0  0  0  0  0  0  0  0  0  0
   40.7580   33.7030   40.2700 C   0  0  0  0  0  0  0  0  0  0  0  0
   39.3800   34.1220   40.5200 C   0  0  0  0  0  0  0  0  0  0  0  0
   38.3570   33.4290   39.6930 C   0  0  0  0  0  0  0  0  0  0  0  0
   38.4980   32.8000   37.6980 H   0  0  0  0  0  0  0  0  0  0  0  0
   40.2410   30.8620   38.5190 H   0  0  0  0  0  0  0  0  0  0  0  0
   40.7020   32.4680   37.9680 H   0  0  0  0  0  0  0  0  0  0  0  0
   41.9220   31.9530   39.8940 H   0  0  0  0  0  0  0  0  0  0  0  0
   40.4090   31.6450   40.8750 H   0  0  0  0  0  0  0  0  0  0  0  0
   41.1340   34.2270   39.3730 H   0  0  0  0  0  0  0  0  0  0  0  0
   41.3060   33.8940   41.1950 H   0  0  0  0  0  0  0  0  0  0  0  0
   38.9710   34.8330   41.1890 H   0  0  0  0  0  0  0  0  0  0  0  0
   36.9710   33.7460   39.8460 N   0  0  0  0  0  0  0  0  0  0  0  0
   36.6580   34.2990   39.0230 H   0  0  0  0  0  0  0  0  0  0  0  0
   36.4250   33.4360   40.6790 H   0  0  0  0  0  0  0  0  0  0  0  0
   37.3050   28.5730   41.4000 C   0  0  0  0  0  0  0  0  0  0  0  0
   37.2550   29.2270   42.5910 C   0  0  0  0  0  0  0  0  0  0  0  0
   37.3280   28.4240   43.7430 C   0  0  0  0  0  0  0  0  0  0  0  0
   37.4420   27.0630   43.5570 C   0  0  0  0  0  0  0  0  0  0  0  0
   37.4920   26.4100   42.3500 C   0  0  0  0  0  0  0  0  0  0  0  0
   37.4150   27.2500   41.2820 N   0  0  0  0  0  0  0  0  0  0  0  0
   37.1640   30.3020   42.6600 H   0  0  0  0  0  0  0  0  0  0  0  0
   37.2940   28.8750   44.7250 H   0  0  0  0  0  0  0  0  0  0  0  0
   37.4940   26.4940   44.4780 H   0  0  0  0  0  0  0  0  0  0  0  0
   38.9900   24.4940   41.8570 C   0  0  2  0  0  3  0  0  0  0  0  0
   37.6150   24.9340   42.2210 C   0  0  2  0  0  3  0  0  0  0  0  0
   36.5780   24.4360   41.5100 O   0  0  0  0  0  0  0  0  0  0  0  0
   36.8040   23.8820   40.2910 C   0  0  0  0  0  2  0  0  0  0  0  0
   38.0500   23.0360   40.1770 C   0  0  1  0  0  3  0  0  0  0  0  0
   39.1940   24.0160   40.4700 C   0  0  1  0  0  3  0  0  0  0  0  0
   39.5150   23.5130   42.7190 O   0  0  0  0  0  0  0  0  0  0  0  0
   40.2390   23.0260   42.2430 H   0  0  0  0  0  0  0  0  0  0  0  0
   38.0680   21.9720   41.0610 O   0  0  0  0  0  0  0  0  0  0  0  0
   37.2640   21.8870   41.6240 H   0  0  0  0  0  0  0  0  0  0  0  0
   39.1480   24.9960   39.5070 O   0  0  0  0  0  0  0  0  0  0  0  0
   40.0740   25.3230   39.3610 H   0  0  0  0  0  0  0  0  0  0  0  0
  1  2  1  0  0  0  0
  2  8  1  0  0  0  0
  2  3  2  0  0  0  0
  3 26  1  0  0  0  0
  4  3  1  0  0  0  0
  5  4  2  0  0  0  0
  6  1  2  0  0  0  0
  6  5  1  0  0  0  0
  7  1  1  0  0  0  0
  9 15  1  6  0  0  0
  9 10  1  0  0  0  0
  9  5  1  0  0  0  0
  9 14  1  0  0  0  0
 10 11  1  0  0  0  0
 11 12  1  0  0  0  0
 11 19  1  0  0  0  0
 12 13  1  0  0  0  0
 12 21  1  0  0  0  0
 13 22  1  0  0  0  0
 14 23  1  0  0  0  0
 14 13  2  0  0  0  0
 16 10  1  0  0  0  0
 17 10  1  0  0  0  0
 18 11  1  0  0  0  0
 20 12  1  0  0  0  0
 23 25  1  0  0  0  0
 24 23  1  0  0  0  0
 26 27  1  0  0  0  0
 27 32  1  0  0  0  0
 27 28  2  0  0  0  0
 28 33  1  0  0  0  0
 29 28  1  0  0  0  0
 29 34  1  0  0  0  0
 30 29  2  0  0  0  0
 31 26  2  0  0  0  0
 31 30  1  0  0  0  0
 35 36  1  0  0  0  0
 35 41  1  1  0  0  0
 36 30  1  6  0  0  0
 37 36  1  0  0  0  0
 38 37  1  0  0  0  0
 39 38  1  0  0  0  0
 39 40  1  0  0  0  0
 39 43  1  1  0  0  0
 40 45  1  6  0  0  0
 40 35  1  0  0  0  0
 42 41  1  0  0  0  0
 43 44  1  0  0  0  0
 46 45  1  0  0  0  0
M  END
>  <minimizedAffinity>
-7.148314

$$$$

 OpenBabel03252505093D

 46 49  0  0  1  0  0  0  0  0999 V2000
   41.0470   33.0500   40.5670 C   0  0  0  0  0  0  0  0  0  0  0  0
   41.3590   31.9270   41.3670 C   0  0  0  0  0  0  0  0  0  0  0  0
   40.4540   30.8210   41.3200 C   0  0  0  0  0  0  0  0  0  0  0  0
   39.3660   30.8960   40.5310 N   0  0  0  0  0  0  0  0  0  0  0  0
   39.1070   31.9840   39.7830 C   0  0  0  0  0  0  0  0  0  0  0  0
   39.9440   33.0690   39.7960 N   0  0  0  0  0  0  0  0  0  0  0  0
   41.6900   33.9220   40.5560 H   0  0  0  0  0  0  0  0  0  0  0  0
   42.2500   31.9270   41.9820 H   0  0  0  0  0  0  0  0  0  0  0  0
   37.8850   32.0060   38.9350 C   0  0  2  0  0  0  0  0  0  0  0  0
   36.8710   31.1740   39.6690 C   0  0  0  0  0  0  0  0  0  0  0  0
   36.6170   29.8280   39.1350 C   0  0  0  0  0  0  0  0  0  0  0  0
   36.2290   30.0350   37.6760 C   0  0  0  0  0  0  0  0  0  0  0  0
   37.3370   30.5680   36.8850 C   0  0  0  0  0  0  0  0  0  0  0  0
   38.1680   31.5860   37.5810 C   0  0  0  0  0  0  0  0  0  0  0  0
   37.5570   33.0690   38.9310 H   0  0  0  0  0  0  0  0  0  0  0  0
   37.1000   31.0930   40.7640 H   0  0  0  0  0  0  0  0  0  0  0  0
   35.9020   31.7270   39.6410 H   0  0  0  0  0  0  0  0  0  0  0  0
   35.7580   29.3950   39.6580 H   0  0  0  0  0  0  0  0  0  0  0  0
   37.5210   29.1960   39.2090 H   0  0  0  0  0  0  0  0  0  0  0  0
   35.3860   30.7470   37.6340 H   0  0  0  0  0  0  0  0  0  0  0  0
   36.0280   29.0370   37.2840 H   0  0  0  0  0  0  0  0  0  0  0  0
   37.6630   30.3600   35.9000 H   0  0  0  0  0  0  0  0  0  0  0  0
   39.2860   32.1820   36.9150 N   0  0  0  0  0  0  0  0  0  0  0  0
   39.0450   33.1600   36.6580 H   0  0  0  0  0  0  0  0  0  0  0  0
   40.1710   31.6540   36.7500 H   0  0  0  0  0  0  0  0  0  0  0  0
   40.7550   29.6550   42.1320 C   0  0  0  0  0  0  0  0  0  0  0  0
   41.9670   29.5940   42.7450 C   0  0  0  0  0  0  0  0  0  0  0  0
   42.2160   28.4460   43.5160 C   0  0  0  0  0  0  0  0  0  0  0  0
   41.2160   27.4990   43.5790 C   0  0  0  0  0  0  0  0  0  0  0  0
   39.9940   27.5670   42.9570 C   0  0  0  0  0  0  0  0  0  0  0  0
   39.8240   28.7050   42.2300 N   0  0  0  0  0  0  0  0  0  0  0  0
   42.7050   30.3800   42.6510 H   0  0  0  0  0  0  0  0  0  0  0  0
   43.1580   28.3290   44.0320 H   0  0  0  0  0  0  0  0  0  0  0  0
   41.4630   26.6360   44.1860 H   0  0  0  0  0  0  0  0  0  0  0  0
   39.3150   25.2640   42.3290 C   0  0  2  0  0  3  0  0  0  0  0  0
   38.9570   26.5060   43.0670 C   0  0  2  0  0  3  0  0  0  0  0  0
   37.7260   27.0310   42.8730 O   0  0  0  0  0  0  0  0  0  0  0  0
   37.0100   26.6720   41.7770 C   0  0  0  0  0  2  0  0  0  0  0  0
   37.0910   25.2150   41.3880 C   0  0  1  0  0  3  0  0  0  0  0  0
   38.5770   24.9960   41.0720 C   0  0  1  0  0  3  0  0  0  0  0  0
   39.2390   24.0990   43.1150 O   0  0  0  0  0  0  0  0  0  0  0  0
   39.1380   23.3150   42.5130 H   0  0  0  0  0  0  0  0  0  0  0  0
   36.6650   24.3600   42.3890 O   0  0  0  0  0  0  0  0  0  0  0  0
   36.3400   24.8060   43.2050 H   0  0  0  0  0  0  0  0  0  0  0  0
   38.8980   25.8270   40.0250 O   0  0  0  0  0  0  0  0  0  0  0  0
   39.6240   25.3930   39.5040 H   0  0  0  0  0  0  0  0  0  0  0  0
  1  2  1  0  0  0  0
  2  8  1  0  0  0  0
  3  2  2  0  0  0  0
  3 26  1  0  0  0  0
  4  3  1  0  0  0  0
  5  6  1  0  0  0  0
  5  4  2  0  0  0  0
  6  1  2  0  0  0  0
  7  1  1  0  0  0  0
  9 15  1  6  0  0  0
  9 10  1  0  0  0  0
  9  5  1  0  0  0  0
 10 16  1  0  0  0  0
 11 19  1  0  0  0  0
 11 18  1  0  0  0  0
 11 10  1  0  0  0  0
 12 11  1  0  0  0  0
 13 14  2  0  0  0  0
 13 12  1  0  0  0  0
 14  9  1  0  0  0  0
 17 10  1  0  0  0  0
 20 12  1  0  0  0  0
 21 12  1  0  0  0  0
 22 13  1  0  0  0  0
 23 14  1  0  0  0  0
 24 23  1  0  0  0  0
 25 23  1  0  0  0  0
 26 31  2  0  0  0  0
 26 27  1  0  0  0  0
 27 28  2  0  0  0  0
 28 29  1  0  0  0  0
 28 33  1  0  0  0  0
 29 34  1  0  0  0  0
 30 29  2  0  0  0  0
 31 30  1  0  0  0  0
 32 27  1  0  0  0  0
 35 36  1  0  0  0  0
 35 41  1  1  0  0  0
 36 30  1  6  0  0  0
 37 36  1  0  0  0  0
 38 37  1  0  0  0  0
 39 38  1  0  0  0  0
 39 43  1  1  0  0  0
 40 45  1  6  0  0  0
 40 39  1  0  0  0  0
 40 35  1  0  0  0  0
 42 41  1  0  0  0  0
 43 44  1  0  0  0  0
 46 45  1  0  0  0  0
M  END
>  <minimizedAffinity>
-6.89282084

$$$$

 OpenBabel03252505093D

 46 49  0  0  1  0  0  0  0  0999 V2000
   36.5880   29.7210   35.7660 C   0  0  0  0  0  0  0  0  0  0  0  0
   37.0880   29.8090   37.0860 C   0  0  0  0  0  0  0  0  0  0  0  0
   36.1720   29.5370   38.1490 C   0  0  0  0  0  0  0  0  0  0  0  0
   34.8990   29.2160   37.8540 N   0  0  0  0  0  0  0  0  0  0  0  0
   34.4640   29.1430   36.5830 C   0  0  0  0  0  0  0  0  0  0  0  0
   35.3040   29.3950   35.5290 N   0  0  0  0  0  0  0  0  0  0  0  0
   37.2290   29.9150   34.9140 H   0  0  0  0  0  0  0  0  0  0  0  0
   38.1240   30.0720   37.2600 H   0  0  0  0  0  0  0  0  0  0  0  0
   33.0430   28.7870   36.3220 C   0  0  2  0  0  0  0  0  0  0  0  0
   32.7990   29.1370   34.8810 C   0  0  0  0  0  0  0  0  0  0  0  0
   32.0230   30.3590   34.6240 C   0  0  0  0  0  0  0  0  0  0  0  0
   30.7190   30.1820   35.3920 C   0  0  0  0  0  0  0  0  0  0  0  0
   30.9340   30.1500   36.8370 C   0  0  0  0  0  0  0  0  0  0  0  0
   32.1520   29.4160   37.2720 C   0  0  0  0  0  0  0  0  0  0  0  0
   32.9960   27.6830   36.4460 H   0  0  0  0  0  0  0  0  0  0  0  0
   33.7490   29.1790   34.2870 H   0  0  0  0  0  0  0  0  0  0  0  0
   32.2370   28.2890   34.4220 H   0  0  0  0  0  0  0  0  0  0  0  0
   31.7860   30.4130   33.5570 H   0  0  0  0  0  0  0  0  0  0  0  0
   32.5640   31.2540   34.9830 H   0  0  0  0  0  0  0  0  0  0  0  0
   30.2530   29.2300   35.0790 H   0  0  0  0  0  0  0  0  0  0  0  0
   30.1380   31.0830   35.1910 H   0  0  0  0  0  0  0  0  0  0  0  0
   30.3790   30.5570   37.6410 H   0  0  0  0  0  0  0  0  0  0  0  0
   32.4770   29.3150   38.6610 N   0  0  0  0  0  0  0  0  0  0  0  0
   32.2850   28.3460   38.9850 H   0  0  0  0  0  0  0  0  0  0  0  0
   32.8450   30.1310   39.1990 H   0  0  0  0  0  0  0  0  0  0  0  0
   36.6630   29.6180   39.5140 C   0  0  0  0  0  0  0  0  0  0  0  0
   36.1890   28.7240   40.4220 C   0  0  0  0  0  0  0  0  0  0  0  0
   36.6900   28.8430   41.7300 C   0  0  0  0  0  0  0  0  0  0  0  0
   37.6050   29.8450   41.9660 C   0  0  0  0  0  0  0  0  0  0  0  0
   38.0790   30.7450   41.0440 C   0  0  0  0  0  0  0  0  0  0  0  0
   37.5520   30.5690   39.8020 N   0  0  0  0  0  0  0  0  0  0  0  0
   35.4690   27.9600   40.1620 H   0  0  0  0  0  0  0  0  0  0  0  0
   36.3580   28.1660   42.5040 H   0  0  0  0  0  0  0  0  0  0  0  0
   37.9560   29.8900   42.9910 H   0  0  0  0  0  0  0  0  0  0  0  0
   38.7850   33.0980   40.6850 C   0  0  2  0  0  3  0  0  0  0  0  0
   39.0710   31.8060   41.3670 C   0  0  2  0  0  3  0  0  0  0  0  0
   40.3270   31.3120   41.2960 O   0  0  0  0  0  0  0  0  0  0  0  0
   41.1720   31.7620   40.3340 C   0  0  0  0  0  2  0  0  0  0  0  0
   41.1100   33.2440   40.0480 C   0  0  1  0  0  3  0  0  0  0  0  0
   39.6730   33.4700   39.5580 C   0  0  1  0  0  3  0  0  0  0  0  0
   38.7350   34.1990   41.5590 O   0  0  0  0  0  0  0  0  0  0  0  0
   38.8950   35.0280   41.0360 H   0  0  0  0  0  0  0  0  0  0  0  0
   41.3850   34.0240   41.1570 O   0  0  0  0  0  0  0  0  0  0  0  0
   41.6120   33.5200   41.9730 H   0  0  0  0  0  0  0  0  0  0  0  0
   39.5070   32.7190   38.4190 O   0  0  0  0  0  0  0  0  0  0  0  0
   38.8460   33.1840   37.8420 H   0  0  0  0  0  0  0  0  0  0  0  0
  1  2  1  0  0  0  0
  2  8  1  0  0  0  0
  2  3  2  0  0  0  0
  3 26  1  0  0  0  0
  4  3  1  0  0  0  0
  5  4  2  0  0  0  0
  6  1  2  0  0  0  0
  6  5  1  0  0  0  0
  7  1  1  0  0  0  0
  9 15  1  1  0  0  0
  9  5  1  0  0  0  0
  9 14  1  0  0  0  0
 10  9  1  0  0  0  0
 11 10  1  0  0  0  0
 11 19  1  0  0  0  0
 11 12  1  0  0  0  0
 12 13  1  0  0  0  0
 13 14  2  0  0  0  0
 13 22  1  0  0  0  0
 14 23  1  0  0  0  0
 16 10  1  0  0  0  0
 17 10  1  0  0  0  0
 18 11  1  0  0  0  0
 20 12  1  0  0  0  0
 21 12  1  0  0  0  0
 23 24  1  0  0  0  0
 23 25  1  0  0  0  0
 26 31  2  0  0  0  0
 26 27  1  0  0  0  0
 27 28  2  0  0  0  0
 28 29  1  0  0  0  0
 28 33  1  0  0  0  0
 29 34  1  0  0  0  0
 30 29  2  0  0  0  0
 31 30  1  0  0  0  0
 32 27  1  0  0  0  0
 35 36  1  0  0  0  0
 35 41  1  1  0  0  0
 36 30  1  6  0  0  0
 37 36  1  0  0  0  0
 38 37  1  0  0  0  0
 39 38  1  0  0  0  0
 39 43  1  1  0  0  0
 40 45  1  6  0  0  0
 40 39  1  0  0  0  0
 40 35  1  0  0  0  0
 42 41  1  0  0  0  0
 43 44  1  0  0  0  0
 46 45  1  0  0  0  0
M  END
>  <minimizedAffinity>
-6.86735344

$$$$

 OpenBabel03252505093D

 46 49  0  0  1  0  0  0  0  0999 V2000
   38.3010   33.8620   40.0140 C   0  0  0  0  0  0  0  0  0  0  0  0
   37.5130   32.7380   40.3480 C   0  0  0  0  0  0  0  0  0  0  0  0
   38.1640   31.4650   40.3610 C   0  0  0  0  0  0  0  0  0  0  0  0
   39.4730   31.3950   40.0600 N   0  0  0  0  0  0  0  0  0  0  0  0
   40.1890   32.4910   39.7470 C   0  0  0  0  0  0  0  0  0  0  0  0
   39.6090   33.7330   39.7210 N   0  0  0  0  0  0  0  0  0  0  0  0
   37.8710   34.8560   39.9850 H   0  0  0  0  0  0  0  0  0  0  0  0
   36.4620   32.8590   40.5810 H   0  0  0  0  0  0  0  0  0  0  0  0
   41.6320   32.3450   39.4200 C   0  0  2  0  0  0  0  0  0  0  0  0
   42.3650   32.6390   40.6990 C   0  0  0  0  0  0  0  0  0  0  0  0
   43.0260   33.9490   40.7900 C   0  0  0  0  0  0  0  0  0  0  0  0
   43.9480   34.0250   39.5790 C   0  0  0  0  0  0  0  0  0  0  0  0
   43.2020   34.0490   38.3230 C   0  0  0  0  0  0  0  0  0  0  0  0
   42.0080   33.1620   38.2890 C   0  0  0  0  0  0  0  0  0  0  0  0
   41.7610   31.2720   39.1600 H   0  0  0  0  0  0  0  0  0  0  0  0
   41.7170   32.4960   41.6030 H   0  0  0  0  0  0  0  0  0  0  0  0
   43.1580   31.8620   40.8160 H   0  0  0  0  0  0  0  0  0  0  0  0
   43.6460   33.9730   41.6930 H   0  0  0  0  0  0  0  0  0  0  0  0
   42.2850   34.7690   40.7640 H   0  0  0  0  0  0  0  0  0  0  0  0
   44.6100   33.1400   39.5850 H   0  0  0  0  0  0  0  0  0  0  0  0
   44.4490   34.9920   39.6540 H   0  0  0  0  0  0  0  0  0  0  0  0
   43.3530   34.5870   37.4240 H   0  0  0  0  0  0  0  0  0  0  0  0
   41.1910   33.0980   37.1160 N   0  0  0  0  0  0  0  0  0  0  0  0
   41.3600   32.1930   36.6340 H   0  0  0  0  0  0  0  0  0  0  0  0
   40.5500   33.8780   36.8510 H   0  0  0  0  0  0  0  0  0  0  0  0
   37.3740   30.2950   40.7050 C   0  0  0  0  0  0  0  0  0  0  0  0
   36.0800   30.2490   40.2890 C   0  0  0  0  0  0  0  0  0  0  0  0
   35.3540   29.1010   40.6480 C   0  0  0  0  0  0  0  0  0  0  0  0
   36.0160   28.1380   41.3800 C   0  0  0  0  0  0  0  0  0  0  0  0
   37.3230   28.1920   41.7970 C   0  0  0  0  0  0  0  0  0  0  0  0
   37.9620   29.3310   41.4130 N   0  0  0  0  0  0  0  0  0  0  0  0
   35.6270   31.0450   39.7140 H   0  0  0  0  0  0  0  0  0  0  0  0
   34.3200   28.9950   40.3520 H   0  0  0  0  0  0  0  0  0  0  0  0
   35.4080   27.2770   41.6290 H   0  0  0  0  0  0  0  0  0  0  0  0
   39.4580   27.1020   42.4380 C   0  0  2  0  0  3  0  0  0  0  0  0
   37.9770   27.1150   42.5870 C   0  0  2  0  0  3  0  0  0  0  0  0
   37.3100   25.9500   42.4340 O   0  0  0  0  0  0  0  0  0  0  0  0
   37.9100   24.9130   41.7950 C   0  0  0  0  0  2  0  0  0  0  0  0
   39.3740   24.7110   42.1020 C   0  0  1  0  0  3  0  0  0  0  0  0
   40.0380   26.0090   41.6210 C   0  0  1  0  0  3  0  0  0  0  0  0
   40.1500   27.1190   43.6630 O   0  0  0  0  0  0  0  0  0  0  0  0
   41.0650   26.7610   43.5170 H   0  0  0  0  0  0  0  0  0  0  0  0
   39.6240   24.4940   43.4460 O   0  0  0  0  0  0  0  0  0  0  0  0
   38.8220   24.4690   44.0170 H   0  0  0  0  0  0  0  0  0  0  0  0
   39.8050   26.1100   40.2700 O   0  0  0  0  0  0  0  0  0  0  0  0
   40.5670   26.6010   39.8660 H   0  0  0  0  0  0  0  0  0  0  0  0
  1  2  1  0  0  0  0
  2  3  2  0  0  0  0
  2  8  1  0  0  0  0
  3 26  1  0  0  0  0
  4  3  1  0  0  0  0
  5  4  2  0  0  0  0
  6  5  1  0  0  0  0
  6  1  2  0  0  0  0
  7  1  1  0  0  0  0
  9 15  1  6  0  0  0
  9  5  1  0  0  0  0
  9 10  1  0  0  0  0
 10 11  1  0  0  0  0
 10 17  1  0  0  0  0
 10 16  1  0  0  0  0
 11 18  1  0  0  0  0
 12 20  1  0  0  0  0
 12 21  1  0  0  0  0
 12 11  1  0  0  0  0
 13 12  1  0  0  0  0
 14 13  2  0  0  0  0
 14  9  1  0  0  0  0
 19 11  1  0  0  0  0
 22 13  1  0  0  0  0
 23 14  1  0  0  0  0
 24 23  1  0  0  0  0
 25 23  1  0  0  0  0
 26 31  1  0  0  0  0
 27 28  1  0  0  0  0
 27 26  2  0  0  0  0
 28 29  2  0  0  0  0
 29 34  1  0  0  0  0
 29 30  1  0  0  0  0
 31 30  2  0  0  0  0
 32 27  1  0  0  0  0
 33 28  1  0  0  0  0
 35 36  1  0  0  0  0
 35 41  1  1  0  0  0
 36 30  1  6  0  0  0
 37 36  1  0  0  0  0
 38 39  1  0  0  0  0
 38 37  1  0  0  0  0
 39 43  1  1  0  0  0
 40 45  1  6  0  0  0
 40 39  1  0  0  0  0
 40 35  1  0  0  0  0
 42 41  1  0  0  0  0
 43 44  1  0  0  0  0
 46 45  1  0  0  0  0
M  END
>  <minimizedAffinity>
-6.78324938

$$$$

 OpenBabel03252505093D

 46 49  0  0  1  0  0  0  0  0999 V2000
   37.2090   24.4930   38.7650 C   0  0  0  0  0  0  0  0  0  0  0  0
   36.9800   25.5760   37.8860 C   0  0  0  0  0  0  0  0  0  0  0  0
   37.1930   26.8920   38.4030 C   0  0  0  0  0  0  0  0  0  0  0  0
   37.5940   27.0400   39.6790 N   0  0  0  0  0  0  0  0  0  0  0  0
   37.8010   25.9810   40.4830 C   0  0  0  0  0  0  0  0  0  0  0  0
   37.6090   24.7000   40.0340 N   0  0  0  0  0  0  0  0  0  0  0  0
   37.0660   23.4700   38.4390 H   0  0  0  0  0  0  0  0  0  0  0  0
   36.6580   25.3930   36.8690 H   0  0  0  0  0  0  0  0  0  0  0  0
   38.2390   26.2110   41.8860 C   0  0  2  0  0  0  0  0  0  0  0  0
   36.9860   26.1520   42.7130 C   0  0  0  0  0  0  0  0  0  0  0  0
   36.4550   27.4360   43.1920 C   0  0  0  0  0  0  0  0  0  0  0  0
   37.6020   28.0950   43.9490 C   0  0  0  0  0  0  0  0  0  0  0  0
   38.7160   28.4360   43.0660 C   0  0  0  0  0  0  0  0  0  0  0  0
   39.0080   27.4290   42.0110 C   0  0  0  0  0  0  0  0  0  0  0  0
   38.8850   25.3400   42.1310 H   0  0  0  0  0  0  0  0  0  0  0  0
   36.1640   25.5870   42.2000 H   0  0  0  0  0  0  0  0  0  0  0  0
   37.2100   25.5330   43.6140 H   0  0  0  0  0  0  0  0  0  0  0  0
   35.6440   27.2430   43.9020 H   0  0  0  0  0  0  0  0  0  0  0  0
   36.1340   28.0710   42.3460 H   0  0  0  0  0  0  0  0  0  0  0  0
   37.9610   27.3930   44.7230 H   0  0  0  0  0  0  0  0  0  0  0  0
   37.2040   29.0420   44.3150 H   0  0  0  0  0  0  0  0  0  0  0  0
   39.3590   29.2760   43.0370 H   0  0  0  0  0  0  0  0  0  0  0  0
   40.0730   27.6470   41.0810 N   0  0  0  0  0  0  0  0  0  0  0  0
   40.8640   27.0160   41.3180 H   0  0  0  0  0  0  0  0  0  0  0  0
   39.9940   28.3480   40.3120 H   0  0  0  0  0  0  0  0  0  0  0  0
   36.9680   28.0210   37.5160 C   0  0  0  0  0  0  0  0  0  0  0  0
   36.2320   27.8170   36.3910 C   0  0  0  0  0  0  0  0  0  0  0  0
   36.0440   28.9350   35.5620 C   0  0  0  0  0  0  0  0  0  0  0  0
   36.6160   30.1230   35.9640 C   0  0  0  0  0  0  0  0  0  0  0  0
   37.3590   30.3210   37.1020 C   0  0  0  0  0  0  0  0  0  0  0  0
   37.4980   29.1960   37.8540 N   0  0  0  0  0  0  0  0  0  0  0  0
   35.8110   26.8530   36.1400 H   0  0  0  0  0  0  0  0  0  0  0  0
   35.4690   28.8480   34.6500 H   0  0  0  0  0  0  0  0  0  0  0  0
   36.4390   30.9500   35.2870 H   0  0  0  0  0  0  0  0  0  0  0  0
   39.4220   31.5690   37.6910 C   0  0  2  0  0  3  0  0  0  0  0  0
   37.9500   31.6330   37.4770 C   0  0  2  0  0  3  0  0  0  0  0  0
   37.1940   32.2360   38.4220 O   0  0  0  0  0  0  0  0  0  0  0  0
   37.6990   32.4160   39.6700 C   0  0  0  0  0  2  0  0  0  0  0  0
   39.1520   32.8230   39.7370 C   0  0  1  0  0  3  0  0  0  0  0  0
   39.8980   31.6470   39.0920 C   0  0  1  0  0  3  0  0  0  0  0  0
   40.1420   32.5240   36.9500 O   0  0  0  0  0  0  0  0  0  0  0  0
   41.0240   32.6640   37.3860 H   0  0  0  0  0  0  0  0  0  0  0  0
   39.4170   34.0060   39.0700 O   0  0  0  0  0  0  0  0  0  0  0  0
   38.6290   34.4410   38.6680 H   0  0  0  0  0  0  0  0  0  0  0  0
   39.6400   30.5330   39.8540 O   0  0  0  0  0  0  0  0  0  0  0  0
   40.4270   29.9310   39.7890 H   0  0  0  0  0  0  0  0  0  0  0  0
  1  6  1  0  0  0  0
  2  3  1  0  0  0  0
  2  1  2  0  0  0  0
  3  4  2  0  0  0  0
  4  5  1  0  0  0  0
  5  9  1  0  0  0  0
  6  5  2  0  0  0  0
  7  1  1  0  0  0  0
  8  2  1  0  0  0  0
  9 14  1  0  0  0  0
  9 15  1  1  0  0  0
  9 10  1  0  0  0  0
 10 11  1  0  0  0  0
 10 17  1  0  0  0  0
 11 18  1  0  0  0  0
 11 12  1  0  0  0  0
 12 21  1  0  0  0  0
 12 20  1  0  0  0  0
 13 12  1  0  0  0  0
 14 13  2  0  0  0  0
 16 10  1  0  0  0  0
 19 11  1  0  0  0  0
 22 13  1  0  0  0  0
 23 24  1  0  0  0  0
 23 14  1  0  0  0  0
 25 23  1  0  0  0  0
 26 31  1  0  0  0  0
 26  3  1  0  0  0  0
 27 26  2  0  0  0  0
 28 29  2  0  0  0  0
 28 27  1  0  0  0  0
 29 30  1  0  0  0  0
 30 31  2  0  0  0  0
 32 27  1  0  0  0  0
 33 28  1  0  0  0  0
 34 29  1  0  0  0  0
 35 41  1  6  0  0  0
 35 40  1  0  0  0  0
 36 30  1  1  0  0  0
 36 35  1  0  0  0  0
 36 37  1  0  0  0  0
 37 38  1  0  0  0  0
 38 39  1  0  0  0  0
 39 43  1  6  0  0  0
 40 39  1  0  0  0  0
 40 45  1  1  0  0  0
 41 42  1  0  0  0  0
 44 43  1  0  0  0  0
 46 45  1  0  0  0  0
M  END
>  <minimizedAffinity>
-6.75107002

$$$$

 OpenBabel03252505093D

 46 49  0  0  1  0  0  0  0  0999 V2000
   36.2920   24.2380   39.5130 C   0  0  0  0  0  0  0  0  0  0  0  0
   36.7460   25.1520   40.4890 C   0  0  0  0  0  0  0  0  0  0  0  0
   36.6500   26.5440   40.1740 C   0  0  0  0  0  0  0  0  0  0  0  0
   36.1410   26.9150   38.9850 N   0  0  0  0  0  0  0  0  0  0  0  0
   35.7190   26.0100   38.0830 C   0  0  0  0  0  0  0  0  0  0  0  0
   35.7910   24.6650   38.3390 N   0  0  0  0  0  0  0  0  0  0  0  0
   36.3360   23.1690   39.6860 H   0  0  0  0  0  0  0  0  0  0  0  0
   37.1470   24.7920   41.4290 H   0  0  0  0  0  0  0  0  0  0  0  0
   35.1700   26.4840   36.7840 C   0  0  2  0  0  0  0  0  0  0  0  0
   35.8030   27.8270   36.5470 C   0  0  0  0  0  0  0  0  0  0  0  0
   34.9490   29.0030   36.7720 C   0  0  0  0  0  0  0  0  0  0  0  0
   33.7240   28.7920   35.8910 C   0  0  0  0  0  0  0  0  0  0  0  0
   32.9300   27.6430   36.3240 C   0  0  0  0  0  0  0  0  0  0  0  0
   33.7240   26.4710   36.7790 C   0  0  0  0  0  0  0  0  0  0  0  0
   35.5490   25.7600   36.0310 H   0  0  0  0  0  0  0  0  0  0  0  0
   36.7570   27.9550   37.1220 H   0  0  0  0  0  0  0  0  0  0  0  0
   36.1300   27.8580   35.4810 H   0  0  0  0  0  0  0  0  0  0  0  0
   35.4740   29.8960   36.4170 H   0  0  0  0  0  0  0  0  0  0  0  0
   34.6540   29.0800   37.8340 H   0  0  0  0  0  0  0  0  0  0  0  0
   34.0620   28.6220   34.8540 H   0  0  0  0  0  0  0  0  0  0  0  0
   33.0970   29.6700   36.0490 H   0  0  0  0  0  0  0  0  0  0  0  0
   31.8840   27.4890   36.3760 H   0  0  0  0  0  0  0  0  0  0  0  0
   33.0640   25.2850   37.2310 N   0  0  0  0  0  0  0  0  0  0  0  0
   33.1650   24.5450   36.5080 H   0  0  0  0  0  0  0  0  0  0  0  0
   32.5810   25.2440   38.1550 H   0  0  0  0  0  0  0  0  0  0  0  0
   37.1090   27.5030   41.1650 C   0  0  0  0  0  0  0  0  0  0  0  0
   37.1620   27.1090   42.4650 C   0  0  0  0  0  0  0  0  0  0  0  0
   37.6070   28.0710   43.3870 C   0  0  0  0  0  0  0  0  0  0  0  0
   37.9460   29.3120   42.8910 C   0  0  0  0  0  0  0  0  0  0  0  0
   37.8890   29.7030   41.5760 C   0  0  0  0  0  0  0  0  0  0  0  0
   37.4510   28.7210   40.7430 N   0  0  0  0  0  0  0  0  0  0  0  0
   36.8800   26.1140   42.7810 H   0  0  0  0  0  0  0  0  0  0  0  0
   37.6750   27.8290   44.4380 H   0  0  0  0  0  0  0  0  0  0  0  0
   38.2810   30.0130   43.6460 H   0  0  0  0  0  0  0  0  0  0  0  0
   37.3270   31.6160   40.0980 C   0  0  2  0  0  3  0  0  0  0  0  0
   38.2710   31.0620   41.1070 C   0  0  2  0  0  3  0  0  0  0  0  0
   39.5950   31.1110   40.8370 O   0  0  0  0  0  0  0  0  0  0  0  0
   40.0110   31.2920   39.5570 C   0  0  0  0  0  2  0  0  0  0  0  0
   39.2110   32.2770   38.7400 C   0  0  1  0  0  3  0  0  0  0  0  0
   37.8030   31.6690   38.6960 C   0  0  1  0  0  3  0  0  0  0  0  0
   36.8400   32.8960   40.4230 O   0  0  0  0  0  0  0  0  0  0  0  0
   36.5250   33.3360   39.5900 H   0  0  0  0  0  0  0  0  0  0  0  0
   39.1870   33.5470   39.2890 O   0  0  0  0  0  0  0  0  0  0  0  0
   39.7120   33.6510   40.1160 H   0  0  0  0  0  0  0  0  0  0  0  0
   37.9050   30.4470   38.0730 O   0  0  0  0  0  0  0  0  0  0  0  0
   37.0470   30.2710   37.6070 H   0  0  0  0  0  0  0  0  0  0  0  0
  1  7  1  0  0  0  0
  1  2  1  0  0  0  0
  2  8  1  0  0  0  0
  3  2  2  0  0  0  0
  3 26  1  0  0  0  0
  4  3  1  0  0  0  0
  5  6  1  0  0  0  0
  5  4  2  0  0  0  0
  6  1  2  0  0  0  0
  9 15  1  6  0  0  0
  9  5  1  0  0  0  0
 10 11  1  0  0  0  0
 10  9  1  0  0  0  0
 10 16  1  0  0  0  0
 11 19  1  0  0  0  0
 12 21  1  0  0  0  0
 12 13  1  0  0  0  0
 12 11  1  0  0  0  0
 13 22  1  0  0  0  0
 13 14  2  0  0  0  0
 14  9  1  0  0  0  0
 14 23  1  0  0  0  0
 17 10  1  0  0  0  0
 18 11  1  0  0  0  0
 20 12  1  0  0  0  0
 23 25  1  0  0  0  0
 24 23  1  0  0  0  0
 26 27  1  0  0  0  0
 27 32  1  0  0  0  0
 27 28  2  0  0  0  0
 28 33  1  0  0  0  0
 29 28  1  0  0  0  0
 29 34  1  0  0  0  0
 30 29  2  0  0  0  0
 31 26  2  0  0  0  0
 31 30  1  0  0  0  0
 35 41  1  1  0  0  0
 35 36  1  0  0  0  0
 36 30  1  6  0  0  0
 37 36  1  0  0  0  0
 38 37  1  0  0  0  0
 39 43  1  1  0  0  0
 39 38  1  0  0  0  0
 40 45  1  1  0  0  0
 40 39  1  0  0  0  0
 40 35  1  0  0  0  0
 42 41  1  0  0  0  0
 43 44  1  0  0  0  0
 46 45  1  0  0  0  0
M  END
>  <minimizedAffinity>
-6.6957078

$$$$

 OpenBabel03252505093D

 46 49  0  0  1  0  0  0  0  0999 V2000
   37.3500   32.6720   40.1110 C   0  0  0  0  0  0  0  0  0  0  0  0
   36.7190   31.4320   39.8660 C   0  0  0  0  0  0  0  0  0  0  0  0
   37.5360   30.3720   39.3630 C   0  0  0  0  0  0  0  0  0  0  0  0
   38.8450   30.5970   39.1480 N   0  0  0  0  0  0  0  0  0  0  0  0
   39.4080   31.7950   39.3950 C   0  0  0  0  0  0  0  0  0  0  0  0
   38.6650   32.8410   39.8780 N   0  0  0  0  0  0  0  0  0  0  0  0
   36.7900   33.5180   40.4920 H   0  0  0  0  0  0  0  0  0  0  0  0
   35.6600   31.3120   40.0580 H   0  0  0  0  0  0  0  0  0  0  0  0
   40.8600   31.9810   39.1340 C   0  0  2  0  0  0  0  0  0  0  0  0
   41.4350   32.5100   40.4180 C   0  0  0  0  0  0  0  0  0  0  0  0
   41.7620   33.9430   40.4490 C   0  0  0  0  0  0  0  0  0  0  0  0
   42.7020   34.1710   39.2720 C   0  0  0  0  0  0  0  0  0  0  0  0
   42.0380   33.9490   37.9890 C   0  0  0  0  0  0  0  0  0  0  0  0
   41.0910   32.8020   37.9670 C   0  0  0  0  0  0  0  0  0  0  0  0
   41.2520   30.9570   38.9490 H   0  0  0  0  0  0  0  0  0  0  0  0
   40.7930   32.2640   41.3040 H   0  0  0  0  0  0  0  0  0  0  0  0
   42.3810   31.9520   40.6140 H   0  0  0  0  0  0  0  0  0  0  0  0
   42.3100   34.1620   41.3710 H   0  0  0  0  0  0  0  0  0  0  0  0
   40.8510   34.5590   40.3420 H   0  0  0  0  0  0  0  0  0  0  0  0
   43.5520   33.4720   39.3600 H   0  0  0  0  0  0  0  0  0  0  0  0
   42.9550   35.2320   39.3030 H   0  0  0  0  0  0  0  0  0  0  0  0
   42.1050   34.4580   37.0640 H   0  0  0  0  0  0  0  0  0  0  0  0
   40.3750   32.4820   36.7700 N   0  0  0  0  0  0  0  0  0  0  0  0
   40.7780   31.6190   36.3550 H   0  0  0  0  0  0  0  0  0  0  0  0
   39.5820   33.0700   36.4320 H   0  0  0  0  0  0  0  0  0  0  0  0
   36.9090   29.0860   39.1060 C   0  0  0  0  0  0  0  0  0  0  0  0
   35.8970   29.0350   38.2000 C   0  0  0  0  0  0  0  0  0  0  0  0
   35.3180   27.7720   37.9880 C   0  0  0  0  0  0  0  0  0  0  0  0
   35.8270   26.7150   38.7110 C   0  0  0  0  0  0  0  0  0  0  0  0
   36.8500   26.7750   39.6240 C   0  0  0  0  0  0  0  0  0  0  0  0
   37.3610   28.0270   39.7770 N   0  0  0  0  0  0  0  0  0  0  0  0
   35.5500   29.9100   37.6670 H   0  0  0  0  0  0  0  0  0  0  0  0
   34.5080   27.6560   37.2810 H   0  0  0  0  0  0  0  0  0  0  0  0
   35.3430   25.7670   38.5070 H   0  0  0  0  0  0  0  0  0  0  0  0
   37.1860   25.7210   41.8460 C   0  0  2  0  0  3  0  0  0  0  0  0
   37.3520   25.5910   40.3720 C   0  0  2  0  0  3  0  0  0  0  0  0
   38.5600   25.2130   39.8970 O   0  0  0  0  0  0  0  0  0  0  0  0
   39.6580   25.3300   40.6870 C   0  0  0  0  0  2  0  0  0  0  0  0
   39.4620   24.9670   42.1400 C   0  0  1  0  0  3  0  0  0  0  0  0
   38.4140   25.9720   42.6370 C   0  0  1  0  0  3  0  0  0  0  0  0
   36.5240   24.6290   42.4380 O   0  0  0  0  0  0  0  0  0  0  0  0
   36.7550   24.6030   43.4040 H   0  0  0  0  0  0  0  0  0  0  0  0
   39.0290   23.6660   42.3220 O   0  0  0  0  0  0  0  0  0  0  0  0
   38.9330   23.1410   41.4930 H   0  0  0  0  0  0  0  0  0  0  0  0
   38.9510   27.2290   42.4890 O   0  0  0  0  0  0  0  0  0  0  0  0
   38.5670   27.8090   43.1980 H   0  0  0  0  0  0  0  0  0  0  0  0
  1  7  1  0  0  0  0
  2  8  1  0  0  0  0
  2  1  2  0  0  0  0
  3  2  1  0  0  0  0
  4  3  2  0  0  0  0
  4  5  1  0  0  0  0
  5  6  2  0  0  0  0
  6  1  1  0  0  0  0
  9 15  1  6  0  0  0
  9  5  1  0  0  0  0
  9 10  1  0  0  0  0
 10 11  1  0  0  0  0
 10 17  1  0  0  0  0
 10 16  1  0  0  0  0
 11 18  1  0  0  0  0
 12 21  1  0  0  0  0
 12 20  1  0  0  0  0
 12 11  1  0  0  0  0
 13 12  1  0  0  0  0
 14 13  2  0  0  0  0
 14  9  1  0  0  0  0
 19 11  1  0  0  0  0
 22 13  1  0  0  0  0
 23 14  1  0  0  0  0
 24 23  1  0  0  0  0
 25 23  1  0  0  0  0
 26  3  1  0  0  0  0
 26 31  1  0  0  0  0
 27 26  2  0  0  0  0
 28 27  1  0  0  0  0
 28 29  2  0  0  0  0
 29 30  1  0  0  0  0
 30 31  2  0  0  0  0
 32 27  1  0  0  0  0
 33 28  1  0  0  0  0
 34 29  1  0  0  0  0
 35 41  1  1  0  0  0
 35 40  1  0  0  0  0
 36 30  1  6  0  0  0
 36 35  1  0  0  0  0
 37 36  1  0  0  0  0
 37 38  1  0  0  0  0
 38 39  1  0  0  0  0
 39 43  1  6  0  0  0
 39 40  1  0  0  0  0
 40 45  1  6  0  0  0
 41 42  1  0  0  0  0
 44 43  1  0  0  0  0
 45 46  1  0  0  0  0
M  END
>  <minimizedAffinity>
-6.63813734

$$$$
