
     RDKit          3D

 34 35  0  0  0  0  0  0  0  0999 V2000
   44.6943   35.5180   43.6081 C   0  0  0  0  0  0  0  0  0  0  0  0
   43.9340   35.4466   42.4011 C   0  0  0  0  0  0  0  0  0  0  0  0
   43.7823   34.1718   41.8293 C   0  0  0  0  0  0  0  0  0  0  0  0
   44.3547   33.0913   42.4403 N   0  0  0  0  0  0  0  0  0  0  0  0
   45.0726   33.2158   43.5948 C   0  0  0  0  0  0  0  0  0  0  0  0
   45.2261   34.4354   44.1550 N   0  0  0  0  0  0  0  0  0  0  0  0
   44.8576   36.8303   44.2145 C   0  0  0  0  0  0  0  0  0  0  0  0
   45.2347   37.8434   43.4656 C   0  0  0  0  0  0  0  0  0  0  0  0
   45.4247   39.2135   43.9773 C   0  0  0  0  0  0  0  0  0  0  0  0
   43.5272   36.3554   42.0040 H   0  0  0  0  0  0  0  0  0  0  0  0
   43.2150   34.0992   40.9236 H   0  0  0  0  0  0  0  0  0  0  0  0
   44.6742   36.9986   45.2831 H   0  0  0  0  0  0  0  0  0  0  0  0
   45.4118   37.6503   42.4034 H   0  0  0  0  0  0  0  0  0  0  0  0
   44.4215   39.7221   43.9293 H   0  0  0  0  0  0  0  0  0  0  0  0
   46.0769   39.8010   43.3260 H   0  0  0  0  0  0  0  0  0  0  0  0
   45.7079   39.2383   45.0394 H   0  0  0  0  0  0  0  0  0  0  0  0
   44.5293   31.9567   46.3588 O   0  0  0  0  0  0  0  0  0  0  0  0
   45.7480   32.2018   45.7327 C   0  0  2  0  0  0  0  0  0  0  0  0
   45.6770   32.0331   44.2288 C   0  0  1  0  0  0  0  0  0  0  0  0
   44.9611   30.8569   44.0017 O   0  0  0  0  0  0  0  0  0  0  0  0
   45.7944   29.7939   44.3433 C   0  0  0  0  0  0  0  0  0  0  0  0
   46.2040   29.7974   45.7926 C   0  0  1  0  0  0  0  0  0  0  0  0
   47.2728   28.8977   45.9226 O   0  0  0  0  0  0  0  0  0  0  0  0
   46.7263   31.1488   46.2361 C   0  0  2  0  0  0  0  0  0  0  0  0
   46.7266   31.2102   47.6312 O   0  0  0  0  0  0  0  0  0  0  0  0
   43.8680   32.6828   46.2375 H   0  0  0  0  0  0  0  0  0  0  0  0
   46.0520   33.2236   45.9552 H   0  0  0  0  0  0  0  0  0  0  0  0
   46.7084   31.8970   43.8672 H   0  0  0  0  0  0  0  0  0  0  0  0
   45.2312   28.8349   44.1836 H   0  0  0  0  0  0  0  0  0  0  0  0
   46.6762   29.8625   43.6740 H   0  0  0  0  0  0  0  0  0  0  0  0
   45.3471   29.5575   46.4252 H   0  0  0  0  0  0  0  0  0  0  0  0
   46.8585   28.0005   46.0131 H   0  0  0  0  0  0  0  0  0  0  0  0
   47.7604   31.3506   45.8499 H   0  0  0  0  0  0  0  0  0  0  0  0
   47.4701   31.7815   47.9585 H   0  0  0  0  0  0  0  0  0  0  0  0
  1  6  2  0
  1  7  1  0
  2  1  1  0
  3  2  2  0
  3  4  1  0
  4  5  2  0
  5  6  1  0
  8  9  1  0
  8  7  2  0
  2 10  1  0
  3 11  1  0
  7 12  1  0
  8 13  1  0
  9 14  1  0
  9 15  1  0
  9 16  1  0
 17 18  1  0
 18 19  1  0
 19 20  1  0
 20 21  1  0
 21 22  1  0
 22 23  1  0
 22 24  1  0
 24 25  1  0
 24 18  1  0
 17 26  1  0
 18 27  1  6
 19 28  1  6
 21 29  1  0
 21 30  1  0
 22 31  1  1
 23 32  1  0
 24 33  1  6
 25 34  1  0
  5 19  1  0
M  ISO  5  10  14  11  14  14   8  15   8  16   8
M  END
>  <DihAtoms>  (1) 
3,4,18,17

>  <DihDeg>  (1) 
105.57629265415233

$$$$
