
 OpenBabel03252507083D

 27 28  0  0  1  0  0  0  0  0999 V2000
   44.5410   35.8170   44.5880 C   0  0  0  0  0  0  0  0  0  0  0  0
   45.1520   35.8040   43.3190 C   0  0  0  0  0  0  0  0  0  0  0  0
   46.1370   34.8520   43.0820 C   0  0  0  0  0  0  0  0  0  0  0  0
   46.4730   33.9720   44.0780 N   0  0  0  0  0  0  0  0  0  0  0  0
   45.8690   34.0160   45.2710 C   0  0  0  0  0  0  0  0  0  0  0  0
   44.9050   34.9310   45.5390 N   0  0  0  0  0  0  0  0  0  0  0  0
   43.7830   36.5650   44.7400 H   0  0  0  0  0  0  0  0  0  0  0  0
   44.8760   36.4960   42.5580 H   0  0  0  0  0  0  0  0  0  0  0  0
   45.0750   32.9160   47.2740 C   0  0  1  0  0  3  0  0  0  0  0  0
   46.2490   33.0570   46.3300 C   0  0  1  0  0  3  0  0  0  0  0  0
   46.5840   31.8040   45.8510 O   0  0  0  0  0  0  0  0  0  0  0  0
   47.0860   31.0740   46.9280 C   0  0  0  0  0  2  0  0  0  0  0  0
   45.9900   30.7700   47.9290 C   0  0  2  0  0  3  0  0  0  0  0  0
   45.4890   32.0940   48.4760 C   0  0  1  0  0  3  0  0  0  0  0  0
   44.5860   34.1670   47.6670 O   0  0  0  0  0  0  0  0  0  0  0  0
   45.3260   34.8070   47.8150 H   0  0  0  0  0  0  0  0  0  0  0  0
   46.4990   29.9760   48.9350 O   0  0  0  0  0  0  0  0  0  0  0  0
   47.2930   30.3770   49.3350 H   0  0  0  0  0  0  0  0  0  0  0  0
   46.5040   32.6730   49.2030 O   0  0  0  0  0  0  0  0  0  0  0  0
   46.7870   33.5620   48.9200 H   0  0  0  0  0  0  0  0  0  0  0  0
   46.7260   34.8610   41.8140 O   0  0  0  0  0  0  0  0  0  0  0  0
   48.6970   33.2210   41.1390 O   0  0  0  0  0  0  0  0  0  0  0  0
   48.4240   34.6070   41.6920 P   0  0  0  0  0  0  0  0  0  0  0  0
   49.0660   35.8100   40.7150 O   0  0  0  0  0  0  0  0  0  0  0  0
   49.1330   36.6330   41.2620 H   0  0  0  0  0  0  0  0  0  0  0  0
   49.0690   34.6810   43.2580 O   0  0  0  0  0  0  0  0  0  0  0  0
   49.5200   35.5660   43.4100 H   0  0  0  0  0  0  0  0  0  0  0  0
  1  7  1  0  0  0  0
  1  6  1  0  0  0  0
  2  1  2  0  0  0  0
  3  2  1  0  0  0  0
  3  4  2  0  0  0  0
  4  5  1  0  0  0  0
  5  6  2  0  0  0  0
  8  2  1  0  0  0  0
  9 15  1  1  0  0  0
  9 14  1  0  0  0  0
 10  5  1  6  0  0  0
 10  9  1  0  0  0  0
 11 10  1  0  0  0  0
 11 12  1  0  0  0  0
 12 13  1  0  0  0  0
 13 14  1  0  0  0  0
 13 17  1  1  0  0  0
 14 19  1  6  0  0  0
 15 16  1  0  0  0  0
 17 18  1  0  0  0  0
 20 19  1  0  0  0  0
 21  3  1  0  0  0  0
 22 23  2  0  0  0  0
 23 21  1  0  0  0  0
 23 26  1  0  0  0  0
 24 25  1  0  0  0  0
 24 23  1  0  0  0  0
 26 27  1  0  0  0  0
M  END
>  <minimizedAffinity>
-7.01905775

>  <minimizedRMSD>
0.529509842

$$$$
