
     RDKit          3D

 43 46  0  0  0  0  0  0  0  0999 V2000
   45.2183   36.1778   43.4898 C   0  0  0  0  0  0  0  0  0  0  0  0
   45.8561   34.9765   43.1621 C   0  0  0  0  0  0  0  0  0  0  0  0
   45.8035   33.9863   44.1441 C   0  0  0  0  0  0  0  0  0  0  0  0
   45.1840   34.1796   45.3159 N   0  0  0  0  0  0  0  0  0  0  0  0
   44.5779   35.3710   45.5835 C   0  0  0  0  0  0  0  0  0  0  0  0
   44.5982   36.3561   44.6760 N   0  0  0  0  0  0  0  0  0  0  0  0
   46.4233   32.7528   43.8916 C   0  0  0  0  0  0  0  0  0  0  0  0
   47.7038   32.2887   44.0109 C   0  0  0  0  0  0  0  0  0  0  0  0
   48.0388   31.0418   43.6922 C   0  0  0  0  0  0  0  0  0  0  0  0
   47.0474   30.2257   43.2349 C   0  0  0  0  0  0  0  0  0  0  0  0
   45.5651   31.3317   43.2737 S   0  0  0  0  0  0  0  0  0  0  0  0
   46.4959   34.8308   41.9025 C   0  0  0  0  0  0  0  0  0  0  0  0
   47.6926   35.2380   41.8300 O   0  0  0  0  0  0  0  0  0  0  0  0
   45.7546   34.2208   40.7458 C   0  0  0  0  0  0  0  0  0  0  0  0
   44.4070   34.3389   40.4861 C   0  0  0  0  0  0  0  0  0  0  0  0
   44.1921   33.6347   39.3598 N   0  0  0  0  0  0  0  0  0  0  0  0
   45.3854   33.0998   38.9443 C   0  0  0  0  0  0  0  0  0  0  0  0
   46.3510   33.4649   39.8050 N   0  0  0  0  0  0  0  0  0  0  0  0
   45.2205   36.9961   42.7676 H   0  0  0  0  0  0  0  0  0  0  0  0
   44.0857   35.4936   46.5417 H   0  0  0  0  0  0  0  0  0  0  0  0
   48.4367   33.0298   44.3923 H   0  0  0  0  0  0  0  0  0  0  0  0
   49.0272   30.6062   43.7597 H   0  0  0  0  0  0  0  0  0  0  0  0
   47.0275   29.1995   42.9120 H   0  0  0  0  0  0  0  0  0  0  0  0
   43.6870   34.8902   41.0797 H   0  0  0  0  0  0  0  0  0  0  0  0
   43.3079   33.4910   38.8577 H   0  0  0  0  0  0  0  0  0  0  0  0
   45.0268   32.0119   35.4973 O   0  0  0  0  0  0  0  0  0  0  0  0
   45.4719   32.9298   36.4762 C   0  0  1  0  0  0  0  0  0  0  0  0
   45.7070   32.2463   37.7680 C   0  0  1  0  0  0  0  0  0  0  0  0
   46.9467   31.6905   37.9521 O   0  0  0  0  0  0  0  0  0  0  0  0
   47.9113   32.0042   37.0269 C   0  0  0  0  0  0  0  0  0  0  0  0
   47.9143   33.4801   36.7366 C   0  0  1  0  0  0  0  0  0  0  0  0
   48.9867   33.7118   35.8483 O   0  0  0  0  0  0  0  0  0  0  0  0
   46.6266   33.7611   35.9795 C   0  0  1  0  0  0  0  0  0  0  0  0
   46.8706   33.3820   34.6598 O   0  0  0  0  0  0  0  0  0  0  0  0
   44.7976   31.1385   35.8856 H   0  0  0  0  0  0  0  0  0  0  0  0
   44.6072   33.6171   36.6009 H   0  0  0  0  0  0  0  0  0  0  0  0
   44.9960   31.3677   37.7766 H   0  0  0  0  0  0  0  0  0  0  0  0
   47.8102   31.4692   36.0638 H   0  0  0  0  0  0  0  0  0  0  0  0
   48.8996   31.7505   37.4625 H   0  0  0  0  0  0  0  0  0  0  0  0
   47.9875   34.1001   37.6455 H   0  0  0  0  0  0  0  0  0  0  0  0
   48.7038   34.3669   35.1368 H   0  0  0  0  0  0  0  0  0  0  0  0
   46.3943   34.8510   35.9428 H   0  0  0  0  0  0  0  0  0  0  0  0
   46.5650   34.0208   33.9943 H   0  0  0  0  0  0  0  0  0  0  0  0
  1  6  2  0
  2  1  1  0
  2  3  2  0
  3  4  1  0
  4  5  2  0
  6  5  1  0
  7  8  2  0
  7  3  1  0
  9  8  1  0
 10 11  1  0
 10  9  2  0
 11  7  1  0
 12  2  1  0
 13 12  2  0
 14 12  1  0
 15 14  2  0
 16 15  1  0
 17 16  1  0
 17 18  2  0
 18 14  1  0
  1 19  1  0
  5 20  1  0
  8 21  1  0
  9 22  1  0
 10 23  1  0
 15 24  1  0
 16 25  1  0
 26 27  1  0
 27 28  1  0
 28 29  1  0
 29 30  1  0
 30 31  1  0
 31 32  1  0
 31 33  1  0
 33 34  1  0
 33 27  1  0
 26 35  1  0
 27 36  1  1
 28 37  1  6
 30 38  1  0
 30 39  1  0
 31 40  1  1
 32 41  1  0
 33 42  1  6
 34 43  1  0
 17 28  1  0
M  ISO  7  19  14  20  14  21  14  22  14  23  14  24  14  25   9
M  END
>  <DihAtoms>  (1) 
15,16,27,26

>  <DihDeg>  (1) 
3.8545125391431783

$$$$
