REMARK  Name = 
REMARK  9 active torsions:
REMARK  status: ('A' for Active; 'I' for Inactive)
REMARK    1  A    between atoms: C_1  and  C_3
REMARK    2  A    between atoms: C_1  and  C_13
REMARK    3  A    between atoms: C_10  and  C_11
REMARK    4  A    between atoms: C_13  and  N_17
REMARK    5  A    between atoms: C_14  and  C_23
REMARK    6  A    between atoms: C_21  and  C_41
REMARK    7  A    between atoms: O_39  and  C_40
REMARK    8  A    between atoms: C_44  and  O_45
REMARK    9  A    between atoms: C_46  and  O_47
REMARK                            x       y       z     vdW  Elec       q    Type
REMARK                         _______ _______ _______ _____ _____    ______ ____
ROOT
ATOM      1  C   UNL     1      46.508  32.716  45.293  0.00  0.00    +0.000 A 
ATOM      2  C   UNL     1      47.256  31.717  44.623  0.00  0.00    +0.000 A 
ATOM      3  C   UNL     1      47.574  30.751  45.508  0.00  0.00    +0.000 A 
ATOM      4  N   UNL     1      47.047  31.128  46.685  0.00  0.00    +0.000 N 
ATOM      5  N   UNL     1      46.411  32.298  46.563  0.00  0.00    +0.000 NA
ATOM      6  H   UNL     1      47.510  31.759  43.571  0.00  0.00    +0.000 HD
ATOM      7  H   UNL     1      48.146  29.876  45.238  0.00  0.00    +0.000 HD
ENDROOT
BRANCH   1  12
ATOM      8  C   UNL     1      44.570  35.756  44.745  0.00  0.00    +0.000 A 
ATOM      9  C   UNL     1      44.987  36.189  43.479  0.00  0.00    +0.000 A 
ATOM     10  C   UNL     1      45.944  35.403  42.838  0.00  0.00    +0.000 A 
ATOM     11  N   UNL     1      46.402  34.303  43.453  0.00  0.00    +0.000 NA
ATOM     12  C   UNL     1      45.997  33.904  44.656  0.00  0.00    +0.000 A 
ATOM     13  N   UNL     1      45.074  34.642  45.300  0.00  0.00    +0.000 NA
ATOM     14  H   UNL     1      43.834  36.358  45.241  0.00  0.00    +0.000 HD
ATOM     15  H   UNL     1      44.566  37.086  43.060  0.00  0.00    +0.000 HD
BRANCH  10  17
ATOM     16  C   UNL     1      47.855  36.336  41.556  0.00  0.00    +0.000 C 
ATOM     17  C   UNL     1      46.405  35.839  41.492  0.00  0.00    +0.000 C 
ATOM     18  O   UNL     1      46.451  34.745  40.607  0.00  0.00    +0.000 OA
ATOM     19  C   UNL     1      46.682  35.215  39.338  0.00  0.00    +0.000 C 
ATOM     20  C   UNL     1      48.021  35.915  39.175  0.00  0.00    +0.000 C 
ATOM     21  C   UNL     1      48.183  36.980  40.246  0.00  0.00    +0.000 C 
BRANCH  16  22
ATOM     22  O   UNL     1      48.697  35.241  41.783  0.00  0.00    +0.000 OA
ATOM     23  H   UNL     1      48.146  34.421  41.923  0.00  0.00    +0.000 HD
ENDBRANCH  16  22
BRANCH  20  24
ATOM     24  O   UNL     1      49.088  35.018  39.260  0.00  0.00    +0.000 OA
ATOM     25  H   UNL     1      49.846  35.526  39.664  0.00  0.00    +0.000 HD
ENDBRANCH  20  24
BRANCH  21  26
ATOM     26  O   UNL     1      49.516  37.386  40.308  0.00  0.00    +0.000 OA
ATOM     27  H   UNL     1      49.639  38.303  39.969  0.00  0.00    +0.000 HD
ENDBRANCH  21  26
ENDBRANCH  10  17
ENDBRANCH   1  12
BRANCH   4  28
ATOM     28  C   UNL     1      47.149  30.378  47.922  0.00  0.00    +0.000 C 
ATOM     29  H   UNL     1      47.641  31.026  48.694  0.00  0.00    +0.000 HD
ATOM     30  H   UNL     1      47.748  29.480  47.783  0.00  0.00    +0.000 HD
BRANCH  28  31
ATOM     31  C   UNL     1      45.789  30.057  48.442  0.00  0.00    +0.000 C 
ATOM     32  H   UNL     1      45.205  30.999  48.497  0.00  0.00    +0.000 HD
ATOM     33  H   UNL     1      45.928  29.722  49.507  0.00  0.00    +0.000 HD
BRANCH  31  35
ATOM     34  C   UNL     1      45.009  27.651  48.016  0.00  0.00    +0.000 A 
ATOM     35  C   UNL     1      45.056  29.007  47.752  0.00  0.00    +0.000 A 
ATOM     36  C   UNL     1      44.294  29.445  46.668  0.00  0.00    +0.000 A 
ATOM     37  C   UNL     1      43.543  28.589  45.908  0.00  0.00    +0.000 A 
ATOM     38  N   UNL     1      42.734  28.719  44.838  0.00  0.00    +0.000 N 
ATOM     39  C   UNL     1      42.224  27.554  44.461  0.00  0.00    +0.000 A 
ATOM     40  C   UNL     1      42.699  26.553  45.312  0.00  0.00    +0.000 A 
ATOM     41  C   UNL     1      43.505  27.249  46.181  0.00  0.00    +0.000 A 
ATOM     42  C   UNL     1      44.256  26.797  47.254  0.00  0.00    +0.000 A 
ATOM     43  H   UNL     1      45.614  27.353  48.866  0.00  0.00    +0.000 HD
ATOM     44  H   UNL     1      44.248  30.490  46.357  0.00  0.00    +0.000 HD
ATOM     45  H   UNL     1      42.531  29.643  44.355  0.00  0.00    +0.000 HD
ATOM     46  H   UNL     1      41.542  27.412  43.620  0.00  0.00    +0.000 HD
ATOM     47  H   UNL     1      42.459  25.509  45.255  0.00  0.00    +0.000 HD
BRANCH  42  48
ATOM     48  C   UNL     1      44.247  25.376  47.583  0.00  0.00    +0.000 C 
ATOM     49  O   UNL     1      44.925  24.935  48.559  0.00  0.00    +0.000 OA
ATOM     50  H   UNL     1      43.657  24.671  46.996  0.00  0.00    +0.000 HD
ENDBRANCH  42  48
ENDBRANCH  31  35
ENDBRANCH  28  31
ENDBRANCH   4  28
TORSDOF 9
