
     RDKit          3D

 46 48  0  0  0  0  0  0  0  0999 V2000
   47.0656   32.6637   44.7945 C   0  0  0  0  0  0  0  0  0  0  0  0
   46.4818   34.5251   43.2933 C   0  0  0  0  0  0  0  0  0  0  0  0
   46.2726   33.8620   44.4855 C   0  0  0  0  0  0  0  0  0  0  0  0
   45.3494   34.2631   45.4129 C   0  0  0  0  0  0  0  0  0  0  0  0
   44.5931   35.3810   45.1432 C   0  0  0  0  0  0  0  0  0  0  0  0
   44.7342   36.0988   43.9862 C   0  0  0  0  0  0  0  0  0  0  0  0
   45.6932   35.6322   43.0885 C   0  0  0  0  0  0  0  0  0  0  0  0
   47.6546   34.0439   42.0854 S   0  0  0  0  0  0  0  0  0  0  0  0
   49.0003   34.7045   42.2965 O   0  0  0  0  0  0  0  0  0  0  0  0
   47.1889   34.5555   40.7405 O   0  0  0  0  0  0  0  0  0  0  0  0
   46.3300   31.6038   45.5854 C   0  0  0  0  0  0  0  0  0  0  0  0
   47.3766   32.1399   47.7787 C   0  0  0  0  0  0  0  0  0  0  0  0
   47.1698   31.2363   46.7144 C   0  0  0  0  0  0  0  0  0  0  0  0
   47.8157   29.9947   46.8184 C   0  0  0  0  0  0  0  0  0  0  0  0
   48.5806   29.7321   47.8984 N   0  0  0  0  0  0  0  0  0  0  0  0
   48.7519   30.6246   48.8940 C   0  0  0  0  0  0  0  0  0  0  0  0
   48.1546   31.8110   48.8282 N   0  0  0  0  0  0  0  0  0  0  0  0
   47.9810   33.0366   45.3420 H   0  0  0  0  0  0  0  0  0  0  0  0
   47.4788   32.1720   43.8938 H   0  0  0  0  0  0  0  0  0  0  0  0
   45.1215   33.8235   46.3495 H   0  0  0  0  0  0  0  0  0  0  0  0
   43.8322   35.7780   45.8204 H   0  0  0  0  0  0  0  0  0  0  0  0
   44.1444   36.9817   43.7613 H   0  0  0  0  0  0  0  0  0  0  0  0
   45.8389   36.1753   42.1520 H   0  0  0  0  0  0  0  0  0  0  0  0
   47.7572   32.6934   41.9415 H   0  0  0  0  0  0  0  0  0  0  0  0
   45.3250   31.8682   45.8992 H   0  0  0  0  0  0  0  0  0  0  0  0
   46.2018   30.6638   44.9684 H   0  0  0  0  0  0  0  0  0  0  0  0
   46.9195   33.1238   47.7886 H   0  0  0  0  0  0  0  0  0  0  0  0
   47.6735   29.2861   46.0175 H   0  0  0  0  0  0  0  0  0  0  0  0
   47.7576   30.3825   51.5172 O   0  0  0  0  0  0  0  0  0  0  0  0
   48.7314   29.5399   51.0380 C   0  0  1  0  0  0  0  0  0  0  0  0
   49.5985   30.3200   50.0781 C   0  0  2  0  0  0  0  0  0  0  0  0
   50.1952   31.4110   50.6354 O   0  0  0  0  0  0  0  0  0  0  0  0
   50.3534   31.3706   51.9973 C   0  0  0  0  0  0  0  0  0  0  0  0
   50.5921   30.0092   52.5846 C   0  0  1  0  0  0  0  0  0  0  0  0
   50.4585   30.1334   53.9673 O   0  0  0  0  0  0  0  0  0  0  0  0
   49.6185   28.9698   52.1160 C   0  0  1  0  0  0  0  0  0  0  0  0
   48.8303   28.4224   53.0986 O   0  0  0  0  0  0  0  0  0  0  0  0
   47.0574   29.9337   52.0404 H   0  0  0  0  0  0  0  0  0  0  0  0
   48.2801   28.7034   50.4662 H   0  0  0  0  0  0  0  0  0  0  0  0
   50.4266   29.6534   49.7075 H   0  0  0  0  0  0  0  0  0  0  0  0
   49.5040   31.8720   52.5330 H   0  0  0  0  0  0  0  0  0  0  0  0
   51.2568   31.9748   52.2527 H   0  0  0  0  0  0  0  0  0  0  0  0
   51.6591   29.6962   52.4265 H   0  0  0  0  0  0  0  0  0  0  0  0
   50.9313   29.4062   54.4512 H   0  0  0  0  0  0  0  0  0  0  0  0
   50.2119   28.1421   51.6457 H   0  0  0  0  0  0  0  0  0  0  0  0
   49.0230   28.8508   53.9525 H   0  0  0  0  0  0  0  0  0  0  0  0
  1 11  1  0
  2  3  2  0
  3  1  1  0
  3  4  1  0
  5  4  2  0
  6  5  1  0
  7  2  1  0
  7  6  2  0
  8  9  2  0
  8  2  1  0
 10  8  2  0
 11 13  1  0
 12 17  2  0
 13 14  2  0
 13 12  1  0
 14 15  1  0
 15 16  2  0
 17 16  1  0
  1 18  1  0
  1 19  1  0
  4 20  1  0
  5 21  1  0
  6 22  1  0
  7 23  1  0
  8 24  1  0
 11 25  1  0
 11 26  1  0
 12 27  1  0
 14 28  1  0
 29 30  1  0
 30 31  1  0
 31 32  1  0
 32 33  1  0
 33 34  1  0
 34 35  1  0
 34 36  1  0
 36 37  1  0
 36 30  1  0
 29 38  1  0
 30 39  1  6
 31 40  1  6
 33 41  1  0
 33 42  1  0
 34 43  1  1
 35 44  1  0
 36 45  1  6
 37 46  1  0
 16 31  1  0
M  ISO  8  18   8  19   8  20  14  21  14  22  14  23  14  24  11  25   8
M  ISO  3  26   8  27  14  28  14
M  END
>  <DihAtoms>  (1) 
14,15,30,29

>  <DihDeg>  (1) 
-98.30852052668729

$$$$
