
 OpenBabel03242521403D

 24 25  0  0  1  0  0  0  0  0999 V2000
   45.4640   35.1870   43.6180 C   0  0  0  0  0  0  0  0  0  0  0  0
   46.6450   34.6640   43.0900 C   0  0  0  0  0  0  0  0  0  0  0  0
   47.3020   33.6480   43.8190 C   0  0  0  0  0  0  0  0  0  0  0  0
   46.7350   33.2440   44.9980 N   0  0  0  0  0  0  0  0  0  0  0  0
   45.5870   33.7850   45.4640 C   0  0  0  0  0  0  0  0  0  0  0  0
   44.9530   34.7520   44.7800 N   0  0  0  0  0  0  0  0  0  0  0  0
   47.0830   34.9980   42.1490 H   0  0  0  0  0  0  0  0  0  0  0  0
   45.1870   33.4170   46.4120 H   0  0  0  0  0  0  0  0  0  0  0  0
   48.2130   32.1620   42.1540 C   0  0  1  0  0  3  0  0  0  0  0  0
   48.5630   33.0360   43.3300 C   0  0  1  0  0  3  0  0  0  0  0  0
   49.3810   34.0460   42.8720 O   0  0  0  0  0  0  0  0  0  0  0  0
   50.5880   33.6440   42.3720 C   0  0  0  0  0  2  0  0  0  0  0  0
   50.5680   32.5490   41.3700 C   0  0  2  0  0  3  0  0  0  0  0  0
   49.4380   31.5770   41.5040 C   0  0  2  0  0  3  0  0  0  0  0  0
   47.3510   31.1610   42.5580 O   0  0  0  0  0  0  0  0  0  0  0  0
   47.3600   30.3960   41.9470 H   0  0  0  0  0  0  0  0  0  0  0  0
   51.7490   31.8220   41.5200 O   0  0  0  0  0  0  0  0  0  0  0  0
   51.6960   30.9640   41.0230 H   0  0  0  0  0  0  0  0  0  0  0  0
   49.0640   31.1300   40.2370 O   0  0  0  0  0  0  0  0  0  0  0  0
   48.1170   30.9450   40.1330 H   0  0  0  0  0  0  0  0  0  0  0  0
   44.7850   36.2660   42.8250 C   0  0  0  0  0  0  0  0  0  0  0  0
   43.8880   35.7780   42.3560 H   0  0  0  0  0  0  0  0  0  0  0  0
   45.4610   36.7140   42.1020 H   0  0  0  0  0  0  0  0  0  0  0  0
   44.3480   37.0130   43.5350 H   0  0  0  0  0  0  0  0  0  0  0  0
  1  6  1  0  0  0  0
  2  1  2  0  0  0  0
  2  3  1  0  0  0  0
  3  4  2  0  0  0  0
  4  5  1  0  0  0  0
  5  8  1  0  0  0  0
  6  5  2  0  0  0  0
  7  2  1  0  0  0  0
  9 15  1  1  0  0  0
  9 10  1  0  0  0  0
 10  3  1  6  0  0  0
 11 10  1  0  0  0  0
 12 11  1  0  0  0  0
 13 14  1  0  0  0  0
 13 17  1  1  0  0  0
 13 12  1  0  0  0  0
 14 19  1  6  0  0  0
 14  9  1  0  0  0  0
 16 15  1  0  0  0  0
 18 17  1  0  0  0  0
 20 19  1  0  0  0  0
 21 24  1  0  0  0  0
 21  1  1  0  0  0  0
 22 21  1  0  0  0  0
 23 21  1  0  0  0  0
M  END
>  <minimizedAffinity>
-4.26907539

>  <minimizedRMSD>
2.21118474

$$$$
