
 OpenBabel03242510283D

 21 22  0  0  1  0  0  0  0  0999 V2000
   37.2710   29.8720   41.8160 C   0  0  1  0  0  3  0  0  0  0  0  0
   37.8410   28.7430   41.0210 C   0  0  2  0  0  3  0  0  0  0  0  0
   36.8530   28.0280   40.3320 O   0  0  0  0  0  0  0  0  0  0  0  0
   36.4370   28.8920   39.3150 C   0  0  0  0  0  2  0  0  0  0  0  0
   35.5910   29.9660   39.9390 C   0  0  2  0  0  3  0  0  0  0  0  0
   36.2220   30.6540   41.1070 C   0  0  2  0  0  3  0  0  0  0  0  0
   39.0110   25.5800   42.7390 C   0  0  0  0  0  0  0  0  0  0  0  0
   38.2730   26.4130   41.8840 C   0  0  0  0  0  0  0  0  0  0  0  0
   38.5710   27.7930   41.8920 C   0  0  0  0  0  0  0  0  0  0  0  0
   39.5520   28.2360   42.7250 N   0  0  0  0  0  0  0  0  0  0  0  0
   40.2410   27.3890   43.5370 C   0  0  0  0  0  0  0  0  0  0  0  0
   39.9660   26.0650   43.5390 N   0  0  0  0  0  0  0  0  0  0  0  0
   38.7710   24.5250   42.7220 H   0  0  0  0  0  0  0  0  0  0  0  0
   37.4980   26.0410   41.2310 H   0  0  0  0  0  0  0  0  0  0  0  0
   41.0240   27.7270   44.2040 H   0  0  0  0  0  0  0  0  0  0  0  0
   36.8230   29.4430   43.0880 O   0  0  0  0  0  0  0  0  0  0  0  0
   36.6860   30.2390   43.6630 H   0  0  0  0  0  0  0  0  0  0  0  0
   34.3840   29.3420   40.3000 O   0  0  0  0  0  0  0  0  0  0  0  0
   34.5100   28.3670   40.4580 H   0  0  0  0  0  0  0  0  0  0  0  0
   36.6720   31.9500   40.7980 O   0  0  0  0  0  0  0  0  0  0  0  0
   37.1460   32.0020   39.9490 H   0  0  0  0  0  0  0  0  0  0  0  0
  1 16  1  1  0  0  0
  2  1  1  0  0  0  0
  2  9  1  1  0  0  0
  3  2  1  0  0  0  0
  4  5  1  0  0  0  0
  4  3  1  0  0  0  0
  5 18  1  1  0  0  0
  5  6  1  0  0  0  0
  6 20  1  6  0  0  0
  6  1  1  0  0  0  0
  7 12  1  0  0  0  0
  8  9  1  0  0  0  0
  8  7  2  0  0  0  0
  9 10  2  0  0  0  0
 10 11  1  0  0  0  0
 11 12  2  0  0  0  0
 11 15  1  0  0  0  0
 13  7  1  0  0  0  0
 14  8  1  0  0  0  0
 16 17  1  0  0  0  0
 18 19  1  0  0  0  0
 21 20  1  0  0  0  0
M  END
>  <minimizedAffinity>
-5.08584309

$$$$

 OpenBabel03242510283D

 21 22  0  0  1  0  0  0  0  0999 V2000
   36.9810   31.4600   40.7880 C   0  0  1  0  0  3  0  0  0  0  0  0
   38.0980   30.4680   40.8120 C   0  0  2  0  0  3  0  0  0  0  0  0
   38.4580   30.0440   39.5260 O   0  0  0  0  0  0  0  0  0  0  0  0
   39.0920   31.1510   38.9550 C   0  0  0  0  0  2  0  0  0  0  0  0
   38.0350   32.1610   38.6070 C   0  0  2  0  0  3  0  0  0  0  0  0
   37.1060   32.4990   39.7290 C   0  0  2  0  0  3  0  0  0  0  0  0
   37.5190   28.0670   43.6800 C   0  0  0  0  0  0  0  0  0  0  0  0
   37.8920   29.2390   43.0050 C   0  0  0  0  0  0  0  0  0  0  0  0
   37.7300   29.2710   41.6030 C   0  0  0  0  0  0  0  0  0  0  0  0
   37.2240   28.1680   40.9870 N   0  0  0  0  0  0  0  0  0  0  0  0
   36.8760   27.0520   41.6850 C   0  0  0  0  0  0  0  0  0  0  0  0
   37.0260   27.0090   43.0280 N   0  0  0  0  0  0  0  0  0  0  0  0
   37.6500   28.0570   44.7540 H   0  0  0  0  0  0  0  0  0  0  0  0
   38.2920   30.1040   43.5130 H   0  0  0  0  0  0  0  0  0  0  0  0
   36.4720   26.1680   41.2090 H   0  0  0  0  0  0  0  0  0  0  0  0
   35.7180   30.8250   40.7410 O   0  0  0  0  0  0  0  0  0  0  0  0
   35.0190   31.4900   40.9720 H   0  0  0  0  0  0  0  0  0  0  0  0
   37.3410   31.6250   37.5080 O   0  0  0  0  0  0  0  0  0  0  0  0
   37.3950   30.6320   37.4900 H   0  0  0  0  0  0  0  0  0  0  0  0
   37.3590   33.7660   40.2830 O   0  0  0  0  0  0  0  0  0  0  0  0
   38.3060   33.9410   40.4290 H   0  0  0  0  0  0  0  0  0  0  0  0
  1 16  1  6  0  0  0
  1  2  1  0  0  0  0
  2  9  1  1  0  0  0
  3  2  1  0  0  0  0
  4  3  1  0  0  0  0
  5 18  1  6  0  0  0
  5  4  1  0  0  0  0
  5  6  1  0  0  0  0
  6 20  1  1  0  0  0
  6  1  1  0  0  0  0
  7 13  1  0  0  0  0
  8 14  1  0  0  0  0
  8  7  2  0  0  0  0
  9  8  1  0  0  0  0
 10  9  2  0  0  0  0
 10 11  1  0  0  0  0
 11 12  2  0  0  0  0
 12  7  1  0  0  0  0
 15 11  1  0  0  0  0
 16 17  1  0  0  0  0
 19 18  1  0  0  0  0
 20 21  1  0  0  0  0
M  END
>  <minimizedAffinity>
-4.92339468

$$$$

 OpenBabel03242510283D

 21 22  0  0  1  0  0  0  0  0999 V2000
   38.9970   31.8080   37.9780 C   0  0  1  0  0  3  0  0  0  0  0  0
   39.9390   32.2840   39.0350 C   0  0  2  0  0  3  0  0  0  0  0  0
   39.4980   33.4670   39.6430 O   0  0  0  0  0  0  0  0  0  0  0  0
   38.4000   33.0790   40.4150 C   0  0  0  0  0  2  0  0  0  0  0  0
   37.2490   32.8230   39.4830 C   0  0  2  0  0  3  0  0  0  0  0  0
   37.5590   31.8980   38.3510 C   0  0  2  0  0  3  0  0  0  0  0  0
   43.5110   31.8230   37.8740 C   0  0  0  0  0  0  0  0  0  0  0  0
   42.2580   31.5070   38.4190 C   0  0  0  0  0  0  0  0  0  0  0  0
   41.2880   32.5320   38.4750 C   0  0  0  0  0  0  0  0  0  0  0  0
   41.6210   33.7620   38.0000 N   0  0  0  0  0  0  0  0  0  0  0  0
   42.8510   34.0220   37.4790 C   0  0  0  0  0  0  0  0  0  0  0  0
   43.7890   33.0500   37.4190 N   0  0  0  0  0  0  0  0  0  0  0  0
   44.2450   31.0290   37.8380 H   0  0  0  0  0  0  0  0  0  0  0  0
   42.0130   30.5230   38.7910 H   0  0  0  0  0  0  0  0  0  0  0  0
   43.1310   34.9950   37.0970 H   0  0  0  0  0  0  0  0  0  0  0  0
   39.2470   32.4340   36.7340 O   0  0  0  0  0  0  0  0  0  0  0  0
   38.7810   31.9250   36.0220 H   0  0  0  0  0  0  0  0  0  0  0  0
   36.8440   34.0880   39.0190 O   0  0  0  0  0  0  0  0  0  0  0  0
   37.5920   34.7430   39.0460 H   0  0  0  0  0  0  0  0  0  0  0  0
   36.9940   30.6210   38.5190 O   0  0  0  0  0  0  0  0  0  0  0  0
   37.1040   30.2660   39.4200 H   0  0  0  0  0  0  0  0  0  0  0  0
  1 16  1  6  0  0  0
  1  6  1  0  0  0  0
  1  2  1  0  0  0  0
  2  9  1  6  0  0  0
  2  3  1  0  0  0  0
  3  4  1  0  0  0  0
  5 18  1  6  0  0  0
  5  4  1  0  0  0  0
  6 20  1  1  0  0  0
  6  5  1  0  0  0  0
  7  8  1  0  0  0  0
  8  9  2  0  0  0  0
  8 14  1  0  0  0  0
 10  9  1  0  0  0  0
 11 10  2  0  0  0  0
 12 11  1  0  0  0  0
 12  7  2  0  0  0  0
 13  7  1  0  0  0  0
 15 11  1  0  0  0  0
 17 16  1  0  0  0  0
 18 19  1  0  0  0  0
 20 21  1  0  0  0  0
M  END
>  <minimizedAffinity>
-4.69400978

$$$$

 OpenBabel03242510283D

 21 22  0  0  1  0  0  0  0  0999 V2000
   36.9070   31.0330   40.1260 C   0  0  1  0  0  3  0  0  0  0  0  0
   38.2340   30.4070   39.8500 C   0  0  2  0  0  3  0  0  0  0  0  0
   38.7790   29.7960   40.9880 O   0  0  0  0  0  0  0  0  0  0  0  0
   37.9850   28.6660   41.1960 C   0  0  0  0  0  2  0  0  0  0  0  0
   36.6670   29.1230   41.7540 C   0  0  2  0  0  3  0  0  0  0  0  0
   35.9990   30.2040   40.9650 C   0  0  2  0  0  3  0  0  0  0  0  0
   40.4600   32.4880   37.6060 C   0  0  0  0  0  0  0  0  0  0  0  0
   39.5310   31.5100   37.9890 C   0  0  0  0  0  0  0  0  0  0  0  0
   39.2060   31.4110   39.3590 C   0  0  0  0  0  0  0  0  0  0  0  0
   39.8110   32.2660   40.2280 N   0  0  0  0  0  0  0  0  0  0  0  0
   40.7080   33.2000   39.8100 C   0  0  0  0  0  0  0  0  0  0  0  0
   41.0270   33.3050   38.5000 N   0  0  0  0  0  0  0  0  0  0  0  0
   40.7000   32.5520   36.5520 H   0  0  0  0  0  0  0  0  0  0  0  0
   39.0620   30.8400   37.2830 H   0  0  0  0  0  0  0  0  0  0  0  0
   41.1960   33.8870   40.4890 H   0  0  0  0  0  0  0  0  0  0  0  0
   37.0440   32.3400   40.6500 O   0  0  0  0  0  0  0  0  0  0  0  0
   36.1680   32.8020   40.5870 H   0  0  0  0  0  0  0  0  0  0  0  0
   36.9320   29.5380   43.0710 O   0  0  0  0  0  0  0  0  0  0  0  0
   37.8780   29.8260   43.1800 H   0  0  0  0  0  0  0  0  0  0  0  0
   34.9010   29.7370   40.2220 O   0  0  0  0  0  0  0  0  0  0  0  0
   35.0770   28.8990   39.7580 H   0  0  0  0  0  0  0  0  0  0  0  0
  1 16  1  1  0  0  0
  1  6  1  0  0  0  0
  2  9  1  1  0  0  0
  2  1  1  0  0  0  0
  2  3  1  0  0  0  0
  3  4  1  0  0  0  0
  4  5  1  0  0  0  0
  5 18  1  1  0  0  0
  6 20  1  6  0  0  0
  6  5  1  0  0  0  0
  7  8  2  0  0  0  0
  7 12  1  0  0  0  0
  8  9  1  0  0  0  0
  9 10  2  0  0  0  0
 11 10  1  0  0  0  0
 11 15  1  0  0  0  0
 12 11  2  0  0  0  0
 13  7  1  0  0  0  0
 14  8  1  0  0  0  0
 17 16  1  0  0  0  0
 18 19  1  0  0  0  0
 21 20  1  0  0  0  0
M  END
>  <minimizedAffinity>
-4.67093182

$$$$

 OpenBabel03242510283D

 21 22  0  0  1  0  0  0  0  0999 V2000
   38.6910   31.6780   37.8020 C   0  0  1  0  0  3  0  0  0  0  0  0
   39.7580   31.9350   38.8150 C   0  0  2  0  0  3  0  0  0  0  0  0
   39.5390   33.1210   39.5280 O   0  0  0  0  0  0  0  0  0  0  0  0
   38.4460   32.8390   40.3520 C   0  0  0  0  0  2  0  0  0  0  0  0
   37.2130   32.8210   39.4950 C   0  0  2  0  0  3  0  0  0  0  0  0
   37.3090   31.9460   38.2860 C   0  0  2  0  0  3  0  0  0  0  0  0
   43.1900   33.1360   37.7640 C   0  0  0  0  0  0  0  0  0  0  0  0
   41.9450   33.1250   38.4100 C   0  0  0  0  0  0  0  0  0  0  0  0
   41.0910   32.0260   38.1740 C   0  0  0  0  0  0  0  0  0  0  0  0
   41.5210   31.0430   37.3370 N   0  0  0  0  0  0  0  0  0  0  0  0
   42.7390   31.0960   36.7330 C   0  0  0  0  0  0  0  0  0  0  0  0
   43.5670   32.1440   36.9500 N   0  0  0  0  0  0  0  0  0  0  0  0
   43.8350   33.9840   37.9540 H   0  0  0  0  0  0  0  0  0  0  0  0
   41.6220   33.9160   39.0700 H   0  0  0  0  0  0  0  0  0  0  0  0
   43.0950   30.3220   36.0650 H   0  0  0  0  0  0  0  0  0  0  0  0
   38.9520   32.3520   36.5850 O   0  0  0  0  0  0  0  0  0  0  0  0
   38.3700   31.9690   35.8790 H   0  0  0  0  0  0  0  0  0  0  0  0
   36.9720   34.1610   39.1420 O   0  0  0  0  0  0  0  0  0  0  0  0
   37.8090   34.6980   39.1560 H   0  0  0  0  0  0  0  0  0  0  0  0
   36.5730   30.7550   38.4140 O   0  0  0  0  0  0  0  0  0  0  0  0
   36.6860   30.3230   39.2800 H   0  0  0  0  0  0  0  0  0  0  0  0
  1 16  1  6  0  0  0
  1  6  1  0  0  0  0
  1  2  1  0  0  0  0
  2  9  1  6  0  0  0
  2  3  1  0  0  0  0
  3  4  1  0  0  0  0
  5 18  1  6  0  0  0
  5  4  1  0  0  0  0
  6 20  1  1  0  0  0
  6  5  1  0  0  0  0
  7 13  1  0  0  0  0
  7  8  1  0  0  0  0
  8 14  1  0  0  0  0
  9  8  2  0  0  0  0
 10  9  1  0  0  0  0
 11 12  1  0  0  0  0
 11 10  2  0  0  0  0
 12  7  2  0  0  0  0
 15 11  1  0  0  0  0
 17 16  1  0  0  0  0
 18 19  1  0  0  0  0
 20 21  1  0  0  0  0
M  END
>  <minimizedAffinity>
-4.64364529

$$$$

 OpenBabel03242510283D

 21 22  0  0  1  0  0  0  0  0999 V2000
   39.3870   31.6310   40.4940 C   0  0  1  0  0  3  0  0  0  0  0  0
   38.3780   30.5360   40.3820 C   0  0  2  0  0  3  0  0  0  0  0  0
   37.0660   31.0260   40.3420 O   0  0  0  0  0  0  0  0  0  0  0  0
   36.9520   31.6270   39.0860 C   0  0  0  0  0  2  0  0  0  0  0  0
   37.7110   32.9230   39.1240 C   0  0  2  0  0  3  0  0  0  0  0  0
   39.1150   32.8070   39.6220 C   0  0  2  0  0  3  0  0  0  0  0  0
   37.5390   28.3710   43.3710 C   0  0  0  0  0  0  0  0  0  0  0  0
   37.3560   29.2690   42.3090 C   0  0  0  0  0  0  0  0  0  0  0  0
   38.4820   29.5970   41.5240 C   0  0  0  0  0  0  0  0  0  0  0  0
   39.6770   29.0280   41.8400 N   0  0  0  0  0  0  0  0  0  0  0  0
   39.8070   28.1620   42.8820 C   0  0  0  0  0  0  0  0  0  0  0  0
   38.7350   27.8390   43.6410 N   0  0  0  0  0  0  0  0  0  0  0  0
   36.6670   28.1290   43.9640 H   0  0  0  0  0  0  0  0  0  0  0  0
   36.3980   29.7100   42.0740 H   0  0  0  0  0  0  0  0  0  0  0  0
   40.7500   27.7010   43.1450 H   0  0  0  0  0  0  0  0  0  0  0  0
   39.5880   32.0230   41.8390 O   0  0  0  0  0  0  0  0  0  0  0  0
   40.4200   32.5600   41.8930 H   0  0  0  0  0  0  0  0  0  0  0  0
   36.9490   33.7890   39.9290 O   0  0  0  0  0  0  0  0  0  0  0  0
   36.3880   33.2850   40.5790 H   0  0  0  0  0  0  0  0  0  0  0  0
   40.0690   32.9110   38.5930 O   0  0  0  0  0  0  0  0  0  0  0  0
   39.8400   32.3940   37.8010 H   0  0  0  0  0  0  0  0  0  0  0  0
  1 16  1  1  0  0  0
  2  1  1  0  0  0  0
  2  9  1  1  0  0  0
  3  2  1  0  0  0  0
  4  5  1  0  0  0  0
  4  3  1  0  0  0  0
  5  6  1  0  0  0  0
  5 18  1  1  0  0  0
  6 20  1  6  0  0  0
  6  1  1  0  0  0  0
  7 12  1  0  0  0  0
  7 13  1  0  0  0  0
  8  7  2  0  0  0  0
  9 10  2  0  0  0  0
  9  8  1  0  0  0  0
 10 11  1  0  0  0  0
 11 15  1  0  0  0  0
 11 12  2  0  0  0  0
 14  8  1  0  0  0  0
 16 17  1  0  0  0  0
 18 19  1  0  0  0  0
 21 20  1  0  0  0  0
M  END
>  <minimizedAffinity>
-4.62201309

$$$$

 OpenBabel03242510283D

 21 22  0  0  1  0  0  0  0  0999 V2000
   35.8040   30.4060   40.4730 C   0  0  1  0  0  3  0  0  0  0  0  0
   36.8090   30.7370   39.4190 C   0  0  2  0  0  3  0  0  0  0  0  0
   37.6050   29.6350   39.0800 O   0  0  0  0  0  0  0  0  0  0  0  0
   36.7480   28.7830   38.3780 C   0  0  0  0  0  2  0  0  0  0  0  0
   35.8220   28.1390   39.3710 C   0  0  2  0  0  3  0  0  0  0  0  0
   35.1230   29.0960   40.2820 C   0  0  2  0  0  3  0  0  0  0  0  0
   38.2710   34.1610   40.1010 C   0  0  0  0  0  0  0  0  0  0  0  0
   37.3680   33.1860   39.6520 C   0  0  0  0  0  0  0  0  0  0  0  0
   37.7050   31.8310   39.8610 C   0  0  0  0  0  0  0  0  0  0  0  0
   38.8820   31.5480   40.4830 N   0  0  0  0  0  0  0  0  0  0  0  0
   39.7270   32.5290   40.9020 C   0  0  0  0  0  0  0  0  0  0  0  0
   39.4160   33.8300   40.7080 N   0  0  0  0  0  0  0  0  0  0  0  0
   38.0000   35.1950   39.9340 H   0  0  0  0  0  0  0  0  0  0  0  0
   36.4390   33.4310   39.1600 H   0  0  0  0  0  0  0  0  0  0  0  0
   40.6660   32.3190   41.3980 H   0  0  0  0  0  0  0  0  0  0  0  0
   36.3530   30.5180   41.7720 O   0  0  0  0  0  0  0  0  0  0  0  0
   35.6110   30.5330   42.4300 H   0  0  0  0  0  0  0  0  0  0  0  0
   36.6110   27.2250   40.0920 O   0  0  0  0  0  0  0  0  0  0  0  0
   37.5690   27.4940   40.0980 H   0  0  0  0  0  0  0  0  0  0  0  0
   33.7660   29.2680   39.9550 O   0  0  0  0  0  0  0  0  0  0  0  0
   33.6110   29.3780   38.9990 H   0  0  0  0  0  0  0  0  0  0  0  0
  1 16  1  1  0  0  0
  2  9  1  1  0  0  0
  2  1  1  0  0  0  0
  3  2  1  0  0  0  0
  4  3  1  0  0  0  0
  4  5  1  0  0  0  0
  5 18  1  1  0  0  0
  5  6  1  0  0  0  0
  6 20  1  6  0  0  0
  6  1  1  0  0  0  0
  7 12  1  0  0  0  0
  8  9  1  0  0  0  0
  8  7  2  0  0  0  0
  9 10  2  0  0  0  0
 10 11  1  0  0  0  0
 11 15  1  0  0  0  0
 12 11  2  0  0  0  0
 13  7  1  0  0  0  0
 14  8  1  0  0  0  0
 16 17  1  0  0  0  0
 18 19  1  0  0  0  0
 21 20  1  0  0  0  0
M  END
>  <minimizedAffinity>
-4.60805464

$$$$

 OpenBabel03242510283D

 21 22  0  0  1  0  0  0  0  0999 V2000
   39.1980   31.8370   38.6230 C   0  0  1  0  0  3  0  0  0  0  0  0
   37.8860   32.3150   39.1530 C   0  0  2  0  0  3  0  0  0  0  0  0
   38.0100   32.9170   40.4120 O   0  0  0  0  0  0  0  0  0  0  0  0
   38.6570   34.1290   40.1610 C   0  0  0  0  0  2  0  0  0  0  0  0
   40.1020   33.8310   39.8750 C   0  0  2  0  0  3  0  0  0  0  0  0
   40.3250   32.7890   38.8250 C   0  0  2  0  0  3  0  0  0  0  0  0
   35.4280   29.7930   40.5390 C   0  0  0  0  0  0  0  0  0  0  0  0
   36.3330   30.8640   40.5110 C   0  0  0  0  0  0  0  0  0  0  0  0
   36.9200   31.1980   39.2710 C   0  0  0  0  0  0  0  0  0  0  0  0
   36.5780   30.4650   38.1770 N   0  0  0  0  0  0  0  0  0  0  0  0
   35.6940   29.4330   38.2530 C   0  0  0  0  0  0  0  0  0  0  0  0
   35.1240   29.1030   39.4340 N   0  0  0  0  0  0  0  0  0  0  0  0
   34.9860   29.5480   41.4960 H   0  0  0  0  0  0  0  0  0  0  0  0
   36.5920   31.4330   41.3920 H   0  0  0  0  0  0  0  0  0  0  0  0
   35.4110   28.8410   37.3910 H   0  0  0  0  0  0  0  0  0  0  0  0
   39.5190   30.5470   39.1080 O   0  0  0  0  0  0  0  0  0  0  0  0
   40.2530   30.1730   38.5550 H   0  0  0  0  0  0  0  0  0  0  0  0
   40.6660   33.4500   41.1050 O   0  0  0  0  0  0  0  0  0  0  0  0
   39.9800   33.0740   41.7200 H   0  0  0  0  0  0  0  0  0  0  0  0
   40.7620   33.3310   37.6030 O   0  0  0  0  0  0  0  0  0  0  0  0
   40.2670   34.1260   37.3350 H   0  0  0  0  0  0  0  0  0  0  0  0
  1  6  1  0  0  0  0
  1 16  1  1  0  0  0
  1  2  1  0  0  0  0
  2  9  1  1  0  0  0
  2  3  1  0  0  0  0
  4  3  1  0  0  0  0
  5  4  1  0  0  0  0
  5 18  1  1  0  0  0
  6 20  1  6  0  0  0
  6  5  1  0  0  0  0
  7 13  1  0  0  0  0
  8  7  1  0  0  0  0
  8 14  1  0  0  0  0
  9  8  2  0  0  0  0
 10 11  2  0  0  0  0
 10  9  1  0  0  0  0
 11 12  1  0  0  0  0
 12  7  2  0  0  0  0
 15 11  1  0  0  0  0
 17 16  1  0  0  0  0
 18 19  1  0  0  0  0
 21 20  1  0  0  0  0
M  END
>  <minimizedAffinity>
-4.53074789

$$$$

 OpenBabel03242510283D

 21 22  0  0  1  0  0  0  0  0999 V2000
   36.6810   28.8280   41.2150 C   0  0  1  0  0  3  0  0  0  0  0  0
   37.8190   28.4240   42.0930 C   0  0  2  0  0  3  0  0  0  0  0  0
   39.0300   29.0040   41.6920 O   0  0  0  0  0  0  0  0  0  0  0  0
   38.9000   30.3550   42.0220 C   0  0  0  0  0  2  0  0  0  0  0  0
   37.9690   30.9870   41.0270 C   0  0  2  0  0  3  0  0  0  0  0  0
   36.6680   30.2720   40.8520 C   0  0  2  0  0  3  0  0  0  0  0  0
   39.3540   24.9660   42.0140 C   0  0  0  0  0  0  0  0  0  0  0  0
   39.2740   26.3660   42.0040 C   0  0  0  0  0  0  0  0  0  0  0  0
   37.9940   26.9530   42.0960 C   0  0  0  0  0  0  0  0  0  0  0  0
   36.9130   26.1310   42.1880 N   0  0  0  0  0  0  0  0  0  0  0  0
   37.0390   24.7760   42.1930 C   0  0  0  0  0  0  0  0  0  0  0  0
   38.2600   24.2020   42.1060 N   0  0  0  0  0  0  0  0  0  0  0  0
   40.3420   24.5300   41.9430 H   0  0  0  0  0  0  0  0  0  0  0  0
   40.1450   27.0010   41.9310 H   0  0  0  0  0  0  0  0  0  0  0  0
   36.1890   24.1100   42.2660 H   0  0  0  0  0  0  0  0  0  0  0  0
   36.5890   28.0070   40.0660 O   0  0  0  0  0  0  0  0  0  0  0  0
   35.6990   28.1430   39.6480 H   0  0  0  0  0  0  0  0  0  0  0  0
   38.6860   31.0510   39.8190 O   0  0  0  0  0  0  0  0  0  0  0  0
   39.3900   30.3500   39.7740 H   0  0  0  0  0  0  0  0  0  0  0  0
   35.5910   30.9420   41.4610 O   0  0  0  0  0  0  0  0  0  0  0  0
   35.7970   31.2690   42.3550 H   0  0  0  0  0  0  0  0  0  0  0  0
  1 16  1  6  0  0  0
  1  2  1  0  0  0  0
  2  9  1  6  0  0  0
  3  4  1  0  0  0  0
  3  2  1  0  0  0  0
  5 18  1  6  0  0  0
  5  4  1  0  0  0  0
  6  5  1  0  0  0  0
  6  1  1  0  0  0  0
  6 20  1  1  0  0  0
  7 12  1  0  0  0  0
  8  7  2  0  0  0  0
  8  9  1  0  0  0  0
  9 10  2  0  0  0  0
 10 11  1  0  0  0  0
 11 15  1  0  0  0  0
 12 11  2  0  0  0  0
 13  7  1  0  0  0  0
 14  8  1  0  0  0  0
 17 16  1  0  0  0  0
 19 18  1  0  0  0  0
 20 21  1  0  0  0  0
M  END
>  <minimizedAffinity>
-4.51443958

$$$$
