
     RDKit          3D

 51 53  0  0  0  0  0  0  0  0999 V2000
   43.8781   35.2262   41.1929 C   0  0  0  0  0  0  0  0  0  0  0  0
   43.9625   35.5801   42.4717 C   0  0  0  0  0  0  0  0  0  0  0  0
   45.2209   35.5502   43.3182 C   0  0  0  0  0  0  0  0  0  0  0  0
   45.0010   34.6539   44.3464 O   0  0  0  0  0  0  0  0  0  0  0  0
   45.7035   32.4993   42.9508 O   0  0  0  0  0  0  0  0  0  0  0  0
   45.9991   33.3032   44.1965 P   0  0  1  0  0  0  0  0  0  0  0  0
   47.6313   33.7885   44.0973 O   0  0  0  0  0  0  0  0  0  0  0  0
   45.8597   32.3250   45.5642 O   0  0  0  0  0  0  0  0  0  0  0  0
   46.2006   32.9897   46.7246 C   0  0  0  0  0  0  0  0  0  0  0  0
   47.0559   32.2888   47.7361 C   0  0  0  0  0  0  0  0  0  0  0  0
   45.5656   32.4635   47.9877 C   0  0  0  0  0  0  0  0  0  0  0  0
   42.6209   35.3291   40.6119 O   0  0  0  0  0  0  0  0  0  0  0  0
   41.4444   35.6474   41.2089 C   0  0  0  0  0  0  0  0  0  0  0  0
   40.2953   33.5344   41.5794 C   0  0  0  0  0  0  0  0  0  0  0  0
   40.3150   34.7343   40.8461 C   0  0  0  0  0  0  0  0  0  0  0  0
   39.3442   34.9466   39.9289 C   0  0  0  0  0  0  0  0  0  0  0  0
   38.4382   33.9943   39.7924 N   0  0  0  0  0  0  0  0  0  0  0  0
   38.3884   32.8562   40.4639 C   0  0  0  0  0  0  0  0  0  0  0  0
   39.3632   32.5771   41.4250 N   0  0  0  0  0  0  0  0  0  0  0  0
   44.7263   34.8824   40.6472 H   0  0  0  0  0  0  0  0  0  0  0  0
   43.2094   35.9465   43.1504 H   0  0  0  0  0  0  0  0  0  0  0  0
   46.0614   35.1845   42.6942 H   0  0  0  0  0  0  0  0  0  0  0  0
   45.4656   36.5493   43.7189 H   0  0  0  0  0  0  0  0  0  0  0  0
   47.6768   34.5886   44.7098 H   0  0  0  0  0  0  0  0  0  0  0  0
   46.2807   34.0890   46.6328 H   0  0  0  0  0  0  0  0  0  0  0  0
   47.4212   31.2866   47.4209 H   0  0  0  0  0  0  0  0  0  0  0  0
   47.7115   32.9491   48.3362 H   0  0  0  0  0  0  0  0  0  0  0  0
   45.2377   33.1741   48.7722 H   0  0  0  0  0  0  0  0  0  0  0  0
   45.0011   31.5104   47.9501 H   0  0  0  0  0  0  0  0  0  0  0  0
   41.4204   35.6534   42.3335 H   0  0  0  0  0  0  0  0  0  0  0  0
   41.1470   36.6765   40.9122 H   0  0  0  0  0  0  0  0  0  0  0  0
   41.0317   33.2825   42.3308 H   0  0  0  0  0  0  0  0  0  0  0  0
   39.3984   35.8798   39.3891 H   0  0  0  0  0  0  0  0  0  0  0  0
   36.5326   32.8508   42.2898 O   0  0  0  0  0  0  0  0  0  0  0  0
   36.4276   31.7439   41.4175 C   0  0  1  0  0  0  0  0  0  0  0  0
   37.3393   31.8140   40.2691 C   0  0  2  0  0  0  0  0  0  0  0  0
   37.9810   30.6715   39.8840 O   0  0  0  0  0  0  0  0  0  0  0  0
   37.4913   29.4890   40.3569 C   0  0  0  0  0  0  0  0  0  0  0  0
   37.6513   29.6013   41.8797 C   0  0  2  0  0  0  0  0  0  0  0  0
   37.4867   28.3408   42.4002 O   0  0  0  0  0  0  0  0  0  0  0  0
   36.5186   30.5199   42.2805 C   0  0  1  0  0  0  0  0  0  0  0  0
   36.6958   30.8081   43.6351 O   0  0  0  0  0  0  0  0  0  0  0  0
   37.0236   32.6289   43.1026 H   0  0  0  0  0  0  0  0  0  0  0  0
   35.3675   31.8082   41.0638 H   0  0  0  0  0  0  0  0  0  0  0  0
   36.7921   32.1712   39.3453 H   0  0  0  0  0  0  0  0  0  0  0  0
   36.4307   29.3189   40.1560 H   0  0  0  0  0  0  0  0  0  0  0  0
   38.1741   28.6869   40.0165 H   0  0  0  0  0  0  0  0  0  0  0  0
   38.5986   30.1031   42.1342 H   0  0  0  0  0  0  0  0  0  0  0  0
   37.8651   27.6686   41.7648 H   0  0  0  0  0  0  0  0  0  0  0  0
   35.6020   29.8831   42.2149 H   0  0  0  0  0  0  0  0  0  0  0  0
   35.9767   30.4382   44.2046 H   0  0  0  0  0  0  0  0  0  0  0  0
  1  2  2  0
  2  3  1  0
  3  4  1  0
  6  5  2  0
  6  4  1  1
  6  8  1  0
  7  6  1  0
  8  9  1  0
  9 10  1  0
  9 11  1  0
 10 11  1  0
 12  1  1  0
 12 13  1  0
 15 13  1  0
 15 14  2  0
 16 15  1  0
 17 16  2  0
 17 18  1  0
 18 19  2  0
 19 14  1  0
  1 20  1  0
  2 21  1  0
  3 22  1  0
  3 23  1  0
  7 24  1  0
  9 25  1  0
 10 26  1  0
 10 27  1  0
 11 28  1  0
 11 29  1  0
 13 30  1  0
 13 31  1  0
 14 32  1  0
 16 33  1  0
 34 35  1  0
 35 36  1  0
 36 37  1  0
 37 38  1  0
 38 39  1  0
 39 40  1  0
 39 41  1  0
 41 42  1  0
 41 35  1  0
 34 43  1  0
 35 44  1  6
 36 45  1  6
 38 46  1  0
 38 47  1  0
 39 48  1  6
 40 49  1  0
 41 50  1  1
 42 51  1  0
 18 36  1  0
M  ISO  8  22   8  23   8  24   3  25  13  26  13  27  13  28  13  29  13
M  ISO  4  30   8  31   8  32  14  33  14
M  END
>  <DihAtoms>  (1) 
16,17,35,34

>  <DihDeg>  (1) 
-4.3615566708667535

$$$$
