
 OpenBabel03252503133D

 37 40  0  0  1  0  0  0  0  0999 V2000
   46.1170   34.1910   40.7460 C   0  0  0  0  0  0  0  0  0  0  0  0
   44.7710   34.1390   40.4560 C   0  0  0  0  0  0  0  0  0  0  0  0
   44.6750   33.4510   39.3040 N   0  0  0  0  0  0  0  0  0  0  0  0
   45.9370   33.0930   38.9020 C   0  0  0  0  0  0  0  0  0  0  0  0
   46.8270   33.5530   39.7980 N   0  0  0  0  0  0  0  0  0  0  0  0
   43.9720   34.5700   41.0480 H   0  0  0  0  0  0  0  0  0  0  0  0
   43.8280   33.2090   38.7750 H   0  0  0  0  0  0  0  0  0  0  0  0
   46.8140   33.2020   36.5900 C   0  0  1  0  0  0  0  0  0  0  0  0
   46.3940   32.3290   37.7080 C   0  0  1  0  0  0  0  0  0  0  0  0
   47.2900   31.3740   38.1130 O   0  0  0  0  0  0  0  0  0  0  0  0
   48.5600   31.4580   37.5970 C   0  0  0  0  0  0  0  0  0  0  0  0
   49.0690   32.8720   37.6560 C   0  0  2  0  0  0  0  0  0  0  0  0
   48.2510   33.6550   36.6430 C   0  0  1  0  0  0  0  0  0  0  0  0
   46.4960   32.6100   35.3450 O   0  0  0  0  0  0  0  0  0  0  0  0
   45.9170   31.8230   35.4470 H   0  0  0  0  0  0  0  0  0  0  0  0
   50.4010   32.8380   37.1890 O   0  0  0  0  0  0  0  0  0  0  0  0
   50.5720   33.6300   36.5900 H   0  0  0  0  0  0  0  0  0  0  0  0
   48.8170   33.3790   35.3990 O   0  0  0  0  0  0  0  0  0  0  0  0
   48.9470   34.1570   34.8340 H   0  0  0  0  0  0  0  0  0  0  0  0
   46.7460   34.8540   41.9400 C   0  0  0  0  0  0  0  0  0  0  0  0
   47.9250   35.3150   41.9420 O   0  0  0  0  0  0  0  0  0  0  0  0
   45.3670   36.1960   43.4450 C   0  0  0  0  0  0  0  0  0  0  0  0
   46.0130   34.9910   43.1480 C   0  0  0  0  0  0  0  0  0  0  0  0
   45.8710   33.9860   44.1070 C   0  0  0  0  0  0  0  0  0  0  0  0
   45.1660   34.1720   45.2310 N   0  0  0  0  0  0  0  0  0  0  0  0
   44.5570   35.3670   45.4700 C   0  0  0  0  0  0  0  0  0  0  0  0
   44.6600   36.3650   44.5820 N   0  0  0  0  0  0  0  0  0  0  0  0
   45.4370   37.0240   42.7380 H   0  0  0  0  0  0  0  0  0  0  0  0
   43.9940   35.4830   46.3890 H   0  0  0  0  0  0  0  0  0  0  0  0
   46.4920   32.7480   43.8840 C   0  0  0  0  0  0  0  0  0  0  0  0
   47.7600   32.2720   44.0680 C   0  0  0  0  0  0  0  0  0  0  0  0
   48.1000   31.0220   43.7630 C   0  0  0  0  0  0  0  0  0  0  0  0
   47.1260   30.2170   43.2520 C   0  0  0  0  0  0  0  0  0  0  0  0
   45.6540   31.3370   43.2170 S   0  0  0  0  0  0  0  0  0  0  0  0
   48.4790   33.0050   44.4900 H   0  0  0  0  0  0  0  0  0  0  0  0
   49.0790   30.5770   43.8820 H   0  0  0  0  0  0  0  0  0  0  0  0
   47.1140   29.1920   42.9260 H   0  0  0  0  0  0  0  0  0  0  0  0
  1 20  1  0  0  0  0
  2  1  2  0  0  0  0
  2  6  1  0  0  0  0
  3  2  1  0  0  0  0
  4  3  1  0  0  0  0
  4  5  2  0  0  0  0
  5  1  1  0  0  0  0
  7  3  1  0  0  0  0
  8 14  1  6  0  0  0
  8 13  1  0  0  0  0
  8  9  1  0  0  0  0
  9 10  1  0  0  0  0
  9  4  1  1  0  0  0
 11 12  1  0  0  0  0
 11 10  1  0  0  0  0
 12 16  1  6  0  0  0
 13 18  1  6  0  0  0
 13 12  1  0  0  0  0
 14 15  1  0  0  0  0
 17 16  1  0  0  0  0
 19 18  1  0  0  0  0
 20 21  2  0  0  0  0
 20 23  1  0  0  0  0
 22 27  1  0  0  0  0
 23 22  2  0  0  0  0
 23 24  1  0  0  0  0
 24 25  2  0  0  0  0
 25 26  1  0  0  0  0
 26 29  1  0  0  0  0
 27 26  2  0  0  0  0
 28 22  1  0  0  0  0
 30 31  2  0  0  0  0
 30 24  1  0  0  0  0
 31 35  1  0  0  0  0
 32 36  1  0  0  0  0
 32 31  1  0  0  0  0
 33 32  2  0  0  0  0
 34 33  1  0  0  0  0
 34 30  1  0  0  0  0
 37 33  1  0  0  0  0
M  END
>  <minimizedAffinity>
-6.06624794

>  <minimizedRMSD>
0.623864591

$$$$
