
 OpenBabel03252503413D

 24 25  0  0  1  0  0  0  0  0999 V2000
   44.6540   33.7790   42.7350 C   0  0  0  0  0  0  0  0  0  0  0  0
   44.3770   35.1130   42.4820 C   0  0  0  0  0  0  0  0  0  0  0  0
   43.2500   35.4250   41.7330 C   0  0  0  0  0  0  0  0  0  0  0  0
   42.4760   34.4160   41.2860 N   0  0  0  0  0  0  0  0  0  0  0  0
   42.7650   33.1150   41.5450 C   0  0  0  0  0  0  0  0  0  0  0  0
   43.8580   32.7760   42.2740 N   0  0  0  0  0  0  0  0  0  0  0  0
   45.5230   33.4920   43.3150 H   0  0  0  0  0  0  0  0  0  0  0  0
   43.0590   36.4730   41.5510 H   0  0  0  0  0  0  0  0  0  0  0  0
   40.4300   32.2260   41.4820 C   0  0  2  0  0  3  0  0  0  0  0  0
   41.8870   32.0630   41.0330 C   0  0  1  0  0  3  0  0  0  0  0  0
   41.7990   32.0410   39.6370 O   0  0  0  0  0  0  0  0  0  0  0  0
   41.4050   30.7610   39.2960 C   0  0  0  0  0  2  0  0  0  0  0  0
   40.1120   30.3090   39.9010 C   0  0  1  0  0  3  0  0  0  0  0  0
   39.8220   30.8410   41.2670 C   0  0  1  0  0  3  0  0  0  0  0  0
   39.8120   33.1470   40.6170 O   0  0  0  0  0  0  0  0  0  0  0  0
   39.4560   33.9150   41.1330 H   0  0  0  0  0  0  0  0  0  0  0  0
   39.0690   30.6710   39.0510 O   0  0  0  0  0  0  0  0  0  0  0  0
   39.1740   30.1830   38.1970 H   0  0  0  0  0  0  0  0  0  0  0  0
   40.4330   29.9990   42.2020 O   0  0  0  0  0  0  0  0  0  0  0  0
   40.8130   29.1990   41.7900 H   0  0  0  0  0  0  0  0  0  0  0  0
   45.3310   36.1030   43.0470 C   0  0  0  0  0  0  0  0  0  0  0  0
   44.9970   36.3220   44.0810 H   0  0  0  0  0  0  0  0  0  0  0  0
   45.2390   37.0190   42.4070 H   0  0  0  0  0  0  0  0  0  0  0  0
   46.3370   35.6940   42.9750 H   0  0  0  0  0  0  0  0  0  0  0  0
  1  7  1  0  0  0  0
  2  1  1  0  0  0  0
  2 21  1  0  0  0  0
  3  2  2  0  0  0  0
  4  5  2  0  0  0  0
  4  3  1  0  0  0  0
  5  6  1  0  0  0  0
  6  1  2  0  0  0  0
  8  3  1  0  0  0  0
  9 15  1  6  0  0  0
 10  9  1  0  0  0  0
 10  5  1  6  0  0  0
 11 10  1  0  0  0  0
 12 11  1  0  0  0  0
 12 13  1  0  0  0  0
 13 17  1  6  0  0  0
 13 14  1  0  0  0  0
 14  9  1  0  0  0  0
 14 19  1  1  0  0  0
 15 16  1  0  0  0  0
 18 17  1  0  0  0  0
 20 19  1  0  0  0  0
 21 22  1  0  0  0  0
 23 21  1  0  0  0  0
 24 21  1  0  0  0  0
M  END
>  <minimizedAffinity>
-3.57889605

>  <minimizedRMSD>
8.04416275

$$$$
