REMARK  Name = 
REMARK  8 active torsions:
REMARK  status: ('A' for Active; 'I' for Inactive)
REMARK    1  A    between atoms: C_1  and  C_3
REMARK    2  A    between atoms: C_1  and  C_11
REMARK    3  A    between atoms: C_2  and  S_8
REMARK    4  A    between atoms: C_11  and  C_13
REMARK    5  A    between atoms: C_16  and  C_31
REMARK    6  A    between atoms: O_29  and  C_30
REMARK    7  A    between atoms: C_34  and  O_35
REMARK    8  A    between atoms: C_36  and  O_37
REMARK                            x       y       z     vdW  Elec       q    Type
REMARK                         _______ _______ _______ _____ _____    ______ ____
ROOT
ATOM      1  C   UNL     1      46.330  31.604  45.585  0.00  0.00    +0.000 C 
ATOM      2  H   UNL     1      45.325  31.868  45.899  0.00  0.00    +0.000 HD
ATOM      3  H   UNL     1      46.202  30.664  44.968  0.00  0.00    +0.000 HD
ENDROOT
BRANCH   1   5
ATOM      4  C   UNL     1      47.377  32.140  47.779  0.00  0.00    +0.000 A 
ATOM      5  C   UNL     1      47.170  31.236  46.714  0.00  0.00    +0.000 A 
ATOM      6  C   UNL     1      47.816  29.995  46.818  0.00  0.00    +0.000 A 
ATOM      7  N   UNL     1      48.581  29.732  47.898  0.00  0.00    +0.000 NA
ATOM      8  C   UNL     1      48.752  30.625  48.894  0.00  0.00    +0.000 A 
ATOM      9  N   UNL     1      48.155  31.811  48.828  0.00  0.00    +0.000 NA
ATOM     10  H   UNL     1      46.919  33.124  47.789  0.00  0.00    +0.000 HD
ATOM     11  H   UNL     1      47.673  29.286  46.017  0.00  0.00    +0.000 HD
BRANCH   8  13
ATOM     12  C   UNL     1      50.808  31.220  49.986  0.00  0.00    +0.000 C 
ATOM     13  C   UNL     1      49.599  30.320  50.078  0.00  0.00    +0.000 C 
ATOM     14  O   UNL     1      49.903  29.000  50.224  0.00  0.00    +0.000 OA
ATOM     15  C   UNL     1      51.138  28.731  50.757  0.00  0.00    +0.000 C 
ATOM     16  C   UNL     1      51.645  29.728  51.759  0.00  0.00    +0.000 C 
ATOM     17  C   UNL     1      51.547  31.151  51.298  0.00  0.00    +0.000 C 
BRANCH  12  18
ATOM     18  O   UNL     1      51.561  30.817  48.910  0.00  0.00    +0.000 OA
ATOM     19  H   UNL     1      52.296  31.427  48.679  0.00  0.00    +0.000 HD
ENDBRANCH  12  18
BRANCH  16  20
ATOM     20  O   UNL     1      52.992  29.437  51.977  0.00  0.00    +0.000 OA
ATOM     21  H   UNL     1      53.310  29.789  52.849  0.00  0.00    +0.000 HD
ENDBRANCH  16  20
BRANCH  17  22
ATOM     22  O   UNL     1      52.747  31.808  51.169  0.00  0.00    +0.000 OA
ATOM     23  H   UNL     1      53.480  31.197  51.370  0.00  0.00    +0.000 HD
ENDBRANCH  17  22
ENDBRANCH   8  13
ENDBRANCH   1   5
BRANCH   1  24
ATOM     24  C   UNL     1      47.066  32.664  44.794  0.00  0.00    +0.000 C 
ATOM     25  H   UNL     1      47.981  33.037  45.342  0.00  0.00    +0.000 HD
ATOM     26  H   UNL     1      47.479  32.172  43.894  0.00  0.00    +0.000 HD
BRANCH  24  28
ATOM     27  C   UNL     1      46.482  34.525  43.293  0.00  0.00    +0.000 A 
ATOM     28  C   UNL     1      46.273  33.862  44.486  0.00  0.00    +0.000 A 
ATOM     29  C   UNL     1      45.349  34.263  45.413  0.00  0.00    +0.000 A 
ATOM     30  C   UNL     1      44.593  35.381  45.143  0.00  0.00    +0.000 A 
ATOM     31  C   UNL     1      44.734  36.099  43.986  0.00  0.00    +0.000 A 
ATOM     32  C   UNL     1      45.693  35.632  43.089  0.00  0.00    +0.000 A 
ATOM     33  H   UNL     1      45.121  33.824  46.349  0.00  0.00    +0.000 HD
ATOM     34  H   UNL     1      43.832  35.778  45.820  0.00  0.00    +0.000 HD
ATOM     35  H   UNL     1      44.144  36.982  43.761  0.00  0.00    +0.000 HD
ATOM     36  H   UNL     1      45.839  36.175  42.152  0.00  0.00    +0.000 HD
BRANCH  27  37
ATOM     37  S   UNL     1      47.655  34.044  42.085  0.00  0.00    +0.000 S 
ATOM     38  O   UNL     1      49.000  34.705  42.297  0.00  0.00    +0.000 OA
ATOM     39  O   UNL     1      47.189  34.556  40.740  0.00  0.00    +0.000 OA
ATOM     40  H   UNL     1      47.757  32.693  41.941  0.00  0.00    +0.000 HD
ENDBRANCH  27  37
ENDBRANCH  24  28
ENDBRANCH   1  24
TORSDOF 8
