
 OpenBabel03242519313D

 51 54  0  0  1  0  0  0  0  0999 V2000
   50.6260   31.4140   42.3100 C   0  0  0  0  0  0  0  0  0  0  0  0
   51.3300   31.2220   41.1870 N   0  0  0  0  0  0  0  0  0  0  0  0
   51.9950   30.0400   41.2740 C   0  0  0  0  0  0  0  0  0  0  0  0
   51.6850   29.5100   42.4740 N   0  0  0  0  0  0  0  0  0  0  0  0
   50.8530   30.3330   43.1150 N   0  0  0  0  0  0  0  0  0  0  0  0
   52.6440   29.6180   40.5220 H   0  0  0  0  0  0  0  0  0  0  0  0
   47.8910   33.8120   42.8570 C   0  0  0  0  0  0  0  0  0  0  0  0
   48.5860   35.0380   42.6710 C   0  0  0  0  0  0  0  0  0  0  0  0
   49.9520   35.0140   42.3640 C   0  0  0  0  0  0  0  0  0  0  0  0
   50.5470   33.7820   42.2620 N   0  0  0  0  0  0  0  0  0  0  0  0
   49.8220   32.6230   42.4540 C   0  0  0  0  0  0  0  0  0  0  0  0
   48.5260   32.6400   42.7440 N   0  0  0  0  0  0  0  0  0  0  0  0
   48.1850   36.0120   42.7360 H   0  0  0  0  0  0  0  0  0  0  0  0
   50.5260   35.9140   42.2130 H   0  0  0  0  0  0  0  0  0  0  0  0
   46.4680   33.9630   43.1820 C   0  0  0  0  0  0  0  0  0  0  0  0
   45.7750   34.9790   42.4300 C   0  0  0  0  0  0  0  0  0  0  0  0
   45.3290   36.1380   43.2200 C   0  0  0  0  0  0  0  0  0  0  0  0
   44.4560   35.6920   44.3990 C   0  0  0  0  0  0  0  0  0  0  0  0
   44.9830   34.4980   45.1270 C   0  0  0  0  0  0  0  0  0  0  0  0
   46.4170   34.1930   44.7300 C   0  0  0  0  0  0  0  0  0  0  0  0
   46.0000   32.9370   43.1020 H   0  0  0  0  0  0  0  0  0  0  0  0
   44.8480   34.5380   41.9550 H   0  0  0  0  0  0  0  0  0  0  0  0
   46.3640   35.3580   41.5580 H   0  0  0  0  0  0  0  0  0  0  0  0
   44.6310   36.7380   42.5690 H   0  0  0  0  0  0  0  0  0  0  0  0
   46.0900   36.8510   43.5530 H   0  0  0  0  0  0  0  0  0  0  0  0
   43.4710   35.3790   43.9440 H   0  0  0  0  0  0  0  0  0  0  0  0
   44.2300   36.5690   45.0320 H   0  0  0  0  0  0  0  0  0  0  0  0
   45.0290   34.7710   46.2000 H   0  0  0  0  0  0  0  0  0  0  0  0
   44.3410   33.5960   45.0550 H   0  0  0  0  0  0  0  0  0  0  0  0
   47.0200   35.0860   44.9560 H   0  0  0  0  0  0  0  0  0  0  0  0
   46.7420   33.2690   45.2500 H   0  0  0  0  0  0  0  0  0  0  0  0
   52.1700   28.2740   43.0280 C   0  0  0  0  0  0  0  0  0  0  0  0
   51.8880   27.3880   42.4760 H   0  0  0  0  0  0  0  0  0  0  0  0
   51.7030   28.1450   44.0520 H   0  0  0  0  0  0  0  0  0  0  0  0
   53.6230   28.3370   43.1790 C   0  0  0  0  0  3  0  0  0  0  0  0
   54.4430   28.9980   43.9880 C   0  0  0  0  0  3  0  0  0  0  0  0
   55.9760   28.8520   44.0490 C   0  0  0  0  0  0  0  0  0  0  0  0
   56.1960   28.2220   44.9080 H   0  0  0  0  0  0  0  0  0  0  0  0
   56.2560   28.3400   43.1140 H   0  0  0  0  0  0  0  0  0  0  0  0
   57.7020   30.1530   42.9640 C   0  0  1  0  0  3  0  0  0  0  0  0
   56.6480   30.1880   44.0580 C   0  0  2  0  0  3  0  0  0  0  0  0
   57.1210   30.6050   45.2760 O   0  0  0  0  0  0  0  0  0  0  0  0
   58.2450   29.9660   45.7380 C   0  0  0  0  0  2  0  0  0  0  0  0
   59.4120   29.9950   44.7780 C   0  0  1  0  0  3  0  0  0  0  0  0
   58.9610   29.4390   43.4470 C   0  0  2  0  0  3  0  0  0  0  0  0
   57.2120   29.3540   41.9170 O   0  0  0  0  0  0  0  0  0  0  0  0
   56.5270   29.8200   41.4010 H   0  0  0  0  0  0  0  0  0  0  0  0
   59.8880   31.2840   44.5810 O   0  0  0  0  0  0  0  0  0  0  0  0
   59.2980   31.8020   43.9810 H   0  0  0  0  0  0  0  0  0  0  0  0
   59.9440   29.6500   42.5030 O   0  0  0  0  0  0  0  0  0  0  0  0
   59.6940   29.3190   41.6190 H   0  0  0  0  0  0  0  0  0  0  0  0
  1 11  1  0  0  0  0
  1  5  2  0  0  0  0
  2  3  2  0  0  0  0
  2  1  1  0  0  0  0
  3  4  1  0  0  0  0
  4 32  1  0  0  0  0
  4  5  1  0  0  0  0
  6  3  1  0  0  0  0
  7 15  1  0  0  0  0
  8 13  1  0  0  0  0
  8  7  2  0  0  0  0
  9  8  1  0  0  0  0
 10  9  2  0  0  0  0
 10 11  1  0  0  0  0
 11 12  2  0  0  0  0
 12  7  1  0  0  0  0
 14  9  1  0  0  0  0
 15 20  1  0  0  0  0
 16 15  1  0  0  0  0
 16 17  1  0  0  0  0
 17 25  1  0  0  0  0
 17 18  1  0  0  0  0
 18 27  1  0  0  0  0
 18 19  1  0  0  0  0
 19 28  1  0  0  0  0
 20 30  1  0  0  0  0
 20 19  1  0  0  0  0
 20 31  1  0  0  0  0
 21 15  1  0  0  0  0
 22 16  1  0  0  0  0
 23 16  1  0  0  0  0
 24 17  1  0  0  0  0
 26 18  1  0  0  0  0
 29 19  1  0  0  0  0
 32 35  1  0  0  0  0
 32 34  1  0  0  0  0
 33 32  1  0  0  0  0
 35 36  2  0  0  0  0
 36 37  1  0  0  0  0
 37 38  1  0  0  0  0
 39 37  1  0  0  0  0
 40 46  1  6  0  0  0
 40 45  1  0  0  0  0
 40 41  1  0  0  0  0
 41 37  1  1  0  0  0
 41 42  1  0  0  0  0
 42 43  1  0  0  0  0
 44 48  1  6  0  0  0
 44 43  1  0  0  0  0
 45 50  1  6  0  0  0
 45 44  1  0  0  0  0
 47 46  1  0  0  0  0
 49 48  1  0  0  0  0
 51 50  1  0  0  0  0
M  END
>  <minimizedAffinity>
-4.14326382

>  <minimizedRMSD>
1.12997091

$$$$
