
 OpenBabel03242517333D

 50 53  0  0  1  0  0  0  0  0999 V2000
   37.4490   27.5430   42.8000 C   0  0  0  0  0  0  0  0  0  0  0  0
   36.4420   27.8680   42.4650 H   0  0  0  0  0  0  0  0  0  0  0  0
   37.4490   26.7600   43.5700 H   0  0  0  0  0  0  0  0  0  0  0  0
   37.5940   29.4690   38.0290 C   0  0  0  0  0  0  0  0  0  0  0  0
   36.2260   29.8120   37.8440 C   0  0  0  0  0  0  0  0  0  0  0  0
   35.2650   29.1110   38.5620 C   0  0  0  0  0  0  0  0  0  0  0  0
   35.6980   28.1370   39.3990 N   0  0  0  0  0  0  0  0  0  0  0  0
   36.9740   27.8130   39.5760 C   0  0  0  0  0  0  0  0  0  0  0  0
   37.8790   28.4950   38.8810 N   0  0  0  0  0  0  0  0  0  0  0  0
   37.3200   26.7970   40.4590 N   0  0  0  0  0  0  0  0  0  0  0  0
   36.8000   25.4600   40.2810 C   0  0  0  0  0  0  0  0  0  0  0  0
   36.9190   24.5990   41.4990 C   0  0  0  0  0  0  0  0  0  0  0  0
   38.0440   24.8330   42.3410 N   0  0  0  0  0  0  0  0  0  0  0  0
   38.9540   25.8140   41.8000 C   0  0  0  0  0  0  0  0  0  0  0  0
   38.2290   27.1000   41.5850 C   0  0  2  0  0  0  0  0  0  0  0  0
   38.3420   30.0210   37.4630 H   0  0  0  0  0  0  0  0  0  0  0  0
   35.9150   30.5970   37.1650 H   0  0  0  0  0  0  0  0  0  0  0  0
   34.2070   29.3230   38.4680 H   0  0  0  0  0  0  0  0  0  0  0  0
   37.3150   24.9360   39.4450 H   0  0  0  0  0  0  0  0  0  0  0  0
   35.7210   25.5730   40.0150 H   0  0  0  0  0  0  0  0  0  0  0  0
   36.8610   23.5280   41.1570 H   0  0  0  0  0  0  0  0  0  0  0  0
   36.0050   24.7550   42.1100 H   0  0  0  0  0  0  0  0  0  0  0  0
   38.5380   23.9440   42.5150 H   0  0  0  0  0  0  0  0  0  0  0  0
   39.8580   25.8440   42.3970 H   0  0  0  0  0  0  0  0  0  0  0  0
   39.2850   25.4450   40.7870 H   0  0  0  0  0  0  0  0  0  0  0  0
   38.9420   27.8960   41.3030 H   0  0  0  0  0  0  0  0  0  0  0  0
   38.1880   28.7430   43.3440 C   0  0  0  0  0  3  0  0  0  0  0  0
   38.8980   29.5170   42.5220 C   0  0  0  0  0  3  0  0  0  0  0  0
   39.6660   30.7150   42.9420 C   0  0  0  0  0  0  0  0  0  0  0  0
   40.6980   30.3900   43.1680 H   0  0  0  0  0  0  0  0  0  0  0  0
   39.2300   31.1960   43.8430 H   0  0  0  0  0  0  0  0  0  0  0  0
   39.7390   31.6830   41.7740 C   0  0  2  0  0  0  0  0  0  0  0  0
   38.5740   31.7330   40.8360 C   0  0  0  0  0  0  0  0  0  0  0  0
   39.9090   31.1710   40.4070 C   0  0  1  0  0  0  0  0  0  0  0  0
   40.2880   32.6480   41.9740 H   0  0  0  0  0  0  0  0  0  0  0  0
   37.7480   31.0350   41.0710 H   0  0  0  0  0  0  0  0  0  0  0  0
   38.2370   32.7240   40.5190 H   0  0  0  0  0  0  0  0  0  0  0  0
   39.9060   30.0720   40.2840 H   0  0  0  0  0  0  0  0  0  0  0  0
   41.0290   30.9680   38.1980 C   0  0  1  0  0  3  0  0  0  0  0  0
   40.7310   31.8690   39.3780 C   0  0  2  0  0  3  0  0  0  0  0  0
   41.9660   32.3060   39.8340 O   0  0  0  0  0  0  0  0  0  0  0  0
   42.3840   33.2890   38.9520 C   0  0  0  0  0  2  0  0  0  0  0  0
   42.4390   32.8910   37.5210 C   0  0  1  0  0  3  0  0  0  0  0  0
   41.4000   31.9060   37.0740 C   0  0  2  0  0  3  0  0  0  0  0  0
   42.1310   30.2000   38.5510 O   0  0  0  0  0  0  0  0  0  0  0  0
   42.8920   30.8300   38.6390 H   0  0  0  0  0  0  0  0  0  0  0  0
   42.2270   34.0480   36.7500 O   0  0  0  0  0  0  0  0  0  0  0  0
   43.0400   34.3780   36.3110 H   0  0  0  0  0  0  0  0  0  0  0  0
   40.2220   32.5200   36.6640 O   0  0  0  0  0  0  0  0  0  0  0  0
   39.4180   32.1820   37.1270 H   0  0  0  0  0  0  0  0  0  0  0  0
  1 27  1  0  0  0  0
  1  3  1  0  0  0  0
  2  1  1  0  0  0  0
  4  9  1  0  0  0  0
  5  4  2  0  0  0  0
  5  6  1  0  0  0  0
  6  7  2  0  0  0  0
  7  8  1  0  0  0  0
  8 10  1  0  0  0  0
  9  8  2  0  0  0  0
 10 15  1  0  0  0  0
 11 10  1  0  0  0  0
 11 12  1  0  0  0  0
 12 22  1  0  0  0  0
 12 13  1  0  0  0  0
 13 23  1  0  0  0  0
 14 13  1  0  0  0  0
 14 24  1  0  0  0  0
 15 26  1  6  0  0  0
 15 14  1  0  0  0  0
 15  1  1  0  0  0  0
 16  4  1  0  0  0  0
 17  5  1  0  0  0  0
 18  6  1  0  0  0  0
 19 11  1  0  0  0  0
 20 11  1  0  0  0  0
 21 12  1  0  0  0  0
 25 14  1  0  0  0  0
 28 29  1  0  0  0  0
 28 27  2  0  0  0  0
 29 30  1  0  0  0  0
 29 31  1  0  0  0  0
 32 35  1  1  0  0  0
 32 29  1  0  0  0  0
 33 36  1  0  0  0  0
 33 32  1  0  0  0  0
 34 38  1  6  0  0  0
 34 33  1  0  0  0  0
 34 32  1  0  0  0  0
 37 33  1  0  0  0  0
 39 45  1  1  0  0  0
 39 40  1  0  0  0  0
 40 41  1  1  0  0  0
 40 34  1  0  0  0  0
 42 41  1  0  0  0  0
 43 47  1  6  0  0  0
 43 42  1  0  0  0  0
 44 49  1  1  0  0  0
 44 43  1  0  0  0  0
 44 39  1  0  0  0  0
 45 46  1  0  0  0  0
 48 47  1  0  0  0  0
 49 50  1  0  0  0  0
M  END
>  <minimizedAffinity>
-6.52343178

$$$$

 OpenBabel03242517333D

 50 53  0  0  1  0  0  0  0  0999 V2000
   37.1480   25.4870   38.8390 C   0  0  0  0  0  0  0  0  0  0  0  0
   38.2240   25.2160   38.8110 H   0  0  0  0  0  0  0  0  0  0  0  0
   36.5440   25.0620   38.0260 H   0  0  0  0  0  0  0  0  0  0  0  0
   37.0670   28.0160   43.3220 C   0  0  0  0  0  0  0  0  0  0  0  0
   38.3470   28.6360   43.2950 C   0  0  0  0  0  0  0  0  0  0  0  0
   39.3590   28.0350   42.5550 C   0  0  0  0  0  0  0  0  0  0  0  0
   39.0560   26.8870   41.9020 N   0  0  0  0  0  0  0  0  0  0  0  0
   37.8640   26.3040   41.9240 C   0  0  0  0  0  0  0  0  0  0  0  0
   36.9080   26.8940   42.6360 N   0  0  0  0  0  0  0  0  0  0  0  0
   37.6500   25.1240   41.2200 N   0  0  0  0  0  0  0  0  0  0  0  0
   38.4480   23.9500   41.4950 C   0  0  0  0  0  0  0  0  0  0  0  0
   38.3920   22.9160   40.4140 C   0  0  0  0  0  0  0  0  0  0  0  0
   37.1680   22.8070   39.6940 N   0  0  0  0  0  0  0  0  0  0  0  0
   36.1320   23.6660   40.2190 C   0  0  0  0  0  0  0  0  0  0  0  0
   36.5950   25.0830   40.1850 C   0  0  2  0  0  0  0  0  0  0  0  0
   36.2790   28.4910   43.9030 H   0  0  0  0  0  0  0  0  0  0  0  0
   38.5540   29.5550   43.8290 H   0  0  0  0  0  0  0  0  0  0  0  0
   40.3550   28.4550   42.4930 H   0  0  0  0  0  0  0  0  0  0  0  0
   38.1340   23.4630   42.4460 H   0  0  0  0  0  0  0  0  0  0  0  0
   39.5020   24.3040   41.6110 H   0  0  0  0  0  0  0  0  0  0  0  0
   38.7010   21.9360   40.8750 H   0  0  0  0  0  0  0  0  0  0  0  0
   39.1930   23.1530   39.6820 H   0  0  0  0  0  0  0  0  0  0  0  0
   36.8530   21.8260   39.6910 H   0  0  0  0  0  0  0  0  0  0  0  0
   35.1890   23.4370   39.7380 H   0  0  0  0  0  0  0  0  0  0  0  0
   35.9830   23.3900   41.3020 H   0  0  0  0  0  0  0  0  0  0  0  0
   35.7650   25.7610   40.4540 H   0  0  0  0  0  0  0  0  0  0  0  0
   37.0270   26.9910   38.7840 C   0  0  0  0  0  3  0  0  0  0  0  0
   35.8600   27.5770   39.0560 C   0  0  0  0  0  3  0  0  0  0  0  0
   35.6230   29.0410   39.0280 C   0  0  0  0  0  0  0  0  0  0  0  0
   34.5900   29.2210   39.3790 H   0  0  0  0  0  0  0  0  0  0  0  0
   35.7420   29.4650   38.0080 H   0  0  0  0  0  0  0  0  0  0  0  0
   36.5620   29.7070   40.0190 C   0  0  2  0  0  0  0  0  0  0  0  0
   35.9640   30.6330   41.0310 C   0  0  0  0  0  0  0  0  0  0  0  0
   36.8390   31.1470   39.9130 C   0  0  1  0  0  0  0  0  0  0  0  0
   37.4520   29.0920   40.3380 H   0  0  0  0  0  0  0  0  0  0  0  0
   34.8670   30.7660   40.9610 H   0  0  0  0  0  0  0  0  0  0  0  0
   36.3330   30.5480   42.0580 H   0  0  0  0  0  0  0  0  0  0  0  0
   36.2810   31.7040   39.1370 H   0  0  0  0  0  0  0  0  0  0  0  0
   38.3710   33.0560   39.4840 C   0  0  1  0  0  3  0  0  0  0  0  0
   38.1760   31.7370   40.2040 C   0  0  2  0  0  3  0  0  0  0  0  0
   39.2470   30.9420   39.8210 O   0  0  0  0  0  0  0  0  0  0  0  0
   40.3420   31.3860   40.5440 C   0  0  0  0  0  2  0  0  0  0  0  0
   40.6600   32.8320   40.4110 C   0  0  1  0  0  3  0  0  0  0  0  0
   39.4860   33.7480   40.2340 C   0  0  2  0  0  3  0  0  0  0  0  0
   38.7920   32.7480   38.1970 O   0  0  0  0  0  0  0  0  0  0  0  0
   39.6860   32.3290   38.2890 H   0  0  0  0  0  0  0  0  0  0  0  0
   41.2870   33.2400   41.6030 O   0  0  0  0  0  0  0  0  0  0  0  0
   42.2500   33.3930   41.5020 H   0  0  0  0  0  0  0  0  0  0  0  0
   38.9480   34.1690   41.4450 O   0  0  0  0  0  0  0  0  0  0  0  0
   37.9790   33.9940   41.5300 H   0  0  0  0  0  0  0  0  0  0  0  0
  1 15  1  0  0  0  0
  2  1  1  0  0  0  0
  3  1  1  0  0  0  0
  4 16  1  0  0  0  0
  5  4  1  0  0  0  0
  5 17  1  0  0  0  0
  6  5  2  0  0  0  0
  7  8  2  0  0  0  0
  7  6  1  0  0  0  0
  8  9  1  0  0  0  0
  9  4  2  0  0  0  0
 10 11  1  0  0  0  0
 10  8  1  0  0  0  0
 11 20  1  0  0  0  0
 11 19  1  0  0  0  0
 12 21  1  0  0  0  0
 12 11  1  0  0  0  0
 13 14  1  0  0  0  0
 13 12  1  0  0  0  0
 14 25  1  0  0  0  0
 15 14  1  0  0  0  0
 15 26  1  1  0  0  0
 15 10  1  0  0  0  0
 18  6  1  0  0  0  0
 22 12  1  0  0  0  0
 23 13  1  0  0  0  0
 24 14  1  0  0  0  0
 27  1  1  0  0  0  0
 27 28  2  0  0  0  0
 29 28  1  0  0  0  0
 29 30  1  0  0  0  0
 29 32  1  0  0  0  0
 31 29  1  0  0  0  0
 32 35  1  1  0  0  0
 32 33  1  0  0  0  0
 33 37  1  0  0  0  0
 34 38  1  6  0  0  0
 34 32  1  0  0  0  0
 34 40  1  0  0  0  0
 34 33  1  0  0  0  0
 36 33  1  0  0  0  0
 39 45  1  6  0  0  0
 39 40  1  0  0  0  0
 39 44  1  0  0  0  0
 40 41  1  6  0  0  0
 41 42  1  0  0  0  0
 43 42  1  0  0  0  0
 43 47  1  1  0  0  0
 44 43  1  0  0  0  0
 44 49  1  1  0  0  0
 45 46  1  0  0  0  0
 48 47  1  0  0  0  0
 49 50  1  0  0  0  0
M  END
>  <minimizedAffinity>
-6.4761529

$$$$

 OpenBabel03242517333D

 50 53  0  0  1  0  0  0  0  0999 V2000
   37.0860   25.3810   38.8990 C   0  0  0  0  0  0  0  0  0  0  0  0
   38.0860   25.8490   39.0150 H   0  0  0  0  0  0  0  0  0  0  0  0
   37.0610   24.5070   38.2340 H   0  0  0  0  0  0  0  0  0  0  0  0
   37.1190   28.0670   43.2900 C   0  0  0  0  0  0  0  0  0  0  0  0
   38.3960   28.6890   43.2070 C   0  0  0  0  0  0  0  0  0  0  0  0
   39.3890   28.0630   42.4620 C   0  0  0  0  0  0  0  0  0  0  0  0
   39.0720   26.8920   41.8590 N   0  0  0  0  0  0  0  0  0  0  0  0
   37.8820   26.3080   41.9330 C   0  0  0  0  0  0  0  0  0  0  0  0
   36.9450   26.9210   42.6490 N   0  0  0  0  0  0  0  0  0  0  0  0
   37.6530   25.1040   41.2770 N   0  0  0  0  0  0  0  0  0  0  0  0
   38.4620   23.9410   41.5720 C   0  0  0  0  0  0  0  0  0  0  0  0
   38.3800   22.8700   40.5310 C   0  0  0  0  0  0  0  0  0  0  0  0
   37.1380   22.7330   39.8480 N   0  0  0  0  0  0  0  0  0  0  0  0
   36.1140   23.6080   40.3700 C   0  0  0  0  0  0  0  0  0  0  0  0
   36.5710   25.0240   40.2730 C   0  0  2  0  0  0  0  0  0  0  0  0
   36.3450   28.5610   43.8750 H   0  0  0  0  0  0  0  0  0  0  0  0
   38.6150   29.6260   43.7030 H   0  0  0  0  0  0  0  0  0  0  0  0
   40.3820   28.4830   42.3580 H   0  0  0  0  0  0  0  0  0  0  0  0
   38.1750   23.4880   42.5480 H   0  0  0  0  0  0  0  0  0  0  0  0
   39.5170   24.3010   41.6480 H   0  0  0  0  0  0  0  0  0  0  0  0
   38.7040   21.9070   41.0170 H   0  0  0  0  0  0  0  0  0  0  0  0
   39.1600   23.0820   39.7700 H   0  0  0  0  0  0  0  0  0  0  0  0
   36.8250   21.7520   39.8890 H   0  0  0  0  0  0  0  0  0  0  0  0
   35.1580   23.3600   39.9230 H   0  0  0  0  0  0  0  0  0  0  0  0
   35.9940   23.3700   41.4660 H   0  0  0  0  0  0  0  0  0  0  0  0
   35.7460   25.7090   40.5400 H   0  0  0  0  0  0  0  0  0  0  0  0
   36.1280   26.4160   38.3610 C   0  0  0  0  0  3  0  0  0  0  0  0
   36.0620   27.6220   38.9260 C   0  0  0  0  0  3  0  0  0  0  0  0
   35.1570   28.7130   38.4870 C   0  0  0  0  0  0  0  0  0  0  0  0
   34.5560   29.0220   39.3610 H   0  0  0  0  0  0  0  0  0  0  0  0
   34.4760   28.3880   37.6710 H   0  0  0  0  0  0  0  0  0  0  0  0
   35.9990   29.9060   38.0670 C   0  0  2  0  0  0  0  0  0  0  0  0
   36.5990   29.8870   36.6970 C   0  0  0  0  0  0  0  0  0  0  0  0
   37.4550   29.7650   37.9340 C   0  0  1  0  0  0  0  0  0  0  0  0
   35.6700   30.9030   38.4780 H   0  0  0  0  0  0  0  0  0  0  0  0
   36.3850   28.9810   36.0990 H   0  0  0  0  0  0  0  0  0  0  0  0
   36.5470   30.8170   36.1220 H   0  0  0  0  0  0  0  0  0  0  0  0
   37.8720   28.7510   38.0840 H   0  0  0  0  0  0  0  0  0  0  0  0
   39.8320   30.4910   37.9270 C   0  0  1  0  0  3  0  0  0  0  0  0
   38.4100   30.8470   38.3080 C   0  0  2  0  0  3  0  0  0  0  0  0
   38.4490   31.1310   39.6660 O   0  0  0  0  0  0  0  0  0  0  0  0
   38.9940   32.3990   39.7840 C   0  0  0  0  0  2  0  0  0  0  0  0
   40.3240   32.5910   39.1470 C   0  0  1  0  0  3  0  0  0  0  0  0
   40.5690   31.8090   37.8920 C   0  0  2  0  0  3  0  0  0  0  0  0
   40.3340   29.7010   38.9530 O   0  0  0  0  0  0  0  0  0  0  0  0
   40.3810   30.2830   39.7550 H   0  0  0  0  0  0  0  0  0  0  0  0
   40.4260   33.9460   38.7810 O   0  0  0  0  0  0  0  0  0  0  0  0
   41.0340   34.4590   39.3540 H   0  0  0  0  0  0  0  0  0  0  0  0
   40.1340   32.4760   36.7520 O   0  0  0  0  0  0  0  0  0  0  0  0
   39.5140   31.9460   36.1950 H   0  0  0  0  0  0  0  0  0  0  0  0
  1  2  1  0  0  0  0
  1 15  1  0  0  0  0
  3  1  1  0  0  0  0
  4 16  1  0  0  0  0
  5  4  1  0  0  0  0
  5 17  1  0  0  0  0
  6  5  2  0  0  0  0
  7  8  2  0  0  0  0
  7  6  1  0  0  0  0
  8  9  1  0  0  0  0
  9  4  2  0  0  0  0
 10 11  1  0  0  0  0
 10  8  1  0  0  0  0
 11 20  1  0  0  0  0
 11 19  1  0  0  0  0
 12 21  1  0  0  0  0
 12 11  1  0  0  0  0
 13 23  1  0  0  0  0
 13 14  1  0  0  0  0
 13 12  1  0  0  0  0
 14 25  1  0  0  0  0
 15 14  1  0  0  0  0
 15 26  1  1  0  0  0
 15 10  1  0  0  0  0
 18  6  1  0  0  0  0
 22 12  1  0  0  0  0
 24 14  1  0  0  0  0
 27  1  1  0  0  0  0
 27 28  2  0  0  0  0
 29 28  1  0  0  0  0
 29 30  1  0  0  0  0
 31 29  1  0  0  0  0
 32 35  1  1  0  0  0
 32 29  1  0  0  0  0
 33 34  1  0  0  0  0
 33 32  1  0  0  0  0
 34 32  1  0  0  0  0
 34 38  1  1  0  0  0
 34 40  1  0  0  0  0
 36 33  1  0  0  0  0
 37 33  1  0  0  0  0
 39 40  1  0  0  0  0
 39 45  1  1  0  0  0
 40 41  1  1  0  0  0
 41 42  1  0  0  0  0
 43 47  1  6  0  0  0
 43 42  1  0  0  0  0
 44 49  1  6  0  0  0
 44 39  1  0  0  0  0
 44 43  1  0  0  0  0
 45 46  1  0  0  0  0
 47 48  1  0  0  0  0
 50 49  1  0  0  0  0
M  END
>  <minimizedAffinity>
-6.25539494

$$$$

 OpenBabel03242517333D

 50 53  0  0  1  0  0  0  0  0999 V2000
   40.2810   31.1100   40.5730 C   0  0  0  0  0  0  0  0  0  0  0  0
   40.7980   30.6920   39.6840 H   0  0  0  0  0  0  0  0  0  0  0  0
   40.9100   31.7390   41.2180 H   0  0  0  0  0  0  0  0  0  0  0  0
   35.3920   29.6070   39.9980 C   0  0  0  0  0  0  0  0  0  0  0  0
   35.5810   28.2900   39.4930 C   0  0  0  0  0  0  0  0  0  0  0  0
   36.7550   28.0080   38.8050 C   0  0  0  0  0  0  0  0  0  0  0  0
   37.6500   29.0140   38.6580 N   0  0  0  0  0  0  0  0  0  0  0  0
   37.4790   30.2450   39.1270 C   0  0  0  0  0  0  0  0  0  0  0  0
   36.3510   30.4960   39.7840 N   0  0  0  0  0  0  0  0  0  0  0  0
   38.4570   31.2110   38.9260 N   0  0  0  0  0  0  0  0  0  0  0  0
   38.8740   31.5670   37.5870 C   0  0  0  0  0  0  0  0  0  0  0  0
   40.1810   32.2940   37.5350 C   0  0  0  0  0  0  0  0  0  0  0  0
   40.4870   33.1410   38.6390 N   0  0  0  0  0  0  0  0  0  0  0  0
   39.4040   33.2350   39.5890 C   0  0  0  0  0  0  0  0  0  0  0  0
   39.0680   31.8740   40.0980 C   0  0  2  0  0  0  0  0  0  0  0  0
   34.4710   29.8230   40.5360 H   0  0  0  0  0  0  0  0  0  0  0  0
   34.8430   27.5090   39.6290 H   0  0  0  0  0  0  0  0  0  0  0  0
   36.9600   27.0260   38.3950 H   0  0  0  0  0  0  0  0  0  0  0  0
   38.1110   32.2040   37.0850 H   0  0  0  0  0  0  0  0  0  0  0  0
   38.9630   30.6090   37.0180 H   0  0  0  0  0  0  0  0  0  0  0  0
   40.2160   32.8460   36.5550 H   0  0  0  0  0  0  0  0  0  0  0  0
   40.9850   31.5320   37.4640 H   0  0  0  0  0  0  0  0  0  0  0  0
   40.7440   34.0790   38.2960 H   0  0  0  0  0  0  0  0  0  0  0  0
   39.6260   34.0010   40.3230 H   0  0  0  0  0  0  0  0  0  0  0  0
   38.4990   33.6160   39.0340 H   0  0  0  0  0  0  0  0  0  0  0  0
   38.3390   31.9450   40.9240 H   0  0  0  0  0  0  0  0  0  0  0  0
   39.7440   29.9680   41.4020 C   0  0  0  0  0  3  0  0  0  0  0  0
   38.9640   30.2160   42.4550 C   0  0  0  0  0  3  0  0  0  0  0  0
   38.3850   29.1780   43.3420 C   0  0  0  0  0  0  0  0  0  0  0  0
   37.6150   29.6630   43.9690 H   0  0  0  0  0  0  0  0  0  0  0  0
   39.1510   28.7140   43.9980 H   0  0  0  0  0  0  0  0  0  0  0  0
   37.6840   28.1380   42.4840 C   0  0  2  0  0  0  0  0  0  0  0  0
   36.5890   27.3380   43.1160 C   0  0  0  0  0  0  0  0  0  0  0  0
   37.9080   26.7080   42.7380 C   0  0  1  0  0  0  0  0  0  0  0  0
   37.5750   28.3990   41.3920 H   0  0  0  0  0  0  0  0  0  0  0  0
   36.3880   27.5680   44.1790 H   0  0  0  0  0  0  0  0  0  0  0  0
   35.6840   27.1820   42.5200 H   0  0  0  0  0  0  0  0  0  0  0  0
   38.5390   26.4500   43.6080 H   0  0  0  0  0  0  0  0  0  0  0  0
   37.8220   24.2870   42.1820 C   0  0  1  0  0  3  0  0  0  0  0  0
   37.9810   25.6950   41.6460 C   0  0  2  0  0  3  0  0  0  0  0  0
   39.1790   25.6940   40.9470 O   0  0  0  0  0  0  0  0  0  0  0  0
   38.9270   25.0640   39.7390 C   0  0  0  0  0  2  0  0  0  0  0  0
   38.3470   23.6990   39.8320 C   0  0  1  0  0  3  0  0  0  0  0  0
   37.4200   23.4570   40.9860 C   0  0  2  0  0  3  0  0  0  0  0  0
   39.0740   23.8880   42.6300 O   0  0  0  0  0  0  0  0  0  0  0  0
   39.6530   23.8330   41.8270 H   0  0  0  0  0  0  0  0  0  0  0  0
   37.5800   23.4840   38.6730 O   0  0  0  0  0  0  0  0  0  0  0  0
   37.9990   22.8660   38.0380 H   0  0  0  0  0  0  0  0  0  0  0  0
   36.1030   23.7940   40.6940 O   0  0  0  0  0  0  0  0  0  0  0  0
   35.7040   24.4260   41.3390 H   0  0  0  0  0  0  0  0  0  0  0  0
  1  3  1  0  0  0  0
  1 27  1  0  0  0  0
  2  1  1  0  0  0  0
  4 16  1  0  0  0  0
  5 17  1  0  0  0  0
  5  4  2  0  0  0  0
  6  5  1  0  0  0  0
  7  6  2  0  0  0  0
  7  8  1  0  0  0  0
  8  9  2  0  0  0  0
  9  4  1  0  0  0  0
 10  8  1  0  0  0  0
 10 15  1  0  0  0  0
 11 10  1  0  0  0  0
 12 11  1  0  0  0  0
 12 13  1  0  0  0  0
 13 14  1  0  0  0  0
 14 15  1  0  0  0  0
 14 24  1  0  0  0  0
 15  1  1  0  0  0  0
 15 26  1  1  0  0  0
 18  6  1  0  0  0  0
 19 11  1  0  0  0  0
 20 11  1  0  0  0  0
 21 12  1  0  0  0  0
 22 12  1  0  0  0  0
 23 13  1  0  0  0  0
 25 14  1  0  0  0  0
 27 28  2  0  0  0  0
 28 29  1  0  0  0  0
 29 30  1  0  0  0  0
 29 31  1  0  0  0  0
 32 35  1  6  0  0  0
 32 34  1  0  0  0  0
 32 33  1  0  0  0  0
 32 29  1  0  0  0  0
 33 36  1  0  0  0  0
 34 33  1  0  0  0  0
 34 38  1  1  0  0  0
 37 33  1  0  0  0  0
 39 45  1  6  0  0  0
 40 41  1  1  0  0  0
 40 39  1  0  0  0  0
 40 34  1  0  0  0  0
 42 43  1  0  0  0  0
 42 41  1  0  0  0  0
 43 47  1  6  0  0  0
 43 44  1  0  0  0  0
 44 49  1  6  0  0  0
 44 39  1  0  0  0  0
 46 45  1  0  0  0  0
 48 47  1  0  0  0  0
 49 50  1  0  0  0  0
M  END
>  <minimizedAffinity>
-6.06252575

$$$$

 OpenBabel03242517333D

 50 53  0  0  1  0  0  0  0  0999 V2000
   39.9610   31.3770   41.9550 C   0  0  0  0  0  0  0  0  0  0  0  0
   41.0480   31.4450   41.7380 H   0  0  0  0  0  0  0  0  0  0  0  0
   39.6020   32.0670   42.7290 H   0  0  0  0  0  0  0  0  0  0  0  0
   40.5230   29.1220   37.3620 C   0  0  0  0  0  0  0  0  0  0  0  0
   41.9400   29.0240   37.2910 C   0  0  0  0  0  0  0  0  0  0  0  0
   42.7040   29.9390   38.0050 C   0  0  0  0  0  0  0  0  0  0  0  0
   42.0420   30.8730   38.7300 N   0  0  0  0  0  0  0  0  0  0  0  0
   40.7200   30.9700   38.8000 C   0  0  0  0  0  0  0  0  0  0  0  0
   40.0060   30.0860   38.1100 N   0  0  0  0  0  0  0  0  0  0  0  0
   40.1320   31.9650   39.5730 N   0  0  0  0  0  0  0  0  0  0  0  0
   40.4180   33.3590   39.3150 C   0  0  0  0  0  0  0  0  0  0  0  0
   40.0550   34.2680   40.4480 C   0  0  0  0  0  0  0  0  0  0  0  0
   38.9300   33.8930   41.2360 N   0  0  0  0  0  0  0  0  0  0  0  0
   38.2530   32.7240   40.7230 C   0  0  0  0  0  0  0  0  0  0  0  0
   39.2090   31.5820   40.6620 C   0  0  2  0  0  0  0  0  0  0  0  0
   39.9300   28.4040   36.8000 H   0  0  0  0  0  0  0  0  0  0  0  0
   42.4370   28.2630   36.7000 H   0  0  0  0  0  0  0  0  0  0  0  0
   43.7870   29.9190   37.9940 H   0  0  0  0  0  0  0  0  0  0  0  0
   39.8820   33.7190   38.4080 H   0  0  0  0  0  0  0  0  0  0  0  0
   41.5170   33.4270   39.1260 H   0  0  0  0  0  0  0  0  0  0  0  0
   39.9470   35.3050   40.0220 H   0  0  0  0  0  0  0  0  0  0  0  0
   40.9340   34.3270   41.1240 H   0  0  0  0  0  0  0  0  0  0  0  0
   38.2740   34.6850   41.3040 H   0  0  0  0  0  0  0  0  0  0  0  0
   37.3260   32.5720   41.2640 H   0  0  0  0  0  0  0  0  0  0  0  0
   37.9390   32.9540   39.6640 H   0  0  0  0  0  0  0  0  0  0  0  0
   38.6730   30.6510   40.4040 H   0  0  0  0  0  0  0  0  0  0  0  0
   39.6440   29.9660   42.3920 C   0  0  0  0  0  3  0  0  0  0  0  0
   38.4560   29.6860   42.9290 C   0  0  0  0  0  3  0  0  0  0  0  0
   38.0360   28.3430   43.3980 C   0  0  0  0  0  0  0  0  0  0  0  0
   37.6110   28.4580   44.4110 H   0  0  0  0  0  0  0  0  0  0  0  0
   38.8870   27.6290   43.4380 H   0  0  0  0  0  0  0  0  0  0  0  0
   36.9260   27.8340   42.4940 C   0  0  2  0  0  0  0  0  0  0  0  0
   37.0820   26.4710   41.8980 C   0  0  0  0  0  0  0  0  0  0  0  0
   37.1560   27.7150   41.0470 C   0  0  1  0  0  0  0  0  0  0  0  0
   35.8840   28.1670   42.7670 H   0  0  0  0  0  0  0  0  0  0  0  0
   38.0190   25.9430   42.1630 H   0  0  0  0  0  0  0  0  0  0  0  0
   36.1980   25.8260   41.9010 H   0  0  0  0  0  0  0  0  0  0  0  0
   38.1770   27.9430   40.6860 H   0  0  0  0  0  0  0  0  0  0  0  0
   36.6930   28.1750   38.6490 C   0  0  1  0  0  3  0  0  0  0  0  0
   36.1020   28.0070   40.0340 C   0  0  2  0  0  3  0  0  0  0  0  0
   35.3830   29.1680   40.2760 O   0  0  0  0  0  0  0  0  0  0  0  0
   34.2040   29.0550   39.5580 C   0  0  0  0  0  2  0  0  0  0  0  0
   34.3570   28.8000   38.1010 C   0  0  1  0  0  3  0  0  0  0  0  0
   35.5350   27.9620   37.7030 C   0  0  2  0  0  3  0  0  0  0  0  0
   37.1330   29.4890   38.5610 O   0  0  0  0  0  0  0  0  0  0  0  0
   36.3230   30.0580   38.6060 H   0  0  0  0  0  0  0  0  0  0  0  0
   33.2200   28.0910   37.6730 O   0  0  0  0  0  0  0  0  0  0  0  0
   32.6010   28.6350   37.1410 H   0  0  0  0  0  0  0  0  0  0  0  0
   35.2530   26.6000   37.7210 O   0  0  0  0  0  0  0  0  0  0  0  0
   35.8820   26.0730   38.2730 H   0  0  0  0  0  0  0  0  0  0  0  0
  1 27  1  0  0  0  0
  1  3  1  0  0  0  0
  2  1  1  0  0  0  0
  4  9  1  0  0  0  0
  5  4  2  0  0  0  0
  5  6  1  0  0  0  0
  6  7  2  0  0  0  0
  7  8  1  0  0  0  0
  8 10  1  0  0  0  0
  9  8  2  0  0  0  0
 10 15  1  0  0  0  0
 11 10  1  0  0  0  0
 11 12  1  0  0  0  0
 12 22  1  0  0  0  0
 12 13  1  0  0  0  0
 13 23  1  0  0  0  0
 14 13  1  0  0  0  0
 14 24  1  0  0  0  0
 15 26  1  6  0  0  0
 15 14  1  0  0  0  0
 15  1  1  0  0  0  0
 16  4  1  0  0  0  0
 17  5  1  0  0  0  0
 18  6  1  0  0  0  0
 19 11  1  0  0  0  0
 20 11  1  0  0  0  0
 21 12  1  0  0  0  0
 25 14  1  0  0  0  0
 27 28  2  0  0  0  0
 28 29  1  0  0  0  0
 29 31  1  0  0  0  0
 29 30  1  0  0  0  0
 32 35  1  1  0  0  0
 32 29  1  0  0  0  0
 33 37  1  0  0  0  0
 33 36  1  0  0  0  0
 33 32  1  0  0  0  0
 34 38  1  6  0  0  0
 34 33  1  0  0  0  0
 34 32  1  0  0  0  0
 39 45  1  1  0  0  0
 39 40  1  0  0  0  0
 40 41  1  1  0  0  0
 40 34  1  0  0  0  0
 42 41  1  0  0  0  0
 43 47  1  1  0  0  0
 43 42  1  0  0  0  0
 44 49  1  1  0  0  0
 44 43  1  0  0  0  0
 44 39  1  0  0  0  0
 45 46  1  0  0  0  0
 48 47  1  0  0  0  0
 49 50  1  0  0  0  0
M  END
>  <minimizedAffinity>
-5.97489977

$$$$

 OpenBabel03242517333D

 50 53  0  0  1  0  0  0  0  0999 V2000
   36.7490   23.8730   40.8180 C   0  0  0  0  0  0  0  0  0  0  0  0
   36.4880   24.4880   39.9320 H   0  0  0  0  0  0  0  0  0  0  0  0
   35.9910   23.1310   41.1040 H   0  0  0  0  0  0  0  0  0  0  0  0
   41.4800   25.8680   40.4580 C   0  0  0  0  0  0  0  0  0  0  0  0
   41.2010   27.0780   39.7640 C   0  0  0  0  0  0  0  0  0  0  0  0
   40.0790   27.1290   38.9470 C   0  0  0  0  0  0  0  0  0  0  0  0
   39.3160   26.0120   38.8640 N   0  0  0  0  0  0  0  0  0  0  0  0
   39.5720   24.8800   39.5090 C   0  0  0  0  0  0  0  0  0  0  0  0
   40.6490   24.8500   40.2870 N   0  0  0  0  0  0  0  0  0  0  0  0
   38.7280   23.7850   39.3600 N   0  0  0  0  0  0  0  0  0  0  0  0
   38.4870   23.2160   38.0520 C   0  0  0  0  0  0  0  0  0  0  0  0
   37.2780   22.3370   37.9900 C   0  0  0  0  0  0  0  0  0  0  0  0
   36.9570   21.6040   39.1680 N   0  0  0  0  0  0  0  0  0  0  0  0
   37.9440   21.7620   40.2110 C   0  0  0  0  0  0  0  0  0  0  0  0
   38.0780   23.2070   40.5550 C   0  0  2  0  0  0  0  0  0  0  0  0
   42.3610   25.8340   41.0960 H   0  0  0  0  0  0  0  0  0  0  0  0
   41.8330   27.9530   39.8540 H   0  0  0  0  0  0  0  0  0  0  0  0
   39.8100   28.0190   38.3910 H   0  0  0  0  0  0  0  0  0  0  0  0
   39.3600   22.6170   37.7070 H   0  0  0  0  0  0  0  0  0  0  0  0
   38.3530   24.0770   37.3520 H   0  0  0  0  0  0  0  0  0  0  0  0
   37.4000   21.6660   37.0940 H   0  0  0  0  0  0  0  0  0  0  0  0
   36.4070   22.9820   37.7480 H   0  0  0  0  0  0  0  0  0  0  0  0
   36.8380   20.6070   38.9360 H   0  0  0  0  0  0  0  0  0  0  0  0
   37.7340   21.0730   41.0210 H   0  0  0  0  0  0  0  0  0  0  0  0
   38.9350   21.4260   39.7900 H   0  0  0  0  0  0  0  0  0  0  0  0
   38.7260   23.3280   41.4420 H   0  0  0  0  0  0  0  0  0  0  0  0
   36.9800   24.7930   41.9940 C   0  0  0  0  0  3  0  0  0  0  0  0
   37.0570   26.1100   41.8040 C   0  0  0  0  0  3  0  0  0  0  0  0
   37.2850   27.1070   42.8790 C   0  0  0  0  0  0  0  0  0  0  0  0
   37.8970   26.6230   43.6620 H   0  0  0  0  0  0  0  0  0  0  0  0
   36.3330   27.4630   43.3280 H   0  0  0  0  0  0  0  0  0  0  0  0
   38.0980   28.2590   42.3130 C   0  0  2  0  0  0  0  0  0  0  0  0
   38.4950   29.3570   43.2490 C   0  0  0  0  0  0  0  0  0  0  0  0
   37.4800   29.5830   42.1550 C   0  0  1  0  0  0  0  0  0  0  0  0
   38.8200   27.9880   41.4910 H   0  0  0  0  0  0  0  0  0  0  0  0
   38.1440   29.2390   44.2920 H   0  0  0  0  0  0  0  0  0  0  0  0
   39.5220   29.7270   43.1690 H   0  0  0  0  0  0  0  0  0  0  0  0
   36.4450   29.6970   42.5290 H   0  0  0  0  0  0  0  0  0  0  0  0
   36.5230   30.9900   40.3440 C   0  0  1  0  0  3  0  0  0  0  0  0
   37.7870   30.4860   41.0090 C   0  0  2  0  0  3  0  0  0  0  0  0
   38.5290   29.8930   39.9970 O   0  0  0  0  0  0  0  0  0  0  0  0
   39.1010   30.9280   39.2750 C   0  0  0  0  0  2  0  0  0  0  0  0
   38.1540   31.9400   38.7370 C   0  0  1  0  0  3  0  0  0  0  0  0
   36.9480   32.2230   39.5820 C   0  0  2  0  0  3  0  0  0  0  0  0
   36.1210   30.0040   39.4530 O   0  0  0  0  0  0  0  0  0  0  0  0
   36.8230   29.9580   38.7530 H   0  0  0  0  0  0  0  0  0  0  0  0
   38.8480   33.1600   38.6400 O   0  0  0  0  0  0  0  0  0  0  0  0
   39.0670   33.4100   37.7170 H   0  0  0  0  0  0  0  0  0  0  0  0
   37.1790   33.2150   40.5280 O   0  0  0  0  0  0  0  0  0  0  0  0
   36.9630   32.9380   41.4520 H   0  0  0  0  0  0  0  0  0  0  0  0
  1  3  1  0  0  0  0
  1 27  1  0  0  0  0
  2  1  1  0  0  0  0
  4 16  1  0  0  0  0
  5 17  1  0  0  0  0
  5  4  2  0  0  0  0
  6  5  1  0  0  0  0
  7  6  2  0  0  0  0
  7  8  1  0  0  0  0
  8  9  2  0  0  0  0
  9  4  1  0  0  0  0
 10  8  1  0  0  0  0
 10 15  1  0  0  0  0
 11 10  1  0  0  0  0
 12 11  1  0  0  0  0
 12 13  1  0  0  0  0
 13 14  1  0  0  0  0
 14 15  1  0  0  0  0
 14 24  1  0  0  0  0
 15  1  1  0  0  0  0
 15 26  1  1  0  0  0
 18  6  1  0  0  0  0
 19 11  1  0  0  0  0
 20 11  1  0  0  0  0
 21 12  1  0  0  0  0
 22 12  1  0  0  0  0
 23 13  1  0  0  0  0
 25 14  1  0  0  0  0
 28 27  2  0  0  0  0
 28 29  1  0  0  0  0
 29 31  1  0  0  0  0
 29 30  1  0  0  0  0
 32 35  1  6  0  0  0
 32 29  1  0  0  0  0
 32 33  1  0  0  0  0
 33 36  1  0  0  0  0
 34 32  1  0  0  0  0
 34 38  1  1  0  0  0
 34 33  1  0  0  0  0
 37 33  1  0  0  0  0
 39 45  1  6  0  0  0
 39 40  1  0  0  0  0
 40 41  1  6  0  0  0
 40 34  1  0  0  0  0
 42 41  1  0  0  0  0
 43 47  1  1  0  0  0
 43 42  1  0  0  0  0
 43 44  1  0  0  0  0
 44 39  1  0  0  0  0
 44 49  1  1  0  0  0
 46 45  1  0  0  0  0
 48 47  1  0  0  0  0
 49 50  1  0  0  0  0
M  END
>  <minimizedAffinity>
-5.97244644

$$$$

 OpenBabel03242517333D

 50 53  0  0  1  0  0  0  0  0999 V2000
   36.7130   29.4670   38.1930 C   0  0  0  0  0  0  0  0  0  0  0  0
   37.7650   29.1130   38.1660 H   0  0  0  0  0  0  0  0  0  0  0  0
   36.2720   29.6760   37.2090 H   0  0  0  0  0  0  0  0  0  0  0  0
   36.9320   27.9480   43.1060 C   0  0  0  0  0  0  0  0  0  0  0  0
   38.3390   27.9430   43.3160 C   0  0  0  0  0  0  0  0  0  0  0  0
   39.1710   27.7520   42.2190 C   0  0  0  0  0  0  0  0  0  0  0  0
   38.5820   27.5820   41.0110 N   0  0  0  0  0  0  0  0  0  0  0  0
   37.2690   27.5850   40.8090 C   0  0  0  0  0  0  0  0  0  0  0  0
   36.4890   27.7700   41.8700 N   0  0  0  0  0  0  0  0  0  0  0  0
   36.7590   27.4020   39.5290 N   0  0  0  0  0  0  0  0  0  0  0  0
   37.0700   26.2050   38.7790 C   0  0  0  0  0  0  0  0  0  0  0  0
   36.8030   26.3270   37.3120 C   0  0  0  0  0  0  0  0  0  0  0  0
   35.7160   27.1630   36.9250 N   0  0  0  0  0  0  0  0  0  0  0  0
   34.9750   27.6750   38.0540 C   0  0  0  0  0  0  0  0  0  0  0  0
   35.8910   28.4460   38.9430 C   0  0  2  0  0  0  0  0  0  0  0  0
   36.2850   28.0970   43.9690 H   0  0  0  0  0  0  0  0  0  0  0  0
   38.7760   28.0830   44.2970 H   0  0  0  0  0  0  0  0  0  0  0  0
   40.2500   27.7380   42.3100 H   0  0  0  0  0  0  0  0  0  0  0  0
   36.4920   25.3320   39.1570 H   0  0  0  0  0  0  0  0  0  0  0  0
   38.1570   26.0050   38.9400 H   0  0  0  0  0  0  0  0  0  0  0  0
   36.7010   25.2830   36.9040 H   0  0  0  0  0  0  0  0  0  0  0  0
   37.7220   26.7310   36.8370 H   0  0  0  0  0  0  0  0  0  0  0  0
   35.0890   26.6450   36.2910 H   0  0  0  0  0  0  0  0  0  0  0  0
   34.0780   28.1740   37.7070 H   0  0  0  0  0  0  0  0  0  0  0  0
   34.6050   26.7880   38.6450 H   0  0  0  0  0  0  0  0  0  0  0  0
   35.3130   28.9560   39.7340 H   0  0  0  0  0  0  0  0  0  0  0  0
   36.6490   30.7290   39.0200 C   0  0  0  0  0  3  0  0  0  0  0  0
   37.6660   31.0540   39.8190 C   0  0  0  0  0  3  0  0  0  0  0  0
   37.7130   32.2620   40.6790 C   0  0  0  0  0  0  0  0  0  0  0  0
   37.5950   31.9330   41.7280 H   0  0  0  0  0  0  0  0  0  0  0  0
   36.9050   32.9830   40.4310 H   0  0  0  0  0  0  0  0  0  0  0  0
   39.0860   32.9000   40.5530 C   0  0  2  0  0  0  0  0  0  0  0  0
   39.1500   34.3490   40.1850 C   0  0  0  0  0  0  0  0  0  0  0  0
   39.6020   33.2720   39.2280 C   0  0  1  0  0  0  0  0  0  0  0  0
   39.8730   32.5060   41.2580 H   0  0  0  0  0  0  0  0  0  0  0  0
   38.1710   34.8390   40.0210 H   0  0  0  0  0  0  0  0  0  0  0  0
   39.8650   34.9670   40.7370 H   0  0  0  0  0  0  0  0  0  0  0  0
   38.9180   33.1290   38.3700 H   0  0  0  0  0  0  0  0  0  0  0  0
   41.2020   32.5920   37.4520 C   0  0  1  0  0  3  0  0  0  0  0  0
   41.0390   33.1420   38.8550 C   0  0  2  0  0  3  0  0  0  0  0  0
   41.7680   32.2930   39.6750 O   0  0  0  0  0  0  0  0  0  0  0  0
   43.1000   32.6280   39.4990 C   0  0  0  0  0  2  0  0  0  0  0  0
   43.5950   32.5930   38.0970 C   0  0  1  0  0  3  0  0  0  0  0  0
   42.6030   32.9790   37.0420 C   0  0  2  0  0  3  0  0  0  0  0  0
   41.1080   31.2100   37.5540 O   0  0  0  0  0  0  0  0  0  0  0  0
   41.8960   30.9150   38.0790 H   0  0  0  0  0  0  0  0  0  0  0  0
   44.6450   33.5230   37.9950 O   0  0  0  0  0  0  0  0  0  0  0  0
   45.5300   33.1060   37.9320 H   0  0  0  0  0  0  0  0  0  0  0  0
   42.5820   34.3480   36.8020 O   0  0  0  0  0  0  0  0  0  0  0  0
   41.6830   34.7500   36.8830 H   0  0  0  0  0  0  0  0  0  0  0  0
  1 15  1  0  0  0  0
  1 27  1  0  0  0  0
  2  1  1  0  0  0  0
  3  1  1  0  0  0  0
  4  5  1  0  0  0  0
  4 16  1  0  0  0  0
  5 17  1  0  0  0  0
  6 18  1  0  0  0  0
  6  5  2  0  0  0  0
  7  6  1  0  0  0  0
  8  7  2  0  0  0  0
  8  9  1  0  0  0  0
  9  4  2  0  0  0  0
 10  8  1  0  0  0  0
 11 20  1  0  0  0  0
 11 19  1  0  0  0  0
 11 10  1  0  0  0  0
 12 11  1  0  0  0  0
 13 12  1  0  0  0  0
 13 14  1  0  0  0  0
 14 25  1  0  0  0  0
 14 15  1  0  0  0  0
 15 10  1  0  0  0  0
 15 26  1  1  0  0  0
 21 12  1  0  0  0  0
 22 12  1  0  0  0  0
 23 13  1  0  0  0  0
 24 14  1  0  0  0  0
 27 28  2  0  0  0  0
 28 29  1  0  0  0  0
 29 30  1  0  0  0  0
 31 29  1  0  0  0  0
 32 29  1  0  0  0  0
 32 35  1  1  0  0  0
 33 32  1  0  0  0  0
 33 37  1  0  0  0  0
 34 38  1  6  0  0  0
 34 33  1  0  0  0  0
 34 32  1  0  0  0  0
 36 33  1  0  0  0  0
 39 45  1  1  0  0  0
 39 40  1  0  0  0  0
 40 34  1  0  0  0  0
 40 41  1  1  0  0  0
 42 41  1  0  0  0  0
 43 47  1  1  0  0  0
 43 42  1  0  0  0  0
 44 49  1  1  0  0  0
 44 39  1  0  0  0  0
 44 43  1  0  0  0  0
 45 46  1  0  0  0  0
 48 47  1  0  0  0  0
 49 50  1  0  0  0  0
M  END
>  <minimizedAffinity>
-5.96399498

$$$$

 OpenBabel03242517333D

 50 53  0  0  1  0  0  0  0  0999 V2000
   36.6950   23.8830   40.9640 C   0  0  0  0  0  0  0  0  0  0  0  0
   35.6780   24.0990   40.5730 H   0  0  0  0  0  0  0  0  0  0  0  0
   36.8490   22.8490   41.2990 H   0  0  0  0  0  0  0  0  0  0  0  0
   36.6390   27.6880   37.4980 C   0  0  0  0  0  0  0  0  0  0  0  0
   35.2630   27.6940   37.1380 C   0  0  0  0  0  0  0  0  0  0  0  0
   34.5380   26.5160   37.2750 C   0  0  0  0  0  0  0  0  0  0  0  0
   35.1970   25.4290   37.7470 N   0  0  0  0  0  0  0  0  0  0  0  0
   36.4810   25.4190   38.0840 C   0  0  0  0  0  0  0  0  0  0  0  0
   37.1570   26.5550   37.9470 N   0  0  0  0  0  0  0  0  0  0  0  0
   37.0680   24.2520   38.5600 N   0  0  0  0  0  0  0  0  0  0  0  0
   37.0650   23.0480   37.7580 C   0  0  0  0  0  0  0  0  0  0  0  0
   37.3530   21.8040   38.5370 C   0  0  0  0  0  0  0  0  0  0  0  0
   38.2370   21.9330   39.6470 N   0  0  0  0  0  0  0  0  0  0  0  0
   38.7980   23.2580   39.7640 C   0  0  0  0  0  0  0  0  0  0  0  0
   37.6980   24.2550   39.8980 C   0  0  2  0  0  0  0  0  0  0  0  0
   37.2020   28.6140   37.3890 H   0  0  0  0  0  0  0  0  0  0  0  0
   34.7680   28.5820   36.7640 H   0  0  0  0  0  0  0  0  0  0  0  0
   33.4880   26.4520   37.0190 H   0  0  0  0  0  0  0  0  0  0  0  0
   37.8110   23.1130   36.9340 H   0  0  0  0  0  0  0  0  0  0  0  0
   36.0460   22.9720   37.3060 H   0  0  0  0  0  0  0  0  0  0  0  0
   37.7050   21.0260   37.8040 H   0  0  0  0  0  0  0  0  0  0  0  0
   36.3860   21.4180   38.9220 H   0  0  0  0  0  0  0  0  0  0  0  0
   38.9880   21.2310   39.5760 H   0  0  0  0  0  0  0  0  0  0  0  0
   39.5710   23.2620   40.5240 H   0  0  0  0  0  0  0  0  0  0  0  0
   39.3370   23.4830   38.7990 H   0  0  0  0  0  0  0  0  0  0  0  0
   38.1140   25.2530   40.1250 H   0  0  0  0  0  0  0  0  0  0  0  0
   36.9730   24.8060   42.1260 C   0  0  0  0  0  3  0  0  0  0  0  0
   37.0520   26.1220   41.9280 C   0  0  0  0  0  3  0  0  0  0  0  0
   37.3250   27.1220   42.9890 C   0  0  0  0  0  0  0  0  0  0  0  0
   37.9540   26.6340   43.7560 H   0  0  0  0  0  0  0  0  0  0  0  0
   36.3910   27.4930   43.4640 H   0  0  0  0  0  0  0  0  0  0  0  0
   38.1350   28.2600   42.3930 C   0  0  2  0  0  0  0  0  0  0  0  0
   38.5150   29.3920   43.2940 C   0  0  0  0  0  0  0  0  0  0  0  0
   37.5090   29.5730   42.1830 C   0  0  1  0  0  0  0  0  0  0  0  0
   38.8680   27.9670   41.5870 H   0  0  0  0  0  0  0  0  0  0  0  0
   38.1550   29.3070   44.3370 H   0  0  0  0  0  0  0  0  0  0  0  0
   39.5400   29.7670   43.2110 H   0  0  0  0  0  0  0  0  0  0  0  0
   36.4700   29.6920   42.5430 H   0  0  0  0  0  0  0  0  0  0  0  0
   36.5990   31.2040   40.5430 C   0  0  1  0  0  3  0  0  0  0  0  0
   37.8210   30.4390   41.0100 C   0  0  2  0  0  3  0  0  0  0  0  0
   38.2770   29.7500   39.8960 O   0  0  0  0  0  0  0  0  0  0  0  0
   38.9320   30.6780   39.1030 C   0  0  0  0  0  2  0  0  0  0  0  0
   38.1380   31.8740   38.7190 C   0  0  1  0  0  3  0  0  0  0  0  0
   37.1470   32.3570   39.7340 C   0  0  2  0  0  3  0  0  0  0  0  0
   35.8860   30.3480   39.7150 O   0  0  0  0  0  0  0  0  0  0  0  0
   36.4560   30.1910   38.9190 H   0  0  0  0  0  0  0  0  0  0  0  0
   39.0390   32.9370   38.5270 O   0  0  0  0  0  0  0  0  0  0  0  0
   39.1680   33.1720   37.5830 H   0  0  0  0  0  0  0  0  0  0  0  0
   37.7030   33.2500   40.6430 O   0  0  0  0  0  0  0  0  0  0  0  0
   37.5720   32.9880   41.5870 H   0  0  0  0  0  0  0  0  0  0  0  0
  1  3  1  0  0  0  0
  1 27  1  0  0  0  0
  2  1  1  0  0  0  0
  4  9  1  0  0  0  0
  5  6  1  0  0  0  0
  5  4  2  0  0  0  0
  6  7  2  0  0  0  0
  7  8  1  0  0  0  0
  8 10  1  0  0  0  0
  9  8  2  0  0  0  0
 10 15  1  0  0  0  0
 11 12  1  0  0  0  0
 11 10  1  0  0  0  0
 12 22  1  0  0  0  0
 12 13  1  0  0  0  0
 13 14  1  0  0  0  0
 14 15  1  0  0  0  0
 14 24  1  0  0  0  0
 15 26  1  1  0  0  0
 15  1  1  0  0  0  0
 16  4  1  0  0  0  0
 17  5  1  0  0  0  0
 18  6  1  0  0  0  0
 19 11  1  0  0  0  0
 20 11  1  0  0  0  0
 21 12  1  0  0  0  0
 23 13  1  0  0  0  0
 25 14  1  0  0  0  0
 28 27  2  0  0  0  0
 28 29  1  0  0  0  0
 29 31  1  0  0  0  0
 29 30  1  0  0  0  0
 32 35  1  6  0  0  0
 32 29  1  0  0  0  0
 32 33  1  0  0  0  0
 33 36  1  0  0  0  0
 34 32  1  0  0  0  0
 34 38  1  1  0  0  0
 34 33  1  0  0  0  0
 37 33  1  0  0  0  0
 39 45  1  6  0  0  0
 39 40  1  0  0  0  0
 40 41  1  6  0  0  0
 40 34  1  0  0  0  0
 42 41  1  0  0  0  0
 43 47  1  1  0  0  0
 43 42  1  0  0  0  0
 43 44  1  0  0  0  0
 44 39  1  0  0  0  0
 44 49  1  1  0  0  0
 46 45  1  0  0  0  0
 48 47  1  0  0  0  0
 49 50  1  0  0  0  0
M  END
>  <minimizedAffinity>
-5.91585398

$$$$

 OpenBabel03242517333D

 50 53  0  0  1  0  0  0  0  0999 V2000
   37.0110   25.0330   41.7480 C   0  0  0  0  0  0  0  0  0  0  0  0
   35.9860   25.1310   41.3320 H   0  0  0  0  0  0  0  0  0  0  0  0
   37.1570   24.1730   42.4140 H   0  0  0  0  0  0  0  0  0  0  0  0
   37.0290   27.5910   37.2810 C   0  0  0  0  0  0  0  0  0  0  0  0
   35.6400   27.5830   36.9700 C   0  0  0  0  0  0  0  0  0  0  0  0
   34.8530   26.5580   37.4810 C   0  0  0  0  0  0  0  0  0  0  0  0
   35.4660   25.6240   38.2490 N   0  0  0  0  0  0  0  0  0  0  0  0
   36.7610   25.6260   38.5420 C   0  0  0  0  0  0  0  0  0  0  0  0
   37.4970   26.6150   38.0450 N   0  0  0  0  0  0  0  0  0  0  0  0
   37.2980   24.6220   39.3400 N   0  0  0  0  0  0  0  0  0  0  0  0
   37.1860   23.2340   38.9480 C   0  0  0  0  0  0  0  0  0  0  0  0
   37.4340   22.2710   40.0650 C   0  0  0  0  0  0  0  0  0  0  0  0
   38.3720   22.6700   41.0600 N   0  0  0  0  0  0  0  0  0  0  0  0
   39.0170   23.9240   40.7490 C   0  0  0  0  0  0  0  0  0  0  0  0
   37.9860   24.9900   40.5950 C   0  0  2  0  0  0  0  0  0  0  0  0
   37.6400   28.3950   36.8780 H   0  0  0  0  0  0  0  0  0  0  0  0
   35.1840   28.3470   36.3530 H   0  0  0  0  0  0  0  0  0  0  0  0
   33.7900   26.4940   37.2830 H   0  0  0  0  0  0  0  0  0  0  0  0
   37.8970   22.9900   38.1260 H   0  0  0  0  0  0  0  0  0  0  0  0
   36.1450   23.0960   38.5660 H   0  0  0  0  0  0  0  0  0  0  0  0
   37.7050   21.2820   39.5990 H   0  0  0  0  0  0  0  0  0  0  0  0
   36.4630   22.0910   40.5730 H   0  0  0  0  0  0  0  0  0  0  0  0
   39.0760   21.9280   41.1900 H   0  0  0  0  0  0  0  0  0  0  0  0
   39.8220   24.1050   41.4510 H   0  0  0  0  0  0  0  0  0  0  0  0
   39.5240   23.8030   39.7480 H   0  0  0  0  0  0  0  0  0  0  0  0
   38.4710   25.9770   40.4940 H   0  0  0  0  0  0  0  0  0  0  0  0
   37.3440   26.2900   42.5160 C   0  0  0  0  0  3  0  0  0  0  0  0
   36.8270   27.4600   42.1360 C   0  0  0  0  0  3  0  0  0  0  0  0
   37.0860   28.7560   42.8080 C   0  0  0  0  0  0  0  0  0  0  0  0
   38.0730   28.6880   43.3020 H   0  0  0  0  0  0  0  0  0  0  0  0
   36.3130   28.9950   43.5690 H   0  0  0  0  0  0  0  0  0  0  0  0
   37.1810   29.8440   41.7520 C   0  0  2  0  0  0  0  0  0  0  0  0
   36.1060   29.9010   40.7120 C   0  0  0  0  0  0  0  0  0  0  0  0
   37.5180   29.4920   40.3660 C   0  0  1  0  0  0  0  0  0  0  0  0
   37.6230   30.8230   42.0980 H   0  0  0  0  0  0  0  0  0  0  0  0
   35.3260   29.1210   40.7960 H   0  0  0  0  0  0  0  0  0  0  0  0
   35.7140   30.8910   40.4600 H   0  0  0  0  0  0  0  0  0  0  0  0
   37.6220   28.4150   40.1380 H   0  0  0  0  0  0  0  0  0  0  0  0
   39.7180   29.7230   39.2320 C   0  0  1  0  0  3  0  0  0  0  0  0
   38.3670   30.3560   39.4960 C   0  0  2  0  0  3  0  0  0  0  0  0
   38.6400   31.6080   40.0270 O   0  0  0  0  0  0  0  0  0  0  0  0
   39.0140   32.4110   38.9620 C   0  0  0  0  0  2  0  0  0  0  0  0
   40.1470   31.9070   38.1410 C   0  0  1  0  0  3  0  0  0  0  0  0
   40.2390   30.4180   37.9960 C   0  0  2  0  0  3  0  0  0  0  0  0
   40.5230   30.0350   40.3200 O   0  0  0  0  0  0  0  0  0  0  0  0
   40.6500   31.0190   40.2990 H   0  0  0  0  0  0  0  0  0  0  0  0
   39.9810   32.4090   36.8370 O   0  0  0  0  0  0  0  0  0  0  0  0
   40.6140   33.1230   36.6120 H   0  0  0  0  0  0  0  0  0  0  0  0
   39.4930   29.9370   36.9260 O   0  0  0  0  0  0  0  0  0  0  0  0
   38.8530   29.2270   37.1770 H   0  0  0  0  0  0  0  0  0  0  0  0
  1  3  1  0  0  0  0
  1 27  1  0  0  0  0
  2  1  1  0  0  0  0
  4  9  1  0  0  0  0
  5  4  2  0  0  0  0
  5  6  1  0  0  0  0
  6  7  2  0  0  0  0
  7  8  1  0  0  0  0
  8 10  1  0  0  0  0
  9  8  2  0  0  0  0
 10 15  1  0  0  0  0
 11 10  1  0  0  0  0
 11 12  1  0  0  0  0
 12 22  1  0  0  0  0
 12 13  1  0  0  0  0
 13 23  1  0  0  0  0
 14 13  1  0  0  0  0
 14 24  1  0  0  0  0
 15 26  1  6  0  0  0
 15 14  1  0  0  0  0
 15  1  1  0  0  0  0
 16  4  1  0  0  0  0
 17  5  1  0  0  0  0
 18  6  1  0  0  0  0
 19 11  1  0  0  0  0
 20 11  1  0  0  0  0
 21 12  1  0  0  0  0
 25 14  1  0  0  0  0
 28 27  2  0  0  0  0
 28 29  1  0  0  0  0
 29 30  1  0  0  0  0
 29 31  1  0  0  0  0
 32 35  1  1  0  0  0
 32 29  1  0  0  0  0
 33 36  1  0  0  0  0
 33 32  1  0  0  0  0
 34 38  1  6  0  0  0
 34 33  1  0  0  0  0
 34 32  1  0  0  0  0
 37 33  1  0  0  0  0
 39 40  1  0  0  0  0
 39 45  1  1  0  0  0
 40 41  1  1  0  0  0
 40 34  1  0  0  0  0
 42 41  1  0  0  0  0
 43 47  1  6  0  0  0
 43 42  1  0  0  0  0
 44 49  1  6  0  0  0
 44 43  1  0  0  0  0
 44 39  1  0  0  0  0
 46 45  1  0  0  0  0
 48 47  1  0  0  0  0
 49 50  1  0  0  0  0
M  END
>  <minimizedAffinity>
-5.86957455

$$$$
