
 OpenBabel03252507133D

 45 47  0  0  1  0  0  0  0  0999 V2000
   46.4830   34.8920   42.0140 C   0  0  2  0  0  0  0  0  0  0  0  0
   45.5380   35.8410   42.6600 C   0  0  0  0  0  0  0  0  0  0  0  0
   44.1680   35.6650   42.0970 C   0  0  0  0  0  0  0  0  0  0  0  0
   43.6000   34.4400   42.3930 O   0  0  0  0  0  0  0  0  0  0  0  0
   44.5680   33.4940   42.6700 C   0  0  0  0  0  0  0  0  0  0  0  0
   45.7070   33.6320   41.6640 C   0  0  1  0  0  0  0  0  0  0  0  0
   46.7590   35.2830   41.0040 H   0  0  0  0  0  0  0  0  0  0  0  0
   45.8750   36.8970   42.6330 H   0  0  0  0  0  0  0  0  0  0  0  0
   45.4700   35.5990   43.7570 H   0  0  0  0  0  0  0  0  0  0  0  0
   44.0060   36.0460   41.0840 H   0  0  0  0  0  0  0  0  0  0  0  0
   43.5310   36.3900   42.7220 H   0  0  0  0  0  0  0  0  0  0  0  0
   45.0120   33.6260   43.6850 H   0  0  0  0  0  0  0  0  0  0  0  0
   44.1120   32.4920   42.5890 H   0  0  0  0  0  0  0  0  0  0  0  0
   46.4020   32.7870   41.9720 H   0  0  0  0  0  0  0  0  0  0  0  0
   44.5120   32.1210   40.1780 C   0  0  2  0  0  3  0  0  0  0  0  0
   45.3040   33.4350   40.2630 C   0  0  2  0  0  3  0  0  0  0  0  0
   46.3580   33.2660   39.3780 O   0  0  0  0  0  0  0  0  0  0  0  0
   45.9370   33.3830   38.0620 C   0  0  0  0  0  2  0  0  0  0  0  0
   44.9160   32.3330   37.7040 C   0  0  2  0  0  3  0  0  0  0  0  0
   44.5790   31.4410   38.8620 C   0  0  2  0  0  3  0  0  0  0  0  0
   43.1780   32.4560   40.5040 O   0  0  0  0  0  0  0  0  0  0  0  0
   42.6280   31.6510   40.6230 H   0  0  0  0  0  0  0  0  0  0  0  0
   45.3430   31.5880   36.6100 O   0  0  0  0  0  0  0  0  0  0  0  0
   44.7880   30.7690   36.5200 H   0  0  0  0  0  0  0  0  0  0  0  0
   43.3450   30.8100   38.6520 O   0  0  0  0  0  0  0  0  0  0  0  0
   42.5930   31.4290   38.5790 H   0  0  0  0  0  0  0  0  0  0  0  0
   47.6190   34.6360   42.6950 O   0  0  0  0  0  0  0  0  0  0  0  0
   50.2340   34.8040   42.7210 O   0  0  0  0  0  0  0  0  0  0  0  0
   49.0440   34.5670   41.8680 P   0  0  2  0  0  0  0  0  0  0  0  0
   49.0370   35.8040   40.7190 O   0  0  0  0  0  0  0  0  0  0  0  0
   49.1830   36.6530   41.2150 H   0  0  0  0  0  0  0  0  0  0  0  0
   49.1880   33.0660   41.0370 O   0  0  0  0  0  0  0  0  0  0  0  0
   49.6580   31.3090   42.5410 C   0  0  0  0  0  0  0  0  0  0  0  0
   50.0530   32.0810   41.4710 C   0  0  0  0  0  0  0  0  0  0  0  0
   51.3140   31.8310   40.8750 C   0  0  0  0  0  0  0  0  0  0  0  0
   52.0630   30.8320   41.4040 N   0  0  0  0  0  0  0  0  0  0  0  0
   51.6510   30.1140   42.4280 C   0  0  0  0  0  0  0  0  0  0  0  0
   50.4390   30.3610   42.9960 N   0  0  0  0  0  0  0  0  0  0  0  0
   47.2870   30.6650   42.9260 C   0  0  0  0  0  0  0  0  0  0  0  0
   47.0830   30.3620   41.6950 O   0  0  0  0  0  0  0  0  0  0  0  0
   48.5690   31.1610   43.4380 N   0  0  0  0  0  0  0  0  0  0  0  0
   51.5990   32.4440   40.0450 H   0  0  0  0  0  0  0  0  0  0  0  0
   52.2010   29.2990   42.9000 H   0  0  0  0  0  0  0  0  0  0  0  0
   46.4140   30.5120   43.5300 H   0  0  0  0  0  0  0  0  0  0  0  0
   48.5370   31.3630   44.4430 H   0  0  0  0  0  0  0  0  0  0  0  0
  1  7  1  6  0  0  0
  1  2  1  0  0  0  0
  1 27  1  0  0  0  0
  2  9  1  0  0  0  0
  3  4  1  0  0  0  0
  3  2  1  0  0  0  0
  3 11  1  0  0  0  0
  4  5  1  0  0  0  0
  5 12  1  0  0  0  0
  6 14  1  1  0  0  0
  6  1  1  0  0  0  0
  6  5  1  0  0  0  0
  8  2  1  0  0  0  0
 10  3  1  0  0  0  0
 13  5  1  0  0  0  0
 15 16  1  0  0  0  0
 15 21  1  6  0  0  0
 16 17  1  6  0  0  0
 16  6  1  0  0  0  0
 18 17  1  0  0  0  0
 19 23  1  6  0  0  0
 19 18  1  0  0  0  0
 19 20  1  0  0  0  0
 20 25  1  6  0  0  0
 20 15  1  0  0  0  0
 21 22  1  0  0  0  0
 24 23  1  0  0  0  0
 26 25  1  0  0  0  0
 29 27  1  0  0  0  0
 29 28  2  1  0  0  0
 30 31  1  0  0  0  0
 30 29  1  0  0  0  0
 32 34  1  0  0  0  0
 32 29  1  0  0  0  0
 33 38  1  0  0  0  0
 33 41  1  0  0  0  0
 34 33  2  0  0  0  0
 35 36  2  0  0  0  0
 35 34  1  0  0  0  0
 36 37  1  0  0  0  0
 37 43  1  0  0  0  0
 37 38  2  0  0  0  0
 39 41  1  0  0  0  0
 39 44  1  0  0  0  0
 40 39  2  0  0  0  0
 41 45  1  0  0  0  0
 42 35  1  0  0  0  0
M  END
>  <minimizedAffinity>
-4.70942259

>  <minimizedRMSD>
1.53145051

$$$$
