
 OpenBabel03242519313D

 51 54  0  0  1  0  0  0  0  0999 V2000
   50.7270   31.5130   42.3180 C   0  0  0  0  0  0  0  0  0  0  0  0
   51.1930   31.1720   41.1100 N   0  0  0  0  0  0  0  0  0  0  0  0
   51.9390   30.0410   41.2230 C   0  0  0  0  0  0  0  0  0  0  0  0
   51.9210   29.6960   42.5260 N   0  0  0  0  0  0  0  0  0  0  0  0
   51.1880   30.5810   43.2040 N   0  0  0  0  0  0  0  0  0  0  0  0
   52.4440   29.5280   40.4180 H   0  0  0  0  0  0  0  0  0  0  0  0
   47.9300   33.8430   42.8480 C   0  0  0  0  0  0  0  0  0  0  0  0
   48.5940   35.0850   42.6560 C   0  0  0  0  0  0  0  0  0  0  0  0
   49.9600   35.0950   42.3520 C   0  0  0  0  0  0  0  0  0  0  0  0
   50.5870   33.8770   42.2570 N   0  0  0  0  0  0  0  0  0  0  0  0
   49.8920   32.7020   42.4540 C   0  0  0  0  0  0  0  0  0  0  0  0
   48.5950   32.6870   42.7420 N   0  0  0  0  0  0  0  0  0  0  0  0
   48.1670   36.0490   42.7150 H   0  0  0  0  0  0  0  0  0  0  0  0
   50.5110   36.0080   42.1970 H   0  0  0  0  0  0  0  0  0  0  0  0
   46.5030   33.9580   43.1690 C   0  0  0  0  0  0  0  0  0  0  0  0
   45.7880   34.9590   42.4170 C   0  0  0  0  0  0  0  0  0  0  0  0
   45.3120   36.1050   43.2080 C   0  0  0  0  0  0  0  0  0  0  0  0
   44.4460   35.6370   44.3840 C   0  0  0  0  0  0  0  0  0  0  0  0
   45.0000   34.4540   45.1100 C   0  0  0  0  0  0  0  0  0  0  0  0
   46.4420   34.1840   44.7170 C   0  0  0  0  0  0  0  0  0  0  0  0
   46.0600   32.9220   43.0850 H   0  0  0  0  0  0  0  0  0  0  0  0
   44.8730   34.4980   41.9390 H   0  0  0  0  0  0  0  0  0  0  0  0
   46.3700   35.3540   41.5470 H   0  0  0  0  0  0  0  0  0  0  0  0
   44.6010   36.6910   42.5560 H   0  0  0  0  0  0  0  0  0  0  0  0
   46.0540   36.8360   43.5450 H   0  0  0  0  0  0  0  0  0  0  0  0
   43.4710   35.3010   43.9250 H   0  0  0  0  0  0  0  0  0  0  0  0
   44.1980   36.5060   45.0180 H   0  0  0  0  0  0  0  0  0  0  0  0
   45.0360   34.7250   46.1850 H   0  0  0  0  0  0  0  0  0  0  0  0
   44.3800   33.5360   45.0350 H   0  0  0  0  0  0  0  0  0  0  0  0
   47.0230   35.0910   44.9460 H   0  0  0  0  0  0  0  0  0  0  0  0
   46.7880   33.2670   45.2360 H   0  0  0  0  0  0  0  0  0  0  0  0
   52.5930   28.5790   43.1370 C   0  0  0  0  0  0  0  0  0  0  0  0
   53.3440   28.1080   42.5170 H   0  0  0  0  0  0  0  0  0  0  0  0
   51.8210   27.7730   43.3290 H   0  0  0  0  0  0  0  0  0  0  0  0
   53.1720   28.9890   44.4150 C   0  0  0  0  0  3  0  0  0  0  0  0
   53.0190   28.5890   45.6720 C   0  0  0  0  0  3  0  0  0  0  0  0
   53.8100   29.1000   46.8920 C   0  0  0  0  0  0  0  0  0  0  0  0
   53.1600   28.9850   47.7570 H   0  0  0  0  0  0  0  0  0  0  0  0
   54.6830   28.4310   46.9740 H   0  0  0  0  0  0  0  0  0  0  0  0
   55.7090   30.5480   47.2720 C   0  0  1  0  0  3  0  0  0  0  0  0
   54.3170   30.4890   46.6660 C   0  0  2  0  0  3  0  0  0  0  0  0
   53.4860   31.4980   47.0780 O   0  0  0  0  0  0  0  0  0  0  0  0
   53.3920   31.6850   48.4350 C   0  0  0  0  0  2  0  0  0  0  0  0
   54.7210   31.9000   49.1230 C   0  0  1  0  0  3  0  0  0  0  0  0
   55.6370   30.7480   48.7810 C   0  0  2  0  0  3  0  0  0  0  0  0
   56.3110   29.2880   47.1010 O   0  0  0  0  0  0  0  0  0  0  0  0
   56.5930   29.1480   46.1770 H   0  0  0  0  0  0  0  0  0  0  0  0
   55.3270   33.0820   48.7230 O   0  0  0  0  0  0  0  0  0  0  0  0
   55.7330   32.9960   47.8240 H   0  0  0  0  0  0  0  0  0  0  0  0
   56.9120   31.0270   49.2250 O   0  0  0  0  0  0  0  0  0  0  0  0
   57.5480   30.3150   49.0160 H   0  0  0  0  0  0  0  0  0  0  0  0
  1 11  1  0  0  0  0
  1  5  2  0  0  0  0
  2  3  2  0  0  0  0
  2  1  1  0  0  0  0
  3  4  1  0  0  0  0
  4 32  1  0  0  0  0
  4  5  1  0  0  0  0
  6  3  1  0  0  0  0
  7 15  1  0  0  0  0
  8 13  1  0  0  0  0
  8  7  2  0  0  0  0
  9  8  1  0  0  0  0
 10  9  2  0  0  0  0
 10 11  1  0  0  0  0
 11 12  2  0  0  0  0
 12  7  1  0  0  0  0
 14  9  1  0  0  0  0
 15 20  1  0  0  0  0
 16 15  1  0  0  0  0
 16 17  1  0  0  0  0
 17 25  1  0  0  0  0
 17 18  1  0  0  0  0
 18 27  1  0  0  0  0
 18 19  1  0  0  0  0
 19 28  1  0  0  0  0
 20 30  1  0  0  0  0
 20 19  1  0  0  0  0
 20 31  1  0  0  0  0
 21 15  1  0  0  0  0
 22 16  1  0  0  0  0
 23 16  1  0  0  0  0
 24 17  1  0  0  0  0
 26 18  1  0  0  0  0
 29 19  1  0  0  0  0
 32 34  1  0  0  0  0
 32 35  1  0  0  0  0
 33 32  1  0  0  0  0
 35 36  2  0  0  0  0
 36 37  1  0  0  0  0
 37 39  1  0  0  0  0
 37 38  1  0  0  0  0
 40 46  1  1  0  0  0
 40 45  1  0  0  0  0
 41 37  1  1  0  0  0
 41 42  1  0  0  0  0
 41 40  1  0  0  0  0
 42 43  1  0  0  0  0
 43 44  1  0  0  0  0
 44 48  1  6  0  0  0
 45 44  1  0  0  0  0
 45 50  1  6  0  0  0
 47 46  1  0  0  0  0
 49 48  1  0  0  0  0
 51 50  1  0  0  0  0
M  END
>  <minimizedAffinity>
-4.34981871

>  <minimizedRMSD>
1.17491281

$$$$
