
     RDKit          3D

 28 29  0  0  0  0  0  0  0  0999 V2000
   45.5401   34.7010   44.2363 C   0  0  0  0  0  0  0  0  0  0  0  0
   46.5777   33.9135   43.7391 C   0  0  0  0  0  0  0  0  0  0  0  0
   47.1181   32.9233   44.6009 C   0  0  0  0  0  0  0  0  0  0  0  0
   46.5864   32.8182   45.8384 N   0  0  0  0  0  0  0  0  0  0  0  0
   45.5817   33.5998   46.2831 C   0  0  0  0  0  0  0  0  0  0  0  0
   45.0518   34.5482   45.4815 N   0  0  0  0  0  0  0  0  0  0  0  0
   44.9144   35.9341   43.0708 S   0  0  0  0  0  0  0  0  0  0  0  0
   46.9873   34.0157   42.7448 H   0  0  0  0  0  0  0  0  0  0  0  0
   47.9186   32.3031   44.2420 H   0  0  0  0  0  0  0  0  0  0  0  0
   43.5137   35.8774   43.1276 H   0  0  0  0  0  0  0  0  0  0  0  0
   47.0533   33.9007   48.7881 O   0  0  0  0  0  0  0  0  0  0  0  0
   46.1320   32.8745   48.5500 C   0  0  2  0  0  0  0  0  0  0  0  0
   45.0552   33.4143   47.6657 C   0  0  2  0  0  0  0  0  0  0  0  0
   44.0365   32.4976   47.6067 O   0  0  0  0  0  0  0  0  0  0  0  0
   43.3768   32.2383   48.7729 C   0  0  0  0  0  0  0  0  0  0  0  0
   44.1753   32.3245   50.0263 C   0  0  1  0  0  0  0  0  0  0  0  0
   43.8435   31.2456   50.8553 O   0  0  0  0  0  0  0  0  0  0  0  0
   45.6453   32.3448   49.8534 C   0  0  2  0  0  0  0  0  0  0  0  0
   46.1681   33.0724   50.9455 O   0  0  0  0  0  0  0  0  0  0  0  0
   46.5712   34.7665   48.8291 H   0  0  0  0  0  0  0  0  0  0  0  0
   46.6747   32.0922   47.9599 H   0  0  0  0  0  0  0  0  0  0  0  0
   44.7161   34.4032   48.0591 H   0  0  0  0  0  0  0  0  0  0  0  0
   42.9462   31.1995   48.6592 H   0  0  0  0  0  0  0  0  0  0  0  0
   42.4555   32.8818   48.7987 H   0  0  0  0  0  0  0  0  0  0  0  0
   43.8226   33.2296   50.5932 H   0  0  0  0  0  0  0  0  0  0  0  0
   43.9971   30.4147   50.3246 H   0  0  0  0  0  0  0  0  0  0  0  0
   46.0541   31.3091   50.0105 H   0  0  0  0  0  0  0  0  0  0  0  0
   46.5999   33.9020   50.6834 H   0  0  0  0  0  0  0  0  0  0  0  0
  1  6  2  0
  2  1  1  0
  2  3  2  0
  3  4  1  0
  4  5  2  0
  6  5  1  0
  7  1  1  0
  2  8  1  0
  3  9  1  0
  7 10  1  0
 11 12  1  0
 12 13  1  0
 13 14  1  0
 14 15  1  0
 15 16  1  0
 16 17  1  0
 16 18  1  0
 18 19  1  0
 18 12  1  0
 11 20  1  0
 12 21  1  6
 13 22  1  1
 15 23  1  0
 15 24  1  0
 16 25  1  1
 17 26  1  0
 18 27  1  1
 19 28  1  0
  5 13  1  0
M  ISO  3   8  14   9  14  10  11
M  END
>  <DihAtoms>  (1) 
3,4,12,11

>  <DihDeg>  (1) 
-106.83140567560609

$$$$
