
     RDKit          3D

 54 58  0  0  0  0  0  0  0  0999 V2000
   44.1466   34.8636   42.6116 C   0  0  0  0  0  0  0  0  0  0  0  0
   43.3989   34.1040   41.7329 C   0  0  0  0  0  0  0  0  0  0  0  0
   43.4899   32.7180   41.8439 C   0  0  0  0  0  0  0  0  0  0  0  0
   44.2872   32.1500   42.7847 N   0  0  0  0  0  0  0  0  0  0  0  0
   45.0080   32.9318   43.6315 C   0  0  0  0  0  0  0  0  0  0  0  0
   44.9315   34.2789   43.5377 N   0  0  0  0  0  0  0  0  0  0  0  0
   42.6035   34.7944   40.7941 N   0  0  0  0  0  0  0  0  0  0  0  0
   42.8506   34.5621   39.3985 C   0  0  0  0  0  0  0  0  0  0  0  0
   42.0331   35.3973   38.4859 C   0  0  0  0  0  0  0  0  0  0  0  0
   40.6518   35.4484   38.8475 N   0  0  0  0  0  0  0  0  0  0  0  0
   40.3199   35.4049   40.2135 C   0  0  0  0  0  0  0  0  0  0  0  0
   41.5486   35.7261   41.0663 C   0  0  0  0  0  0  0  0  0  0  0  0
   46.3440   31.0373   44.4362 C   0  0  0  0  0  0  0  0  0  0  0  0
   45.8569   32.2932   44.6333 C   0  0  0  0  0  0  0  0  0  0  0  0
   46.1920   32.9368   45.8059 C   0  0  0  0  0  0  0  0  0  0  0  0
   46.9923   32.3262   46.7430 C   0  0  0  0  0  0  0  0  0  0  0  0
   47.4806   31.0429   46.5243 C   0  0  0  0  0  0  0  0  0  0  0  0
   47.1528   30.3790   45.3474 C   0  0  0  0  0  0  0  0  0  0  0  0
   48.2520   30.6837   47.6265 O   0  0  0  0  0  0  0  0  0  0  0  0
   47.9800   31.6231   48.6597 C   0  0  2  0  0  0  0  0  0  0  0  0
   47.4749   32.7493   47.9946 O   0  0  0  0  0  0  0  0  0  0  0  0
   44.1864   35.9432   42.6554 H   0  0  0  0  0  0  0  0  0  0  0  0
   42.9037   32.1489   41.1551 H   0  0  0  0  0  0  0  0  0  0  0  0
   42.7547   33.4614   39.2037 H   0  0  0  0  0  0  0  0  0  0  0  0
   43.9328   34.7999   39.2145 H   0  0  0  0  0  0  0  0  0  0  0  0
   42.4242   36.4148   38.4189 H   0  0  0  0  0  0  0  0  0  0  0  0
   42.1190   34.9624   37.4589 H   0  0  0  0  0  0  0  0  0  0  0  0
   40.2202   36.2905   38.3998 H   0  0  0  0  0  0  0  0  0  0  0  0
   40.0212   34.3734   40.4946 H   0  0  0  0  0  0  0  0  0  0  0  0
   39.4766   36.0483   40.5154 H   0  0  0  0  0  0  0  0  0  0  0  0
   41.2331   35.7618   42.1250 H   0  0  0  0  0  0  0  0  0  0  0  0
   41.8951   36.7420   40.7804 H   0  0  0  0  0  0  0  0  0  0  0  0
   46.1354   30.4514   43.5455 H   0  0  0  0  0  0  0  0  0  0  0  0
   45.8294   33.9350   46.0076 H   0  0  0  0  0  0  0  0  0  0  0  0
   47.5432   29.4001   45.2136 H   0  0  0  0  0  0  0  0  0  0  0  0
   47.2069   31.2445   49.3683 H   0  0  0  0  0  0  0  0  0  0  0  0
   49.1584   34.2831   49.0896 O   0  0  0  0  0  0  0  0  0  0  0  0
   49.9039   33.1531   48.8372 C   0  0  2  0  0  0  0  0  0  0  0  0
   49.2908   31.8785   49.3473 C   0  0  1  0  0  0  0  0  0  0  0  0
   49.0936   31.8507   50.7087 O   0  0  0  0  0  0  0  0  0  0  0  0
   49.7457   32.8292   51.4184 C   0  0  0  0  0  0  0  0  0  0  0  0
   51.1375   33.1244   50.9555 C   0  0  1  0  0  0  0  0  0  0  0  0
   52.0325   32.2077   51.5091 O   0  0  0  0  0  0  0  0  0  0  0  0
   51.2975   33.2262   49.4697 C   0  0  2  0  0  0  0  0  0  0  0  0
   51.9391   34.3739   49.0420 O   0  0  0  0  0  0  0  0  0  0  0  0
   48.7437   34.6777   48.2846 H   0  0  0  0  0  0  0  0  0  0  0  0
   50.0108   33.0490   47.7447 H   0  0  0  0  0  0  0  0  0  0  0  0
   49.9848   31.0602   49.0685 H   0  0  0  0  0  0  0  0  0  0  0  0
   49.8463   32.4453   52.4719 H   0  0  0  0  0  0  0  0  0  0  0  0
   49.1868   33.7812   51.5172 H   0  0  0  0  0  0  0  0  0  0  0  0
   51.4148   34.1181   51.4077 H   0  0  0  0  0  0  0  0  0  0  0  0
   51.9474   31.3195   51.1210 H   0  0  0  0  0  0  0  0  0  0  0  0
   51.8473   32.3191   49.1124 H   0  0  0  0  0  0  0  0  0  0  0  0
   52.7065   34.1539   48.4295 H   0  0  0  0  0  0  0  0  0  0  0  0
  1  6  2  0
  2  3  2  0
  2  1  1  0
  3  4  1  0
  4  5  2  0
  5 14  1  0
  6  5  1  0
  7 12  1  0
  7  2  1  0
  8  7  1  0
  9 10  1  0
  9  8  1  0
 10 11  1  0
 11 12  1  0
 13 14  2  0
 13 18  1  0
 14 15  1  0
 15 16  2  0
 16 21  1  0
 17 16  1  0
 17 19  1  0
 18 17  2  0
 19 20  1  0
 21 20  1  0
  1 22  1  0
  3 23  1  0
  8 24  1  0
  8 25  1  0
  9 26  1  0
  9 27  1  0
 10 28  1  0
 11 29  1  0
 11 30  1  0
 12 31  1  0
 12 32  1  0
 13 33  1  0
 15 34  1  0
 18 35  1  0
 20 36  1  1
 37 38  1  0
 38 39  1  0
 39 40  1  0
 40 41  1  0
 41 42  1  0
 42 43  1  0
 42 44  1  0
 44 45  1  0
 44 38  1  0
 37 46  1  0
 38 47  1  6
 39 48  1  1
 41 49  1  0
 41 50  1  0
 42 51  1  1
 43 52  1  0
 44 53  1  6
 45 54  1  0
 20 39  1  0
M  ISO  8  22  14  23  14  24  13  25  13  26  13  27  13  28   5  29  13
M  ISO  7  30  13  31  13  32  13  33  14  34  14  35  14  36  13
M  END
>  <DihAtoms>  (1) 
18,19,38,37

>  <DihDeg>  (1) 
173.9065282791877

$$$$
