REMARK  Name = 
REMARK  8 active torsions:
REMARK  status: ('A' for Active; 'I' for Inactive)
REMARK    1  A    between atoms: C_1  and  C_14
REMARK    2  A    between atoms: C_5  and  C_9
REMARK    3  A    between atoms: C_15  and  C_16
REMARK    4  A    between atoms: C_16  and  N_17
REMARK    5  A    between atoms: N_17  and  C_31
REMARK    6  A    between atoms: O_29  and  C_30
REMARK    7  A    between atoms: C_34  and  O_35
REMARK    8  A    between atoms: C_36  and  O_37
REMARK                            x       y       z     vdW  Elec       q    Type
REMARK                         _______ _______ _______ _____ _____    ______ ____
ROOT
ATOM      1  C   UNL     1      45.127  36.008  43.054  0.00  0.00    +0.000 A 
ATOM      2  C   UNL     1      44.141  35.804  42.086  0.00  0.00    +0.000 A 
ATOM      3  C   UNL     1      44.376  34.811  41.120  0.00  0.00    +0.000 A 
ATOM      4  N   UNL     1      45.535  34.109  41.174  0.00  0.00    +0.000 NA
ATOM      5  C   UNL     1      46.457  34.342  42.127  0.00  0.00    +0.000 A 
ATOM      6  N   UNL     1      46.266  35.286  43.071  0.00  0.00    +0.000 NA
ATOM      7  H   UNL     1      43.230  36.395  42.088  0.00  0.00    +0.000 HD
ATOM      8  H   UNL     1      43.627  34.632  40.357  0.00  0.00    +0.000 HD
ENDROOT
BRANCH   5  11
ATOM      9 CL   UNL     1      48.958  35.805  41.237  0.00  0.00    +0.000 Cl
ATOM     10  C   UNL     1      48.873  34.143  41.705  0.00  0.00    +0.000 A 
ATOM     11  C   UNL     1      47.693  33.524  42.105  0.00  0.00    +0.000 A 
ATOM     12  C   UNL     1      47.608  32.214  42.477  0.00  0.00    +0.000 A 
ATOM     13  C   UNL     1      48.753  31.472  42.453  0.00  0.00    +0.000 A 
ATOM     14  C   UNL     1      49.977  31.972  42.077  0.00  0.00    +0.000 A 
ATOM     15  C   UNL     1      49.981  33.312  41.712  0.00  0.00    +0.000 A 
ATOM     16  H   UNL     1      46.663  31.755  42.788  0.00  0.00    +0.000 HD
ATOM     17  H   UNL     1      48.702  30.430  42.746  0.00  0.00    +0.000 HD
ATOM     18  H   UNL     1      50.912  31.411  42.045  0.00  0.00    +0.000 HD
ATOM     19  H   UNL     1      50.935  33.734  41.410  0.00  0.00    +0.000 HD
ENDBRANCH   5  11
BRANCH   1  20
ATOM     20  C   UNL     1      44.911  37.042  44.082  0.00  0.00    +0.000 C 
ATOM     21  C   UNL     1      45.478  38.215  43.909  0.00  0.00    +0.000 C 
BRANCH  21  22
ATOM     22  C   UNL     1      45.274  39.273  44.933  0.00  0.00    +0.000 C 
ATOM     23  H   UNL     1      46.275  39.594  45.345  0.00  0.00    +0.000 HD
ATOM     24  H   UNL     1      44.613  38.953  45.743  0.00  0.00    +0.000 HD
BRANCH  22  25
ATOM     25  N   UNL     1      44.750  40.453  44.245  0.00  0.00    +0.000 NA
ATOM     26  H   UNL     1      45.440  40.813  43.554  0.00  0.00    +0.000 HD
BRANCH  25  28
ATOM     27  C   UNL     1      44.017  42.753  44.690  0.00  0.00    +0.000 C 
ATOM     28  C   UNL     1      44.565  41.456  45.277  0.00  0.00    +0.000 C 
ATOM     29  O   UNL     1      43.689  41.047  46.262  0.00  0.00    +0.000 OA
ATOM     30  C   UNL     1      43.817  41.913  47.336  0.00  0.00    +0.000 C 
ATOM     31  C   UNL     1      43.381  43.325  46.981  0.00  0.00    +0.000 C 
ATOM     32  C   UNL     1      44.168  43.803  45.781  0.00  0.00    +0.000 C 
BRANCH  27  33
ATOM     33  O   UNL     1      42.687  42.673  44.342  0.00  0.00    +0.000 OA
ATOM     34  H   UNL     1      42.515  42.341  43.427  0.00  0.00    +0.000 HD
ENDBRANCH  27  33
BRANCH  31  35
ATOM     35  O   UNL     1      42.042  43.309  46.655  0.00  0.00    +0.000 OA
ATOM     36  H   UNL     1      41.693  42.410  46.450  0.00  0.00    +0.000 HD
ENDBRANCH  31  35
BRANCH  32  37
ATOM     37  O   UNL     1      45.541  43.830  46.106  0.00  0.00    +0.000 OA
ATOM     38  H   UNL     1      45.694  44.051  47.060  0.00  0.00    +0.000 HD
ENDBRANCH  32  37
ENDBRANCH  25  28
ENDBRANCH  22  25
ENDBRANCH  21  22
ENDBRANCH   1  20
TORSDOF 8
