
 OpenBabel03252503143D

 37 40  0  0  1  0  0  0  0  0999 V2000
   36.9300   28.2470   41.5960 C   0  0  0  0  0  0  0  0  0  0  0  0
   35.7070   28.5700   41.0490 C   0  0  0  0  0  0  0  0  0  0  0  0
   35.9620   29.5010   40.1120 N   0  0  0  0  0  0  0  0  0  0  0  0
   37.3130   29.7390   40.0890 C   0  0  0  0  0  0  0  0  0  0  0  0
   37.9090   28.9610   41.0090 N   0  0  0  0  0  0  0  0  0  0  0  0
   34.7490   28.1480   41.3320 H   0  0  0  0  0  0  0  0  0  0  0  0
   35.2970   29.9810   39.4940 H   0  0  0  0  0  0  0  0  0  0  0  0
   37.3750   31.8830   38.8530 C   0  0  1  0  0  3  0  0  0  0  0  0
   38.1190   30.6660   39.2490 C   0  0  1  0  0  3  0  0  0  0  0  0
   39.3370   30.8590   39.8490 O   0  0  0  0  0  0  0  0  0  0  0  0
   39.6490   32.1440   40.2200 C   0  0  0  0  0  2  0  0  0  0  0  0
   38.4880   32.7970   40.9170 C   0  0  2  0  0  3  0  0  0  0  0  0
   37.4250   33.0110   39.8510 C   0  0  1  0  0  3  0  0  0  0  0  0
   37.7610   32.3080   37.5600 O   0  0  0  0  0  0  0  0  0  0  0  0
   38.3170   31.6400   37.1020 H   0  0  0  0  0  0  0  0  0  0  0  0
   38.9330   34.0710   41.3310 O   0  0  0  0  0  0  0  0  0  0  0  0
   38.2110   34.7540   41.1680 H   0  0  0  0  0  0  0  0  0  0  0  0
   37.8060   34.1590   39.1580 O   0  0  0  0  0  0  0  0  0  0  0  0
   37.0840   34.7880   38.9930 H   0  0  0  0  0  0  0  0  0  0  0  0
   37.1820   27.2480   42.6900 C   0  0  0  0  0  0  0  0  0  0  0  0
   36.3440   26.9850   43.6030 O   0  0  0  0  0  0  0  0  0  0  0  0
   39.4290   26.9570   43.6020 C   0  0  0  0  0  0  0  0  0  0  0  0
   38.4110   26.5390   42.7380 C   0  0  0  0  0  0  0  0  0  0  0  0
   38.7070   25.4120   41.9690 C   0  0  0  0  0  0  0  0  0  0  0  0
   39.8860   24.7820   42.0560 N   0  0  0  0  0  0  0  0  0  0  0  0
   40.8430   25.2330   42.9150 C   0  0  0  0  0  0  0  0  0  0  0  0
   40.6110   26.3090   43.6780 N   0  0  0  0  0  0  0  0  0  0  0  0
   39.2640   27.8310   44.2330 H   0  0  0  0  0  0  0  0  0  0  0  0
   41.7860   24.6990   42.9610 H   0  0  0  0  0  0  0  0  0  0  0  0
   37.7380   24.9320   41.0740 C   0  0  0  0  0  0  0  0  0  0  0  0
   36.6820   24.0710   41.1860 C   0  0  0  0  0  0  0  0  0  0  0  0
   35.8980   23.7730   40.1540 C   0  0  0  0  0  0  0  0  0  0  0  0
   36.1850   24.3640   38.9600 C   0  0  0  0  0  0  0  0  0  0  0  0
   37.6640   25.3980   39.3670 S   0  0  0  0  0  0  0  0  0  0  0  0
   36.5320   23.6430   42.1990 H   0  0  0  0  0  0  0  0  0  0  0  0
   35.0470   23.1040   40.1670 H   0  0  0  0  0  0  0  0  0  0  0  0
   35.7340   24.3100   37.9850 H   0  0  0  0  0  0  0  0  0  0  0  0
  1 20  1  0  0  0  0
  2  6  1  0  0  0  0
  2  1  2  0  0  0  0
  3  2  1  0  0  0  0
  4  3  1  0  0  0  0
  4  5  2  0  0  0  0
  5  1  1  0  0  0  0
  7  3  1  0  0  0  0
  8 14  1  6  0  0  0
  8  9  1  0  0  0  0
  8 13  1  0  0  0  0
  9 10  1  0  0  0  0
  9  4  1  1  0  0  0
 10 11  1  0  0  0  0
 11 12  1  0  0  0  0
 12 16  1  6  0  0  0
 13 18  1  6  0  0  0
 13 12  1  0  0  0  0
 15 14  1  0  0  0  0
 17 16  1  0  0  0  0
 19 18  1  0  0  0  0
 20 23  1  0  0  0  0
 20 21  2  0  0  0  0
 22 27  1  0  0  0  0
 22 28  1  0  0  0  0
 23 22  2  0  0  0  0
 24 25  2  0  0  0  0
 24 23  1  0  0  0  0
 25 26  1  0  0  0  0
 26 29  1  0  0  0  0
 26 27  2  0  0  0  0
 30 31  2  0  0  0  0
 30 24  1  0  0  0  0
 31 35  1  0  0  0  0
 32 36  1  0  0  0  0
 32 31  1  0  0  0  0
 33 34  1  0  0  0  0
 33 32  2  0  0  0  0
 34 30  1  0  0  0  0
 37 33  1  0  0  0  0
M  END
>  <minimizedAffinity>
-6.71845007

$$$$

 OpenBabel03252503143D

 37 40  0  0  1  0  0  0  0  0999 V2000
   36.7560   28.6480   41.9420 C   0  0  0  0  0  0  0  0  0  0  0  0
   35.7400   28.7020   41.0120 C   0  0  0  0  0  0  0  0  0  0  0  0
   35.8420   29.9120   40.4330 N   0  0  0  0  0  0  0  0  0  0  0  0
   36.8980   30.5800   41.0000 C   0  0  0  0  0  0  0  0  0  0  0  0
   37.4620   29.7940   41.9340 N   0  0  0  0  0  0  0  0  0  0  0  0
   35.0200   27.9180   40.8060 H   0  0  0  0  0  0  0  0  0  0  0  0
   35.2580   30.3140   39.6910 H   0  0  0  0  0  0  0  0  0  0  0  0
   38.9220   31.9690   40.6790 C   0  0  1  0  0  3  0  0  0  0  0  0
   37.4430   31.9390   40.7300 C   0  0  1  0  0  3  0  0  0  0  0  0
   36.7800   32.4750   39.6560 O   0  0  0  0  0  0  0  0  0  0  0  0
   37.5360   32.7850   38.5520 C   0  0  0  0  0  2  0  0  0  0  0  0
   38.4830   31.6640   38.2200 C   0  0  2  0  0  3  0  0  0  0  0  0
   39.5180   31.6450   39.3330 C   0  0  1  0  0  3  0  0  0  0  0  0
   39.4170   33.1910   41.1910 O   0  0  0  0  0  0  0  0  0  0  0  0
   38.7150   33.7180   41.6330 H   0  0  0  0  0  0  0  0  0  0  0  0
   39.1470   32.0400   37.0320 O   0  0  0  0  0  0  0  0  0  0  0  0
   40.1220   31.7990   37.0970 H   0  0  0  0  0  0  0  0  0  0  0  0
   40.4250   32.6580   39.0280 O   0  0  0  0  0  0  0  0  0  0  0  0
   41.3580   32.4050   39.1230 H   0  0  0  0  0  0  0  0  0  0  0  0
   37.0670   27.4950   42.8550 C   0  0  0  0  0  0  0  0  0  0  0  0
   36.2300   26.9990   43.6650 O   0  0  0  0  0  0  0  0  0  0  0  0
   39.3700   27.4020   43.6640 C   0  0  0  0  0  0  0  0  0  0  0  0
   38.3570   26.9020   42.8390 C   0  0  0  0  0  0  0  0  0  0  0  0
   38.7210   25.8160   42.0400 C   0  0  0  0  0  0  0  0  0  0  0  0
   39.9550   25.2960   42.0660 N   0  0  0  0  0  0  0  0  0  0  0  0
   40.9050   25.8240   42.8900 C   0  0  0  0  0  0  0  0  0  0  0  0
   40.6090   26.8660   43.6780 N   0  0  0  0  0  0  0  0  0  0  0  0
   39.1550   28.2510   44.3150 H   0  0  0  0  0  0  0  0  0  0  0  0
   41.8930   25.3790   42.8860 H   0  0  0  0  0  0  0  0  0  0  0  0
   37.7610   25.2590   41.1820 C   0  0  0  0  0  0  0  0  0  0  0  0
   36.7870   24.3100   41.3300 C   0  0  0  0  0  0  0  0  0  0  0  0
   35.9890   23.9500   40.3280 C   0  0  0  0  0  0  0  0  0  0  0  0
   36.1760   24.5690   39.1280 C   0  0  0  0  0  0  0  0  0  0  0  0
   37.5770   25.7230   39.4820 S   0  0  0  0  0  0  0  0  0  0  0  0
   36.7150   23.8670   42.3450 H   0  0  0  0  0  0  0  0  0  0  0  0
   35.2000   23.2110   40.3700 H   0  0  0  0  0  0  0  0  0  0  0  0
   35.6920   24.4810   38.1710 H   0  0  0  0  0  0  0  0  0  0  0  0
  1 20  1  0  0  0  0
  2  1  2  0  0  0  0
  3  4  1  0  0  0  0
  3  2  1  0  0  0  0
  4  5  2  0  0  0  0
  5  1  1  0  0  0  0
  6  2  1  0  0  0  0
  7  3  1  0  0  0  0
  8  9  1  0  0  0  0
  8 14  1  6  0  0  0
  9  4  1  6  0  0  0
 10  9  1  0  0  0  0
 11 10  1  0  0  0  0
 12 16  1  6  0  0  0
 12 11  1  0  0  0  0
 12 13  1  0  0  0  0
 13 18  1  6  0  0  0
 13  8  1  0  0  0  0
 14 15  1  0  0  0  0
 16 17  1  0  0  0  0
 18 19  1  0  0  0  0
 20 21  2  0  0  0  0
 22 27  1  0  0  0  0
 22 28  1  0  0  0  0
 23 20  1  0  0  0  0
 23 22  2  0  0  0  0
 24 25  2  0  0  0  0
 24 23  1  0  0  0  0
 25 26  1  0  0  0  0
 26 27  2  0  0  0  0
 29 26  1  0  0  0  0
 30 31  2  0  0  0  0
 30 24  1  0  0  0  0
 31 35  1  0  0  0  0
 32 36  1  0  0  0  0
 32 31  1  0  0  0  0
 33 34  1  0  0  0  0
 33 32  2  0  0  0  0
 34 30  1  0  0  0  0
 37 33  1  0  0  0  0
M  END
>  <minimizedAffinity>
-6.49549055

$$$$

 OpenBabel03252503143D

 37 40  0  0  1  0  0  0  0  0999 V2000
   37.7210   28.3630   40.2540 C   0  0  0  0  0  0  0  0  0  0  0  0
   38.3420   28.0500   39.0640 C   0  0  0  0  0  0  0  0  0  0  0  0
   38.5460   29.2260   38.4420 N   0  0  0  0  0  0  0  0  0  0  0  0
   38.0600   30.2320   39.2380 C   0  0  0  0  0  0  0  0  0  0  0  0
   37.5490   29.6940   40.3600 N   0  0  0  0  0  0  0  0  0  0  0  0
   38.6020   27.0560   38.7200 H   0  0  0  0  0  0  0  0  0  0  0  0
   38.9860   29.3960   37.5300 H   0  0  0  0  0  0  0  0  0  0  0  0
   37.6740   32.4560   40.2550 C   0  0  1  0  0  3  0  0  0  0  0  0
   38.0320   31.7060   39.0300 C   0  0  1  0  0  3  0  0  0  0  0  0
   39.1870   32.0830   38.3940 O   0  0  0  0  0  0  0  0  0  0  0  0
   40.0050   32.9600   39.0620 C   0  0  0  0  0  2  0  0  0  0  0  0
   40.1780   32.5440   40.4970 C   0  0  2  0  0  3  0  0  0  0  0  0
   38.8320   32.7740   41.1650 C   0  0  1  0  0  3  0  0  0  0  0  0
   36.9260   33.6120   39.9330 O   0  0  0  0  0  0  0  0  0  0  0  0
   36.6420   33.6200   38.9930 H   0  0  0  0  0  0  0  0  0  0  0  0
   41.0950   33.4510   41.0700 O   0  0  0  0  0  0  0  0  0  0  0  0
   40.7910   33.7030   41.9960 H   0  0  0  0  0  0  0  0  0  0  0  0
   38.7740   34.1390   41.4460 O   0  0  0  0  0  0  0  0  0  0  0  0
   38.4540   34.3530   42.3370 H   0  0  0  0  0  0  0  0  0  0  0  0
   37.2820   27.3890   41.3120 C   0  0  0  0  0  0  0  0  0  0  0  0
   36.6670   27.7310   42.3640 O   0  0  0  0  0  0  0  0  0  0  0  0
   36.5920   25.1590   40.5930 C   0  0  0  0  0  0  0  0  0  0  0  0
   37.5520   26.0030   41.1610 C   0  0  0  0  0  0  0  0  0  0  0  0
   38.7410   25.3810   41.5450 C   0  0  0  0  0  0  0  0  0  0  0  0
   38.9410   24.0670   41.3790 N   0  0  0  0  0  0  0  0  0  0  0  0
   37.9700   23.2900   40.8200 C   0  0  0  0  0  0  0  0  0  0  0  0
   36.8100   23.8360   40.4330 N   0  0  0  0  0  0  0  0  0  0  0  0
   35.6380   25.5790   40.2710 H   0  0  0  0  0  0  0  0  0  0  0  0
   38.1650   22.2300   40.7000 H   0  0  0  0  0  0  0  0  0  0  0  0
   39.7530   26.1600   42.1260 C   0  0  0  0  0  0  0  0  0  0  0  0
   39.9710   26.6550   43.3830 C   0  0  0  0  0  0  0  0  0  0  0  0
   41.0380   27.3900   43.6790 C   0  0  0  0  0  0  0  0  0  0  0  0
   41.9250   27.6390   42.6740 C   0  0  0  0  0  0  0  0  0  0  0  0
   41.1610   26.7610   41.2360 S   0  0  0  0  0  0  0  0  0  0  0  0
   39.1920   26.3960   44.1300 H   0  0  0  0  0  0  0  0  0  0  0  0
   41.2770   27.8130   44.6460 H   0  0  0  0  0  0  0  0  0  0  0  0
   42.8490   28.1880   42.6260 H   0  0  0  0  0  0  0  0  0  0  0  0
  1  5  1  0  0  0  0
  1 20  1  0  0  0  0
  2  1  2  0  0  0  0
  3  2  1  0  0  0  0
  3  4  1  0  0  0  0
  4  5  2  0  0  0  0
  6  2  1  0  0  0  0
  7  3  1  0  0  0  0
  8 14  1  6  0  0  0
  8 13  1  0  0  0  0
  9  4  1  1  0  0  0
  9  8  1  0  0  0  0
 10  9  1  0  0  0  0
 10 11  1  0  0  0  0
 11 12  1  0  0  0  0
 12 16  1  1  0  0  0
 12 13  1  0  0  0  0
 13 18  1  6  0  0  0
 15 14  1  0  0  0  0
 16 17  1  0  0  0  0
 18 19  1  0  0  0  0
 20 21  2  0  0  0  0
 22 23  1  0  0  0  0
 23 20  1  0  0  0  0
 23 24  2  0  0  0  0
 24 30  1  0  0  0  0
 25 24  1  0  0  0  0
 26 25  2  0  0  0  0
 27 22  2  0  0  0  0
 27 26  1  0  0  0  0
 28 22  1  0  0  0  0
 29 26  1  0  0  0  0
 30 31  2  0  0  0  0
 31 32  1  0  0  0  0
 31 35  1  0  0  0  0
 32 36  1  0  0  0  0
 33 32  2  0  0  0  0
 34 30  1  0  0  0  0
 34 33  1  0  0  0  0
 37 33  1  0  0  0  0
M  END
>  <minimizedAffinity>
-6.29667044

$$$$

 OpenBabel03252503143D

 37 40  0  0  1  0  0  0  0  0999 V2000
   37.0690   27.6490   41.9360 C   0  0  0  0  0  0  0  0  0  0  0  0
   37.3670   28.4080   43.0470 C   0  0  0  0  0  0  0  0  0  0  0  0
   37.1840   29.6870   42.6720 N   0  0  0  0  0  0  0  0  0  0  0  0
   36.7820   29.7050   41.3600 C   0  0  0  0  0  0  0  0  0  0  0  0
   36.7120   28.4410   40.9080 N   0  0  0  0  0  0  0  0  0  0  0  0
   37.6820   28.0310   44.0130 H   0  0  0  0  0  0  0  0  0  0  0  0
   37.3080   30.5390   43.2320 H   0  0  0  0  0  0  0  0  0  0  0  0
   37.4740   31.9120   40.4770 C   0  0  1  0  0  3  0  0  0  0  0  0
   36.4470   30.8460   40.4650 C   0  0  1  0  0  3  0  0  0  0  0  0
   36.0880   30.3530   39.2370 O   0  0  0  0  0  0  0  0  0  0  0  0
   36.8600   30.7310   38.1660 C   0  0  0  0  0  2  0  0  0  0  0  0
   38.3240   30.6140   38.4950 C   0  0  2  0  0  3  0  0  0  0  0  0
   38.6130   31.7060   39.5120 C   0  0  1  0  0  3  0  0  0  0  0  0
   36.8770   33.1850   40.3210 O   0  0  0  0  0  0  0  0  0  0  0  0
   35.8990   33.1470   40.3990 H   0  0  0  0  0  0  0  0  0  0  0  0
   39.0270   30.9390   37.3140 O   0  0  0  0  0  0  0  0  0  0  0  0
   39.8220   31.5140   37.5390 H   0  0  0  0  0  0  0  0  0  0  0  0
   38.7520   32.8840   38.7790 O   0  0  0  0  0  0  0  0  0  0  0  0
   39.5130   33.4300   39.0340 H   0  0  0  0  0  0  0  0  0  0  0  0
   37.1200   26.1500   41.8420 C   0  0  0  0  0  0  0  0  0  0  0  0
   36.6200   25.3770   42.7120 O   0  0  0  0  0  0  0  0  0  0  0  0
   36.9860   25.0670   39.6570 C   0  0  0  0  0  0  0  0  0  0  0  0
   37.7510   25.5270   40.7340 C   0  0  0  0  0  0  0  0  0  0  0  0
   39.1280   25.3240   40.6170 C   0  0  0  0  0  0  0  0  0  0  0  0
   39.6690   24.7290   39.5460 N   0  0  0  0  0  0  0  0  0  0  0  0
   38.8760   24.2990   38.5240 C   0  0  0  0  0  0  0  0  0  0  0  0
   37.5490   24.4700   38.5850 N   0  0  0  0  0  0  0  0  0  0  0  0
   35.9030   25.1930   39.6820 H   0  0  0  0  0  0  0  0  0  0  0  0
   39.3480   23.8220   37.6730 H   0  0  0  0  0  0  0  0  0  0  0  0
   39.9640   25.7540   41.6580 C   0  0  0  0  0  0  0  0  0  0  0  0
   40.3630   25.2090   42.8470 C   0  0  0  0  0  0  0  0  0  0  0  0
   41.1820   25.8440   43.6790 C   0  0  0  0  0  0  0  0  0  0  0  0
   41.6200   27.0790   43.3030 C   0  0  0  0  0  0  0  0  0  0  0  0
   40.7970   27.3170   41.6640 S   0  0  0  0  0  0  0  0  0  0  0  0
   39.9510   24.2000   43.0610 H   0  0  0  0  0  0  0  0  0  0  0  0
   41.5390   25.4770   44.6320 H   0  0  0  0  0  0  0  0  0  0  0  0
   42.2700   27.8020   43.7640 H   0  0  0  0  0  0  0  0  0  0  0  0
  1  2  2  0  0  0  0
  2  6  1  0  0  0  0
  3  2  1  0  0  0  0
  3  7  1  0  0  0  0
  4  3  1  0  0  0  0
  5  4  2  0  0  0  0
  5  1  1  0  0  0  0
  8 14  1  6  0  0  0
  9  8  1  0  0  0  0
  9  4  1  1  0  0  0
 10  9  1  0  0  0  0
 11 12  1  0  0  0  0
 11 10  1  0  0  0  0
 12 16  1  6  0  0  0
 12 13  1  0  0  0  0
 13 18  1  6  0  0  0
 13  8  1  0  0  0  0
 14 15  1  0  0  0  0
 16 17  1  0  0  0  0
 18 19  1  0  0  0  0
 20  1  1  0  0  0  0
 20 21  2  0  0  0  0
 22 28  1  0  0  0  0
 22 23  1  0  0  0  0
 23 20  1  0  0  0  0
 24 23  2  0  0  0  0
 24 30  1  0  0  0  0
 25 24  1  0  0  0  0
 26 27  1  0  0  0  0
 26 25  2  0  0  0  0
 27 22  2  0  0  0  0
 29 26  1  0  0  0  0
 30 34  1  0  0  0  0
 30 31  2  0  0  0  0
 31 35  1  0  0  0  0
 31 32  1  0  0  0  0
 32 36  1  0  0  0  0
 33 32  2  0  0  0  0
 33 37  1  0  0  0  0
 34 33  1  0  0  0  0
M  END
>  <minimizedAffinity>
-6.28903246

$$$$

 OpenBabel03252503143D

 37 40  0  0  1  0  0  0  0  0999 V2000
   37.9040   28.3400   38.9150 C   0  0  0  0  0  0  0  0  0  0  0  0
   39.2060   28.3240   38.4670 C   0  0  0  0  0  0  0  0  0  0  0  0
   39.5640   29.6150   38.3470 N   0  0  0  0  0  0  0  0  0  0  0  0
   38.5000   30.4000   38.7150 C   0  0  0  0  0  0  0  0  0  0  0  0
   37.4740   29.6060   39.0660 N   0  0  0  0  0  0  0  0  0  0  0  0
   39.8010   27.4410   38.2610 H   0  0  0  0  0  0  0  0  0  0  0  0
   40.4640   30.0000   38.0380 H   0  0  0  0  0  0  0  0  0  0  0  0
   37.8930   32.3710   40.0830 C   0  0  1  0  0  3  0  0  0  0  0  0
   38.3600   31.8810   38.7670 C   0  0  1  0  0  3  0  0  0  0  0  0
   39.5040   32.4500   38.2690 O   0  0  0  0  0  0  0  0  0  0  0  0
   40.2210   33.2520   39.1240 C   0  0  0  0  0  2  0  0  0  0  0  0
   40.3690   32.5990   40.4710 C   0  0  2  0  0  3  0  0  0  0  0  0
   38.9840   32.6060   41.0960 C   0  0  1  0  0  3  0  0  0  0  0  0
   37.0660   33.5080   39.9290 O   0  0  0  0  0  0  0  0  0  0  0  0
   36.8200   33.6630   38.9910 H   0  0  0  0  0  0  0  0  0  0  0  0
   41.1860   33.4540   41.2430 O   0  0  0  0  0  0  0  0  0  0  0  0
   40.8250   33.5130   42.1810 H   0  0  0  0  0  0  0  0  0  0  0  0
   38.8030   33.8900   41.6080 O   0  0  0  0  0  0  0  0  0  0  0  0
   38.4310   33.9170   42.5050 H   0  0  0  0  0  0  0  0  0  0  0  0
   37.0470   27.1390   39.2080 C   0  0  0  0  0  0  0  0  0  0  0  0
   35.7840   27.1420   39.1160 O   0  0  0  0  0  0  0  0  0  0  0  0
   37.8980   24.9140   38.6710 C   0  0  0  0  0  0  0  0  0  0  0  0
   37.6470   25.9170   39.6120 C   0  0  0  0  0  0  0  0  0  0  0  0
   38.0270   25.6150   40.9210 C   0  0  0  0  0  0  0  0  0  0  0  0
   38.5900   24.4440   41.2450 N   0  0  0  0  0  0  0  0  0  0  0  0
   38.8120   23.5000   40.2870 C   0  0  0  0  0  0  0  0  0  0  0  0
   38.4670   23.7390   39.0140 N   0  0  0  0  0  0  0  0  0  0  0  0
   37.6260   25.0830   37.6280 H   0  0  0  0  0  0  0  0  0  0  0  0
   39.2690   22.5630   40.5840 H   0  0  0  0  0  0  0  0  0  0  0  0
   37.8050   26.5700   41.9250 C   0  0  0  0  0  0  0  0  0  0  0  0
   36.7740   26.8240   42.7870 C   0  0  0  0  0  0  0  0  0  0  0  0
   36.8130   27.8220   43.6650 C   0  0  0  0  0  0  0  0  0  0  0  0
   37.9340   28.5980   43.6790 C   0  0  0  0  0  0  0  0  0  0  0  0
   38.9710   27.8330   42.3520 S   0  0  0  0  0  0  0  0  0  0  0  0
   35.9080   26.1360   42.6960 H   0  0  0  0  0  0  0  0  0  0  0  0
   36.0390   28.0830   44.3750 H   0  0  0  0  0  0  0  0  0  0  0  0
   38.2330   29.4490   44.2650 H   0  0  0  0  0  0  0  0  0  0  0  0
  1  5  1  0  0  0  0
  1 20  1  0  0  0  0
  2  1  2  0  0  0  0
  3  2  1  0  0  0  0
  3  4  1  0  0  0  0
  4  5  2  0  0  0  0
  6  2  1  0  0  0  0
  7  3  1  0  0  0  0
  8 14  1  6  0  0  0
  8 13  1  0  0  0  0
  9  4  1  1  0  0  0
  9  8  1  0  0  0  0
 10  9  1  0  0  0  0
 10 11  1  0  0  0  0
 11 12  1  0  0  0  0
 12 13  1  0  0  0  0
 12 16  1  1  0  0  0
 13 18  1  6  0  0  0
 15 14  1  0  0  0  0
 16 17  1  0  0  0  0
 18 19  1  0  0  0  0
 20 23  1  0  0  0  0
 21 20  2  0  0  0  0
 22 27  2  0  0  0  0
 22 23  1  0  0  0  0
 23 24  2  0  0  0  0
 24 25  1  0  0  0  0
 24 30  1  0  0  0  0
 26 29  1  0  0  0  0
 26 25  2  0  0  0  0
 27 26  1  0  0  0  0
 28 22  1  0  0  0  0
 30 34  1  0  0  0  0
 30 31  2  0  0  0  0
 31 32  1  0  0  0  0
 32 33  2  0  0  0  0
 32 36  1  0  0  0  0
 33 37  1  0  0  0  0
 34 33  1  0  0  0  0
 35 31  1  0  0  0  0
M  END
>  <minimizedAffinity>
-6.27440691

$$$$

 OpenBabel03252503143D

 37 40  0  0  1  0  0  0  0  0999 V2000
   37.4570   28.2780   39.0320 C   0  0  0  0  0  0  0  0  0  0  0  0
   36.1270   28.5550   39.2640 C   0  0  0  0  0  0  0  0  0  0  0  0
   36.0070   29.8890   39.1390 N   0  0  0  0  0  0  0  0  0  0  0  0
   37.2390   30.4120   38.8370 C   0  0  0  0  0  0  0  0  0  0  0  0
   38.1350   29.4120   38.7720 N   0  0  0  0  0  0  0  0  0  0  0  0
   35.3550   27.8310   39.4970 H   0  0  0  0  0  0  0  0  0  0  0  0
   35.1630   30.4640   39.2410 H   0  0  0  0  0  0  0  0  0  0  0  0
   37.2740   32.7350   39.6930 C   0  0  1  0  0  3  0  0  0  0  0  0
   37.6620   31.8190   38.5960 C   0  0  1  0  0  3  0  0  0  0  0  0
   38.9820   31.8270   38.2280 O   0  0  0  0  0  0  0  0  0  0  0  0
   39.8500   32.5090   39.0430 C   0  0  0  0  0  2  0  0  0  0  0  0
   39.5960   32.1810   40.4890 C   0  0  2  0  0  3  0  0  0  0  0  0
   38.2560   32.8110   40.8330 C   0  0  1  0  0  3  0  0  0  0  0  0
   36.9570   34.0170   39.1860 O   0  0  0  0  0  0  0  0  0  0  0  0
   36.8900   34.0220   38.2060 H   0  0  0  0  0  0  0  0  0  0  0  0
   40.5850   32.8590   41.2340 O   0  0  0  0  0  0  0  0  0  0  0  0
   40.1740   33.2580   42.0620 H   0  0  0  0  0  0  0  0  0  0  0  0
   38.5170   34.1610   41.0640 O   0  0  0  0  0  0  0  0  0  0  0  0
   38.0880   34.5240   41.8560 H   0  0  0  0  0  0  0  0  0  0  0  0
   38.1020   26.9210   39.0550 C   0  0  0  0  0  0  0  0  0  0  0  0
   39.3250   26.7230   38.7930 O   0  0  0  0  0  0  0  0  0  0  0  0
   36.7270   25.0210   38.3730 C   0  0  0  0  0  0  0  0  0  0  0  0
   37.3350   25.7720   39.3850 C   0  0  0  0  0  0  0  0  0  0  0  0
   37.1240   25.3050   40.6830 C   0  0  0  0  0  0  0  0  0  0  0  0
   36.3890   24.2140   40.9350 N   0  0  0  0  0  0  0  0  0  0  0  0
   35.8190   23.5180   39.9110 C   0  0  0  0  0  0  0  0  0  0  0  0
   35.9900   23.9230   38.6450 N   0  0  0  0  0  0  0  0  0  0  0  0
   36.8500   25.3300   37.3340 H   0  0  0  0  0  0  0  0  0  0  0  0
   35.2310   22.6400   40.1500 H   0  0  0  0  0  0  0  0  0  0  0  0
   37.6980   26.0070   41.7540 C   0  0  0  0  0  0  0  0  0  0  0  0
   37.2600   26.9990   42.5870 C   0  0  0  0  0  0  0  0  0  0  0  0
   38.0260   27.5080   43.5480 C   0  0  0  0  0  0  0  0  0  0  0  0
   39.2840   27.0010   43.6780 C   0  0  0  0  0  0  0  0  0  0  0  0
   39.3470   25.7270   42.3380 S   0  0  0  0  0  0  0  0  0  0  0  0
   36.2210   27.3430   42.4000 H   0  0  0  0  0  0  0  0  0  0  0  0
   37.7480   28.2900   44.2420 H   0  0  0  0  0  0  0  0  0  0  0  0
   40.0990   27.2160   44.3470 H   0  0  0  0  0  0  0  0  0  0  0  0
  1 20  1  0  0  0  0
  1  2  2  0  0  0  0
  2  6  1  0  0  0  0
  3  7  1  0  0  0  0
  3  2  1  0  0  0  0
  4  3  1  0  0  0  0
  5  4  2  0  0  0  0
  5  1  1  0  0  0  0
  8 14  1  6  0  0  0
  8 13  1  0  0  0  0
  9  4  1  1  0  0  0
  9  8  1  0  0  0  0
 10  9  1  0  0  0  0
 10 11  1  0  0  0  0
 11 12  1  0  0  0  0
 12 13  1  0  0  0  0
 12 16  1  1  0  0  0
 13 18  1  6  0  0  0
 15 14  1  0  0  0  0
 16 17  1  0  0  0  0
 18 19  1  0  0  0  0
 20 23  1  0  0  0  0
 21 20  2  0  0  0  0
 22 27  2  0  0  0  0
 22 23  1  0  0  0  0
 23 24  2  0  0  0  0
 24 25  1  0  0  0  0
 24 30  1  0  0  0  0
 26 29  1  0  0  0  0
 26 25  2  0  0  0  0
 27 26  1  0  0  0  0
 28 22  1  0  0  0  0
 30 34  1  0  0  0  0
 30 31  2  0  0  0  0
 31 32  1  0  0  0  0
 32 33  2  0  0  0  0
 32 36  1  0  0  0  0
 33 37  1  0  0  0  0
 34 33  1  0  0  0  0
 35 31  1  0  0  0  0
M  END
>  <minimizedAffinity>
-6.18633556

$$$$

 OpenBabel03252503143D

 37 40  0  0  1  0  0  0  0  0999 V2000
   38.5670   31.5620   40.8900 C   0  0  0  0  0  0  0  0  0  0  0  0
   38.7120   32.9110   41.1300 C   0  0  0  0  0  0  0  0  0  0  0  0
   39.9740   33.2090   40.7720 N   0  0  0  0  0  0  0  0  0  0  0  0
   40.5840   32.0650   40.3240 C   0  0  0  0  0  0  0  0  0  0  0  0
   39.7090   31.0460   40.3980 N   0  0  0  0  0  0  0  0  0  0  0  0
   37.9520   33.5760   41.5250 H   0  0  0  0  0  0  0  0  0  0  0  0
   40.4480   34.1190   40.8070 H   0  0  0  0  0  0  0  0  0  0  0  0
   41.9890   31.1480   38.5030 C   0  0  1  0  0  3  0  0  0  0  0  0
   41.9630   31.8370   39.8130 C   0  0  1  0  0  3  0  0  0  0  0  0
   42.6670   33.0100   39.9050 O   0  0  0  0  0  0  0  0  0  0  0  0
   43.1400   33.5420   38.7310 C   0  0  0  0  0  2  0  0  0  0  0  0
   42.0780   33.5200   37.6660 C   0  0  2  0  0  3  0  0  0  0  0  0
   41.8750   32.0570   37.3070 C   0  0  1  0  0  3  0  0  0  0  0  0
   43.1110   30.2930   38.4080 O   0  0  0  0  0  0  0  0  0  0  0  0
   43.5680   30.1850   39.2710 H   0  0  0  0  0  0  0  0  0  0  0  0
   42.6300   34.1610   36.5360 O   0  0  0  0  0  0  0  0  0  0  0  0
   42.3740   33.6590   35.7010 H   0  0  0  0  0  0  0  0  0  0  0  0
   42.9170   31.7300   36.4390 O   0  0  0  0  0  0  0  0  0  0  0  0
   42.6440   31.2250   35.6560 H   0  0  0  0  0  0  0  0  0  0  0  0
   37.3290   30.7430   41.1280 C   0  0  0  0  0  0  0  0  0  0  0  0
   36.1570   31.2240   41.1030 O   0  0  0  0  0  0  0  0  0  0  0  0
   37.7940   28.9110   42.6750 C   0  0  0  0  0  0  0  0  0  0  0  0
   37.4350   29.3530   41.3970 C   0  0  0  0  0  0  0  0  0  0  0  0
   37.2010   28.3440   40.4610 C   0  0  0  0  0  0  0  0  0  0  0  0
   37.3160   27.0460   40.7720 N   0  0  0  0  0  0  0  0  0  0  0  0
   37.6700   26.6710   42.0340 C   0  0  0  0  0  0  0  0  0  0  0  0
   37.9050   27.5990   42.9710 N   0  0  0  0  0  0  0  0  0  0  0  0
   37.9910   29.6470   43.4560 H   0  0  0  0  0  0  0  0  0  0  0  0
   37.7540   25.6120   42.2510 H   0  0  0  0  0  0  0  0  0  0  0  0
   36.8400   28.7070   39.1550 C   0  0  0  0  0  0  0  0  0  0  0  0
   35.6460   28.8960   38.5150 C   0  0  0  0  0  0  0  0  0  0  0  0
   35.5760   29.2440   37.2330 C   0  0  0  0  0  0  0  0  0  0  0  0
   36.7540   29.4090   36.5650 C   0  0  0  0  0  0  0  0  0  0  0  0
   38.0120   29.0380   37.8690 S   0  0  0  0  0  0  0  0  0  0  0  0
   34.7460   28.7380   39.1450 H   0  0  0  0  0  0  0  0  0  0  0  0
   34.6730   29.4120   36.6620 H   0  0  0  0  0  0  0  0  0  0  0  0
   36.9940   29.6800   35.5520 H   0  0  0  0  0  0  0  0  0  0  0  0
  1 20  1  0  0  0  0
  1  2  2  0  0  0  0
  2  6  1  0  0  0  0
  3  7  1  0  0  0  0
  3  2  1  0  0  0  0
  4  5  2  0  0  0  0
  4  3  1  0  0  0  0
  5  1  1  0  0  0  0
  8 14  1  6  0  0  0
  8  9  1  0  0  0  0
  9 10  1  0  0  0  0
  9  4  1  6  0  0  0
 11 10  1  0  0  0  0
 12 16  1  6  0  0  0
 12 11  1  0  0  0  0
 13 18  1  6  0  0  0
 13 12  1  0  0  0  0
 13  8  1  0  0  0  0
 14 15  1  0  0  0  0
 17 16  1  0  0  0  0
 19 18  1  0  0  0  0
 20 23  1  0  0  0  0
 21 20  2  0  0  0  0
 22 27  1  0  0  0  0
 22 28  1  0  0  0  0
 23 22  2  0  0  0  0
 24 25  2  0  0  0  0
 24 23  1  0  0  0  0
 25 26  1  0  0  0  0
 26 29  1  0  0  0  0
 26 27  2  0  0  0  0
 30 24  1  0  0  0  0
 31 35  1  0  0  0  0
 31 30  2  0  0  0  0
 32 31  1  0  0  0  0
 33 32  2  0  0  0  0
 33 34  1  0  0  0  0
 34 30  1  0  0  0  0
 36 32  1  0  0  0  0
 37 33  1  0  0  0  0
M  END
>  <minimizedAffinity>
-6.17497301

$$$$

 OpenBabel03252503143D

 37 40  0  0  1  0  0  0  0  0999 V2000
   36.7920   28.3320   41.5000 C   0  0  0  0  0  0  0  0  0  0  0  0
   36.0850   28.2890   40.3180 C   0  0  0  0  0  0  0  0  0  0  0  0
   36.1920   29.5200   39.7870 N   0  0  0  0  0  0  0  0  0  0  0  0
   36.9480   30.2960   40.6290 C   0  0  0  0  0  0  0  0  0  0  0  0
   37.3170   29.5570   41.6890 N   0  0  0  0  0  0  0  0  0  0  0  0
   35.5600   27.4290   39.9180 H   0  0  0  0  0  0  0  0  0  0  0  0
   35.7960   29.8700   38.9060 H   0  0  0  0  0  0  0  0  0  0  0  0
   38.8340   31.8990   40.6100 C   0  0  1  0  0  3  0  0  0  0  0  0
   37.3670   31.7200   40.5200 C   0  0  1  0  0  3  0  0  0  0  0  0
   36.7450   32.2810   39.4340 O   0  0  0  0  0  0  0  0  0  0  0  0
   37.5560   32.7600   38.4340 C   0  0  0  0  0  2  0  0  0  0  0  0
   38.6400   31.7710   38.1040 C   0  0  2  0  0  3  0  0  0  0  0  0
   39.5720   31.7550   39.3050 C   0  0  1  0  0  3  0  0  0  0  0  0
   39.1510   33.1140   41.2620 O   0  0  0  0  0  0  0  0  0  0  0  0
   38.3630   33.5280   41.6760 H   0  0  0  0  0  0  0  0  0  0  0  0
   39.3590   32.3130   37.0170 O   0  0  0  0  0  0  0  0  0  0  0  0
   40.3460   32.1650   37.1540 H   0  0  0  0  0  0  0  0  0  0  0  0
   40.3910   32.8750   39.1670 O   0  0  0  0  0  0  0  0  0  0  0  0
   41.3330   32.7080   39.3290 H   0  0  0  0  0  0  0  0  0  0  0  0
   36.9760   27.1990   42.4700 C   0  0  0  0  0  0  0  0  0  0  0  0
   36.6030   27.2460   43.6800 O   0  0  0  0  0  0  0  0  0  0  0  0
   36.8310   24.8360   41.8680 C   0  0  0  0  0  0  0  0  0  0  0  0
   37.5960   25.9930   42.0490 C   0  0  0  0  0  0  0  0  0  0  0  0
   38.9600   25.8530   41.7850 C   0  0  0  0  0  0  0  0  0  0  0  0
   39.4910   24.6890   41.3890 N   0  0  0  0  0  0  0  0  0  0  0  0
   38.6990   23.5920   41.2290 C   0  0  0  0  0  0  0  0  0  0  0  0
   37.3830   23.6710   41.4670 N   0  0  0  0  0  0  0  0  0  0  0  0
   35.7570   24.8740   42.0560 H   0  0  0  0  0  0  0  0  0  0  0  0
   39.1620   22.6660   40.9070 H   0  0  0  0  0  0  0  0  0  0  0  0
   39.7960   26.9690   41.9470 C   0  0  0  0  0  0  0  0  0  0  0  0
   40.3330   27.6070   43.0310 C   0  0  0  0  0  0  0  0  0  0  0  0
   41.1140   28.6770   42.9080 C   0  0  0  0  0  0  0  0  0  0  0  0
   41.3660   29.1250   41.6450 C   0  0  0  0  0  0  0  0  0  0  0  0
   40.4200   27.9300   40.5970 S   0  0  0  0  0  0  0  0  0  0  0  0
   40.0690   27.1650   44.0130 H   0  0  0  0  0  0  0  0  0  0  0  0
   41.5730   29.2320   43.7160 H   0  0  0  0  0  0  0  0  0  0  0  0
   41.9450   29.9450   41.2570 H   0  0  0  0  0  0  0  0  0  0  0  0
  1  5  1  0  0  0  0
  1 20  1  0  0  0  0
  2  1  2  0  0  0  0
  3  2  1  0  0  0  0
  3  4  1  0  0  0  0
  4  5  2  0  0  0  0
  6  2  1  0  0  0  0
  7  3  1  0  0  0  0
  8 14  1  6  0  0  0
  9  8  1  0  0  0  0
  9  4  1  6  0  0  0
 10  9  1  0  0  0  0
 11 10  1  0  0  0  0
 12 16  1  6  0  0  0
 12 11  1  0  0  0  0
 12 13  1  0  0  0  0
 13 18  1  6  0  0  0
 13  8  1  0  0  0  0
 14 15  1  0  0  0  0
 16 17  1  0  0  0  0
 18 19  1  0  0  0  0
 20 21  2  0  0  0  0
 22 23  1  0  0  0  0
 22 28  1  0  0  0  0
 23 20  1  0  0  0  0
 24 30  1  0  0  0  0
 24 23  2  0  0  0  0
 25 24  1  0  0  0  0
 26 25  2  0  0  0  0
 26 27  1  0  0  0  0
 27 22  2  0  0  0  0
 29 26  1  0  0  0  0
 30 31  2  0  0  0  0
 31 35  1  0  0  0  0
 32 31  1  0  0  0  0
 32 36  1  0  0  0  0
 33 32  2  0  0  0  0
 34 33  1  0  0  0  0
 34 30  1  0  0  0  0
 37 33  1  0  0  0  0
M  END
>  <minimizedAffinity>
-6.15815496

$$$$

 OpenBabel03252503143D

 37 40  0  0  1  0  0  0  0  0999 V2000
   38.0690   29.0060   41.9470 C   0  0  0  0  0  0  0  0  0  0  0  0
   39.2580   29.1030   42.6380 C   0  0  0  0  0  0  0  0  0  0  0  0
   39.7040   30.3530   42.4180 N   0  0  0  0  0  0  0  0  0  0  0  0
   38.8050   31.0030   41.6110 C   0  0  0  0  0  0  0  0  0  0  0  0
   37.7930   30.1650   41.3210 N   0  0  0  0  0  0  0  0  0  0  0  0
   39.7190   28.3210   43.2290 H   0  0  0  0  0  0  0  0  0  0  0  0
   40.5620   30.7940   42.7700 H   0  0  0  0  0  0  0  0  0  0  0  0
   40.1250   32.7820   40.5070 C   0  0  1  0  0  3  0  0  0  0  0  0
   38.8130   32.3900   41.0700 C   0  0  1  0  0  3  0  0  0  0  0  0
   37.7220   32.5530   40.2560 O   0  0  0  0  0  0  0  0  0  0  0  0
   37.9690   32.8530   38.9390 C   0  0  0  0  0  2  0  0  0  0  0  0
   39.0490   31.9670   38.3820 C   0  0  2  0  0  3  0  0  0  0  0  0
   40.3380   32.3970   39.0660 C   0  0  1  0  0  3  0  0  0  0  0  0
   40.3720   34.1570   40.7240 O   0  0  0  0  0  0  0  0  0  0  0  0
   39.7210   34.5570   41.3420 H   0  0  0  0  0  0  0  0  0  0  0  0
   39.1680   32.2930   37.0140 O   0  0  0  0  0  0  0  0  0  0  0  0
   40.1400   32.3200   36.7530 H   0  0  0  0  0  0  0  0  0  0  0  0
   40.7650   33.5400   38.3910 O   0  0  0  0  0  0  0  0  0  0  0  0
   41.7110   33.5500   38.1750 H   0  0  0  0  0  0  0  0  0  0  0  0
   37.1760   27.7990   41.8770 C   0  0  0  0  0  0  0  0  0  0  0  0
   36.4830   27.3840   42.8520 O   0  0  0  0  0  0  0  0  0  0  0  0
   36.1540   27.4380   39.6870 C   0  0  0  0  0  0  0  0  0  0  0  0
   37.0740   27.0570   40.6700 C   0  0  0  0  0  0  0  0  0  0  0  0
   37.8450   25.9340   40.3640 C   0  0  0  0  0  0  0  0  0  0  0  0
   37.7050   25.2720   39.2080 N   0  0  0  0  0  0  0  0  0  0  0  0
   36.7930   25.6860   38.2840 C   0  0  0  0  0  0  0  0  0  0  0  0
   36.0280   26.7590   38.5270 N   0  0  0  0  0  0  0  0  0  0  0  0
   35.5190   28.3070   39.8620 H   0  0  0  0  0  0  0  0  0  0  0  0
   36.7060   25.1270   37.3590 H   0  0  0  0  0  0  0  0  0  0  0  0
   38.7880   25.4870   41.3010 C   0  0  0  0  0  0  0  0  0  0  0  0
   38.7190   24.7180   42.4300 C   0  0  0  0  0  0  0  0  0  0  0  0
   39.7920   24.4370   43.1630 C   0  0  0  0  0  0  0  0  0  0  0  0
   40.9850   24.9480   42.7460 C   0  0  0  0  0  0  0  0  0  0  0  0
   40.5130   25.8790   41.2190 S   0  0  0  0  0  0  0  0  0  0  0  0
   37.7030   24.3500   42.6840 H   0  0  0  0  0  0  0  0  0  0  0  0
   39.8150   23.8380   44.0640 H   0  0  0  0  0  0  0  0  0  0  0  0
   41.9880   24.8870   43.1310 H   0  0  0  0  0  0  0  0  0  0  0  0
  1  2  2  0  0  0  0
  2  6  1  0  0  0  0
  3  2  1  0  0  0  0
  3  7  1  0  0  0  0
  4  3  1  0  0  0  0
  5  4  2  0  0  0  0
  5  1  1  0  0  0  0
  8 14  1  6  0  0  0
  8  9  1  0  0  0  0
  9  4  1  6  0  0  0
 10  9  1  0  0  0  0
 11 10  1  0  0  0  0
 12 16  1  6  0  0  0
 12 11  1  0  0  0  0
 12 13  1  0  0  0  0
 13 18  1  6  0  0  0
 13  8  1  0  0  0  0
 14 15  1  0  0  0  0
 17 16  1  0  0  0  0
 19 18  1  0  0  0  0
 20  1  1  0  0  0  0
 20 21  2  0  0  0  0
 22 28  1  0  0  0  0
 22 23  1  0  0  0  0
 23 20  1  0  0  0  0
 24 23  2  0  0  0  0
 24 30  1  0  0  0  0
 25 24  1  0  0  0  0
 26 27  1  0  0  0  0
 26 25  2  0  0  0  0
 27 22  2  0  0  0  0
 29 26  1  0  0  0  0
 30 31  2  0  0  0  0
 31 35  1  0  0  0  0
 31 32  1  0  0  0  0
 32 36  1  0  0  0  0
 33 37  1  0  0  0  0
 33 32  2  0  0  0  0
 34 30  1  0  0  0  0
 34 33  1  0  0  0  0
M  END
>  <minimizedAffinity>
-6.14885664

$$$$
