
     RDKit          3D

 30 31  0  0  0  0  0  0  0  0999 V2000
   44.3869   35.7709   44.4362 C   0  0  0  0  0  0  0  0  0  0  0  0
   44.6696   35.0568   43.2578 C   0  0  0  0  0  0  0  0  0  0  0  0
   45.2929   33.8255   43.3936 C   0  0  0  0  0  0  0  0  0  0  0  0
   45.5902   33.3857   44.6330 N   0  0  0  0  0  0  0  0  0  0  0  0
   45.3074   34.0911   45.7392 C   0  0  0  0  0  0  0  0  0  0  0  0
   44.6944   35.3096   45.6662 N   0  0  0  0  0  0  0  0  0  0  0  0
   44.2576   35.7265   42.0109 C   0  0  0  0  0  0  0  0  0  0  0  0
   43.8983   36.7532   44.4668 H   0  0  0  0  0  0  0  0  0  0  0  0
   45.4913   33.3120   42.4632 H   0  0  0  0  0  0  0  0  0  0  0  0
   45.5700   33.6868   46.7080 H   0  0  0  0  0  0  0  0  0  0  0  0
   44.9845   35.3668   41.2299 H   0  0  0  0  0  0  0  0  0  0  0  0
   44.3288   36.8152   42.1129 H   0  0  0  0  0  0  0  0  0  0  0  0
   43.5831   35.0394   39.4360 O   0  0  0  0  0  0  0  0  0  0  0  0
   42.8454   34.4144   40.4622 C   0  0  1  0  0  0  0  0  0  0  0  0
   42.8441   35.3656   41.6062 C   0  0  2  0  0  0  0  0  0  0  0  0
   42.0137   36.4290   41.5092 O   0  0  0  0  0  0  0  0  0  0  0  0
   40.8156   36.2690   40.9260 C   0  0  0  0  0  0  0  0  0  0  0  0
   40.6913   35.3779   39.7501 C   0  0  2  0  0  0  0  0  0  0  0  0
   39.3520   35.0054   39.6193 O   0  0  0  0  0  0  0  0  0  0  0  0
   41.4852   34.1017   39.9202 C   0  0  1  0  0  0  0  0  0  0  0  0
   41.5204   33.4985   38.6766 O   0  0  0  0  0  0  0  0  0  0  0  0
   43.8482   34.3959   38.7431 H   0  0  0  0  0  0  0  0  0  0  0  0
   43.3779   33.4723   40.7038 H   0  0  0  0  0  0  0  0  0  0  0  0
   42.4388   34.7592   42.4729 H   0  0  0  0  0  0  0  0  0  0  0  0
   40.3821   37.2597   40.6266 H   0  0  0  0  0  0  0  0  0  0  0  0
   40.0989   35.8669   41.7012 H   0  0  0  0  0  0  0  0  0  0  0  0
   40.9537   35.8979   38.8052 H   0  0  0  0  0  0  0  0  0  0  0  0
   38.8280   35.6529   39.1092 H   0  0  0  0  0  0  0  0  0  0  0  0
   40.9302   33.4656   40.6466 H   0  0  0  0  0  0  0  0  0  0  0  0
   41.2004   34.0627   37.9565 H   0  0  0  0  0  0  0  0  0  0  0  0
  1  6  2  0
  2  3  2  0
  2  1  1  0
  3  4  1  0
  4  5  2  0
  6  5  1  0
  7  2  1  0
  1  8  1  0
  3  9  1  0
  5 10  1  0
  7 11  1  0
  7 12  1  0
 13 14  1  0
 14 15  1  0
 15 16  1  0
 16 17  1  0
 17 18  1  0
 18 19  1  0
 18 20  1  0
 20 21  1  0
 20 14  1  0
 13 22  1  0
 14 23  1  1
 15 24  1  1
 17 25  1  0
 17 26  1  0
 18 27  1  6
 19 28  1  0
 20 29  1  1
 21 30  1  0
  7 15  1  0
M  ISO  5   8  14   9  14  10  14  11   8  12   8
M  END
>  <DihAtoms>  (1) 
1,6,14,13

>  <DihDeg>  (1) 
-60.04773343459554

$$$$
