REMARK  Name = 
REMARK  5 active torsions:
REMARK  status: ('A' for Active; 'I' for Inactive)
REMARK    1  A    between atoms: C_1  and  C_7
REMARK    2  A    between atoms: C_2  and  C_15
REMARK    3  A    between atoms: O_13  and  C_14
REMARK    4  A    between atoms: C_18  and  O_19
REMARK    5  A    between atoms: C_20  and  O_21
REMARK                            x       y       z     vdW  Elec       q    Type
REMARK                         _______ _______ _______ _____ _____    ______ ____
ROOT
ATOM      1  C   UNL     1      45.432  35.069  44.003  0.00  0.00    +0.000 A 
ATOM      2  C   UNL     1      46.502  34.292  43.508  0.00  0.00    +0.000 A 
ATOM      3  C   UNL     1      47.015  33.290  44.337  0.00  0.00    +0.000 A 
ATOM      4  N   UNL     1      46.458  33.128  45.556  0.00  0.00    +0.000 NA
ATOM      5  C   UNL     1      45.432  33.895  45.994  0.00  0.00    +0.000 A 
ATOM      6  N   UNL     1      44.926  34.862  45.212  0.00  0.00    +0.000 NA
ATOM      7  H   UNL     1      47.834  32.649  44.038  0.00  0.00    +0.000 HD
ATOM      8  H   UNL     1      45.062  33.678  46.990  0.00  0.00    +0.000 HD
ENDROOT
BRANCH   2  10
ATOM      9  C   UNL     1      47.331  35.931  41.841  0.00  0.00    +0.000 C 
ATOM     10  C   UNL     1      47.103  34.497  42.141  0.00  0.00    +0.000 C 
ATOM     11  O   UNL     1      48.106  33.618  41.878  0.00  0.00    +0.000 OA
ATOM     12  C   UNL     1      49.375  34.079  41.751  0.00  0.00    +0.000 C 
ATOM     13  C   UNL     1      49.370  35.242  40.753  0.00  0.00    +0.000 C 
ATOM     14  C   UNL     1      48.725  36.367  41.577  0.00  0.00    +0.000 C 
BRANCH   9  15
ATOM     15  O   UNL     1      46.562  36.383  40.749  0.00  0.00    +0.000 OA
ATOM     16  H   UNL     1      46.024  35.626  40.358  0.00  0.00    +0.000 HD
ENDBRANCH   9  15
BRANCH  13  17
ATOM     17  O   UNL     1      48.545  34.938  39.694  0.00  0.00    +0.000 OA
ATOM     18  H   UNL     1      49.040  34.869  38.821  0.00  0.00    +0.000 HD
ENDBRANCH  13  17
BRANCH  14  19
ATOM     19  O   UNL     1      48.755  37.496  40.779  0.00  0.00    +0.000 OA
ATOM     20  H   UNL     1      49.640  37.678  40.382  0.00  0.00    +0.000 HD
ENDBRANCH  14  19
ENDBRANCH   2  10
BRANCH   1  21
ATOM     21  C   UNL     1      44.899  36.138  43.094  0.00  0.00    +0.000 C 
ATOM     22  H   UNL     1      44.417  35.685  42.216  0.00  0.00    +0.000 HD
ATOM     23  H   UNL     1      44.077  36.659  43.643  0.00  0.00    +0.000 HD
ATOM     24  H   UNL     1      45.644  36.916  42.873  0.00  0.00    +0.000 HD
ENDBRANCH   1  21
TORSDOF 5
