
     RDKit          3D

 36 37  0  0  0  0  0  0  0  0999 V2000
   44.5283   35.8185   44.7157 C   0  0  0  0  0  0  0  0  0  0  0  0
   45.1943   35.7705   43.4657 C   0  0  0  0  0  0  0  0  0  0  0  0
   46.1225   34.7467   43.2915 C   0  0  0  0  0  0  0  0  0  0  0  0
   46.3400   33.8573   44.3152 N   0  0  0  0  0  0  0  0  0  0  0  0
   45.6715   33.9532   45.4916 C   0  0  0  0  0  0  0  0  0  0  0  0
   44.7716   34.9272   45.6910 N   0  0  0  0  0  0  0  0  0  0  0  0
   46.7994   34.7064   42.0073 C   0  0  0  0  0  0  0  0  0  0  0  0
   47.5945   33.5593   41.9243 F   0  0  0  0  0  0  0  0  0  0  0  0
   47.6913   35.7666   42.0007 F   0  0  0  0  0  0  0  0  0  0  0  0
   45.9473   34.7098   40.9403 F   0  0  0  0  0  0  0  0  0  0  0  0
   46.0944   32.8691   46.4246 C   0  0  0  0  0  0  0  0  0  0  0  0
   45.2829   32.8362   47.6690 C   0  0  0  0  0  0  0  0  0  0  0  0
   43.7921   36.5796   44.9372 H   0  0  0  0  0  0  0  0  0  0  0  0
   44.9634   36.5053   42.7222 H   0  0  0  0  0  0  0  0  0  0  0  0
   45.9125   31.9003   45.8749 H   0  0  0  0  0  0  0  0  0  0  0  0
   47.1784   32.9429   46.5571 H   0  0  0  0  0  0  0  0  0  0  0  0
   45.1897   33.8156   48.1702 H   0  0  0  0  0  0  0  0  0  0  0  0
   44.2317   32.5802   47.3593 H   0  0  0  0  0  0  0  0  0  0  0  0
   45.8802   30.2700   46.6816 O   0  0  0  0  0  0  0  0  0  0  0  0
   45.6059   30.3744   48.0216 C   0  0  2  0  0  0  0  0  0  0  0  0
   45.7087   31.7517   48.5983 C   0  0  1  0  0  0  0  0  0  0  0  0
   47.0118   31.9621   49.0420 O   0  0  0  0  0  0  0  0  0  0  0  0
   47.9700   31.5036   48.1702 C   0  0  0  0  0  0  0  0  0  0  0  0
   48.0196   30.0021   48.2890 C   0  0  2  0  0  0  0  0  0  0  0  0
   48.4149   29.3834   47.1048 O   0  0  0  0  0  0  0  0  0  0  0  0
   46.6497   29.5041   48.7307 C   0  0  2  0  0  0  0  0  0  0  0  0
   46.4978   28.1667   48.3661 O   0  0  0  0  0  0  0  0  0  0  0  0
   45.8100   31.0751   46.1472 H   0  0  0  0  0  0  0  0  0  0  0  0
   44.6141   29.9221   48.3143 H   0  0  0  0  0  0  0  0  0  0  0  0
   45.0647   31.7931   49.5125 H   0  0  0  0  0  0  0  0  0  0  0  0
   48.9465   31.9558   48.5097 H   0  0  0  0  0  0  0  0  0  0  0  0
   47.8630   31.8623   47.1262 H   0  0  0  0  0  0  0  0  0  0  0  0
   48.7494   29.7596   49.0891 H   0  0  0  0  0  0  0  0  0  0  0  0
   48.8163   30.0551   46.4773 H   0  0  0  0  0  0  0  0  0  0  0  0
   46.5059   29.5867   49.8233 H   0  0  0  0  0  0  0  0  0  0  0  0
   46.0549   27.6207   49.0640 H   0  0  0  0  0  0  0  0  0  0  0  0
  1  6  2  0
  2  1  1  0
  3  2  2  0
  3  4  1  0
  4  5  2  0
  5  6  1  0
  5 11  1  0
  7  3  1  0
  8  7  1  0
  9  7  1  0
 10  7  1  0
 11 12  1  0
  1 13  1  0
  2 14  1  0
 11 15  1  0
 11 16  1  0
 12 17  1  0
 12 18  1  0
 19 20  1  0
 20 21  1  0
 21 22  1  0
 22 23  1  0
 23 24  1  0
 24 25  1  0
 24 26  1  0
 26 27  1  0
 26 20  1  0
 19 28  1  0
 20 29  1  6
 21 30  1  1
 23 31  1  0
 23 32  1  0
 24 33  1  1
 25 34  1  0
 26 35  1  1
 27 36  1  0
 12 21  1  0
M  ISO  6  13  14  14  14  15   8  16   8  17   8  18   8
M  END
>  <DihAtoms>  (1) 
10,11,20,19

>  <DihDeg>  (1) 
59.99788218949464

$$$$
