
 OpenBabel03242518263D

 48 52  0  0  1  0  0  0  0  0999 V2000
   46.7710   30.6410   44.7130 C   0  0  0  0  0  0  0  0  0  0  0  0
   46.2640   31.8810   44.9600 C   0  0  0  0  0  0  0  0  0  0  0  0
   46.5620   32.4690   46.1720 C   0  0  0  0  0  0  0  0  0  0  0  0
   47.3450   31.8210   47.0970 C   0  0  0  0  0  0  0  0  0  0  0  0
   47.8550   30.5550   46.8280 C   0  0  0  0  0  0  0  0  0  0  0  0
   47.5640   29.9470   45.6110 C   0  0  0  0  0  0  0  0  0  0  0  0
   48.6030   30.1500   47.9310 O   0  0  0  0  0  0  0  0  0  0  0  0
   48.2940   31.0330   49.0020 C   0  0  2  0  0  0  0  0  0  0  0  0
   47.7920   32.1860   48.3810 O   0  0  0  0  0  0  0  0  0  0  0  0
   46.5910   30.0980   43.7890 H   0  0  0  0  0  0  0  0  0  0  0  0
   46.1820   33.4520   46.4140 H   0  0  0  0  0  0  0  0  0  0  0  0
   47.9690   28.9810   45.4400 H   0  0  0  0  0  0  0  0  0  0  0  0
   47.5080   30.6110   49.6700 H   0  0  0  0  0  0  0  0  0  0  0  0
   44.6330   34.5320   42.9770 C   0  0  0  0  0  0  0  0  0  0  0  0
   43.8560   33.8080   42.0930 C   0  0  0  0  0  0  0  0  0  0  0  0
   43.9000   32.4180   42.1880 C   0  0  0  0  0  0  0  0  0  0  0  0
   44.6820   31.8130   43.1180 N   0  0  0  0  0  0  0  0  0  0  0  0
   45.4320   32.5600   43.9710 C   0  0  0  0  0  0  0  0  0  0  0  0
   45.4010   33.9100   43.8930 N   0  0  0  0  0  0  0  0  0  0  0  0
   44.7080   35.6080   43.0330 H   0  0  0  0  0  0  0  0  0  0  0  0
   43.2920   31.8780   41.4950 H   0  0  0  0  0  0  0  0  0  0  0  0
   43.0790   34.5350   41.1660 N   0  0  0  0  0  0  0  0  0  0  0  0
   43.1760   34.1790   39.7780 C   0  0  0  0  0  0  0  0  0  0  0  0
   42.3990   35.0550   38.8680 C   0  0  0  0  0  0  0  0  0  0  0  0
   41.0720   35.3170   39.3270 N   0  0  0  0  0  0  0  0  0  0  0  0
   40.8540   35.4100   40.7140 C   0  0  0  0  0  0  0  0  0  0  0  0
   42.1820   35.6180   41.4440 C   0  0  0  0  0  0  0  0  0  0  0  0
   42.9210   33.0910   39.6770 H   0  0  0  0  0  0  0  0  0  0  0  0
   44.2600   34.2560   39.4960 H   0  0  0  0  0  0  0  0  0  0  0  0
   42.9110   36.0040   38.6930 H   0  0  0  0  0  0  0  0  0  0  0  0
   42.3400   34.5450   37.8740 H   0  0  0  0  0  0  0  0  0  0  0  0
   40.7160   36.1790   38.8500 H   0  0  0  0  0  0  0  0  0  0  0  0
   40.4480   34.4500   41.0960 H   0  0  0  0  0  0  0  0  0  0  0  0
   40.1300   36.1800   41.0270 H   0  0  0  0  0  0  0  0  0  0  0  0
   41.9640   35.7670   42.5180 H   0  0  0  0  0  0  0  0  0  0  0  0
   42.6320   36.5560   41.0550 H   0  0  0  0  0  0  0  0  0  0  0  0
   49.7600   30.2370   50.8150 C   0  0  2  0  0  3  0  0  0  0  0  0
   49.5840   31.2680   49.7340 C   0  0  1  0  0  3  0  0  0  0  0  0
   50.6130   31.3130   48.8220 O   0  0  0  0  0  0  0  0  0  0  0  0
   51.7570   30.6500   49.1920 C   0  0  0  0  0  2  0  0  0  0  0  0
   52.1390   30.8010   50.6310 C   0  0  2  0  0  3  0  0  0  0  0  0
   51.0040   30.6660   51.5990 C   0  0  2  0  0  3  0  0  0  0  0  0
   49.8560   28.9420   50.3560 O   0  0  0  0  0  0  0  0  0  0  0  0
   49.0680   28.3840   50.5620 H   0  0  0  0  0  0  0  0  0  0  0  0
   52.8390   31.9940   50.8190 O   0  0  0  0  0  0  0  0  0  0  0  0
   52.2680   32.7790   50.7480 H   0  0  0  0  0  0  0  0  0  0  0  0
   51.2350   29.7700   52.6270 O   0  0  0  0  0  0  0  0  0  0  0  0
   51.0590   30.1920   53.5230 H   0  0  0  0  0  0  0  0  0  0  0  0
  1  2  2  0  0  0  0
  1  6  1  0  0  0  0
  2  3  1  0  0  0  0
  3 11  1  0  0  0  0
  3  4  2  0  0  0  0
  4  9  1  0  0  0  0
  5  4  1  0  0  0  0
  5  7  1  0  0  0  0
  6  5  2  0  0  0  0
  7  8  1  0  0  0  0
  8 13  1  1  0  0  0
  8 38  1  0  0  0  0
  9  8  1  0  0  0  0
 10  1  1  0  0  0  0
 12  6  1  0  0  0  0
 14 20  1  0  0  0  0
 14 19  1  0  0  0  0
 15 16  1  0  0  0  0
 15 14  2  0  0  0  0
 16 17  2  0  0  0  0
 17 18  1  0  0  0  0
 18  2  1  0  0  0  0
 19 18  2  0  0  0  0
 21 16  1  0  0  0  0
 22 27  1  0  0  0  0
 22 15  1  0  0  0  0
 23 22  1  0  0  0  0
 24 25  1  0  0  0  0
 24 23  1  0  0  0  0
 25 26  1  0  0  0  0
 26 34  1  0  0  0  0
 26 33  1  0  0  0  0
 26 27  1  0  0  0  0
 27 35  1  0  0  0  0
 28 23  1  0  0  0  0
 29 23  1  0  0  0  0
 30 24  1  0  0  0  0
 31 24  1  0  0  0  0
 32 25  1  0  0  0  0
 36 27  1  0  0  0  0
 37 43  1  6  0  0  0
 37 42  1  0  0  0  0
 38 39  1  6  0  0  0
 38 37  1  0  0  0  0
 39 40  1  0  0  0  0
 40 41  1  0  0  0  0
 41 45  1  6  0  0  0
 41 42  1  0  0  0  0
 42 47  1  1  0  0  0
 43 44  1  0  0  0  0
 46 45  1  0  0  0  0
 47 48  1  0  0  0  0
M  END
>  <minimizedAffinity>
-6.30459404

>  <minimizedRMSD>
1.59395981

$$$$
