
     RDKit          3D

 30 31  0  0  0  0  0  0  0  0999 V2000
   44.3869   35.7709   44.4362 C   0  0  0  0  0  0  0  0  0  0  0  0
   44.6696   35.0568   43.2578 C   0  0  0  0  0  0  0  0  0  0  0  0
   45.2929   33.8255   43.3936 C   0  0  0  0  0  0  0  0  0  0  0  0
   45.5902   33.3857   44.6330 N   0  0  0  0  0  0  0  0  0  0  0  0
   45.3074   34.0911   45.7392 C   0  0  0  0  0  0  0  0  0  0  0  0
   44.6944   35.3096   45.6662 N   0  0  0  0  0  0  0  0  0  0  0  0
   44.2576   35.7265   42.0109 C   0  0  0  0  0  0  0  0  0  0  0  0
   43.8983   36.7532   44.4668 H   0  0  0  0  0  0  0  0  0  0  0  0
   45.4913   33.3120   42.4632 H   0  0  0  0  0  0  0  0  0  0  0  0
   45.5700   33.6868   46.7080 H   0  0  0  0  0  0  0  0  0  0  0  0
   44.9845   35.3668   41.2299 H   0  0  0  0  0  0  0  0  0  0  0  0
   44.3288   36.8152   42.1129 H   0  0  0  0  0  0  0  0  0  0  0  0
   42.1470   37.4660   42.2879 O   0  0  0  0  0  0  0  0  0  0  0  0
   42.0833   36.5765   41.1958 C   0  0  1  0  0  0  0  0  0  0  0  0
   42.8441   35.3656   41.6062 C   0  0  2  0  0  0  0  0  0  0  0  0
   42.2260   34.5242   42.4664 O   0  0  0  0  0  0  0  0  0  0  0  0
   40.9033   34.3291   42.3495 C   0  0  0  0  0  0  0  0  0  0  0  0
   40.0288   35.4668   41.9849 C   0  0  2  0  0  0  0  0  0  0  0  0
   38.8330   34.9573   41.4746 O   0  0  0  0  0  0  0  0  0  0  0  0
   40.6381   36.3236   40.8975 C   0  0  1  0  0  0  0  0  0  0  0  0
   39.8825   37.4804   40.8466 O   0  0  0  0  0  0  0  0  0  0  0  0
   41.8928   38.3768   42.0227 H   0  0  0  0  0  0  0  0  0  0  0  0
   42.5573   37.0960   40.3385 H   0  0  0  0  0  0  0  0  0  0  0  0
   42.9581   34.7700   40.6494 H   0  0  0  0  0  0  0  0  0  0  0  0
   40.4807   33.8865   43.2901 H   0  0  0  0  0  0  0  0  0  0  0  0
   40.7336   33.5380   41.5611 H   0  0  0  0  0  0  0  0  0  0  0  0
   39.7451   36.0731   42.8703 H   0  0  0  0  0  0  0  0  0  0  0  0
   38.1799   34.7562   42.1724 H   0  0  0  0  0  0  0  0  0  0  0  0
   40.5467   35.7557   39.9439 H   0  0  0  0  0  0  0  0  0  0  0  0
   39.2636   37.5789   41.5858 H   0  0  0  0  0  0  0  0  0  0  0  0
  1  6  2  0
  2  3  2  0
  2  1  1  0
  3  4  1  0
  4  5  2  0
  6  5  1  0
  7  2  1  0
  1  8  1  0
  3  9  1  0
  5 10  1  0
  7 11  1  0
  7 12  1  0
 13 14  1  0
 14 15  1  0
 15 16  1  0
 16 17  1  0
 17 18  1  0
 18 19  1  0
 18 20  1  0
 20 21  1  0
 20 14  1  0
 13 22  1  0
 14 23  1  6
 15 24  1  6
 17 25  1  0
 17 26  1  0
 18 27  1  1
 19 28  1  0
 20 29  1  6
 21 30  1  0
  7 15  1  0
M  ISO  5   8  14   9  14  10  14  11   8  12   8
M  END
>  <DihAtoms>  (1) 
1,6,14,13

>  <DihDeg>  (1) 
-60.04773343459554

$$$$
