
 OpenBabel03242517323D

 50 53  0  0  1  0  0  0  0  0999 V2000
   45.5590   30.0680   47.1390 C   0  0  0  0  0  0  0  0  0  0  0  0
   45.0850   30.0930   46.1350 H   0  0  0  0  0  0  0  0  0  0  0  0
   46.6080   29.7440   47.1440 H   0  0  0  0  0  0  0  0  0  0  0  0
   45.0150   34.6990   44.9590 C   0  0  0  0  0  0  0  0  0  0  0  0
   45.8930   34.5690   43.8470 C   0  0  0  0  0  0  0  0  0  0  0  0
   46.9550   33.6770   43.9430 C   0  0  0  0  0  0  0  0  0  0  0  0
   47.0840   32.9830   45.0990 N   0  0  0  0  0  0  0  0  0  0  0  0
   46.2680   33.1000   46.1400 C   0  0  0  0  0  0  0  0  0  0  0  0
   45.2580   33.9570   46.0290 N   0  0  0  0  0  0  0  0  0  0  0  0
   46.4830   32.3430   47.2850 N   0  0  0  0  0  0  0  0  0  0  0  0
   47.7340   32.4400   48.0050 C   0  0  0  0  0  0  0  0  0  0  0  0
   47.9790   31.3020   48.9460 C   0  0  0  0  0  0  0  0  0  0  0  0
   46.8320   30.7210   49.5600 N   0  0  0  0  0  0  0  0  0  0  0  0
   45.6110   31.4220   49.2400 C   0  0  0  0  0  0  0  0  0  0  0  0
   45.4170   31.4360   47.7620 C   0  0  2  0  0  0  0  0  0  0  0  0
   44.1860   35.3990   44.8780 H   0  0  0  0  0  0  0  0  0  0  0  0
   45.7600   35.1410   42.9360 H   0  0  0  0  0  0  0  0  0  0  0  0
   47.6590   33.5310   43.1330 H   0  0  0  0  0  0  0  0  0  0  0  0
   47.7880   33.3830   48.5930 H   0  0  0  0  0  0  0  0  0  0  0  0
   48.5420   32.4590   47.2330 H   0  0  0  0  0  0  0  0  0  0  0  0
   48.7340   31.6530   49.7040 H   0  0  0  0  0  0  0  0  0  0  0  0
   48.4950   30.5010   48.3760 H   0  0  0  0  0  0  0  0  0  0  0  0
   46.9670   30.6850   50.5820 H   0  0  0  0  0  0  0  0  0  0  0  0
   44.7990   31.0380   49.8460 H   0  0  0  0  0  0  0  0  0  0  0  0
   45.7400   32.4930   49.5700 H   0  0  0  0  0  0  0  0  0  0  0  0
   44.4220   31.8460   47.5120 H   0  0  0  0  0  0  0  0  0  0  0  0
   44.7690   29.1330   48.0230 C   0  0  0  0  0  3  0  0  0  0  0  0
   45.0090   27.8220   47.9910 C   0  0  0  0  0  3  0  0  0  0  0  0
   44.2940   26.8110   48.8090 C   0  0  0  0  0  0  0  0  0  0  0  0
   43.4650   27.3250   49.3280 H   0  0  0  0  0  0  0  0  0  0  0  0
   44.9590   26.3370   49.5620 H   0  0  0  0  0  0  0  0  0  0  0  0
   43.6790   25.7780   47.8810 C   0  0  2  0  0  0  0  0  0  0  0  0
   44.5990   25.0080   46.9870 C   0  0  0  0  0  0  0  0  0  0  0  0
   43.6340   26.0280   46.4330 C   0  0  1  0  0  0  0  0  0  0  0  0
   42.7720   25.2410   48.2820 H   0  0  0  0  0  0  0  0  0  0  0  0
   45.6710   25.2720   47.0710 H   0  0  0  0  0  0  0  0  0  0  0  0
   44.4160   23.9330   46.8980 H   0  0  0  0  0  0  0  0  0  0  0  0
   44.1250   26.9510   46.0730 H   0  0  0  0  0  0  0  0  0  0  0  0
   41.9190   26.7700   44.7950 C   0  0  1  0  0  3  0  0  0  0  0  0
   42.4910   25.6040   45.5750 C   0  0  2  0  0  3  0  0  0  0  0  0
   41.4220   25.0640   46.2740 O   0  0  0  0  0  0  0  0  0  0  0  0
   40.6860   24.3290   45.3580 C   0  0  0  0  0  2  0  0  0  0  0  0
   40.2320   25.0690   44.1520 C   0  0  1  0  0  3  0  0  0  0  0  0
   41.1580   26.1390   43.6520 C   0  0  2  0  0  3  0  0  0  0  0  0
   41.0350   27.4210   45.6430 O   0  0  0  0  0  0  0  0  0  0  0  0
   40.2900   26.7870   45.8110 H   0  0  0  0  0  0  0  0  0  0  0  0
   40.1170   24.1410   43.1030 O   0  0  0  0  0  0  0  0  0  0  0  0
   39.1880   23.9280   42.8710 H   0  0  0  0  0  0  0  0  0  0  0  0
   42.1090   25.6500   42.7630 O   0  0  0  0  0  0  0  0  0  0  0  0
   43.0390   25.8650   43.0220 H   0  0  0  0  0  0  0  0  0  0  0  0
  1  3  1  0  0  0  0
  1 15  1  0  0  0  0
  1 27  1  0  0  0  0
  2  1  1  0  0  0  0
  4  9  1  0  0  0  0
  5  6  1  0  0  0  0
  5  4  2  0  0  0  0
  6  7  2  0  0  0  0
  7  8  1  0  0  0  0
  8 10  1  0  0  0  0
  9  8  2  0  0  0  0
 10 15  1  0  0  0  0
 10 11  1  0  0  0  0
 11 19  1  0  0  0  0
 11 12  1  0  0  0  0
 12 13  1  0  0  0  0
 12 21  1  0  0  0  0
 13 23  1  0  0  0  0
 14 13  1  0  0  0  0
 14 25  1  0  0  0  0
 14 24  1  0  0  0  0
 15 26  1  6  0  0  0
 15 14  1  0  0  0  0
 16  4  1  0  0  0  0
 17  5  1  0  0  0  0
 18  6  1  0  0  0  0
 20 11  1  0  0  0  0
 22 12  1  0  0  0  0
 28 27  2  0  0  0  0
 28 29  1  0  0  0  0
 29 30  1  0  0  0  0
 29 31  1  0  0  0  0
 32 35  1  1  0  0  0
 32 29  1  0  0  0  0
 33 36  1  0  0  0  0
 33 32  1  0  0  0  0
 34 38  1  6  0  0  0
 34 33  1  0  0  0  0
 34 32  1  0  0  0  0
 37 33  1  0  0  0  0
 39 40  1  0  0  0  0
 39 45  1  1  0  0  0
 40 41  1  1  0  0  0
 40 34  1  0  0  0  0
 42 41  1  0  0  0  0
 43 47  1  6  0  0  0
 43 42  1  0  0  0  0
 44 49  1  6  0  0  0
 44 43  1  0  0  0  0
 44 39  1  0  0  0  0
 45 46  1  0  0  0  0
 48 47  1  0  0  0  0
 49 50  1  0  0  0  0
M  END
>  <minimizedAffinity>
-5.84483862

>  <minimizedRMSD>
1.41209579

$$$$
