REMARK  Name = 
REMARK  10 active torsions:
REMARK  status: ('A' for Active; 'I' for Inactive)
REMARK    1  A    between atoms: C_1  and  C_2
REMARK    2  A    between atoms: C_1  and  C_11
REMARK    3  A    between atoms: C_7  and  N_10
REMARK    4  A    between atoms: C_11  and  C_16
REMARK    5  A    between atoms: C_14  and  C_18
REMARK    6  A    between atoms: C_18  and  C_19
REMARK    7  A    between atoms: C_19  and  C_38
REMARK    8  A    between atoms: O_36  and  C_37
REMARK    9  A    between atoms: C_41  and  O_42
REMARK   10  A    between atoms: C_43  and  O_44
REMARK                            x       y       z     vdW  Elec       q    Type
REMARK                         _______ _______ _______ _____ _____    ______ ____
ROOT
ATOM      1  C   UNL     1      44.613  35.729  44.755  0.00  0.00    +0.000 A 
ATOM      2  C   UNL     1      44.187  35.946  43.422  0.00  0.00    +0.000 A 
ATOM      3  C   UNL     1      44.380  34.910  42.529  0.00  0.00    +0.000 A 
ATOM      4  N   UNL     1      44.952  33.764  42.950  0.00  0.00    +0.000 NA
ATOM      5  C   UNL     1      45.337  33.614  44.230  0.00  0.00    +0.000 A 
ATOM      6  N   UNL     1      45.179  34.563  45.125  0.00  0.00    +0.000 NA
ATOM      7  H   UNL     1      44.467  36.535  45.465  0.00  0.00    +0.000 HD
ATOM      8  H   UNL     1      43.729  36.889  43.124  0.00  0.00    +0.000 HD
ENDROOT
BRANCH   5   9
ATOM      9  C   UNL     1      45.954  32.329  44.609  0.00  0.00    +0.000 C 
ATOM     10  H   UNL     1      45.108  31.615  44.784  0.00  0.00    +0.000 HD
ATOM     11  H   UNL     1      46.602  31.909  43.815  0.00  0.00    +0.000 HD
BRANCH   9  12
ATOM     12  C   UNL     1      46.724  32.516  45.895  0.00  0.00    +0.000 C 
ATOM     13  H   UNL     1      46.791  33.611  46.149  0.00  0.00    +0.000 HD
ATOM     14  H   UNL     1      47.783  32.201  45.713  0.00  0.00    +0.000 HD
BRANCH  12  15
ATOM     15  C   UNL     1      46.142  31.790  46.998  0.00  0.00    +0.000 A 
ATOM     16  C   UNL     1      45.396  32.267  48.039  0.00  0.00    +0.000 A 
ATOM     17  C   UNL     1      44.889  31.494  49.034  0.00  0.00    +0.000 A 
ATOM     18  C   UNL     1      45.143  30.138  48.993  0.00  0.00    +0.000 A 
ATOM     19  C   UNL     1      45.892  29.645  47.952  0.00  0.00    +0.000 A 
ATOM     20  C   UNL     1      46.394  30.455  46.955  0.00  0.00    +0.000 A 
ATOM     21  H   UNL     1      45.217  33.349  48.036  0.00  0.00    +0.000 HD
ATOM     22  H   UNL     1      44.312  31.981  49.809  0.00  0.00    +0.000 HD
ATOM     23  H   UNL     1      44.712  29.567  49.816  0.00  0.00    +0.000 HD
ATOM     24  H   UNL     1      46.000  28.554  48.068  0.00  0.00    +0.000 HD
BRANCH  20  27
ATOM     25  C   UNL     1      48.491  29.361  46.429  0.00  0.00    +0.000 C 
ATOM     26  O   UNL     1      49.313  29.671  47.363  0.00  0.00    +0.000 OA
ATOM     27  N   UNL     1      47.125  29.621  46.041  0.00  0.00    +0.000 N 
ATOM     28  H   UNL     1      49.267  28.757  45.964  0.00  0.00    +0.000 HD
ATOM     29  H   UNL     1      46.894  29.149  45.142  0.00  0.00    +0.000 HD
ENDBRANCH  20  27
ENDBRANCH  12  15
ENDBRANCH   9  12
ENDBRANCH   5   9
BRANCH   3  30
ATOM     30  C   UNL     1      43.930  35.148  41.135  0.00  0.00    +0.000 C 
ATOM     31  H   UNL     1      44.461  36.038  40.750  0.00  0.00    +0.000 HD
ATOM     32  H   UNL     1      44.243  34.297  40.511  0.00  0.00    +0.000 HD
BRANCH  30  33
ATOM     33  C   UNL     1      42.424  35.369  41.070  0.00  0.00    +0.000 C 
ATOM     34  H   UNL     1      42.185  36.213  41.732  0.00  0.00    +0.000 HD
ATOM     35  H   UNL     1      41.880  34.466  41.399  0.00  0.00    +0.000 HD
BRANCH  33  37
ATOM     36  C   UNL     1      41.923  34.385  38.848  0.00  0.00    +0.000 C 
ATOM     37  C   UNL     1      41.948  35.614  39.644  0.00  0.00    +0.000 C 
ATOM     38  O   UNL     1      40.815  36.371  39.748  0.00  0.00    +0.000 OA
ATOM     39  C   UNL     1      39.930  36.273  38.708  0.00  0.00    +0.000 C 
ATOM     40  C   UNL     1      39.442  34.835  38.713  0.00  0.00    +0.000 C 
ATOM     41  C   UNL     1      40.630  34.045  38.170  0.00  0.00    +0.000 C 
BRANCH  36  42
ATOM     42  O   UNL     1      42.918  34.372  37.849  0.00  0.00    +0.000 OA
ATOM     43  H   UNL     1      43.559  35.114  38.003  0.00  0.00    +0.000 HD
ENDBRANCH  36  42
BRANCH  40  44
ATOM     44  O   UNL     1      39.119  34.402  40.001  0.00  0.00    +0.000 OA
ATOM     45  H   UNL     1      39.097  35.149  40.645  0.00  0.00    +0.000 HD
ENDBRANCH  40  44
BRANCH  41  46
ATOM     46  O   UNL     1      40.364  32.667  38.243  0.00  0.00    +0.000 OA
ATOM     47  H   UNL     1      39.667  32.517  38.956  0.00  0.00    +0.000 HD
ENDBRANCH  41  46
ENDBRANCH  33  37
ENDBRANCH  30  33
ENDBRANCH   3  30
TORSDOF 10
