
     RDKit          3D

 30 31  0  0  0  0  0  0  0  0999 V2000
   45.4392   35.0671   43.9943 C   0  0  0  0  0  0  0  0  0  0  0  0
   46.4958   34.3015   43.5022 C   0  0  0  0  0  0  0  0  0  0  0  0
   47.0207   33.2873   44.3325 C   0  0  0  0  0  0  0  0  0  0  0  0
   46.4558   33.1226   45.5690 N   0  0  0  0  0  0  0  0  0  0  0  0
   45.4313   33.8937   45.9974 C   0  0  0  0  0  0  0  0  0  0  0  0
   44.9235   34.8617   45.2163 N   0  0  0  0  0  0  0  0  0  0  0  0
   44.8988   36.1390   43.0923 C   0  0  0  0  0  0  0  0  0  0  0  0
   46.9345   34.4460   42.5139 H   0  0  0  0  0  0  0  0  0  0  0  0
   45.0252   33.7109   46.9953 H   0  0  0  0  0  0  0  0  0  0  0  0
   43.9148   35.7497   42.7139 H   0  0  0  0  0  0  0  0  0  0  0  0
   45.6013   36.3825   42.2993 H   0  0  0  0  0  0  0  0  0  0  0  0
   44.6205   37.0265   43.7146 H   0  0  0  0  0  0  0  0  0  0  0  0
   49.0803   32.5320   46.0545 O   0  0  0  0  0  0  0  0  0  0  0  0
   48.6246   31.6547   45.0894 C   0  0  1  0  0  0  0  0  0  0  0  0
   48.1455   32.4257   43.8878 C   0  0  1  0  0  0  0  0  0  0  0  0
   47.6549   31.5166   42.9770 O   0  0  0  0  0  0  0  0  0  0  0  0
   48.5708   30.6337   42.4747 C   0  0  0  0  0  0  0  0  0  0  0  0
   49.4195   29.9178   43.4589 C   0  0  1  0  0  0  0  0  0  0  0  0
   50.6546   29.6812   42.8528 O   0  0  0  0  0  0  0  0  0  0  0  0
   49.6948   30.6597   44.7296 C   0  0  2  0  0  0  0  0  0  0  0  0
   49.7877   29.7487   45.7815 O   0  0  0  0  0  0  0  0  0  0  0  0
   49.6943   32.1028   46.6859 H   0  0  0  0  0  0  0  0  0  0  0  0
   47.7587   31.0915   45.4959 H   0  0  0  0  0  0  0  0  0  0  0  0
   48.9477   33.0836   43.4857 H   0  0  0  0  0  0  0  0  0  0  0  0
   47.9780   29.8411   41.9304 H   0  0  0  0  0  0  0  0  0  0  0  0
   49.1570   31.1338   41.6551 H   0  0  0  0  0  0  0  0  0  0  0  0
   49.0078   28.8967   43.7043 H   0  0  0  0  0  0  0  0  0  0  0  0
   51.3241   29.3938   43.5268 H   0  0  0  0  0  0  0  0  0  0  0  0
   50.6608   31.2084   44.7117 H   0  0  0  0  0  0  0  0  0  0  0  0
   49.4597   30.0766   46.6346 H   0  0  0  0  0  0  0  0  0  0  0  0
  1  6  2  0
  2  1  1  0
  2  3  2  0
  3  4  1  0
  4  5  2  0
  6  5  1  0
  7  1  1  0
  2  8  1  0
  5  9  1  0
  7 10  1  0
  7 11  1  0
  7 12  1  0
 13 14  1  0
 14 15  1  0
 15 16  1  0
 16 17  1  0
 17 18  1  0
 18 19  1  0
 18 20  1  0
 20 21  1  0
 20 14  1  0
 13 22  1  0
 14 23  1  1
 15 24  1  6
 17 25  1  0
 17 26  1  0
 18 27  1  1
 19 28  1  0
 20 29  1  6
 21 30  1  0
  3 15  1  0
M  ISO  5   8  14   9  14  10   8  11   8  12   8
M  END
>  <DihAtoms>  (1) 
1,2,14,13

>  <DihDeg>  (1) 
-160.9074581986511

$$$$
