
 OpenBabel03242523543D

 48 51  0  0  1  0  0  0  0  0999 V2000
   43.0060   34.1010   39.3490 C   0  0  1  0  0  0  0  0  0  0  0  0
   43.2740   35.1380   40.4320 C   0  0  1  0  0  0  0  0  0  0  0  0
   42.0560   35.7660   40.7490 O   0  0  0  0  0  0  0  0  0  0  0  0
   41.2350   35.9400   39.6330 C   0  0  0  0  0  0  0  0  0  0  0  0
   40.6920   34.6210   39.1180 C   0  0  2  0  0  0  0  0  0  0  0  0
   41.6680   33.5090   39.6510 C   0  0  1  0  0  0  0  0  0  0  0  0
   43.8140   33.3350   39.4060 H   0  0  0  0  0  0  0  0  0  0  0  0
   44.0390   35.8700   40.1320 H   0  0  0  0  0  0  0  0  0  0  0  0
   40.3730   36.5180   39.9880 H   0  0  0  0  0  0  0  0  0  0  0  0
   41.7160   36.5490   38.8510 H   0  0  0  0  0  0  0  0  0  0  0  0
   39.6720   34.4180   39.4700 H   0  0  0  0  0  0  0  0  0  0  0  0
   41.3840   33.6420   40.7430 H   0  0  0  0  0  0  0  0  0  0  0  0
   43.0080   34.6930   38.0790 O   0  0  0  0  0  0  0  0  0  0  0  0
   43.5500   34.1580   37.4530 H   0  0  0  0  0  0  0  0  0  0  0  0
   40.8150   34.5780   37.7360 O   0  0  0  0  0  0  0  0  0  0  0  0
   40.0380   34.2090   37.2830 H   0  0  0  0  0  0  0  0  0  0  0  0
   43.5750   34.3970   41.5830 O   0  0  0  0  0  0  0  0  0  0  0  0
   44.7700   34.3640   42.1820 C   0  0  0  0  0  0  0  0  0  0  0  0
   45.9560   34.5630   41.4590 C   0  0  0  0  0  0  0  0  0  0  0  0
   47.1580   34.5160   42.1440 C   0  0  0  0  0  0  0  0  0  0  0  0
   47.1560   34.2770   43.5090 N   0  0  0  0  0  0  0  0  0  0  0  0
   45.9960   34.0900   44.1720 C   0  0  0  0  0  0  0  0  0  0  0  0
   44.8070   34.1320   43.5180 N   0  0  0  0  0  0  0  0  0  0  0  0
   45.9440   34.7480   40.3980 H   0  0  0  0  0  0  0  0  0  0  0  0
   46.0230   33.9070   45.2260 H   0  0  0  0  0  0  0  0  0  0  0  0
   48.4640   34.7190   41.4380 C   0  0  0  0  0  0  0  0  0  0  0  0
   49.0880   36.1070   41.5560 C   0  0  0  0  0  0  0  0  0  0  0  0
   49.6820   34.8450   42.1690 C   0  0  0  0  0  0  0  0  0  0  0  0
   48.3960   34.4310   40.3540 H   0  0  0  0  0  0  0  0  0  0  0  0
   48.5960   36.7650   42.3240 H   0  0  0  0  0  0  0  0  0  0  0  0
   49.5840   36.5760   40.7100 H   0  0  0  0  0  0  0  0  0  0  0  0
   50.6320   34.5320   41.6820 H   0  0  0  0  0  0  0  0  0  0  0  0
   49.6730   34.7030   43.2570 H   0  0  0  0  0  0  0  0  0  0  0  0
   41.3510   32.3610   39.0260 O   0  0  0  0  0  0  0  0  0  0  0  0
   40.3940   31.4580   39.3520 C   0  0  0  0  0  0  0  0  0  0  0  0
   39.7600   30.7880   38.4280 O   0  0  0  0  0  0  0  0  0  0  0  0
   38.1390   31.2470   40.4410 C   0  0  1  0  0  3  0  0  0  0  0  0
   39.5680   30.7240   40.3540 C   0  0  1  0  0  3  0  0  0  0  0  0
   39.3870   29.3900   39.9710 O   0  0  0  0  0  0  0  0  0  0  0  0
   39.2160   28.6200   41.0970 C   0  0  0  0  0  2  0  0  0  0  0  0
   38.0300   29.1810   41.8610 C   0  0  1  0  0  3  0  0  0  0  0  0
   37.2400   30.1730   41.0140 C   0  0  2  0  0  3  0  0  0  0  0  0
   38.0430   32.4510   41.0950 O   0  0  0  0  0  0  0  0  0  0  0  0
   37.8630   33.2040   40.4510 H   0  0  0  0  0  0  0  0  0  0  0  0
   37.1410   28.1840   42.2550 O   0  0  0  0  0  0  0  0  0  0  0  0
   36.2040   28.5030   42.2890 H   0  0  0  0  0  0  0  0  0  0  0  0
   36.6080   29.4560   40.0030 O   0  0  0  0  0  0  0  0  0  0  0  0
   36.7390   29.8240   39.1070 H   0  0  0  0  0  0  0  0  0  0  0  0
  1  7  1  1  0  0  0
  1  6  1  0  0  0  0
  1  2  1  0  0  0  0
  2  8  1  6  0  0  0
  2  3  1  0  0  0  0
  2 17  1  0  0  0  0
  4  9  1  0  0  0  0
  4  3  1  0  0  0  0
  5 11  1  1  0  0  0
  5  4  1  0  0  0  0
  5  6  1  0  0  0  0
  6 12  1  1  0  0  0
 10  4  1  0  0  0  0
 13  1  1  0  0  0  0
 14 13  1  0  0  0  0
 15  5  1  0  0  0  0
 16 15  1  0  0  0  0
 17 18  1  0  0  0  0
 18 23  1  0  0  0  0
 19 20  1  0  0  0  0
 19 18  2  0  0  0  0
 20 21  2  0  0  0  0
 21 22  1  0  0  0  0
 22 25  1  0  0  0  0
 23 22  2  0  0  0  0
 24 19  1  0  0  0  0
 26 27  1  0  0  0  0
 26 20  1  0  0  0  0
 26 28  1  0  0  0  0
 27 28  1  0  0  0  0
 27 30  1  0  0  0  0
 28 33  1  0  0  0  0
 29 26  1  0  0  0  0
 31 27  1  0  0  0  0
 32 28  1  0  0  0  0
 34 35  1  0  0  0  0
 34  6  1  0  0  0  0
 36 35  2  0  0  0  0
 37 42  1  0  0  0  0
 37 43  1  1  0  0  0
 38 35  1  6  0  0  0
 38 37  1  0  0  0  0
 39 38  1  0  0  0  0
 39 40  1  0  0  0  0
 40 41  1  0  0  0  0
 41 45  1  6  0  0  0
 42 47  1  6  0  0  0
 42 41  1  0  0  0  0
 44 43  1  0  0  0  0
 45 46  1  0  0  0  0
 48 47  1  0  0  0  0
M  END
>  <minimizedAffinity>
-7.20969725

>  <minimizedRMSD>
2.00195169

$$$$
