
 OpenBabel03242523543D

 48 51  0  0  1  0  0  0  0  0999 V2000
   42.8170   34.3720   38.8530 C   0  0  1  0  0  0  0  0  0  0  0  0
   43.0380   35.1510   40.1440 C   0  0  1  0  0  0  0  0  0  0  0  0
   41.7810   35.5210   40.6530 O   0  0  0  0  0  0  0  0  0  0  0  0
   40.8680   35.8440   39.6470 C   0  0  0  0  0  0  0  0  0  0  0  0
   40.4480   34.6240   38.8490 C   0  0  2  0  0  0  0  0  0  0  0  0
   41.5830   33.5560   39.0560 C   0  0  1  0  0  0  0  0  0  0  0  0
   43.7120   33.7280   38.6880 H   0  0  0  0  0  0  0  0  0  0  0  0
   43.6880   36.0270   40.0000 H   0  0  0  0  0  0  0  0  0  0  0  0
   39.9710   36.2020   40.1670 H   0  0  0  0  0  0  0  0  0  0  0  0
   41.2170   36.6780   39.0180 H   0  0  0  0  0  0  0  0  0  0  0  0
   39.4860   34.2110   39.1830 H   0  0  0  0  0  0  0  0  0  0  0  0
   41.3640   33.3880   40.1580 H   0  0  0  0  0  0  0  0  0  0  0  0
   42.6600   35.2430   37.7660 O   0  0  0  0  0  0  0  0  0  0  0  0
   43.2150   34.9470   37.0070 H   0  0  0  0  0  0  0  0  0  0  0  0
   40.4760   34.9250   37.4950 O   0  0  0  0  0  0  0  0  0  0  0  0
   39.7180   34.5740   36.9980 H   0  0  0  0  0  0  0  0  0  0  0  0
   43.5050   34.2050   41.0670 O   0  0  0  0  0  0  0  0  0  0  0  0
   44.6310   34.3200   41.7780 C   0  0  0  0  0  0  0  0  0  0  0  0
   45.8830   34.4300   41.1530 C   0  0  0  0  0  0  0  0  0  0  0  0
   47.0080   34.5470   41.9530 C   0  0  0  0  0  0  0  0  0  0  0  0
   46.8670   34.5530   43.3300 N   0  0  0  0  0  0  0  0  0  0  0  0
   45.6480   34.4440   43.8970 C   0  0  0  0  0  0  0  0  0  0  0  0
   44.5330   34.3290   43.1310 N   0  0  0  0  0  0  0  0  0  0  0  0
   45.9790   34.4250   40.0810 H   0  0  0  0  0  0  0  0  0  0  0  0
   45.5680   34.4510   44.9640 H   0  0  0  0  0  0  0  0  0  0  0  0
   48.3770   34.6690   41.3550 C   0  0  0  0  0  0  0  0  0  0  0  0
   49.0420   36.0390   41.4620 C   0  0  0  0  0  0  0  0  0  0  0  0
   49.5310   34.7890   42.1840 C   0  0  0  0  0  0  0  0  0  0  0  0
   48.3910   34.3300   40.2840 H   0  0  0  0  0  0  0  0  0  0  0  0
   48.5120   36.7520   42.1520 H   0  0  0  0  0  0  0  0  0  0  0  0
   49.6270   36.4470   40.6420 H   0  0  0  0  0  0  0  0  0  0  0  0
   50.5060   34.4190   41.7980 H   0  0  0  0  0  0  0  0  0  0  0  0
   49.4230   34.7020   43.2720 H   0  0  0  0  0  0  0  0  0  0  0  0
   41.3600   32.5560   38.1840 O   0  0  0  0  0  0  0  0  0  0  0  0
   40.4500   31.5550   38.2610 C   0  0  0  0  0  0  0  0  0  0  0  0
   39.4370   31.5030   37.4390 O   0  0  0  0  0  0  0  0  0  0  0  0
   38.4150   30.3410   39.0990 C   0  0  1  0  0  3  0  0  0  0  0  0
   39.9240   30.3040   38.8800 C   0  0  1  0  0  3  0  0  0  0  0  0
   40.0850   29.2140   38.0170 O   0  0  0  0  0  0  0  0  0  0  0  0
   40.2050   28.0660   38.7640 C   0  0  0  0  0  2  0  0  0  0  0  0
   38.9650   27.9510   39.6330 C   0  0  1  0  0  3  0  0  0  0  0  0
   37.8810   28.9280   39.1890 C   0  0  2  0  0  3  0  0  0  0  0  0
   38.0410   31.1390   40.1520 O   0  0  0  0  0  0  0  0  0  0  0  0
   37.6210   31.9960   39.8310 H   0  0  0  0  0  0  0  0  0  0  0  0
   38.4080   26.6770   39.5880 O   0  0  0  0  0  0  0  0  0  0  0  0
   37.4250   26.6880   39.7010 H   0  0  0  0  0  0  0  0  0  0  0  0
   37.4000   28.4940   37.9580 O   0  0  0  0  0  0  0  0  0  0  0  0
   37.3650   29.1880   37.2720 H   0  0  0  0  0  0  0  0  0  0  0  0
  1  7  1  6  0  0  0
  1  6  1  0  0  0  0
  1  2  1  0  0  0  0
  2  8  1  6  0  0  0
  2  3  1  0  0  0  0
  2 17  1  0  0  0  0
  4  9  1  0  0  0  0
  4  3  1  0  0  0  0
  5  6  1  0  0  0  0
  5 11  1  1  0  0  0
  5  4  1  0  0  0  0
  6 12  1  1  0  0  0
 10  4  1  0  0  0  0
 13  1  1  0  0  0  0
 14 13  1  0  0  0  0
 15  5  1  0  0  0  0
 16 15  1  0  0  0  0
 17 18  1  0  0  0  0
 18 23  1  0  0  0  0
 19 18  2  0  0  0  0
 19 20  1  0  0  0  0
 20 21  2  0  0  0  0
 21 22  1  0  0  0  0
 22 25  1  0  0  0  0
 23 22  2  0  0  0  0
 24 19  1  0  0  0  0
 26 27  1  0  0  0  0
 26 20  1  0  0  0  0
 26 28  1  0  0  0  0
 27 30  1  0  0  0  0
 27 28  1  0  0  0  0
 28 33  1  0  0  0  0
 29 26  1  0  0  0  0
 31 27  1  0  0  0  0
 32 28  1  0  0  0  0
 34 35  1  0  0  0  0
 34  6  1  0  0  0  0
 36 35  2  0  0  0  0
 37 42  1  0  0  0  0
 37 43  1  1  0  0  0
 38 35  1  6  0  0  0
 38 37  1  0  0  0  0
 39 40  1  0  0  0  0
 39 38  1  0  0  0  0
 40 41  1  0  0  0  0
 41 45  1  6  0  0  0
 42 47  1  6  0  0  0
 42 41  1  0  0  0  0
 44 43  1  0  0  0  0
 45 46  1  0  0  0  0
 48 47  1  0  0  0  0
M  END
>  <minimizedAffinity>
-6.18635941

>  <minimizedRMSD>
0.955398858

$$$$
