
 OpenBabel03242523563D

 48 51  0  0  1  0  0  0  0  0999 V2000
   37.0850   29.7980   41.6170 C   0  0  1  0  0  0  0  0  0  0  0  0
   36.5640   28.6170   40.8060 C   0  0  1  0  0  0  0  0  0  0  0  0
   36.4630   29.0190   39.4620 O   0  0  0  0  0  0  0  0  0  0  0  0
   36.0560   30.3480   39.3280 C   0  0  0  0  0  0  0  0  0  0  0  0
   37.1300   31.3180   39.7820 C   0  0  2  0  0  0  0  0  0  0  0  0
   38.0710   30.5070   40.7470 C   0  0  1  0  0  0  0  0  0  0  0  0
   37.5680   29.3910   42.5360 H   0  0  0  0  0  0  0  0  0  0  0  0
   35.6050   28.2380   41.1880 H   0  0  0  0  0  0  0  0  0  0  0  0
   35.9230   30.5090   38.2510 H   0  0  0  0  0  0  0  0  0  0  0  0
   35.0750   30.5340   39.7940 H   0  0  0  0  0  0  0  0  0  0  0  0
   37.7170   31.7210   38.9450 H   0  0  0  0  0  0  0  0  0  0  0  0
   38.4850   29.8270   39.9350 H   0  0  0  0  0  0  0  0  0  0  0  0
   36.0380   30.6570   41.9780 O   0  0  0  0  0  0  0  0  0  0  0  0
   36.1030   30.8940   42.9320 H   0  0  0  0  0  0  0  0  0  0  0  0
   36.5600   32.3020   40.5760 O   0  0  0  0  0  0  0  0  0  0  0  0
   36.8920   33.1970   40.3940 H   0  0  0  0  0  0  0  0  0  0  0  0
   37.6140   27.6880   40.7970 O   0  0  0  0  0  0  0  0  0  0  0  0
   37.4670   26.3660   40.9330 C   0  0  0  0  0  0  0  0  0  0  0  0
   36.7770   25.6050   39.9760 C   0  0  0  0  0  0  0  0  0  0  0  0
   36.6650   24.2400   40.1810 C   0  0  0  0  0  0  0  0  0  0  0  0
   37.2290   23.6710   41.3110 N   0  0  0  0  0  0  0  0  0  0  0  0
   37.8850   24.4340   42.2100 C   0  0  0  0  0  0  0  0  0  0  0  0
   38.0060   25.7740   42.0270 N   0  0  0  0  0  0  0  0  0  0  0  0
   36.3430   26.0590   39.1020 H   0  0  0  0  0  0  0  0  0  0  0  0
   38.3120   23.9690   43.0740 H   0  0  0  0  0  0  0  0  0  0  0  0
   35.9420   23.3640   39.2030 C   0  0  0  0  0  0  0  0  0  0  0  0
   34.4910   23.0290   39.5390 C   0  0  0  0  0  0  0  0  0  0  0  0
   34.9210   23.8920   38.3600 C   0  0  0  0  0  0  0  0  0  0  0  0
   36.5080   22.4140   39.0050 H   0  0  0  0  0  0  0  0  0  0  0  0
   34.0650   23.6390   40.3830 H   0  0  0  0  0  0  0  0  0  0  0  0
   34.0840   22.0370   39.3580 H   0  0  0  0  0  0  0  0  0  0  0  0
   34.7360   23.4060   37.3770 H   0  0  0  0  0  0  0  0  0  0  0  0
   34.7250   24.9710   38.3650 H   0  0  0  0  0  0  0  0  0  0  0  0
   38.8920   31.3880   41.3450 O   0  0  0  0  0  0  0  0  0  0  0  0
   40.0910   31.8520   40.9150 C   0  0  0  0  0  0  0  0  0  0  0  0
   41.1310   31.8600   41.7040 O   0  0  0  0  0  0  0  0  0  0  0  0
   41.1880   31.5040   38.6810 C   0  0  1  0  0  3  0  0  0  0  0  0
   40.9710   32.4410   39.8640 C   0  0  1  0  0  3  0  0  0  0  0  0
   40.3630   33.5540   39.2700 O   0  0  0  0  0  0  0  0  0  0  0  0
   41.3400   34.4120   38.8220 C   0  0  0  0  0  2  0  0  0  0  0  0
   42.2220   33.6380   37.8600 C   0  0  1  0  0  3  0  0  0  0  0  0
   41.5870   32.3090   37.4630 C   0  0  2  0  0  3  0  0  0  0  0  0
   42.0460   30.4700   38.9610 O   0  0  0  0  0  0  0  0  0  0  0  0
   41.5520   29.5990   39.0570 H   0  0  0  0  0  0  0  0  0  0  0  0
   42.4600   34.3430   36.6830 O   0  0  0  0  0  0  0  0  0  0  0  0
   42.5750   33.7470   35.9000 H   0  0  0  0  0  0  0  0  0  0  0  0
   40.4830   32.5930   36.6650 O   0  0  0  0  0  0  0  0  0  0  0  0
   39.6630   32.1350   36.9360 H   0  0  0  0  0  0  0  0  0  0  0  0
  1 13  1  0  0  0  0
  1  7  1  1  0  0  0
  2  8  1  1  0  0  0
  2  1  1  0  0  0  0
  3  2  1  0  0  0  0
  4  3  1  0  0  0  0
  4  5  1  0  0  0  0
  4 10  1  0  0  0  0
  5 11  1  6  0  0  0
  5 15  1  0  0  0  0
  5  6  1  0  0  0  0
  6 12  1  6  0  0  0
  6 34  1  0  0  0  0
  6  1  1  0  0  0  0
  9  4  1  0  0  0  0
 13 14  1  0  0  0  0
 16 15  1  0  0  0  0
 17  2  1  0  0  0  0
 17 18  1  0  0  0  0
 18 23  1  0  0  0  0
 19 20  1  0  0  0  0
 19 18  2  0  0  0  0
 20 21  2  0  0  0  0
 21 22  1  0  0  0  0
 22 25  1  0  0  0  0
 23 22  2  0  0  0  0
 24 19  1  0  0  0  0
 26 27  1  0  0  0  0
 26 20  1  0  0  0  0
 27 30  1  0  0  0  0
 28 33  1  0  0  0  0
 28 26  1  0  0  0  0
 28 27  1  0  0  0  0
 29 26  1  0  0  0  0
 31 27  1  0  0  0  0
 32 28  1  0  0  0  0
 35 34  1  0  0  0  0
 35 36  2  0  0  0  0
 37 43  1  1  0  0  0
 37 38  1  0  0  0  0
 38 35  1  1  0  0  0
 39 38  1  0  0  0  0
 40 39  1  0  0  0  0
 41 45  1  6  0  0  0
 41 40  1  0  0  0  0
 42 47  1  6  0  0  0
 42 41  1  0  0  0  0
 42 37  1  0  0  0  0
 43 44  1  0  0  0  0
 46 45  1  0  0  0  0
 47 48  1  0  0  0  0
M  END
>  <minimizedAffinity>
-7.18909883

$$$$

 OpenBabel03242523563D

 48 51  0  0  1  0  0  0  0  0999 V2000
   36.7600   30.3620   41.6510 C   0  0  1  0  0  0  0  0  0  0  0  0
   36.4100   28.8790   41.6010 C   0  0  1  0  0  0  0  0  0  0  0  0
   36.9810   28.3330   40.4380 O   0  0  0  0  0  0  0  0  0  0  0  0
   36.9530   29.2200   39.3590 C   0  0  0  0  0  0  0  0  0  0  0  0
   37.9000   30.3870   39.5590 C   0  0  2  0  0  0  0  0  0  0  0  0
   38.1460   30.4880   41.1090 C   0  0  1  0  0  0  0  0  0  0  0  0
   36.7060   30.6860   42.7170 H   0  0  0  0  0  0  0  0  0  0  0  0
   35.3240   28.7040   41.6380 H   0  0  0  0  0  0  0  0  0  0  0  0
   37.3320   28.6520   38.5000 H   0  0  0  0  0  0  0  0  0  0  0  0
   35.9280   29.5280   39.0980 H   0  0  0  0  0  0  0  0  0  0  0  0
   38.8580   30.2480   39.0410 H   0  0  0  0  0  0  0  0  0  0  0  0
   38.7200   29.5100   41.1840 H   0  0  0  0  0  0  0  0  0  0  0  0
   35.8590   31.1140   40.8850 O   0  0  0  0  0  0  0  0  0  0  0  0
   35.5540   31.9030   41.3920 H   0  0  0  0  0  0  0  0  0  0  0  0
   37.2570   31.5680   39.2170 O   0  0  0  0  0  0  0  0  0  0  0  0
   37.8100   32.1850   38.7090 H   0  0  0  0  0  0  0  0  0  0  0  0
   37.1470   28.2930   42.6390 O   0  0  0  0  0  0  0  0  0  0  0  0
   37.6820   27.0690   42.6020 C   0  0  0  0  0  0  0  0  0  0  0  0
   39.0210   26.8450   42.9590 C   0  0  0  0  0  0  0  0  0  0  0  0
   39.5090   25.5500   42.8970 C   0  0  0  0  0  0  0  0  0  0  0  0
   38.6710   24.5250   42.4900 N   0  0  0  0  0  0  0  0  0  0  0  0
   37.3890   24.7770   42.1530 C   0  0  0  0  0  0  0  0  0  0  0  0
   36.8920   26.0400   42.2070 N   0  0  0  0  0  0  0  0  0  0  0  0
   39.6620   27.6510   43.2740 H   0  0  0  0  0  0  0  0  0  0  0  0
   36.7640   23.9660   41.8420 H   0  0  0  0  0  0  0  0  0  0  0  0
   40.9280   25.2360   43.2620 C   0  0  0  0  0  0  0  0  0  0  0  0
   41.9420   25.2640   42.1210 C   0  0  0  0  0  0  0  0  0  0  0  0
   41.9250   26.2540   43.2780 C   0  0  0  0  0  0  0  0  0  0  0  0
   41.0060   24.2560   43.8070 H   0  0  0  0  0  0  0  0  0  0  0  0
   41.5450   25.7110   41.1680 H   0  0  0  0  0  0  0  0  0  0  0  0
   42.7390   24.5280   42.0570 H   0  0  0  0  0  0  0  0  0  0  0  0
   42.7950   26.1390   43.9600 H   0  0  0  0  0  0  0  0  0  0  0  0
   41.6300   27.2970   43.1070 H   0  0  0  0  0  0  0  0  0  0  0  0
   38.7900   31.6460   41.3410 O   0  0  0  0  0  0  0  0  0  0  0  0
   40.0250   32.0230   40.9280 C   0  0  0  0  0  0  0  0  0  0  0  0
   41.0610   31.9090   41.7150 O   0  0  0  0  0  0  0  0  0  0  0  0
   41.2150   31.6060   38.7540 C   0  0  1  0  0  3  0  0  0  0  0  0
   40.9530   32.5770   39.9000 C   0  0  1  0  0  3  0  0  0  0  0  0
   40.3790   33.6760   39.2500 O   0  0  0  0  0  0  0  0  0  0  0  0
   41.3800   34.5160   38.8210 C   0  0  0  0  0  2  0  0  0  0  0  0
   42.2980   33.7110   37.9200 C   0  0  1  0  0  3  0  0  0  0  0  0
   41.6720   32.3750   37.5330 C   0  0  2  0  0  3  0  0  0  0  0  0
   42.0530   30.5760   39.1000 O   0  0  0  0  0  0  0  0  0  0  0  0
   41.5490   29.7100   39.1980 H   0  0  0  0  0  0  0  0  0  0  0  0
   42.5910   34.3810   36.7360 O   0  0  0  0  0  0  0  0  0  0  0  0
   42.7360   33.7630   35.9750 H   0  0  0  0  0  0  0  0  0  0  0  0
   40.6060   32.6420   36.6800 O   0  0  0  0  0  0  0  0  0  0  0  0
   39.7720   32.1970   36.9270 H   0  0  0  0  0  0  0  0  0  0  0  0
  1  7  1  1  0  0  0
  2  8  1  1  0  0  0
  2  1  1  0  0  0  0
  2 17  1  0  0  0  0
  3  2  1  0  0  0  0
  4  5  1  0  0  0  0
  4  3  1  0  0  0  0
  5 11  1  6  0  0  0
  5  6  1  0  0  0  0
  6 12  1  1  0  0  0
  6 34  1  0  0  0  0
  6  1  1  0  0  0  0
  9  4  1  0  0  0  0
 10  4  1  0  0  0  0
 13 14  1  0  0  0  0
 13  1  1  0  0  0  0
 15  5  1  0  0  0  0
 16 15  1  0  0  0  0
 18 17  1  0  0  0  0
 18 19  1  0  0  0  0
 19 24  1  0  0  0  0
 20 19  2  0  0  0  0
 20 26  1  0  0  0  0
 21 20  1  0  0  0  0
 22 23  1  0  0  0  0
 22 21  2  0  0  0  0
 23 18  2  0  0  0  0
 25 22  1  0  0  0  0
 26 28  1  0  0  0  0
 26 29  1  0  0  0  0
 27 26  1  0  0  0  0
 27 28  1  0  0  0  0
 28 32  1  0  0  0  0
 30 27  1  0  0  0  0
 31 27  1  0  0  0  0
 33 28  1  0  0  0  0
 35 34  1  0  0  0  0
 35 36  2  0  0  0  0
 37 43  1  1  0  0  0
 37 38  1  0  0  0  0
 38 35  1  1  0  0  0
 39 38  1  0  0  0  0
 40 39  1  0  0  0  0
 41 45  1  6  0  0  0
 41 40  1  0  0  0  0
 42 47  1  6  0  0  0
 42 41  1  0  0  0  0
 42 37  1  0  0  0  0
 43 44  1  0  0  0  0
 46 45  1  0  0  0  0
 47 48  1  0  0  0  0
M  END
>  <minimizedAffinity>
-7.06297541

$$$$

 OpenBabel03242523563D

 48 51  0  0  1  0  0  0  0  0999 V2000
   37.7350   32.2850   40.6100 C   0  0  1  0  0  0  0  0  0  0  0  0
   37.4460   30.8300   40.9620 C   0  0  1  0  0  0  0  0  0  0  0  0
   37.5650   30.0630   39.7890 O   0  0  0  0  0  0  0  0  0  0  0  0
   37.1070   30.7390   38.6560 C   0  0  0  0  0  0  0  0  0  0  0  0
   38.0170   31.8920   38.2760 C   0  0  2  0  0  0  0  0  0  0  0  0
   38.8160   32.2640   39.5790 C   0  0  1  0  0  0  0  0  0  0  0  0
   38.0670   32.7990   41.5410 H   0  0  0  0  0  0  0  0  0  0  0  0
   36.4580   30.7010   41.4300 H   0  0  0  0  0  0  0  0  0  0  0  0
   37.1620   30.0120   37.8360 H   0  0  0  0  0  0  0  0  0  0  0  0
   36.0480   31.0300   38.7430 H   0  0  0  0  0  0  0  0  0  0  0  0
   38.7200   31.6280   37.4740 H   0  0  0  0  0  0  0  0  0  0  0  0
   39.4120   31.2970   39.6110 H   0  0  0  0  0  0  0  0  0  0  0  0
   36.5880   32.9150   40.1090 O   0  0  0  0  0  0  0  0  0  0  0  0
   36.4630   33.7920   40.5410 H   0  0  0  0  0  0  0  0  0  0  0  0
   37.2510   33.0120   37.9890 O   0  0  0  0  0  0  0  0  0  0  0  0
   37.5530   33.5070   37.2100 H   0  0  0  0  0  0  0  0  0  0  0  0
   38.5360   30.4190   41.7410 O   0  0  0  0  0  0  0  0  0  0  0  0
   38.5660   29.3120   42.4900 C   0  0  0  0  0  0  0  0  0  0  0  0
   39.7490   28.5750   42.6580 C   0  0  0  0  0  0  0  0  0  0  0  0
   39.7080   27.4390   43.4490 C   0  0  0  0  0  0  0  0  0  0  0  0
   38.5140   27.0660   44.0450 N   0  0  0  0  0  0  0  0  0  0  0  0
   37.3960   27.7980   43.8610 C   0  0  0  0  0  0  0  0  0  0  0  0
   37.4160   28.9160   43.0890 N   0  0  0  0  0  0  0  0  0  0  0  0
   40.6710   28.8760   42.1900 H   0  0  0  0  0  0  0  0  0  0  0  0
   36.4870   27.4880   44.3330 H   0  0  0  0  0  0  0  0  0  0  0  0
   40.9310   26.6030   43.6740 C   0  0  0  0  0  0  0  0  0  0  0  0
   40.8810   25.1740   43.1370 C   0  0  0  0  0  0  0  0  0  0  0  0
   41.7970   26.2630   42.5930 C   0  0  0  0  0  0  0  0  0  0  0  0
   41.2240   26.5840   44.7580 H   0  0  0  0  0  0  0  0  0  0  0  0
   40.0070   24.9710   42.4590 H   0  0  0  0  0  0  0  0  0  0  0  0
   41.3080   24.3460   43.6970 H   0  0  0  0  0  0  0  0  0  0  0  0
   42.8710   26.0750   42.8080 H   0  0  0  0  0  0  0  0  0  0  0  0
   41.6130   26.6950   41.6010 H   0  0  0  0  0  0  0  0  0  0  0  0
   39.4570   33.4220   39.3420 O   0  0  0  0  0  0  0  0  0  0  0  0
   40.7640   33.6180   39.0410 C   0  0  0  0  0  0  0  0  0  0  0  0
   41.3020   34.8050   39.1180 O   0  0  0  0  0  0  0  0  0  0  0  0
   42.9450   34.1910   37.9320 C   0  0  1  0  0  3  0  0  0  0  0  0
   42.1010   33.1160   38.6080 C   0  0  1  0  0  3  0  0  0  0  0  0
   42.8830   32.7590   39.7140 O   0  0  0  0  0  0  0  0  0  0  0  0
   43.7640   31.7720   39.3380 C   0  0  0  0  0  2  0  0  0  0  0  0
   44.5880   32.3100   38.1820 C   0  0  1  0  0  3  0  0  0  0  0  0
   44.4090   33.8160   38.0210 C   0  0  2  0  0  3  0  0  0  0  0  0
   42.5300   34.4820   36.6570 O   0  0  0  0  0  0  0  0  0  0  0  0
   42.0670   35.3740   36.6160 H   0  0  0  0  0  0  0  0  0  0  0  0
   45.9490   32.0780   38.3560 O   0  0  0  0  0  0  0  0  0  0  0  0
   46.5100   32.7840   37.9460 H   0  0  0  0  0  0  0  0  0  0  0  0
   45.0190   34.4310   39.1100 O   0  0  0  0  0  0  0  0  0  0  0  0
   44.4600   35.0910   39.5640 H   0  0  0  0  0  0  0  0  0  0  0  0
  1  2  1  0  0  0  0
  1  7  1  1  0  0  0
  2  8  1  1  0  0  0
  2 17  1  0  0  0  0
  3  2  1  0  0  0  0
  4 10  1  0  0  0  0
  4  3  1  0  0  0  0
  5 11  1  6  0  0  0
  5  4  1  0  0  0  0
  5  6  1  0  0  0  0
  6 12  1  1  0  0  0
  6  1  1  0  0  0  0
  9  4  1  0  0  0  0
 13 14  1  0  0  0  0
 13  1  1  0  0  0  0
 15  5  1  0  0  0  0
 16 15  1  0  0  0  0
 17 18  1  0  0  0  0
 18 19  2  0  0  0  0
 18 23  1  0  0  0  0
 19 20  1  0  0  0  0
 20 26  1  0  0  0  0
 20 21  2  0  0  0  0
 22 21  1  0  0  0  0
 22 25  1  0  0  0  0
 23 22  2  0  0  0  0
 24 19  1  0  0  0  0
 26 29  1  0  0  0  0
 27 26  1  0  0  0  0
 27 31  1  0  0  0  0
 28 32  1  0  0  0  0
 28 27  1  0  0  0  0
 28 26  1  0  0  0  0
 30 27  1  0  0  0  0
 33 28  1  0  0  0  0
 34  6  1  0  0  0  0
 35 36  2  0  0  0  0
 35 34  1  0  0  0  0
 37 43  1  6  0  0  0
 37 42  1  0  0  0  0
 37 38  1  0  0  0  0
 38 35  1  1  0  0  0
 38 39  1  0  0  0  0
 40 39  1  0  0  0  0
 41 45  1  1  0  0  0
 41 40  1  0  0  0  0
 42 41  1  0  0  0  0
 42 47  1  1  0  0  0
 44 43  1  0  0  0  0
 46 45  1  0  0  0  0
 47 48  1  0  0  0  0
M  END
>  <minimizedAffinity>
-7.00815916

$$$$

 OpenBabel03242523563D

 48 51  0  0  1  0  0  0  0  0999 V2000
   36.9700   29.8900   41.4070 C   0  0  1  0  0  0  0  0  0  0  0  0
   36.4830   28.7210   40.5580 C   0  0  1  0  0  0  0  0  0  0  0  0
   36.4690   29.1320   39.2140 O   0  0  0  0  0  0  0  0  0  0  0  0
   36.0900   30.4680   39.0640 C   0  0  0  0  0  0  0  0  0  0  0  0
   37.1470   31.4200   39.5890 C   0  0  2  0  0  0  0  0  0  0  0  0
   38.0160   30.5900   40.6030 C   0  0  1  0  0  0  0  0  0  0  0  0
   37.3910   29.4710   42.3500 H   0  0  0  0  0  0  0  0  0  0  0  0
   35.4970   28.3530   40.8790 H   0  0  0  0  0  0  0  0  0  0  0  0
   36.0240   30.6360   37.9820 H   0  0  0  0  0  0  0  0  0  0  0  0
   35.0850   30.6650   39.4710 H   0  0  0  0  0  0  0  0  0  0  0  0
   37.7890   31.8190   38.7920 H   0  0  0  0  0  0  0  0  0  0  0  0
   38.4700   29.9090   39.8140 H   0  0  0  0  0  0  0  0  0  0  0  0
   35.9150   30.7610   41.7100 O   0  0  0  0  0  0  0  0  0  0  0  0
   35.9260   30.9910   42.6680 H   0  0  0  0  0  0  0  0  0  0  0  0
   36.5430   32.4070   40.3530 O   0  0  0  0  0  0  0  0  0  0  0  0
   36.8980   33.2980   40.1980 H   0  0  0  0  0  0  0  0  0  0  0  0
   37.5180   27.7770   40.6060 O   0  0  0  0  0  0  0  0  0  0  0  0
   37.3500   26.4650   40.7990 C   0  0  0  0  0  0  0  0  0  0  0  0
   36.7180   25.6600   39.8380 C   0  0  0  0  0  0  0  0  0  0  0  0
   36.5780   24.3090   40.1030 C   0  0  0  0  0  0  0  0  0  0  0  0
   37.0600   23.7940   41.2960 N   0  0  0  0  0  0  0  0  0  0  0  0
   37.6620   24.5980   42.1970 C   0  0  0  0  0  0  0  0  0  0  0  0
   37.8090   25.9260   41.9550 N   0  0  0  0  0  0  0  0  0  0  0  0
   36.3480   26.0720   38.9140 H   0  0  0  0  0  0  0  0  0  0  0  0
   38.0250   24.1750   43.1100 H   0  0  0  0  0  0  0  0  0  0  0  0
   35.9140   23.3880   39.1240 C   0  0  0  0  0  0  0  0  0  0  0  0
   34.4770   22.9830   39.4450 C   0  0  0  0  0  0  0  0  0  0  0  0
   34.8780   23.8560   38.2640 C   0  0  0  0  0  0  0  0  0  0  0  0
   36.5300   22.4670   38.9410 H   0  0  0  0  0  0  0  0  0  0  0  0
   34.0100   23.5760   40.2780 H   0  0  0  0  0  0  0  0  0  0  0  0
   34.1240   21.9700   39.2680 H   0  0  0  0  0  0  0  0  0  0  0  0
   34.7310   23.3530   37.2830 H   0  0  0  0  0  0  0  0  0  0  0  0
   34.6270   24.9240   38.2560 H   0  0  0  0  0  0  0  0  0  0  0  0
   38.8120   31.4560   41.2550 O   0  0  0  0  0  0  0  0  0  0  0  0
   39.8960   32.1220   40.7900 C   0  0  0  0  0  0  0  0  0  0  0  0
   41.0280   32.1050   41.4410 O   0  0  0  0  0  0  0  0  0  0  0  0
   41.6750   33.8510   40.3810 C   0  0  1  0  0  3  0  0  0  0  0  0
   40.5710   32.9880   39.7790 C   0  0  1  0  0  3  0  0  0  0  0  0
   41.2610   32.2130   38.8390 O   0  0  0  0  0  0  0  0  0  0  0  0
   41.3180   32.9000   37.6480 C   0  0  0  0  0  2  0  0  0  0  0  0
   41.9900   34.2340   37.9210 C   0  0  1  0  0  3  0  0  0  0  0  0
   42.6490   34.2570   39.2960 C   0  0  2  0  0  3  0  0  0  0  0  0
   41.1960   34.9070   41.1140 O   0  0  0  0  0  0  0  0  0  0  0  0
   41.3170   34.7540   42.1020 H   0  0  0  0  0  0  0  0  0  0  0  0
   42.9830   34.5210   36.9890 O   0  0  0  0  0  0  0  0  0  0  0  0
   43.7210   35.0580   37.3740 H   0  0  0  0  0  0  0  0  0  0  0  0
   43.7410   33.3970   39.2540 O   0  0  0  0  0  0  0  0  0  0  0  0
   43.7770   32.7560   39.9910 H   0  0  0  0  0  0  0  0  0  0  0  0
  1 13  1  0  0  0  0
  1  7  1  1  0  0  0
  2 17  1  0  0  0  0
  2  8  1  1  0  0  0
  2  1  1  0  0  0  0
  3  2  1  0  0  0  0
  4  3  1  0  0  0  0
  4 10  1  0  0  0  0
  4  5  1  0  0  0  0
  5 11  1  6  0  0  0
  5 15  1  0  0  0  0
  5  6  1  0  0  0  0
  6 12  1  6  0  0  0
  6 34  1  0  0  0  0
  6  1  1  0  0  0  0
  9  4  1  0  0  0  0
 13 14  1  0  0  0  0
 16 15  1  0  0  0  0
 17 18  1  0  0  0  0
 18 23  1  0  0  0  0
 19 20  1  0  0  0  0
 19 18  2  0  0  0  0
 20 21  2  0  0  0  0
 21 22  1  0  0  0  0
 22 25  1  0  0  0  0
 23 22  2  0  0  0  0
 24 19  1  0  0  0  0
 26 27  1  0  0  0  0
 26 20  1  0  0  0  0
 27 30  1  0  0  0  0
 28 26  1  0  0  0  0
 28 27  1  0  0  0  0
 29 26  1  0  0  0  0
 31 27  1  0  0  0  0
 32 28  1  0  0  0  0
 33 28  1  0  0  0  0
 35 34  1  0  0  0  0
 35 36  2  0  0  0  0
 37 43  1  6  0  0  0
 38 37  1  0  0  0  0
 38 35  1  1  0  0  0
 39 38  1  0  0  0  0
 40 41  1  0  0  0  0
 40 39  1  0  0  0  0
 41 45  1  6  0  0  0
 41 42  1  0  0  0  0
 42 47  1  6  0  0  0
 42 37  1  0  0  0  0
 43 44  1  0  0  0  0
 45 46  1  0  0  0  0
 47 48  1  0  0  0  0
M  END
>  <minimizedAffinity>
-6.97746468

$$$$

 OpenBabel03242523563D

 48 51  0  0  1  0  0  0  0  0999 V2000
   37.3460   29.4640   41.5450 C   0  0  1  0  0  0  0  0  0  0  0  0
   36.8950   28.2830   40.6950 C   0  0  1  0  0  0  0  0  0  0  0  0
   36.5970   28.7590   39.4060 O   0  0  0  0  0  0  0  0  0  0  0  0
   36.0120   30.0270   39.4240 C   0  0  0  0  0  0  0  0  0  0  0  0
   36.9960   31.1000   39.8490 C   0  0  2  0  0  0  0  0  0  0  0  0
   38.1320   30.3590   40.6450 C   0  0  1  0  0  0  0  0  0  0  0  0
   37.9750   29.0630   42.3750 H   0  0  0  0  0  0  0  0  0  0  0  0
   36.0400   27.7510   41.1360 H   0  0  0  0  0  0  0  0  0  0  0  0
   35.7430   30.2430   38.3830 H   0  0  0  0  0  0  0  0  0  0  0  0
   35.0720   30.0450   39.9980 H   0  0  0  0  0  0  0  0  0  0  0  0
   37.4320   31.6360   38.9950 H   0  0  0  0  0  0  0  0  0  0  0  0
   38.5390   29.8000   39.7420 H   0  0  0  0  0  0  0  0  0  0  0  0
   36.2440   30.1450   42.0790 O   0  0  0  0  0  0  0  0  0  0  0  0
   36.3820   30.3210   43.0390 H   0  0  0  0  0  0  0  0  0  0  0  0
   36.3950   31.9400   40.7750 O   0  0  0  0  0  0  0  0  0  0  0  0
   36.5880   32.8820   40.6370 H   0  0  0  0  0  0  0  0  0  0  0  0
   38.0480   27.5080   40.5040 O   0  0  0  0  0  0  0  0  0  0  0  0
   38.4890   26.5710   41.3500 C   0  0  0  0  0  0  0  0  0  0  0  0
   39.5460   26.8260   42.2380 C   0  0  0  0  0  0  0  0  0  0  0  0
   39.9500   25.8090   43.0860 C   0  0  0  0  0  0  0  0  0  0  0  0
   39.3080   24.5830   43.0350 N   0  0  0  0  0  0  0  0  0  0  0  0
   38.2960   24.3730   42.1680 C   0  0  0  0  0  0  0  0  0  0  0  0
   37.8840   25.3570   41.3280 N   0  0  0  0  0  0  0  0  0  0  0  0
   40.0370   27.7840   42.2670 H   0  0  0  0  0  0  0  0  0  0  0  0
   37.8170   23.4160   42.1510 H   0  0  0  0  0  0  0  0  0  0  0  0
   41.0720   26.0090   44.0600 C   0  0  0  0  0  0  0  0  0  0  0  0
   42.4800   25.7440   43.5320 C   0  0  0  0  0  0  0  0  0  0  0  0
   41.9600   27.1170   43.9390 C   0  0  0  0  0  0  0  0  0  0  0  0
   40.9090   25.4200   45.0020 H   0  0  0  0  0  0  0  0  0  0  0  0
   42.5340   25.6200   42.4160 H   0  0  0  0  0  0  0  0  0  0  0  0
   43.2290   25.2510   44.1470 H   0  0  0  0  0  0  0  0  0  0  0  0
   42.4490   27.5120   44.8550 H   0  0  0  0  0  0  0  0  0  0  0  0
   41.7660   27.8820   43.1760 H   0  0  0  0  0  0  0  0  0  0  0  0
   38.8950   31.3000   41.2300 O   0  0  0  0  0  0  0  0  0  0  0  0
   39.9510   31.9730   40.7140 C   0  0  0  0  0  0  0  0  0  0  0  0
   41.1190   31.9400   41.2950 O   0  0  0  0  0  0  0  0  0  0  0  0
   41.6790   33.7370   40.2430 C   0  0  1  0  0  3  0  0  0  0  0  0
   40.5680   32.8570   39.6810 C   0  0  1  0  0  3  0  0  0  0  0  0
   41.2330   32.1000   38.7090 O   0  0  0  0  0  0  0  0  0  0  0  0
   41.2280   32.7940   37.5210 C   0  0  0  0  0  2  0  0  0  0  0  0
   41.8850   34.1380   37.7740 C   0  0  1  0  0  3  0  0  0  0  0  0
   42.5990   34.1670   39.1210 C   0  0  2  0  0  3  0  0  0  0  0  0
   41.2110   34.7800   41.0010 O   0  0  0  0  0  0  0  0  0  0  0  0
   41.3750   34.6240   41.9820 H   0  0  0  0  0  0  0  0  0  0  0  0
   42.8330   34.4500   36.8030 O   0  0  0  0  0  0  0  0  0  0  0  0
   43.5760   34.9980   37.1610 H   0  0  0  0  0  0  0  0  0  0  0  0
   43.7050   33.3280   39.0290 O   0  0  0  0  0  0  0  0  0  0  0  0
   43.7830   32.6840   39.7590 H   0  0  0  0  0  0  0  0  0  0  0  0
  1 13  1  0  0  0  0
  1  7  1  1  0  0  0
  2  8  1  1  0  0  0
  2  1  1  0  0  0  0
  3  4  1  0  0  0  0
  3  2  1  0  0  0  0
  4  5  1  0  0  0  0
  4 10  1  0  0  0  0
  5 11  1  6  0  0  0
  5  6  1  0  0  0  0
  5 15  1  0  0  0  0
  6 12  1  6  0  0  0
  6 34  1  0  0  0  0
  6  1  1  0  0  0  0
  9  4  1  0  0  0  0
 13 14  1  0  0  0  0
 16 15  1  0  0  0  0
 17  2  1  0  0  0  0
 17 18  1  0  0  0  0
 18 19  1  0  0  0  0
 19 24  1  0  0  0  0
 19 20  2  0  0  0  0
 20 26  1  0  0  0  0
 21 20  1  0  0  0  0
 22 21  2  0  0  0  0
 23 18  2  0  0  0  0
 23 22  1  0  0  0  0
 25 22  1  0  0  0  0
 26 29  1  0  0  0  0
 27 28  1  0  0  0  0
 27 26  1  0  0  0  0
 27 31  1  0  0  0  0
 28 26  1  0  0  0  0
 28 32  1  0  0  0  0
 30 27  1  0  0  0  0
 33 28  1  0  0  0  0
 35 34  1  0  0  0  0
 35 36  2  0  0  0  0
 37 43  1  6  0  0  0
 38 37  1  0  0  0  0
 38 35  1  1  0  0  0
 39 38  1  0  0  0  0
 40 41  1  0  0  0  0
 40 39  1  0  0  0  0
 41 45  1  6  0  0  0
 41 42  1  0  0  0  0
 42 47  1  6  0  0  0
 42 37  1  0  0  0  0
 43 44  1  0  0  0  0
 45 46  1  0  0  0  0
 47 48  1  0  0  0  0
M  END
>  <minimizedAffinity>
-6.83708286

$$$$

 OpenBabel03242523563D

 48 51  0  0  1  0  0  0  0  0999 V2000
   37.2740   30.6860   40.8710 C   0  0  1  0  0  0  0  0  0  0  0  0
   36.5050   29.8620   41.8960 C   0  0  1  0  0  0  0  0  0  0  0  0
   35.8830   28.7940   41.2240 O   0  0  0  0  0  0  0  0  0  0  0  0
   35.4290   29.1530   39.9520 C   0  0  0  0  0  0  0  0  0  0  0  0
   36.5750   29.4000   38.9900 C   0  0  2  0  0  0  0  0  0  0  0  0
   37.8320   29.7160   39.8810 C   0  0  1  0  0  0  0  0  0  0  0  0
   38.0830   31.2300   41.4120 H   0  0  0  0  0  0  0  0  0  0  0  0
   35.7750   30.4650   42.4570 H   0  0  0  0  0  0  0  0  0  0  0  0
   34.8870   28.2770   39.5760 H   0  0  0  0  0  0  0  0  0  0  0  0
   34.7000   29.9780   39.9860 H   0  0  0  0  0  0  0  0  0  0  0  0
   36.7840   28.5330   38.3500 H   0  0  0  0  0  0  0  0  0  0  0  0
   37.9140   28.6690   40.3140 H   0  0  0  0  0  0  0  0  0  0  0  0
   36.4310   31.6080   40.2370 O   0  0  0  0  0  0  0  0  0  0  0  0
   36.8550   32.4980   40.2100 H   0  0  0  0  0  0  0  0  0  0  0  0
   36.3360   30.5650   38.2760 O   0  0  0  0  0  0  0  0  0  0  0  0
   36.5530   30.5000   37.3310 H   0  0  0  0  0  0  0  0  0  0  0  0
   37.4870   29.2360   42.6750 O   0  0  0  0  0  0  0  0  0  0  0  0
   38.0520   28.0570   42.3930 C   0  0  0  0  0  0  0  0  0  0  0  0
   37.2930   26.8780   42.3330 C   0  0  0  0  0  0  0  0  0  0  0  0
   37.9450   25.6930   42.0350 C   0  0  0  0  0  0  0  0  0  0  0  0
   39.3110   25.7050   41.8060 N   0  0  0  0  0  0  0  0  0  0  0  0
   40.0090   26.8570   41.8720 C   0  0  0  0  0  0  0  0  0  0  0  0
   39.3890   28.0300   42.1640 N   0  0  0  0  0  0  0  0  0  0  0  0
   36.2320   26.8830   42.5120 H   0  0  0  0  0  0  0  0  0  0  0  0
   41.0630   26.8370   41.6910 H   0  0  0  0  0  0  0  0  0  0  0  0
   37.1990   24.3950   41.9540 C   0  0  0  0  0  0  0  0  0  0  0  0
   36.3980   24.1540   40.6770 C   0  0  0  0  0  0  0  0  0  0  0  0
   37.6300   23.3540   41.0800 C   0  0  0  0  0  0  0  0  0  0  0  0
   36.5330   24.2460   42.8460 H   0  0  0  0  0  0  0  0  0  0  0  0
   36.6150   24.8910   39.8550 H   0  0  0  0  0  0  0  0  0  0  0  0
   35.4200   23.6820   40.7060 H   0  0  0  0  0  0  0  0  0  0  0  0
   37.3950   22.3010   41.3480 H   0  0  0  0  0  0  0  0  0  0  0  0
   38.5700   23.4720   40.5270 H   0  0  0  0  0  0  0  0  0  0  0  0
   38.8020   30.1650   39.0650 O   0  0  0  0  0  0  0  0  0  0  0  0
   40.0140   30.6750   39.3940 C   0  0  0  0  0  0  0  0  0  0  0  0
   41.0890   29.9360   39.3480 O   0  0  0  0  0  0  0  0  0  0  0  0
   40.4030   33.1570   39.3570 C   0  0  1  0  0  3  0  0  0  0  0  0
   40.8880   31.7970   39.8450 C   0  0  1  0  0  3  0  0  0  0  0  0
   40.8450   31.9350   41.2380 O   0  0  0  0  0  0  0  0  0  0  0  0
   42.0360   32.4690   41.6720 C   0  0  0  0  0  2  0  0  0  0  0  0
   42.2320   33.7920   40.9540 C   0  0  1  0  0  3  0  0  0  0  0  0
   40.9540   34.2440   40.2550 C   0  0  2  0  0  3  0  0  0  0  0  0
   40.6460   33.3720   38.0240 O   0  0  0  0  0  0  0  0  0  0  0  0
   39.7990   33.3140   37.4820 H   0  0  0  0  0  0  0  0  0  0  0  0
   42.6020   34.8120   41.8260 O   0  0  0  0  0  0  0  0  0  0  0  0
   42.2690   35.6990   41.5360 H   0  0  0  0  0  0  0  0  0  0  0  0
   40.0360   34.5930   41.2420 O   0  0  0  0  0  0  0  0  0  0  0  0
   39.1540   34.1880   41.1320 H   0  0  0  0  0  0  0  0  0  0  0  0
  1  7  1  1  0  0  0
  1  2  1  0  0  0  0
  2  8  1  1  0  0  0
  2 17  1  0  0  0  0
  3  2  1  0  0  0  0
  4 10  1  0  0  0  0
  4  3  1  0  0  0  0
  5 11  1  6  0  0  0
  5  6  1  0  0  0  0
  5  4  1  0  0  0  0
  6 12  1  1  0  0  0
  6  1  1  0  0  0  0
  9  4  1  0  0  0  0
 13  1  1  0  0  0  0
 14 13  1  0  0  0  0
 15  5  1  0  0  0  0
 16 15  1  0  0  0  0
 18 17  1  0  0  0  0
 19 18  1  0  0  0  0
 19 24  1  0  0  0  0
 20 19  2  0  0  0  0
 21 22  2  0  0  0  0
 21 20  1  0  0  0  0
 22 23  1  0  0  0  0
 23 18  2  0  0  0  0
 25 22  1  0  0  0  0
 26 20  1  0  0  0  0
 26 29  1  0  0  0  0
 27 31  1  0  0  0  0
 27 28  1  0  0  0  0
 27 26  1  0  0  0  0
 28 32  1  0  0  0  0
 28 26  1  0  0  0  0
 30 27  1  0  0  0  0
 33 28  1  0  0  0  0
 34 35  1  0  0  0  0
 34  6  1  0  0  0  0
 36 35  2  0  0  0  0
 37 43  1  6  0  0  0
 37 38  1  0  0  0  0
 37 42  1  0  0  0  0
 38 35  1  1  0  0  0
 38 39  1  0  0  0  0
 39 40  1  0  0  0  0
 41 40  1  0  0  0  0
 41 45  1  1  0  0  0
 42 41  1  0  0  0  0
 42 47  1  1  0  0  0
 44 43  1  0  0  0  0
 46 45  1  0  0  0  0
 48 47  1  0  0  0  0
M  END
>  <minimizedAffinity>
-6.53839636

$$$$

 OpenBabel03242523563D

 48 51  0  0  1  0  0  0  0  0999 V2000
   39.3290   32.3940   41.1620 C   0  0  1  0  0  0  0  0  0  0  0  0
   38.1480   31.4380   41.2840 C   0  0  1  0  0  0  0  0  0  0  0  0
   37.3910   31.5240   40.1020 O   0  0  0  0  0  0  0  0  0  0  0  0
   37.3450   32.8210   39.5860 C   0  0  0  0  0  0  0  0  0  0  0  0
   38.6880   33.2600   39.0360 C   0  0  2  0  0  0  0  0  0  0  0  0
   39.7640   32.3490   39.7340 C   0  0  1  0  0  0  0  0  0  0  0  0
   40.1300   32.0310   41.8460 H   0  0  0  0  0  0  0  0  0  0  0  0
   37.5340   31.6420   42.1730 H   0  0  0  0  0  0  0  0  0  0  0  0
   36.6560   32.7750   38.7340 H   0  0  0  0  0  0  0  0  0  0  0  0
   36.9100   33.5390   40.2990 H   0  0  0  0  0  0  0  0  0  0  0  0
   38.7570   33.1440   37.9460 H   0  0  0  0  0  0  0  0  0  0  0  0
   39.4330   31.3910   39.2200 H   0  0  0  0  0  0  0  0  0  0  0  0
   38.9570   33.6960   41.5240 O   0  0  0  0  0  0  0  0  0  0  0  0
   39.6250   34.0860   42.1340 H   0  0  0  0  0  0  0  0  0  0  0  0
   38.9680   34.5470   39.4700 O   0  0  0  0  0  0  0  0  0  0  0  0
   39.3500   35.1200   38.7840 H   0  0  0  0  0  0  0  0  0  0  0  0
   38.7090   30.1550   41.2260 O   0  0  0  0  0  0  0  0  0  0  0  0
   38.1870   29.0640   41.7980 C   0  0  0  0  0  0  0  0  0  0  0  0
   37.9730   27.8860   41.0650 C   0  0  0  0  0  0  0  0  0  0  0  0
   37.4290   26.7950   41.7220 C   0  0  0  0  0  0  0  0  0  0  0  0
   37.1160   26.8960   43.0680 N   0  0  0  0  0  0  0  0  0  0  0  0
   37.3340   28.0450   43.7400 C   0  0  0  0  0  0  0  0  0  0  0  0
   37.8670   29.1260   43.1140 N   0  0  0  0  0  0  0  0  0  0  0  0
   38.2210   27.8200   40.0200 H   0  0  0  0  0  0  0  0  0  0  0  0
   37.0830   28.0950   44.7790 H   0  0  0  0  0  0  0  0  0  0  0  0
   37.1710   25.5050   41.0050 C   0  0  0  0  0  0  0  0  0  0  0  0
   38.2230   24.4120   41.1820 C   0  0  0  0  0  0  0  0  0  0  0  0
   36.8010   24.3290   41.7200 C   0  0  0  0  0  0  0  0  0  0  0  0
   36.9870   25.6720   39.9090 H   0  0  0  0  0  0  0  0  0  0  0  0
   38.9750   24.6280   41.9890 H   0  0  0  0  0  0  0  0  0  0  0  0
   38.5200   23.7760   40.3510 H   0  0  0  0  0  0  0  0  0  0  0  0
   36.1860   23.5610   41.2030 H   0  0  0  0  0  0  0  0  0  0  0  0
   36.6150   24.3920   42.8000 H   0  0  0  0  0  0  0  0  0  0  0  0
   40.9740   32.8620   39.4470 O   0  0  0  0  0  0  0  0  0  0  0  0
   41.6540   32.8190   38.2750 C   0  0  0  0  0  0  0  0  0  0  0  0
   41.7010   33.8580   37.4870 O   0  0  0  0  0  0  0  0  0  0  0  0
   43.9840   32.3890   37.4380 C   0  0  1  0  0  3  0  0  0  0  0  0
   42.4960   32.1060   37.2700 C   0  0  1  0  0  3  0  0  0  0  0  0
   42.4220   30.7190   37.4510 O   0  0  0  0  0  0  0  0  0  0  0  0
   42.6350   30.0980   36.2420 C   0  0  0  0  0  2  0  0  0  0  0  0
   43.9870   30.5550   35.7260 C   0  0  1  0  0  3  0  0  0  0  0  0
   44.7870   31.2710   36.8090 C   0  0  2  0  0  3  0  0  0  0  0  0
   44.3490   33.6390   37.0050 O   0  0  0  0  0  0  0  0  0  0  0  0
   44.5450   34.2530   37.7780 H   0  0  0  0  0  0  0  0  0  0  0  0
   44.7660   29.4900   35.2810 O   0  0  0  0  0  0  0  0  0  0  0  0
   45.7350   29.6480   35.4100 H   0  0  0  0  0  0  0  0  0  0  0  0
   45.1550   30.3220   37.7570 O   0  0  0  0  0  0  0  0  0  0  0  0
   44.9560   30.5760   38.6790 H   0  0  0  0  0  0  0  0  0  0  0  0
  1  2  1  0  0  0  0
  1 13  1  0  0  0  0
  1  7  1  1  0  0  0
  2  8  1  1  0  0  0
  3  2  1  0  0  0  0
  4  3  1  0  0  0  0
  4 10  1  0  0  0  0
  5 11  1  6  0  0  0
  5 15  1  0  0  0  0
  5  4  1  0  0  0  0
  5  6  1  0  0  0  0
  6 12  1  6  0  0  0
  6  1  1  0  0  0  0
  9  4  1  0  0  0  0
 13 14  1  0  0  0  0
 16 15  1  0  0  0  0
 17  2  1  0  0  0  0
 17 18  1  0  0  0  0
 18 23  1  0  0  0  0
 19 20  1  0  0  0  0
 19 18  2  0  0  0  0
 20 21  2  0  0  0  0
 21 22  1  0  0  0  0
 22 25  1  0  0  0  0
 23 22  2  0  0  0  0
 24 19  1  0  0  0  0
 26 27  1  0  0  0  0
 26 28  1  0  0  0  0
 26 20  1  0  0  0  0
 27 28  1  0  0  0  0
 27 30  1  0  0  0  0
 28 33  1  0  0  0  0
 29 26  1  0  0  0  0
 31 27  1  0  0  0  0
 32 28  1  0  0  0  0
 34  6  1  0  0  0  0
 35 34  1  0  0  0  0
 36 35  2  0  0  0  0
 37 43  1  6  0  0  0
 38 37  1  0  0  0  0
 38 39  1  0  0  0  0
 38 35  1  1  0  0  0
 40 39  1  0  0  0  0
 41 45  1  1  0  0  0
 41 40  1  0  0  0  0
 41 42  1  0  0  0  0
 42 37  1  0  0  0  0
 42 47  1  1  0  0  0
 43 44  1  0  0  0  0
 45 46  1  0  0  0  0
 47 48  1  0  0  0  0
M  END
>  <minimizedAffinity>
-6.53398609

$$$$

 OpenBabel03242523563D

 48 51  0  0  1  0  0  0  0  0999 V2000
   37.5300   31.4180   40.7170 C   0  0  1  0  0  0  0  0  0  0  0  0
   37.1210   30.1290   40.0160 C   0  0  1  0  0  0  0  0  0  0  0  0
   37.5120   30.2200   38.6680 O   0  0  0  0  0  0  0  0  0  0  0  0
   37.3730   31.5120   38.1550 C   0  0  0  0  0  0  0  0  0  0  0  0
   38.3810   32.4720   38.7570 C   0  0  2  0  0  0  0  0  0  0  0  0
   38.8350   31.8310   40.1190 C   0  0  1  0  0  0  0  0  0  0  0  0
   37.6300   31.1950   41.8050 H   0  0  0  0  0  0  0  0  0  0  0  0
   36.0450   29.9220   40.1110 H   0  0  0  0  0  0  0  0  0  0  0  0
   37.6140   31.4330   37.0880 H   0  0  0  0  0  0  0  0  0  0  0  0
   36.3350   31.8750   38.2130 H   0  0  0  0  0  0  0  0  0  0  0  0
   39.2560   32.6270   38.1110 H   0  0  0  0  0  0  0  0  0  0  0  0
   39.3770   30.9540   39.6420 H   0  0  0  0  0  0  0  0  0  0  0  0
   36.5640   32.4160   40.5300 O   0  0  0  0  0  0  0  0  0  0  0  0
   36.3580   32.8580   41.3870 H   0  0  0  0  0  0  0  0  0  0  0  0
   37.7430   33.6530   39.1080 O   0  0  0  0  0  0  0  0  0  0  0  0
   38.2450   34.4540   38.8860 H   0  0  0  0  0  0  0  0  0  0  0  0
   37.9680   29.1430   40.5400 O   0  0  0  0  0  0  0  0  0  0  0  0
   37.5700   28.1180   41.3020 C   0  0  0  0  0  0  0  0  0  0  0  0
   37.6560   26.7920   40.8480 C   0  0  0  0  0  0  0  0  0  0  0  0
   37.2260   25.7810   41.6900 C   0  0  0  0  0  0  0  0  0  0  0  0
   36.7290   26.1020   42.9420 N   0  0  0  0  0  0  0  0  0  0  0  0
   36.6600   27.3880   43.3460 C   0  0  0  0  0  0  0  0  0  0  0  0
   37.0770   28.3940   42.5350 N   0  0  0  0  0  0  0  0  0  0  0  0
   38.0450   26.5560   39.8720 H   0  0  0  0  0  0  0  0  0  0  0  0
   36.2720   27.6070   44.3180 H   0  0  0  0  0  0  0  0  0  0  0  0
   37.2880   24.3430   41.2730 C   0  0  0  0  0  0  0  0  0  0  0  0
   36.1760   23.8600   40.3440 C   0  0  0  0  0  0  0  0  0  0  0  0
   37.6400   23.9800   39.9400 C   0  0  0  0  0  0  0  0  0  0  0  0
   37.3550   23.6580   42.1610 H   0  0  0  0  0  0  0  0  0  0  0  0
   35.5450   24.6880   39.9180 H   0  0  0  0  0  0  0  0  0  0  0  0
   35.7310   22.8750   40.4610 H   0  0  0  0  0  0  0  0  0  0  0  0
   38.1240   22.9940   39.7650 H   0  0  0  0  0  0  0  0  0  0  0  0
   37.9570   24.7600   39.2360 H   0  0  0  0  0  0  0  0  0  0  0  0
   39.5470   32.7580   40.7850 O   0  0  0  0  0  0  0  0  0  0  0  0
   40.6120   33.4760   40.3530 C   0  0  0  0  0  0  0  0  0  0  0  0
   40.7670   34.7250   40.7010 O   0  0  0  0  0  0  0  0  0  0  0  0
   42.6610   32.3000   39.4960 C   0  0  1  0  0  3  0  0  0  0  0  0
   41.8800   33.6070   39.5780 C   0  0  1  0  0  3  0  0  0  0  0  0
   41.6170   33.8960   38.2330 O   0  0  0  0  0  0  0  0  0  0  0  0
   42.6730   34.6060   37.7120 C   0  0  0  0  0  2  0  0  0  0  0  0
   43.9250   33.7690   37.9020 C   0  0  1  0  0  3  0  0  0  0  0  0
   43.5850   32.3360   38.2980 C   0  0  2  0  0  3  0  0  0  0  0  0
   43.2930   31.9740   40.6690 O   0  0  0  0  0  0  0  0  0  0  0  0
   42.8300   31.2120   41.1360 H   0  0  0  0  0  0  0  0  0  0  0  0
   44.6910   33.7010   36.7420 O   0  0  0  0  0  0  0  0  0  0  0  0
   45.1820   32.8440   36.6610 H   0  0  0  0  0  0  0  0  0  0  0  0
   43.0020   31.7220   37.1950 O   0  0  0  0  0  0  0  0  0  0  0  0
   42.1620   31.2610   37.3880 H   0  0  0  0  0  0  0  0  0  0  0  0
  1  7  1  1  0  0  0
  2  8  1  1  0  0  0
  2 17  1  0  0  0  0
  2  1  1  0  0  0  0
  3  2  1  0  0  0  0
  4 10  1  0  0  0  0
  4  3  1  0  0  0  0
  4  5  1  0  0  0  0
  5 11  1  6  0  0  0
  5 15  1  0  0  0  0
  5  6  1  0  0  0  0
  6 12  1  6  0  0  0
  6  1  1  0  0  0  0
  6 34  1  0  0  0  0
  9  4  1  0  0  0  0
 13  1  1  0  0  0  0
 13 14  1  0  0  0  0
 16 15  1  0  0  0  0
 17 18  1  0  0  0  0
 18 23  1  0  0  0  0
 19 18  2  0  0  0  0
 19 20  1  0  0  0  0
 20 21  2  0  0  0  0
 21 22  1  0  0  0  0
 22 25  1  0  0  0  0
 23 22  2  0  0  0  0
 24 19  1  0  0  0  0
 26 20  1  0  0  0  0
 26 29  1  0  0  0  0
 27 31  1  0  0  0  0
 27 26  1  0  0  0  0
 28 27  1  0  0  0  0
 28 26  1  0  0  0  0
 30 27  1  0  0  0  0
 32 28  1  0  0  0  0
 33 28  1  0  0  0  0
 35 36  2  0  0  0  0
 35 34  1  0  0  0  0
 37 38  1  0  0  0  0
 37 43  1  1  0  0  0
 38 35  1  1  0  0  0
 39 38  1  0  0  0  0
 40 41  1  0  0  0  0
 40 39  1  0  0  0  0
 41 45  1  6  0  0  0
 41 42  1  0  0  0  0
 42 47  1  6  0  0  0
 42 37  1  0  0  0  0
 43 44  1  0  0  0  0
 46 45  1  0  0  0  0
 47 48  1  0  0  0  0
M  END
>  <minimizedAffinity>
-6.52255106

$$$$

 OpenBabel03242523563D

 48 51  0  0  1  0  0  0  0  0999 V2000
   37.7110   29.2710   42.3260 C   0  0  1  0  0  0  0  0  0  0  0  0
   39.1890   29.3660   42.6860 C   0  0  1  0  0  0  0  0  0  0  0  0
   39.6360   28.0820   43.0440 O   0  0  0  0  0  0  0  0  0  0  0  0
   38.6690   27.3500   43.7370 C   0  0  0  0  0  0  0  0  0  0  0  0
   37.5090   26.9540   42.8430 C   0  0  2  0  0  0  0  0  0  0  0  0
   37.5260   27.9600   41.6350 C   0  0  1  0  0  0  0  0  0  0  0  0
   37.4710   30.1270   41.6530 H   0  0  0  0  0  0  0  0  0  0  0  0
   39.3800   30.0970   43.4850 H   0  0  0  0  0  0  0  0  0  0  0  0
   39.1640   26.4190   44.0400 H   0  0  0  0  0  0  0  0  0  0  0  0
   38.3530   27.8500   44.6660 H   0  0  0  0  0  0  0  0  0  0  0  0
   37.5970   25.9250   42.4690 H   0  0  0  0  0  0  0  0  0  0  0  0
   38.5000   27.5730   41.1950 H   0  0  0  0  0  0  0  0  0  0  0  0
   36.9120   29.3400   43.4760 O   0  0  0  0  0  0  0  0  0  0  0  0
   36.1690   29.9730   43.3390 H   0  0  0  0  0  0  0  0  0  0  0  0
   36.3130   27.1990   43.5010 O   0  0  0  0  0  0  0  0  0  0  0  0
   35.6520   26.4950   43.3930 H   0  0  0  0  0  0  0  0  0  0  0  0
   39.8450   29.6200   41.4740 O   0  0  0  0  0  0  0  0  0  0  0  0
   39.8160   30.7840   40.8170 C   0  0  0  0  0  0  0  0  0  0  0  0
   40.3000   30.8960   39.5040 C   0  0  0  0  0  0  0  0  0  0  0  0
   40.2380   32.1320   38.8840 C   0  0  0  0  0  0  0  0  0  0  0  0
   39.7050   33.2120   39.5690 N   0  0  0  0  0  0  0  0  0  0  0  0
   39.2500   33.0690   40.8310 C   0  0  0  0  0  0  0  0  0  0  0  0
   39.3020   31.8640   41.4560 N   0  0  0  0  0  0  0  0  0  0  0  0
   40.7120   30.0480   38.9820 H   0  0  0  0  0  0  0  0  0  0  0  0
   38.8430   33.9190   41.3370 H   0  0  0  0  0  0  0  0  0  0  0  0
   40.7370   32.3270   37.4840 C   0  0  0  0  0  0  0  0  0  0  0  0
   42.1010   32.9980   37.3400 C   0  0  0  0  0  0  0  0  0  0  0  0
   41.8150   31.5460   36.9740 C   0  0  0  0  0  0  0  0  0  0  0  0
   39.9850   32.8700   36.8500 H   0  0  0  0  0  0  0  0  0  0  0  0
   42.6680   33.0930   38.3060 H   0  0  0  0  0  0  0  0  0  0  0  0
   42.2920   33.7210   36.5510 H   0  0  0  0  0  0  0  0  0  0  0  0
   41.8660   31.3570   35.8800 H   0  0  0  0  0  0  0  0  0  0  0  0
   42.2260   30.7330   37.5850 H   0  0  0  0  0  0  0  0  0  0  0  0
   36.3830   27.7860   40.9480 O   0  0  0  0  0  0  0  0  0  0  0  0
   35.9000   28.5150   39.9120 C   0  0  0  0  0  0  0  0  0  0  0  0
   34.7730   29.1650   40.0150 O   0  0  0  0  0  0  0  0  0  0  0  0
   37.0410   30.1380   38.3700 C   0  0  1  0  0  3  0  0  0  0  0  0
   35.9960   29.0380   38.5180 C   0  0  1  0  0  3  0  0  0  0  0  0
   36.4600   28.0480   37.6440 O   0  0  0  0  0  0  0  0  0  0  0  0
   35.9630   28.2940   36.3850 C   0  0  0  0  0  2  0  0  0  0  0  0
   36.4040   29.6900   35.9840 C   0  0  1  0  0  3  0  0  0  0  0  0
   37.4770   30.2290   36.9230 C   0  0  2  0  0  3  0  0  0  0  0  0
   36.6420   31.3390   38.9000 O   0  0  0  0  0  0  0  0  0  0  0  0
   37.1240   31.5380   39.7610 H   0  0  0  0  0  0  0  0  0  0  0  0
   36.9340   29.7230   34.6970 O   0  0  0  0  0  0  0  0  0  0  0  0
   37.6360   30.4150   34.5940 H   0  0  0  0  0  0  0  0  0  0  0  0
   38.6380   29.4950   36.7020 O   0  0  0  0  0  0  0  0  0  0  0  0
   39.0540   29.1460   37.5140 H   0  0  0  0  0  0  0  0  0  0  0  0
  1  7  1  6  0  0  0
  1  2  1  0  0  0  0
  1 13  1  0  0  0  0
  2  3  1  0  0  0  0
  2  8  1  1  0  0  0
  3  4  1  0  0  0  0
  4  9  1  0  0  0  0
  4 10  1  0  0  0  0
  5 11  1  6  0  0  0
  5 15  1  0  0  0  0
  5  4  1  0  0  0  0
  6 12  1  6  0  0  0
  6  1  1  0  0  0  0
  6  5  1  0  0  0  0
 14 13  1  0  0  0  0
 16 15  1  0  0  0  0
 17  2  1  0  0  0  0
 18 23  1  0  0  0  0
 18 17  1  0  0  0  0
 19 18  2  0  0  0  0
 20 19  1  0  0  0  0
 20 21  2  0  0  0  0
 21 22  1  0  0  0  0
 22 25  1  0  0  0  0
 22 23  2  0  0  0  0
 24 19  1  0  0  0  0
 26 20  1  0  0  0  0
 27 26  1  0  0  0  0
 27 30  1  0  0  0  0
 28 27  1  0  0  0  0
 28 26  1  0  0  0  0
 28 33  1  0  0  0  0
 29 26  1  0  0  0  0
 31 27  1  0  0  0  0
 32 28  1  0  0  0  0
 34  6  1  0  0  0  0
 35 36  2  0  0  0  0
 35 34  1  0  0  0  0
 37 38  1  0  0  0  0
 37 43  1  6  0  0  0
 38 35  1  1  0  0  0
 39 38  1  0  0  0  0
 40 39  1  0  0  0  0
 41 45  1  6  0  0  0
 41 40  1  0  0  0  0
 41 42  1  0  0  0  0
 42 47  1  1  0  0  0
 42 37  1  0  0  0  0
 43 44  1  0  0  0  0
 46 45  1  0  0  0  0
 47 48  1  0  0  0  0
M  END
>  <minimizedAffinity>
-6.48310757

$$$$
