REMARK  Name = 
REMARK  11 active torsions:
REMARK  status: ('A' for Active; 'I' for Inactive)
REMARK    1  A    between atoms: C_1  and  O_7
REMARK    2  A    between atoms: C_2  and  O_9
REMARK    3  A    between atoms: C_5  and  O_8
REMARK    4  A    between atoms: C_6  and  O_19
REMARK    5  A    between atoms: O_9  and  C_10
REMARK    6  A    between atoms: C_12  and  C_16
REMARK    7  A    between atoms: O_19  and  C_20
REMARK    8  A    between atoms: C_20  and  C_39
REMARK    9  A    between atoms: O_37  and  C_38
REMARK   10  A    between atoms: C_42  and  O_43
REMARK   11  A    between atoms: C_44  and  O_45
REMARK                            x       y       z     vdW  Elec       q    Type
REMARK                         _______ _______ _______ _____ _____    ______ ____
ROOT
ATOM      1  C   UNL     1      42.829  34.478  38.778  0.00  0.00    +0.000 C 
ATOM      2  C   UNL     1      42.955  35.166  40.132  0.00  0.00    +0.000 C 
ATOM      3  O   UNL     1      41.660  35.382  40.636  0.00  0.00    +0.000 OA
ATOM      4  C   UNL     1      40.741  35.704  39.635  0.00  0.00    +0.000 C 
ATOM      5  C   UNL     1      40.447  34.521  38.733  0.00  0.00    +0.000 C 
ATOM      6  C   UNL     1      41.669  33.543  38.884  0.00  0.00    +0.000 C 
ATOM      7  H   UNL     1      43.781  33.930  38.587  0.00  0.00    +0.000 HD
ATOM      8  H   UNL     1      43.527  36.104  40.074  0.00  0.00    +0.000 HD
ATOM      9  H   UNL     1      39.806  35.940  40.158  0.00  0.00    +0.000 HD
ATOM     10  H   UNL     1      41.026  36.614  39.083  0.00  0.00    +0.000 HD
ATOM     11  H   UNL     1      39.520  34.000  39.008  0.00  0.00    +0.000 HD
ATOM     12  H   UNL     1      41.445  33.268  39.964  0.00  0.00    +0.000 HD
ENDROOT
BRANCH   1  13
ATOM     13  O   UNL     1      42.615  35.416  37.759  0.00  0.00    +0.000 OA
ATOM     14  H   UNL     1      43.209  35.232  36.994  0.00  0.00    +0.000 HD
ENDBRANCH   1  13
BRANCH   5  15
ATOM     15  O   UNL     1      40.474  34.931  37.408  0.00  0.00    +0.000 OA
ATOM     16  H   UNL     1      39.760  34.557  36.865  0.00  0.00    +0.000 HD
ENDBRANCH   5  15
BRANCH   2  17
ATOM     17  O   UNL     1      43.487  34.193  40.989  0.00  0.00    +0.000 OA
BRANCH  17  18
ATOM     18  C   UNL     1      44.604  34.336  41.710  0.00  0.00    +0.000 A 
ATOM     19  C   UNL     1      45.861  34.453  41.096  0.00  0.00    +0.000 A 
ATOM     20  C   UNL     1      46.975  34.599  41.905  0.00  0.00    +0.000 A 
ATOM     21  N   UNL     1      46.820  34.626  43.281  0.00  0.00    +0.000 NA
ATOM     22  C   UNL     1      45.596  34.510  43.837  0.00  0.00    +0.000 A 
ATOM     23  N   UNL     1      44.491  34.366  43.061  0.00  0.00    +0.000 NA
ATOM     24  H   UNL     1      45.968  34.431  40.025  0.00  0.00    +0.000 HD
ATOM     25  H   UNL     1      45.505  34.534  44.903  0.00  0.00    +0.000 HD
BRANCH  20  26
ATOM     26  C   UNL     1      48.349  34.729  41.320  0.00  0.00    +0.000 C 
ATOM     27  C   UNL     1      49.062  36.058  41.558  0.00  0.00    +0.000 C 
ATOM     28  C   UNL     1      49.505  34.728  42.154  0.00  0.00    +0.000 C 
ATOM     29  H   UNL     1      48.353  34.495  40.221  0.00  0.00    +0.000 HD
ATOM     30  H   UNL     1      48.556  36.719  42.314  0.00  0.00    +0.000 HD
ATOM     31  H   UNL     1      49.662  36.523  40.780  0.00  0.00    +0.000 HD
ATOM     32  H   UNL     1      50.467  34.363  41.733  0.00  0.00    +0.000 HD
ATOM     33  H   UNL     1      49.392  34.540  43.229  0.00  0.00    +0.000 HD
ENDBRANCH  20  26
ENDBRANCH  17  18
ENDBRANCH   2  17
BRANCH   6  34
ATOM     34  O   UNL     1      41.553  32.601  37.931  0.00  0.00    +0.000 OA
BRANCH  34  35
ATOM     35  C   UNL     1      40.904  31.413  37.992  0.00  0.00    +0.000 C 
ATOM     36  O   UNL     1      39.667  31.301  37.590  0.00  0.00    +0.000 OA
BRANCH  35  38
ATOM     37  C   UNL     1      40.692  29.076  37.092  0.00  0.00    +0.000 C 
ATOM     38  C   UNL     1      40.855  29.959  38.324  0.00  0.00    +0.000 C 
ATOM     39  O   UNL     1      42.075  29.526  38.856  0.00  0.00    +0.000 OA
ATOM     40  C   UNL     1      41.845  28.464  39.698  0.00  0.00    +0.000 C 
ATOM     41  C   UNL     1      41.137  27.388  38.895  0.00  0.00    +0.000 C 
ATOM     42  C   UNL     1      41.191  27.681  37.399  0.00  0.00    +0.000 C 
BRANCH  37  43
ATOM     43  O   UNL     1      39.422  29.104  36.571  0.00  0.00    +0.000 OA
ATOM     44  H   UNL     1      39.388  29.631  35.714  0.00  0.00    +0.000 HD
ENDBRANCH  37  43
BRANCH  41  45
ATOM     45  O   UNL     1      41.706  26.131  39.084  0.00  0.00    +0.000 OA
ATOM     46  H   UNL     1      41.632  25.556  38.282  0.00  0.00    +0.000 HD
ENDBRANCH  41  45
BRANCH  42  47
ATOM     47  O   UNL     1      42.509  27.517  36.985  0.00  0.00    +0.000 OA
ATOM     48  H   UNL     1      42.862  28.263  36.462  0.00  0.00    +0.000 HD
ENDBRANCH  42  47
ENDBRANCH  35  38
ENDBRANCH  34  35
ENDBRANCH   6  34
TORSDOF 11
