
     RDKit          3D

 35 36  0  0  0  0  0  0  0  0999 V2000
   46.1320   35.2849   42.6980 C   0  0  0  0  0  0  0  0  0  0  0  0
   46.6870   34.1758   43.3479 C   0  0  0  0  0  0  0  0  0  0  0  0
   46.2024   33.8348   44.6084 C   0  0  0  0  0  0  0  0  0  0  0  0
   45.2124   34.5953   45.1491 N   0  0  0  0  0  0  0  0  0  0  0  0
   44.7033   35.6534   44.4960 C   0  0  0  0  0  0  0  0  0  0  0  0
   45.1609   35.9910   43.2841 N   0  0  0  0  0  0  0  0  0  0  0  0
   47.7040   33.4660   42.6926 O   0  0  0  0  0  0  0  0  0  0  0  0
   49.5420   35.3659   42.7839 O   0  0  0  0  0  0  0  0  0  0  0  0
   48.9721   34.3079   41.9065 P   0  0  1  0  0  0  0  0  0  0  0  0
   50.2278   33.2571   41.5074 O   0  0  0  0  0  0  0  0  0  0  0  0
   48.4017   35.0287   40.5067 O   0  0  0  0  0  0  0  0  0  0  0  0
   48.0714   34.3725   39.3635 C   0  0  0  0  0  0  0  0  0  0  0  0
   46.9499   33.7557   39.5057 O   0  0  0  0  0  0  0  0  0  0  0  0
   46.4650   35.5952   41.7258 H   0  0  0  0  0  0  0  0  0  0  0  0
   46.6316   32.9814   45.1050 H   0  0  0  0  0  0  0  0  0  0  0  0
   43.9233   36.2386   44.9416 H   0  0  0  0  0  0  0  0  0  0  0  0
   50.8360   33.7076   40.8698 H   0  0  0  0  0  0  0  0  0  0  0  0
   49.5278   32.2008   37.4221 O   0  0  0  0  0  0  0  0  0  0  0  0
   48.3219   32.2509   38.1173 C   0  0  1  0  0  0  0  0  0  0  0  0
   47.7157   33.6587   38.1142 C   0  0  1  0  0  0  0  0  0  0  0  0
   46.3477   33.6042   37.9954 O   0  0  0  0  0  0  0  0  0  0  0  0
   45.9236   33.1887   36.7422 C   0  0  0  0  0  0  0  0  0  0  0  0
   46.8423   32.1217   36.1817 C   0  0  2  0  0  0  0  0  0  0  0  0
   46.2457   31.3114   35.2471 O   0  0  0  0  0  0  0  0  0  0  0  0
   47.3482   31.3448   37.3971 C   0  0  1  0  0  0  0  0  0  0  0  0
   47.9814   30.1992   36.9081 O   0  0  0  0  0  0  0  0  0  0  0  0
   49.7265   33.0435   36.9695 H   0  0  0  0  0  0  0  0  0  0  0  0
   48.5032   31.9075   39.1562 H   0  0  0  0  0  0  0  0  0  0  0  0
   48.2311   34.1692   37.2563 H   0  0  0  0  0  0  0  0  0  0  0  0
   44.9404   32.6951   36.8849 H   0  0  0  0  0  0  0  0  0  0  0  0
   45.7602   34.0231   36.0262 H   0  0  0  0  0  0  0  0  0  0  0  0
   47.6896   32.6592   35.7137 H   0  0  0  0  0  0  0  0  0  0  0  0
   46.4314   31.6808   34.3496 H   0  0  0  0  0  0  0  0  0  0  0  0
   46.4955   31.1187   38.0458 H   0  0  0  0  0  0  0  0  0  0  0  0
   48.7289   29.9923   37.5028 H   0  0  0  0  0  0  0  0  0  0  0  0
  1  6  2  0
  1  2  1  0
  2  3  2  0
  3  4  1  0
  5  4  2  0
  6  5  1  0
  7  2  1  0
  9  7  1  1
  9  8  2  0
 10  9  1  0
 11  9  1  0
 12 13  2  0
 12 11  1  0
  1 14  1  0
  3 15  1  0
  5 16  1  0
 10 17  1  0
 18 19  1  0
 19 20  1  0
 20 21  1  0
 21 22  1  0
 22 23  1  0
 23 24  1  0
 23 25  1  0
 25 26  1  0
 25 19  1  0
 18 27  1  0
 19 28  1  1
 20 29  1  6
 22 30  1  0
 22 31  1  0
 23 32  1  6
 24 33  1  0
 25 34  1  1
 26 35  1  0
 12 20  1  0
M  ISO  4  14  14  15  14  16  14  17   3
M  END
>  <DihAtoms>  (1) 
12,11,19,18

>  <DihDeg>  (1) 
-121.57062142725867

$$$$
