
     RDKit          3D

 35 36  0  0  0  0  0  0  0  0999 V2000
   46.1320   35.2849   42.6980 C   0  0  0  0  0  0  0  0  0  0  0  0
   46.6870   34.1758   43.3479 C   0  0  0  0  0  0  0  0  0  0  0  0
   46.2024   33.8348   44.6084 C   0  0  0  0  0  0  0  0  0  0  0  0
   45.2124   34.5953   45.1491 N   0  0  0  0  0  0  0  0  0  0  0  0
   44.7033   35.6534   44.4960 C   0  0  0  0  0  0  0  0  0  0  0  0
   45.1609   35.9910   43.2841 N   0  0  0  0  0  0  0  0  0  0  0  0
   47.7040   33.4660   42.6926 O   0  0  0  0  0  0  0  0  0  0  0  0
   49.5420   35.3659   42.7839 O   0  0  0  0  0  0  0  0  0  0  0  0
   48.9721   34.3079   41.9065 P   0  0  1  0  0  0  0  0  0  0  0  0
   50.2278   33.2571   41.5074 O   0  0  0  0  0  0  0  0  0  0  0  0
   48.4017   35.0287   40.5067 O   0  0  0  0  0  0  0  0  0  0  0  0
   48.0714   34.3725   39.3635 C   0  0  0  0  0  0  0  0  0  0  0  0
   46.9499   33.7557   39.5057 O   0  0  0  0  0  0  0  0  0  0  0  0
   46.4650   35.5952   41.7258 H   0  0  0  0  0  0  0  0  0  0  0  0
   46.6316   32.9814   45.1050 H   0  0  0  0  0  0  0  0  0  0  0  0
   43.9233   36.2386   44.9416 H   0  0  0  0  0  0  0  0  0  0  0  0
   50.8360   33.7076   40.8698 H   0  0  0  0  0  0  0  0  0  0  0  0
   45.7279   32.3065   38.4435 O   0  0  0  0  0  0  0  0  0  0  0  0
   46.1929   33.5379   37.9881 C   0  0  1  0  0  0  0  0  0  0  0  0
   47.7157   33.6587   38.1142 C   0  0  1  0  0  0  0  0  0  0  0  0
   48.2458   34.3313   37.0395 O   0  0  0  0  0  0  0  0  0  0  0  0
   48.1883   33.6071   35.8583 C   0  0  0  0  0  0  0  0  0  0  0  0
   46.9081   32.8003   35.7752 C   0  0  2  0  0  0  0  0  0  0  0  0
   46.5291   32.4922   34.4917 O   0  0  0  0  0  0  0  0  0  0  0  0
   45.8590   33.6295   36.5158 C   0  0  1  0  0  0  0  0  0  0  0  0
   44.6178   33.0519   36.2358 O   0  0  0  0  0  0  0  0  0  0  0  0
   46.4584   31.6982   38.6687 H   0  0  0  0  0  0  0  0  0  0  0  0
   45.6897   34.3378   38.5688 H   0  0  0  0  0  0  0  0  0  0  0  0
   48.0611   32.5935   38.2049 H   0  0  0  0  0  0  0  0  0  0  0  0
   48.1328   34.3460   35.0327 H   0  0  0  0  0  0  0  0  0  0  0  0
   49.0910   32.9864   35.6702 H   0  0  0  0  0  0  0  0  0  0  0  0
   47.0964   31.8647   36.3365 H   0  0  0  0  0  0  0  0  0  0  0  0
   46.8880   31.5997   34.2660 H   0  0  0  0  0  0  0  0  0  0  0  0
   45.9337   34.6683   36.1776 H   0  0  0  0  0  0  0  0  0  0  0  0
   44.0542   33.1530   37.0279 H   0  0  0  0  0  0  0  0  0  0  0  0
  1  6  2  0
  1  2  1  0
  2  3  2  0
  3  4  1  0
  5  4  2  0
  6  5  1  0
  7  2  1  0
  9  7  1  1
  9  8  2  0
 10  9  1  0
 11  9  1  0
 12 13  2  0
 12 11  1  0
  1 14  1  0
  3 15  1  0
  5 16  1  0
 10 17  1  0
 18 19  1  0
 19 20  1  0
 20 21  1  0
 21 22  1  0
 22 23  1  0
 23 24  1  0
 23 25  1  0
 25 26  1  0
 25 19  1  0
 18 27  1  0
 19 28  1  1
 20 29  1  1
 22 30  1  0
 22 31  1  0
 23 32  1  1
 24 33  1  0
 25 34  1  6
 26 35  1  0
 12 20  1  0
M  ISO  4  14  14  15  14  16  14  17   3
M  END
>  <DihAtoms>  (1) 
12,11,19,18

>  <DihDeg>  (1) 
-121.57062142725867

$$$$
