
 OpenBabel03242514323D

 29 31  0  0  1  0  0  0  0  0999 V2000
   48.4470   34.8160   40.5400 O   0  0  0  0  0  0  0  0  0  0  0  0
   49.6100   35.4050   42.7530 O   0  0  0  0  0  0  0  0  0  0  0  0
   49.0730   34.2490   41.9860 P   0  0  2  0  0  0  0  0  0  0  0  0
   50.3680   33.2210   41.6550 O   0  0  0  0  0  0  0  0  0  0  0  0
   50.9440   33.6390   40.9670 H   0  0  0  0  0  0  0  0  0  0  0  0
   47.8580   33.4270   42.8710 O   0  0  0  0  0  0  0  0  0  0  0  0
   46.2640   35.2190   42.7070 C   0  0  0  0  0  0  0  0  0  0  0  0
   46.7890   34.1420   43.4310 C   0  0  0  0  0  0  0  0  0  0  0  0
   46.2260   33.8370   44.6680 C   0  0  0  0  0  0  0  0  0  0  0  0
   45.1920   34.5980   45.1150 N   0  0  0  0  0  0  0  0  0  0  0  0
   44.7130   35.6250   44.3920 C   0  0  0  0  0  0  0  0  0  0  0  0
   45.2460   35.9290   43.2020 N   0  0  0  0  0  0  0  0  0  0  0  0
   46.6570   35.5010   41.7490 H   0  0  0  0  0  0  0  0  0  0  0  0
   46.6340   33.0070   45.2220 H   0  0  0  0  0  0  0  0  0  0  0  0
   43.8960   36.2130   44.7650 H   0  0  0  0  0  0  0  0  0  0  0  0
   48.2370   34.0650   39.4270 C   0  0  1  0  0  3  0  0  0  0  0  0
   46.9940   34.0900   39.0930 O   0  0  0  0  0  0  0  0  0  0  0  0
   46.5430   32.8240   38.1200 C   0  0  1  0  0  3  0  0  0  0  0  0
   48.0140   33.2440   38.2120 C   0  0  2  0  0  0  0  0  0  0  0  0
   48.3910   33.9630   37.1030 O   0  0  0  0  0  0  0  0  0  0  0  0
   48.4630   33.1920   35.9520 C   0  0  0  0  0  2  0  0  0  0  0  0
   47.3630   32.1500   35.9230 C   0  0  1  0  0  3  0  0  0  0  0  0
   46.1810   32.7890   36.6510 C   0  0  1  0  0  3  0  0  0  0  0  0
   46.3310   31.5460   38.6300 O   0  0  0  0  0  0  0  0  0  0  0  0
   47.1690   31.1010   38.8660 H   0  0  0  0  0  0  0  0  0  0  0  0
   47.0380   31.7210   34.6600 O   0  0  0  0  0  0  0  0  0  0  0  0
   47.5620   30.9060   34.4630 H   0  0  0  0  0  0  0  0  0  0  0  0
   45.0740   31.9700   36.4170 O   0  0  0  0  0  0  0  0  0  0  0  0
   44.5100   31.9920   37.2150 H   0  0  0  0  0  0  0  0  0  0  0  0
  1  3  1  0  0  0  0
  3  2  2  1  0  0  0
  3  6  1  0  0  0  0
  4  3  1  0  0  0  0
  5  4  1  0  0  0  0
  6  8  1  0  0  0  0
  7 12  2  0  0  0  0
  7  8  1  0  0  0  0
  8  9  2  0  0  0  0
  9 10  1  0  0  0  0
  9 14  1  0  0  0  0
 11 15  1  0  0  0  0
 11 10  2  0  0  0  0
 12 11  1  0  0  0  0
 13  7  1  0  0  0  0
 16  1  1  6  0  0  0
 17 16  1  0  0  0  0
 18 19  1  0  0  0  0
 18 24  1  6  0  0  0
 19 20  1  6  0  0  0
 19 17  1  0  0  0  0
 19 16  1  0  0  0  0
 21 20  1  0  0  0  0
 22 26  1  6  0  0  0
 22 21  1  0  0  0  0
 22 23  1  0  0  0  0
 23 28  1  1  0  0  0
 23 18  1  0  0  0  0
 24 25  1  0  0  0  0
 27 26  1  0  0  0  0
 28 29  1  0  0  0  0
M  END
>  <minimizedAffinity>
-4.74590731

>  <minimizedRMSD>
0.637986481

$$$$
