
     RDKit          3D

 35 36  0  0  0  0  0  0  0  0999 V2000
   46.1320   35.2849   42.6980 C   0  0  0  0  0  0  0  0  0  0  0  0
   46.6870   34.1758   43.3479 C   0  0  0  0  0  0  0  0  0  0  0  0
   46.2024   33.8348   44.6084 C   0  0  0  0  0  0  0  0  0  0  0  0
   45.2124   34.5953   45.1491 N   0  0  0  0  0  0  0  0  0  0  0  0
   44.7033   35.6534   44.4960 C   0  0  0  0  0  0  0  0  0  0  0  0
   45.1609   35.9910   43.2841 N   0  0  0  0  0  0  0  0  0  0  0  0
   47.7040   33.4660   42.6926 O   0  0  0  0  0  0  0  0  0  0  0  0
   49.5420   35.3659   42.7839 O   0  0  0  0  0  0  0  0  0  0  0  0
   48.9721   34.3079   41.9065 P   0  0  1  0  0  0  0  0  0  0  0  0
   50.2278   33.2571   41.5074 O   0  0  0  0  0  0  0  0  0  0  0  0
   48.4017   35.0287   40.5067 O   0  0  0  0  0  0  0  0  0  0  0  0
   48.0714   34.3725   39.3635 C   0  0  0  0  0  0  0  0  0  0  0  0
   46.9499   33.7557   39.5057 O   0  0  0  0  0  0  0  0  0  0  0  0
   46.4650   35.5952   41.7258 H   0  0  0  0  0  0  0  0  0  0  0  0
   46.6316   32.9814   45.1050 H   0  0  0  0  0  0  0  0  0  0  0  0
   43.9233   36.2386   44.9416 H   0  0  0  0  0  0  0  0  0  0  0  0
   50.8360   33.7076   40.8698 H   0  0  0  0  0  0  0  0  0  0  0  0
   46.1247   31.8846   38.5717 O   0  0  0  0  0  0  0  0  0  0  0  0
   46.2511   33.2090   38.1595 C   0  0  1  0  0  0  0  0  0  0  0  0
   47.7157   33.6587   38.1142 C   0  0  1  0  0  0  0  0  0  0  0  0
   47.9433   34.4834   37.0388 O   0  0  0  0  0  0  0  0  0  0  0  0
   47.8874   33.8223   35.8210 C   0  0  0  0  0  0  0  0  0  0  0  0
   46.8103   32.7563   35.8282 C   0  0  2  0  0  0  0  0  0  0  0  0
   46.3406   32.4341   34.5786 O   0  0  0  0  0  0  0  0  0  0  0  0
   45.7146   33.2951   36.7480 C   0  0  1  0  0  0  0  0  0  0  0  0
   44.6001   32.4705   36.5731 O   0  0  0  0  0  0  0  0  0  0  0  0
   46.9917   31.4434   38.6624 H   0  0  0  0  0  0  0  0  0  0  0  0
   45.6690   33.8481   38.8544 H   0  0  0  0  0  0  0  0  0  0  0  0
   48.2902   32.6937   38.0824 H   0  0  0  0  0  0  0  0  0  0  0  0
   47.5669   34.5694   35.0662 H   0  0  0  0  0  0  0  0  0  0  0  0
   48.8693   33.4275   35.4813 H   0  0  0  0  0  0  0  0  0  0  0  0
   47.2668   31.8599   36.2908 H   0  0  0  0  0  0  0  0  0  0  0  0
   46.8495   31.6556   34.2450 H   0  0  0  0  0  0  0  0  0  0  0  0
   45.5199   34.3396   36.4833 H   0  0  0  0  0  0  0  0  0  0  0  0
   44.1372   32.4055   37.4313 H   0  0  0  0  0  0  0  0  0  0  0  0
  1  6  2  0
  1  2  1  0
  2  3  2  0
  3  4  1  0
  5  4  2  0
  6  5  1  0
  7  2  1  0
  9  7  1  1
  9  8  2  0
 10  9  1  0
 11  9  1  0
 12 13  2  0
 12 11  1  0
  1 14  1  0
  3 15  1  0
  5 16  1  0
 10 17  1  0
 18 19  1  0
 19 20  1  0
 20 21  1  0
 21 22  1  0
 22 23  1  0
 23 24  1  0
 23 25  1  0
 25 26  1  0
 25 19  1  0
 18 27  1  0
 19 28  1  1
 20 29  1  6
 22 30  1  0
 22 31  1  0
 23 32  1  1
 24 33  1  0
 25 34  1  6
 26 35  1  0
 12 20  1  0
M  ISO  4  14  14  15  14  16  14  17   3
M  END
>  <DihAtoms>  (1) 
12,11,19,18

>  <DihDeg>  (1) 
-121.57062142725867

$$$$
