
 OpenBabel03242514323D

 29 30  0  0  1  0  0  0  0  0999 V2000
   48.3780   35.1130   40.6830 O   0  0  0  0  0  0  0  0  0  0  0  0
   49.6330   35.2850   42.9170 O   0  0  0  0  0  0  0  0  0  0  0  0
   48.9860   34.2970   42.0120 P   0  0  2  0  0  0  0  0  0  0  0  0
   50.1850   33.2300   41.4950 O   0  0  0  0  0  0  0  0  0  0  0  0
   50.7780   33.6960   40.8550 H   0  0  0  0  0  0  0  0  0  0  0  0
   47.7280   33.4530   42.8110 O   0  0  0  0  0  0  0  0  0  0  0  0
   46.1400   35.2580   42.7670 C   0  0  0  0  0  0  0  0  0  0  0  0
   46.6930   34.1620   43.4400 C   0  0  0  0  0  0  0  0  0  0  0  0
   46.1880   33.8320   44.6950 C   0  0  0  0  0  0  0  0  0  0  0  0
   45.1820   34.5890   45.2090 N   0  0  0  0  0  0  0  0  0  0  0  0
   44.6760   35.6350   44.5340 C   0  0  0  0  0  0  0  0  0  0  0  0
   45.1530   35.9630   43.3270 N   0  0  0  0  0  0  0  0  0  0  0  0
   46.4880   35.5600   41.7970 H   0  0  0  0  0  0  0  0  0  0  0  0
   46.6160   32.9870   45.2090 H   0  0  0  0  0  0  0  0  0  0  0  0
   43.8830   36.2190   44.9590 H   0  0  0  0  0  0  0  0  0  0  0  0
   48.1430   34.5630   39.4630 C   0  0  0  0  0  0  0  0  0  0  0  0
   47.1060   33.8010   39.5030 O   0  0  0  0  0  0  0  0  0  0  0  0
   48.9520   32.9030   37.8160 C   0  0  1  0  0  3  0  0  0  0  0  0
   47.8930   33.9660   38.1290 C   0  0  1  0  0  3  0  0  0  0  0  0
   46.6310   33.4230   38.1030 O   0  0  0  0  0  0  0  0  0  0  0  0
   46.2100   33.0730   36.8290 C   0  0  0  0  0  2  0  0  0  0  0  0
   47.3600   32.5260   36.0080 C   0  0  1  0  0  3  0  0  0  0  0  0
   48.2730   31.8190   37.0100 C   0  0  1  0  0  3  0  0  0  0  0  0
   49.9880   33.4140   37.0360 O   0  0  0  0  0  0  0  0  0  0  0  0
   49.8100   34.3280   36.7410 H   0  0  0  0  0  0  0  0  0  0  0  0
   46.9650   31.7030   34.9810 O   0  0  0  0  0  0  0  0  0  0  0  0
   46.8800   32.2460   34.1600 H   0  0  0  0  0  0  0  0  0  0  0  0
   49.1960   31.0820   36.2630 O   0  0  0  0  0  0  0  0  0  0  0  0
   50.0430   31.0820   36.7510 H   0  0  0  0  0  0  0  0  0  0  0  0
  1  3  1  0  0  0  0
  3  6  1  0  0  0  0
  3  2  2  1  0  0  0
  4  3  1  0  0  0  0
  5  4  1  0  0  0  0
  6  8  1  0  0  0  0
  7 12  2  0  0  0  0
  7  8  1  0  0  0  0
  8  9  2  0  0  0  0
  9 14  1  0  0  0  0
  9 10  1  0  0  0  0
 11 15  1  0  0  0  0
 11 10  2  0  0  0  0
 12 11  1  0  0  0  0
 13  7  1  0  0  0  0
 16 17  2  0  0  0  0
 16  1  1  0  0  0  0
 18 24  1  6  0  0  0
 18 19  1  0  0  0  0
 19 16  1  1  0  0  0
 20 19  1  0  0  0  0
 21 20  1  0  0  0  0
 22 26  1  6  0  0  0
 22 21  1  0  0  0  0
 22 23  1  0  0  0  0
 23 28  1  6  0  0  0
 23 18  1  0  0  0  0
 25 24  1  0  0  0  0
 27 26  1  0  0  0  0
 28 29  1  0  0  0  0
M  END
>  <minimizedAffinity>
-5.29048395

>  <minimizedRMSD>
0.388830423

$$$$
