REMARK  Name = 
REMARK  4 active torsions:
REMARK  status: ('A' for Active; 'I' for Inactive)
REMARK    1  A    between atoms: C_3  and  C_10
REMARK    2  A    between atoms: C_4  and  C_15
REMARK    3  A    between atoms: C_14  and  S_20
REMARK    4  A    between atoms: S_20  and  C_33
REMARK                            x       y       z     vdW  Elec       q    Type
REMARK                         _______ _______ _______ _____ _____    ______ ____
ROOT
ATOM      1  C   UNL     1      47.805  31.875  38.991  0.00  0.00    +0.000 A 
ATOM      2  C   UNL     1      47.238  33.108  38.873  0.00  0.00    +0.000 A 
ATOM      3  C   UNL     1      47.760  34.029  37.981  0.00  0.00    +0.000 A 
ATOM      4  C   UNL     1      48.851  33.702  37.211  0.00  0.00    +0.000 A 
ATOM      5  C   UNL     1      49.460  32.450  37.300  0.00  0.00    +0.000 A 
ATOM      6  C   UNL     1      48.913  31.538  38.210  0.00  0.00    +0.000 A 
ATOM      7  H   UNL     1      47.354  35.004  37.853  0.00  0.00    +0.000 HD
ATOM      8  H   UNL     1      49.340  34.329  36.490  0.00  0.00    +0.000 HD
ATOM      9  H   UNL     1      50.303  32.127  36.738  0.00  0.00    +0.000 HD
ATOM     10  H   UNL     1      49.365  30.547  38.307  0.00  0.00    +0.000 HD
ENDROOT
BRANCH   2  14
ATOM     11 CL   UNL     1      45.286  35.296  43.125  0.00  0.00    +0.000 Cl
ATOM     12  C   UNL     1      45.164  34.545  41.550  0.00  0.00    +0.000 A 
ATOM     13  C   UNL     1      46.274  34.157  40.872  0.00  0.00    +0.000 A 
ATOM     14  C   UNL     1      46.073  33.555  39.640  0.00  0.00    +0.000 A 
ATOM     15  C   UNL     1      44.816  33.359  39.124  0.00  0.00    +0.000 A 
ATOM     16  C   UNL     1      43.720  33.754  39.817  0.00  0.00    +0.000 A 
ATOM     17  C   UNL     1      43.903  34.354  41.046  0.00  0.00    +0.000 A 
ATOM     18  H   UNL     1      44.712  32.881  38.148  0.00  0.00    +0.000 HD
ATOM     19  H   UNL     1      42.750  33.580  39.373  0.00  0.00    +0.000 HD
ATOM     20  H   UNL     1      43.011  34.661  41.582  0.00  0.00    +0.000 HD
BRANCH  13  23
ATOM     21  C   UNL     1      49.542  35.742  41.891  0.00  0.00    +0.000 A 
ATOM     22  C   UNL     1      48.283  35.544  41.313  0.00  0.00    +0.000 A 
ATOM     23  C   UNL     1      47.575  34.372  41.464  0.00  0.00    +0.000 A 
ATOM     24  N   UNL     1      48.201  33.431  42.220  0.00  0.00    +0.000 NA
ATOM     25  C   UNL     1      49.402  33.610  42.776  0.00  0.00    +0.000 A 
ATOM     26  N   UNL     1      50.065  34.759  42.611  0.00  0.00    +0.000 NA
ATOM     27  H   UNL     1      49.977  36.710  41.686  0.00  0.00    +0.000 HD
ATOM     28  H   UNL     1      47.815  36.319  40.716  0.00  0.00    +0.000 HD
ATOM     29  H   UNL     1      49.812  32.796  43.360  0.00  0.00    +0.000 HD
ENDBRANCH  13  23
ENDBRANCH   2  14
BRANCH   1  30
ATOM     30  S   UNL     1      47.169  30.715  40.033  0.00  0.00    +0.000 S 
ATOM     31  O   UNL     1      46.793  29.439  39.312  0.00  0.00    +0.000 OA
ATOM     32  O   UNL     1      48.410  30.270  40.892  0.00  0.00    +0.000 OA
BRANCH  30  33
ATOM     33  C   UNL     1      45.934  31.010  41.192  0.00  0.00    +0.000 A 
ATOM     34  C   UNL     1      45.042  29.967  41.552  0.00  0.00    +0.000 A 
ATOM     35  H   UNL     1      45.023  28.919  41.187  0.00  0.00    +0.000 HD
ATOM     36  C   UNL     1      44.086  30.326  42.471  0.00  0.00    +0.000 A 
ATOM     37  H   UNL     1      43.300  29.758  42.914  0.00  0.00    +0.000 HD
ATOM     38  N   UNL     1      44.391  31.604  42.682  0.00  0.00    +0.000 N 
ATOM     39  H   UNL     1      43.919  32.307  43.327  0.00  0.00    +0.000 HD
ATOM     40  N   UNL     1      45.398  31.958  41.979  0.00  0.00    +0.000 NA
ENDBRANCH  30  33
ENDBRANCH   1  30
TORSDOF 4
