REMARK  Name = 
REMARK  3 active torsions:
REMARK  status: ('A' for Active; 'I' for Inactive)
REMARK    1  A    between atoms: C_1  and  C_7
REMARK    2  A    between atoms: C_7  and  O_9
REMARK    3  A    between atoms: O_9  and  C_13
REMARK                            x       y       z     vdW  Elec       q    Type
REMARK                         _______ _______ _______ _____ _____    ______ ____
ROOT
ATOM      1  C   UNL     1      46.989  34.909  41.951  0.00  0.00    +0.000 C 
ATOM      2  O   UNL     1      48.125  35.397  41.747  0.00  0.00    +0.000 OA
ENDROOT
BRANCH   1   3
ATOM      3  C   UNL     1      46.255  34.881  43.167  0.00  0.00    +0.000 A 
ATOM      4  C   UNL     1      45.332  35.922  43.275  0.00  0.00    +0.000 A 
ATOM      5  C   UNL     1      44.564  35.965  44.454  0.00  0.00    +0.000 A 
ATOM      6  N   UNL     1      44.763  35.003  45.402  0.00  0.00    +0.000 NA
ATOM      7  C   UNL     1      45.679  34.017  45.232  0.00  0.00    +0.000 A 
ATOM      8  N   UNL     1      46.420  33.965  44.110  0.00  0.00    +0.000 NA
ATOM      9  H   UNL     1      45.149  36.696  42.549  0.00  0.00    +0.000 HD
ATOM     10  H   UNL     1      43.826  36.728  44.632  0.00  0.00    +0.000 HD
ATOM     11  H   UNL     1      45.726  33.328  46.066  0.00  0.00    +0.000 HD
ENDBRANCH   1   3
BRANCH   1  12
ATOM     12  O   UNL     1      46.356  34.314  40.849  0.00  0.00    +0.000 OA
BRANCH  12  13
ATOM     13  C   UNL     1      47.026  34.305  39.607  0.00  0.00    +0.000 A 
ATOM     14  C   UNL     1      48.266  34.809  39.274  0.00  0.00    +0.000 A 
ATOM     15  H   UNL     1      48.905  35.307  39.998  0.00  0.00    +0.000 HD
ATOM     16  C   UNL     1      48.432  34.532  37.932  0.00  0.00    +0.000 A 
ATOM     17  H   UNL     1      49.333  34.817  37.384  0.00  0.00    +0.000 HD
ATOM     18  N   UNL     1      47.324  33.882  37.479  0.00  0.00    +0.000 N 
ATOM     19  H   UNL     1      47.297  33.602  36.474  0.00  0.00    +0.000 HD
ATOM     20  N   UNL     1      46.468  33.742  38.494  0.00  0.00    +0.000 NA
ENDBRANCH  12  13
ENDBRANCH   1  12
TORSDOF 3
