
 OpenBabel03252509313D

 26 27  0  0  0  0  0  0  0  0999 V2000
   47.4470   33.3030   44.3310 O   0  0  0  0  0  0  0  0  0  0  0  0
   47.0690   34.2040   43.3370 C   0  0  0  0  0  0  0  0  0  0  0  0
   45.9750   34.3380   43.2700 H   0  0  0  0  0  0  0  0  0  0  0  0
   47.5110   35.1830   43.6390 H   0  0  0  0  0  0  0  0  0  0  0  0
   48.9240   32.3710   40.6740 C   0  0  0  0  0  0  0  0  0  0  0  0
   48.4050   32.7010   41.9490 C   0  0  0  0  0  0  0  0  0  0  0  0
   47.6180   33.8380   42.0390 C   0  0  0  0  0  0  0  0  0  0  0  0
   47.3880   34.5730   40.9060 N   0  0  0  0  0  0  0  0  0  0  0  0
   47.9030   34.2260   39.7000 C   0  0  0  0  0  0  0  0  0  0  0  0
   48.6660   33.1320   39.5920 N   0  0  0  0  0  0  0  0  0  0  0  0
   49.5500   31.4980   40.5140 H   0  0  0  0  0  0  0  0  0  0  0  0
   48.6490   32.0520   42.7800 H   0  0  0  0  0  0  0  0  0  0  0  0
   47.6140   34.9240   38.9250 H   0  0  0  0  0  0  0  0  0  0  0  0
   46.1150   31.1880   45.0830 O   0  0  0  0  0  0  0  0  0  0  0  0
   46.0130   32.6860   45.0050 P   0  0  2  0  0  0  0  0  0  0  0  0
   44.7500   33.2060   44.0290 O   0  0  0  0  0  0  0  0  0  0  0  0
   44.9370   34.0310   43.5370 H   0  0  0  0  0  0  0  0  0  0  0  0
   45.8810   33.2900   46.5670 O   0  0  0  0  0  0  0  0  0  0  0  0
   45.7360   32.4390   47.6560 C   0  0  0  0  0  0  0  0  0  0  0  0
   44.8040   31.6640   48.3390 C   0  0  0  0  0  0  0  0  0  0  0  0
   43.8180   31.7230   47.8770 H   0  0  0  0  0  0  0  0  0  0  0  0
   45.4720   31.0710   49.3960 C   0  0  0  0  0  0  0  0  0  0  0  0
   44.8570   30.4320   50.0180 H   0  0  0  0  0  0  0  0  0  0  0  0
   46.7670   31.4750   49.3550 N   0  0  0  0  0  0  0  0  0  0  0  0
   47.4140   31.1240   50.0790 H   0  0  0  0  0  0  0  0  0  0  0  0
   46.9230   32.2940   48.3120 N   0  0  0  0  0  0  0  0  0  0  0  0
  1 15  1  0  0  0  0
  2  4  1  0  0  0  0
  2  1  1  0  0  0  0
  3  2  1  0  0  0  0
  5  6  1  0  0  0  0
  6  7  2  0  0  0  0
  6 12  1  0  0  0  0
  7  2  1  0  0  0  0
  8  7  1  0  0  0  0
  9  8  2  0  0  0  0
 10  9  1  0  0  0  0
 10  5  2  0  0  0  0
 11  5  1  0  0  0  0
 13  9  1  0  0  0  0
 15 14  2  1  0  0  0
 15 18  1  0  0  0  0
 16 15  1  0  0  0  0
 17 16  1  0  0  0  0
 18 19  1  0  0  0  0
 19 26  2  0  0  0  0
 19 20  1  0  0  0  0
 20 22  2  0  0  0  0
 21 20  1  0  0  0  0
 22 23  1  0  0  0  0
 24 22  1  0  0  0  0
 24 25  1  0  0  0  0
 26 24  1  0  0  0  0
M  END
>  <minimizedAffinity>
-4.45200443

>  <minimizedRMSD>
7.37232018

$$$$
