
 OpenBabel03252506123D

 35 37  0  0  0  0  0  0  0  0999 V2000
   45.0910   33.3180   41.2960 F   0  0  0  0  0  0  0  0  0  0  0  0
   46.2570   33.9310   41.1130 C   0  0  0  0  0  0  0  0  0  0  0  0
   46.7590   34.7510   42.1110 C   0  0  0  0  0  0  0  0  0  0  0  0
   47.9660   35.4210   42.0010 C   0  0  0  0  0  0  0  0  0  0  0  0
   48.7290   35.2820   40.8400 C   0  0  0  0  0  0  0  0  0  0  0  0
   48.1980   34.4560   39.8650 C   0  0  0  0  0  0  0  0  0  0  0  0
   47.0170   33.7930   39.9570 C   0  0  0  0  0  0  0  0  0  0  0  0
   48.2960   36.0540   42.8390 H   0  0  0  0  0  0  0  0  0  0  0  0
   49.6580   35.8210   40.8020 H   0  0  0  0  0  0  0  0  0  0  0  0
   48.8850   34.4260   39.0260 H   0  0  0  0  0  0  0  0  0  0  0  0
   45.4360   34.1710   45.4900 C   0  0  0  0  0  0  0  0  0  0  0  0
   44.5780   35.2820   45.6570 C   0  0  0  0  0  0  0  0  0  0  0  0
   44.4600   36.2250   44.6070 C   0  0  0  0  0  0  0  0  0  0  0  0
   45.1990   35.9900   43.4810 N   0  0  0  0  0  0  0  0  0  0  0  0
   45.9980   34.9300   43.3570 C   0  0  0  0  0  0  0  0  0  0  0  0
   46.1110   34.0370   44.3500 N   0  0  0  0  0  0  0  0  0  0  0  0
   44.0100   35.4390   46.5550 H   0  0  0  0  0  0  0  0  0  0  0  0
   43.8120   37.0870   44.7040 H   0  0  0  0  0  0  0  0  0  0  0  0
   45.5420   33.2380   46.5490 N   0  0  0  0  0  0  0  0  0  0  0  0
   46.0180   32.3290   46.3470 H   0  0  0  0  0  0  0  0  0  0  0  0
   45.1560   33.4600   47.4930 H   0  0  0  0  0  0  0  0  0  0  0  0
   46.5820   33.0000   38.9290 O   0  0  0  0  0  0  0  0  0  0  0  0
   47.8440   34.2890   36.9850 O   0  0  0  0  0  0  0  0  0  0  0  0
   46.7170   33.3470   37.2770 P   0  0  2  0  0  0  0  0  0  0  0  0
   45.2260   34.0200   36.7690 O   0  0  0  0  0  0  0  0  0  0  0  0
   45.4030   34.9320   36.4860 H   0  0  0  0  0  0  0  0  0  0  0  0
   46.9050   31.9570   36.3290 O   0  0  0  0  0  0  0  0  0  0  0  0
   45.9060   31.5670   35.4470 C   0  0  0  0  0  0  0  0  0  0  0  0
   45.2250   30.3710   35.3830 C   0  0  0  0  0  0  0  0  0  0  0  0
   45.4120   29.5530   36.0620 H   0  0  0  0  0  0  0  0  0  0  0  0
   44.3320   30.4740   34.3340 C   0  0  0  0  0  0  0  0  0  0  0  0
   43.6460   29.7030   34.0180 H   0  0  0  0  0  0  0  0  0  0  0  0
   44.4840   31.7110   33.7890 N   0  0  0  0  0  0  0  0  0  0  0  0
   43.9530   32.1210   32.9640 H   0  0  0  0  0  0  0  0  0  0  0  0
   45.4300   32.3660   34.4590 N   0  0  0  0  0  0  0  0  0  0  0  0
  2  1  1  0  0  0  0
  2  3  1  0  0  0  0
  3 15  1  0  0  0  0
  4  3  2  0  0  0  0
  4  8  1  0  0  0  0
  5  4  1  0  0  0  0
  6  7  1  0  0  0  0
  6  5  2  0  0  0  0
  7  2  2  0  0  0  0
  9  5  1  0  0  0  0
 10  6  1  0  0  0  0
 11 12  1  0  0  0  0
 11 19  1  0  0  0  0
 12 17  1  0  0  0  0
 13 18  1  0  0  0  0
 13 12  2  0  0  0  0
 14 13  1  0  0  0  0
 15 14  2  0  0  0  0
 15 16  1  0  0  0  0
 16 11  2  0  0  0  0
 19 21  1  0  0  0  0
 20 19  1  0  0  0  0
 22  7  1  0  0  0  0
 24 23  2  6  0  0  0
 24 22  1  0  0  0  0
 25 24  1  0  0  0  0
 26 25  1  0  0  0  0
 27 24  1  0  0  0  0
 28 27  1  0  0  0  0
 29 28  1  0  0  0  0
 29 30  1  0  0  0  0
 31 29  2  0  0  0  0
 32 31  1  0  0  0  0
 33 31  1  0  0  0  0
 33 35  1  0  0  0  0
 34 33  1  0  0  0  0
 35 28  2  0  0  0  0
M  END
>  <minimizedAffinity>
-6.82802105

>  <minimizedRMSD>
1.66706657

$$$$
