
 OpenBabel03252500543D

 29 30  0  0  0  0  0  0  0  0999 V2000
   46.6240   34.3270   42.9150 C   0  0  0  0  0  0  0  0  0  0  0  0
   45.3780   34.6780   43.3980 C   0  0  0  0  0  0  0  0  0  0  0  0
   45.0680   34.2990   44.7150 C   0  0  0  0  0  0  0  0  0  0  0  0
   45.9960   33.6240   45.4150 N   0  0  0  0  0  0  0  0  0  0  0  0
   47.2000   33.2980   44.9170 C   0  0  0  0  0  0  0  0  0  0  0  0
   47.5050   33.6530   43.6670 N   0  0  0  0  0  0  0  0  0  0  0  0
   44.0880   34.5840   45.0720 H   0  0  0  0  0  0  0  0  0  0  0  0
   47.8950   32.7460   45.5580 H   0  0  0  0  0  0  0  0  0  0  0  0
   47.0270   34.6830   41.5530 C   0  0  0  0  0  0  0  0  0  0  0  0
   46.2660   35.3130   41.0430 H   0  0  0  0  0  0  0  0  0  0  0  0
   47.1230   33.7500   40.9600 H   0  0  0  0  0  0  0  0  0  0  0  0
   48.3900   35.3350   41.5910 C   0  0  0  0  0  0  0  0  0  0  0  0
   49.0820   34.8600   40.8450 H   0  0  0  0  0  0  0  0  0  0  0  0
   48.2410   36.4040   41.2680 H   0  0  0  0  0  0  0  0  0  0  0  0
   48.8420   35.3630   42.5970 H   0  0  0  0  0  0  0  0  0  0  0  0
   44.5420   35.3720   42.5430 O   0  0  0  0  0  0  0  0  0  0  0  0
   43.6440   34.8360   40.1300 O   0  0  0  0  0  0  0  0  0  0  0  0
   43.2890   34.7400   41.6120 P   0  0  1  0  0  0  0  0  0  0  0  0
   43.1460   33.0790   41.9970 O   0  0  0  0  0  0  0  0  0  0  0  0
   42.3490   32.6660   41.5820 H   0  0  0  0  0  0  0  0  0  0  0  0
   41.7940   35.4710   41.9160 O   0  0  0  0  0  0  0  0  0  0  0  0
   40.7200   35.2030   41.0790 C   0  0  0  0  0  0  0  0  0  0  0  0
   40.0460   34.0370   41.4570 C   0  0  0  0  0  0  0  0  0  0  0  0
   40.1300   33.2660   42.2390 H   0  0  0  0  0  0  0  0  0  0  0  0
   38.9850   33.8320   40.5750 C   0  0  0  0  0  0  0  0  0  0  0  0
   38.1980   33.1140   40.4350 H   0  0  0  0  0  0  0  0  0  0  0  0
   39.0620   34.8790   39.7050 N   0  0  0  0  0  0  0  0  0  0  0  0
   38.5310   35.2240   38.8590 H   0  0  0  0  0  0  0  0  0  0  0  0
   40.0780   35.6710   40.0090 N   0  0  0  0  0  0  0  0  0  0  0  0
  1  2  2  0  0  0  0
  1  6  1  0  0  0  0
  2  3  1  0  0  0  0
  3  7  1  0  0  0  0
  3  4  2  0  0  0  0
  5  4  1  0  0  0  0
  5  8  1  0  0  0  0
  6  5  2  0  0  0  0
  9 12  1  0  0  0  0
  9  1  1  0  0  0  0
 10  9  1  0  0  0  0
 11  9  1  0  0  0  0
 12 15  1  0  0  0  0
 13 12  1  0  0  0  0
 14 12  1  0  0  0  0
 16  2  1  0  0  0  0
 18 17  2  6  0  0  0
 18 21  1  0  0  0  0
 18 19  1  0  0  0  0
 18 16  1  0  0  0  0
 20 19  1  0  0  0  0
 22 23  1  0  0  0  0
 22 21  1  0  0  0  0
 23 24  1  0  0  0  0
 25 23  2  0  0  0  0
 26 25  1  0  0  0  0
 27 29  1  0  0  0  0
 27 25  1  0  0  0  0
 28 27  1  0  0  0  0
 29 22  2  0  0  0  0
M  END
>  <minimizedAffinity>
-4.67572784

>  <minimizedRMSD>
0.972851694

$$$$
