
 OpenBabel03242514213D

 48 50  0  0  0  0  0  0  0  0999 V2000
   38.8800   25.7380   42.4260 C   0  0  0  0  0  0  0  0  0  0  0  0
   39.0770   26.7940   43.2830 C   0  0  0  0  0  0  0  0  0  0  0  0
   40.2840   26.8660   43.9140 C   0  0  0  0  0  0  0  0  0  0  0  0
   41.2240   25.9230   43.6800 N   0  0  0  0  0  0  0  0  0  0  0  0
   41.0360   24.9080   42.8540 C   0  0  0  0  0  0  0  0  0  0  0  0
   39.8650   24.8290   42.2390 N   0  0  0  0  0  0  0  0  0  0  0  0
   40.6340   27.6070   44.6190 H   0  0  0  0  0  0  0  0  0  0  0  0
   41.7560   24.1250   42.6290 H   0  0  0  0  0  0  0  0  0  0  0  0
   37.6070   25.6960   41.6950 C   0  0  0  0  0  0  0  0  0  0  0  0
   36.9140   24.3750   41.8780 C   0  0  0  0  0  0  0  0  0  0  0  0
   36.7950   23.6300   40.6230 C   0  0  0  0  0  0  0  0  0  0  0  0
   36.0890   24.4390   39.5540 C   0  0  0  0  0  0  0  0  0  0  0  0
   36.5610   25.8390   39.4680 C   0  0  0  0  0  0  0  0  0  0  0  0
   37.8240   26.0560   40.2710 C   0  0  0  0  0  0  0  0  0  0  0  0
   36.9060   26.4020   42.1800 H   0  0  0  0  0  0  0  0  0  0  0  0
   35.9120   24.4770   42.3320 H   0  0  0  0  0  0  0  0  0  0  0  0
   37.5040   23.7790   42.6050 H   0  0  0  0  0  0  0  0  0  0  0  0
   37.8380   23.4620   40.2240 H   0  0  0  0  0  0  0  0  0  0  0  0
   36.2960   22.6630   40.6840 H   0  0  0  0  0  0  0  0  0  0  0  0
   36.1290   23.9130   38.5640 H   0  0  0  0  0  0  0  0  0  0  0  0
   34.9950   24.4390   39.8290 H   0  0  0  0  0  0  0  0  0  0  0  0
   36.7280   26.2280   38.4380 H   0  0  0  0  0  0  0  0  0  0  0  0
   35.8070   26.5460   39.9150 H   0  0  0  0  0  0  0  0  0  0  0  0
   38.1110   27.1270   40.2250 H   0  0  0  0  0  0  0  0  0  0  0  0
   38.6180   25.4030   39.8230 H   0  0  0  0  0  0  0  0  0  0  0  0
   38.2860   27.8080   43.6370 O   0  0  0  0  0  0  0  0  0  0  0  0
   38.1920   29.1190   43.2760 C   0  0  0  0  0  0  0  0  0  0  0  0
   37.4690   29.6150   43.9890 H   0  0  0  0  0  0  0  0  0  0  0  0
   39.0870   29.7460   43.3080 H   0  0  0  0  0  0  0  0  0  0  0  0
   37.5860   29.3480   41.9050 C   0  0  0  0  0  0  0  0  0  0  0  0
   37.7920   28.4350   41.2900 H   0  0  0  0  0  0  0  0  0  0  0  0
   36.4670   29.3710   42.0280 H   0  0  0  0  0  0  0  0  0  0  0  0
   38.1060   30.5300   41.2640 N   0  0  0  0  0  0  0  0  0  0  0  0
   38.6890   30.2240   40.4490 H   0  0  0  0  0  0  0  0  0  0  0  0
   36.7560   31.3550   40.5250 S   0  0  0  0  0  0  0  0  0  0  0  0
   37.0140   32.8250   40.4120 O   0  0  0  0  0  0  0  0  0  0  0  0
   37.3200   33.3990   41.1370 H   0  0  0  0  0  0  0  0  0  0  0  0
   35.5560   31.0940   41.3770 O   0  0  0  0  0  0  0  0  0  0  0  0
   34.9310   30.3520   41.1890 H   0  0  0  0  0  0  0  0  0  0  0  0
   36.4480   30.7260   39.0030 O   0  0  0  0  0  0  0  0  0  0  0  0
   37.5100   30.1200   38.3410 C   0  0  0  0  0  0  0  0  0  0  0  0
   37.9060   28.9070   37.7880 C   0  0  0  0  0  0  0  0  0  0  0  0
   37.1470   28.1400   37.8900 H   0  0  0  0  0  0  0  0  0  0  0  0
   39.1860   29.1030   37.2760 C   0  0  0  0  0  0  0  0  0  0  0  0
   39.6280   28.2330   36.8090 H   0  0  0  0  0  0  0  0  0  0  0  0
   39.5350   30.3810   37.5160 N   0  0  0  0  0  0  0  0  0  0  0  0
   40.4710   30.7180   37.2020 H   0  0  0  0  0  0  0  0  0  0  0  0
   38.5370   30.9970   38.1530 N   0  0  0  0  0  0  0  0  0  0  0  0
  1  2  1  0  0  0  0
  2 26  1  0  0  0  0
  2  3  2  0  0  0  0
  3  7  1  0  0  0  0
  4  3  1  0  0  0  0
  5  4  2  0  0  0  0
  6  1  2  0  0  0  0
  6  5  1  0  0  0  0
  8  5  1  0  0  0  0
  9 10  1  0  0  0  0
  9 15  1  0  0  0  0
  9  1  1  0  0  0  0
 10 16  1  0  0  0  0
 10 17  1  0  0  0  0
 11 19  1  0  0  0  0
 11 10  1  0  0  0  0
 12 21  1  0  0  0  0
 12 11  1  0  0  0  0
 13 12  1  0  0  0  0
 13 23  1  0  0  0  0
 13 14  1  0  0  0  0
 14  9  1  0  0  0  0
 18 11  1  0  0  0  0
 20 12  1  0  0  0  0
 22 13  1  0  0  0  0
 24 14  1  0  0  0  0
 25 14  1  0  0  0  0
 27 29  1  0  0  0  0
 27 26  1  0  0  0  0
 27 28  1  0  0  0  0
 30 32  1  0  0  0  0
 30 27  1  0  0  0  0
 31 30  1  0  0  0  0
 33 30  1  0  0  0  0
 34 33  1  0  0  0  0
 35 33  1  0  0  0  0
 35 38  1  0  0  0  0
 36 35  1  0  0  0  0
 36 37  1  0  0  0  0
 39 38  1  0  0  0  0
 40 35  1  0  0  0  0
 41 40  1  0  0  0  0
 42 43  1  0  0  0  0
 42 41  1  0  0  0  0
 44 46  1  0  0  0  0
 44 42  2  0  0  0  0
 45 44  1  0  0  0  0
 46 48  1  0  0  0  0
 47 46  1  0  0  0  0
 48 41  2  0  0  0  0
M  END
>  <minimizedAffinity>
-5.91545486

$$$$

 OpenBabel03242514213D

 48 50  0  0  0  0  0  0  0  0999 V2000
   38.1770   25.5060   42.1210 C   0  0  0  0  0  0  0  0  0  0  0  0
   38.3850   26.6340   42.8780 C   0  0  0  0  0  0  0  0  0  0  0  0
   39.4810   26.6440   43.6910 C   0  0  0  0  0  0  0  0  0  0  0  0
   40.3060   25.5730   43.7220 N   0  0  0  0  0  0  0  0  0  0  0  0
   40.1070   24.4880   42.9930 C   0  0  0  0  0  0  0  0  0  0  0  0
   39.0430   24.4700   42.2020 N   0  0  0  0  0  0  0  0  0  0  0  0
   39.8180   27.4230   44.3600 H   0  0  0  0  0  0  0  0  0  0  0  0
   40.7370   23.6030   42.9790 H   0  0  0  0  0  0  0  0  0  0  0  0
   37.0370   25.5220   41.1950 C   0  0  0  0  0  0  0  0  0  0  0  0
   36.4260   24.1560   41.0560 C   0  0  0  0  0  0  0  0  0  0  0  0
   36.5560   23.6230   39.6990 C   0  0  0  0  0  0  0  0  0  0  0  0
   35.9620   24.5610   38.6670 C   0  0  0  0  0  0  0  0  0  0  0  0
   36.3340   25.9780   38.8770 C   0  0  0  0  0  0  0  0  0  0  0  0
   37.4400   26.1230   39.8980 C   0  0  0  0  0  0  0  0  0  0  0  0
   36.2190   26.1020   41.6630 H   0  0  0  0  0  0  0  0  0  0  0  0
   35.3620   24.1310   41.3520 H   0  0  0  0  0  0  0  0  0  0  0  0
   36.9420   23.4790   41.7680 H   0  0  0  0  0  0  0  0  0  0  0  0
   37.6570   23.5750   39.4530 H   0  0  0  0  0  0  0  0  0  0  0  0
   36.1280   22.6350   39.5270 H   0  0  0  0  0  0  0  0  0  0  0  0
   36.1920   24.2080   37.6280 H   0  0  0  0  0  0  0  0  0  0  0  0
   34.8420   24.4610   38.7580 H   0  0  0  0  0  0  0  0  0  0  0  0
   36.6270   26.5390   37.9600 H   0  0  0  0  0  0  0  0  0  0  0  0
   35.4700   26.5630   39.2990 H   0  0  0  0  0  0  0  0  0  0  0  0
   37.6490   27.1990   40.0650 H   0  0  0  0  0  0  0  0  0  0  0  0
   38.3400   25.5930   39.4900 H   0  0  0  0  0  0  0  0  0  0  0  0
   37.6980   27.7720   42.9810 O   0  0  0  0  0  0  0  0  0  0  0  0
   38.0020   29.0410   43.3770 C   0  0  0  0  0  0  0  0  0  0  0  0
   37.1130   29.4380   43.9510 H   0  0  0  0  0  0  0  0  0  0  0  0
   38.8560   29.2020   44.0400 H   0  0  0  0  0  0  0  0  0  0  0  0
   38.1850   30.0250   42.2370 C   0  0  0  0  0  0  0  0  0  0  0  0
   37.5780   30.9350   42.4790 H   0  0  0  0  0  0  0  0  0  0  0  0
   39.2550   30.3740   42.2600 H   0  0  0  0  0  0  0  0  0  0  0  0
   37.8010   29.4700   40.9640 N   0  0  0  0  0  0  0  0  0  0  0  0
   37.8500   28.4260   41.0390 H   0  0  0  0  0  0  0  0  0  0  0  0
   36.0980   29.7930   40.7510 S   0  0  0  0  0  0  0  0  0  0  0  0
   35.6970   31.0630   41.4330 O   0  0  0  0  0  0  0  0  0  0  0  0
   35.9050   31.2950   42.3560 H   0  0  0  0  0  0  0  0  0  0  0  0
   35.3510   28.6300   41.3200 O   0  0  0  0  0  0  0  0  0  0  0  0
   35.0600   27.8700   40.7590 H   0  0  0  0  0  0  0  0  0  0  0  0
   35.7210   29.8940   39.1220 O   0  0  0  0  0  0  0  0  0  0  0  0
   36.6110   30.5870   38.3070 C   0  0  0  0  0  0  0  0  0  0  0  0
   37.3130   30.4770   37.1110 C   0  0  0  0  0  0  0  0  0  0  0  0
   37.1270   29.5340   36.6100 H   0  0  0  0  0  0  0  0  0  0  0  0
   38.0370   31.6570   36.9660 C   0  0  0  0  0  0  0  0  0  0  0  0
   38.6390   31.7150   36.0690 H   0  0  0  0  0  0  0  0  0  0  0  0
   37.7750   32.4360   38.0330 N   0  0  0  0  0  0  0  0  0  0  0  0
   38.2320   33.3710   38.1020 H   0  0  0  0  0  0  0  0  0  0  0  0
   36.9220   31.8030   38.8410 N   0  0  0  0  0  0  0  0  0  0  0  0
  1  6  2  0  0  0  0
  1  2  1  0  0  0  0
  2 26  1  0  0  0  0
  2  3  2  0  0  0  0
  3  4  1  0  0  0  0
  3  7  1  0  0  0  0
  5  4  2  0  0  0  0
  6  5  1  0  0  0  0
  8  5  1  0  0  0  0
  9 15  1  0  0  0  0
  9  1  1  0  0  0  0
 10  9  1  0  0  0  0
 10 16  1  0  0  0  0
 10 17  1  0  0  0  0
 11 10  1  0  0  0  0
 12 21  1  0  0  0  0
 12 13  1  0  0  0  0
 12 11  1  0  0  0  0
 13 23  1  0  0  0  0
 13 14  1  0  0  0  0
 14 24  1  0  0  0  0
 14  9  1  0  0  0  0
 18 11  1  0  0  0  0
 19 11  1  0  0  0  0
 20 12  1  0  0  0  0
 22 13  1  0  0  0  0
 25 14  1  0  0  0  0
 26 27  1  0  0  0  0
 27 28  1  0  0  0  0
 27 29  1  0  0  0  0
 30 32  1  0  0  0  0
 30 31  1  0  0  0  0
 30 27  1  0  0  0  0
 33 34  1  0  0  0  0
 33 30  1  0  0  0  0
 35 33  1  0  0  0  0
 35 38  1  0  0  0  0
 35 36  1  0  0  0  0
 36 37  1  0  0  0  0
 39 38  1  0  0  0  0
 40 35  1  0  0  0  0
 41 48  2  0  0  0  0
 41 40  1  0  0  0  0
 42 41  1  0  0  0  0
 43 42  1  0  0  0  0
 44 42  2  0  0  0  0
 44 46  1  0  0  0  0
 45 44  1  0  0  0  0
 46 47  1  0  0  0  0
 46 48  1  0  0  0  0
M  END
>  <minimizedAffinity>
-5.81463575

$$$$

 OpenBabel03242514213D

 48 50  0  0  0  0  0  0  0  0999 V2000
   37.6550   27.7750   39.8500 C   0  0  0  0  0  0  0  0  0  0  0  0
   37.1620   28.5760   38.8480 C   0  0  0  0  0  0  0  0  0  0  0  0
   37.4320   28.2030   37.5630 C   0  0  0  0  0  0  0  0  0  0  0  0
   38.1540   27.0860   37.3240 N   0  0  0  0  0  0  0  0  0  0  0  0
   38.6270   26.3130   38.2880 C   0  0  0  0  0  0  0  0  0  0  0  0
   38.3710   26.6700   39.5380 N   0  0  0  0  0  0  0  0  0  0  0  0
   37.1410   28.6920   36.6440 H   0  0  0  0  0  0  0  0  0  0  0  0
   39.2100   25.4060   38.1510 H   0  0  0  0  0  0  0  0  0  0  0  0
   37.3070   28.1380   41.2300 C   0  0  0  0  0  0  0  0  0  0  0  0
   38.4610   28.8020   41.9270 C   0  0  0  0  0  0  0  0  0  0  0  0
   38.9580   28.0140   43.0570 C   0  0  0  0  0  0  0  0  0  0  0  0
   37.8600   27.7060   44.0540 C   0  0  0  0  0  0  0  0  0  0  0  0
   36.5970   27.2620   43.4210 C   0  0  0  0  0  0  0  0  0  0  0  0
   36.7840   26.9510   41.9530 C   0  0  0  0  0  0  0  0  0  0  0  0
   36.5520   28.9460   41.1960 H   0  0  0  0  0  0  0  0  0  0  0  0
   38.2190   29.8200   42.2790 H   0  0  0  0  0  0  0  0  0  0  0  0
   39.2760   28.9360   41.1860 H   0  0  0  0  0  0  0  0  0  0  0  0
   39.2820   27.0080   42.6570 H   0  0  0  0  0  0  0  0  0  0  0  0
   39.7930   28.4410   43.6110 H   0  0  0  0  0  0  0  0  0  0  0  0
   38.2210   26.9890   44.8370 H   0  0  0  0  0  0  0  0  0  0  0  0
   37.6670   28.6640   44.6180 H   0  0  0  0  0  0  0  0  0  0  0  0
   36.0980   26.3910   43.9040 H   0  0  0  0  0  0  0  0  0  0  0  0
   35.8240   28.0790   43.4490 H   0  0  0  0  0  0  0  0  0  0  0  0
   35.8070   26.6770   41.5070 H   0  0  0  0  0  0  0  0  0  0  0  0
   37.5150   26.1030   41.8840 H   0  0  0  0  0  0  0  0  0  0  0  0
   36.4400   29.6970   38.8830 O   0  0  0  0  0  0  0  0  0  0  0  0
   36.7290   31.0250   38.7740 C   0  0  0  0  0  0  0  0  0  0  0  0
   37.7030   31.1140   38.2070 H   0  0  0  0  0  0  0  0  0  0  0  0
   36.0350   31.6790   38.2400 H   0  0  0  0  0  0  0  0  0  0  0  0
   36.9990   31.7170   40.0970 C   0  0  0  0  0  0  0  0  0  0  0  0
   36.1880   31.4110   40.8070 H   0  0  0  0  0  0  0  0  0  0  0  0
   37.9420   31.2750   40.5240 H   0  0  0  0  0  0  0  0  0  0  0  0
   37.0580   33.1510   39.9660 N   0  0  0  0  0  0  0  0  0  0  0  0
   36.4680   33.5680   40.7250 H   0  0  0  0  0  0  0  0  0  0  0  0
   38.6810   33.6420   40.3830 S   0  0  0  0  0  0  0  0  0  0  0  0
   38.7540   34.1310   41.7950 O   0  0  0  0  0  0  0  0  0  0  0  0
   38.1590   34.7930   42.1920 H   0  0  0  0  0  0  0  0  0  0  0  0
   39.0760   34.7230   39.4290 O   0  0  0  0  0  0  0  0  0  0  0  0
   39.5760   34.5310   38.5980 H   0  0  0  0  0  0  0  0  0  0  0  0
   39.7480   32.3670   40.1810 O   0  0  0  0  0  0  0  0  0  0  0  0
   40.5190   32.3620   39.0220 C   0  0  0  0  0  0  0  0  0  0  0  0
   41.8400   32.3450   38.5870 C   0  0  0  0  0  0  0  0  0  0  0  0
   42.5450   32.3300   39.4100 H   0  0  0  0  0  0  0  0  0  0  0  0
   41.7980   32.3540   37.1950 C   0  0  0  0  0  0  0  0  0  0  0  0
   42.7650   32.3420   36.7110 H   0  0  0  0  0  0  0  0  0  0  0  0
   40.5050   32.3750   36.8210 N   0  0  0  0  0  0  0  0  0  0  0  0
   40.2710   32.3840   35.8040 H   0  0  0  0  0  0  0  0  0  0  0  0
   39.7320   32.3800   37.9090 N   0  0  0  0  0  0  0  0  0  0  0  0
  1  9  1  0  0  0  0
  2 26  1  0  0  0  0
  2  1  2  0  0  0  0
  3  2  1  0  0  0  0
  4  3  2  0  0  0  0
  4  5  1  0  0  0  0
  5  6  2  0  0  0  0
  6  1  1  0  0  0  0
  7  3  1  0  0  0  0
  8  5  1  0  0  0  0
  9 10  1  0  0  0  0
  9 14  1  0  0  0  0
 10 16  1  0  0  0  0
 10 11  1  0  0  0  0
 11 19  1  0  0  0  0
 11 12  1  0  0  0  0
 12 21  1  0  0  0  0
 12 20  1  0  0  0  0
 13 23  1  0  0  0  0
 13 22  1  0  0  0  0
 13 12  1  0  0  0  0
 14 13  1  0  0  0  0
 15  9  1  0  0  0  0
 17 10  1  0  0  0  0
 18 11  1  0  0  0  0
 24 14  1  0  0  0  0
 25 14  1  0  0  0  0
 27 26  1  0  0  0  0
 27 30  1  0  0  0  0
 28 27  1  0  0  0  0
 29 27  1  0  0  0  0
 30 32  1  0  0  0  0
 30 31  1  0  0  0  0
 33 30  1  0  0  0  0
 33 35  1  0  0  0  0
 33 34  1  0  0  0  0
 35 36  1  0  0  0  0
 36 37  1  0  0  0  0
 38 35  1  0  0  0  0
 39 38  1  0  0  0  0
 40 35  1  0  0  0  0
 41 40  1  0  0  0  0
 42 41  1  0  0  0  0
 42 43  1  0  0  0  0
 44 42  2  0  0  0  0
 45 44  1  0  0  0  0
 46 44  1  0  0  0  0
 46 48  1  0  0  0  0
 47 46  1  0  0  0  0
 48 41  2  0  0  0  0
M  END
>  <minimizedAffinity>
-5.76761675

$$$$

 OpenBabel03242514213D

 48 50  0  0  0  0  0  0  0  0999 V2000
   40.4000   28.2600   42.5530 C   0  0  0  0  0  0  0  0  0  0  0  0
   41.1820   28.9880   41.6870 C   0  0  0  0  0  0  0  0  0  0  0  0
   42.5260   29.0010   41.9230 C   0  0  0  0  0  0  0  0  0  0  0  0
   43.0320   28.3130   42.9700 N   0  0  0  0  0  0  0  0  0  0  0  0
   42.2810   27.6100   43.8020 C   0  0  0  0  0  0  0  0  0  0  0  0
   40.9740   27.5950   43.5820 N   0  0  0  0  0  0  0  0  0  0  0  0
   43.3030   29.5080   41.3690 H   0  0  0  0  0  0  0  0  0  0  0  0
   42.6360   27.0390   44.6570 H   0  0  0  0  0  0  0  0  0  0  0  0
   38.9630   28.1910   42.2600 C   0  0  0  0  0  0  0  0  0  0  0  0
   38.1560   28.8950   43.3140 C   0  0  0  0  0  0  0  0  0  0  0  0
   37.2850   27.9810   44.0540 C   0  0  0  0  0  0  0  0  0  0  0  0
   36.3640   27.2090   43.1290 C   0  0  0  0  0  0  0  0  0  0  0  0
   37.0490   26.6730   41.9310 C   0  0  0  0  0  0  0  0  0  0  0  0
   38.5530   26.7790   42.0490 C   0  0  0  0  0  0  0  0  0  0  0  0
   38.7620   28.8000   41.3590 H   0  0  0  0  0  0  0  0  0  0  0  0
   37.5460   29.7200   42.9050 H   0  0  0  0  0  0  0  0  0  0  0  0
   38.8640   29.3790   44.0180 H   0  0  0  0  0  0  0  0  0  0  0  0
   37.9400   27.1970   44.5360 H   0  0  0  0  0  0  0  0  0  0  0  0
   36.6660   28.4290   44.8320 H   0  0  0  0  0  0  0  0  0  0  0  0
   35.8050   26.4170   43.6930 H   0  0  0  0  0  0  0  0  0  0  0  0
   35.5670   27.9360   42.7990 H   0  0  0  0  0  0  0  0  0  0  0  0
   36.7900   25.6240   41.6590 H   0  0  0  0  0  0  0  0  0  0  0  0
   36.7860   27.2730   41.0160 H   0  0  0  0  0  0  0  0  0  0  0  0
   39.0220   26.4190   41.1110 H   0  0  0  0  0  0  0  0  0  0  0  0
   38.8620   26.1510   42.9260 H   0  0  0  0  0  0  0  0  0  0  0  0
   40.8730   29.7190   40.6150 O   0  0  0  0  0  0  0  0  0  0  0  0
   41.2330   30.9530   40.1620 C   0  0  0  0  0  0  0  0  0  0  0  0
   42.3630   30.9820   40.1210 H   0  0  0  0  0  0  0  0  0  0  0  0
   40.9100   31.2710   39.1680 H   0  0  0  0  0  0  0  0  0  0  0  0
   40.8610   32.0930   41.0910 C   0  0  0  0  0  0  0  0  0  0  0  0
   41.4530   31.9640   42.0340 H   0  0  0  0  0  0  0  0  0  0  0  0
   41.2490   33.0450   40.6320 H   0  0  0  0  0  0  0  0  0  0  0  0
   39.4480   32.1380   41.3700 N   0  0  0  0  0  0  0  0  0  0  0  0
   39.3270   32.4050   42.3760 H   0  0  0  0  0  0  0  0  0  0  0  0
   38.7900   33.4970   40.4940 S   0  0  0  0  0  0  0  0  0  0  0  0
   39.6630   33.8700   39.3370 O   0  0  0  0  0  0  0  0  0  0  0  0
   40.6250   34.0160   39.3830 H   0  0  0  0  0  0  0  0  0  0  0  0
   38.6780   34.6340   41.4580 O   0  0  0  0  0  0  0  0  0  0  0  0
   37.8420   34.8200   41.9520 H   0  0  0  0  0  0  0  0  0  0  0  0
   37.2500   33.1450   39.9380 O   0  0  0  0  0  0  0  0  0  0  0  0
   36.8800   31.8040   39.9030 C   0  0  0  0  0  0  0  0  0  0  0  0
   36.9410   30.6730   39.0960 C   0  0  0  0  0  0  0  0  0  0  0  0
   37.4470   30.8630   38.1570 H   0  0  0  0  0  0  0  0  0  0  0  0
   36.3080   29.6510   39.7980 C   0  0  0  0  0  0  0  0  0  0  0  0
   36.2790   28.6980   39.2880 H   0  0  0  0  0  0  0  0  0  0  0  0
   35.8890   30.1560   40.9740 N   0  0  0  0  0  0  0  0  0  0  0  0
   35.3880   29.5320   41.6440 H   0  0  0  0  0  0  0  0  0  0  0  0
   36.2280   31.4450   41.0450 N   0  0  0  0  0  0  0  0  0  0  0  0
  1  6  1  0  0  0  0
  2  3  1  0  0  0  0
  2  1  2  0  0  0  0
  3  4  2  0  0  0  0
  4  5  1  0  0  0  0
  5  8  1  0  0  0  0
  6  5  2  0  0  0  0
  7  3  1  0  0  0  0
  9  1  1  0  0  0  0
  9 10  1  0  0  0  0
 10 17  1  0  0  0  0
 10 11  1  0  0  0  0
 11 18  1  0  0  0  0
 11 19  1  0  0  0  0
 12 20  1  0  0  0  0
 12 11  1  0  0  0  0
 13 14  1  0  0  0  0
 13 12  1  0  0  0  0
 14  9  1  0  0  0  0
 14 25  1  0  0  0  0
 15  9  1  0  0  0  0
 16 10  1  0  0  0  0
 21 12  1  0  0  0  0
 22 13  1  0  0  0  0
 23 13  1  0  0  0  0
 24 14  1  0  0  0  0
 26  2  1  0  0  0  0
 27 26  1  0  0  0  0
 27 30  1  0  0  0  0
 28 27  1  0  0  0  0
 29 27  1  0  0  0  0
 30 33  1  0  0  0  0
 30 31  1  0  0  0  0
 32 30  1  0  0  0  0
 33 34  1  0  0  0  0
 35 33  1  0  0  0  0
 35 38  1  0  0  0  0
 36 37  1  0  0  0  0
 36 35  1  0  0  0  0
 38 39  1  0  0  0  0
 40 35  1  0  0  0  0
 41 40  1  0  0  0  0
 41 48  2  0  0  0  0
 42 44  2  0  0  0  0
 42 41  1  0  0  0  0
 43 42  1  0  0  0  0
 44 46  1  0  0  0  0
 45 44  1  0  0  0  0
 46 48  1  0  0  0  0
 46 47  1  0  0  0  0
M  END
>  <minimizedAffinity>
-5.65289688

$$$$

 OpenBabel03242514213D

 48 50  0  0  0  0  0  0  0  0999 V2000
   36.9340   26.0670   39.9790 C   0  0  0  0  0  0  0  0  0  0  0  0
   36.4730   27.3030   39.5940 C   0  0  0  0  0  0  0  0  0  0  0  0
   35.6560   27.3500   38.5020 C   0  0  0  0  0  0  0  0  0  0  0  0
   35.3320   26.2080   37.8540 N   0  0  0  0  0  0  0  0  0  0  0  0
   35.7740   25.0180   38.2250 C   0  0  0  0  0  0  0  0  0  0  0  0
   36.5710   24.9650   39.2830 N   0  0  0  0  0  0  0  0  0  0  0  0
   35.1940   28.2120   38.0410 H   0  0  0  0  0  0  0  0  0  0  0  0
   35.5450   24.0720   37.7410 H   0  0  0  0  0  0  0  0  0  0  0  0
   37.7580   26.0070   41.1930 C   0  0  0  0  0  0  0  0  0  0  0  0
   36.9090   26.0430   42.4320 C   0  0  0  0  0  0  0  0  0  0  0  0
   37.1460   27.2430   43.2360 C   0  0  0  0  0  0  0  0  0  0  0  0
   38.6070   27.3920   43.6080 C   0  0  0  0  0  0  0  0  0  0  0  0
   39.5300   27.1390   42.4780 C   0  0  0  0  0  0  0  0  0  0  0  0
   38.7960   27.0690   41.1580 C   0  0  0  0  0  0  0  0  0  0  0  0
   38.2200   25.0030   41.2500 H   0  0  0  0  0  0  0  0  0  0  0  0
   37.0450   25.1520   43.0700 H   0  0  0  0  0  0  0  0  0  0  0  0
   35.8450   26.0160   42.1170 H   0  0  0  0  0  0  0  0  0  0  0  0
   36.9150   28.1400   42.5890 H   0  0  0  0  0  0  0  0  0  0  0  0
   36.5640   27.3300   44.1540 H   0  0  0  0  0  0  0  0  0  0  0  0
   38.7950   28.3820   44.1010 H   0  0  0  0  0  0  0  0  0  0  0  0
   38.8060   26.6320   44.4180 H   0  0  0  0  0  0  0  0  0  0  0  0
   40.3710   27.8620   42.3740 H   0  0  0  0  0  0  0  0  0  0  0  0
   40.0330   26.1390   42.5850 H   0  0  0  0  0  0  0  0  0  0  0  0
   39.5140   26.8240   40.3490 H   0  0  0  0  0  0  0  0  0  0  0  0
   38.3190   28.0700   40.9900 H   0  0  0  0  0  0  0  0  0  0  0  0
   36.6750   28.5210   40.0980 O   0  0  0  0  0  0  0  0  0  0  0  0
   35.9080   29.4090   40.7910 C   0  0  0  0  0  0  0  0  0  0  0  0
   35.1810   29.8720   40.0600 H   0  0  0  0  0  0  0  0  0  0  0  0
   35.2840   29.0460   41.6120 H   0  0  0  0  0  0  0  0  0  0  0  0
   36.6750   30.5880   41.3590 C   0  0  0  0  0  0  0  0  0  0  0  0
   36.4840   30.6130   42.4620 H   0  0  0  0  0  0  0  0  0  0  0  0
   37.7730   30.3590   41.2580 H   0  0  0  0  0  0  0  0  0  0  0  0
   36.3020   31.8360   40.7410 N   0  0  0  0  0  0  0  0  0  0  0  0
   36.5970   32.6120   41.3800 H   0  0  0  0  0  0  0  0  0  0  0  0
   37.3180   32.0430   39.3370 S   0  0  0  0  0  0  0  0  0  0  0  0
   37.2550   33.4480   38.8240 O   0  0  0  0  0  0  0  0  0  0  0  0
   36.4350   33.9440   38.6430 H   0  0  0  0  0  0  0  0  0  0  0  0
   36.8410   31.0810   38.2980 O   0  0  0  0  0  0  0  0  0  0  0  0
   37.2420   30.1840   38.1920 H   0  0  0  0  0  0  0  0  0  0  0  0
   38.9060   31.6560   39.7010 O   0  0  0  0  0  0  0  0  0  0  0  0
   39.8940   32.1940   38.8820 C   0  0  0  0  0  0  0  0  0  0  0  0
   41.0910   32.9010   38.9310 C   0  0  0  0  0  0  0  0  0  0  0  0
   41.3920   33.1310   39.9460 H   0  0  0  0  0  0  0  0  0  0  0  0
   41.5030   33.0750   37.6130 C   0  0  0  0  0  0  0  0  0  0  0  0
   42.4320   33.6150   37.4940 H   0  0  0  0  0  0  0  0  0  0  0  0
   40.5870   32.4950   36.8140 N   0  0  0  0  0  0  0  0  0  0  0  0
   40.7260   32.5220   35.7810 H   0  0  0  0  0  0  0  0  0  0  0  0
   39.6200   31.9650   37.5660 N   0  0  0  0  0  0  0  0  0  0  0  0
  1  9  1  0  0  0  0
  2  1  1  0  0  0  0
  2 26  1  0  0  0  0
  3  2  2  0  0  0  0
  4  5  2  0  0  0  0
  4  3  1  0  0  0  0
  5  6  1  0  0  0  0
  6  1  2  0  0  0  0
  7  3  1  0  0  0  0
  8  5  1  0  0  0  0
  9 15  1  0  0  0  0
  9 10  1  0  0  0  0
 10 16  1  0  0  0  0
 10 11  1  0  0  0  0
 11 12  1  0  0  0  0
 11 19  1  0  0  0  0
 12 20  1  0  0  0  0
 12 21  1  0  0  0  0
 13 23  1  0  0  0  0
 13 12  1  0  0  0  0
 14  9  1  0  0  0  0
 14 13  1  0  0  0  0
 17 10  1  0  0  0  0
 18 11  1  0  0  0  0
 22 13  1  0  0  0  0
 24 14  1  0  0  0  0
 25 14  1  0  0  0  0
 26 27  1  0  0  0  0
 27 30  1  0  0  0  0
 27 29  1  0  0  0  0
 28 27  1  0  0  0  0
 30 31  1  0  0  0  0
 32 30  1  0  0  0  0
 33 30  1  0  0  0  0
 33 34  1  0  0  0  0
 35 40  1  0  0  0  0
 35 33  1  0  0  0  0
 36 35  1  0  0  0  0
 37 36  1  0  0  0  0
 38 35  1  0  0  0  0
 39 38  1  0  0  0  0
 41 42  1  0  0  0  0
 41 40  1  0  0  0  0
 42 43  1  0  0  0  0
 44 42  2  0  0  0  0
 45 44  1  0  0  0  0
 46 48  1  0  0  0  0
 46 44  1  0  0  0  0
 47 46  1  0  0  0  0
 48 41  2  0  0  0  0
M  END
>  <minimizedAffinity>
-5.62595463

$$$$

 OpenBabel03242514213D

 48 50  0  0  0  0  0  0  0  0999 V2000
   37.9880   29.6660   40.8940 C   0  0  0  0  0  0  0  0  0  0  0  0
   38.7160   30.7160   41.3990 C   0  0  0  0  0  0  0  0  0  0  0  0
   39.6640   30.4230   42.3360 C   0  0  0  0  0  0  0  0  0  0  0  0
   39.8520   29.1430   42.7250 N   0  0  0  0  0  0  0  0  0  0  0  0
   39.1530   28.1310   42.2390 C   0  0  0  0  0  0  0  0  0  0  0  0
   38.2290   28.4080   41.3300 N   0  0  0  0  0  0  0  0  0  0  0  0
   40.3330   31.0970   42.8520 H   0  0  0  0  0  0  0  0  0  0  0  0
   39.2650   27.0850   42.5150 H   0  0  0  0  0  0  0  0  0  0  0  0
   37.0150   29.9710   39.8370 C   0  0  0  0  0  0  0  0  0  0  0  0
   35.6240   30.0950   40.3930 C   0  0  0  0  0  0  0  0  0  0  0  0
   34.7250   29.0590   39.8800 C   0  0  0  0  0  0  0  0  0  0  0  0
   34.6770   29.0550   38.3660 C   0  0  0  0  0  0  0  0  0  0  0  0
   36.0120   29.1670   37.7340 C   0  0  0  0  0  0  0  0  0  0  0  0
   37.1260   28.9770   38.7390 C   0  0  0  0  0  0  0  0  0  0  0  0
   37.2150   30.9940   39.4670 H   0  0  0  0  0  0  0  0  0  0  0  0
   35.1750   31.0860   40.2040 H   0  0  0  0  0  0  0  0  0  0  0  0
   35.6910   30.0100   41.4970 H   0  0  0  0  0  0  0  0  0  0  0  0
   35.1610   28.0560   40.1630 H   0  0  0  0  0  0  0  0  0  0  0  0
   33.6970   29.0940   40.2400 H   0  0  0  0  0  0  0  0  0  0  0  0
   34.0980   28.1730   37.9870 H   0  0  0  0  0  0  0  0  0  0  0  0
   34.0570   29.9490   38.0670 H   0  0  0  0  0  0  0  0  0  0  0  0
   36.1950   28.4850   36.8730 H   0  0  0  0  0  0  0  0  0  0  0  0
   36.1720   30.1980   37.3130 H   0  0  0  0  0  0  0  0  0  0  0  0
   38.1040   29.1240   38.2370 H   0  0  0  0  0  0  0  0  0  0  0  0
   37.0300   27.9370   39.1480 H   0  0  0  0  0  0  0  0  0  0  0  0
   38.6780   32.0250   41.1430 O   0  0  0  0  0  0  0  0  0  0  0  0
   39.0000   32.8000   40.0690 C   0  0  0  0  0  0  0  0  0  0  0  0
   38.7580   32.2040   39.1390 H   0  0  0  0  0  0  0  0  0  0  0  0
   38.4870   33.7550   39.9280 H   0  0  0  0  0  0  0  0  0  0  0  0
   40.4790   33.1120   39.9430 C   0  0  0  0  0  0  0  0  0  0  0  0
   40.8180   33.5290   40.9260 H   0  0  0  0  0  0  0  0  0  0  0  0
   41.0240   32.1330   39.8380 H   0  0  0  0  0  0  0  0  0  0  0  0
   40.7580   34.0310   38.8690 N   0  0  0  0  0  0  0  0  0  0  0  0
   41.5230   34.6730   39.1850 H   0  0  0  0  0  0  0  0  0  0  0  0
   41.4930   33.1110   37.5790 S   0  0  0  0  0  0  0  0  0  0  0  0
   42.3690   33.9750   36.7280 O   0  0  0  0  0  0  0  0  0  0  0  0
   42.1080   34.8290   36.3380 H   0  0  0  0  0  0  0  0  0  0  0  0
   40.3850   32.5210   36.7680 O   0  0  0  0  0  0  0  0  0  0  0  0
   40.0410   31.6100   36.9350 H   0  0  0  0  0  0  0  0  0  0  0  0
   42.3970   31.8470   38.2040 O   0  0  0  0  0  0  0  0  0  0  0  0
   42.5390   30.7150   37.4080 C   0  0  0  0  0  0  0  0  0  0  0  0
   42.3070   29.3430   37.4050 C   0  0  0  0  0  0  0  0  0  0  0  0
   41.8610   28.9980   38.3310 H   0  0  0  0  0  0  0  0  0  0  0  0
   42.7440   28.8700   36.1710 C   0  0  0  0  0  0  0  0  0  0  0  0
   42.6260   27.8050   36.0240 H   0  0  0  0  0  0  0  0  0  0  0  0
   43.2160   29.9180   35.4700 N   0  0  0  0  0  0  0  0  0  0  0  0
   43.5910   29.7590   34.5100 H   0  0  0  0  0  0  0  0  0  0  0  0
   43.0970   31.0270   36.2030 N   0  0  0  0  0  0  0  0  0  0  0  0
  1  6  2  0  0  0  0
  1  2  1  0  0  0  0
  2  3  2  0  0  0  0
  3  4  1  0  0  0  0
  3  7  1  0  0  0  0
  5  8  1  0  0  0  0
  5  4  2  0  0  0  0
  6  5  1  0  0  0  0
  9 10  1  0  0  0  0
  9  1  1  0  0  0  0
 10 17  1  0  0  0  0
 11 18  1  0  0  0  0
 11 19  1  0  0  0  0
 11 10  1  0  0  0  0
 12 11  1  0  0  0  0
 13 12  1  0  0  0  0
 13 14  1  0  0  0  0
 14 25  1  0  0  0  0
 14  9  1  0  0  0  0
 15  9  1  0  0  0  0
 16 10  1  0  0  0  0
 20 12  1  0  0  0  0
 21 12  1  0  0  0  0
 22 13  1  0  0  0  0
 23 13  1  0  0  0  0
 24 14  1  0  0  0  0
 26  2  1  0  0  0  0
 27 26  1  0  0  0  0
 28 27  1  0  0  0  0
 29 27  1  0  0  0  0
 30 27  1  0  0  0  0
 30 31  1  0  0  0  0
 32 30  1  0  0  0  0
 33 34  1  0  0  0  0
 33 30  1  0  0  0  0
 35 40  1  0  0  0  0
 35 33  1  0  0  0  0
 36 35  1  0  0  0  0
 37 36  1  0  0  0  0
 38 39  1  0  0  0  0
 38 35  1  0  0  0  0
 41 40  1  0  0  0  0
 42 41  1  0  0  0  0
 42 43  1  0  0  0  0
 44 42  2  0  0  0  0
 45 44  1  0  0  0  0
 46 44  1  0  0  0  0
 46 48  1  0  0  0  0
 47 46  1  0  0  0  0
 48 41  2  0  0  0  0
M  END
>  <minimizedAffinity>
-5.53386879

$$$$

 OpenBabel03242514213D

 48 50  0  0  0  0  0  0  0  0999 V2000
   37.0230   28.6670   40.9560 C   0  0  0  0  0  0  0  0  0  0  0  0
   37.9470   29.6290   41.2820 C   0  0  0  0  0  0  0  0  0  0  0  0
   38.3690   29.6730   42.5790 C   0  0  0  0  0  0  0  0  0  0  0  0
   37.8790   28.7880   43.4760 N   0  0  0  0  0  0  0  0  0  0  0  0
   36.9910   27.8600   43.1620 C   0  0  0  0  0  0  0  0  0  0  0  0
   36.5740   27.8130   41.9050 N   0  0  0  0  0  0  0  0  0  0  0  0
   39.0800   30.3470   43.0360 H   0  0  0  0  0  0  0  0  0  0  0  0
   36.5660   27.1250   43.8420 H   0  0  0  0  0  0  0  0  0  0  0  0
   36.6200   28.5760   39.5460 C   0  0  0  0  0  0  0  0  0  0  0  0
   35.5200   29.5490   39.2280 C   0  0  0  0  0  0  0  0  0  0  0  0
   34.2750   28.8790   38.8470 C   0  0  0  0  0  0  0  0  0  0  0  0
   34.4800   27.9340   37.6810 C   0  0  0  0  0  0  0  0  0  0  0  0
   35.6910   27.0920   37.8120 C   0  0  0  0  0  0  0  0  0  0  0  0
   36.2820   27.1710   39.2010 C   0  0  0  0  0  0  0  0  0  0  0  0
   37.4540   28.9470   38.9220 H   0  0  0  0  0  0  0  0  0  0  0  0
   35.7990   30.2660   38.4360 H   0  0  0  0  0  0  0  0  0  0  0  0
   35.3420   30.1690   40.1320 H   0  0  0  0  0  0  0  0  0  0  0  0
   33.9630   28.2190   39.7090 H   0  0  0  0  0  0  0  0  0  0  0  0
   33.4360   29.5290   38.5980 H   0  0  0  0  0  0  0  0  0  0  0  0
   33.5560   27.3270   37.4920 H   0  0  0  0  0  0  0  0  0  0  0  0
   34.5840   28.5820   36.7630 H   0  0  0  0  0  0  0  0  0  0  0  0
   35.5600   26.0180   37.5460 H   0  0  0  0  0  0  0  0  0  0  0  0
   36.5070   27.4520   37.1270 H   0  0  0  0  0  0  0  0  0  0  0  0
   37.2150   26.5720   39.2400 H   0  0  0  0  0  0  0  0  0  0  0  0
   35.5130   26.7720   39.9130 H   0  0  0  0  0  0  0  0  0  0  0  0
   38.5400   30.5740   40.5510 O   0  0  0  0  0  0  0  0  0  0  0  0
   38.2580   31.8750   40.2580 C   0  0  0  0  0  0  0  0  0  0  0  0
   37.3870   31.8780   39.5380 H   0  0  0  0  0  0  0  0  0  0  0  0
   37.9560   32.5490   41.0630 H   0  0  0  0  0  0  0  0  0  0  0  0
   39.3630   32.6030   39.5150 C   0  0  0  0  0  0  0  0  0  0  0  0
   38.9190   33.0150   38.5730 H   0  0  0  0  0  0  0  0  0  0  0  0
   39.6420   33.5070   40.1250 H   0  0  0  0  0  0  0  0  0  0  0  0
   40.4870   31.7490   39.2260 N   0  0  0  0  0  0  0  0  0  0  0  0
   40.2970   30.8110   39.6520 H   0  0  0  0  0  0  0  0  0  0  0  0
   40.4740   31.4380   37.5080 S   0  0  0  0  0  0  0  0  0  0  0  0
   39.6060   32.4210   36.7860 O   0  0  0  0  0  0  0  0  0  0  0  0
   38.6890   32.6450   37.0300 H   0  0  0  0  0  0  0  0  0  0  0  0
   39.9700   30.0450   37.3130 O   0  0  0  0  0  0  0  0  0  0  0  0
   40.5820   29.2730   37.2320 H   0  0  0  0  0  0  0  0  0  0  0  0
   42.0280   31.5110   36.8880 O   0  0  0  0  0  0  0  0  0  0  0  0
   42.8390   32.5510   37.3300 C   0  0  0  0  0  0  0  0  0  0  0  0
   44.0990   32.8050   37.8630 C   0  0  0  0  0  0  0  0  0  0  0  0
   44.6820   31.9010   37.9940 H   0  0  0  0  0  0  0  0  0  0  0  0
   44.1790   34.1830   38.0500 C   0  0  0  0  0  0  0  0  0  0  0  0
   45.1150   34.5330   38.4640 H   0  0  0  0  0  0  0  0  0  0  0  0
   43.0140   34.7230   37.6440 N   0  0  0  0  0  0  0  0  0  0  0  0
   42.8840   35.7560   37.7080 H   0  0  0  0  0  0  0  0  0  0  0  0
   42.2060   33.7530   37.2120 N   0  0  0  0  0  0  0  0  0  0  0  0
  1  2  2  0  0  0  0
  1  6  1  0  0  0  0
  2  3  1  0  0  0  0
  3  7  1  0  0  0  0
  3  4  2  0  0  0  0
  5  4  1  0  0  0  0
  5  8  1  0  0  0  0
  6  5  2  0  0  0  0
  9  1  1  0  0  0  0
 10  9  1  0  0  0  0
 10 17  1  0  0  0  0
 11 10  1  0  0  0  0
 11 18  1  0  0  0  0
 12 13  1  0  0  0  0
 12 11  1  0  0  0  0
 13 14  1  0  0  0  0
 14 24  1  0  0  0  0
 14  9  1  0  0  0  0
 14 25  1  0  0  0  0
 15  9  1  0  0  0  0
 16 10  1  0  0  0  0
 19 11  1  0  0  0  0
 20 12  1  0  0  0  0
 21 12  1  0  0  0  0
 22 13  1  0  0  0  0
 23 13  1  0  0  0  0
 26  2  1  0  0  0  0
 27 26  1  0  0  0  0
 27 29  1  0  0  0  0
 28 27  1  0  0  0  0
 30 32  1  0  0  0  0
 30 27  1  0  0  0  0
 31 30  1  0  0  0  0
 33 30  1  0  0  0  0
 33 34  1  0  0  0  0
 35 33  1  0  0  0  0
 36 37  1  0  0  0  0
 36 35  1  0  0  0  0
 38 35  1  0  0  0  0
 39 38  1  0  0  0  0
 40 41  1  0  0  0  0
 40 35  1  0  0  0  0
 41 42  1  0  0  0  0
 42 43  1  0  0  0  0
 42 44  2  0  0  0  0
 44 45  1  0  0  0  0
 46 47  1  0  0  0  0
 46 44  1  0  0  0  0
 48 41  2  0  0  0  0
 48 46  1  0  0  0  0
M  END
>  <minimizedAffinity>
-5.47462606

$$$$

 OpenBabel03242514213D

 48 50  0  0  0  0  0  0  0  0999 V2000
   36.8340   27.5420   40.5820 C   0  0  0  0  0  0  0  0  0  0  0  0
   37.3510   27.9360   41.7930 C   0  0  0  0  0  0  0  0  0  0  0  0
   37.7240   26.9500   42.6600 C   0  0  0  0  0  0  0  0  0  0  0  0
   37.5790   25.6530   42.3080 N   0  0  0  0  0  0  0  0  0  0  0  0
   37.0820   25.2740   41.1420 C   0  0  0  0  0  0  0  0  0  0  0  0
   36.7150   26.2250   40.2950 N   0  0  0  0  0  0  0  0  0  0  0  0
   38.1450   27.0470   43.6510 H   0  0  0  0  0  0  0  0  0  0  0  0
   36.9450   24.2480   40.8090 H   0  0  0  0  0  0  0  0  0  0  0  0
   36.4960   28.6010   39.6220 C   0  0  0  0  0  0  0  0  0  0  0  0
   35.0440   28.9770   39.7120 C   0  0  0  0  0  0  0  0  0  0  0  0
   34.3110   28.6680   38.4830 C   0  0  0  0  0  0  0  0  0  0  0  0
   34.9400   29.3260   37.2710 C   0  0  0  0  0  0  0  0  0  0  0  0
   36.4150   29.1980   37.2320 C   0  0  0  0  0  0  0  0  0  0  0  0
   36.9190   28.2050   38.2550 C   0  0  0  0  0  0  0  0  0  0  0  0
   37.0030   29.5320   39.9390 H   0  0  0  0  0  0  0  0  0  0  0  0
   34.8930   30.0430   39.9610 H   0  0  0  0  0  0  0  0  0  0  0  0
   34.5980   28.4140   40.5570 H   0  0  0  0  0  0  0  0  0  0  0  0
   34.4060   27.5580   38.2960 H   0  0  0  0  0  0  0  0  0  0  0  0
   33.2510   28.9210   38.4780 H   0  0  0  0  0  0  0  0  0  0  0  0
   34.4550   28.9700   36.3260 H   0  0  0  0  0  0  0  0  0  0  0  0
   34.6710   30.4200   37.3310 H   0  0  0  0  0  0  0  0  0  0  0  0
   36.8470   28.9320   36.2410 H   0  0  0  0  0  0  0  0  0  0  0  0
   36.9110   30.1710   37.5020 H   0  0  0  0  0  0  0  0  0  0  0  0
   38.0280   28.1800   38.2290 H   0  0  0  0  0  0  0  0  0  0  0  0
   36.4840   27.2050   37.9900 H   0  0  0  0  0  0  0  0  0  0  0  0
   37.5710   29.1440   42.3130 O   0  0  0  0  0  0  0  0  0  0  0  0
   38.6860   29.8770   42.5930 C   0  0  0  0  0  0  0  0  0  0  0  0
   38.4260   30.5780   43.4410 H   0  0  0  0  0  0  0  0  0  0  0  0
   39.5920   29.3620   42.9260 H   0  0  0  0  0  0  0  0  0  0  0  0
   39.1320   30.7930   41.4690 C   0  0  0  0  0  0  0  0  0  0  0  0
   40.0350   30.3290   40.9970 H   0  0  0  0  0  0  0  0  0  0  0  0
   38.3380   30.7610   40.6710 H   0  0  0  0  0  0  0  0  0  0  0  0
   39.4160   32.1290   41.9280 N   0  0  0  0  0  0  0  0  0  0  0  0
   40.4480   32.2860   41.8420 H   0  0  0  0  0  0  0  0  0  0  0  0
   38.7280   33.2330   40.7630 S   0  0  0  0  0  0  0  0  0  0  0  0
   38.8740   34.6540   41.2110 O   0  0  0  0  0  0  0  0  0  0  0  0
   38.6250   34.9940   42.0900 H   0  0  0  0  0  0  0  0  0  0  0  0
   37.2860   32.8740   40.6090 O   0  0  0  0  0  0  0  0  0  0  0  0
   36.9720   32.2640   39.8980 H   0  0  0  0  0  0  0  0  0  0  0  0
   39.4650   33.0440   39.2710 O   0  0  0  0  0  0  0  0  0  0  0  0
   40.7630   33.5240   39.1390 C   0  0  0  0  0  0  0  0  0  0  0  0
   41.6810   33.9490   38.1840 C   0  0  0  0  0  0  0  0  0  0  0  0
   41.2800   33.9040   37.1780 H   0  0  0  0  0  0  0  0  0  0  0  0
   42.8390   34.2980   38.8740 C   0  0  0  0  0  0  0  0  0  0  0  0
   43.6500   34.6520   38.2520 H   0  0  0  0  0  0  0  0  0  0  0  0
   42.6160   34.0890   40.1850 N   0  0  0  0  0  0  0  0  0  0  0  0
   43.3770   34.2960   40.8680 H   0  0  0  0  0  0  0  0  0  0  0  0
   41.3760   33.6260   40.3530 N   0  0  0  0  0  0  0  0  0  0  0  0
  1  2  1  0  0  0  0
  2 26  1  0  0  0  0
  2  3  2  0  0  0  0
  3  7  1  0  0  0  0
  4  3  1  0  0  0  0
  5  4  2  0  0  0  0
  6  1  2  0  0  0  0
  6  5  1  0  0  0  0
  8  5  1  0  0  0  0
  9 10  1  0  0  0  0
  9 15  1  0  0  0  0
  9  1  1  0  0  0  0
 10 16  1  0  0  0  0
 10 17  1  0  0  0  0
 11 10  1  0  0  0  0
 12 21  1  0  0  0  0
 12 11  1  0  0  0  0
 13 12  1  0  0  0  0
 13 23  1  0  0  0  0
 13 14  1  0  0  0  0
 14  9  1  0  0  0  0
 18 11  1  0  0  0  0
 19 11  1  0  0  0  0
 20 12  1  0  0  0  0
 22 13  1  0  0  0  0
 24 14  1  0  0  0  0
 25 14  1  0  0  0  0
 26 27  1  0  0  0  0
 27 29  1  0  0  0  0
 27 28  1  0  0  0  0
 30 33  1  0  0  0  0
 30 27  1  0  0  0  0
 31 30  1  0  0  0  0
 32 30  1  0  0  0  0
 34 33  1  0  0  0  0
 35 36  1  0  0  0  0
 35 33  1  0  0  0  0
 36 37  1  0  0  0  0
 38 35  1  0  0  0  0
 39 38  1  0  0  0  0
 40 35  1  0  0  0  0
 41 40  1  0  0  0  0
 41 48  2  0  0  0  0
 42 44  2  0  0  0  0
 42 41  1  0  0  0  0
 43 42  1  0  0  0  0
 44 46  1  0  0  0  0
 45 44  1  0  0  0  0
 46 48  1  0  0  0  0
 46 47  1  0  0  0  0
M  END
>  <minimizedAffinity>
-5.46805

$$$$

 OpenBabel03242514213D

 48 50  0  0  0  0  0  0  0  0999 V2000
   38.0120   27.2090   41.9880 C   0  0  0  0  0  0  0  0  0  0  0  0
   37.8240   28.5510   41.7590 C   0  0  0  0  0  0  0  0  0  0  0  0
   38.7900   29.4010   42.2140 C   0  0  0  0  0  0  0  0  0  0  0  0
   39.8730   28.9080   42.8550 N   0  0  0  0  0  0  0  0  0  0  0  0
   40.0550   27.6160   43.0740 C   0  0  0  0  0  0  0  0  0  0  0  0
   39.1200   26.7850   42.6380 N   0  0  0  0  0  0  0  0  0  0  0  0
   38.8310   30.4790   42.1390 H   0  0  0  0  0  0  0  0  0  0  0  0
   40.9050   27.1680   43.5820 H   0  0  0  0  0  0  0  0  0  0  0  0
   37.0070   26.2890   41.4390 C   0  0  0  0  0  0  0  0  0  0  0  0
   36.9530   25.0080   42.2220 C   0  0  0  0  0  0  0  0  0  0  0  0
   37.3560   23.8490   41.4240 C   0  0  0  0  0  0  0  0  0  0  0  0
   36.5250   23.7180   40.1640 C   0  0  0  0  0  0  0  0  0  0  0  0
   36.3340   25.0000   39.4490 C   0  0  0  0  0  0  0  0  0  0  0  0
   37.2420   26.0830   39.9870 C   0  0  0  0  0  0  0  0  0  0  0  0
   36.0050   26.7220   41.6200 H   0  0  0  0  0  0  0  0  0  0  0  0
   35.9570   24.8150   42.6580 H   0  0  0  0  0  0  0  0  0  0  0  0
   37.6360   25.1120   43.0910 H   0  0  0  0  0  0  0  0  0  0  0  0
   38.4100   24.0310   41.0630 H   0  0  0  0  0  0  0  0  0  0  0  0
   37.3340   22.8840   41.9320 H   0  0  0  0  0  0  0  0  0  0  0  0
   36.9340   22.9130   39.4980 H   0  0  0  0  0  0  0  0  0  0  0  0
   35.5170   23.3290   40.4890 H   0  0  0  0  0  0  0  0  0  0  0  0
   36.4570   24.9560   38.3430 H   0  0  0  0  0  0  0  0  0  0  0  0
   35.2910   25.3940   39.5990 H   0  0  0  0  0  0  0  0  0  0  0  0
   37.0290   27.0370   39.4630 H   0  0  0  0  0  0  0  0  0  0  0  0
   38.2980   25.7490   39.8100 H   0  0  0  0  0  0  0  0  0  0  0  0
   36.8410   29.2190   41.1540 O   0  0  0  0  0  0  0  0  0  0  0  0
   36.3950   30.5070   41.1890 C   0  0  0  0  0  0  0  0  0  0  0  0
   35.2670   30.4730   41.2500 H   0  0  0  0  0  0  0  0  0  0  0  0
   36.6990   31.1530   42.0170 H   0  0  0  0  0  0  0  0  0  0  0  0
   36.6820   31.3030   39.9300 C   0  0  0  0  0  0  0  0  0  0  0  0
   35.8120   31.9880   39.7620 H   0  0  0  0  0  0  0  0  0  0  0  0
   37.5510   31.9840   40.1510 H   0  0  0  0  0  0  0  0  0  0  0  0
   36.9050   30.4590   38.7840 N   0  0  0  0  0  0  0  0  0  0  0  0
   36.0940   30.5820   38.1310 H   0  0  0  0  0  0  0  0  0  0  0  0
   38.2550   31.1280   37.9030 S   0  0  0  0  0  0  0  0  0  0  0  0
   37.8790   32.4060   37.2220 O   0  0  0  0  0  0  0  0  0  0  0  0
   37.0950   32.5320   36.6560 H   0  0  0  0  0  0  0  0  0  0  0  0
   38.6830   30.1040   36.9020 O   0  0  0  0  0  0  0  0  0  0  0  0
   39.4040   29.4550   37.0930 H   0  0  0  0  0  0  0  0  0  0  0  0
   39.5460   31.4060   38.9330 O   0  0  0  0  0  0  0  0  0  0  0  0
   40.4270   32.4250   38.5850 C   0  0  0  0  0  0  0  0  0  0  0  0
   41.0180   33.5790   39.0880 C   0  0  0  0  0  0  0  0  0  0  0  0
   40.7090   33.7920   40.1050 H   0  0  0  0  0  0  0  0  0  0  0  0
   41.8320   34.0810   38.0760 C   0  0  0  0  0  0  0  0  0  0  0  0
   42.3630   34.9890   38.3270 H   0  0  0  0  0  0  0  0  0  0  0  0
   41.7270   33.2580   37.0160 N   0  0  0  0  0  0  0  0  0  0  0  0
   42.2700   33.4720   36.1510 H   0  0  0  0  0  0  0  0  0  0  0  0
   40.8870   32.2640   37.3120 N   0  0  0  0  0  0  0  0  0  0  0  0
  1  6  1  0  0  0  0
  2  1  2  0  0  0  0
  2  3  1  0  0  0  0
  3  4  2  0  0  0  0
  4  5  1  0  0  0  0
  5  8  1  0  0  0  0
  6  5  2  0  0  0  0
  7  3  1  0  0  0  0
  9 15  1  0  0  0  0
  9  1  1  0  0  0  0
  9 10  1  0  0  0  0
 10 16  1  0  0  0  0
 10 17  1  0  0  0  0
 11 19  1  0  0  0  0
 11 10  1  0  0  0  0
 12 21  1  0  0  0  0
 12 11  1  0  0  0  0
 13 23  1  0  0  0  0
 13 14  1  0  0  0  0
 13 12  1  0  0  0  0
 14  9  1  0  0  0  0
 18 11  1  0  0  0  0
 20 12  1  0  0  0  0
 22 13  1  0  0  0  0
 24 14  1  0  0  0  0
 25 14  1  0  0  0  0
 26 27  1  0  0  0  0
 26  2  1  0  0  0  0
 27 28  1  0  0  0  0
 27 29  1  0  0  0  0
 30 32  1  0  0  0  0
 30 27  1  0  0  0  0
 31 30  1  0  0  0  0
 33 30  1  0  0  0  0
 34 33  1  0  0  0  0
 35 33  1  0  0  0  0
 35 40  1  0  0  0  0
 36 35  1  0  0  0  0
 37 36  1  0  0  0  0
 38 39  1  0  0  0  0
 38 35  1  0  0  0  0
 41 40  1  0  0  0  0
 41 42  1  0  0  0  0
 42 43  1  0  0  0  0
 44 45  1  0  0  0  0
 44 42  2  0  0  0  0
 46 48  1  0  0  0  0
 46 44  1  0  0  0  0
 47 46  1  0  0  0  0
 48 41  2  0  0  0  0
M  END
>  <minimizedAffinity>
-5.44681311

$$$$
