
     RDKit          3D

 20 21  0  0  0  0  0  0  0  0999 V2000
   46.2549   34.8807   43.1671 C   0  0  0  0  0  0  0  0  0  0  0  0
   45.3323   35.9224   43.2750 C   0  0  0  0  0  0  0  0  0  0  0  0
   44.5636   35.9652   44.4537 C   0  0  0  0  0  0  0  0  0  0  0  0
   44.7633   35.0034   45.4018 N   0  0  0  0  0  0  0  0  0  0  0  0
   45.6795   34.0165   45.2318 C   0  0  0  0  0  0  0  0  0  0  0  0
   46.4199   33.9651   44.1101 N   0  0  0  0  0  0  0  0  0  0  0  0
   46.9890   34.9088   41.9507 C   0  0  0  0  0  0  0  0  0  0  0  0
   48.1249   35.3974   41.7471 O   0  0  0  0  0  0  0  0  0  0  0  0
   46.3565   34.3143   40.8487 O   0  0  0  0  0  0  0  0  0  0  0  0
   45.1494   36.6956   42.5488 H   0  0  0  0  0  0  0  0  0  0  0  0
   43.8259   36.7282   44.6323 H   0  0  0  0  0  0  0  0  0  0  0  0
   45.7260   33.3276   46.0660 H   0  0  0  0  0  0  0  0  0  0  0  0
   47.0260   34.3047   39.6069 C   0  0  0  0  0  0  0  0  0  0  0  0
   47.4178   33.2348   38.8283 C   0  0  0  0  0  0  0  0  0  0  0  0
   47.2331   32.2053   39.1208 H   0  0  0  0  0  0  0  0  0  0  0  0
   48.0298   33.7855   37.7204 C   0  0  0  0  0  0  0  0  0  0  0  0
   48.4462   33.1727   36.9186 H   0  0  0  0  0  0  0  0  0  0  0  0
   48.0033   35.1432   37.8356 N   0  0  0  0  0  0  0  0  0  0  0  0
   48.4317   35.7071   37.0689 H   0  0  0  0  0  0  0  0  0  0  0  0
   47.3945   35.4609   38.9799 N   0  0  0  0  0  0  0  0  0  0  0  0
  1  2  2  0
  1  6  1  0
  2  3  1  0
  3  4  2  0
  5  4  1  0
  6  5  2  0
  7  1  1  0
  8  7  2  0
  9  7  1  0
  2 10  1  0
  3 11  1  0
  5 12  1  0
 13 14  1  0
 14 15  1  0
 14 16  2  0
 16 17  1  0
 16 18  1  0
 18 19  1  0
 18 20  1  0
 20 13  2  0
  9 13  1  0
M  ISO  6  10  14  11  14  12  14  15  15  17  16  19   5
M  END
>  <DihAtoms>  (1) 
6,8,12,13

>  <DihDeg>  (1) 
-90.02378377239926

$$$$
