
 OpenBabel03242520033D

 24 26  0  0  0  0  0  0  0  0999 V2000
   38.8770   31.8290   39.7330 C   0  0  0  0  0  0  0  0  0  0  0  0
   37.5750   32.3420   39.7550 C   0  0  0  0  0  0  0  0  0  0  0  0
   36.8540   31.5060   40.5820 C   0  0  0  0  0  0  0  0  0  0  0  0
   37.6740   30.5430   41.0330 N   0  0  0  0  0  0  0  0  0  0  0  0
   38.8810   30.7620   40.5080 N   0  0  0  0  0  0  0  0  0  0  0  0
   37.2220   33.2240   39.2210 H   0  0  0  0  0  0  0  0  0  0  0  0
   35.8150   31.5950   40.8330 H   0  0  0  0  0  0  0  0  0  0  0  0
   37.2990   29.5010   41.9070 C   0  0  0  0  0  0  0  0  0  0  0  0
   38.0130   29.1090   43.0390 C   0  0  0  0  0  0  0  0  0  0  0  0
   38.9500   29.5980   43.3460 H   0  0  0  0  0  0  0  0  0  0  0  0
   37.3900   28.0640   43.6800 C   0  0  0  0  0  0  0  0  0  0  0  0
   37.7920   27.6270   44.5710 H   0  0  0  0  0  0  0  0  0  0  0  0
   36.2890   27.8270   42.9210 N   0  0  0  0  0  0  0  0  0  0  0  0
   35.6070   27.0670   43.1720 H   0  0  0  0  0  0  0  0  0  0  0  0
   36.2460   28.6670   41.8930 N   0  0  0  0  0  0  0  0  0  0  0  0
   41.5050   34.1610   38.6800 C   0  0  0  0  0  0  0  0  0  0  0  0
   42.0110   33.5490   37.5200 C   0  0  0  0  0  0  0  0  0  0  0  0
   41.4480   32.3330   37.1000 C   0  0  0  0  0  0  0  0  0  0  0  0
   40.4460   31.8490   37.8660 N   0  0  0  0  0  0  0  0  0  0  0  0
   39.9630   32.4280   38.9670 C   0  0  0  0  0  0  0  0  0  0  0  0
   40.4920   33.6000   39.3910 N   0  0  0  0  0  0  0  0  0  0  0  0
   41.9860   35.0790   38.9280 H   0  0  0  0  0  0  0  0  0  0  0  0
   42.8170   33.9810   36.9430 H   0  0  0  0  0  0  0  0  0  0  0  0
   41.7790   31.7990   36.2210 H   0  0  0  0  0  0  0  0  0  0  0  0
  1  2  1  0  0  0  0
  1  5  2  0  0  0  0
  2  3  2  0  0  0  0
  3  7  1  0  0  0  0
  3  4  1  0  0  0  0
  4  8  1  0  0  0  0
  5  4  1  0  0  0  0
  6  2  1  0  0  0  0
  8  9  1  0  0  0  0
  9 10  1  0  0  0  0
  9 11  2  0  0  0  0
 11 12  1  0  0  0  0
 13 14  1  0  0  0  0
 13 11  1  0  0  0  0
 15  8  2  0  0  0  0
 15 13  1  0  0  0  0
 16 22  1  0  0  0  0
 16 21  1  0  0  0  0
 17 16  2  0  0  0  0
 18 17  1  0  0  0  0
 18 19  2  0  0  0  0
 19 20  1  0  0  0  0
 20 21  2  0  0  0  0
 20  1  1  0  0  0  0
 23 17  1  0  0  0  0
 24 18  1  0  0  0  0
M  END
>  <minimizedAffinity>
-4.90045261

$$$$

 OpenBabel03242520033D

 24 26  0  0  0  0  0  0  0  0999 V2000
   38.8200   28.6830   42.3540 C   0  0  0  0  0  0  0  0  0  0  0  0
   38.1410   27.8630   43.2640 C   0  0  0  0  0  0  0  0  0  0  0  0
   39.0580   26.9200   43.6780 C   0  0  0  0  0  0  0  0  0  0  0  0
   40.2230   27.1560   43.0550 N   0  0  0  0  0  0  0  0  0  0  0  0
   40.0520   28.2180   42.2670 N   0  0  0  0  0  0  0  0  0  0  0  0
   37.1000   27.9660   43.5680 H   0  0  0  0  0  0  0  0  0  0  0  0
   38.8860   26.1260   44.3790 H   0  0  0  0  0  0  0  0  0  0  0  0
   41.4020   26.3990   43.2240 C   0  0  0  0  0  0  0  0  0  0  0  0
   42.6730   26.9340   43.4380 C   0  0  0  0  0  0  0  0  0  0  0  0
   42.8570   28.0170   43.4930 H   0  0  0  0  0  0  0  0  0  0  0  0
   43.6140   25.9380   43.5620 C   0  0  0  0  0  0  0  0  0  0  0  0
   44.6480   26.1570   43.7310 H   0  0  0  0  0  0  0  0  0  0  0  0
   42.8970   24.7940   43.4200 N   0  0  0  0  0  0  0  0  0  0  0  0
   43.3600   23.8510   43.4700 H   0  0  0  0  0  0  0  0  0  0  0  0
   41.6130   25.0730   43.2230 N   0  0  0  0  0  0  0  0  0  0  0  0
   36.2950   30.8210   40.7720 C   0  0  0  0  0  0  0  0  0  0  0  0
   37.0410   31.9520   40.4000 C   0  0  0  0  0  0  0  0  0  0  0  0
   38.4150   31.9790   40.6920 C   0  0  0  0  0  0  0  0  0  0  0  0
   38.9070   30.8900   41.3210 N   0  0  0  0  0  0  0  0  0  0  0  0
   38.2010   29.8150   41.6760 C   0  0  0  0  0  0  0  0  0  0  0  0
   36.8750   29.7670   41.4040 N   0  0  0  0  0  0  0  0  0  0  0  0
   35.2630   30.8810   40.5130 H   0  0  0  0  0  0  0  0  0  0  0  0
   36.5960   32.7990   39.8970 H   0  0  0  0  0  0  0  0  0  0  0  0
   39.0580   32.8100   40.4400 H   0  0  0  0  0  0  0  0  0  0  0  0
  1  2  1  0  0  0  0
  2  6  1  0  0  0  0
  2  3  2  0  0  0  0
  3  7  1  0  0  0  0
  4  8  1  0  0  0  0
  4  3  1  0  0  0  0
  5  1  2  0  0  0  0
  5  4  1  0  0  0  0
  8  9  1  0  0  0  0
  9 10  1  0  0  0  0
  9 11  2  0  0  0  0
 11 12  1  0  0  0  0
 13 14  1  0  0  0  0
 13 11  1  0  0  0  0
 15  8  2  0  0  0  0
 15 13  1  0  0  0  0
 16 21  1  0  0  0  0
 17 18  1  0  0  0  0
 17 16  2  0  0  0  0
 18 19  2  0  0  0  0
 19 20  1  0  0  0  0
 20  1  1  0  0  0  0
 21 20  2  0  0  0  0
 22 16  1  0  0  0  0
 23 17  1  0  0  0  0
 24 18  1  0  0  0  0
M  END
>  <minimizedAffinity>
-4.8628459

$$$$

 OpenBabel03242520033D

 24 26  0  0  0  0  0  0  0  0999 V2000
   37.7280   29.5440   41.4870 C   0  0  0  0  0  0  0  0  0  0  0  0
   36.4440   29.0750   41.7900 C   0  0  0  0  0  0  0  0  0  0  0  0
   36.6010   27.7570   42.1630 C   0  0  0  0  0  0  0  0  0  0  0  0
   37.9050   27.4470   42.0910 N   0  0  0  0  0  0  0  0  0  0  0  0
   38.5580   28.5360   41.6830 N   0  0  0  0  0  0  0  0  0  0  0  0
   35.5210   29.6510   41.7350 H   0  0  0  0  0  0  0  0  0  0  0  0
   35.8250   27.0810   42.4640 H   0  0  0  0  0  0  0  0  0  0  0  0
   38.4580   26.1860   42.3980 C   0  0  0  0  0  0  0  0  0  0  0  0
   39.5840   25.9780   43.1960 C   0  0  0  0  0  0  0  0  0  0  0  0
   40.1400   26.8060   43.6600 H   0  0  0  0  0  0  0  0  0  0  0  0
   39.8720   24.6370   43.3050 C   0  0  0  0  0  0  0  0  0  0  0  0
   40.7030   24.2830   43.8800 H   0  0  0  0  0  0  0  0  0  0  0  0
   38.9070   24.0360   42.5620 N   0  0  0  0  0  0  0  0  0  0  0  0
   38.8710   22.9900   42.4590 H   0  0  0  0  0  0  0  0  0  0  0  0
   38.0910   24.9450   42.0390 N   0  0  0  0  0  0  0  0  0  0  0  0
   39.4220   32.7630   41.0200 C   0  0  0  0  0  0  0  0  0  0  0  0
   38.5180   33.4690   40.2070 C   0  0  0  0  0  0  0  0  0  0  0  0
   37.3240   32.8380   39.8200 C   0  0  0  0  0  0  0  0  0  0  0  0
   37.1480   31.5780   40.2740 N   0  0  0  0  0  0  0  0  0  0  0  0
   38.0040   30.9050   41.0450 C   0  0  0  0  0  0  0  0  0  0  0  0
   39.1610   31.4940   41.4300 N   0  0  0  0  0  0  0  0  0  0  0  0
   40.3000   33.3130   41.2680 H   0  0  0  0  0  0  0  0  0  0  0  0
   38.7100   34.4790   39.8710 H   0  0  0  0  0  0  0  0  0  0  0  0
   36.5790   33.3110   39.1980 H   0  0  0  0  0  0  0  0  0  0  0  0
  1  5  2  0  0  0  0
  1  2  1  0  0  0  0
  2  3  2  0  0  0  0
  3  7  1  0  0  0  0
  4  3  1  0  0  0  0
  4  8  1  0  0  0  0
  5  4  1  0  0  0  0
  6  2  1  0  0  0  0
  8  9  1  0  0  0  0
  9 11  2  0  0  0  0
  9 10  1  0  0  0  0
 11 12  1  0  0  0  0
 13 11  1  0  0  0  0
 14 13  1  0  0  0  0
 15  8  2  0  0  0  0
 15 13  1  0  0  0  0
 16 22  1  0  0  0  0
 16 21  1  0  0  0  0
 17 16  2  0  0  0  0
 18 17  1  0  0  0  0
 18 19  2  0  0  0  0
 19 20  1  0  0  0  0
 20 21  2  0  0  0  0
 20  1  1  0  0  0  0
 23 17  1  0  0  0  0
 24 18  1  0  0  0  0
M  END
>  <minimizedAffinity>
-4.68266201

$$$$

 OpenBabel03242520033D

 24 26  0  0  0  0  0  0  0  0999 V2000
   38.5770   28.2680   41.8170 C   0  0  0  0  0  0  0  0  0  0  0  0
   39.2180   28.9660   42.8480 C   0  0  0  0  0  0  0  0  0  0  0  0
   39.1920   30.2940   42.4790 C   0  0  0  0  0  0  0  0  0  0  0  0
   38.5710   30.3940   41.2930 N   0  0  0  0  0  0  0  0  0  0  0  0
   38.2120   29.1640   40.9200 N   0  0  0  0  0  0  0  0  0  0  0  0
   39.6450   28.5280   43.7510 H   0  0  0  0  0  0  0  0  0  0  0  0
   39.5940   31.1200   43.0330 H   0  0  0  0  0  0  0  0  0  0  0  0
   38.3490   31.5970   40.5910 C   0  0  0  0  0  0  0  0  0  0  0  0
   37.1360   31.9780   40.0160 C   0  0  0  0  0  0  0  0  0  0  0  0
   36.2350   31.3490   40.0680 H   0  0  0  0  0  0  0  0  0  0  0  0
   37.2430   33.2030   39.4020 C   0  0  0  0  0  0  0  0  0  0  0  0
   36.4120   33.6600   38.9040 H   0  0  0  0  0  0  0  0  0  0  0  0
   38.5360   33.5610   39.6120 N   0  0  0  0  0  0  0  0  0  0  0  0
   38.9150   34.4720   39.2490 H   0  0  0  0  0  0  0  0  0  0  0  0
   39.1700   32.6210   40.3040 N   0  0  0  0  0  0  0  0  0  0  0  0
   39.2810   24.6810   41.5240 C   0  0  0  0  0  0  0  0  0  0  0  0
   38.0370   24.0990   41.8250 C   0  0  0  0  0  0  0  0  0  0  0  0
   36.9550   24.9420   42.1290 C   0  0  0  0  0  0  0  0  0  0  0  0
   37.2130   26.2670   42.1050 N   0  0  0  0  0  0  0  0  0  0  0  0
   38.3920   26.8230   41.8190 C   0  0  0  0  0  0  0  0  0  0  0  0
   39.4490   26.0290   41.5230 N   0  0  0  0  0  0  0  0  0  0  0  0
   40.0460   23.9730   41.3050 H   0  0  0  0  0  0  0  0  0  0  0  0
   37.8860   23.0290   41.8310 H   0  0  0  0  0  0  0  0  0  0  0  0
   35.9690   24.5750   42.3710 H   0  0  0  0  0  0  0  0  0  0  0  0
  1 20  1  0  0  0  0
  1  2  1  0  0  0  0
  2  6  1  0  0  0  0
  3  2  2  0  0  0  0
  3  7  1  0  0  0  0
  4  3  1  0  0  0  0
  5  4  1  0  0  0  0
  5  1  2  0  0  0  0
  8  4  1  0  0  0  0
  9 10  1  0  0  0  0
  9  8  1  0  0  0  0
 11 13  1  0  0  0  0
 11  9  2  0  0  0  0
 12 11  1  0  0  0  0
 13 15  1  0  0  0  0
 14 13  1  0  0  0  0
 15  8  2  0  0  0  0
 16 17  1  0  0  0  0
 17 23  1  0  0  0  0
 17 18  2  0  0  0  0
 18 24  1  0  0  0  0
 19 18  1  0  0  0  0
 20 19  2  0  0  0  0
 21 16  2  0  0  0  0
 21 20  1  0  0  0  0
 22 16  1  0  0  0  0
M  END
>  <minimizedAffinity>
-4.60902786

$$$$

 OpenBabel03242520033D

 24 26  0  0  0  0  0  0  0  0999 V2000
   37.3630   27.8090   41.3230 C   0  0  0  0  0  0  0  0  0  0  0  0
   37.6730   28.1730   42.6390 C   0  0  0  0  0  0  0  0  0  0  0  0
   37.9370   29.5260   42.6050 C   0  0  0  0  0  0  0  0  0  0  0  0
   37.7950   29.9560   41.3410 N   0  0  0  0  0  0  0  0  0  0  0  0
   37.4510   28.9060   40.5940 N   0  0  0  0  0  0  0  0  0  0  0  0
   37.6960   27.5070   43.5010 H   0  0  0  0  0  0  0  0  0  0  0  0
   38.2100   30.1450   43.4370 H   0  0  0  0  0  0  0  0  0  0  0  0
   37.9820   31.2860   40.9100 C   0  0  0  0  0  0  0  0  0  0  0  0
   37.1070   31.9890   40.0810 C   0  0  0  0  0  0  0  0  0  0  0  0
   36.1790   31.5470   39.6910 H   0  0  0  0  0  0  0  0  0  0  0  0
   37.5700   33.2620   39.8420 C   0  0  0  0  0  0  0  0  0  0  0  0
   37.0300   33.9520   39.2250 H   0  0  0  0  0  0  0  0  0  0  0  0
   38.7350   33.3210   40.5350 N   0  0  0  0  0  0  0  0  0  0  0  0
   39.3240   34.1920   40.5390 H   0  0  0  0  0  0  0  0  0  0  0  0
   38.9660   32.1670   41.1520 N   0  0  0  0  0  0  0  0  0  0  0  0
   36.8390   24.1820   41.4610 C   0  0  0  0  0  0  0  0  0  0  0  0
   36.3710   23.8920   40.1670 C   0  0  0  0  0  0  0  0  0  0  0  0
   36.2360   24.9440   39.2470 C   0  0  0  0  0  0  0  0  0  0  0  0
   36.5760   26.1710   39.6980 N   0  0  0  0  0  0  0  0  0  0  0  0
   37.0200   26.4500   40.9250 C   0  0  0  0  0  0  0  0  0  0  0  0
   37.1570   25.4510   41.8280 N   0  0  0  0  0  0  0  0  0  0  0  0
   36.9120   23.3290   42.0950 H   0  0  0  0  0  0  0  0  0  0  0  0
   36.1120   22.8880   39.8580 H   0  0  0  0  0  0  0  0  0  0  0  0
   35.8840   24.8050   38.2350 H   0  0  0  0  0  0  0  0  0  0  0  0
  1  2  1  0  0  0  0
  2  6  1  0  0  0  0
  3  2  2  0  0  0  0
  3  7  1  0  0  0  0
  4  3  1  0  0  0  0
  5  1  2  0  0  0  0
  5  4  1  0  0  0  0
  8 15  2  0  0  0  0
  8  4  1  0  0  0  0
  9  8  1  0  0  0  0
 10  9  1  0  0  0  0
 11  9  2  0  0  0  0
 11 13  1  0  0  0  0
 12 11  1  0  0  0  0
 13 14  1  0  0  0  0
 13 15  1  0  0  0  0
 16 21  1  0  0  0  0
 16 22  1  0  0  0  0
 17 16  2  0  0  0  0
 18 19  2  0  0  0  0
 18 17  1  0  0  0  0
 19 20  1  0  0  0  0
 20  1  1  0  0  0  0
 20 21  2  0  0  0  0
 23 17  1  0  0  0  0
 24 18  1  0  0  0  0
M  END
>  <minimizedAffinity>
-4.57987738

$$$$

 OpenBabel03242520033D

 24 26  0  0  0  0  0  0  0  0999 V2000
   39.2560   29.6620   41.6880 C   0  0  0  0  0  0  0  0  0  0  0  0
   40.4200   29.6620   42.4650 C   0  0  0  0  0  0  0  0  0  0  0  0
   40.6360   28.3470   42.8220 C   0  0  0  0  0  0  0  0  0  0  0  0
   39.6580   27.5960   42.2920 N   0  0  0  0  0  0  0  0  0  0  0  0
   38.8440   28.4100   41.6170 N   0  0  0  0  0  0  0  0  0  0  0  0
   41.0200   30.5340   42.7230 H   0  0  0  0  0  0  0  0  0  0  0  0
   41.4430   27.9720   43.4210 H   0  0  0  0  0  0  0  0  0  0  0  0
   39.5380   26.1980   42.4380 C   0  0  0  0  0  0  0  0  0  0  0  0
   39.2820   25.3030   41.3990 C   0  0  0  0  0  0  0  0  0  0  0  0
   39.1510   25.6300   40.3560 H   0  0  0  0  0  0  0  0  0  0  0  0
   39.2210   24.0110   41.8630 C   0  0  0  0  0  0  0  0  0  0  0  0
   39.0330   23.1840   41.2100 H   0  0  0  0  0  0  0  0  0  0  0  0
   39.4440   24.1330   43.1970 N   0  0  0  0  0  0  0  0  0  0  0  0
   39.4570   23.2920   43.8270 H   0  0  0  0  0  0  0  0  0  0  0  0
   39.6260   25.4090   43.5210 N   0  0  0  0  0  0  0  0  0  0  0  0
   36.9940   31.8800   39.8400 C   0  0  0  0  0  0  0  0  0  0  0  0
   37.5910   33.1410   40.0160 C   0  0  0  0  0  0  0  0  0  0  0  0
   38.7730   33.2280   40.7700 C   0  0  0  0  0  0  0  0  0  0  0  0
   39.2410   32.0650   41.2720 N   0  0  0  0  0  0  0  0  0  0  0  0
   38.6770   30.8670   41.1070 C   0  0  0  0  0  0  0  0  0  0  0  0
   37.5370   30.7600   40.3840 N   0  0  0  0  0  0  0  0  0  0  0  0
   36.1030   31.9030   39.2560 H   0  0  0  0  0  0  0  0  0  0  0  0
   37.1720   34.0430   39.5910 H   0  0  0  0  0  0  0  0  0  0  0  0
   39.2920   34.1570   40.9510 H   0  0  0  0  0  0  0  0  0  0  0  0
  1  2  1  0  0  0  0
  2  6  1  0  0  0  0
  2  3  2  0  0  0  0
  3  7  1  0  0  0  0
  4  8  1  0  0  0  0
  4  3  1  0  0  0  0
  5  1  2  0  0  0  0
  5  4  1  0  0  0  0
  8 15  2  0  0  0  0
  9 11  2  0  0  0  0
  9  8  1  0  0  0  0
 10  9  1  0  0  0  0
 11 13  1  0  0  0  0
 12 11  1  0  0  0  0
 13 15  1  0  0  0  0
 13 14  1  0  0  0  0
 16 17  2  0  0  0  0
 16 21  1  0  0  0  0
 17 18  1  0  0  0  0
 18 24  1  0  0  0  0
 18 19  2  0  0  0  0
 20 19  1  0  0  0  0
 20  1  1  0  0  0  0
 21 20  2  0  0  0  0
 22 16  1  0  0  0  0
 23 17  1  0  0  0  0
M  END
>  <minimizedAffinity>
-4.31258106

$$$$

 OpenBabel03242520033D

 24 26  0  0  0  0  0  0  0  0999 V2000
   35.5960   29.5420   38.5430 C   0  0  0  0  0  0  0  0  0  0  0  0
   35.2490   29.2900   39.8760 C   0  0  0  0  0  0  0  0  0  0  0  0
   35.9270   30.2260   40.6270 C   0  0  0  0  0  0  0  0  0  0  0  0
   36.6440   31.0000   39.7970 N   0  0  0  0  0  0  0  0  0  0  0  0
   36.4270   30.5680   38.5540 N   0  0  0  0  0  0  0  0  0  0  0  0
   34.5770   28.5070   40.2270 H   0  0  0  0  0  0  0  0  0  0  0  0
   35.8980   30.3320   41.6940 H   0  0  0  0  0  0  0  0  0  0  0  0
   37.4700   32.0720   40.1960 C   0  0  0  0  0  0  0  0  0  0  0  0
   37.4790   33.3380   39.6090 C   0  0  0  0  0  0  0  0  0  0  0  0
   36.8230   33.6020   38.7660 H   0  0  0  0  0  0  0  0  0  0  0  0
   38.3940   34.1610   40.2220 C   0  0  0  0  0  0  0  0  0  0  0  0
   38.5430   35.1730   39.9070 H   0  0  0  0  0  0  0  0  0  0  0  0
   38.9390   33.3780   41.1880 N   0  0  0  0  0  0  0  0  0  0  0  0
   39.6850   33.7460   41.8310 H   0  0  0  0  0  0  0  0  0  0  0  0
   38.3950   32.1660   41.1650 N   0  0  0  0  0  0  0  0  0  0  0  0
   34.2090   26.7660   36.5900 C   0  0  0  0  0  0  0  0  0  0  0  0
   34.1310   27.3100   35.2970 C   0  0  0  0  0  0  0  0  0  0  0  0
   34.5570   28.6340   35.0960 C   0  0  0  0  0  0  0  0  0  0  0  0
   35.0140   29.2800   36.1900 N   0  0  0  0  0  0  0  0  0  0  0  0
   35.0890   28.7670   37.4190 C   0  0  0  0  0  0  0  0  0  0  0  0
   34.6830   27.4930   37.6360 N   0  0  0  0  0  0  0  0  0  0  0  0
   33.8670   25.7590   36.6560 H   0  0  0  0  0  0  0  0  0  0  0  0
   33.7560   26.7460   34.4540 H   0  0  0  0  0  0  0  0  0  0  0  0
   34.5300   29.1250   34.1340 H   0  0  0  0  0  0  0  0  0  0  0  0
  1  5  2  0  0  0  0
  1  2  1  0  0  0  0
  2  6  1  0  0  0  0
  2  3  2  0  0  0  0
  3  7  1  0  0  0  0
  4  8  1  0  0  0  0
  4  3  1  0  0  0  0
  5  4  1  0  0  0  0
  8 15  2  0  0  0  0
  9  8  1  0  0  0  0
  9 11  2  0  0  0  0
 10  9  1  0  0  0  0
 11 13  1  0  0  0  0
 12 11  1  0  0  0  0
 13 14  1  0  0  0  0
 15 13  1  0  0  0  0
 16 22  1  0  0  0  0
 16 21  1  0  0  0  0
 17 16  2  0  0  0  0
 18 17  1  0  0  0  0
 18 19  2  0  0  0  0
 19 20  1  0  0  0  0
 20 21  2  0  0  0  0
 20  1  1  0  0  0  0
 23 17  1  0  0  0  0
 24 18  1  0  0  0  0
M  END
>  <minimizedAffinity>
-4.31189775

$$$$

 OpenBabel03242520033D

 24 26  0  0  0  0  0  0  0  0999 V2000
   36.9700   28.5720   40.0850 C   0  0  0  0  0  0  0  0  0  0  0  0
   36.1790   28.9150   38.9810 C   0  0  0  0  0  0  0  0  0  0  0  0
   36.4540   30.2390   38.7160 C   0  0  0  0  0  0  0  0  0  0  0  0
   37.3590   30.6730   39.6070 N   0  0  0  0  0  0  0  0  0  0  0  0
   37.6510   29.6530   40.4160 N   0  0  0  0  0  0  0  0  0  0  0  0
   35.4920   28.2530   38.4540 H   0  0  0  0  0  0  0  0  0  0  0  0
   36.0270   30.8370   37.9340 H   0  0  0  0  0  0  0  0  0  0  0  0
   37.8900   31.9790   39.6560 C   0  0  0  0  0  0  0  0  0  0  0  0
   39.2450   32.2890   39.7830 C   0  0  0  0  0  0  0  0  0  0  0  0
   40.0230   31.5150   39.8560 H   0  0  0  0  0  0  0  0  0  0  0  0
   39.4410   33.6500   39.8010 C   0  0  0  0  0  0  0  0  0  0  0  0
   40.4180   34.0790   39.8920 H   0  0  0  0  0  0  0  0  0  0  0  0
   38.1890   34.1610   39.6830 N   0  0  0  0  0  0  0  0  0  0  0  0
   38.0230   35.1990   39.6670 H   0  0  0  0  0  0  0  0  0  0  0  0
   37.2950   33.1820   39.6000 N   0  0  0  0  0  0  0  0  0  0  0  0
   37.0710   25.9090   42.6040 C   0  0  0  0  0  0  0  0  0  0  0  0
   36.9840   24.7440   41.8220 C   0  0  0  0  0  0  0  0  0  0  0  0
   36.8910   24.8750   40.4260 C   0  0  0  0  0  0  0  0  0  0  0  0
   36.8940   26.1380   39.9490 N   0  0  0  0  0  0  0  0  0  0  0  0
   36.9760   27.2460   40.6890 C   0  0  0  0  0  0  0  0  0  0  0  0
   37.0650   27.1440   42.0360 N   0  0  0  0  0  0  0  0  0  0  0  0
   37.1380   25.7220   43.6510 H   0  0  0  0  0  0  0  0  0  0  0  0
   36.9870   23.7540   42.2570 H   0  0  0  0  0  0  0  0  0  0  0  0
   36.8220   24.0310   39.7560 H   0  0  0  0  0  0  0  0  0  0  0  0
  1  5  2  0  0  0  0
  1 20  1  0  0  0  0
  2  1  1  0  0  0  0
  3  2  2  0  0  0  0
  3  4  1  0  0  0  0
  4  8  1  0  0  0  0
  4  5  1  0  0  0  0
  6  2  1  0  0  0  0
  7  3  1  0  0  0  0
  8  9  1  0  0  0  0
  9 11  2  0  0  0  0
  9 10  1  0  0  0  0
 11 12  1  0  0  0  0
 13 11  1  0  0  0  0
 14 13  1  0  0  0  0
 15  8  2  0  0  0  0
 15 13  1  0  0  0  0
 16 22  1  0  0  0  0
 17 23  1  0  0  0  0
 17 16  2  0  0  0  0
 18 17  1  0  0  0  0
 19 18  2  0  0  0  0
 19 20  1  0  0  0  0
 20 21  2  0  0  0  0
 21 16  1  0  0  0  0
 24 18  1  0  0  0  0
M  END
>  <minimizedAffinity>
-4.30989933

$$$$

 OpenBabel03242520033D

 24 26  0  0  0  0  0  0  0  0999 V2000
   37.4160   26.9780   41.4750 C   0  0  0  0  0  0  0  0  0  0  0  0
   37.0380   27.2490   42.7960 C   0  0  0  0  0  0  0  0  0  0  0  0
   37.5330   28.5050   43.0810 C   0  0  0  0  0  0  0  0  0  0  0  0
   38.1730   28.9660   41.9950 N   0  0  0  0  0  0  0  0  0  0  0  0
   38.0870   28.0300   41.0480 N   0  0  0  0  0  0  0  0  0  0  0  0
   36.4680   26.5890   43.4490 H   0  0  0  0  0  0  0  0  0  0  0  0
   37.4320   29.0370   44.0060 H   0  0  0  0  0  0  0  0  0  0  0  0
   38.8130   30.2200   41.9010 C   0  0  0  0  0  0  0  0  0  0  0  0
   38.6700   31.1140   40.8390 C   0  0  0  0  0  0  0  0  0  0  0  0
   38.0290   30.9020   39.9700 H   0  0  0  0  0  0  0  0  0  0  0  0
   39.4230   32.2470   41.0420 C   0  0  0  0  0  0  0  0  0  0  0  0
   39.4400   33.0480   40.3320 H   0  0  0  0  0  0  0  0  0  0  0  0
   40.0230   32.0280   42.2400 N   0  0  0  0  0  0  0  0  0  0  0  0
   40.6720   32.7390   42.6620 H   0  0  0  0  0  0  0  0  0  0  0  0
   39.6620   30.8470   42.7310 N   0  0  0  0  0  0  0  0  0  0  0  0
   36.1180   24.6540   38.9530 C   0  0  0  0  0  0  0  0  0  0  0  0
   36.4700   23.4000   39.4830 C   0  0  0  0  0  0  0  0  0  0  0  0
   37.1540   23.3540   40.7090 C   0  0  0  0  0  0  0  0  0  0  0  0
   37.4190   24.5470   41.2830 N   0  0  0  0  0  0  0  0  0  0  0  0
   37.0860   25.7390   40.7830 C   0  0  0  0  0  0  0  0  0  0  0  0
   36.4270   25.8070   39.6020 N   0  0  0  0  0  0  0  0  0  0  0  0
   35.6030   24.5990   38.0220 H   0  0  0  0  0  0  0  0  0  0  0  0
   36.2330   22.4720   38.9800 H   0  0  0  0  0  0  0  0  0  0  0  0
   37.4590   22.4330   41.1820 H   0  0  0  0  0  0  0  0  0  0  0  0
  1  2  1  0  0  0  0
  2  3  2  0  0  0  0
  2  6  1  0  0  0  0
  3  7  1  0  0  0  0
  4  3  1  0  0  0  0
  5  1  2  0  0  0  0
  5  4  1  0  0  0  0
  8  4  1  0  0  0  0
  8 15  2  0  0  0  0
  9 11  2  0  0  0  0
  9  8  1  0  0  0  0
 10  9  1  0  0  0  0
 11 13  1  0  0  0  0
 12 11  1  0  0  0  0
 13 14  1  0  0  0  0
 13 15  1  0  0  0  0
 16 17  2  0  0  0  0
 16 21  1  0  0  0  0
 17 18  1  0  0  0  0
 18 24  1  0  0  0  0
 18 19  2  0  0  0  0
 20 19  1  0  0  0  0
 20  1  1  0  0  0  0
 21 20  2  0  0  0  0
 22 16  1  0  0  0  0
 23 17  1  0  0  0  0
M  END
>  <minimizedAffinity>
-4.28566599

$$$$
