
 OpenBabel03252506163D

 38 40  0  0  0  0  0  0  0  0999 V2000
   39.7410   27.8860   40.3740 F   0  0  0  0  0  0  0  0  0  0  0  0
   38.8080   27.8040   41.2950 C   0  0  0  0  0  0  0  0  0  0  0  0
   39.1950   27.5880   42.6110 C   0  0  0  0  0  0  0  0  0  0  0  0
   38.2820   27.4850   43.6790 C   0  0  0  0  0  0  0  0  0  0  0  0
   36.9110   27.6050   43.4030 C   0  0  0  0  0  0  0  0  0  0  0  0
   36.5740   27.8180   42.0880 C   0  0  0  0  0  0  0  0  0  0  0  0
   37.4380   27.9190   41.0560 C   0  0  0  0  0  0  0  0  0  0  0  0
   38.6640   27.3140   44.6850 H   0  0  0  0  0  0  0  0  0  0  0  0
   36.2520   27.5190   44.2530 H   0  0  0  0  0  0  0  0  0  0  0  0
   35.4850   27.8990   42.0250 H   0  0  0  0  0  0  0  0  0  0  0  0
   42.4320   26.0480   43.3700 C   0  0  0  0  0  0  0  0  0  0  0  0
   43.2510   27.1840   43.5970 C   0  0  0  0  0  0  0  0  0  0  0  0
   42.6720   28.4790   43.4850 C   0  0  0  0  0  0  0  0  0  0  0  0
   41.3450   28.5430   43.1600 N   0  0  0  0  0  0  0  0  0  0  0  0
   40.6160   27.4600   42.9570 C   0  0  0  0  0  0  0  0  0  0  0  0
   41.1510   26.2230   43.0600 N   0  0  0  0  0  0  0  0  0  0  0  0
   44.2890   27.1380   43.8500 H   0  0  0  0  0  0  0  0  0  0  0  0
   43.2670   29.3650   43.6510 H   0  0  0  0  0  0  0  0  0  0  0  0
   43.0340   24.7850   43.4880 N   0  0  0  0  0  0  0  0  0  0  0  0
   42.9570   24.3300   42.5310 H   0  0  0  0  0  0  0  0  0  0  0  0
   43.4450   24.4570   44.3900 H   0  0  0  0  0  0  0  0  0  0  0  0
   36.9840   28.1310   39.7870 O   0  0  0  0  0  0  0  0  0  0  0  0
   38.0780   29.8970   38.1490 O   0  0  0  0  0  0  0  0  0  0  0  0
   36.8490   29.5980   38.9900 P   0  0  2  0  0  0  0  0  0  0  0  0
   36.6240   30.8480   40.1190 O   0  0  0  0  0  0  0  0  0  0  0  0
   37.5810   31.7940   40.4470 C   0  0  0  0  0  0  0  0  0  0  0  0
   37.5120   33.0600   39.8560 C   0  0  0  0  0  0  0  0  0  0  0  0
   36.8370   33.5340   39.1400 H   0  0  0  0  0  0  0  0  0  0  0  0
   38.5960   33.7490   40.3910 C   0  0  0  0  0  0  0  0  0  0  0  0
   38.9730   34.7580   40.2500 H   0  0  0  0  0  0  0  0  0  0  0  0
   39.2640   32.9470   41.2420 N   0  0  0  0  0  0  0  0  0  0  0  0
   40.0940   32.9830   41.8610 H   0  0  0  0  0  0  0  0  0  0  0  0
   38.6460   31.7800   41.2670 N   0  0  0  0  0  0  0  0  0  0  0  0
   35.4900   29.6720   37.9790 O   0  0  0  0  0  0  0  0  0  0  0  0
   34.4400   28.8880   38.5070 C   0  0  0  0  0  0  0  0  0  0  0  0
   34.8430   27.5650   38.2660 F   0  0  0  0  0  0  0  0  0  0  0  0
   34.3530   29.0550   39.8700 F   0  0  0  0  0  0  0  0  0  0  0  0
   33.2240   29.1760   37.9680 F   0  0  0  0  0  0  0  0  0  0  0  0
  1  2  1  0  0  0  0
  2  3  1  0  0  0  0
  3 15  1  0  0  0  0
  3  4  2  0  0  0  0
  4  8  1  0  0  0  0
  5  4  1  0  0  0  0
  5  9  1  0  0  0  0
  6  5  2  0  0  0  0
  7  2  2  0  0  0  0
  7  6  1  0  0  0  0
 10  6  1  0  0  0  0
 11 19  1  0  0  0  0
 11 12  1  0  0  0  0
 12 17  1  0  0  0  0
 13 12  2  0  0  0  0
 13 18  1  0  0  0  0
 14 13  1  0  0  0  0
 15 16  1  0  0  0  0
 15 14  2  0  0  0  0
 16 11  2  0  0  0  0
 19 21  1  0  0  0  0
 20 19  1  0  0  0  0
 22  7  1  0  0  0  0
 24 23  2  6  0  0  0
 24 22  1  0  0  0  0
 24 25  1  0  0  0  0
 25 26  1  0  0  0  0
 26 33  2  0  0  0  0
 27 29  2  0  0  0  0
 27 26  1  0  0  0  0
 28 27  1  0  0  0  0
 29 31  1  0  0  0  0
 30 29  1  0  0  0  0
 31 33  1  0  0  0  0
 31 32  1  0  0  0  0
 34 35  1  0  0  0  0
 34 24  1  0  0  0  0
 35 37  1  0  0  0  0
 36 35  1  0  0  0  0
 38 35  1  0  0  0  0
M  END
>  <minimizedAffinity>
-6.21394348

$$$$

 OpenBabel03252506163D

 38 40  0  0  0  0  0  0  0  0999 V2000
   37.3630   27.6200   39.0810 F   0  0  0  0  0  0  0  0  0  0  0  0
   37.4270   28.8510   39.5330 C   0  0  0  0  0  0  0  0  0  0  0  0
   36.8320   29.8610   38.7880 C   0  0  0  0  0  0  0  0  0  0  0  0
   36.8370   31.2150   39.1770 C   0  0  0  0  0  0  0  0  0  0  0  0
   37.4740   31.5650   40.3770 C   0  0  0  0  0  0  0  0  0  0  0  0
   38.0480   30.5350   41.0820 C   0  0  0  0  0  0  0  0  0  0  0  0
   38.0500   29.2340   40.7210 C   0  0  0  0  0  0  0  0  0  0  0  0
   36.3490   31.9490   38.5370 H   0  0  0  0  0  0  0  0  0  0  0  0
   37.4510   32.6140   40.6310 H   0  0  0  0  0  0  0  0  0  0  0  0
   38.4960   30.9510   41.9890 H   0  0  0  0  0  0  0  0  0  0  0  0
   36.2970   29.2670   35.2120 C   0  0  0  0  0  0  0  0  0  0  0  0
   34.9100   28.9760   35.1670 C   0  0  0  0  0  0  0  0  0  0  0  0
   34.1680   28.9890   36.3820 C   0  0  0  0  0  0  0  0  0  0  0  0
   34.8530   29.2840   37.5280 N   0  0  0  0  0  0  0  0  0  0  0  0
   36.1480   29.5500   37.5270 C   0  0  0  0  0  0  0  0  0  0  0  0
   36.8650   29.5420   36.3820 N   0  0  0  0  0  0  0  0  0  0  0  0
   34.3700   28.7440   34.2730 H   0  0  0  0  0  0  0  0  0  0  0  0
   33.1100   28.7720   36.3830 H   0  0  0  0  0  0  0  0  0  0  0  0
   37.0000   29.2450   33.9970 N   0  0  0  0  0  0  0  0  0  0  0  0
   37.7320   28.4800   34.0910 H   0  0  0  0  0  0  0  0  0  0  0  0
   36.7660   29.9010   33.2170 H   0  0  0  0  0  0  0  0  0  0  0  0
   38.6570   28.2960   41.5040 O   0  0  0  0  0  0  0  0  0  0  0  0
   36.5840   27.4370   42.9060 O   0  0  0  0  0  0  0  0  0  0  0  0
   37.9250   27.0290   42.3200 P   0  0  2  0  0  0  0  0  0  0  0  0
   38.9400   26.4840   43.5680 O   0  0  0  0  0  0  0  0  0  0  0  0
   40.2250   25.9990   43.3840 C   0  0  0  0  0  0  0  0  0  0  0  0
   41.3100   26.8290   43.6800 C   0  0  0  0  0  0  0  0  0  0  0  0
   41.4130   27.8510   44.0520 H   0  0  0  0  0  0  0  0  0  0  0  0
   42.4270   26.0520   43.3890 C   0  0  0  0  0  0  0  0  0  0  0  0
   43.4950   26.2400   43.4520 H   0  0  0  0  0  0  0  0  0  0  0  0
   42.0320   24.8410   42.9510 N   0  0  0  0  0  0  0  0  0  0  0  0
   42.4520   23.9520   42.6250 H   0  0  0  0  0  0  0  0  0  0  0  0
   40.7110   24.8220   42.9520 N   0  0  0  0  0  0  0  0  0  0  0  0
   37.6760   25.6730   41.3340 O   0  0  0  0  0  0  0  0  0  0  0  0
   36.9760   24.6710   42.0440 C   0  0  0  0  0  0  0  0  0  0  0  0
   36.1780   24.0520   41.0690 F   0  0  0  0  0  0  0  0  0  0  0  0
   37.8490   23.7250   42.5290 F   0  0  0  0  0  0  0  0  0  0  0  0
   36.2520   25.1530   43.0910 F   0  0  0  0  0  0  0  0  0  0  0  0
  1  2  1  0  0  0  0
  2  7  1  0  0  0  0
  3  4  1  0  0  0  0
  3  2  2  0  0  0  0
  4  5  2  0  0  0  0
  5  9  1  0  0  0  0
  5  6  1  0  0  0  0
  6 10  1  0  0  0  0
  7  6  2  0  0  0  0
  7 22  1  0  0  0  0
  8  4  1  0  0  0  0
 11 16  1  0  0  0  0
 12 11  2  0  0  0  0
 12 13  1  0  0  0  0
 13 18  1  0  0  0  0
 13 14  2  0  0  0  0
 15 14  1  0  0  0  0
 15  3  1  0  0  0  0
 16 15  2  0  0  0  0
 17 12  1  0  0  0  0
 19 20  1  0  0  0  0
 19 11  1  0  0  0  0
 21 19  1  0  0  0  0
 22 24  1  0  0  0  0
 24 23  2  1  0  0  0
 24 25  1  0  0  0  0
 26 25  1  0  0  0  0
 26 27  1  0  0  0  0
 27 28  1  0  0  0  0
 29 30  1  0  0  0  0
 29 27  2  0  0  0  0
 31 33  1  0  0  0  0
 31 29  1  0  0  0  0
 32 31  1  0  0  0  0
 33 26  2  0  0  0  0
 34 35  1  0  0  0  0
 34 24  1  0  0  0  0
 35 37  1  0  0  0  0
 35 38  1  0  0  0  0
 36 35  1  0  0  0  0
M  END
>  <minimizedAffinity>
-6.06415939

$$$$

 OpenBabel03252506163D

 38 40  0  0  0  0  0  0  0  0999 V2000
   40.5970   30.3970   40.5560 F   0  0  0  0  0  0  0  0  0  0  0  0
   39.5310   31.1570   40.4480 C   0  0  0  0  0  0  0  0  0  0  0  0
   39.6910   32.4620   40.0010 C   0  0  0  0  0  0  0  0  0  0  0  0
   38.6190   33.3640   39.8460 C   0  0  0  0  0  0  0  0  0  0  0  0
   37.3240   32.9250   40.1590 C   0  0  0  0  0  0  0  0  0  0  0  0
   37.2120   31.6270   40.5970 C   0  0  0  0  0  0  0  0  0  0  0  0
   38.2300   30.7540   40.7500 C   0  0  0  0  0  0  0  0  0  0  0  0
   38.8260   34.3720   39.4900 H   0  0  0  0  0  0  0  0  0  0  0  0
   36.5370   33.6510   40.0240 H   0  0  0  0  0  0  0  0  0  0  0  0
   36.1550   31.4240   40.7940 H   0  0  0  0  0  0  0  0  0  0  0  0
   42.4670   33.7760   38.0020 C   0  0  0  0  0  0  0  0  0  0  0  0
   43.4880   33.9190   38.9770 C   0  0  0  0  0  0  0  0  0  0  0  0
   43.2050   33.5570   40.3230 C   0  0  0  0  0  0  0  0  0  0  0  0
   41.9470   33.0890   40.5920 N   0  0  0  0  0  0  0  0  0  0  0  0
   41.0230   32.9710   39.6550 C   0  0  0  0  0  0  0  0  0  0  0  0
   41.2780   33.3100   38.3710 N   0  0  0  0  0  0  0  0  0  0  0  0
   44.4710   34.2850   38.7710 H   0  0  0  0  0  0  0  0  0  0  0  0
   43.9590   33.6530   41.0900 H   0  0  0  0  0  0  0  0  0  0  0  0
   42.7780   34.1430   36.6830 N   0  0  0  0  0  0  0  0  0  0  0  0
   42.1220   34.9410   36.4350 H   0  0  0  0  0  0  0  0  0  0  0  0
   43.5280   33.6560   36.1420 H   0  0  0  0  0  0  0  0  0  0  0  0
   37.9960   29.4850   41.1960 O   0  0  0  0  0  0  0  0  0  0  0  0
   38.8640   27.3810   39.8480 O   0  0  0  0  0  0  0  0  0  0  0  0
   37.6180   28.1400   40.2740 P   0  0  2  0  0  0  0  0  0  0  0  0
   36.7500   28.6130   38.8920 O   0  0  0  0  0  0  0  0  0  0  0  0
   35.3800   28.8120   38.8530 C   0  0  0  0  0  0  0  0  0  0  0  0
   34.6880   28.5220   37.6720 C   0  0  0  0  0  0  0  0  0  0  0  0
   34.9780   28.1450   36.6890 H   0  0  0  0  0  0  0  0  0  0  0  0
   33.3630   28.8260   37.9660 C   0  0  0  0  0  0  0  0  0  0  0  0
   32.4460   28.7720   37.3860 H   0  0  0  0  0  0  0  0  0  0  0  0
   33.2720   29.2670   39.2360 N   0  0  0  0  0  0  0  0  0  0  0  0
   32.5490   29.6020   39.8970 H   0  0  0  0  0  0  0  0  0  0  0  0
   34.4870   29.2540   39.7550 N   0  0  0  0  0  0  0  0  0  0  0  0
   36.5960   27.0570   41.0830 O   0  0  0  0  0  0  0  0  0  0  0  0
   37.1770   26.6510   42.3060 C   0  0  0  0  0  0  0  0  0  0  0  0
   36.2810   27.1110   43.2830 F   0  0  0  0  0  0  0  0  0  0  0  0
   37.2160   25.2780   42.3880 F   0  0  0  0  0  0  0  0  0  0  0  0
   38.4420   27.1200   42.4860 F   0  0  0  0  0  0  0  0  0  0  0  0
  2  1  1  0  0  0  0
  2  7  1  0  0  0  0
  3  2  2  0  0  0  0
  4  3  1  0  0  0  0
  4  5  2  0  0  0  0
  5  6  1  0  0  0  0
  6  7  2  0  0  0  0
  6 10  1  0  0  0  0
  7 22  1  0  0  0  0
  8  4  1  0  0  0  0
  9  5  1  0  0  0  0
 11 16  2  0  0  0  0
 11 12  1  0  0  0  0
 12 13  2  0  0  0  0
 13 14  1  0  0  0  0
 13 18  1  0  0  0  0
 15  3  1  0  0  0  0
 15 14  2  0  0  0  0
 16 15  1  0  0  0  0
 17 12  1  0  0  0  0
 19 11  1  0  0  0  0
 20 19  1  0  0  0  0
 21 19  1  0  0  0  0
 24 23  2  6  0  0  0
 24 34  1  0  0  0  0
 24 22  1  0  0  0  0
 25 24  1  0  0  0  0
 26 25  1  0  0  0  0
 26 33  2  0  0  0  0
 27 29  2  0  0  0  0
 27 26  1  0  0  0  0
 28 27  1  0  0  0  0
 29 31  1  0  0  0  0
 30 29  1  0  0  0  0
 31 33  1  0  0  0  0
 31 32  1  0  0  0  0
 34 35  1  0  0  0  0
 35 37  1  0  0  0  0
 35 38  1  0  0  0  0
 35 36  1  0  0  0  0
M  END
>  <minimizedAffinity>
-5.94205713

$$$$

 OpenBabel03252506163D

 38 40  0  0  0  0  0  0  0  0999 V2000
   39.5150   28.0550   40.3430 F   0  0  0  0  0  0  0  0  0  0  0  0
   38.6390   27.8720   41.3040 C   0  0  0  0  0  0  0  0  0  0  0  0
   39.1060   27.5620   42.5750 C   0  0  0  0  0  0  0  0  0  0  0  0
   38.2590   27.3470   43.6800 C   0  0  0  0  0  0  0  0  0  0  0  0
   36.8720   27.4510   43.4910 C   0  0  0  0  0  0  0  0  0  0  0  0
   36.4550   27.7590   42.2190 C   0  0  0  0  0  0  0  0  0  0  0  0
   37.2550   27.9680   41.1530 C   0  0  0  0  0  0  0  0  0  0  0  0
   38.7020   27.1070   44.6450 H   0  0  0  0  0  0  0  0  0  0  0  0
   36.2660   27.2770   44.3670 H   0  0  0  0  0  0  0  0  0  0  0  0
   35.3620   27.8140   42.2240 H   0  0  0  0  0  0  0  0  0  0  0  0
   42.3810   26.0530   43.2300 C   0  0  0  0  0  0  0  0  0  0  0  0
   43.2200   27.1950   43.3030 C   0  0  0  0  0  0  0  0  0  0  0  0
   42.6420   28.4830   43.1250 C   0  0  0  0  0  0  0  0  0  0  0  0
   41.2950   28.5350   42.8900 N   0  0  0  0  0  0  0  0  0  0  0  0
   40.5470   27.4470   42.8290 C   0  0  0  0  0  0  0  0  0  0  0  0
   41.0820   26.2170   42.9970 N   0  0  0  0  0  0  0  0  0  0  0  0
   44.2730   27.1580   43.4850 H   0  0  0  0  0  0  0  0  0  0  0  0
   43.2520   29.3720   43.1740 H   0  0  0  0  0  0  0  0  0  0  0  0
   42.9820   24.7970   43.4090 N   0  0  0  0  0  0  0  0  0  0  0  0
   42.8350   24.2660   42.5000 H   0  0  0  0  0  0  0  0  0  0  0  0
   43.4550   24.5400   44.3040 H   0  0  0  0  0  0  0  0  0  0  0  0
   36.7240   28.2680   39.9320 O   0  0  0  0  0  0  0  0  0  0  0  0
   34.2840   29.2570   39.6620 O   0  0  0  0  0  0  0  0  0  0  0  0
   35.7630   29.5840   39.5410 P   0  0  2  0  0  0  0  0  0  0  0  0
   36.0970   30.0890   37.9530 O   0  0  0  0  0  0  0  0  0  0  0  0
   36.6670   29.2890   36.9760 C   0  0  0  0  0  0  0  0  0  0  0  0
   35.8530   28.3900   36.2790 C   0  0  0  0  0  0  0  0  0  0  0  0
   34.7920   28.1360   36.3110 H   0  0  0  0  0  0  0  0  0  0  0  0
   36.7190   27.7580   35.3920 C   0  0  0  0  0  0  0  0  0  0  0  0
   36.5750   26.9870   34.6410 H   0  0  0  0  0  0  0  0  0  0  0  0
   37.9640   28.2490   35.5510 N   0  0  0  0  0  0  0  0  0  0  0  0
   38.9120   28.1190   35.1550 H   0  0  0  0  0  0  0  0  0  0  0  0
   37.9180   29.1650   36.5020 N   0  0  0  0  0  0  0  0  0  0  0  0
   36.0820   30.9390   40.5080 O   0  0  0  0  0  0  0  0  0  0  0  0
   37.1140   31.7190   39.9370 C   0  0  0  0  0  0  0  0  0  0  0  0
   38.1380   30.7950   39.6750 F   0  0  0  0  0  0  0  0  0  0  0  0
   36.7090   32.2460   38.7330 F   0  0  0  0  0  0  0  0  0  0  0  0
   37.5200   32.7460   40.7330 F   0  0  0  0  0  0  0  0  0  0  0  0
  1  2  1  0  0  0  0
  2  3  1  0  0  0  0
  3 15  1  0  0  0  0
  3  4  2  0  0  0  0
  4  8  1  0  0  0  0
  5  4  1  0  0  0  0
  5  9  1  0  0  0  0
  6 10  1  0  0  0  0
  6  5  2  0  0  0  0
  7  2  2  0  0  0  0
  7  6  1  0  0  0  0
 11 12  1  0  0  0  0
 11 19  1  0  0  0  0
 12 17  1  0  0  0  0
 13 18  1  0  0  0  0
 13 12  2  0  0  0  0
 14 13  1  0  0  0  0
 15 14  2  0  0  0  0
 15 16  1  0  0  0  0
 16 11  2  0  0  0  0
 19 21  1  0  0  0  0
 20 19  1  0  0  0  0
 22  7  1  0  0  0  0
 24 23  2  1  0  0  0
 24 22  1  0  0  0  0
 24 34  1  0  0  0  0
 25 24  1  0  0  0  0
 26 25  1  0  0  0  0
 27 28  1  0  0  0  0
 27 26  1  0  0  0  0
 29 31  1  0  0  0  0
 29 27  2  0  0  0  0
 30 29  1  0  0  0  0
 31 33  1  0  0  0  0
 32 31  1  0  0  0  0
 33 26  2  0  0  0  0
 35 34  1  0  0  0  0
 35 38  1  0  0  0  0
 36 35  1  0  0  0  0
 37 35  1  0  0  0  0
M  END
>  <minimizedAffinity>
-5.92101669

$$$$

 OpenBabel03252506163D

 38 40  0  0  0  0  0  0  0  0999 V2000
   40.4270   29.2560   38.4510 F   0  0  0  0  0  0  0  0  0  0  0  0
   40.4480   29.6480   39.7040 C   0  0  0  0  0  0  0  0  0  0  0  0
   41.3480   30.6400   40.0710 C   0  0  0  0  0  0  0  0  0  0  0  0
   41.4570   31.1380   41.3850 C   0  0  0  0  0  0  0  0  0  0  0  0
   40.6150   30.6080   42.3750 C   0  0  0  0  0  0  0  0  0  0  0  0
   39.7410   29.6290   41.9670 C   0  0  0  0  0  0  0  0  0  0  0  0
   39.6270   29.1440   40.7130 C   0  0  0  0  0  0  0  0  0  0  0  0
   42.1880   31.9180   41.5940 H   0  0  0  0  0  0  0  0  0  0  0  0
   40.7360   31.0220   43.3640 H   0  0  0  0  0  0  0  0  0  0  0  0
   39.1500   29.3190   42.8330 H   0  0  0  0  0  0  0  0  0  0  0  0
   42.6300   32.9320   37.5150 C   0  0  0  0  0  0  0  0  0  0  0  0
   43.8940   32.3610   37.2180 C   0  0  0  0  0  0  0  0  0  0  0  0
   44.2930   31.1820   37.9080 C   0  0  0  0  0  0  0  0  0  0  0  0
   43.4180   30.6710   38.8270 N   0  0  0  0  0  0  0  0  0  0  0  0
   42.2480   31.2330   39.0750 C   0  0  0  0  0  0  0  0  0  0  0  0
   41.8550   32.3530   38.4270 N   0  0  0  0  0  0  0  0  0  0  0  0
   44.5820   32.7580   36.5010 H   0  0  0  0  0  0  0  0  0  0  0  0
   45.2490   30.7220   37.7060 H   0  0  0  0  0  0  0  0  0  0  0  0
   42.2670   34.0950   36.8180 N   0  0  0  0  0  0  0  0  0  0  0  0
   42.1530   34.8560   37.5510 H   0  0  0  0  0  0  0  0  0  0  0  0
   42.1570   34.0980   35.7790 H   0  0  0  0  0  0  0  0  0  0  0  0
   38.7190   28.1660   40.4260 O   0  0  0  0  0  0  0  0  0  0  0  0
   36.3910   27.0480   39.8530 O   0  0  0  0  0  0  0  0  0  0  0  0
   37.0520   28.3170   40.3650 P   0  0  2  0  0  0  0  0  0  0  0  0
   36.6270   29.6170   39.3570 O   0  0  0  0  0  0  0  0  0  0  0  0
   36.8800   30.9490   39.6410 C   0  0  0  0  0  0  0  0  0  0  0  0
   37.0980   31.8360   38.5820 C   0  0  0  0  0  0  0  0  0  0  0  0
   37.1210   31.7380   37.4940 H   0  0  0  0  0  0  0  0  0  0  0  0
   37.3170   33.0620   39.2000 C   0  0  0  0  0  0  0  0  0  0  0  0
   37.5290   34.0570   38.8170 H   0  0  0  0  0  0  0  0  0  0  0  0
   37.2350   32.9150   40.5370 N   0  0  0  0  0  0  0  0  0  0  0  0
   37.3150   33.4910   41.3930 H   0  0  0  0  0  0  0  0  0  0  0  0
   36.9730   31.6440   40.7870 N   0  0  0  0  0  0  0  0  0  0  0  0
   36.3730   28.6910   41.8720 O   0  0  0  0  0  0  0  0  0  0  0  0
   36.8010   27.7640   42.8490 C   0  0  0  0  0  0  0  0  0  0  0  0
   37.6620   28.5060   43.6730 F   0  0  0  0  0  0  0  0  0  0  0  0
   35.7390   27.3510   43.6200 F   0  0  0  0  0  0  0  0  0  0  0  0
   37.3960   26.6590   42.3240 F   0  0  0  0  0  0  0  0  0  0  0  0
  1  2  1  0  0  0  0
  2  3  2  0  0  0  0
  2  7  1  0  0  0  0
  3  4  1  0  0  0  0
  4  8  1  0  0  0  0
  4  5  2  0  0  0  0
  5  9  1  0  0  0  0
  6  5  1  0  0  0  0
  6 10  1  0  0  0  0
  7  6  2  0  0  0  0
 11 16  1  0  0  0  0
 12 11  2  0  0  0  0
 12 13  1  0  0  0  0
 13 14  2  0  0  0  0
 14 15  1  0  0  0  0
 15  3  1  0  0  0  0
 16 15  2  0  0  0  0
 17 12  1  0  0  0  0
 18 13  1  0  0  0  0
 19 11  1  0  0  0  0
 19 20  1  0  0  0  0
 21 19  1  0  0  0  0
 22  7  1  0  0  0  0
 24 23  2  6  0  0  0
 24 22  1  0  0  0  0
 24 34  1  0  0  0  0
 25 26  1  0  0  0  0
 25 24  1  0  0  0  0
 26 33  2  0  0  0  0
 27 29  2  0  0  0  0
 27 26  1  0  0  0  0
 28 27  1  0  0  0  0
 29 31  1  0  0  0  0
 30 29  1  0  0  0  0
 31 33  1  0  0  0  0
 31 32  1  0  0  0  0
 34 35  1  0  0  0  0
 35 37  1  0  0  0  0
 35 36  1  0  0  0  0
 38 35  1  0  0  0  0
M  END
>  <minimizedAffinity>
-5.87896013

$$$$

 OpenBabel03252506163D

 38 40  0  0  0  0  0  0  0  0999 V2000
   38.0610   27.9690   38.7190 F   0  0  0  0  0  0  0  0  0  0  0  0
   37.8960   29.1550   39.2570 C   0  0  0  0  0  0  0  0  0  0  0  0
   37.0090   30.0370   38.6530 C   0  0  0  0  0  0  0  0  0  0  0  0
   36.7530   31.3330   39.1430 C   0  0  0  0  0  0  0  0  0  0  0  0
   37.4250   31.7580   40.2990 C   0  0  0  0  0  0  0  0  0  0  0  0
   38.2930   30.8540   40.8630 C   0  0  0  0  0  0  0  0  0  0  0  0
   38.5470   29.6100   40.4040 C   0  0  0  0  0  0  0  0  0  0  0  0
   36.0430   31.9670   38.6130 H   0  0  0  0  0  0  0  0  0  0  0  0
   37.1960   32.7580   40.6340 H   0  0  0  0  0  0  0  0  0  0  0  0
   38.7340   31.3150   41.7510 H   0  0  0  0  0  0  0  0  0  0  0  0
   36.3100   29.2900   35.1350 C   0  0  0  0  0  0  0  0  0  0  0  0
   34.9430   28.9150   35.1810 C   0  0  0  0  0  0  0  0  0  0  0  0
   34.2710   28.9250   36.4350 C   0  0  0  0  0  0  0  0  0  0  0  0
   35.0010   29.3010   37.5300 N   0  0  0  0  0  0  0  0  0  0  0  0
   36.2750   29.6430   37.4450 C   0  0  0  0  0  0  0  0  0  0  0  0
   36.9260   29.6380   36.2600 N   0  0  0  0  0  0  0  0  0  0  0  0
   34.3690   28.6200   34.3270 H   0  0  0  0  0  0  0  0  0  0  0  0
   33.2310   28.6460   36.5060 H   0  0  0  0  0  0  0  0  0  0  0  0
   36.9430   29.2680   33.8820 N   0  0  0  0  0  0  0  0  0  0  0  0
   37.7240   28.5520   33.9570 H   0  0  0  0  0  0  0  0  0  0  0  0
   36.6250   29.8810   33.0970 H   0  0  0  0  0  0  0  0  0  0  0  0
   39.4330   28.7990   41.0500 O   0  0  0  0  0  0  0  0  0  0  0  0
   39.4270   27.7470   43.4780 O   0  0  0  0  0  0  0  0  0  0  0  0
   39.0800   27.4810   42.0220 P   0  0  2  0  0  0  0  0  0  0  0  0
   39.9380   26.1180   41.4800 O   0  0  0  0  0  0  0  0  0  0  0  0
   39.3610   24.8990   41.1640 C   0  0  0  0  0  0  0  0  0  0  0  0
   39.2220   24.5460   39.8180 C   0  0  0  0  0  0  0  0  0  0  0  0
   39.4740   25.0270   38.8710 H   0  0  0  0  0  0  0  0  0  0  0  0
   38.6200   23.2920   39.8530 C   0  0  0  0  0  0  0  0  0  0  0  0
   38.3070   22.6000   39.0750 H   0  0  0  0  0  0  0  0  0  0  0  0
   38.4160   22.9240   41.1330 N   0  0  0  0  0  0  0  0  0  0  0  0
   38.0230   22.1270   41.6640 H   0  0  0  0  0  0  0  0  0  0  0  0
   38.8640   23.8960   41.9080 N   0  0  0  0  0  0  0  0  0  0  0  0
   37.4480   27.0300   41.9460 O   0  0  0  0  0  0  0  0  0  0  0  0
   36.6560   27.9160   42.7120 C   0  0  0  0  0  0  0  0  0  0  0  0
   35.7250   28.4260   41.7940 F   0  0  0  0  0  0  0  0  0  0  0  0
   35.9570   27.2260   43.6750 F   0  0  0  0  0  0  0  0  0  0  0  0
   37.3770   28.8900   43.3300 F   0  0  0  0  0  0  0  0  0  0  0  0
  1  2  1  0  0  0  0
  2  7  1  0  0  0  0
  3  4  1  0  0  0  0
  3  2  2  0  0  0  0
  4  5  2  0  0  0  0
  5  9  1  0  0  0  0
  5  6  1  0  0  0  0
  6 10  1  0  0  0  0
  7  6  2  0  0  0  0
  7 22  1  0  0  0  0
  8  4  1  0  0  0  0
 11 12  2  0  0  0  0
 11 16  1  0  0  0  0
 12 13  1  0  0  0  0
 13 18  1  0  0  0  0
 13 14  2  0  0  0  0
 15 14  1  0  0  0  0
 15  3  1  0  0  0  0
 16 15  2  0  0  0  0
 17 12  1  0  0  0  0
 19 20  1  0  0  0  0
 19 11  1  0  0  0  0
 21 19  1  0  0  0  0
 22 24  1  0  0  0  0
 24 23  2  1  0  0  0
 25 24  1  0  0  0  0
 26 25  1  0  0  0  0
 26 33  2  0  0  0  0
 27 29  2  0  0  0  0
 27 26  1  0  0  0  0
 28 27  1  0  0  0  0
 29 31  1  0  0  0  0
 30 29  1  0  0  0  0
 31 32  1  0  0  0  0
 31 33  1  0  0  0  0
 34 24  1  0  0  0  0
 34 35  1  0  0  0  0
 35 38  1  0  0  0  0
 35 37  1  0  0  0  0
 36 35  1  0  0  0  0
M  END
>  <minimizedAffinity>
-5.81084633

$$$$

 OpenBabel03252506163D

 38 40  0  0  0  0  0  0  0  0999 V2000
   37.4170   29.0700   39.2540 F   0  0  0  0  0  0  0  0  0  0  0  0
   37.3790   28.7230   40.5200 C   0  0  0  0  0  0  0  0  0  0  0  0
   37.8310   29.6310   41.4690 C   0  0  0  0  0  0  0  0  0  0  0  0
   37.8360   29.3660   42.8530 C   0  0  0  0  0  0  0  0  0  0  0  0
   37.3600   28.1240   43.2990 C   0  0  0  0  0  0  0  0  0  0  0  0
   36.9230   27.2570   42.3270 C   0  0  0  0  0  0  0  0  0  0  0  0
   36.9130   27.4980   40.9990 C   0  0  0  0  0  0  0  0  0  0  0  0
   38.2070   30.1300   43.5340 H   0  0  0  0  0  0  0  0  0  0  0  0
   37.3840   27.9690   44.3670 H   0  0  0  0  0  0  0  0  0  0  0  0
   36.5770   26.3420   42.8180 H   0  0  0  0  0  0  0  0  0  0  0  0
   37.8730   33.0370   40.1190 C   0  0  0  0  0  0  0  0  0  0  0  0
   39.2350   33.4000   40.2810 C   0  0  0  0  0  0  0  0  0  0  0  0
   40.1310   32.4570   40.8580 C   0  0  0  0  0  0  0  0  0  0  0  0
   39.6110   31.2460   41.2250 N   0  0  0  0  0  0  0  0  0  0  0  0
   38.3350   30.9470   41.0570 C   0  0  0  0  0  0  0  0  0  0  0  0
   37.4720   31.8320   40.5100 N   0  0  0  0  0  0  0  0  0  0  0  0
   39.6460   34.3450   39.9960 H   0  0  0  0  0  0  0  0  0  0  0  0
   41.1740   32.7000   40.9950 H   0  0  0  0  0  0  0  0  0  0  0  0
   37.0150   33.9900   39.5470 N   0  0  0  0  0  0  0  0  0  0  0  0
   36.2840   34.2110   40.2850 H   0  0  0  0  0  0  0  0  0  0  0  0
   37.1610   34.3440   38.5740 H   0  0  0  0  0  0  0  0  0  0  0  0
   36.4540   26.5560   40.1250 O   0  0  0  0  0  0  0  0  0  0  0  0
   38.8250   26.0450   39.0670 O   0  0  0  0  0  0  0  0  0  0  0  0
   37.3570   25.6530   39.0400 P   0  0  2  0  0  0  0  0  0  0  0  0
   36.7480   25.8650   37.4680 O   0  0  0  0  0  0  0  0  0  0  0  0
   37.0090   26.9630   36.6640 C   0  0  0  0  0  0  0  0  0  0  0  0
   35.9950   27.9030   36.4520 C   0  0  0  0  0  0  0  0  0  0  0  0
   34.9610   28.0000   36.7890 H   0  0  0  0  0  0  0  0  0  0  0  0
   36.5760   28.8530   35.6190 C   0  0  0  0  0  0  0  0  0  0  0  0
   36.2040   29.7720   35.1730 H   0  0  0  0  0  0  0  0  0  0  0  0
   37.8490   28.5030   35.3530 N   0  0  0  0  0  0  0  0  0  0  0  0
   38.6600   28.8550   34.8140 H   0  0  0  0  0  0  0  0  0  0  0  0
   38.0960   27.3690   35.9850 N   0  0  0  0  0  0  0  0  0  0  0  0
   37.2530   23.9860   39.3290 O   0  0  0  0  0  0  0  0  0  0  0  0
   37.3890   23.7160   40.7090 C   0  0  0  0  0  0  0  0  0  0  0  0
   36.1080   23.9490   41.2330 F   0  0  0  0  0  0  0  0  0  0  0  0
   37.6890   22.3900   40.9130 F   0  0  0  0  0  0  0  0  0  0  0  0
   38.3510   24.4650   41.3160 F   0  0  0  0  0  0  0  0  0  0  0  0
  1  2  1  0  0  0  0
  2  7  2  0  0  0  0
  2  3  1  0  0  0  0
  3  4  2  0  0  0  0
  4  5  1  0  0  0  0
  4  8  1  0  0  0  0
  5  9  1  0  0  0  0
  6 10  1  0  0  0  0
  6  5  2  0  0  0  0
  7  6  1  0  0  0  0
 11 12  2  0  0  0  0
 11 16  1  0  0  0  0
 12 13  1  0  0  0  0
 13 18  1  0  0  0  0
 13 14  2  0  0  0  0
 15 14  1  0  0  0  0
 15  3  1  0  0  0  0
 16 15  2  0  0  0  0
 17 12  1  0  0  0  0
 19 11  1  0  0  0  0
 19 20  1  0  0  0  0
 21 19  1  0  0  0  0
 22  7  1  0  0  0  0
 24 23  2  1  0  0  0
 24 34  1  0  0  0  0
 24 22  1  0  0  0  0
 25 24  1  0  0  0  0
 26 25  1  0  0  0  0
 27 26  1  0  0  0  0
 27 28  1  0  0  0  0
 29 27  2  0  0  0  0
 30 29  1  0  0  0  0
 31 29  1  0  0  0  0
 31 33  1  0  0  0  0
 32 31  1  0  0  0  0
 33 26  2  0  0  0  0
 34 35  1  0  0  0  0
 35 37  1  0  0  0  0
 35 36  1  0  0  0  0
 35 38  1  0  0  0  0
M  END
>  <minimizedAffinity>
-5.78221369

$$$$

 OpenBabel03252506163D

 38 40  0  0  0  0  0  0  0  0999 V2000
   40.1880   29.8500   40.6050 F   0  0  0  0  0  0  0  0  0  0  0  0
   39.0310   30.0000   40.0030 C   0  0  0  0  0  0  0  0  0  0  0  0
   38.7950   31.1800   39.3080 C   0  0  0  0  0  0  0  0  0  0  0  0
   37.5930   31.4480   38.6250 C   0  0  0  0  0  0  0  0  0  0  0  0
   36.5800   30.4770   38.6440 C   0  0  0  0  0  0  0  0  0  0  0  0
   36.8560   29.3260   39.3430 C   0  0  0  0  0  0  0  0  0  0  0  0
   38.0030   29.0570   40.0010 C   0  0  0  0  0  0  0  0  0  0  0  0
   37.4830   32.3980   38.1030 H   0  0  0  0  0  0  0  0  0  0  0  0
   35.6780   30.7290   38.1070 H   0  0  0  0  0  0  0  0  0  0  0  0
   35.9880   28.6650   39.2650 H   0  0  0  0  0  0  0  0  0  0  0  0
   41.4680   33.3180   38.0020 C   0  0  0  0  0  0  0  0  0  0  0  0
   41.7380   34.1610   39.1110 C   0  0  0  0  0  0  0  0  0  0  0  0
   40.9890   33.9790   40.3070 C   0  0  0  0  0  0  0  0  0  0  0  0
   40.0440   32.9900   40.3070 N   0  0  0  0  0  0  0  0  0  0  0  0
   39.8220   32.2260   39.2510 C   0  0  0  0  0  0  0  0  0  0  0  0
   40.5260   32.3870   38.1090 N   0  0  0  0  0  0  0  0  0  0  0  0
   42.4760   34.9350   39.1150 H   0  0  0  0  0  0  0  0  0  0  0  0
   41.1690   34.6030   41.1700 H   0  0  0  0  0  0  0  0  0  0  0  0
   42.2240   33.5240   36.8360 N   0  0  0  0  0  0  0  0  0  0  0  0
   41.5310   33.7980   36.0790 H   0  0  0  0  0  0  0  0  0  0  0  0
   43.2610   33.4020   36.8280 H   0  0  0  0  0  0  0  0  0  0  0  0
   38.1630   27.8750   40.6640 O   0  0  0  0  0  0  0  0  0  0  0  0
   37.2330   28.6900   43.0030 O   0  0  0  0  0  0  0  0  0  0  0  0
   38.0600   27.6160   42.3150 P   0  0  2  0  0  0  0  0  0  0  0  0
   39.6180   27.5890   42.9920 O   0  0  0  0  0  0  0  0  0  0  0  0
   40.5340   26.5640   42.8220 C   0  0  0  0  0  0  0  0  0  0  0  0
   41.4480   26.6420   41.7660 C   0  0  0  0  0  0  0  0  0  0  0  0
   41.6410   27.3680   40.9740 H   0  0  0  0  0  0  0  0  0  0  0  0
   42.2030   25.4790   41.8780 C   0  0  0  0  0  0  0  0  0  0  0  0
   43.0320   25.0770   41.3020 H   0  0  0  0  0  0  0  0  0  0  0  0
   41.7680   24.7590   42.9300 N   0  0  0  0  0  0  0  0  0  0  0  0
   41.9860   23.8670   43.4100 H   0  0  0  0  0  0  0  0  0  0  0  0
   40.7680   25.4190   43.4860 N   0  0  0  0  0  0  0  0  0  0  0  0
   37.3890   26.1080   42.7020 O   0  0  0  0  0  0  0  0  0  0  0  0
   37.1820   25.3460   41.5300 C   0  0  0  0  0  0  0  0  0  0  0  0
   36.4090   24.2560   41.9600 F   0  0  0  0  0  0  0  0  0  0  0  0
   36.4340   26.0560   40.6200 F   0  0  0  0  0  0  0  0  0  0  0  0
   38.3380   24.9650   40.9210 F   0  0  0  0  0  0  0  0  0  0  0  0
  2  1  1  0  0  0  0
  3  2  2  0  0  0  0
  4  5  2  0  0  0  0
  4  3  1  0  0  0  0
  5  6  1  0  0  0  0
  6  7  2  0  0  0  0
  7  2  1  0  0  0  0
  7 22  1  0  0  0  0
  8  4  1  0  0  0  0
  9  5  1  0  0  0  0
 10  6  1  0  0  0  0
 11 16  2  0  0  0  0
 11 12  1  0  0  0  0
 12 17  1  0  0  0  0
 12 13  2  0  0  0  0
 13 18  1  0  0  0  0
 14 13  1  0  0  0  0
 15  3  1  0  0  0  0
 15 14  2  0  0  0  0
 16 15  1  0  0  0  0
 19 11  1  0  0  0  0
 20 19  1  0  0  0  0
 21 19  1  0  0  0  0
 22 24  1  0  0  0  0
 24 34  1  0  0  0  0
 24 25  1  0  0  0  0
 24 23  2  1  0  0  0
 26 25  1  0  0  0  0
 26 33  2  0  0  0  0
 27 29  2  0  0  0  0
 27 26  1  0  0  0  0
 28 27  1  0  0  0  0
 29 31  1  0  0  0  0
 30 29  1  0  0  0  0
 31 32  1  0  0  0  0
 31 33  1  0  0  0  0
 35 36  1  0  0  0  0
 35 34  1  0  0  0  0
 37 35  1  0  0  0  0
 38 35  1  0  0  0  0
M  END
>  <minimizedAffinity>
-5.73945999

$$$$

 OpenBabel03252506163D

 38 40  0  0  0  0  0  0  0  0999 V2000
   39.6380   29.0190   40.1940 F   0  0  0  0  0  0  0  0  0  0  0  0
   38.7280   28.6890   41.0820 C   0  0  0  0  0  0  0  0  0  0  0  0
   39.0930   28.6540   42.4210 C   0  0  0  0  0  0  0  0  0  0  0  0
   38.2010   28.3150   43.4580 C   0  0  0  0  0  0  0  0  0  0  0  0
   36.8760   27.9970   43.1240 C   0  0  0  0  0  0  0  0  0  0  0  0
   36.5590   28.0450   41.7880 C   0  0  0  0  0  0  0  0  0  0  0  0
   37.4040   28.3670   40.7860 C   0  0  0  0  0  0  0  0  0  0  0  0
   38.5640   28.3100   44.4850 H   0  0  0  0  0  0  0  0  0  0  0  0
   36.2310   27.7450   43.9520 H   0  0  0  0  0  0  0  0  0  0  0  0
   35.5020   27.7840   41.6800 H   0  0  0  0  0  0  0  0  0  0  0  0
   42.0870   30.6310   43.1670 C   0  0  0  0  0  0  0  0  0  0  0  0
   43.0060   29.6290   43.5730 C   0  0  0  0  0  0  0  0  0  0  0  0
   42.5790   28.2720   43.5830 C   0  0  0  0  0  0  0  0  0  0  0  0
   41.2910   28.0200   43.1970 N   0  0  0  0  0  0  0  0  0  0  0  0
   40.4650   28.9820   42.8270 C   0  0  0  0  0  0  0  0  0  0  0  0
   40.8570   30.2760   42.8110 N   0  0  0  0  0  0  0  0  0  0  0  0
   44.0140   29.8220   43.8760 H   0  0  0  0  0  0  0  0  0  0  0  0
   43.2540   27.4840   43.8860 H   0  0  0  0  0  0  0  0  0  0  0  0
   42.5390   31.9600   43.1690 N   0  0  0  0  0  0  0  0  0  0  0  0
   41.9300   32.4790   43.8680 H   0  0  0  0  0  0  0  0  0  0  0  0
   43.3290   32.2700   42.5590 H   0  0  0  0  0  0  0  0  0  0  0  0
   36.9730   28.3800   39.4910 O   0  0  0  0  0  0  0  0  0  0  0  0
   37.7920   30.0010   37.5670 O   0  0  0  0  0  0  0  0  0  0  0  0
   36.6580   29.7220   38.5400 P   0  0  2  0  0  0  0  0  0  0  0  0
   36.4180   31.0840   39.5270 O   0  0  0  0  0  0  0  0  0  0  0  0
   37.2590   32.1850   39.5680 C   0  0  0  0  0  0  0  0  0  0  0  0
   38.5910   32.0040   39.9530 C   0  0  0  0  0  0  0  0  0  0  0  0
   39.1900   31.1420   40.2540 H   0  0  0  0  0  0  0  0  0  0  0  0
   39.1430   33.2790   39.8890 C   0  0  0  0  0  0  0  0  0  0  0  0
   40.1390   33.6650   40.0900 H   0  0  0  0  0  0  0  0  0  0  0  0
   38.2030   34.1590   39.4930 N   0  0  0  0  0  0  0  0  0  0  0  0
   38.1120   35.1720   39.3000 H   0  0  0  0  0  0  0  0  0  0  0  0
   37.0790   33.4900   39.3040 N   0  0  0  0  0  0  0  0  0  0  0  0
   35.2250   29.5710   37.6470 O   0  0  0  0  0  0  0  0  0  0  0  0
   34.3400   28.6720   38.2840 C   0  0  0  0  0  0  0  0  0  0  0  0
   34.2000   29.1900   39.5810 F   0  0  0  0  0  0  0  0  0  0  0  0
   33.1030   28.7070   37.6840 F   0  0  0  0  0  0  0  0  0  0  0  0
   34.7770   27.3830   38.2750 F   0  0  0  0  0  0  0  0  0  0  0  0
  1  2  1  0  0  0  0
  2  3  1  0  0  0  0
  3 15  1  0  0  0  0
  3  4  2  0  0  0  0
  4  8  1  0  0  0  0
  5  4  1  0  0  0  0
  5  9  1  0  0  0  0
  6  5  2  0  0  0  0
  7  2  2  0  0  0  0
  7  6  1  0  0  0  0
 10  6  1  0  0  0  0
 11 19  1  0  0  0  0
 11 12  1  0  0  0  0
 12 13  2  0  0  0  0
 12 17  1  0  0  0  0
 13 18  1  0  0  0  0
 14 13  1  0  0  0  0
 15 14  2  0  0  0  0
 16 15  1  0  0  0  0
 16 11  2  0  0  0  0
 19 20  1  0  0  0  0
 21 19  1  0  0  0  0
 22  7  1  0  0  0  0
 24 23  2  6  0  0  0
 24 22  1  0  0  0  0
 24 25  1  0  0  0  0
 25 26  1  0  0  0  0
 26 27  1  0  0  0  0
 27 28  1  0  0  0  0
 29 27  2  0  0  0  0
 29 30  1  0  0  0  0
 31 29  1  0  0  0  0
 32 31  1  0  0  0  0
 33 31  1  0  0  0  0
 33 26  2  0  0  0  0
 34 35  1  0  0  0  0
 34 24  1  0  0  0  0
 35 36  1  0  0  0  0
 37 35  1  0  0  0  0
 38 35  1  0  0  0  0
M  END
>  <minimizedAffinity>
-5.71580219

$$$$
