REMARK  Name = 
REMARK  3 active torsions:
REMARK  status: ('A' for Active; 'I' for Inactive)
REMARK    1  A    between atoms: C_1  and  S_17
REMARK    2  A    between atoms: C_11  and  N_16
REMARK    3  A    between atoms: S_17  and  C_24
REMARK                            x       y       z     vdW  Elec       q    Type
REMARK                         _______ _______ _______ _____ _____    ______ ____
ROOT
ATOM      1  C   UNL     1      47.709  33.487  40.136  0.00  0.00    +0.000 A 
ATOM      2  C   UNL     1      49.051  33.224  40.387  0.00  0.00    +0.000 A 
ATOM      3  C   UNL     1      49.509  33.306  41.724  0.00  0.00    +0.000 A 
ATOM      4  N   UNL     1      48.584  33.641  42.671  0.00  0.00    +0.000 NA
ATOM      5  C   UNL     1      47.285  33.889  42.375  0.00  0.00    +0.000 A 
ATOM      6  N   UNL     1      46.861  33.810  41.114  0.00  0.00    +0.000 NA
ATOM      7  N   UNL     1      46.416  34.231  43.448  0.00  0.00    +0.000 N 
ATOM      8  C   UNL     1      45.502  35.235  43.434  0.00  0.00    +0.000 A 
ATOM      9  N   UNL     1      44.873  35.244  44.645  0.00  0.00    +0.000 NA
ATOM     10  C   UNL     1      45.411  34.256  45.367  0.00  0.00    +0.000 A 
ATOM     11  C   UNL     1      45.199  33.781  46.636  0.00  0.00    +0.000 A 
ATOM     12  N   UNL     1      45.880  32.757  47.139  0.00  0.00    +0.000 NA
ATOM     13  C   UNL     1      46.835  32.110  46.433  0.00  0.00    +0.000 A 
ATOM     14  N   UNL     1      47.033  32.591  45.183  0.00  0.00    +0.000 NA
ATOM     15  C   UNL     1      46.385  33.605  44.631  0.00  0.00    +0.000 A 
ATOM     16  H   UNL     1      49.810  32.956  39.662  0.00  0.00    +0.000 HD
ATOM     17  H   UNL     1      50.530  33.113  41.968  0.00  0.00    +0.000 HD
ATOM     18  H   UNL     1      45.265  35.938  42.636  0.00  0.00    +0.000 HD
ATOM     19  H   UNL     1      47.393  31.277  46.837  0.00  0.00    +0.000 HD
ENDROOT
BRANCH  11  20
ATOM     20  N   UNL     1      44.241  34.344  47.505  0.00  0.00    +0.000 N 
ATOM     21  H   UNL     1      43.405  33.876  47.946  0.00  0.00    +0.000 HD
ATOM     22  H   UNL     1      44.446  35.363  47.697  0.00  0.00    +0.000 HD
ENDBRANCH  11  20
BRANCH   1  23
ATOM     23  S   UNL     1      47.219  33.365  38.396  0.00  0.00    +0.000 S 
BRANCH  23  24
ATOM     24  C   UNL     1      48.662  32.920  37.442  0.00  0.00    +0.000 A 
ATOM     25  C   UNL     1      49.125  33.763  36.425  0.00  0.00    +0.000 A 
ATOM     26  H   UNL     1      48.776  34.729  36.038  0.00  0.00    +0.000 HD
ATOM     27  C   UNL     1      50.257  33.174  35.850  0.00  0.00    +0.000 A 
ATOM     28  H   UNL     1      50.923  33.458  35.057  0.00  0.00    +0.000 HD
ATOM     29  N   UNL     1      50.432  32.005  36.536  0.00  0.00    +0.000 N 
ATOM     30  H   UNL     1      51.184  31.268  36.404  0.00  0.00    +0.000 HD
ATOM     31  N   UNL     1      49.500  31.844  37.476  0.00  0.00    +0.000 NA
ENDBRANCH  23  24
ENDBRANCH   1  23
TORSDOF 3
