
 OpenBabel03242512093D

 32 34  0  0  1  0  0  0  0  0999 V2000
   48.0130   34.4160   41.1160 C   0  0  1  0  0  0  0  0  0  0  0  0
   48.7390   35.6950   41.6880 C   0  0  0  0  0  0  0  0  0  0  0  0
   48.9700   34.3410   42.2150 C   0  0  2  0  0  0  0  0  0  0  0  0
   48.3480   34.1800   40.1000 H   0  0  0  0  0  0  0  0  0  0  0  0
   49.4790   36.1660   41.0070 H   0  0  0  0  0  0  0  0  0  0  0  0
   48.1020   36.4030   42.2520 H   0  0  0  0  0  0  0  0  0  0  0  0
   48.4970   33.8990   43.1050 H   0  0  0  0  0  0  0  0  0  0  0  0
   46.5490   34.4440   41.3930 C   0  0  0  0  0  0  0  0  0  0  0  0
   45.7920   34.2180   40.4550 O   0  0  0  0  0  0  0  0  0  0  0  0
   45.3570   35.8790   42.9800 C   0  0  0  0  0  0  0  0  0  0  0  0
   45.9730   34.7110   42.6740 C   0  0  0  0  0  0  0  0  0  0  0  0
   46.0380   33.7180   43.6860 C   0  0  0  0  0  0  0  0  0  0  0  0
   45.4970   33.9470   44.9080 N   0  0  0  0  0  0  0  0  0  0  0  0
   44.8870   35.1390   45.1660 C   0  0  0  0  0  0  0  0  0  0  0  0
   44.8230   36.0680   44.2300 N   0  0  0  0  0  0  0  0  0  0  0  0
   45.3160   36.6210   42.2030 H   0  0  0  0  0  0  0  0  0  0  0  0
   46.4870   32.7680   43.5710 H   0  0  0  0  0  0  0  0  0  0  0  0
   44.4420   35.3740   46.1180 H   0  0  0  0  0  0  0  0  0  0  0  0
   50.2630   33.8730   41.9960 O   0  0  0  0  0  0  0  0  0  0  0  0
   48.9780   31.8810   43.0200 O   0  0  0  0  0  0  0  0  0  0  0  0
   50.1980   32.1830   42.1660 P   0  0  2  0  0  0  0  0  0  0  0  0
   51.5740   31.5150   42.8150 O   0  0  0  0  0  0  0  0  0  0  0  0
   52.3670   32.0720   42.6910 H   0  0  0  0  0  0  0  0  0  0  0  0
   49.8270   31.5140   40.6180 O   0  0  0  0  0  0  0  0  0  0  0  0
   50.7460   31.6130   39.5690 C   0  0  0  0  0  0  0  0  0  0  0  0
   52.0790   31.3760   39.2860 C   0  0  0  0  0  0  0  0  0  0  0  0
   52.6370   30.9830   40.1250 H   0  0  0  0  0  0  0  0  0  0  0  0
   52.2700   31.7380   37.9480 C   0  0  0  0  0  0  0  0  0  0  0  0
   53.2660   31.6120   37.5690 H   0  0  0  0  0  0  0  0  0  0  0  0
   51.0830   32.1690   37.4800 N   0  0  0  0  0  0  0  0  0  0  0  0
   51.0920   32.4730   36.4810 H   0  0  0  0  0  0  0  0  0  0  0  0
   50.1740   32.0970   38.4360 N   0  0  0  0  0  0  0  0  0  0  0  0
  1  4  1  6  0  0  0
  1  8  1  0  0  0  0
  1  2  1  0  0  0  0
  1  3  1  0  0  0  0
  2  3  1  0  0  0  0
  2  6  1  0  0  0  0
  3  7  1  1  0  0  0
  5  2  1  0  0  0  0
  8 11  1  0  0  0  0
  9  8  2  0  0  0  0
 10 15  1  0  0  0  0
 11 10  2  0  0  0  0
 11 12  1  0  0  0  0
 12 13  2  0  0  0  0
 13 14  1  0  0  0  0
 14 18  1  0  0  0  0
 15 14  2  0  0  0  0
 16 10  1  0  0  0  0
 17 12  1  0  0  0  0
 19 21  1  0  0  0  0
 19  3  1  0  0  0  0
 21 22  1  0  0  0  0
 21 20  2  1  0  0  0
 23 22  1  0  0  0  0
 24 21  1  0  0  0  0
 25 24  1  0  0  0  0
 26 25  1  0  0  0  0
 26 27  1  0  0  0  0
 28 26  2  0  0  0  0
 29 28  1  0  0  0  0
 30 28  1  0  0  0  0
 30 32  1  0  0  0  0
 31 30  1  0  0  0  0
 32 25  2  0  0  0  0
M  END
>  <minimizedAffinity>
-5.15428686

>  <minimizedRMSD>
0.722576261

$$$$
