
 OpenBabel03252509313D

 26 27  0  0  0  0  0  0  0  0999 V2000
   48.4220   33.3890   43.4600 O   0  0  0  0  0  0  0  0  0  0  0  0
   47.0950   33.1720   43.0880 C   0  0  0  0  0  0  0  0  0  0  0  0
   46.9650   33.0690   41.9960 H   0  0  0  0  0  0  0  0  0  0  0  0
   46.8110   32.1990   43.5550 H   0  0  0  0  0  0  0  0  0  0  0  0
   44.7990   35.0450   45.3480 C   0  0  0  0  0  0  0  0  0  0  0  0
   45.6540   34.0240   44.8670 C   0  0  0  0  0  0  0  0  0  0  0  0
   46.2130   34.2040   43.6110 C   0  0  0  0  0  0  0  0  0  0  0  0
   45.9130   35.3440   42.9120 N   0  0  0  0  0  0  0  0  0  0  0  0
   45.0890   36.3020   43.4070 C   0  0  0  0  0  0  0  0  0  0  0  0
   44.5390   36.1470   44.6170 N   0  0  0  0  0  0  0  0  0  0  0  0
   44.3190   34.9850   46.3200 H   0  0  0  0  0  0  0  0  0  0  0  0
   45.8230   33.1630   45.5000 H   0  0  0  0  0  0  0  0  0  0  0  0
   44.9730   37.1260   42.7140 H   0  0  0  0  0  0  0  0  0  0  0  0
   50.7410   33.8860   42.3690 O   0  0  0  0  0  0  0  0  0  0  0  0
   49.3040   33.6060   42.0220 P   0  0  2  0  0  0  0  0  0  0  0  0
   48.5750   34.8650   41.1860 O   0  0  0  0  0  0  0  0  0  0  0  0
   47.6270   34.9880   41.3920 H   0  0  0  0  0  0  0  0  0  0  0  0
   49.2400   32.1650   41.1610 O   0  0  0  0  0  0  0  0  0  0  0  0
   49.5960   32.1140   39.8180 C   0  0  0  0  0  0  0  0  0  0  0  0
   49.0950   32.2880   38.5320 C   0  0  0  0  0  0  0  0  0  0  0  0
   48.0410   32.5660   38.5480 H   0  0  0  0  0  0  0  0  0  0  0  0
   50.1380   32.0390   37.6580 C   0  0  0  0  0  0  0  0  0  0  0  0
   49.8830   32.1400   36.6100 H   0  0  0  0  0  0  0  0  0  0  0  0
   51.2360   31.7250   38.3900 N   0  0  0  0  0  0  0  0  0  0  0  0
   52.1140   31.5080   37.8920 H   0  0  0  0  0  0  0  0  0  0  0  0
   50.9100   31.7700   39.6850 N   0  0  0  0  0  0  0  0  0  0  0  0
  2  1  1  0  0  0  0
  2  4  1  0  0  0  0
  2  7  1  0  0  0  0
  3  2  1  0  0  0  0
  5 11  1  0  0  0  0
  6  5  1  0  0  0  0
  6 12  1  0  0  0  0
  7  6  2  0  0  0  0
  8  9  2  0  0  0  0
  8  7  1  0  0  0  0
  9 10  1  0  0  0  0
 10  5  2  0  0  0  0
 13  9  1  0  0  0  0
 15 14  2  1  0  0  0
 15  1  1  0  0  0  0
 16 17  1  0  0  0  0
 16 15  1  0  0  0  0
 18 15  1  0  0  0  0
 19 18  1  0  0  0  0
 20 21  1  0  0  0  0
 20 19  1  0  0  0  0
 22 24  1  0  0  0  0
 22 20  2  0  0  0  0
 23 22  1  0  0  0  0
 24 26  1  0  0  0  0
 25 24  1  0  0  0  0
 26 19  2  0  0  0  0
M  END
>  <minimizedAffinity>
-4.08503389

>  <minimizedRMSD>
3.12788296

$$$$
