REMARK  Name = 
REMARK  10 active torsions:
REMARK  status: ('A' for Active; 'I' for Inactive)
REMARK    1  A    between atoms: C_1  and  C_7
REMARK    2  A    between atoms: C_2  and  O_13
REMARK    3  A    between atoms: O_13  and  C_14
REMARK    4  A    between atoms: C_14  and  C_15
REMARK    5  A    between atoms: C_15  and  N_16
REMARK    6  A    between atoms: N_16  and  S_17
REMARK    7  A    between atoms: S_17  and  O_18
REMARK    8  A    between atoms: S_17  and  O_19
REMARK    9  A    between atoms: S_17  and  O_20
REMARK   10  A    between atoms: O_20  and  C_41
REMARK                            x       y       z     vdW  Elec       q    Type
REMARK                         _______ _______ _______ _____ _____    ______ ____
ROOT
ATOM      1  C   UNL     1      46.154  34.600  43.617  0.00  0.00    +0.000 A 
ATOM      2  C   UNL     1      46.153  33.843  44.764  0.00  0.00    +0.000 A 
ATOM      3  C   UNL     1      45.307  34.228  45.763  0.00  0.00    +0.000 A 
ATOM      4  N   UNL     1      44.516  35.311  45.595  0.00  0.00    +0.000 NA
ATOM      5  C   UNL     1      44.515  36.039  44.491  0.00  0.00    +0.000 A 
ATOM      6  N   UNL     1      45.336  35.673  43.517  0.00  0.00    +0.000 NA
ATOM      7  H   UNL     1      45.158  33.775  46.733  0.00  0.00    +0.000 HD
ATOM      8  H   UNL     1      43.900  36.916  44.304  0.00  0.00    +0.000 HD
ENDROOT
BRANCH   1   9
ATOM      9  C   UNL     1      47.014  34.147  42.516  0.00  0.00    +0.000 C 
ATOM     10  C   UNL     1      48.395  34.729  42.626  0.00  0.00    +0.000 C 
ATOM     11  C   UNL     1      48.715  35.621  41.510  0.00  0.00    +0.000 C 
ATOM     12  C   UNL     1      48.552  34.928  40.172  0.00  0.00    +0.000 C 
ATOM     13  C   UNL     1      47.308  34.132  40.069  0.00  0.00    +0.000 C 
ATOM     14  C   UNL     1      46.360  34.422  41.211  0.00  0.00    +0.000 C 
ATOM     15  H   UNL     1      47.201  33.064  42.645  0.00  0.00    +0.000 HD
ATOM     16  H   UNL     1      49.180  33.956  42.704  0.00  0.00    +0.000 HD
ATOM     17  H   UNL     1      48.450  35.297  43.578  0.00  0.00    +0.000 HD
ATOM     18  H   UNL     1      47.950  36.452  41.505  0.00  0.00    +0.000 HD
ATOM     19  H   UNL     1      49.706  36.074  41.525  0.00  0.00    +0.000 HD
ATOM     20  H   UNL     1      48.664  35.658  39.328  0.00  0.00    +0.000 HD
ATOM     21  H   UNL     1      49.437  34.236  40.065  0.00  0.00    +0.000 HD
ATOM     22  H   UNL     1      46.748  34.238  39.112  0.00  0.00    +0.000 HD
ATOM     23  H   UNL     1      47.527  33.031  40.145  0.00  0.00    +0.000 HD
ATOM     24  H   UNL     1      45.469  33.767  41.126  0.00  0.00    +0.000 HD
ATOM     25  H   UNL     1      46.077  35.505  41.141  0.00  0.00    +0.000 HD
ENDBRANCH   1   9
BRANCH   2  26
ATOM     26  O   UNL     1      46.847  32.758  45.111  0.00  0.00    +0.000 OA
BRANCH  26  27
ATOM     27  C   UNL     1      47.181  32.175  46.297  0.00  0.00    +0.000 C 
ATOM     28  H   UNL     1      48.244  32.477  46.535  0.00  0.00    +0.000 HD
ATOM     29  H   UNL     1      46.612  32.430  47.195  0.00  0.00    +0.000 HD
BRANCH  27  30
ATOM     30  C   UNL     1      47.219  30.659  46.260  0.00  0.00    +0.000 C 
ATOM     31  H   UNL     1      48.100  30.361  45.636  0.00  0.00    +0.000 HD
ATOM     32  H   UNL     1      47.464  30.301  47.299  0.00  0.00    +0.000 HD
BRANCH  30  33
ATOM     33  N   UNL     1      46.001  30.090  45.741  0.00  0.00    +0.000 NA
ATOM     34  H   UNL     1      46.260  29.287  45.120  0.00  0.00    +0.000 HD
BRANCH  33  35
ATOM     35  S   UNL     1      45.172  29.333  47.078  0.00  0.00    +0.000 S 
BRANCH  35  36
ATOM     36  O   UNL     1      44.026  28.496  46.602  0.00  0.00    +0.000 OA
ATOM     37  H   UNL     1      43.333  28.792  45.984  0.00  0.00    +0.000 HD
ENDBRANCH  35  36
BRANCH  35  38
ATOM     38  O   UNL     1      44.690  30.425  47.977  0.00  0.00    +0.000 OA
ATOM     39  H   UNL     1      45.216  30.733  48.755  0.00  0.00    +0.000 HD
ENDBRANCH  35  38
BRANCH  35  40
ATOM     40  O   UNL     1      46.230  28.377  47.957  0.00  0.00    +0.000 OA
BRANCH  40  41
ATOM     41  C   UNL     1      46.674  27.204  47.355  0.00  0.00    +0.000 A 
ATOM     42  C   UNL     1      46.397  26.346  46.296  0.00  0.00    +0.000 A 
ATOM     43  H   UNL     1      45.544  26.672  45.713  0.00  0.00    +0.000 HD
ATOM     44  C   UNL     1      47.346  25.328  46.353  0.00  0.00    +0.000 A 
ATOM     45  H   UNL     1      47.255  24.576  45.581  0.00  0.00    +0.000 HD
ATOM     46  N   UNL     1      48.152  25.573  47.403  0.00  0.00    +0.000 N 
ATOM     47  H   UNL     1      48.933  24.912  47.609  0.00  0.00    +0.000 HD
ATOM     48  N   UNL     1      47.757  26.695  48.009  0.00  0.00    +0.000 NA
ENDBRANCH  40  41
ENDBRANCH  35  40
ENDBRANCH  33  35
ENDBRANCH  30  33
ENDBRANCH  27  30
ENDBRANCH  26  27
ENDBRANCH   2  26
TORSDOF 10
