
     RDKit          3D

 42 45  0  0  0  0  0  0  0  0999 V2000
   47.9203   35.0144   41.9650 C   0  0  0  0  0  0  0  0  0  0  0  0
   48.2021   34.1266   40.8384 C   0  0  0  0  0  0  0  0  0  0  0  0
   48.1117   34.5497   39.5291 C   0  0  0  0  0  0  0  0  0  0  0  0
   48.3701   33.6992   38.4537 C   0  0  0  0  0  0  0  0  0  0  0  0
   48.7179   32.4223   38.7744 N   0  0  0  0  0  0  0  0  0  0  0  0
   48.8005   32.0307   40.0414 C   0  0  0  0  0  0  0  0  0  0  0  0
   48.5461   32.8735   41.0526 N   0  0  0  0  0  0  0  0  0  0  0  0
   49.1510   30.6184   40.3986 C   0  0  2  0  0  0  0  0  0  0  0  0
   49.6584   30.3096   41.7470 C   0  0  0  0  0  0  0  0  0  0  0  0
   50.6119   30.3085   40.5495 C   0  0  2  0  0  0  0  0  0  0  0  0
   51.8535   31.5712   40.5420 S   0  0  0  0  0  0  0  0  0  0  0  0
   46.4843   34.9247   42.3353 C   0  0  0  0  0  0  0  0  0  0  0  0
   44.5420   36.4018   44.0295 Cl  0  0  0  0  0  0  0  0  0  0  0  0
   45.3694   34.9691   44.5792 C   0  0  0  0  0  0  0  0  0  0  0  0
   46.2452   34.3748   43.6922 C   0  0  0  0  0  0  0  0  0  0  0  0
   46.8948   33.2487   44.1020 C   0  0  0  0  0  0  0  0  0  0  0  0
   46.6956   32.7054   45.3600 C   0  0  0  0  0  0  0  0  0  0  0  0
   45.8001   33.3276   46.2445 C   0  0  0  0  0  0  0  0  0  0  0  0
   45.1395   34.4783   45.8203 C   0  0  0  0  0  0  0  0  0  0  0  0
   44.2396   35.1474   46.6404 O   0  0  0  0  0  0  0  0  0  0  0  0
   48.1522   36.0503   41.6431 H   0  0  0  0  0  0  0  0  0  0  0  0
   48.5803   34.8058   42.8201 H   0  0  0  0  0  0  0  0  0  0  0  0
   47.8294   35.5805   39.3376 H   0  0  0  0  0  0  0  0  0  0  0  0
   48.2925   34.0550   37.4341 H   0  0  0  0  0  0  0  0  0  0  0  0
   48.5719   29.8920   39.7775 H   0  0  0  0  0  0  0  0  0  0  0  0
   49.4119   29.3105   42.1736 H   0  0  0  0  0  0  0  0  0  0  0  0
   49.7160   31.1472   42.4669 H   0  0  0  0  0  0  0  0  0  0  0  0
   50.9439   29.3188   40.1717 H   0  0  0  0  0  0  0  0  0  0  0  0
   51.2521   32.8297   40.3578 H   0  0  0  0  0  0  0  0  0  0  0  0
   45.9289   34.2770   41.6068 H   0  0  0  0  0  0  0  0  0  0  0  0
   45.9882   35.9128   42.2574 H   0  0  0  0  0  0  0  0  0  0  0  0
   47.6029   32.6575   43.5602 H   0  0  0  0  0  0  0  0  0  0  0  0
   47.1652   31.8203   45.7663 H   0  0  0  0  0  0  0  0  0  0  0  0
   45.6187   32.9291   47.2401 H   0  0  0  0  0  0  0  0  0  0  0  0
   44.4357   36.4605   47.0397 C   0  0  0  0  0  0  0  0  0  0  0  0
   44.9948   37.2387   48.0315 C   0  0  0  0  0  0  0  0  0  0  0  0
   45.4630   36.6802   48.8063 H   0  0  0  0  0  0  0  0  0  0  0  0
   44.7579   38.5542   47.6936 C   0  0  0  0  0  0  0  0  0  0  0  0
   45.1254   39.3242   48.3583 H   0  0  0  0  0  0  0  0  0  0  0  0
   44.0676   38.5697   46.5185 N   0  0  0  0  0  0  0  0  0  0  0  0
   43.7902   39.4805   46.0917 H   0  0  0  0  0  0  0  0  0  0  0  0
   43.8752   37.3079   46.1273 N   0  0  0  0  0  0  0  0  0  0  0  0
  1 12  1  0
  2  7  1  0
  2  1  1  0
  3  2  2  0
  4  5  2  0
  4  3  1  0
  5  6  1  0
  6  8  1  0
  6  7  2  0
  8 10  1  0
  8  9  1  0
 10 11  1  0
 10  9  1  0
 12 15  1  0
 13 14  1  0
 14 19  2  0
 15 16  2  0
 15 14  1  0
 16 17  1  0
 17 18  2  0
 19 18  1  0
 19 20  1  0
  1 21  1  0
  1 22  1  0
  3 23  1  0
  4 24  1  0
  8 25  1  6
  9 26  1  0
  9 27  1  0
 10 28  1  6
 11 29  1  0
 12 30  1  0
 12 31  1  0
 16 32  1  0
 17 33  1  0
 18 34  1  0
 35 36  1  0
 36 37  1  0
 36 38  2  0
 38 39  1  0
 38 40  1  0
 40 41  1  0
 40 42  1  0
 42 35  2  0
 20 35  1  0
M  ISO  8  21   8  22   8  23  14  24  14  25  13  26  13  27  13  28  13
M  ISO  8  29  11  30   8  31   8  32  14  33  14  34  14  37  15  39  16
M  ISO  1  41   5
M  END
>  <DihAtoms>  (1) 
18,19,34,35

>  <DihDeg>  (1) 
-0.7458468219925084

$$$$
