
 OpenBabel03252500543D

 29 30  0  0  0  0  0  0  0  0999 V2000
   46.4490   34.2630   42.4470 C   0  0  0  0  0  0  0  0  0  0  0  0
   45.2010   34.6270   42.9150 C   0  0  0  0  0  0  0  0  0  0  0  0
   44.9340   34.4030   44.2770 C   0  0  0  0  0  0  0  0  0  0  0  0
   45.9020   33.8520   45.0300 N   0  0  0  0  0  0  0  0  0  0  0  0
   47.1060   33.5090   44.5450 C   0  0  0  0  0  0  0  0  0  0  0  0
   47.3720   33.7180   43.2530 N   0  0  0  0  0  0  0  0  0  0  0  0
   43.9520   34.6950   44.6210 H   0  0  0  0  0  0  0  0  0  0  0  0
   47.8360   33.0660   45.2300 H   0  0  0  0  0  0  0  0  0  0  0  0
   46.8090   34.4630   41.0420 C   0  0  0  0  0  0  0  0  0  0  0  0
   46.0880   35.1240   40.5150 H   0  0  0  0  0  0  0  0  0  0  0  0
   46.7790   33.4790   40.5290 H   0  0  0  0  0  0  0  0  0  0  0  0
   48.2310   34.9690   40.9590 C   0  0  0  0  0  0  0  0  0  0  0  0
   48.8300   34.3660   40.2260 H   0  0  0  0  0  0  0  0  0  0  0  0
   48.1710   36.0180   40.5510 H   0  0  0  0  0  0  0  0  0  0  0  0
   48.7390   35.0330   41.9360 H   0  0  0  0  0  0  0  0  0  0  0  0
   44.3210   35.1800   42.0040 O   0  0  0  0  0  0  0  0  0  0  0  0
   43.4440   34.1910   39.7310 O   0  0  0  0  0  0  0  0  0  0  0  0
   43.0680   34.3960   41.1960 P   0  0  1  0  0  0  0  0  0  0  0  0
   42.8880   32.8480   41.9010 O   0  0  0  0  0  0  0  0  0  0  0  0
   42.0890   32.3740   41.5640 H   0  0  0  0  0  0  0  0  0  0  0  0
   41.5850   35.1980   41.3250 O   0  0  0  0  0  0  0  0  0  0  0  0
   40.4060   34.4840   41.1610 C   0  0  0  0  0  0  0  0  0  0  0  0
   39.6810   34.9260   40.0490 C   0  0  0  0  0  0  0  0  0  0  0  0
   39.7850   35.6890   39.2620 H   0  0  0  0  0  0  0  0  0  0  0  0
   38.5170   34.1670   39.9470 C   0  0  0  0  0  0  0  0  0  0  0  0
   37.6620   34.1100   39.3000 H   0  0  0  0  0  0  0  0  0  0  0  0
   38.5850   33.3010   40.9990 N   0  0  0  0  0  0  0  0  0  0  0  0
   37.9950   32.5210   41.3990 H   0  0  0  0  0  0  0  0  0  0  0  0
   39.6920   33.4950   41.6980 N   0  0  0  0  0  0  0  0  0  0  0  0
  1  2  2  0  0  0  0
  1  6  1  0  0  0  0
  2  3  1  0  0  0  0
  3  7  1  0  0  0  0
  3  4  2  0  0  0  0
  5  4  1  0  0  0  0
  5  8  1  0  0  0  0
  6  5  2  0  0  0  0
  9  1  1  0  0  0  0
 10  9  1  0  0  0  0
 11  9  1  0  0  0  0
 12  9  1  0  0  0  0
 12 15  1  0  0  0  0
 13 12  1  0  0  0  0
 14 12  1  0  0  0  0
 16  2  1  0  0  0  0
 18 17  2  6  0  0  0
 18 21  1  0  0  0  0
 18 19  1  0  0  0  0
 18 16  1  0  0  0  0
 20 19  1  0  0  0  0
 22 21  1  0  0  0  0
 22 29  2  0  0  0  0
 23 22  1  0  0  0  0
 24 23  1  0  0  0  0
 25 23  2  0  0  0  0
 25 27  1  0  0  0  0
 26 25  1  0  0  0  0
 27 28  1  0  0  0  0
 27 29  1  0  0  0  0
M  END
>  <minimizedAffinity>
-4.89081335

>  <minimizedRMSD>
1.67251575

$$$$
