
 OpenBabel03252504223D

 31 34  0  0  0  0  0  0  0  0999 V2000
   47.0210   33.4800   39.3180 C   0  0  0  0  0  0  0  0  0  0  0  0
   48.3660   33.1660   39.4720 C   0  0  0  0  0  0  0  0  0  0  0  0
   48.9440   33.3110   40.7560 C   0  0  0  0  0  0  0  0  0  0  0  0
   48.1220   33.7550   41.7520 N   0  0  0  0  0  0  0  0  0  0  0  0
   46.8140   34.0490   41.5510 C   0  0  0  0  0  0  0  0  0  0  0  0
   46.2780   33.9100   40.3390 N   0  0  0  0  0  0  0  0  0  0  0  0
   46.0600   34.5050   42.6670 N   0  0  0  0  0  0  0  0  0  0  0  0
   45.1940   35.5520   42.6610 C   0  0  0  0  0  0  0  0  0  0  0  0
   44.6750   35.6720   43.9170 N   0  0  0  0  0  0  0  0  0  0  0  0
   45.2290   34.7070   44.6580 C   0  0  0  0  0  0  0  0  0  0  0  0
   45.1080   34.3280   45.9700 C   0  0  0  0  0  0  0  0  0  0  0  0
   45.7840   33.3060   46.4840 N   0  0  0  0  0  0  0  0  0  0  0  0
   46.6430   32.5660   45.7470 C   0  0  0  0  0  0  0  0  0  0  0  0
   46.7520   32.9530   44.4540 N   0  0  0  0  0  0  0  0  0  0  0  0
   46.1040   33.9600   43.8890 C   0  0  0  0  0  0  0  0  0  0  0  0
   49.0460   32.8120   38.7060 H   0  0  0  0  0  0  0  0  0  0  0  0
   49.9720   33.0830   40.9260 H   0  0  0  0  0  0  0  0  0  0  0  0
   44.9200   36.2120   41.8390 H   0  0  0  0  0  0  0  0  0  0  0  0
   47.1950   31.7330   46.1590 H   0  0  0  0  0  0  0  0  0  0  0  0
   44.2570   34.9950   46.8760 N   0  0  0  0  0  0  0  0  0  0  0  0
   43.4430   34.6010   47.4180 H   0  0  0  0  0  0  0  0  0  0  0  0
   44.5240   36.0130   46.9780 H   0  0  0  0  0  0  0  0  0  0  0  0
   46.3750   33.2700   37.6380 S   0  0  0  0  0  0  0  0  0  0  0  0
   47.5260   32.2570   36.7220 C   0  0  0  0  0  0  0  0  0  0  0  0
   48.3930   32.8380   35.7900 C   0  0  0  0  0  0  0  0  0  0  0  0
   48.5470   33.8720   35.4560 H   0  0  0  0  0  0  0  0  0  0  0  0
   49.1750   31.8230   35.2280 C   0  0  0  0  0  0  0  0  0  0  0  0
   49.9530   31.8050   34.4870 H   0  0  0  0  0  0  0  0  0  0  0  0
   48.7530   30.6760   35.8380 N   0  0  0  0  0  0  0  0  0  0  0  0
   49.0980   29.6830   35.6890 H   0  0  0  0  0  0  0  0  0  0  0  0
   47.7840   30.9170   36.7190 N   0  0  0  0  0  0  0  0  0  0  0  0
  1  2  2  0  0  0  0
  1  6  1  0  0  0  0
  2  3  1  0  0  0  0
  3 17  1  0  0  0  0
  3  4  2  0  0  0  0
  5  4  1  0  0  0  0
  5  7  1  0  0  0  0
  6  5  2  0  0  0  0
  7 15  1  0  0  0  0
  8  7  1  0  0  0  0
  8  9  2  0  0  0  0
  9 10  1  0  0  0  0
 10 11  1  0  0  0  0
 11 12  2  0  0  0  0
 11 20  1  0  0  0  0
 13 19  1  0  0  0  0
 13 12  1  0  0  0  0
 14 13  2  0  0  0  0
 15 14  1  0  0  0  0
 15 10  2  0  0  0  0
 16  2  1  0  0  0  0
 18  8  1  0  0  0  0
 20 22  1  0  0  0  0
 20 21  1  0  0  0  0
 23  1  1  0  0  0  0
 24 23  1  0  0  0  0
 25 24  1  0  0  0  0
 26 25  1  0  0  0  0
 27 25  2  0  0  0  0
 27 29  1  0  0  0  0
 28 27  1  0  0  0  0
 29 31  1  0  0  0  0
 30 29  1  0  0  0  0
 31 24  2  0  0  0  0
M  END
>  <minimizedAffinity>
-5.65685606

>  <minimizedRMSD>
1.29938972

$$$$
