
 OpenBabel03252509083D

 40 43  0  0  0  0  0  0  0  0999 V2000
   47.5590   31.7790   38.9210 C   0  0  0  0  0  0  0  0  0  0  0  0
   47.1540   33.0790   38.9500 C   0  0  0  0  0  0  0  0  0  0  0  0
   47.8200   34.0300   38.1960 C   0  0  0  0  0  0  0  0  0  0  0  0
   48.8910   33.6640   37.4150 C   0  0  0  0  0  0  0  0  0  0  0  0
   49.3360   32.3440   37.3560 C   0  0  0  0  0  0  0  0  0  0  0  0
   48.6460   31.4030   38.1290 C   0  0  0  0  0  0  0  0  0  0  0  0
   47.5430   35.0570   38.1850 H   0  0  0  0  0  0  0  0  0  0  0  0
   49.4820   34.3090   36.7920 H   0  0  0  0  0  0  0  0  0  0  0  0
   50.1540   31.9880   36.7770 H   0  0  0  0  0  0  0  0  0  0  0  0
   48.9670   30.3580   38.1080 H   0  0  0  0  0  0  0  0  0  0  0  0
   45.3880   35.4070   43.2090 Cl  0  0  0  0  0  0  0  0  0  0  0  0
   45.1990   34.6260   41.6550 C   0  0  0  0  0  0  0  0  0  0  0  0
   46.2780   34.1950   40.9530 C   0  0  0  0  0  0  0  0  0  0  0  0
   46.0240   33.5720   39.7410 C   0  0  0  0  0  0  0  0  0  0  0  0
   44.7480   33.3980   39.2680 C   0  0  0  0  0  0  0  0  0  0  0  0
   43.6840   33.8360   39.9840 C   0  0  0  0  0  0  0  0  0  0  0  0
   43.9190   34.4570   41.1940 C   0  0  0  0  0  0  0  0  0  0  0  0
   44.6020   32.9020   38.3060 H   0  0  0  0  0  0  0  0  0  0  0  0
   42.6970   33.6780   39.5730 H   0  0  0  0  0  0  0  0  0  0  0  0
   43.0520   34.7980   41.7490 H   0  0  0  0  0  0  0  0  0  0  0  0
   49.5770   35.7500   41.9160 C   0  0  0  0  0  0  0  0  0  0  0  0
   48.2960   35.5720   41.3820 C   0  0  0  0  0  0  0  0  0  0  0  0
   47.6020   34.3890   41.5010 C   0  0  0  0  0  0  0  0  0  0  0  0
   48.2630   33.4150   42.1810 N   0  0  0  0  0  0  0  0  0  0  0  0
   49.4860   33.5740   42.6950 C   0  0  0  0  0  0  0  0  0  0  0  0
   50.1350   34.7350   42.5620 N   0  0  0  0  0  0  0  0  0  0  0  0
   49.9980   36.7300   41.7440 H   0  0  0  0  0  0  0  0  0  0  0  0
   47.8000   36.3740   40.8450 H   0  0  0  0  0  0  0  0  0  0  0  0
   49.9240   32.7340   43.2190 H   0  0  0  0  0  0  0  0  0  0  0  0
   46.7440   30.5890   39.7910 S   0  0  0  0  0  0  0  0  0  0  0  0
   45.4620   30.1570   39.1120 O   0  0  0  0  0  0  0  0  0  0  0  0
   47.6610   29.3200   39.6300 O   0  0  0  0  0  0  0  0  0  0  0  0
   46.4110   30.6610   41.4760 C   0  0  0  0  0  0  0  0  0  0  0  0
   47.3340   30.1070   42.4000 C   0  0  0  0  0  0  0  0  0  0  0  0
   48.3070   29.6140   42.1920 H   0  0  0  0  0  0  0  0  0  0  0  0
   46.9520   30.2060   43.7160 C   0  0  0  0  0  0  0  0  0  0  0  0
   47.4400   29.8820   44.6070 H   0  0  0  0  0  0  0  0  0  0  0  0
   45.7810   30.8270   43.6040 N   0  0  0  0  0  0  0  0  0  0  0  0
   45.1040   31.1230   44.3710 H   0  0  0  0  0  0  0  0  0  0  0  0
   45.5030   31.0670   42.3800 N   0  0  0  0  0  0  0  0  0  0  0  0
  1  2  1  0  0  0  0
  1 30  1  0  0  0  0
  2 14  1  0  0  0  0
  3  2  2  0  0  0  0
  4  3  1  0  0  0  0
  5  4  2  0  0  0  0
  5  6  1  0  0  0  0
  6  1  2  0  0  0  0
  7  3  1  0  0  0  0
  8  4  1  0  0  0  0
  9  5  1  0  0  0  0
 10  6  1  0  0  0  0
 12 11  1  0  0  0  0
 13 23  1  0  0  0  0
 13 12  2  0  0  0  0
 14 13  1  0  0  0  0
 15 14  2  0  0  0  0
 15 16  1  0  0  0  0
 16 17  2  0  0  0  0
 17 12  1  0  0  0  0
 17 20  1  0  0  0  0
 18 15  1  0  0  0  0
 19 16  1  0  0  0  0
 21 26  1  0  0  0  0
 22 23  1  0  0  0  0
 22 21  2  0  0  0  0
 23 24  2  0  0  0  0
 24 25  1  0  0  0  0
 25 29  1  0  0  0  0
 26 25  2  0  0  0  0
 27 21  1  0  0  0  0
 28 22  1  0  0  0  0
 30 33  1  0  0  0  0
 31 30  2  0  0  0  0
 32 30  2  0  0  0  0
 33 40  2  0  0  0  0
 33 34  1  0  0  0  0
 34 36  2  0  0  0  0
 35 34  1  0  0  0  0
 36 37  1  0  0  0  0
 38 36  1  0  0  0  0
 38 39  1  0  0  0  0
 40 38  1  0  0  0  0
M  END
>  <minimizedAffinity>
-4.64160872

>  <minimizedRMSD>
0.89975518

$$$$
