
     RDKit          3D

 48 50  0  0  0  0  0  0  0  0999 V2000
   46.1543   34.5997   43.6170 C   0  0  0  0  0  0  0  0  0  0  0  0
   46.1533   33.8430   44.7644 C   0  0  0  0  0  0  0  0  0  0  0  0
   45.3069   34.2283   45.7630 C   0  0  0  0  0  0  0  0  0  0  0  0
   44.5158   35.3110   45.5952 N   0  0  0  0  0  0  0  0  0  0  0  0
   44.5149   36.0387   44.4912 C   0  0  0  0  0  0  0  0  0  0  0  0
   45.3359   35.6729   43.5172 N   0  0  0  0  0  0  0  0  0  0  0  0
   47.0145   34.1469   42.5156 C   0  0  0  0  0  0  0  0  0  0  0  0
   48.3953   34.7290   42.6260 C   0  0  0  0  0  0  0  0  0  0  0  0
   48.7153   35.6207   41.5098 C   0  0  0  0  0  0  0  0  0  0  0  0
   48.5519   34.9278   40.1715 C   0  0  0  0  0  0  0  0  0  0  0  0
   47.3083   34.1321   40.0688 C   0  0  0  0  0  0  0  0  0  0  0  0
   46.3601   34.4215   41.2106 C   0  0  0  0  0  0  0  0  0  0  0  0
   46.8470   32.7577   45.1112 O   0  0  0  0  0  0  0  0  0  0  0  0
   47.1813   32.1754   46.2969 C   0  0  0  0  0  0  0  0  0  0  0  0
   47.2194   30.6591   46.2604 C   0  0  0  0  0  0  0  0  0  0  0  0
   46.0011   30.0903   45.7412 N   0  0  0  0  0  0  0  0  0  0  0  0
   45.1720   29.3328   47.0784 S   0  0  0  0  0  0  0  0  0  0  0  0
   44.0255   28.4959   46.6017 O   0  0  0  0  0  0  0  0  0  0  0  0
   44.6895   30.4248   47.9774 O   0  0  0  0  0  0  0  0  0  0  0  0
   46.2298   28.3765   47.9566 O   0  0  0  0  0  0  0  0  0  0  0  0
   45.1579   33.7746   46.7329 H   0  0  0  0  0  0  0  0  0  0  0  0
   43.8996   36.9165   44.3042 H   0  0  0  0  0  0  0  0  0  0  0  0
   47.2012   33.0638   42.6449 H   0  0  0  0  0  0  0  0  0  0  0  0
   49.1799   33.9557   42.7043 H   0  0  0  0  0  0  0  0  0  0  0  0
   48.4495   35.2969   43.5777 H   0  0  0  0  0  0  0  0  0  0  0  0
   47.9503   36.4522   41.5046 H   0  0  0  0  0  0  0  0  0  0  0  0
   49.7058   36.0735   41.5253 H   0  0  0  0  0  0  0  0  0  0  0  0
   48.6642   35.6583   39.3280 H   0  0  0  0  0  0  0  0  0  0  0  0
   49.4372   34.2360   40.0654 H   0  0  0  0  0  0  0  0  0  0  0  0
   46.7476   34.2380   39.1116 H   0  0  0  0  0  0  0  0  0  0  0  0
   47.5272   33.0307   40.1453 H   0  0  0  0  0  0  0  0  0  0  0  0
   45.4687   33.7665   41.1264 H   0  0  0  0  0  0  0  0  0  0  0  0
   46.0769   35.5048   41.1409 H   0  0  0  0  0  0  0  0  0  0  0  0
   48.2440   32.4770   46.5354 H   0  0  0  0  0  0  0  0  0  0  0  0
   46.6123   32.4297   47.1952 H   0  0  0  0  0  0  0  0  0  0  0  0
   48.0998   30.3607   45.6356 H   0  0  0  0  0  0  0  0  0  0  0  0
   47.4635   30.3008   47.2987 H   0  0  0  0  0  0  0  0  0  0  0  0
   46.2596   29.2869   45.1204 H   0  0  0  0  0  0  0  0  0  0  0  0
   43.3329   28.7921   45.9844 H   0  0  0  0  0  0  0  0  0  0  0  0
   45.2160   30.7332   48.7555 H   0  0  0  0  0  0  0  0  0  0  0  0
   46.6740   27.2037   47.3549 C   0  0  0  0  0  0  0  0  0  0  0  0
   46.5535   26.4622   46.1846 C   0  0  0  0  0  0  0  0  0  0  0  0
   45.8898   26.9290   45.4662 H   0  0  0  0  0  0  0  0  0  0  0  0
   47.3562   25.3353   46.3461 C   0  0  0  0  0  0  0  0  0  0  0  0
   47.3625   24.6562   45.5040 H   0  0  0  0  0  0  0  0  0  0  0  0
   47.9285   25.4071   47.5625 N   0  0  0  0  0  0  0  0  0  0  0  0
   48.5716   24.6434   47.8667 H   0  0  0  0  0  0  0  0  0  0  0  0
   47.5258   26.5226   48.1738 N   0  0  0  0  0  0  0  0  0  0  0  0
  1  2  1  0
  2 13  1  0
  2  3  2  0
  4  3  1  0
  5  4  2  0
  6  1  2  0
  6  5  1  0
  7  8  1  0
  7  1  1  0
  9  8  1  0
 10  9  1  0
 11 10  1  0
 11 12  1  0
 12  7  1  0
 13 14  1  0
 15 14  1  0
 16 15  1  0
 16 17  1  0
 17 19  1  0
 17 20  1  0
 18 17  1  0
  3 21  1  0
  5 22  1  0
  7 23  1  0
  8 24  1  0
  8 25  1  0
  9 26  1  0
  9 27  1  0
 10 28  1  0
 10 29  1  0
 11 30  1  0
 11 31  1  0
 12 32  1  0
 12 33  1  0
 14 34  1  0
 14 35  1  0
 15 36  1  0
 15 37  1  0
 16 38  1  0
 18 39  1  0
 19 40  1  0
 41 42  1  0
 42 43  1  0
 42 44  2  0
 44 45  1  0
 44 46  1  0
 46 47  1  0
 46 48  1  0
 48 41  2  0
 20 41  1  0
M  ISO  8  21  14  22  14  23  13  24  13  25  13  26  13  27  13  28  13
M  ISO  8  29  13  30  13  31  13  32  13  33  13  34   8  35   8  36   8
M  ISO  7  37   8  38   5  39   3  40   3  43  15  45  16  47   5
M  END
>  <DihAtoms>  (1) 
16,19,40,41

>  <DihDeg>  (1) 
-0.0005251178102585706

$$$$
