
 OpenBabel03242516473D

 41 45  0  0  1  0  0  0  0  0999 V2000
   37.1200   25.8130   39.4940 C   0  0  0  0  0  0  0  0  0  0  0  0
   38.2800   25.8560   38.8030 N   0  0  0  0  0  0  0  0  0  0  0  0
   38.4210   27.0310   38.1820 C   0  0  0  0  0  0  0  0  0  0  0  0
   37.3150   27.7580   38.4860 N   0  0  0  0  0  0  0  0  0  0  0  0
   36.5260   27.0450   39.2710 N   0  0  0  0  0  0  0  0  0  0  0  0
   39.2180   27.4030   37.5490 H   0  0  0  0  0  0  0  0  0  0  0  0
   39.1400   30.2490   38.2230 O   0  0  0  0  0  0  0  0  0  0  0  0
   37.9400   30.1050   38.6180 C   0  0  0  0  0  0  0  0  0  0  0  0
   37.0000   29.1090   38.0490 C   0  0  2  0  0  0  0  0  0  0  0  0
   35.6510   29.5560   38.5880 C   0  0  0  0  0  0  0  0  0  0  0  0
   36.0470   30.0810   39.9750 C   0  0  0  0  0  0  0  0  0  0  0  0
   37.2490   30.8340   39.6550 N   0  0  0  0  0  0  0  0  0  0  0  0
   36.9170   29.1440   36.9500 H   0  0  0  0  0  0  0  0  0  0  0  0
   35.2190   30.3620   37.9750 H   0  0  0  0  0  0  0  0  0  0  0  0
   34.9330   28.7220   38.6660 H   0  0  0  0  0  0  0  0  0  0  0  0
   35.2220   30.7080   40.3500 H   0  0  0  0  0  0  0  0  0  0  0  0
   36.2650   29.1950   40.5790 H   0  0  0  0  0  0  0  0  0  0  0  0
   37.8140   32.0490   40.1400 C   0  0  0  0  0  0  0  0  0  0  0  0
   37.4440   33.2350   39.4970 C   0  0  0  0  0  0  0  0  0  0  0  0
   36.7980   33.5260   38.6660 H   0  0  0  0  0  0  0  0  0  0  0  0
   38.1320   34.2540   40.1630 C   0  0  0  0  0  0  0  0  0  0  0  0
   38.1230   35.3360   39.9750 H   0  0  0  0  0  0  0  0  0  0  0  0
   38.8710   33.6730   41.1520 N   0  0  0  0  0  0  0  0  0  0  0  0
   39.4990   34.1820   41.8310 H   0  0  0  0  0  0  0  0  0  0  0  0
   38.6660   32.3460   41.1230 N   0  0  0  0  0  0  0  0  0  0  0  0
   36.9140   24.4340   41.7220 C   0  0  1  0  0  0  0  0  0  0  0  0
   36.5240   24.7670   40.3260 C   0  0  2  0  0  0  0  0  0  0  0  0
   37.2990   23.5710   40.5840 C   0  0  0  0  0  0  0  0  0  0  0  0
   36.0490   24.1710   42.3650 H   0  0  0  0  0  0  0  0  0  0  0  0
   35.4540   24.5720   40.0180 H   0  0  0  0  0  0  0  0  0  0  0  0
   36.8100   22.5520   40.5610 H   0  0  0  0  0  0  0  0  0  0  0  0
   38.3540   23.4870   40.2540 H   0  0  0  0  0  0  0  0  0  0  0  0
   39.1770   24.6560   42.7360 C   0  0  0  0  0  0  0  0  0  0  0  0
   37.9350   25.2250   42.4530 C   0  0  0  0  0  0  0  0  0  0  0  0
   37.7430   26.5210   42.8710 C   0  0  0  0  0  0  0  0  0  0  0  0
   38.7560   27.1500   43.5190 N   0  0  0  0  0  0  0  0  0  0  0  0
   39.9270   26.5850   43.7750 C   0  0  0  0  0  0  0  0  0  0  0  0
   40.1290   25.3190   43.3730 N   0  0  0  0  0  0  0  0  0  0  0  0
   39.4270   23.6340   42.4450 H   0  0  0  0  0  0  0  0  0  0  0  0
   36.8100   27.0060   42.6800 H   0  0  0  0  0  0  0  0  0  0  0  0
   40.6270   27.2260   44.3010 H   0  0  0  0  0  0  0  0  0  0  0  0
  1 27  1  0  0  0  0
  2  1  1  0  0  0  0
  3  4  1  0  0  0  0
  3  2  2  0  0  0  0
  4  5  1  0  0  0  0
  5  1  2  0  0  0  0
  6  3  1  0  0  0  0
  7  8  2  0  0  0  0
  8 12  1  0  0  0  0
  9 13  1  6  0  0  0
  9  4  1  0  0  0  0
  9 10  1  0  0  0  0
  9  8  1  0  0  0  0
 10 15  1  0  0  0  0
 10 11  1  0  0  0  0
 11 16  1  0  0  0  0
 11 17  1  0  0  0  0
 12 11  1  0  0  0  0
 12 18  1  0  0  0  0
 14 10  1  0  0  0  0
 18 25  2  0  0  0  0
 19 18  1  0  0  0  0
 19 21  2  0  0  0  0
 20 19  1  0  0  0  0
 21 23  1  0  0  0  0
 22 21  1  0  0  0  0
 23 24  1  0  0  0  0
 25 23  1  0  0  0  0
 26 29  1  1  0  0  0
 26 34  1  0  0  0  0
 27 30  1  6  0  0  0
 27 28  1  0  0  0  0
 27 26  1  0  0  0  0
 28 26  1  0  0  0  0
 31 28  1  0  0  0  0
 32 28  1  0  0  0  0
 33 38  1  0  0  0  0
 34 33  2  0  0  0  0
 34 35  1  0  0  0  0
 35 36  2  0  0  0  0
 36 37  1  0  0  0  0
 37 41  1  0  0  0  0
 38 37  2  0  0  0  0
 39 33  1  0  0  0  0
 40 35  1  0  0  0  0
M  END
>  <minimizedAffinity>
-6.16623974

$$$$

 OpenBabel03242516473D

 41 45  0  0  1  0  0  0  0  0999 V2000
   36.8830   26.1850   41.4620 C   0  0  0  0  0  0  0  0  0  0  0  0
   36.6450   26.7080   40.2390 N   0  0  0  0  0  0  0  0  0  0  0  0
   36.7570   28.0390   40.2610 C   0  0  0  0  0  0  0  0  0  0  0  0
   37.0770   28.3750   41.5370 N   0  0  0  0  0  0  0  0  0  0  0  0
   37.1560   27.2770   42.2700 N   0  0  0  0  0  0  0  0  0  0  0  0
   36.6350   28.7700   39.4700 H   0  0  0  0  0  0  0  0  0  0  0  0
   36.6100   31.1490   40.2360 O   0  0  0  0  0  0  0  0  0  0  0  0
   37.5320   30.6990   40.9860 C   0  0  0  0  0  0  0  0  0  0  0  0
   37.3070   29.7090   42.0680 C   0  0  2  0  0  0  0  0  0  0  0  0
   38.6000   29.7640   42.8640 C   0  0  0  0  0  0  0  0  0  0  0  0
   39.6240   30.0140   41.7490 C   0  0  0  0  0  0  0  0  0  0  0  0
   38.9380   31.0270   40.9630 N   0  0  0  0  0  0  0  0  0  0  0  0
   36.5020   29.9840   42.7700 H   0  0  0  0  0  0  0  0  0  0  0  0
   38.5950   30.5970   43.5830 H   0  0  0  0  0  0  0  0  0  0  0  0
   38.8060   28.8180   43.3940 H   0  0  0  0  0  0  0  0  0  0  0  0
   40.5550   30.3740   42.2160 H   0  0  0  0  0  0  0  0  0  0  0  0
   39.7150   29.0660   41.2090 H   0  0  0  0  0  0  0  0  0  0  0  0
   39.3690   32.1770   40.2410 C   0  0  0  0  0  0  0  0  0  0  0  0
   39.4190   33.3920   40.9320 C   0  0  0  0  0  0  0  0  0  0  0  0
   39.2080   33.7460   41.9430 H   0  0  0  0  0  0  0  0  0  0  0  0
   39.8660   34.3360   40.0010 C   0  0  0  0  0  0  0  0  0  0  0  0
   40.0440   35.4120   40.1330 H   0  0  0  0  0  0  0  0  0  0  0  0
   40.0640   33.6840   38.8190 N   0  0  0  0  0  0  0  0  0  0  0  0
   40.4020   34.1270   37.9220 H   0  0  0  0  0  0  0  0  0  0  0  0
   39.7600   32.3870   38.9820 N   0  0  0  0  0  0  0  0  0  0  0  0
   38.0880   23.9410   42.1110 C   0  0  1  0  0  0  0  0  0  0  0  0
   36.8880   24.8020   41.9420 C   0  0  2  0  0  0  0  0  0  0  0  0
   37.1460   23.7460   40.9870 C   0  0  0  0  0  0  0  0  0  0  0  0
   38.0360   23.2940   43.0110 H   0  0  0  0  0  0  0  0  0  0  0  0
   36.0040   24.6120   42.6210 H   0  0  0  0  0  0  0  0  0  0  0  0
   36.5490   22.7850   41.0150 H   0  0  0  0  0  0  0  0  0  0  0  0
   37.4370   23.9730   39.9420 H   0  0  0  0  0  0  0  0  0  0  0  0
   40.3010   24.7090   42.9520 C   0  0  0  0  0  0  0  0  0  0  0  0
   39.4570   24.4590   41.8700 C   0  0  0  0  0  0  0  0  0  0  0  0
   39.9730   24.7030   40.6180 C   0  0  0  0  0  0  0  0  0  0  0  0
   41.2460   25.1630   40.5200 N   0  0  0  0  0  0  0  0  0  0  0  0
   42.0270   25.3930   41.5660 C   0  0  0  0  0  0  0  0  0  0  0  0
   41.5360   25.1590   42.7950 N   0  0  0  0  0  0  0  0  0  0  0  0
   39.9850   24.5470   43.9840 H   0  0  0  0  0  0  0  0  0  0  0  0
   39.3700   24.5270   39.7530 H   0  0  0  0  0  0  0  0  0  0  0  0
   43.0170   25.7580   41.3130 H   0  0  0  0  0  0  0  0  0  0  0  0
  1 27  1  0  0  0  0
  1  5  2  0  0  0  0
  2  3  2  0  0  0  0
  2  1  1  0  0  0  0
  3  4  1  0  0  0  0
  4  9  1  0  0  0  0
  4  5  1  0  0  0  0
  6  3  1  0  0  0  0
  7  8  2  0  0  0  0
  8  9  1  0  0  0  0
  9 13  1  1  0  0  0
  9 10  1  0  0  0  0
 10 15  1  0  0  0  0
 10 14  1  0  0  0  0
 11 16  1  0  0  0  0
 11 10  1  0  0  0  0
 12  8  1  0  0  0  0
 12 11  1  0  0  0  0
 17 11  1  0  0  0  0
 18 19  1  0  0  0  0
 18 12  1  0  0  0  0
 19 20  1  0  0  0  0
 21 22  1  0  0  0  0
 21 19  2  0  0  0  0
 23 25  1  0  0  0  0
 23 21  1  0  0  0  0
 24 23  1  0  0  0  0
 25 18  2  0  0  0  0
 26 29  1  1  0  0  0
 27 26  1  0  0  0  0
 27 30  1  1  0  0  0
 28 31  1  0  0  0  0
 28 27  1  0  0  0  0
 28 26  1  0  0  0  0
 32 28  1  0  0  0  0
 33 39  1  0  0  0  0
 34 26  1  0  0  0  0
 34 33  2  0  0  0  0
 35 34  1  0  0  0  0
 36 35  2  0  0  0  0
 36 37  1  0  0  0  0
 37 38  2  0  0  0  0
 38 33  1  0  0  0  0
 40 35  1  0  0  0  0
 41 37  1  0  0  0  0
M  END
>  <minimizedAffinity>
-6.11785078

$$$$

 OpenBabel03242516473D

 41 45  0  0  1  0  0  0  0  0999 V2000
   37.4140   29.4390   42.0830 C   0  0  0  0  0  0  0  0  0  0  0  0
   36.2070   29.4110   41.4750 N   0  0  0  0  0  0  0  0  0  0  0  0
   36.2330   30.1050   40.3340 C   0  0  0  0  0  0  0  0  0  0  0  0
   37.4960   30.5900   40.2100 N   0  0  0  0  0  0  0  0  0  0  0  0
   38.2160   30.2010   41.2490 N   0  0  0  0  0  0  0  0  0  0  0  0
   35.4540   30.2900   39.6030 H   0  0  0  0  0  0  0  0  0  0  0  0
   40.3580   30.7320   39.0300 O   0  0  0  0  0  0  0  0  0  0  0  0
   39.4860   31.6250   39.2710 C   0  0  0  0  0  0  0  0  0  0  0  0
   38.0250   31.4090   39.1310 C   0  0  2  0  0  0  0  0  0  0  0  0
   37.4580   32.8180   39.1870 C   0  0  0  0  0  0  0  0  0  0  0  0
   38.4170   33.4830   40.1830 C   0  0  0  0  0  0  0  0  0  0  0  0
   39.6990   32.9830   39.7120 N   0  0  0  0  0  0  0  0  0  0  0  0
   37.7210   30.9950   38.1550 H   0  0  0  0  0  0  0  0  0  0  0  0
   37.5100   33.3120   38.2050 H   0  0  0  0  0  0  0  0  0  0  0  0
   36.4180   32.8370   39.5580 H   0  0  0  0  0  0  0  0  0  0  0  0
   38.3070   34.5750   40.0840 H   0  0  0  0  0  0  0  0  0  0  0  0
   38.1550   33.0800   41.1660 H   0  0  0  0  0  0  0  0  0  0  0  0
   41.0060   33.5440   39.6180 C   0  0  0  0  0  0  0  0  0  0  0  0
   41.3390   34.2100   38.4340 C   0  0  0  0  0  0  0  0  0  0  0  0
   40.8540   34.4440   37.4850 H   0  0  0  0  0  0  0  0  0  0  0  0
   42.6550   34.6520   38.6100 C   0  0  0  0  0  0  0  0  0  0  0  0
   43.2950   35.2180   37.9200 H   0  0  0  0  0  0  0  0  0  0  0  0
   43.0600   34.2540   39.8510 N   0  0  0  0  0  0  0  0  0  0  0  0
   44.0070   34.4380   40.2770 H   0  0  0  0  0  0  0  0  0  0  0  0
   42.0540   33.5890   40.4430 N   0  0  0  0  0  0  0  0  0  0  0  0
   38.2580   27.4110   43.5250 C   0  0  1  0  0  0  0  0  0  0  0  0
   37.8870   28.8370   43.3300 C   0  0  2  0  0  0  0  0  0  0  0  0
   36.9890   27.9590   44.0510 C   0  0  0  0  0  0  0  0  0  0  0  0
   39.1360   27.2760   44.1910 H   0  0  0  0  0  0  0  0  0  0  0  0
   38.4030   29.6080   43.9760 H   0  0  0  0  0  0  0  0  0  0  0  0
   36.9140   28.0120   45.1780 H   0  0  0  0  0  0  0  0  0  0  0  0
   36.0100   27.6600   43.6250 H   0  0  0  0  0  0  0  0  0  0  0  0
   37.1350   25.6490   42.1700 C   0  0  0  0  0  0  0  0  0  0  0  0
   38.2580   26.4450   42.3980 C   0  0  0  0  0  0  0  0  0  0  0  0
   39.3110   26.2880   41.5270 C   0  0  0  0  0  0  0  0  0  0  0  0
   39.1910   25.3830   40.5220 N   0  0  0  0  0  0  0  0  0  0  0  0
   38.1120   24.6380   40.3290 C   0  0  0  0  0  0  0  0  0  0  0  0
   37.0750   24.7820   41.1720 N   0  0  0  0  0  0  0  0  0  0  0  0
   36.2490   25.7010   42.8050 H   0  0  0  0  0  0  0  0  0  0  0  0
   40.1960   26.8730   41.6540 H   0  0  0  0  0  0  0  0  0  0  0  0
   38.1790   23.9660   39.4800 H   0  0  0  0  0  0  0  0  0  0  0  0
  1 27  1  0  0  0  0
  2  1  1  0  0  0  0
  3  2  2  0  0  0  0
  4  3  1  0  0  0  0
  4  5  1  0  0  0  0
  5  1  2  0  0  0  0
  6  3  1  0  0  0  0
  7  8  2  0  0  0  0
  8 12  1  0  0  0  0
  9 13  1  6  0  0  0
  9 10  1  0  0  0  0
  9  8  1  0  0  0  0
  9  4  1  0  0  0  0
 10 15  1  0  0  0  0
 10 11  1  0  0  0  0
 11 17  1  0  0  0  0
 12 11  1  0  0  0  0
 14 10  1  0  0  0  0
 16 11  1  0  0  0  0
 18 12  1  0  0  0  0
 18 25  2  0  0  0  0
 19 21  2  0  0  0  0
 19 18  1  0  0  0  0
 20 19  1  0  0  0  0
 21 23  1  0  0  0  0
 22 21  1  0  0  0  0
 23 24  1  0  0  0  0
 23 25  1  0  0  0  0
 26 28  1  0  0  0  0
 26 29  1  1  0  0  0
 27 26  1  0  0  0  0
 27 30  1  1  0  0  0
 27 28  1  0  0  0  0
 28 31  1  0  0  0  0
 32 28  1  0  0  0  0
 33 34  1  0  0  0  0
 33 39  1  0  0  0  0
 34 26  1  0  0  0  0
 35 40  1  0  0  0  0
 35 34  2  0  0  0  0
 36 35  1  0  0  0  0
 37 36  2  0  0  0  0
 37 38  1  0  0  0  0
 38 33  2  0  0  0  0
 41 37  1  0  0  0  0
M  END
>  <minimizedAffinity>
-6.10277557

$$$$

 OpenBabel03242516473D

 41 45  0  0  1  0  0  0  0  0999 V2000
   37.8520   29.5010   42.5490 C   0  0  0  0  0  0  0  0  0  0  0  0
   38.8620   30.3550   42.2740 N   0  0  0  0  0  0  0  0  0  0  0  0
   38.6030   31.0580   41.1680 C   0  0  0  0  0  0  0  0  0  0  0  0
   37.3900   30.6370   40.7240 N   0  0  0  0  0  0  0  0  0  0  0  0
   36.9260   29.7060   41.5390 N   0  0  0  0  0  0  0  0  0  0  0  0
   39.1860   31.8200   40.6640 H   0  0  0  0  0  0  0  0  0  0  0  0
   35.5710   29.0870   38.7510 O   0  0  0  0  0  0  0  0  0  0  0  0
   36.4320   30.0060   38.5800 C   0  0  0  0  0  0  0  0  0  0  0  0
   36.6700   31.1040   39.5490 C   0  0  2  0  0  0  0  0  0  0  0  0
   37.5060   32.0940   38.7550 C   0  0  0  0  0  0  0  0  0  0  0  0
   38.3420   31.1450   37.8860 C   0  0  0  0  0  0  0  0  0  0  0  0
   37.3300   30.1890   37.4640 N   0  0  0  0  0  0  0  0  0  0  0  0
   35.7590   31.6450   39.8510 H   0  0  0  0  0  0  0  0  0  0  0  0
   36.8750   32.7430   38.1290 H   0  0  0  0  0  0  0  0  0  0  0  0
   38.1490   32.7150   39.4030 H   0  0  0  0  0  0  0  0  0  0  0  0
   38.7680   31.7300   37.0550 H   0  0  0  0  0  0  0  0  0  0  0  0
   39.0790   30.6950   38.5580 H   0  0  0  0  0  0  0  0  0  0  0  0
   37.0920   29.4680   36.2590 C   0  0  0  0  0  0  0  0  0  0  0  0
   36.2780   30.0720   35.2950 C   0  0  0  0  0  0  0  0  0  0  0  0
   35.7270   31.0080   35.1870 H   0  0  0  0  0  0  0  0  0  0  0  0
   36.2130   29.1610   34.2350 C   0  0  0  0  0  0  0  0  0  0  0  0
   35.6780   29.2460   33.2790 H   0  0  0  0  0  0  0  0  0  0  0  0
   36.9640   28.0760   34.5790 N   0  0  0  0  0  0  0  0  0  0  0  0
   37.1120   27.2170   33.9830 H   0  0  0  0  0  0  0  0  0  0  0  0
   37.4850   28.2780   35.8000 N   0  0  0  0  0  0  0  0  0  0  0  0
   38.0160   27.0950   43.5950 C   0  0  1  0  0  0  0  0  0  0  0  0
   37.6630   28.5380   43.6360 C   0  0  2  0  0  0  0  0  0  0  0  0
   36.6120   27.5520   43.5030 C   0  0  0  0  0  0  0  0  0  0  0  0
   38.4280   26.7190   44.5540 H   0  0  0  0  0  0  0  0  0  0  0  0
   37.6910   29.0580   44.6400 H   0  0  0  0  0  0  0  0  0  0  0  0
   35.9570   27.2860   44.3850 H   0  0  0  0  0  0  0  0  0  0  0  0
   36.0320   27.4520   42.5640 H   0  0  0  0  0  0  0  0  0  0  0  0
   40.0890   26.4710   42.3650 C   0  0  0  0  0  0  0  0  0  0  0  0
   38.6960   26.4940   42.4200 C   0  0  0  0  0  0  0  0  0  0  0  0
   38.0290   25.9270   41.3590 C   0  0  0  0  0  0  0  0  0  0  0  0
   38.7580   25.3940   40.3460 N   0  0  0  0  0  0  0  0  0  0  0  0
   40.0820   25.3860   40.3180 C   0  0  0  0  0  0  0  0  0  0  0  0
   40.7470   25.9350   41.3490 N   0  0  0  0  0  0  0  0  0  0  0  0
   40.7080   26.8940   43.1580 H   0  0  0  0  0  0  0  0  0  0  0  0
   36.9600   25.9160   41.3500 H   0  0  0  0  0  0  0  0  0  0  0  0
   40.5090   24.9200   39.4360 H   0  0  0  0  0  0  0  0  0  0  0  0
  1 27  1  0  0  0  0
  2  1  1  0  0  0  0
  3  2  2  0  0  0  0
  4  3  1  0  0  0  0
  4  5  1  0  0  0  0
  5  1  2  0  0  0  0
  6  3  1  0  0  0  0
  8  7  2  0  0  0  0
  8  9  1  0  0  0  0
  9 13  1  1  0  0  0
  9  4  1  0  0  0  0
 10 15  1  0  0  0  0
 10  9  1  0  0  0  0
 11 17  1  0  0  0  0
 11 10  1  0  0  0  0
 12 11  1  0  0  0  0
 12  8  1  0  0  0  0
 14 10  1  0  0  0  0
 16 11  1  0  0  0  0
 18 12  1  0  0  0  0
 19 18  1  0  0  0  0
 20 19  1  0  0  0  0
 21 23  1  0  0  0  0
 21 19  2  0  0  0  0
 22 21  1  0  0  0  0
 23 25  1  0  0  0  0
 24 23  1  0  0  0  0
 25 18  2  0  0  0  0
 26 27  1  0  0  0  0
 26 29  1  1  0  0  0
 27 30  1  1  0  0  0
 28 26  1  0  0  0  0
 28 27  1  0  0  0  0
 28 31  1  0  0  0  0
 32 28  1  0  0  0  0
 33 34  1  0  0  0  0
 33 39  1  0  0  0  0
 34 26  1  0  0  0  0
 35 34  2  0  0  0  0
 36 35  1  0  0  0  0
 37 36  2  0  0  0  0
 37 38  1  0  0  0  0
 38 33  2  0  0  0  0
 40 35  1  0  0  0  0
 41 37  1  0  0  0  0
M  END
>  <minimizedAffinity>
-6.06135178

$$$$

 OpenBabel03242516473D

 41 45  0  0  1  0  0  0  0  0999 V2000
   36.8730   30.8530   40.4630 C   0  0  0  0  0  0  0  0  0  0  0  0
   35.9080   29.9290   40.6640 N   0  0  0  0  0  0  0  0  0  0  0  0
   36.2350   29.1110   41.6690 C   0  0  0  0  0  0  0  0  0  0  0  0
   37.4470   29.5260   42.1200 N   0  0  0  0  0  0  0  0  0  0  0  0
   37.8430   30.5680   41.4100 N   0  0  0  0  0  0  0  0  0  0  0  0
   35.7020   28.2680   42.0940 H   0  0  0  0  0  0  0  0  0  0  0  0
   40.5180   29.2850   42.4630 O   0  0  0  0  0  0  0  0  0  0  0  0
   39.5600   28.4980   42.7460 C   0  0  0  0  0  0  0  0  0  0  0  0
   38.2270   28.9550   43.2070 C   0  0  2  0  0  0  0  0  0  0  0  0
   37.5840   27.6810   43.7290 C   0  0  0  0  0  0  0  0  0  0  0  0
   38.1530   26.6420   42.7540 C   0  0  0  0  0  0  0  0  0  0  0  0
   39.5460   27.0550   42.6880 N   0  0  0  0  0  0  0  0  0  0  0  0
   38.2590   29.6530   44.0600 H   0  0  0  0  0  0  0  0  0  0  0  0
   37.9000   27.4620   44.7600 H   0  0  0  0  0  0  0  0  0  0  0  0
   36.4810   27.7160   43.6780 H   0  0  0  0  0  0  0  0  0  0  0  0
   38.0110   25.6430   43.1980 H   0  0  0  0  0  0  0  0  0  0  0  0
   37.6300   26.8030   41.8060 H   0  0  0  0  0  0  0  0  0  0  0  0
   40.7820   26.3540   42.5840 C   0  0  0  0  0  0  0  0  0  0  0  0
   41.4170   25.9860   43.7740 C   0  0  0  0  0  0  0  0  0  0  0  0
   41.2290   26.0850   44.8450 H   0  0  0  0  0  0  0  0  0  0  0  0
   42.5870   25.3250   43.3860 C   0  0  0  0  0  0  0  0  0  0  0  0
   43.3710   24.8760   44.0110 H   0  0  0  0  0  0  0  0  0  0  0  0
   42.6210   25.3160   42.0220 N   0  0  0  0  0  0  0  0  0  0  0  0
   43.3820   24.8880   41.4290 H   0  0  0  0  0  0  0  0  0  0  0  0
   41.5270   25.9390   41.5570 N   0  0  0  0  0  0  0  0  0  0  0  0
   37.4590   31.8450   38.1000 C   0  0  1  0  0  0  0  0  0  0  0  0
   36.9780   31.9530   39.5030 C   0  0  2  0  0  0  0  0  0  0  0  0
   38.2980   32.4420   39.1620 C   0  0  0  0  0  0  0  0  0  0  0  0
   36.8940   32.4900   37.3950 H   0  0  0  0  0  0  0  0  0  0  0  0
   36.2270   32.7640   39.7410 H   0  0  0  0  0  0  0  0  0  0  0  0
   38.4930   33.5510   39.0610 H   0  0  0  0  0  0  0  0  0  0  0  0
   39.2120   31.9350   39.5300 H   0  0  0  0  0  0  0  0  0  0  0  0
   36.9070   29.8900   36.6610 C   0  0  0  0  0  0  0  0  0  0  0  0
   37.8150   30.5350   37.4990 C   0  0  0  0  0  0  0  0  0  0  0  0
   39.0190   29.9030   37.7040 C   0  0  0  0  0  0  0  0  0  0  0  0
   39.2400   28.7130   37.0900 N   0  0  0  0  0  0  0  0  0  0  0  0
   38.3580   28.1210   36.2970 C   0  0  0  0  0  0  0  0  0  0  0  0
   37.1780   28.7280   36.0880 N   0  0  0  0  0  0  0  0  0  0  0  0
   35.9250   30.3100   36.4350 H   0  0  0  0  0  0  0  0  0  0  0  0
   39.7530   30.3540   38.3380 H   0  0  0  0  0  0  0  0  0  0  0  0
   38.6920   27.1750   35.8850 H   0  0  0  0  0  0  0  0  0  0  0  0
  1  2  1  0  0  0  0
  1  5  2  0  0  0  0
  2  3  2  0  0  0  0
  3  6  1  0  0  0  0
  3  4  1  0  0  0  0
  4  9  1  0  0  0  0
  5  4  1  0  0  0  0
  7  8  2  0  0  0  0
  8  9  1  0  0  0  0
  9 10  1  0  0  0  0
  9 13  1  1  0  0  0
 10 14  1  0  0  0  0
 11 16  1  0  0  0  0
 11 10  1  0  0  0  0
 12  8  1  0  0  0  0
 12 11  1  0  0  0  0
 15 10  1  0  0  0  0
 17 11  1  0  0  0  0
 18 12  1  0  0  0  0
 18 19  1  0  0  0  0
 19 20  1  0  0  0  0
 21 19  2  0  0  0  0
 21 22  1  0  0  0  0
 23 21  1  0  0  0  0
 24 23  1  0  0  0  0
 25 23  1  0  0  0  0
 25 18  2  0  0  0  0
 26 29  1  6  0  0  0
 26 28  1  0  0  0  0
 26 27  1  0  0  0  0
 27 30  1  1  0  0  0
 27  1  1  0  0  0  0
 28 27  1  0  0  0  0
 28 32  1  0  0  0  0
 31 28  1  0  0  0  0
 33 34  1  0  0  0  0
 34 35  2  0  0  0  0
 34 26  1  0  0  0  0
 35 40  1  0  0  0  0
 36 35  1  0  0  0  0
 37 36  2  0  0  0  0
 38 37  1  0  0  0  0
 38 33  2  0  0  0  0
 39 33  1  0  0  0  0
 41 37  1  0  0  0  0
M  END
>  <minimizedAffinity>
-5.95920706

$$$$

 OpenBabel03242516473D

 41 45  0  0  1  0  0  0  0  0999 V2000
   38.4080   29.1370   41.8990 C   0  0  0  0  0  0  0  0  0  0  0  0
   39.3450   29.3420   40.9480 N   0  0  0  0  0  0  0  0  0  0  0  0
   38.7920   29.8300   39.8340 C   0  0  0  0  0  0  0  0  0  0  0  0
   37.4610   29.9380   40.0830 N   0  0  0  0  0  0  0  0  0  0  0  0
   37.2140   29.5270   41.3150 N   0  0  0  0  0  0  0  0  0  0  0  0
   39.2410   30.1070   38.8870 H   0  0  0  0  0  0  0  0  0  0  0  0
   34.4480   29.2290   39.9270 O   0  0  0  0  0  0  0  0  0  0  0  0
   35.3250   29.4430   39.0320 C   0  0  0  0  0  0  0  0  0  0  0  0
   36.4310   30.4210   39.1780 C   0  0  2  0  0  0  0  0  0  0  0  0
   36.9660   30.5540   37.7620 C   0  0  0  0  0  0  0  0  0  0  0  0
   36.7770   29.1240   37.2390 C   0  0  0  0  0  0  0  0  0  0  0  0
   35.4440   28.8200   37.7350 N   0  0  0  0  0  0  0  0  0  0  0  0
   36.1030   31.4300   39.4780 H   0  0  0  0  0  0  0  0  0  0  0  0
   36.3710   31.2680   37.1720 H   0  0  0  0  0  0  0  0  0  0  0  0
   38.0300   30.8510   37.7420 H   0  0  0  0  0  0  0  0  0  0  0  0
   36.8410   29.1530   36.1390 H   0  0  0  0  0  0  0  0  0  0  0  0
   37.5460   28.5220   37.7300 H   0  0  0  0  0  0  0  0  0  0  0  0
   34.3400   28.0840   37.2170 C   0  0  0  0  0  0  0  0  0  0  0  0
   33.4030   28.7810   36.4460 C   0  0  0  0  0  0  0  0  0  0  0  0
   33.2590   29.8050   36.0980 H   0  0  0  0  0  0  0  0  0  0  0  0
   32.4440   27.8340   36.0740 C   0  0  0  0  0  0  0  0  0  0  0  0
   31.5390   27.9640   35.4650 H   0  0  0  0  0  0  0  0  0  0  0  0
   32.8170   26.6370   36.6120 N   0  0  0  0  0  0  0  0  0  0  0  0
   32.2950   25.7260   36.5070 H   0  0  0  0  0  0  0  0  0  0  0  0
   33.9600   26.8070   37.2960 N   0  0  0  0  0  0  0  0  0  0  0  0
   38.4820   27.2000   43.6750 C   0  0  1  0  0  0  0  0  0  0  0  0
   38.5100   28.6300   43.2690 C   0  0  2  0  0  0  0  0  0  0  0  0
   37.3190   28.0890   43.8900 C   0  0  0  0  0  0  0  0  0  0  0  0
   39.1800   26.9700   44.5060 H   0  0  0  0  0  0  0  0  0  0  0  0
   39.0900   29.3510   43.9200 H   0  0  0  0  0  0  0  0  0  0  0  0
   37.0780   28.3190   44.9710 H   0  0  0  0  0  0  0  0  0  0  0  0
   36.3790   27.9600   43.3180 H   0  0  0  0  0  0  0  0  0  0  0  0
   37.1890   25.6140   42.2570 C   0  0  0  0  0  0  0  0  0  0  0  0
   38.4260   26.1080   42.6720 C   0  0  0  0  0  0  0  0  0  0  0  0
   39.5390   25.5420   42.0950 C   0  0  0  0  0  0  0  0  0  0  0  0
   39.3640   24.5580   41.1770 N   0  0  0  0  0  0  0  0  0  0  0  0
   38.1760   24.1070   40.8000 C   0  0  0  0  0  0  0  0  0  0  0  0
   37.0800   24.6510   41.3550 N   0  0  0  0  0  0  0  0  0  0  0  0
   36.2480   25.9980   42.6540 H   0  0  0  0  0  0  0  0  0  0  0  0
   40.5120   25.8830   42.3760 H   0  0  0  0  0  0  0  0  0  0  0  0
   38.2130   23.3190   40.0570 H   0  0  0  0  0  0  0  0  0  0  0  0
  1 27  1  0  0  0  0
  2  1  1  0  0  0  0
  3  4  1  0  0  0  0
  3  2  2  0  0  0  0
  4  5  1  0  0  0  0
  5  1  2  0  0  0  0
  6  3  1  0  0  0  0
  8  9  1  0  0  0  0
  8  7  2  0  0  0  0
  9 13  1  1  0  0  0
  9  4  1  0  0  0  0
 10  9  1  0  0  0  0
 11 17  1  0  0  0  0
 11 12  1  0  0  0  0
 11 10  1  0  0  0  0
 12  8  1  0  0  0  0
 14 10  1  0  0  0  0
 15 10  1  0  0  0  0
 16 11  1  0  0  0  0
 18 25  2  0  0  0  0
 18 12  1  0  0  0  0
 19 18  1  0  0  0  0
 20 19  1  0  0  0  0
 21 19  2  0  0  0  0
 21 23  1  0  0  0  0
 22 21  1  0  0  0  0
 23 25  1  0  0  0  0
 24 23  1  0  0  0  0
 26 28  1  0  0  0  0
 26 29  1  1  0  0  0
 27 26  1  0  0  0  0
 27 28  1  0  0  0  0
 27 30  1  1  0  0  0
 28 31  1  0  0  0  0
 32 28  1  0  0  0  0
 33 39  1  0  0  0  0
 33 34  1  0  0  0  0
 34 26  1  0  0  0  0
 35 40  1  0  0  0  0
 35 34  2  0  0  0  0
 36 35  1  0  0  0  0
 37 36  2  0  0  0  0
 37 38  1  0  0  0  0
 38 33  2  0  0  0  0
 41 37  1  0  0  0  0
M  END
>  <minimizedAffinity>
-5.82790136

$$$$

 OpenBabel03242516473D

 41 45  0  0  1  0  0  0  0  0999 V2000
   38.7060   31.5830   41.3480 C   0  0  0  0  0  0  0  0  0  0  0  0
   39.9730   31.5640   41.8160 N   0  0  0  0  0  0  0  0  0  0  0  0
   40.2330   30.4110   42.4390 C   0  0  0  0  0  0  0  0  0  0  0  0
   39.0950   29.6730   42.3670 N   0  0  0  0  0  0  0  0  0  0  0  0
   38.1710   30.3590   41.7170 N   0  0  0  0  0  0  0  0  0  0  0  0
   41.1360   30.0610   42.9270 H   0  0  0  0  0  0  0  0  0  0  0  0
   39.7420   26.9010   41.1390 O   0  0  0  0  0  0  0  0  0  0  0  0
   38.7560   27.3280   41.8190 C   0  0  0  0  0  0  0  0  0  0  0  0
   38.8750   28.3370   42.8990 C   0  0  2  0  0  0  0  0  0  0  0  0
   37.5330   28.2480   43.6080 C   0  0  0  0  0  0  0  0  0  0  0  0
   36.5960   27.9500   42.4300 C   0  0  0  0  0  0  0  0  0  0  0  0
   37.3660   26.9520   41.7060 N   0  0  0  0  0  0  0  0  0  0  0  0
   39.6390   28.0990   43.6570 H   0  0  0  0  0  0  0  0  0  0  0  0
   37.5180   27.4230   44.3370 H   0  0  0  0  0  0  0  0  0  0  0  0
   37.2600   29.1920   44.1100 H   0  0  0  0  0  0  0  0  0  0  0  0
   35.6480   27.5630   42.8390 H   0  0  0  0  0  0  0  0  0  0  0  0
   36.5090   28.8870   41.8730 H   0  0  0  0  0  0  0  0  0  0  0  0
   37.0240   25.7790   40.9730 C   0  0  0  0  0  0  0  0  0  0  0  0
   36.9680   24.5710   41.6760 C   0  0  0  0  0  0  0  0  0  0  0  0
   37.1220   24.2360   42.7030 H   0  0  0  0  0  0  0  0  0  0  0  0
   36.6170   23.6020   40.7300 C   0  0  0  0  0  0  0  0  0  0  0  0
   36.4660   22.5220   40.8650 H   0  0  0  0  0  0  0  0  0  0  0  0
   36.4770   24.2320   39.5280 N   0  0  0  0  0  0  0  0  0  0  0  0
   36.2160   23.7680   38.6170 H   0  0  0  0  0  0  0  0  0  0  0  0
   36.7260   25.5420   39.6940 N   0  0  0  0  0  0  0  0  0  0  0  0
   37.3550   32.4270   39.2580 C   0  0  1  0  0  0  0  0  0  0  0  0
   37.9610   32.6000   40.6050 C   0  0  2  0  0  0  0  0  0  0  0  0
   38.5940   33.2100   39.4550 C   0  0  0  0  0  0  0  0  0  0  0  0
   36.3740   32.9360   39.1530 H   0  0  0  0  0  0  0  0  0  0  0  0
   37.4710   33.3330   41.3120 H   0  0  0  0  0  0  0  0  0  0  0  0
   38.5010   34.3220   39.2690 H   0  0  0  0  0  0  0  0  0  0  0  0
   39.5720   32.8500   39.0780 H   0  0  0  0  0  0  0  0  0  0  0  0
   36.3080   30.2470   38.6690 C   0  0  0  0  0  0  0  0  0  0  0  0
   37.3870   31.1220   38.5520 C   0  0  0  0  0  0  0  0  0  0  0  0
   38.4300   30.7110   37.7550 C   0  0  0  0  0  0  0  0  0  0  0  0
   38.3420   29.5010   37.1460 N   0  0  0  0  0  0  0  0  0  0  0  0
   37.3040   28.6870   37.2750 C   0  0  0  0  0  0  0  0  0  0  0  0
   36.2780   29.0770   38.0500 N   0  0  0  0  0  0  0  0  0  0  0  0
   35.4330   30.4820   39.2770 H   0  0  0  0  0  0  0  0  0  0  0  0
   39.2820   31.3430   37.6290 H   0  0  0  0  0  0  0  0  0  0  0  0
   37.3920   27.7590   36.7220 H   0  0  0  0  0  0  0  0  0  0  0  0
  1  5  2  0  0  0  0
  1  2  1  0  0  0  0
  2  3  2  0  0  0  0
  3  6  1  0  0  0  0
  4  3  1  0  0  0  0
  4  9  1  0  0  0  0
  5  4  1  0  0  0  0
  7  8  2  0  0  0  0
  8  9  1  0  0  0  0
  9 10  1  0  0  0  0
  9 13  1  1  0  0  0
 10 15  1  0  0  0  0
 10 14  1  0  0  0  0
 11 16  1  0  0  0  0
 11 10  1  0  0  0  0
 12  8  1  0  0  0  0
 12 11  1  0  0  0  0
 17 11  1  0  0  0  0
 18 19  1  0  0  0  0
 18 12  1  0  0  0  0
 19 20  1  0  0  0  0
 21 22  1  0  0  0  0
 21 19  2  0  0  0  0
 23 25  1  0  0  0  0
 23 21  1  0  0  0  0
 24 23  1  0  0  0  0
 25 18  2  0  0  0  0
 26 29  1  6  0  0  0
 26 28  1  0  0  0  0
 26 27  1  0  0  0  0
 27 30  1  1  0  0  0
 27  1  1  0  0  0  0
 28 27  1  0  0  0  0
 31 28  1  0  0  0  0
 32 28  1  0  0  0  0
 33 39  1  0  0  0  0
 34 33  1  0  0  0  0
 34 26  1  0  0  0  0
 35 34  2  0  0  0  0
 36 37  2  0  0  0  0
 36 35  1  0  0  0  0
 37 38  1  0  0  0  0
 38 33  2  0  0  0  0
 40 35  1  0  0  0  0
 41 37  1  0  0  0  0
M  END
>  <minimizedAffinity>
-5.79820633

$$$$

 OpenBabel03242516473D

 41 45  0  0  1  0  0  0  0  0999 V2000
   38.2620   32.9450   39.3570 C   0  0  0  0  0  0  0  0  0  0  0  0
   38.2170   33.8940   40.3180 N   0  0  0  0  0  0  0  0  0  0  0  0
   39.4410   34.3560   40.5890 C   0  0  0  0  0  0  0  0  0  0  0  0
   40.2930   33.6800   39.7750 N   0  0  0  0  0  0  0  0  0  0  0  0
   39.6040   32.8310   39.0310 N   0  0  0  0  0  0  0  0  0  0  0  0
   39.7700   35.1090   41.2950 H   0  0  0  0  0  0  0  0  0  0  0  0
   42.1100   34.2110   37.3210 O   0  0  0  0  0  0  0  0  0  0  0  0
   42.2500   33.4730   38.3460 C   0  0  0  0  0  0  0  0  0  0  0  0
   41.7370   33.8260   39.6930 C   0  0  2  0  0  0  0  0  0  0  0  0
   42.4390   32.8320   40.6040 C   0  0  0  0  0  0  0  0  0  0  0  0
   42.4980   31.5930   39.7000 C   0  0  0  0  0  0  0  0  0  0  0  0
   42.9040   32.1890   38.4370 N   0  0  0  0  0  0  0  0  0  0  0  0
   42.0390   34.8270   40.0420 H   0  0  0  0  0  0  0  0  0  0  0  0
   43.4530   33.1720   40.8660 H   0  0  0  0  0  0  0  0  0  0  0  0
   41.8650   32.6300   41.5250 H   0  0  0  0  0  0  0  0  0  0  0  0
   43.2440   30.9000   40.1200 H   0  0  0  0  0  0  0  0  0  0  0  0
   41.4760   31.2030   39.6620 H   0  0  0  0  0  0  0  0  0  0  0  0
   43.7520   31.7670   37.3730 C   0  0  0  0  0  0  0  0  0  0  0  0
   45.1060   32.1100   37.4520 C   0  0  0  0  0  0  0  0  0  0  0  0
   45.7550   32.6470   38.1450 H   0  0  0  0  0  0  0  0  0  0  0  0
   45.6950   31.5810   36.2980 C   0  0  0  0  0  0  0  0  0  0  0  0
   46.7430   31.6240   35.9710 H   0  0  0  0  0  0  0  0  0  0  0  0
   44.7130   30.9590   35.5840 N   0  0  0  0  0  0  0  0  0  0  0  0
   44.8440   30.4620   34.6620 H   0  0  0  0  0  0  0  0  0  0  0  0
   43.5510   31.0810   36.2460 N   0  0  0  0  0  0  0  0  0  0  0  0
   36.8190   30.7660   39.0810 C   0  0  1  0  0  0  0  0  0  0  0  0
   37.2060   32.1560   38.7210 C   0  0  2  0  0  0  0  0  0  0  0  0
   37.5940   31.0620   37.8570 C   0  0  0  0  0  0  0  0  0  0  0  0
   35.7240   30.5920   39.0290 H   0  0  0  0  0  0  0  0  0  0  0  0
   36.4070   32.8300   38.2910 H   0  0  0  0  0  0  0  0  0  0  0  0
   37.0510   30.8770   36.8820 H   0  0  0  0  0  0  0  0  0  0  0  0
   38.6550   30.7560   37.7560 H   0  0  0  0  0  0  0  0  0  0  0  0
   36.8520   30.1110   41.4830 C   0  0  0  0  0  0  0  0  0  0  0  0
   37.4460   30.0540   40.2220 C   0  0  0  0  0  0  0  0  0  0  0  0
   38.5970   29.3090   40.1180 C   0  0  0  0  0  0  0  0  0  0  0  0
   39.0710   28.6890   41.2280 N   0  0  0  0  0  0  0  0  0  0  0  0
   38.4860   28.7600   42.4150 C   0  0  0  0  0  0  0  0  0  0  0  0
   37.3610   29.4850   42.5320 N   0  0  0  0  0  0  0  0  0  0  0  0
   35.9370   30.6760   41.6680 H   0  0  0  0  0  0  0  0  0  0  0  0
   39.0940   29.2300   39.1740 H   0  0  0  0  0  0  0  0  0  0  0  0
   38.9940   28.2060   43.1970 H   0  0  0  0  0  0  0  0  0  0  0  0
  1  2  1  0  0  0  0
  2  3  2  0  0  0  0
  3  6  1  0  0  0  0
  4  3  1  0  0  0  0
  5  1  2  0  0  0  0
  5  4  1  0  0  0  0
  7  8  2  0  0  0  0
  8 12  1  0  0  0  0
  8  9  1  0  0  0  0
  9  4  1  0  0  0  0
  9 13  1  1  0  0  0
  9 10  1  0  0  0  0
 10 14  1  0  0  0  0
 10 15  1  0  0  0  0
 11 16  1  0  0  0  0
 11 10  1  0  0  0  0
 12 11  1  0  0  0  0
 17 11  1  0  0  0  0
 18 19  1  0  0  0  0
 18 12  1  0  0  0  0
 19 20  1  0  0  0  0
 21 19  2  0  0  0  0
 22 21  1  0  0  0  0
 23 25  1  0  0  0  0
 23 21  1  0  0  0  0
 24 23  1  0  0  0  0
 25 18  2  0  0  0  0
 26 29  1  6  0  0  0
 26 34  1  0  0  0  0
 27 30  1  6  0  0  0
 27 26  1  0  0  0  0
 27  1  1  0  0  0  0
 28 27  1  0  0  0  0
 28 26  1  0  0  0  0
 31 28  1  0  0  0  0
 32 28  1  0  0  0  0
 33 39  1  0  0  0  0
 33 38  1  0  0  0  0
 34 33  2  0  0  0  0
 35 34  1  0  0  0  0
 35 36  2  0  0  0  0
 36 37  1  0  0  0  0
 37 38  2  0  0  0  0
 37 41  1  0  0  0  0
 40 35  1  0  0  0  0
M  END
>  <minimizedAffinity>
-5.79705811

$$$$

 OpenBabel03242516473D

 41 45  0  0  1  0  0  0  0  0999 V2000
   37.9830   29.2110   42.3160 C   0  0  0  0  0  0  0  0  0  0  0  0
   38.9170   30.0020   42.8870 N   0  0  0  0  0  0  0  0  0  0  0  0
   39.4970   30.7880   41.9760 C   0  0  0  0  0  0  0  0  0  0  0  0
   38.9160   30.4870   40.7860 N   0  0  0  0  0  0  0  0  0  0  0  0
   38.0060   29.5450   40.9710 N   0  0  0  0  0  0  0  0  0  0  0  0
   40.2770   31.5340   42.0810 H   0  0  0  0  0  0  0  0  0  0  0  0
   41.5700   30.5930   39.1900 O   0  0  0  0  0  0  0  0  0  0  0  0
   40.6380   31.4400   39.3580 C   0  0  0  0  0  0  0  0  0  0  0  0
   39.2060   31.0750   39.4880 C   0  0  2  0  0  0  0  0  0  0  0  0
   38.4910   32.4050   39.3200 C   0  0  0  0  0  0  0  0  0  0  0  0
   39.4840   33.3620   39.9930 C   0  0  0  0  0  0  0  0  0  0  0  0
   40.7460   32.8770   39.4560 N   0  0  0  0  0  0  0  0  0  0  0  0
   38.8320   30.4220   38.6820 H   0  0  0  0  0  0  0  0  0  0  0  0
   38.3610   32.6620   38.2570 H   0  0  0  0  0  0  0  0  0  0  0  0
   37.5110   32.4220   39.8280 H   0  0  0  0  0  0  0  0  0  0  0  0
   39.2370   34.3880   39.6760 H   0  0  0  0  0  0  0  0  0  0  0  0
   39.3960   33.1770   41.0680 H   0  0  0  0  0  0  0  0  0  0  0  0
   41.9560   33.5090   39.0490 C   0  0  0  0  0  0  0  0  0  0  0  0
   42.0590   33.9080   37.7120 C   0  0  0  0  0  0  0  0  0  0  0  0
   41.4340   33.8740   36.8180 H   0  0  0  0  0  0  0  0  0  0  0  0
   43.3260   34.4880   37.5900 C   0  0  0  0  0  0  0  0  0  0  0  0
   43.8040   34.9300   36.7050 H   0  0  0  0  0  0  0  0  0  0  0  0
   43.9270   34.4240   38.8120 N   0  0  0  0  0  0  0  0  0  0  0  0
   44.8930   34.7810   39.0420 H   0  0  0  0  0  0  0  0  0  0  0  0
   43.0880   33.8320   39.6780 N   0  0  0  0  0  0  0  0  0  0  0  0
   37.4420   26.7910   43.1860 C   0  0  1  0  0  0  0  0  0  0  0  0
   37.0860   28.2020   42.8820 C   0  0  2  0  0  0  0  0  0  0  0  0
   36.6090   27.1450   42.0160 C   0  0  0  0  0  0  0  0  0  0  0  0
   36.9750   26.4150   44.1200 H   0  0  0  0  0  0  0  0  0  0  0  0
   36.2830   28.6890   43.5110 H   0  0  0  0  0  0  0  0  0  0  0  0
   35.5320   26.8020   42.0650 H   0  0  0  0  0  0  0  0  0  0  0  0
   36.9890   27.0340   40.9810 H   0  0  0  0  0  0  0  0  0  0  0  0
   39.1660   25.6140   41.8300 C   0  0  0  0  0  0  0  0  0  0  0  0
   38.8240   26.2810   43.0060 C   0  0  0  0  0  0  0  0  0  0  0  0
   39.8230   26.4380   43.9370 C   0  0  0  0  0  0  0  0  0  0  0  0
   41.0550   25.9410   43.6570 N   0  0  0  0  0  0  0  0  0  0  0  0
   41.3540   25.3100   42.5300 C   0  0  0  0  0  0  0  0  0  0  0  0
   40.3870   25.1500   41.6110 N   0  0  0  0  0  0  0  0  0  0  0  0
   38.4440   25.4400   41.0300 H   0  0  0  0  0  0  0  0  0  0  0  0
   39.6160   26.9430   44.8570 H   0  0  0  0  0  0  0  0  0  0  0  0
   42.3830   24.9770   42.4640 H   0  0  0  0  0  0  0  0  0  0  0  0
  1 27  1  0  0  0  0
  1  2  1  0  0  0  0
  3  6  1  0  0  0  0
  3  2  2  0  0  0  0
  4  5  1  0  0  0  0
  4  3  1  0  0  0  0
  5  1  2  0  0  0  0
  7  8  2  0  0  0  0
  8 12  1  0  0  0  0
  8  9  1  0  0  0  0
  9 13  1  6  0  0  0
  9  4  1  0  0  0  0
 10  9  1  0  0  0  0
 10 15  1  0  0  0  0
 10 11  1  0  0  0  0
 11 17  1  0  0  0  0
 12 11  1  0  0  0  0
 14 10  1  0  0  0  0
 16 11  1  0  0  0  0
 18 12  1  0  0  0  0
 18 25  2  0  0  0  0
 19 18  1  0  0  0  0
 20 19  1  0  0  0  0
 21 19  2  0  0  0  0
 21 23  1  0  0  0  0
 22 21  1  0  0  0  0
 23 24  1  0  0  0  0
 23 25  1  0  0  0  0
 26 29  1  1  0  0  0
 27 26  1  0  0  0  0
 27 30  1  1  0  0  0
 28 31  1  0  0  0  0
 28 27  1  0  0  0  0
 28 26  1  0  0  0  0
 32 28  1  0  0  0  0
 33 34  1  0  0  0  0
 34 26  1  0  0  0  0
 34 35  2  0  0  0  0
 35 40  1  0  0  0  0
 36 35  1  0  0  0  0
 37 36  2  0  0  0  0
 38 33  2  0  0  0  0
 38 37  1  0  0  0  0
 39 33  1  0  0  0  0
 41 37  1  0  0  0  0
M  END
>  <minimizedAffinity>
-5.77475977

$$$$
