
 OpenBabel03252500543D

 29 30  0  0  0  0  0  0  0  0999 V2000
   46.6230   34.3250   42.9170 C   0  0  0  0  0  0  0  0  0  0  0  0
   45.3780   34.6780   43.3990 C   0  0  0  0  0  0  0  0  0  0  0  0
   45.0670   34.3010   44.7170 C   0  0  0  0  0  0  0  0  0  0  0  0
   45.9950   33.6260   45.4180 N   0  0  0  0  0  0  0  0  0  0  0  0
   47.1980   33.2970   44.9200 C   0  0  0  0  0  0  0  0  0  0  0  0
   47.5040   33.6500   43.6690 N   0  0  0  0  0  0  0  0  0  0  0  0
   44.0880   34.5880   45.0730 H   0  0  0  0  0  0  0  0  0  0  0  0
   47.8920   32.7460   45.5620 H   0  0  0  0  0  0  0  0  0  0  0  0
   47.0270   34.6780   41.5540 C   0  0  0  0  0  0  0  0  0  0  0  0
   46.2640   35.3030   41.0400 H   0  0  0  0  0  0  0  0  0  0  0  0
   47.1270   33.7430   40.9640 H   0  0  0  0  0  0  0  0  0  0  0  0
   48.3870   35.3350   41.5920 C   0  0  0  0  0  0  0  0  0  0  0  0
   49.0820   34.8610   40.8480 H   0  0  0  0  0  0  0  0  0  0  0  0
   48.2340   36.4020   41.2660 H   0  0  0  0  0  0  0  0  0  0  0  0
   48.8380   35.3680   42.5990 H   0  0  0  0  0  0  0  0  0  0  0  0
   44.5430   35.3720   42.5430 O   0  0  0  0  0  0  0  0  0  0  0  0
   43.6450   34.8370   40.1300 O   0  0  0  0  0  0  0  0  0  0  0  0
   43.2900   34.7400   41.6120 P   0  0  1  0  0  0  0  0  0  0  0  0
   43.1460   33.0800   41.9970 O   0  0  0  0  0  0  0  0  0  0  0  0
   42.3490   32.6670   41.5820 H   0  0  0  0  0  0  0  0  0  0  0  0
   41.7950   35.4720   41.9160 O   0  0  0  0  0  0  0  0  0  0  0  0
   40.7210   35.2040   41.0790 C   0  0  0  0  0  0  0  0  0  0  0  0
   40.0470   34.0370   41.4570 C   0  0  0  0  0  0  0  0  0  0  0  0
   40.1310   33.2660   42.2390 H   0  0  0  0  0  0  0  0  0  0  0  0
   38.9860   33.8330   40.5760 C   0  0  0  0  0  0  0  0  0  0  0  0
   38.2000   33.1140   40.4350 H   0  0  0  0  0  0  0  0  0  0  0  0
   39.0630   34.8800   39.7060 N   0  0  0  0  0  0  0  0  0  0  0  0
   38.5310   35.2240   38.8600 H   0  0  0  0  0  0  0  0  0  0  0  0
   40.0790   35.6720   40.0100 N   0  0  0  0  0  0  0  0  0  0  0  0
  1  2  2  0  0  0  0
  1  6  1  0  0  0  0
  2  3  1  0  0  0  0
  3  7  1  0  0  0  0
  3  4  2  0  0  0  0
  5  4  1  0  0  0  0
  5  8  1  0  0  0  0
  6  5  2  0  0  0  0
  9 12  1  0  0  0  0
  9  1  1  0  0  0  0
 10  9  1  0  0  0  0
 11  9  1  0  0  0  0
 12 15  1  0  0  0  0
 13 12  1  0  0  0  0
 14 12  1  0  0  0  0
 16  2  1  0  0  0  0
 18 17  2  6  0  0  0
 18 21  1  0  0  0  0
 18 19  1  0  0  0  0
 18 16  1  0  0  0  0
 20 19  1  0  0  0  0
 22 23  1  0  0  0  0
 22 21  1  0  0  0  0
 23 24  1  0  0  0  0
 25 23  2  0  0  0  0
 26 25  1  0  0  0  0
 27 29  1  0  0  0  0
 27 25  1  0  0  0  0
 28 27  1  0  0  0  0
 29 22  2  0  0  0  0
M  END
>  <minimizedAffinity>
-4.67898893

>  <minimizedRMSD>
0.876549959

$$$$
