
 OpenBabel03252509073D

 40 43  0  0  0  0  0  0  0  0999 V2000
   47.5250   31.7560   38.9550 C   0  0  0  0  0  0  0  0  0  0  0  0
   47.1400   33.0620   38.9720 C   0  0  0  0  0  0  0  0  0  0  0  0
   47.8240   33.9980   38.2160 C   0  0  0  0  0  0  0  0  0  0  0  0
   48.8950   33.6110   37.4440 C   0  0  0  0  0  0  0  0  0  0  0  0
   49.3210   32.2840   37.3970 C   0  0  0  0  0  0  0  0  0  0  0  0
   48.6110   31.3590   38.1720 C   0  0  0  0  0  0  0  0  0  0  0  0
   47.5630   35.0290   38.1960 H   0  0  0  0  0  0  0  0  0  0  0  0
   49.4980   34.2430   36.8200 H   0  0  0  0  0  0  0  0  0  0  0  0
   50.1360   31.9120   36.8250 H   0  0  0  0  0  0  0  0  0  0  0  0
   48.9180   30.3090   38.1600 H   0  0  0  0  0  0  0  0  0  0  0  0
   45.3850   35.4650   43.1940 Cl  0  0  0  0  0  0  0  0  0  0  0  0
   45.1930   34.6650   41.6510 C   0  0  0  0  0  0  0  0  0  0  0  0
   46.2690   34.2140   40.9580 C   0  0  0  0  0  0  0  0  0  0  0  0
   46.0130   33.5780   39.7540 C   0  0  0  0  0  0  0  0  0  0  0  0
   44.7360   33.4100   39.2780 C   0  0  0  0  0  0  0  0  0  0  0  0
   43.6740   33.8680   39.9860 C   0  0  0  0  0  0  0  0  0  0  0  0
   43.9120   34.5030   41.1870 C   0  0  0  0  0  0  0  0  0  0  0  0
   44.5880   32.9020   38.3230 H   0  0  0  0  0  0  0  0  0  0  0  0
   42.6870   33.7140   39.5740 H   0  0  0  0  0  0  0  0  0  0  0  0
   43.0470   34.8610   41.7350 H   0  0  0  0  0  0  0  0  0  0  0  0
   49.5760   35.7530   41.9230 C   0  0  0  0  0  0  0  0  0  0  0  0
   48.2940   35.5810   41.3860 C   0  0  0  0  0  0  0  0  0  0  0  0
   47.5930   34.4020   41.5070 C   0  0  0  0  0  0  0  0  0  0  0  0
   48.2490   33.4260   42.1900 N   0  0  0  0  0  0  0  0  0  0  0  0
   49.4710   33.5790   42.7050 C   0  0  0  0  0  0  0  0  0  0  0  0
   50.1270   34.7360   42.5710 N   0  0  0  0  0  0  0  0  0  0  0  0
   50.0020   36.7310   41.7490 H   0  0  0  0  0  0  0  0  0  0  0  0
   47.8030   36.3840   40.8480 H   0  0  0  0  0  0  0  0  0  0  0  0
   49.9040   32.7380   43.2310 H   0  0  0  0  0  0  0  0  0  0  0  0
   46.6880   30.5840   39.8280 S   0  0  0  0  0  0  0  0  0  0  0  0
   45.3610   30.2330   39.1920 O   0  0  0  0  0  0  0  0  0  0  0  0
   47.5340   29.2780   39.5980 O   0  0  0  0  0  0  0  0  0  0  0  0
   46.4260   30.6280   41.5260 C   0  0  0  0  0  0  0  0  0  0  0  0
   45.1310   30.9150   42.0320 C   0  0  0  0  0  0  0  0  0  0  0  0
   44.1990   31.1190   41.4650 H   0  0  0  0  0  0  0  0  0  0  0  0
   45.0490   30.9420   43.4030 C   0  0  0  0  0  0  0  0  0  0  0  0
   44.2190   31.1300   44.0450 H   0  0  0  0  0  0  0  0  0  0  0  0
   46.3050   30.6680   43.7480 N   0  0  0  0  0  0  0  0  0  0  0  0
   46.7270   30.5810   44.7210 H   0  0  0  0  0  0  0  0  0  0  0  0
   47.0380   30.4990   42.7160 N   0  0  0  0  0  0  0  0  0  0  0  0
  1  2  1  0  0  0  0
  1 30  1  0  0  0  0
  2 14  1  0  0  0  0
  3  2  2  0  0  0  0
  4  3  1  0  0  0  0
  5  4  2  0  0  0  0
  5  6  1  0  0  0  0
  6  1  2  0  0  0  0
  7  3  1  0  0  0  0
  8  4  1  0  0  0  0
  9  5  1  0  0  0  0
 10  6  1  0  0  0  0
 12 11  1  0  0  0  0
 13 23  1  0  0  0  0
 13 12  2  0  0  0  0
 14 13  1  0  0  0  0
 15 14  2  0  0  0  0
 15 16  1  0  0  0  0
 16 17  2  0  0  0  0
 17 12  1  0  0  0  0
 17 20  1  0  0  0  0
 18 15  1  0  0  0  0
 19 16  1  0  0  0  0
 21 26  1  0  0  0  0
 22 23  1  0  0  0  0
 22 21  2  0  0  0  0
 23 24  2  0  0  0  0
 24 25  1  0  0  0  0
 25 29  1  0  0  0  0
 26 25  2  0  0  0  0
 27 21  1  0  0  0  0
 28 22  1  0  0  0  0
 30 33  1  0  0  0  0
 31 30  2  0  0  0  0
 32 30  2  0  0  0  0
 33 34  1  0  0  0  0
 33 40  2  0  0  0  0
 34 36  2  0  0  0  0
 35 34  1  0  0  0  0
 36 38  1  0  0  0  0
 36 37  1  0  0  0  0
 38 39  1  0  0  0  0
 40 38  1  0  0  0  0
M  END
>  <minimizedAffinity>
-4.67609596

>  <minimizedRMSD>
0.889792442

$$$$
