
 OpenBabel03252504223D

 31 34  0  0  0  0  0  0  0  0999 V2000
   47.0240   33.4670   39.2070 C   0  0  0  0  0  0  0  0  0  0  0  0
   48.3710   33.1760   39.3850 C   0  0  0  0  0  0  0  0  0  0  0  0
   48.9320   33.3670   40.6710 C   0  0  0  0  0  0  0  0  0  0  0  0
   48.0920   33.8280   41.6450 N   0  0  0  0  0  0  0  0  0  0  0  0
   46.7840   34.0980   41.4210 C   0  0  0  0  0  0  0  0  0  0  0  0
   46.2630   33.9160   40.2070 N   0  0  0  0  0  0  0  0  0  0  0  0
   46.0100   34.5760   42.5150 N   0  0  0  0  0  0  0  0  0  0  0  0
   45.1310   35.6090   42.4680 C   0  0  0  0  0  0  0  0  0  0  0  0
   44.5960   35.7590   43.7140 N   0  0  0  0  0  0  0  0  0  0  0  0
   45.1540   34.8240   44.4890 C   0  0  0  0  0  0  0  0  0  0  0  0
   45.0240   34.4820   45.8110 C   0  0  0  0  0  0  0  0  0  0  0  0
   45.7070   33.4840   46.3620 N   0  0  0  0  0  0  0  0  0  0  0  0
   46.5840   32.7350   45.6560 C   0  0  0  0  0  0  0  0  0  0  0  0
   46.7030   33.0860   44.3530 N   0  0  0  0  0  0  0  0  0  0  0  0
   46.0480   34.0670   43.7530 C   0  0  0  0  0  0  0  0  0  0  0  0
   49.0640   32.8100   38.6370 H   0  0  0  0  0  0  0  0  0  0  0  0
   49.9610   33.1580   40.8590 H   0  0  0  0  0  0  0  0  0  0  0  0
   44.8570   36.2420   41.6240 H   0  0  0  0  0  0  0  0  0  0  0  0
   47.1440   31.9230   46.0980 H   0  0  0  0  0  0  0  0  0  0  0  0
   44.1530   35.1630   46.6870 N   0  0  0  0  0  0  0  0  0  0  0  0
   43.3380   34.7730   47.2310 H   0  0  0  0  0  0  0  0  0  0  0  0
   44.4050   36.1870   46.7630 H   0  0  0  0  0  0  0  0  0  0  0  0
   46.3990   33.1990   37.5280 S   0  0  0  0  0  0  0  0  0  0  0  0
   47.5920   32.2050   36.6440 C   0  0  0  0  0  0  0  0  0  0  0  0
   48.4410   32.7930   35.6990 C   0  0  0  0  0  0  0  0  0  0  0  0
   48.5570   33.8230   35.3370 H   0  0  0  0  0  0  0  0  0  0  0  0
   49.2630   31.7930   35.1670 C   0  0  0  0  0  0  0  0  0  0  0  0
   50.0440   31.7850   34.4300 H   0  0  0  0  0  0  0  0  0  0  0  0
   48.8810   30.6480   35.8070 N   0  0  0  0  0  0  0  0  0  0  0  0
   49.2640   29.6650   35.6850 H   0  0  0  0  0  0  0  0  0  0  0  0
   47.8990   30.8770   36.6780 N   0  0  0  0  0  0  0  0  0  0  0  0
  1  2  2  0  0  0  0
  1  6  1  0  0  0  0
  2  3  1  0  0  0  0
  3 17  1  0  0  0  0
  3  4  2  0  0  0  0
  5  4  1  0  0  0  0
  5  7  1  0  0  0  0
  6  5  2  0  0  0  0
  7 15  1  0  0  0  0
  8  7  1  0  0  0  0
  8  9  2  0  0  0  0
  9 10  1  0  0  0  0
 10 11  1  0  0  0  0
 11 12  2  0  0  0  0
 11 20  1  0  0  0  0
 13 19  1  0  0  0  0
 13 12  1  0  0  0  0
 14 13  2  0  0  0  0
 15 14  1  0  0  0  0
 15 10  2  0  0  0  0
 16  2  1  0  0  0  0
 18  8  1  0  0  0  0
 20 22  1  0  0  0  0
 20 21  1  0  0  0  0
 23  1  1  0  0  0  0
 24 31  2  0  0  0  0
 24 23  1  0  0  0  0
 25 24  1  0  0  0  0
 26 25  1  0  0  0  0
 27 25  2  0  0  0  0
 27 29  1  0  0  0  0
 28 27  1  0  0  0  0
 29 31  1  0  0  0  0
 30 29  1  0  0  0  0
M  END
>  <minimizedAffinity>
-5.67527294

>  <minimizedRMSD>
1.41546857

$$$$
