
 OpenBabel03242512093D

 32 34  0  0  1  0  0  0  0  0999 V2000
   48.2040   34.5700   41.2230 C   0  0  1  0  0  0  0  0  0  0  0  0
   48.8460   35.9080   41.7560 C   0  0  0  0  0  0  0  0  0  0  0  0
   49.1180   34.5960   42.3610 C   0  0  2  0  0  0  0  0  0  0  0  0
   48.5920   34.3000   40.2350 H   0  0  0  0  0  0  0  0  0  0  0  0
   49.5910   36.3810   41.0810 H   0  0  0  0  0  0  0  0  0  0  0  0
   48.1540   36.6120   42.2580 H   0  0  0  0  0  0  0  0  0  0  0  0
   48.6290   34.1760   43.2540 H   0  0  0  0  0  0  0  0  0  0  0  0
   46.7300   34.5400   41.4410 C   0  0  0  0  0  0  0  0  0  0  0  0
   46.0200   34.2960   40.4710 O   0  0  0  0  0  0  0  0  0  0  0  0
   45.4010   35.9040   42.9810 C   0  0  0  0  0  0  0  0  0  0  0  0
   46.0940   34.7740   42.7000 C   0  0  0  0  0  0  0  0  0  0  0  0
   46.1800   33.7850   43.7150 C   0  0  0  0  0  0  0  0  0  0  0  0
   45.5830   33.9820   44.9160 N   0  0  0  0  0  0  0  0  0  0  0  0
   44.8960   35.1370   45.1500 C   0  0  0  0  0  0  0  0  0  0  0  0
   44.8120   36.0620   44.2110 N   0  0  0  0  0  0  0  0  0  0  0  0
   45.3450   36.6430   42.2020 H   0  0  0  0  0  0  0  0  0  0  0  0
   46.6860   32.8630   43.6180 H   0  0  0  0  0  0  0  0  0  0  0  0
   44.4040   35.3460   46.0850 H   0  0  0  0  0  0  0  0  0  0  0  0
   50.4380   34.1800   42.2170 O   0  0  0  0  0  0  0  0  0  0  0  0
   49.1290   32.0350   42.8100 O   0  0  0  0  0  0  0  0  0  0  0  0
   50.4000   32.4840   42.1090 P   0  0  2  0  0  0  0  0  0  0  0  0
   51.7410   31.7350   42.7440 O   0  0  0  0  0  0  0  0  0  0  0  0
   52.5280   32.3140   42.7710 H   0  0  0  0  0  0  0  0  0  0  0  0
   50.1580   32.0700   40.4510 O   0  0  0  0  0  0  0  0  0  0  0  0
   51.1690   31.4310   39.7280 C   0  0  0  0  0  0  0  0  0  0  0  0
   51.9320   31.5850   38.5850 C   0  0  0  0  0  0  0  0  0  0  0  0
   51.7070   32.4880   38.0330 H   0  0  0  0  0  0  0  0  0  0  0  0
   52.7800   30.4740   38.5210 C   0  0  0  0  0  0  0  0  0  0  0  0
   53.4460   30.4420   37.6800 H   0  0  0  0  0  0  0  0  0  0  0  0
   52.5100   29.7060   39.5940 N   0  0  0  0  0  0  0  0  0  0  0  0
   53.0820   28.8350   39.6640 H   0  0  0  0  0  0  0  0  0  0  0  0
   51.5550   30.2680   40.3150 N   0  0  0  0  0  0  0  0  0  0  0  0
  1  4  1  6  0  0  0
  1  8  1  0  0  0  0
  1  2  1  0  0  0  0
  1  3  1  0  0  0  0
  2  6  1  0  0  0  0
  2  3  1  0  0  0  0
  3  7  1  1  0  0  0
  5  2  1  0  0  0  0
  8 11  1  0  0  0  0
  9  8  2  0  0  0  0
 10 15  1  0  0  0  0
 11 10  2  0  0  0  0
 11 12  1  0  0  0  0
 12 13  2  0  0  0  0
 13 14  1  0  0  0  0
 14 18  1  0  0  0  0
 15 14  2  0  0  0  0
 16 10  1  0  0  0  0
 17 12  1  0  0  0  0
 19  3  1  0  0  0  0
 21 19  1  0  0  0  0
 21 22  1  0  0  0  0
 21 20  2  1  0  0  0
 22 23  1  0  0  0  0
 24 21  1  0  0  0  0
 25 32  2  0  0  0  0
 25 24  1  0  0  0  0
 26 25  1  0  0  0  0
 27 26  1  0  0  0  0
 28 26  2  0  0  0  0
 28 30  1  0  0  0  0
 29 28  1  0  0  0  0
 30 31  1  0  0  0  0
 30 32  1  0  0  0  0
M  END
>  <minimizedAffinity>
-4.84241343

>  <minimizedRMSD>
0.873932064

$$$$
