
 OpenBabel03252500543D

 29 30  0  0  0  0  0  0  0  0999 V2000
   47.6070   34.1010   42.4910 C   0  0  0  0  0  0  0  0  0  0  0  0
   46.9040   34.4010   41.3410 C   0  0  0  0  0  0  0  0  0  0  0  0
   45.5330   34.6770   41.4770 C   0  0  0  0  0  0  0  0  0  0  0  0
   44.9970   34.6290   42.7100 N   0  0  0  0  0  0  0  0  0  0  0  0
   45.7080   34.3330   43.8100 C   0  0  0  0  0  0  0  0  0  0  0  0
   47.0120   34.0700   43.6920 N   0  0  0  0  0  0  0  0  0  0  0  0
   45.0030   34.9100   40.5640 H   0  0  0  0  0  0  0  0  0  0  0  0
   45.1890   34.3170   44.7740 H   0  0  0  0  0  0  0  0  0  0  0  0
   49.0390   33.8010   42.4380 C   0  0  0  0  0  0  0  0  0  0  0  0
   49.3120   33.2210   41.5290 H   0  0  0  0  0  0  0  0  0  0  0  0
   49.2990   33.1690   43.3130 H   0  0  0  0  0  0  0  0  0  0  0  0
   49.8220   35.0870   42.5640 C   0  0  0  0  0  0  0  0  0  0  0  0
   50.6190   34.9970   43.3500 H   0  0  0  0  0  0  0  0  0  0  0  0
   50.3480   35.2380   41.5790 H   0  0  0  0  0  0  0  0  0  0  0  0
   49.1920   35.9780   42.7310 H   0  0  0  0  0  0  0  0  0  0  0  0
   47.6110   34.4060   40.1520 O   0  0  0  0  0  0  0  0  0  0  0  0
   49.0040   32.6160   38.8210 O   0  0  0  0  0  0  0  0  0  0  0  0
   47.6060   33.2130   38.9630 P   0  0  1  0  0  0  0  0  0  0  0  0
   46.5660   31.9620   39.4910 O   0  0  0  0  0  0  0  0  0  0  0  0
   46.4130   31.2820   38.7890 H   0  0  0  0  0  0  0  0  0  0  0  0
   47.0370   33.7620   37.4680 O   0  0  0  0  0  0  0  0  0  0  0  0
   46.9350   32.8710   36.4080 C   0  0  0  0  0  0  0  0  0  0  0  0
   45.6010   32.6320   36.0580 C   0  0  0  0  0  0  0  0  0  0  0  0
   44.6020   32.9550   36.3920 H   0  0  0  0  0  0  0  0  0  0  0  0
   45.5770   31.7330   34.9930 C   0  0  0  0  0  0  0  0  0  0  0  0
   44.8380   31.2480   34.3820 H   0  0  0  0  0  0  0  0  0  0  0  0
   46.8910   31.4680   34.7440 N   0  0  0  0  0  0  0  0  0  0  0  0
   47.4460   30.8750   34.0690 H   0  0  0  0  0  0  0  0  0  0  0  0
   47.6730   32.1380   35.5750 N   0  0  0  0  0  0  0  0  0  0  0  0
  1  6  1  0  0  0  0
  2  3  1  0  0  0  0
  2  1  2  0  0  0  0
  3  4  2  0  0  0  0
  4  5  1  0  0  0  0
  5  8  1  0  0  0  0
  6  5  2  0  0  0  0
  7  3  1  0  0  0  0
  9  1  1  0  0  0  0
  9 12  1  0  0  0  0
  9 11  1  0  0  0  0
 10  9  1  0  0  0  0
 12 15  1  0  0  0  0
 12 13  1  0  0  0  0
 14 12  1  0  0  0  0
 16  2  1  0  0  0  0
 18 17  2  6  0  0  0
 18 19  1  0  0  0  0
 18 16  1  0  0  0  0
 20 19  1  0  0  0  0
 21 18  1  0  0  0  0
 22 21  1  0  0  0  0
 23 24  1  0  0  0  0
 23 22  1  0  0  0  0
 25 23  2  0  0  0  0
 26 25  1  0  0  0  0
 27 25  1  0  0  0  0
 27 29  1  0  0  0  0
 28 27  1  0  0  0  0
 29 22  2  0  0  0  0
M  END
>  <minimizedAffinity>
-3.70037222

>  <minimizedRMSD>
6.08333302

$$$$
