
 OpenBabel03242518283D

 20 21  0  0  0  0  0  0  0  0999 V2000
   47.2650   34.7840   42.0090 C   0  0  0  0  0  0  0  0  0  0  0  0
   48.1960   35.5680   41.7140 O   0  0  0  0  0  0  0  0  0  0  0  0
   46.4160   34.8250   43.1480 C   0  0  0  0  0  0  0  0  0  0  0  0
   45.5180   35.8930   43.1250 C   0  0  0  0  0  0  0  0  0  0  0  0
   44.6410   36.0040   44.2210 C   0  0  0  0  0  0  0  0  0  0  0  0
   44.7190   35.0770   45.2200 N   0  0  0  0  0  0  0  0  0  0  0  0
   45.6170   34.0610   45.1780 C   0  0  0  0  0  0  0  0  0  0  0  0
   46.4610   33.9440   44.1370 N   0  0  0  0  0  0  0  0  0  0  0  0
   45.4300   36.6420   42.3560 H   0  0  0  0  0  0  0  0  0  0  0  0
   43.9130   36.7930   44.2970 H   0  0  0  0  0  0  0  0  0  0  0  0
   45.5620   33.4060   46.0380 H   0  0  0  0  0  0  0  0  0  0  0  0
   47.0220   33.7330   41.1120 O   0  0  0  0  0  0  0  0  0  0  0  0
   47.4090   33.8910   39.7640 C   0  0  0  0  0  0  0  0  0  0  0  0
   46.8650   33.3360   38.6240 C   0  0  0  0  0  0  0  0  0  0  0  0
   46.0100   32.6650   38.6540 H   0  0  0  0  0  0  0  0  0  0  0  0
   47.6230   33.8200   37.5770 C   0  0  0  0  0  0  0  0  0  0  0  0
   47.4230   33.5490   36.5370 H   0  0  0  0  0  0  0  0  0  0  0  0
   48.5900   34.6380   38.0780 N   0  0  0  0  0  0  0  0  0  0  0  0
   49.2500   35.0850   37.4040 H   0  0  0  0  0  0  0  0  0  0  0  0
   48.4630   34.6830   39.4060 N   0  0  0  0  0  0  0  0  0  0  0  0
  1  3  1  0  0  0  0
  2  1  2  0  0  0  0
  3  8  1  0  0  0  0
  4  3  2  0  0  0  0
  4  5  1  0  0  0  0
  5 10  1  0  0  0  0
  5  6  2  0  0  0  0
  7  6  1  0  0  0  0
  7 11  1  0  0  0  0
  8  7  2  0  0  0  0
  9  4  1  0  0  0  0
 12  1  1  0  0  0  0
 13 12  1  0  0  0  0
 14 15  1  0  0  0  0
 14 13  1  0  0  0  0
 16 18  1  0  0  0  0
 16 14  2  0  0  0  0
 17 16  1  0  0  0  0
 18 20  1  0  0  0  0
 19 18  1  0  0  0  0
 20 13  2  0  0  0  0
M  END
>  <minimizedAffinity>
-4.2755723

>  <minimizedRMSD>
0.378065765

$$$$
