
 OpenBabel03252504223D

 31 34  0  0  0  0  0  0  0  0999 V2000
   46.8910   33.4210   39.1920 C   0  0  0  0  0  0  0  0  0  0  0  0
   48.2590   33.2240   39.3390 C   0  0  0  0  0  0  0  0  0  0  0  0
   48.8410   33.4890   40.6020 C   0  0  0  0  0  0  0  0  0  0  0  0
   48.0000   33.9230   41.5870 N   0  0  0  0  0  0  0  0  0  0  0  0
   46.6710   34.1010   41.3930 C   0  0  0  0  0  0  0  0  0  0  0  0
   46.1300   33.8490   40.2010 N   0  0  0  0  0  0  0  0  0  0  0  0
   45.8980   34.5590   42.4960 N   0  0  0  0  0  0  0  0  0  0  0  0
   44.9520   35.5320   42.4460 C   0  0  0  0  0  0  0  0  0  0  0  0
   44.4430   35.6840   43.7030 N   0  0  0  0  0  0  0  0  0  0  0  0
   45.0830   34.8100   44.4870 C   0  0  0  0  0  0  0  0  0  0  0  0
   45.0110   34.4990   45.8210 C   0  0  0  0  0  0  0  0  0  0  0  0
   45.7730   33.5650   46.3790 N   0  0  0  0  0  0  0  0  0  0  0  0
   46.6780   32.8540   45.6690 C   0  0  0  0  0  0  0  0  0  0  0  0
   46.7370   33.1730   44.3540 N   0  0  0  0  0  0  0  0  0  0  0  0
   46.0030   34.0910   43.7460 C   0  0  0  0  0  0  0  0  0  0  0  0
   48.9540   32.8810   38.5810 H   0  0  0  0  0  0  0  0  0  0  0  0
   49.8870   33.3520   40.7650 H   0  0  0  0  0  0  0  0  0  0  0  0
   44.6140   36.1200   41.5930 H   0  0  0  0  0  0  0  0  0  0  0  0
   47.3020   32.0930   46.1170 H   0  0  0  0  0  0  0  0  0  0  0  0
   44.1220   35.1480   46.7030 N   0  0  0  0  0  0  0  0  0  0  0  0
   43.3500   34.7230   47.2820 H   0  0  0  0  0  0  0  0  0  0  0  0
   44.3080   36.1880   46.7430 H   0  0  0  0  0  0  0  0  0  0  0  0
   46.2400   33.0640   37.5400 S   0  0  0  0  0  0  0  0  0  0  0  0
   47.6010   32.5440   36.5060 C   0  0  0  0  0  0  0  0  0  0  0  0
   47.8310   31.1830   36.2730 C   0  0  0  0  0  0  0  0  0  0  0  0
   47.3210   30.2700   36.6080 H   0  0  0  0  0  0  0  0  0  0  0  0
   48.9490   31.0660   35.4380 C   0  0  0  0  0  0  0  0  0  0  0  0
   49.4750   30.2330   35.0100 H   0  0  0  0  0  0  0  0  0  0  0  0
   49.3470   32.3510   35.2020 N   0  0  0  0  0  0  0  0  0  0  0  0
   50.1620   32.6920   34.6140 H   0  0  0  0  0  0  0  0  0  0  0  0
   48.5630   33.2300   35.8250 N   0  0  0  0  0  0  0  0  0  0  0  0
  1  2  2  0  0  0  0
  1  6  1  0  0  0  0
  2  3  1  0  0  0  0
  3 17  1  0  0  0  0
  3  4  2  0  0  0  0
  5  4  1  0  0  0  0
  5  7  1  0  0  0  0
  6  5  2  0  0  0  0
  7 15  1  0  0  0  0
  8  7  1  0  0  0  0
  8  9  2  0  0  0  0
  9 10  1  0  0  0  0
 10 11  1  0  0  0  0
 11 12  2  0  0  0  0
 11 20  1  0  0  0  0
 13 19  1  0  0  0  0
 13 12  1  0  0  0  0
 14 13  2  0  0  0  0
 15 14  1  0  0  0  0
 15 10  2  0  0  0  0
 16  2  1  0  0  0  0
 18  8  1  0  0  0  0
 20 22  1  0  0  0  0
 20 21  1  0  0  0  0
 23  1  1  0  0  0  0
 24 23  1  0  0  0  0
 25 24  1  0  0  0  0
 25 26  1  0  0  0  0
 27 25  2  0  0  0  0
 28 27  1  0  0  0  0
 29 27  1  0  0  0  0
 29 31  1  0  0  0  0
 30 29  1  0  0  0  0
 31 24  2  0  0  0  0
M  END
>  <minimizedAffinity>
-5.97879839

>  <minimizedRMSD>
1.27120972

$$$$
