
 OpenBabel03242521103D

 18 19  0  0  0  0  0  0  0  0999 V2000
   44.5730   35.3660   45.5520 C   0  0  0  0  0  0  0  0  0  0  0  0
   44.7500   35.9310   44.2650 C   0  0  0  0  0  0  0  0  0  0  0  0
   45.5850   35.2800   43.3490 C   0  0  0  0  0  0  0  0  0  0  0  0
   46.1900   34.1310   43.7360 N   0  0  0  0  0  0  0  0  0  0  0  0
   46.0050   33.6040   44.9800 C   0  0  0  0  0  0  0  0  0  0  0  0
   45.2050   34.2240   45.8650 N   0  0  0  0  0  0  0  0  0  0  0  0
   43.9360   35.8520   46.2670 H   0  0  0  0  0  0  0  0  0  0  0  0
   44.2420   36.8550   44.0030 H   0  0  0  0  0  0  0  0  0  0  0  0
   45.7300   35.6990   42.3610 H   0  0  0  0  0  0  0  0  0  0  0  0
   46.9130   32.0970   45.2230 S   0  0  0  0  0  0  0  0  0  0  0  0
   46.6890   31.4770   46.8990 C   0  0  0  0  0  0  0  0  0  0  0  0
   47.4380   32.0520   47.9260 C   0  0  0  0  0  0  0  0  0  0  0  0
   48.1620   32.8320   47.9240 H   0  0  0  0  0  0  0  0  0  0  0  0
   47.0380   31.3640   49.0650 C   0  0  0  0  0  0  0  0  0  0  0  0
   47.3520   31.4700   50.0950 H   0  0  0  0  0  0  0  0  0  0  0  0
   46.1270   30.4640   48.7120 N   0  0  0  0  0  0  0  0  0  0  0  0
   45.6130   29.7720   49.3290 H   0  0  0  0  0  0  0  0  0  0  0  0
   45.9040   30.5180   47.4080 N   0  0  0  0  0  0  0  0  0  0  0  0
  1  6  1  0  0  0  0
  1  7  1  0  0  0  0
  2  1  2  0  0  0  0
  3  4  2  0  0  0  0
  3  2  1  0  0  0  0
  4  5  1  0  0  0  0
  5 10  1  0  0  0  0
  5  6  2  0  0  0  0
  8  2  1  0  0  0  0
  9  3  1  0  0  0  0
 10 11  1  0  0  0  0
 11 18  2  0  0  0  0
 11 12  1  0  0  0  0
 12 14  2  0  0  0  0
 13 12  1  0  0  0  0
 14 15  1  0  0  0  0
 16 14  1  0  0  0  0
 16 17  1  0  0  0  0
 18 16  1  0  0  0  0
M  END
>  <minimizedAffinity>
-3.8844378

>  <minimizedRMSD>
2.08309269

$$$$
