
 OpenBabel03242518283D

 20 21  0  0  0  0  0  0  0  0999 V2000
   47.6900   33.8970   42.5180 C   0  0  0  0  0  0  0  0  0  0  0  0
   48.4330   34.4110   43.3860 O   0  0  0  0  0  0  0  0  0  0  0  0
   47.9940   33.6250   41.1570 C   0  0  0  0  0  0  0  0  0  0  0  0
   48.8040   32.5010   40.9900 C   0  0  0  0  0  0  0  0  0  0  0  0
   49.1520   32.1640   39.6680 C   0  0  0  0  0  0  0  0  0  0  0  0
   48.6830   32.9410   38.6480 N   0  0  0  0  0  0  0  0  0  0  0  0
   47.8980   34.0220   38.8820 C   0  0  0  0  0  0  0  0  0  0  0  0
   47.5580   34.3550   40.1410 N   0  0  0  0  0  0  0  0  0  0  0  0
   49.1910   31.8670   41.7700 H   0  0  0  0  0  0  0  0  0  0  0  0
   49.7720   31.3160   39.4350 H   0  0  0  0  0  0  0  0  0  0  0  0
   47.6030   34.5410   37.9780 H   0  0  0  0  0  0  0  0  0  0  0  0
   46.3960   33.5450   42.9300 O   0  0  0  0  0  0  0  0  0  0  0  0
   45.7070   34.4080   43.8100 C   0  0  0  0  0  0  0  0  0  0  0  0
   45.0910   35.6160   43.5530 C   0  0  0  0  0  0  0  0  0  0  0  0
   45.0740   36.0600   42.5620 H   0  0  0  0  0  0  0  0  0  0  0  0
   44.5740   36.0330   44.7630 C   0  0  0  0  0  0  0  0  0  0  0  0
   44.0250   36.9700   44.8710 H   0  0  0  0  0  0  0  0  0  0  0  0
   44.8730   35.1020   45.7110 N   0  0  0  0  0  0  0  0  0  0  0  0
   44.5480   35.2760   46.6880 H   0  0  0  0  0  0  0  0  0  0  0  0
   45.5600   34.1140   45.1350 N   0  0  0  0  0  0  0  0  0  0  0  0
  1 12  1  0  0  0  0
  1  2  2  0  0  0  0
  3  1  1  0  0  0  0
  4  3  1  0  0  0  0
  4  9  1  0  0  0  0
  5  4  2  0  0  0  0
  6  7  2  0  0  0  0
  6  5  1  0  0  0  0
  7  8  1  0  0  0  0
  8  3  2  0  0  0  0
 10  5  1  0  0  0  0
 11  7  1  0  0  0  0
 12 13  1  0  0  0  0
 13 20  2  0  0  0  0
 14 13  1  0  0  0  0
 14 16  2  0  0  0  0
 15 14  1  0  0  0  0
 16 17  1  0  0  0  0
 16 18  1  0  0  0  0
 18 19  1  0  0  0  0
 20 18  1  0  0  0  0
M  END
>  <minimizedAffinity>
-3.75246716

>  <minimizedRMSD>
5.75660658

$$$$
