
 OpenBabel03252500543D

 29 30  0  0  0  0  0  0  0  0999 V2000
   46.6220   34.3240   42.9170 C   0  0  0  0  0  0  0  0  0  0  0  0
   45.3770   34.6780   43.3990 C   0  0  0  0  0  0  0  0  0  0  0  0
   45.0660   34.3020   44.7170 C   0  0  0  0  0  0  0  0  0  0  0  0
   45.9940   33.6270   45.4190 N   0  0  0  0  0  0  0  0  0  0  0  0
   47.1970   33.2970   44.9210 C   0  0  0  0  0  0  0  0  0  0  0  0
   47.5030   33.6500   43.6700 N   0  0  0  0  0  0  0  0  0  0  0  0
   44.0870   34.5890   45.0740 H   0  0  0  0  0  0  0  0  0  0  0  0
   47.8920   32.7460   45.5630 H   0  0  0  0  0  0  0  0  0  0  0  0
   47.0260   34.6770   41.5550 C   0  0  0  0  0  0  0  0  0  0  0  0
   46.2630   35.3010   41.0400 H   0  0  0  0  0  0  0  0  0  0  0  0
   47.1280   33.7420   40.9650 H   0  0  0  0  0  0  0  0  0  0  0  0
   48.3860   35.3350   41.5920 C   0  0  0  0  0  0  0  0  0  0  0  0
   49.0820   34.8610   40.8490 H   0  0  0  0  0  0  0  0  0  0  0  0
   48.2330   36.4020   41.2650 H   0  0  0  0  0  0  0  0  0  0  0  0
   48.8370   35.3690   42.5990 H   0  0  0  0  0  0  0  0  0  0  0  0
   44.5420   35.3720   42.5430 O   0  0  0  0  0  0  0  0  0  0  0  0
   43.6450   34.8370   40.1300 O   0  0  0  0  0  0  0  0  0  0  0  0
   43.2900   34.7400   41.6110 P   0  0  1  0  0  0  0  0  0  0  0  0
   43.1470   33.0800   41.9970 O   0  0  0  0  0  0  0  0  0  0  0  0
   42.3500   32.6660   41.5820 H   0  0  0  0  0  0  0  0  0  0  0  0
   41.7950   35.4710   41.9160 O   0  0  0  0  0  0  0  0  0  0  0  0
   40.7210   35.2030   41.0790 C   0  0  0  0  0  0  0  0  0  0  0  0
   40.0460   34.0370   41.4570 C   0  0  0  0  0  0  0  0  0  0  0  0
   40.1300   33.2660   42.2400 H   0  0  0  0  0  0  0  0  0  0  0  0
   38.9850   33.8320   40.5760 C   0  0  0  0  0  0  0  0  0  0  0  0
   38.1990   33.1140   40.4360 H   0  0  0  0  0  0  0  0  0  0  0  0
   39.0630   34.8800   39.7050 N   0  0  0  0  0  0  0  0  0  0  0  0
   38.5320   35.2230   38.8590 H   0  0  0  0  0  0  0  0  0  0  0  0
   40.0790   35.6710   40.0090 N   0  0  0  0  0  0  0  0  0  0  0  0
  1  2  2  0  0  0  0
  1  6  1  0  0  0  0
  2  3  1  0  0  0  0
  3  7  1  0  0  0  0
  3  4  2  0  0  0  0
  5  4  1  0  0  0  0
  5  8  1  0  0  0  0
  6  5  2  0  0  0  0
  9 12  1  0  0  0  0
  9  1  1  0  0  0  0
 10  9  1  0  0  0  0
 11  9  1  0  0  0  0
 12 15  1  0  0  0  0
 13 12  1  0  0  0  0
 14 12  1  0  0  0  0
 16  2  1  0  0  0  0
 18 17  2  6  0  0  0
 18 21  1  0  0  0  0
 18 19  1  0  0  0  0
 18 16  1  0  0  0  0
 20 19  1  0  0  0  0
 22 23  1  0  0  0  0
 22 21  1  0  0  0  0
 23 24  1  0  0  0  0
 25 23  2  0  0  0  0
 26 25  1  0  0  0  0
 27 29  1  0  0  0  0
 27 25  1  0  0  0  0
 28 27  1  0  0  0  0
 29 22  2  0  0  0  0
M  END
>  <minimizedAffinity>
-4.67586756

>  <minimizedRMSD>
0.917122304

$$$$
