
 OpenBabel03252509313D

 26 27  0  0  0  0  0  0  0  0999 V2000
   47.5980   31.6850   45.0240 O   0  0  0  0  0  0  0  0  0  0  0  0
   46.4810   30.9160   45.3480 C   0  0  0  0  0  0  0  0  0  0  0  0
   45.5950   31.1640   44.7390 H   0  0  0  0  0  0  0  0  0  0  0  0
   46.7680   29.8630   45.1140 H   0  0  0  0  0  0  0  0  0  0  0  0
   46.4130   32.0590   48.8950 C   0  0  0  0  0  0  0  0  0  0  0  0
   46.7400   32.0080   47.5190 C   0  0  0  0  0  0  0  0  0  0  0  0
   46.1650   30.9960   46.7670 C   0  0  0  0  0  0  0  0  0  0  0  0
   45.3200   30.1120   47.3860 N   0  0  0  0  0  0  0  0  0  0  0  0
   45.0300   30.1930   48.7090 C   0  0  0  0  0  0  0  0  0  0  0  0
   45.5750   31.1620   49.4520 N   0  0  0  0  0  0  0  0  0  0  0  0
   46.8200   32.8180   49.5570 H   0  0  0  0  0  0  0  0  0  0  0  0
   47.4190   32.7560   47.1300 H   0  0  0  0  0  0  0  0  0  0  0  0
   44.3460   29.4110   49.0170 H   0  0  0  0  0  0  0  0  0  0  0  0
   47.3180   31.8940   42.4370 O   0  0  0  0  0  0  0  0  0  0  0  0
   47.1490   32.6710   43.7130 P   0  0  2  0  0  0  0  0  0  0  0  0
   48.1150   34.0420   43.7780 O   0  0  0  0  0  0  0  0  0  0  0  0
   48.4440   34.2600   44.6730 H   0  0  0  0  0  0  0  0  0  0  0  0
   45.5210   33.0470   43.8910 O   0  0  0  0  0  0  0  0  0  0  0  0
   45.1170   34.3040   44.3270 C   0  0  0  0  0  0  0  0  0  0  0  0
   44.8080   35.5840   43.8780 C   0  0  0  0  0  0  0  0  0  0  0  0
   44.9110   35.6650   42.7950 H   0  0  0  0  0  0  0  0  0  0  0  0
   44.4690   36.3290   44.9930 C   0  0  0  0  0  0  0  0  0  0  0  0
   44.2030   37.3580   44.7860 H   0  0  0  0  0  0  0  0  0  0  0  0
   44.5690   35.5260   46.0830 N   0  0  0  0  0  0  0  0  0  0  0  0
   44.3490   35.9250   47.0100 H   0  0  0  0  0  0  0  0  0  0  0  0
   44.9580   34.3130   45.6810 N   0  0  0  0  0  0  0  0  0  0  0  0
  1  2  1  0  0  0  0
  2  7  1  0  0  0  0
  3  2  1  0  0  0  0
  4  2  1  0  0  0  0
  5 10  1  0  0  0  0
  5 11  1  0  0  0  0
  6  5  2  0  0  0  0
  7  8  2  0  0  0  0
  7  6  1  0  0  0  0
  8  9  1  0  0  0  0
  9 13  1  0  0  0  0
  9 10  2  0  0  0  0
 12  6  1  0  0  0  0
 15 14  2  6  0  0  0
 15 16  1  0  0  0  0
 15 18  1  0  0  0  0
 15  1  1  0  0  0  0
 16 17  1  0  0  0  0
 18 19  1  0  0  0  0
 19 26  2  0  0  0  0
 20 19  1  0  0  0  0
 20 22  2  0  0  0  0
 21 20  1  0  0  0  0
 22 24  1  0  0  0  0
 23 22  1  0  0  0  0
 24 25  1  0  0  0  0
 26 24  1  0  0  0  0
M  END
>  <minimizedAffinity>
-4.55428076

>  <minimizedRMSD>
5.52312565

$$$$
