
 OpenBabel03242512093D

 32 34  0  0  1  0  0  0  0  0999 V2000
   48.0000   34.4200   41.1310 C   0  0  1  0  0  0  0  0  0  0  0  0
   48.7290   35.7020   41.6890 C   0  0  0  0  0  0  0  0  0  0  0  0
   48.9560   34.3550   42.2320 C   0  0  2  0  0  0  0  0  0  0  0  0
   48.3360   34.1710   40.1180 H   0  0  0  0  0  0  0  0  0  0  0  0
   49.4700   36.1640   41.0040 H   0  0  0  0  0  0  0  0  0  0  0  0
   48.0930   36.4190   42.2450 H   0  0  0  0  0  0  0  0  0  0  0  0
   48.4810   33.9230   43.1270 H   0  0  0  0  0  0  0  0  0  0  0  0
   46.5360   34.4540   41.4070 C   0  0  0  0  0  0  0  0  0  0  0  0
   45.7790   34.2310   40.4680 O   0  0  0  0  0  0  0  0  0  0  0  0
   45.3500   35.8950   42.9920 C   0  0  0  0  0  0  0  0  0  0  0  0
   45.9600   34.7240   42.6870 C   0  0  0  0  0  0  0  0  0  0  0  0
   46.0180   33.7300   43.6990 C   0  0  0  0  0  0  0  0  0  0  0  0
   45.4770   33.9620   44.9200 N   0  0  0  0  0  0  0  0  0  0  0  0
   44.8730   35.1580   45.1780 C   0  0  0  0  0  0  0  0  0  0  0  0
   44.8150   36.0880   44.2420 N   0  0  0  0  0  0  0  0  0  0  0  0
   45.3140   36.6380   42.2160 H   0  0  0  0  0  0  0  0  0  0  0  0
   46.4610   32.7780   43.5840 H   0  0  0  0  0  0  0  0  0  0  0  0
   44.4280   35.3950   46.1290 H   0  0  0  0  0  0  0  0  0  0  0  0
   50.2470   33.8800   42.0190 O   0  0  0  0  0  0  0  0  0  0  0  0
   48.9560   31.8990   43.0560 O   0  0  0  0  0  0  0  0  0  0  0  0
   50.1760   32.1910   42.1990 P   0  0  2  0  0  0  0  0  0  0  0  0
   51.5510   31.5210   42.8500 O   0  0  0  0  0  0  0  0  0  0  0  0
   52.3460   32.0750   42.7220 H   0  0  0  0  0  0  0  0  0  0  0  0
   49.8010   31.5160   40.6550 O   0  0  0  0  0  0  0  0  0  0  0  0
   50.7220   31.5990   39.6060 C   0  0  0  0  0  0  0  0  0  0  0  0
   50.7750   31.6200   38.2240 C   0  0  0  0  0  0  0  0  0  0  0  0
   49.8030   31.5540   37.7530 H   0  0  0  0  0  0  0  0  0  0  0  0
   52.1260   31.7250   37.8820 C   0  0  0  0  0  0  0  0  0  0  0  0
   52.3400   31.7550   36.8300 H   0  0  0  0  0  0  0  0  0  0  0  0
   52.8270   31.7630   39.0310 N   0  0  0  0  0  0  0  0  0  0  0  0
   53.8610   31.8410   38.9090 H   0  0  0  0  0  0  0  0  0  0  0  0
   52.0010   31.6880   40.0580 N   0  0  0  0  0  0  0  0  0  0  0  0
  1  4  1  6  0  0  0
  1  8  1  0  0  0  0
  1  2  1  0  0  0  0
  1  3  1  0  0  0  0
  2  3  1  0  0  0  0
  2  6  1  0  0  0  0
  3  7  1  1  0  0  0
  5  2  1  0  0  0  0
  8 11  1  0  0  0  0
  9  8  2  0  0  0  0
 10 15  1  0  0  0  0
 11 10  2  0  0  0  0
 11 12  1  0  0  0  0
 12 13  2  0  0  0  0
 13 14  1  0  0  0  0
 14 18  1  0  0  0  0
 15 14  2  0  0  0  0
 16 10  1  0  0  0  0
 17 12  1  0  0  0  0
 19 21  1  0  0  0  0
 19  3  1  0  0  0  0
 21 22  1  0  0  0  0
 21 20  2  1  0  0  0
 23 22  1  0  0  0  0
 24 21  1  0  0  0  0
 25 32  2  0  0  0  0
 25 24  1  0  0  0  0
 26 25  1  0  0  0  0
 27 26  1  0  0  0  0
 28 26  2  0  0  0  0
 28 30  1  0  0  0  0
 29 28  1  0  0  0  0
 30 32  1  0  0  0  0
 31 30  1  0  0  0  0
M  END
>  <minimizedAffinity>
-5.14708662

>  <minimizedRMSD>
0.715429902

$$$$
