
 OpenBabel03252503583D

 33 36  0  0  0  0  0  0  0  0999 V2000
   47.0150   35.0510   42.5890 C   0  0  0  0  0  0  0  0  0  0  0  0
   45.9610   35.9370   42.3800 C   0  0  0  0  0  0  0  0  0  0  0  0
   44.8590   35.8410   43.2100 C   0  0  0  0  0  0  0  0  0  0  0  0
   44.8460   34.8980   44.1830 N   0  0  0  0  0  0  0  0  0  0  0  0
   45.8900   34.0460   44.3630 C   0  0  0  0  0  0  0  0  0  0  0  0
   46.9750   34.1230   43.5650 N   0  0  0  0  0  0  0  0  0  0  0  0
   45.9430   36.6980   41.6130 H   0  0  0  0  0  0  0  0  0  0  0  0
   44.0100   36.5190   43.0790 H   0  0  0  0  0  0  0  0  0  0  0  0
   46.2010   31.7320   45.0650 C   0  0  0  0  0  0  0  0  0  0  0  0
   45.8740   33.0280   45.4170 C   0  0  0  0  0  0  0  0  0  0  0  0
   45.5440   33.3240   46.7300 C   0  0  0  0  0  0  0  0  0  0  0  0
   45.5530   32.3080   47.6640 C   0  0  0  0  0  0  0  0  0  0  0  0
   45.2860   32.2830   48.9860 N   0  0  0  0  0  0  0  0  0  0  0  0
   45.4280   31.0470   49.4790 C   0  0  0  0  0  0  0  0  0  0  0  0
   45.8070   30.2130   48.4370 C   0  0  0  0  0  0  0  0  0  0  0  0
   45.8820   31.0050   47.3120 C   0  0  0  0  0  0  0  0  0  0  0  0
   46.2050   30.7270   46.0070 C   0  0  0  0  0  0  0  0  0  0  0  0
   46.4550   31.5170   44.0370 H   0  0  0  0  0  0  0  0  0  0  0  0
   45.2880   34.3530   46.9920 H   0  0  0  0  0  0  0  0  0  0  0  0
   45.0020   33.1070   49.5780 H   0  0  0  0  0  0  0  0  0  0  0  0
   45.2950   30.6660   50.4890 H   0  0  0  0  0  0  0  0  0  0  0  0
   46.0180   29.1600   48.4190 H   0  0  0  0  0  0  0  0  0  0  0  0
   46.4720   29.7420   45.6540 H   0  0  0  0  0  0  0  0  0  0  0  0
   48.1520   35.1670   41.7140 C   0  0  0  0  0  0  0  0  0  0  0  0
   49.0120   36.0940   41.7770 O   0  0  0  0  0  0  0  0  0  0  0  0
   48.3570   34.1620   40.6690 C   0  0  0  0  0  0  0  0  0  0  0  0
   48.9380   32.9150   40.7620 C   0  0  0  0  0  0  0  0  0  0  0  0
   49.3210   32.5460   41.6950 H   0  0  0  0  0  0  0  0  0  0  0  0
   48.9360   32.2760   39.5340 C   0  0  0  0  0  0  0  0  0  0  0  0
   49.3270   31.2910   39.3220 H   0  0  0  0  0  0  0  0  0  0  0  0
   48.3460   33.1670   38.7160 N   0  0  0  0  0  0  0  0  0  0  0  0
   48.1780   33.0090   37.6980 H   0  0  0  0  0  0  0  0  0  0  0  0
   48.0010   34.2710   39.3570 N   0  0  0  0  0  0  0  0  0  0  0  0
  1  6  1  0  0  0  0
  2  1  2  0  0  0  0
  2  3  1  0  0  0  0
  3  4  2  0  0  0  0
  4  5  1  0  0  0  0
  5 10  1  0  0  0  0
  6  5  2  0  0  0  0
  7  2  1  0  0  0  0
  8  3  1  0  0  0  0
  9 10  2  0  0  0  0
  9 17  1  0  0  0  0
 10 11  1  0  0  0  0
 11 19  1  0  0  0  0
 11 12  2  0  0  0  0
 12 13  1  0  0  0  0
 13 14  1  0  0  0  0
 13 20  1  0  0  0  0
 14 21  1  0  0  0  0
 15 14  2  0  0  0  0
 16 12  1  0  0  0  0
 16 15  1  0  0  0  0
 17 16  2  0  0  0  0
 18  9  1  0  0  0  0
 22 15  1  0  0  0  0
 23 17  1  0  0  0  0
 24 25  2  0  0  0  0
 24  1  1  0  0  0  0
 26 27  1  0  0  0  0
 26 24  1  0  0  0  0
 27 28  1  0  0  0  0
 29 27  2  0  0  0  0
 30 29  1  0  0  0  0
 31 33  1  0  0  0  0
 31 29  1  0  0  0  0
 32 31  1  0  0  0  0
 33 26  2  0  0  0  0
M  END
>  <minimizedAffinity>
-5.89678717

>  <minimizedRMSD>
0.390338898

$$$$
