
 OpenBabel03252503583D

 33 36  0  0  0  0  0  0  0  0999 V2000
   47.0310   35.0710   42.6150 C   0  0  0  0  0  0  0  0  0  0  0  0
   45.9540   35.9190   42.3690 C   0  0  0  0  0  0  0  0  0  0  0  0
   44.8290   35.7860   43.1630 C   0  0  0  0  0  0  0  0  0  0  0  0
   44.8190   34.8450   44.1400 N   0  0  0  0  0  0  0  0  0  0  0  0
   45.8860   34.0320   44.3560 C   0  0  0  0  0  0  0  0  0  0  0  0
   46.9920   34.1450   43.5930 N   0  0  0  0  0  0  0  0  0  0  0  0
   45.9330   36.6760   41.5990 H   0  0  0  0  0  0  0  0  0  0  0  0
   43.9620   36.4320   43.0030 H   0  0  0  0  0  0  0  0  0  0  0  0
   46.1990   31.7190   45.0640 C   0  0  0  0  0  0  0  0  0  0  0  0
   45.8720   33.0160   45.4130 C   0  0  0  0  0  0  0  0  0  0  0  0
   45.5450   33.3160   46.7260 C   0  0  0  0  0  0  0  0  0  0  0  0
   45.5550   32.3030   47.6630 C   0  0  0  0  0  0  0  0  0  0  0  0
   45.2900   32.2820   48.9860 N   0  0  0  0  0  0  0  0  0  0  0  0
   45.4340   31.0470   49.4820 C   0  0  0  0  0  0  0  0  0  0  0  0
   45.8110   30.2110   48.4420 C   0  0  0  0  0  0  0  0  0  0  0  0
   45.8840   30.9990   47.3140 C   0  0  0  0  0  0  0  0  0  0  0  0
   46.2050   30.7170   46.0100 C   0  0  0  0  0  0  0  0  0  0  0  0
   46.4510   31.5020   44.0370 H   0  0  0  0  0  0  0  0  0  0  0  0
   45.2880   34.3460   46.9860 H   0  0  0  0  0  0  0  0  0  0  0  0
   45.0070   33.1070   49.5750 H   0  0  0  0  0  0  0  0  0  0  0  0
   45.3030   30.6690   50.4930 H   0  0  0  0  0  0  0  0  0  0  0  0
   46.0220   29.1570   48.4260 H   0  0  0  0  0  0  0  0  0  0  0  0
   46.4720   29.7310   45.6580 H   0  0  0  0  0  0  0  0  0  0  0  0
   48.1910   35.2250   41.7770 C   0  0  0  0  0  0  0  0  0  0  0  0
   49.0470   36.1500   41.9020 O   0  0  0  0  0  0  0  0  0  0  0  0
   48.4260   34.2650   40.6970 C   0  0  0  0  0  0  0  0  0  0  0  0
   48.9070   32.9740   40.7680 C   0  0  0  0  0  0  0  0  0  0  0  0
   49.1700   32.5280   41.7090 H   0  0  0  0  0  0  0  0  0  0  0  0
   48.9800   32.4030   39.5090 C   0  0  0  0  0  0  0  0  0  0  0  0
   49.3200   31.4050   39.2740 H   0  0  0  0  0  0  0  0  0  0  0  0
   48.5360   33.3790   38.6950 N   0  0  0  0  0  0  0  0  0  0  0  0
   48.4570   33.2880   37.6580 H   0  0  0  0  0  0  0  0  0  0  0  0
   48.2090   34.4700   39.3680 N   0  0  0  0  0  0  0  0  0  0  0  0
  1  6  1  0  0  0  0
  2  1  2  0  0  0  0
  2  3  1  0  0  0  0
  3  4  2  0  0  0  0
  4  5  1  0  0  0  0
  5 10  1  0  0  0  0
  6  5  2  0  0  0  0
  7  2  1  0  0  0  0
  8  3  1  0  0  0  0
  9 10  2  0  0  0  0
  9 17  1  0  0  0  0
 10 11  1  0  0  0  0
 11 19  1  0  0  0  0
 11 12  2  0  0  0  0
 12 13  1  0  0  0  0
 13 14  1  0  0  0  0
 13 20  1  0  0  0  0
 14 21  1  0  0  0  0
 15 14  2  0  0  0  0
 16 12  1  0  0  0  0
 16 15  1  0  0  0  0
 17 16  2  0  0  0  0
 18  9  1  0  0  0  0
 22 15  1  0  0  0  0
 23 17  1  0  0  0  0
 24 25  2  0  0  0  0
 24  1  1  0  0  0  0
 26 27  1  0  0  0  0
 26 24  1  0  0  0  0
 27 28  1  0  0  0  0
 29 27  2  0  0  0  0
 30 29  1  0  0  0  0
 31 33  1  0  0  0  0
 31 29  1  0  0  0  0
 32 31  1  0  0  0  0
 33 26  2  0  0  0  0
M  END
>  <minimizedAffinity>
-5.93450451

>  <minimizedRMSD>
0.570453584

$$$$
