
 OpenBabel03252503583D

 33 36  0  0  0  0  0  0  0  0999 V2000
   46.7640   35.0040   42.6980 C   0  0  0  0  0  0  0  0  0  0  0  0
   45.8530   36.0570   42.6900 C   0  0  0  0  0  0  0  0  0  0  0  0
   44.8890   36.0880   43.6820 C   0  0  0  0  0  0  0  0  0  0  0  0
   44.8700   35.1020   44.6130 N   0  0  0  0  0  0  0  0  0  0  0  0
   45.7730   34.0860   44.5950 C   0  0  0  0  0  0  0  0  0  0  0  0
   46.7200   34.0380   43.6360 N   0  0  0  0  0  0  0  0  0  0  0  0
   45.8440   36.8550   41.9620 H   0  0  0  0  0  0  0  0  0  0  0  0
   44.1550   36.8970   43.7130 H   0  0  0  0  0  0  0  0  0  0  0  0
   46.0310   31.7350   45.1860 C   0  0  0  0  0  0  0  0  0  0  0  0
   45.7490   33.0230   45.6020 C   0  0  0  0  0  0  0  0  0  0  0  0
   45.4560   33.2690   46.9350 C   0  0  0  0  0  0  0  0  0  0  0  0
   45.4550   32.2120   47.8230 C   0  0  0  0  0  0  0  0  0  0  0  0
   45.2160   32.1360   49.1480 N   0  0  0  0  0  0  0  0  0  0  0  0
   45.3320   30.8760   49.5830 C   0  0  0  0  0  0  0  0  0  0  0  0
   45.6640   30.0790   48.4960 C   0  0  0  0  0  0  0  0  0  0  0  0
   45.7390   30.9180   47.4060 C   0  0  0  0  0  0  0  0  0  0  0  0
   46.0250   30.6890   46.0830 C   0  0  0  0  0  0  0  0  0  0  0  0
   46.2560   31.5600   44.1450 H   0  0  0  0  0  0  0  0  0  0  0  0
   45.2360   34.2920   47.2480 H   0  0  0  0  0  0  0  0  0  0  0  0
   44.9680   32.9400   49.7820 H   0  0  0  0  0  0  0  0  0  0  0  0
   45.2090   30.4540   50.5770 H   0  0  0  0  0  0  0  0  0  0  0  0
   45.8430   29.0220   48.4270 H   0  0  0  0  0  0  0  0  0  0  0  0
   46.2560   29.7140   45.6810 H   0  0  0  0  0  0  0  0  0  0  0  0
   47.7580   34.9910   41.6560 C   0  0  0  0  0  0  0  0  0  0  0  0
   48.9240   35.4690   41.7730 O   0  0  0  0  0  0  0  0  0  0  0  0
   47.4290   34.3910   40.3620 C   0  0  0  0  0  0  0  0  0  0  0  0
   48.1890   34.3310   39.2120 C   0  0  0  0  0  0  0  0  0  0  0  0
   49.1740   34.7600   39.1710 H   0  0  0  0  0  0  0  0  0  0  0  0
   47.5070   33.6720   38.2030 C   0  0  0  0  0  0  0  0  0  0  0  0
   47.8660   33.4850   37.2020 H   0  0  0  0  0  0  0  0  0  0  0  0
   46.3350   33.3460   38.7770 N   0  0  0  0  0  0  0  0  0  0  0  0
   45.5660   32.8310   38.2910 H   0  0  0  0  0  0  0  0  0  0  0  0
   46.2700   33.7560   40.0320 N   0  0  0  0  0  0  0  0  0  0  0  0
  1  6  1  0  0  0  0
  2  1  2  0  0  0  0
  2  3  1  0  0  0  0
  3  8  1  0  0  0  0
  3  4  2  0  0  0  0
  5  4  1  0  0  0  0
  5 10  1  0  0  0  0
  6  5  2  0  0  0  0
  7  2  1  0  0  0  0
  9 10  2  0  0  0  0
  9 17  1  0  0  0  0
 10 11  1  0  0  0  0
 11 19  1  0  0  0  0
 11 12  2  0  0  0  0
 12 13  1  0  0  0  0
 13 14  1  0  0  0  0
 13 20  1  0  0  0  0
 14 21  1  0  0  0  0
 15 14  2  0  0  0  0
 16 12  1  0  0  0  0
 16 15  1  0  0  0  0
 17 16  2  0  0  0  0
 18  9  1  0  0  0  0
 22 15  1  0  0  0  0
 23 17  1  0  0  0  0
 24 25  2  0  0  0  0
 24  1  1  0  0  0  0
 26 24  1  0  0  0  0
 27 26  1  0  0  0  0
 28 27  1  0  0  0  0
 29 31  1  0  0  0  0
 29 27  2  0  0  0  0
 30 29  1  0  0  0  0
 31 33  1  0  0  0  0
 32 31  1  0  0  0  0
 33 26  2  0  0  0  0
M  END
>  <minimizedAffinity>
-6.15560818

>  <minimizedRMSD>
0.797395289

$$$$
