
 OpenBabel03252503583D

 33 36  0  0  0  0  0  0  0  0999 V2000
   46.8040   35.0050   42.6640 C   0  0  0  0  0  0  0  0  0  0  0  0
   45.8730   36.0390   42.6290 C   0  0  0  0  0  0  0  0  0  0  0  0
   44.8870   36.0580   43.6000 C   0  0  0  0  0  0  0  0  0  0  0  0
   44.8670   35.0790   44.5380 N   0  0  0  0  0  0  0  0  0  0  0  0
   45.7900   34.0820   44.5470 C   0  0  0  0  0  0  0  0  0  0  0  0
   46.7590   34.0450   43.6090 N   0  0  0  0  0  0  0  0  0  0  0  0
   45.8630   36.8310   41.8950 H   0  0  0  0  0  0  0  0  0  0  0  0
   44.1370   36.8530   43.6080 H   0  0  0  0  0  0  0  0  0  0  0  0
   46.0440   31.7340   45.1550 C   0  0  0  0  0  0  0  0  0  0  0  0
   45.7660   33.0260   45.5620 C   0  0  0  0  0  0  0  0  0  0  0  0
   45.4760   33.2820   46.8940 C   0  0  0  0  0  0  0  0  0  0  0  0
   45.4740   32.2320   47.7890 C   0  0  0  0  0  0  0  0  0  0  0  0
   45.2350   32.1660   49.1150 N   0  0  0  0  0  0  0  0  0  0  0  0
   45.3490   30.9080   49.5590 C   0  0  0  0  0  0  0  0  0  0  0  0
   45.6780   30.1030   48.4780 C   0  0  0  0  0  0  0  0  0  0  0  0
   45.7530   30.9340   47.3810 C   0  0  0  0  0  0  0  0  0  0  0  0
   46.0380   30.6950   46.0600 C   0  0  0  0  0  0  0  0  0  0  0  0
   46.2680   31.5510   44.1150 H   0  0  0  0  0  0  0  0  0  0  0  0
   45.2580   34.3090   47.1990 H   0  0  0  0  0  0  0  0  0  0  0  0
   44.9910   32.9750   49.7430 H   0  0  0  0  0  0  0  0  0  0  0  0
   45.2280   30.4940   50.5570 H   0  0  0  0  0  0  0  0  0  0  0  0
   45.8560   29.0450   48.4160 H   0  0  0  0  0  0  0  0  0  0  0  0
   46.2660   29.7160   45.6640 H   0  0  0  0  0  0  0  0  0  0  0  0
   47.8200   35.0030   41.6450 C   0  0  0  0  0  0  0  0  0  0  0  0
   48.7630   35.8460   41.5720 O   0  0  0  0  0  0  0  0  0  0  0  0
   47.7900   33.9720   40.6060 C   0  0  0  0  0  0  0  0  0  0  0  0
   46.7730   33.6410   39.7360 C   0  0  0  0  0  0  0  0  0  0  0  0
   45.8330   34.1620   39.7530 H   0  0  0  0  0  0  0  0  0  0  0  0
   47.1520   32.6000   38.9050 C   0  0  0  0  0  0  0  0  0  0  0  0
   46.5500   32.1430   38.1330 H   0  0  0  0  0  0  0  0  0  0  0  0
   48.4090   32.3240   39.3000 N   0  0  0  0  0  0  0  0  0  0  0  0
   49.0060   31.5790   38.8790 H   0  0  0  0  0  0  0  0  0  0  0  0
   48.7980   33.1110   40.2880 N   0  0  0  0  0  0  0  0  0  0  0  0
  1  6  1  0  0  0  0
  2  1  2  0  0  0  0
  2  3  1  0  0  0  0
  3  8  1  0  0  0  0
  3  4  2  0  0  0  0
  4  5  1  0  0  0  0
  5 10  1  0  0  0  0
  6  5  2  0  0  0  0
  7  2  1  0  0  0  0
  9 10  2  0  0  0  0
  9 17  1  0  0  0  0
 10 11  1  0  0  0  0
 11 19  1  0  0  0  0
 11 12  2  0  0  0  0
 12 13  1  0  0  0  0
 13 14  1  0  0  0  0
 13 20  1  0  0  0  0
 14 21  1  0  0  0  0
 15 14  2  0  0  0  0
 16 12  1  0  0  0  0
 16 15  1  0  0  0  0
 17 16  2  0  0  0  0
 18  9  1  0  0  0  0
 22 15  1  0  0  0  0
 23 17  1  0  0  0  0
 24  1  1  0  0  0  0
 25 24  2  0  0  0  0
 26 24  1  0  0  0  0
 27 28  1  0  0  0  0
 27 26  1  0  0  0  0
 29 31  1  0  0  0  0
 29 27  2  0  0  0  0
 30 29  1  0  0  0  0
 31 33  1  0  0  0  0
 32 31  1  0  0  0  0
 33 26  2  0  0  0  0
M  END
>  <minimizedAffinity>
-5.81829548

>  <minimizedRMSD>
0.278955996

$$$$
