
 OpenBabel03242521193D

 37 39  0  0  0  0  0  0  0  0999 V2000
   37.2720   28.4220   43.8040 C   0  0  0  0  0  0  0  0  0  0  0  0
   37.1460   27.1170   43.2750 C   0  0  0  0  0  0  0  0  0  0  0  0
   37.9570   26.8030   42.1800 C   0  0  0  0  0  0  0  0  0  0  0  0
   38.8100   27.7560   41.6910 N   0  0  0  0  0  0  0  0  0  0  0  0
   38.8880   28.9780   42.2310 C   0  0  0  0  0  0  0  0  0  0  0  0
   38.1180   29.3350   43.3000 N   0  0  0  0  0  0  0  0  0  0  0  0
   36.6600   28.7100   44.6540 H   0  0  0  0  0  0  0  0  0  0  0  0
   36.4500   26.4500   43.7320 H   0  0  0  0  0  0  0  0  0  0  0  0
   37.8440   25.4900   41.6330 N   0  0  0  0  0  0  0  0  0  0  0  0
   36.9380   25.2840   40.6660 C   0  0  0  0  0  0  0  0  0  0  0  0
   36.8160   24.0090   40.1240 C   0  0  0  0  0  0  0  0  0  0  0  0
   37.6280   23.0310   40.6040 C   0  0  0  0  0  0  0  0  0  0  0  0
   37.5110   21.8570   40.1000 O   0  0  0  0  0  0  0  0  0  0  0  0
   38.5390   23.2220   41.5690 N   0  0  0  0  0  0  0  0  0  0  0  0
   38.6140   24.4830   42.0620 C   0  0  0  0  0  0  0  0  0  0  0  0
   39.4340   24.7690   42.9690 O   0  0  0  0  0  0  0  0  0  0  0  0
   36.2950   26.0640   40.2880 H   0  0  0  0  0  0  0  0  0  0  0  0
   36.0940   23.7990   39.3390 H   0  0  0  0  0  0  0  0  0  0  0  0
   39.1630   22.4740   41.9400 H   0  0  0  0  0  0  0  0  0  0  0  0
   39.8840   29.8110   41.5140 C   0  0  0  0  0  0  0  0  0  0  0  0
   40.8040   29.8790   42.1560 H   0  0  0  0  0  0  0  0  0  0  0  0
   40.1900   29.3140   40.5530 H   0  0  0  0  0  0  0  0  0  0  0  0
   39.3310   31.2010   41.2420 C   0  0  0  0  0  0  0  0  0  0  0  0
   38.3710   31.1450   40.6860 H   0  0  0  0  0  0  0  0  0  0  0  0
   39.1470   31.7010   42.2140 H   0  0  0  0  0  0  0  0  0  0  0  0
   40.0300   32.5100   39.2760 C   0  0  0  0  0  0  0  0  0  0  0  0
   38.8750   32.3170   38.8570 O   0  0  0  0  0  0  0  0  0  0  0  0
   40.3320   31.9680   40.5290 N   0  0  0  0  0  0  0  0  0  0  0  0
   41.2650   32.0870   40.9920 H   0  0  0  0  0  0  0  0  0  0  0  0
   41.0210   33.2610   38.5110 C   0  0  0  0  0  0  0  0  0  0  0  0
   41.7260   34.3710   38.9260 C   0  0  0  0  0  0  0  0  0  0  0  0
   41.6660   34.8780   39.8860 H   0  0  0  0  0  0  0  0  0  0  0  0
   42.5400   34.7270   37.8670 C   0  0  0  0  0  0  0  0  0  0  0  0
   43.2430   35.5460   37.8010 H   0  0  0  0  0  0  0  0  0  0  0  0
   42.3180   33.8450   36.8560 N   0  0  0  0  0  0  0  0  0  0  0  0
   42.7360   33.7730   35.8920 H   0  0  0  0  0  0  0  0  0  0  0  0
   41.4080   32.9720   37.2550 N   0  0  0  0  0  0  0  0  0  0  0  0
  1  7  1  0  0  0  0
  2  8  1  0  0  0  0
  2  1  2  0  0  0  0
  3  2  1  0  0  0  0
  4  3  2  0  0  0  0
  4  5  1  0  0  0  0
  5  6  2  0  0  0  0
  6  1  1  0  0  0  0
  9 15  1  0  0  0  0
  9  3  1  0  0  0  0
 10  9  1  0  0  0  0
 11 12  1  0  0  0  0
 11 10  2  0  0  0  0
 12 14  1  0  0  0  0
 13 12  2  0  0  0  0
 14 19  1  0  0  0  0
 14 15  1  0  0  0  0
 15 16  2  0  0  0  0
 17 10  1  0  0  0  0
 18 11  1  0  0  0  0
 20 21  1  0  0  0  0
 20  5  1  0  0  0  0
 22 20  1  0  0  0  0
 23 20  1  0  0  0  0
 23 25  1  0  0  0  0
 24 23  1  0  0  0  0
 26 28  1  0  0  0  0
 27 26  2  0  0  0  0
 28 29  1  0  0  0  0
 28 23  1  0  0  0  0
 30 31  1  0  0  0  0
 30 26  1  0  0  0  0
 31 32  1  0  0  0  0
 33 31  2  0  0  0  0
 34 33  1  0  0  0  0
 35 37  1  0  0  0  0
 35 33  1  0  0  0  0
 36 35  1  0  0  0  0
 37 30  2  0  0  0  0
M  END
>  <minimizedAffinity>
-5.90255117

$$$$

 OpenBabel03242521193D

 37 39  0  0  0  0  0  0  0  0999 V2000
   38.0150   30.6490   37.7430 C   0  0  0  0  0  0  0  0  0  0  0  0
   38.2760   29.7390   38.7930 C   0  0  0  0  0  0  0  0  0  0  0  0
   38.2200   30.2490   40.0940 C   0  0  0  0  0  0  0  0  0  0  0  0
   37.9210   31.5730   40.2750 N   0  0  0  0  0  0  0  0  0  0  0  0
   37.6820   32.3910   39.2430 C   0  0  0  0  0  0  0  0  0  0  0  0
   37.7250   31.9430   37.9540 N   0  0  0  0  0  0  0  0  0  0  0  0
   38.0490   30.2970   36.7160 H   0  0  0  0  0  0  0  0  0  0  0  0
   38.4990   28.7270   38.5420 H   0  0  0  0  0  0  0  0  0  0  0  0
   38.4810   29.3450   41.1660 N   0  0  0  0  0  0  0  0  0  0  0  0
   39.7560   29.1390   41.5230 C   0  0  0  0  0  0  0  0  0  0  0  0
   40.0260   28.2590   42.5670 C   0  0  0  0  0  0  0  0  0  0  0  0
   38.9750   27.6520   43.1760 C   0  0  0  0  0  0  0  0  0  0  0  0
   39.2290   26.8420   44.1380 O   0  0  0  0  0  0  0  0  0  0  0  0
   37.6940   27.8480   42.8320 N   0  0  0  0  0  0  0  0  0  0  0  0
   37.4900   28.7140   41.8080 C   0  0  0  0  0  0  0  0  0  0  0  0
   36.3280   28.9690   41.4060 O   0  0  0  0  0  0  0  0  0  0  0  0
   40.5880   29.6240   41.0360 H   0  0  0  0  0  0  0  0  0  0  0  0
   41.0460   28.0640   42.8870 H   0  0  0  0  0  0  0  0  0  0  0  0
   36.8850   27.3830   43.2960 H   0  0  0  0  0  0  0  0  0  0  0  0
   37.3860   33.7660   39.7150 C   0  0  0  0  0  0  0  0  0  0  0  0
   36.9860   34.3520   38.8440 H   0  0  0  0  0  0  0  0  0  0  0  0
   36.5770   33.7440   40.4960 H   0  0  0  0  0  0  0  0  0  0  0  0
   38.6380   34.4310   40.2630 C   0  0  0  0  0  0  0  0  0  0  0  0
   38.4840   35.5230   40.3930 H   0  0  0  0  0  0  0  0  0  0  0  0
   38.8670   33.9860   41.2520 H   0  0  0  0  0  0  0  0  0  0  0  0
   41.0330   34.5730   39.7040 C   0  0  0  0  0  0  0  0  0  0  0  0
   41.1510   35.1760   40.7850 O   0  0  0  0  0  0  0  0  0  0  0  0
   39.7460   34.1380   39.3760 N   0  0  0  0  0  0  0  0  0  0  0  0
   39.5310   33.5990   38.5020 H   0  0  0  0  0  0  0  0  0  0  0  0
   42.1690   34.3260   38.8210 C   0  0  0  0  0  0  0  0  0  0  0  0
   43.3930   33.7940   39.1680 C   0  0  0  0  0  0  0  0  0  0  0  0
   43.7240   33.4690   40.1510 H   0  0  0  0  0  0  0  0  0  0  0  0
   44.1380   33.7510   38.0040 C   0  0  0  0  0  0  0  0  0  0  0  0
   45.1510   33.3990   37.8620 H   0  0  0  0  0  0  0  0  0  0  0  0
   43.3670   34.2470   36.9980 N   0  0  0  0  0  0  0  0  0  0  0  0
   43.5650   34.3800   35.9730 H   0  0  0  0  0  0  0  0  0  0  0  0
   42.1910   34.5860   37.5000 N   0  0  0  0  0  0  0  0  0  0  0  0
  1  6  2  0  0  0  0
  1  2  1  0  0  0  0
  2  3  2  0  0  0  0
  3  4  1  0  0  0  0
  3  9  1  0  0  0  0
  5 20  1  0  0  0  0
  5  4  2  0  0  0  0
  6  5  1  0  0  0  0
  7  1  1  0  0  0  0
  8  2  1  0  0  0  0
  9 10  1  0  0  0  0
  9 15  1  0  0  0  0
 10 11  2  0  0  0  0
 11 18  1  0  0  0  0
 11 12  1  0  0  0  0
 12 13  2  0  0  0  0
 14 12  1  0  0  0  0
 14 19  1  0  0  0  0
 15 14  1  0  0  0  0
 16 15  2  0  0  0  0
 17 10  1  0  0  0  0
 20 23  1  0  0  0  0
 20 22  1  0  0  0  0
 21 20  1  0  0  0  0
 23 24  1  0  0  0  0
 23 25  1  0  0  0  0
 26 27  2  0  0  0  0
 28 26  1  0  0  0  0
 28 23  1  0  0  0  0
 29 28  1  0  0  0  0
 30 31  1  0  0  0  0
 30 26  1  0  0  0  0
 31 32  1  0  0  0  0
 33 31  2  0  0  0  0
 34 33  1  0  0  0  0
 35 37  1  0  0  0  0
 35 33  1  0  0  0  0
 36 35  1  0  0  0  0
 37 30  2  0  0  0  0
M  END
>  <minimizedAffinity>
-5.89183092

$$$$

 OpenBabel03242521193D

 37 39  0  0  0  0  0  0  0  0999 V2000
   37.2690   27.7880   43.6440 C   0  0  0  0  0  0  0  0  0  0  0  0
   37.4620   29.1120   43.1890 C   0  0  0  0  0  0  0  0  0  0  0  0
   37.6810   29.2790   41.8170 C   0  0  0  0  0  0  0  0  0  0  0  0
   37.6950   28.1740   41.0080 N   0  0  0  0  0  0  0  0  0  0  0  0
   37.5070   26.9410   41.4940 C   0  0  0  0  0  0  0  0  0  0  0  0
   37.2900   26.7240   42.8240 N   0  0  0  0  0  0  0  0  0  0  0  0
   37.0970   27.6110   44.7020 H   0  0  0  0  0  0  0  0  0  0  0  0
   37.4320   29.9030   43.9030 H   0  0  0  0  0  0  0  0  0  0  0  0
   37.8770   30.6090   41.3400 N   0  0  0  0  0  0  0  0  0  0  0  0
   39.1140   31.1240   41.3980 C   0  0  0  0  0  0  0  0  0  0  0  0
   39.3200   32.4200   40.9350 C   0  0  0  0  0  0  0  0  0  0  0  0
   38.2520   33.1010   40.4460 C   0  0  0  0  0  0  0  0  0  0  0  0
   38.4490   34.2950   40.0210 O   0  0  0  0  0  0  0  0  0  0  0  0
   37.0100   32.5990   40.3810 N   0  0  0  0  0  0  0  0  0  0  0  0
   36.8660   31.3330   40.8450 C   0  0  0  0  0  0  0  0  0  0  0  0
   35.7450   30.7680   40.8300 O   0  0  0  0  0  0  0  0  0  0  0  0
   39.9600   30.5800   41.7870 H   0  0  0  0  0  0  0  0  0  0  0  0
   40.3070   32.8760   40.9640 H   0  0  0  0  0  0  0  0  0  0  0  0
   36.1880   33.1190   40.0070 H   0  0  0  0  0  0  0  0  0  0  0  0
   37.5710   25.9300   40.4100 C   0  0  0  0  0  0  0  0  0  0  0  0
   36.6060   25.3550   40.4160 H   0  0  0  0  0  0  0  0  0  0  0  0
   37.6460   26.4360   39.4080 H   0  0  0  0  0  0  0  0  0  0  0  0
   38.7440   24.9870   40.6200 C   0  0  0  0  0  0  0  0  0  0  0  0
   38.4210   24.0580   41.1360 H   0  0  0  0  0  0  0  0  0  0  0  0
   39.1560   24.7130   39.6270 H   0  0  0  0  0  0  0  0  0  0  0  0
   40.3080   25.1240   42.5180 C   0  0  0  0  0  0  0  0  0  0  0  0
   39.8630   24.0100   42.8420 O   0  0  0  0  0  0  0  0  0  0  0  0
   39.7790   25.6880   41.3530 N   0  0  0  0  0  0  0  0  0  0  0  0
   40.0950   26.6120   40.9710 H   0  0  0  0  0  0  0  0  0  0  0  0
   41.3280   25.8140   43.3020 C   0  0  0  0  0  0  0  0  0  0  0  0
   42.6520   25.4570   43.4450 C   0  0  0  0  0  0  0  0  0  0  0  0
   43.1640   24.6060   43.0020 H   0  0  0  0  0  0  0  0  0  0  0  0
   43.2190   26.4050   44.2750 C   0  0  0  0  0  0  0  0  0  0  0  0
   44.2400   26.4730   44.6250 H   0  0  0  0  0  0  0  0  0  0  0  0
   42.2490   27.2980   44.6110 N   0  0  0  0  0  0  0  0  0  0  0  0
   42.2770   28.1580   45.2180 H   0  0  0  0  0  0  0  0  0  0  0  0
   41.1230   26.9330   44.0220 N   0  0  0  0  0  0  0  0  0  0  0  0
  1  7  1  0  0  0  0
  2  1  1  0  0  0  0
  2  8  1  0  0  0  0
  3  2  2  0  0  0  0
  4  5  2  0  0  0  0
  4  3  1  0  0  0  0
  5  6  1  0  0  0  0
  6  1  2  0  0  0  0
  9 10  1  0  0  0  0
  9  3  1  0  0  0  0
 10 17  1  0  0  0  0
 11 18  1  0  0  0  0
 11 10  2  0  0  0  0
 12 11  1  0  0  0  0
 13 12  2  0  0  0  0
 14 12  1  0  0  0  0
 14 15  1  0  0  0  0
 15  9  1  0  0  0  0
 16 15  2  0  0  0  0
 19 14  1  0  0  0  0
 20 21  1  0  0  0  0
 20 23  1  0  0  0  0
 20  5  1  0  0  0  0
 22 20  1  0  0  0  0
 23 24  1  0  0  0  0
 23 28  1  0  0  0  0
 25 23  1  0  0  0  0
 26 27  2  0  0  0  0
 26 30  1  0  0  0  0
 28 26  1  0  0  0  0
 29 28  1  0  0  0  0
 30 31  1  0  0  0  0
 30 37  2  0  0  0  0
 31 33  2  0  0  0  0
 32 31  1  0  0  0  0
 33 35  1  0  0  0  0
 33 34  1  0  0  0  0
 35 36  1  0  0  0  0
 37 35  1  0  0  0  0
M  END
>  <minimizedAffinity>
-5.79394627

$$$$

 OpenBabel03242521193D

 37 39  0  0  0  0  0  0  0  0999 V2000
   37.4140   33.5590   39.7540 C   0  0  0  0  0  0  0  0  0  0  0  0
   38.6910   33.8770   40.2720 C   0  0  0  0  0  0  0  0  0  0  0  0
   39.7620   33.0950   39.8270 C   0  0  0  0  0  0  0  0  0  0  0  0
   39.5200   32.0870   38.9310 N   0  0  0  0  0  0  0  0  0  0  0  0
   38.2890   31.8300   38.4730 C   0  0  0  0  0  0  0  0  0  0  0  0
   37.2100   32.5630   38.8770 N   0  0  0  0  0  0  0  0  0  0  0  0
   36.5530   34.1400   40.0730 H   0  0  0  0  0  0  0  0  0  0  0  0
   38.7700   34.6840   40.9650 H   0  0  0  0  0  0  0  0  0  0  0  0
   41.0570   33.4010   40.3390 N   0  0  0  0  0  0  0  0  0  0  0  0
   41.5790   32.5840   41.2650 C   0  0  0  0  0  0  0  0  0  0  0  0
   42.8420   32.8700   41.7740 C   0  0  0  0  0  0  0  0  0  0  0  0
   43.4860   33.9690   41.3030 C   0  0  0  0  0  0  0  0  0  0  0  0
   44.6500   34.2280   41.7760 O   0  0  0  0  0  0  0  0  0  0  0  0
   42.9770   34.7960   40.3770 N   0  0  0  0  0  0  0  0  0  0  0  0
   41.7440   34.4690   39.9170 C   0  0  0  0  0  0  0  0  0  0  0  0
   41.1760   35.1760   39.0480 O   0  0  0  0  0  0  0  0  0  0  0  0
   41.0650   31.7110   41.6360 H   0  0  0  0  0  0  0  0  0  0  0  0
   43.3020   32.2340   42.5260 H   0  0  0  0  0  0  0  0  0  0  0  0
   43.4680   35.6400   40.0140 H   0  0  0  0  0  0  0  0  0  0  0  0
   38.3060   30.6930   37.5210 C   0  0  0  0  0  0  0  0  0  0  0  0
   37.9010   31.0580   36.5390 H   0  0  0  0  0  0  0  0  0  0  0  0
   39.3620   30.3540   37.3360 H   0  0  0  0  0  0  0  0  0  0  0  0
   37.4600   29.5410   38.0400 C   0  0  0  0  0  0  0  0  0  0  0  0
   36.4340   29.5780   37.6160 H   0  0  0  0  0  0  0  0  0  0  0  0
   37.9350   28.5890   37.7290 H   0  0  0  0  0  0  0  0  0  0  0  0
   37.2020   28.4180   40.2170 C   0  0  0  0  0  0  0  0  0  0  0  0
   37.0230   27.3820   39.5530 O   0  0  0  0  0  0  0  0  0  0  0  0
   37.4540   29.5840   39.4880 N   0  0  0  0  0  0  0  0  0  0  0  0
   37.6430   30.5110   39.9410 H   0  0  0  0  0  0  0  0  0  0  0  0
   37.1550   28.4260   41.6760 C   0  0  0  0  0  0  0  0  0  0  0  0
   36.8610   27.3650   42.5060 C   0  0  0  0  0  0  0  0  0  0  0  0
   36.6140   26.3450   42.2210 H   0  0  0  0  0  0  0  0  0  0  0  0
   36.9410   27.8530   43.7970 C   0  0  0  0  0  0  0  0  0  0  0  0
   36.7780   27.3280   44.7290 H   0  0  0  0  0  0  0  0  0  0  0  0
   37.2740   29.1690   43.7250 N   0  0  0  0  0  0  0  0  0  0  0  0
   37.4310   29.8890   44.4780 H   0  0  0  0  0  0  0  0  0  0  0  0
   37.4010   29.5000   42.4500 N   0  0  0  0  0  0  0  0  0  0  0  0
  1  7  1  0  0  0  0
  1  2  1  0  0  0  0
  2  8  1  0  0  0  0
  3  2  2  0  0  0  0
  3  9  1  0  0  0  0
  4  3  1  0  0  0  0
  5  6  1  0  0  0  0
  5  4  2  0  0  0  0
  6  1  2  0  0  0  0
  9 10  1  0  0  0  0
 10 17  1  0  0  0  0
 10 11  2  0  0  0  0
 11 18  1  0  0  0  0
 12 11  1  0  0  0  0
 12 13  2  0  0  0  0
 14 12  1  0  0  0  0
 15  9  1  0  0  0  0
 15 14  1  0  0  0  0
 16 15  2  0  0  0  0
 19 14  1  0  0  0  0
 20 23  1  0  0  0  0
 20  5  1  0  0  0  0
 21 20  1  0  0  0  0
 22 20  1  0  0  0  0
 23 28  1  0  0  0  0
 24 23  1  0  0  0  0
 25 23  1  0  0  0  0
 26 30  1  0  0  0  0
 27 26  2  0  0  0  0
 28 29  1  0  0  0  0
 28 26  1  0  0  0  0
 30 37  2  0  0  0  0
 30 31  1  0  0  0  0
 31 33  2  0  0  0  0
 32 31  1  0  0  0  0
 33 34  1  0  0  0  0
 35 33  1  0  0  0  0
 35 36  1  0  0  0  0
 37 35  1  0  0  0  0
M  END
>  <minimizedAffinity>
-5.74947596

$$$$

 OpenBabel03242521193D

 37 39  0  0  0  0  0  0  0  0999 V2000
   37.6470   31.0830   37.5770 C   0  0  0  0  0  0  0  0  0  0  0  0
   38.7070   31.8830   38.0620 C   0  0  0  0  0  0  0  0  0  0  0  0
   38.8070   32.0170   39.4510 C   0  0  0  0  0  0  0  0  0  0  0  0
   37.8930   31.3770   40.2470 N   0  0  0  0  0  0  0  0  0  0  0  0
   36.9080   30.6320   39.7320 C   0  0  0  0  0  0  0  0  0  0  0  0
   36.7670   30.4700   38.3840 N   0  0  0  0  0  0  0  0  0  0  0  0
   37.5300   30.9530   36.5040 H   0  0  0  0  0  0  0  0  0  0  0  0
   39.3650   32.3370   37.3560 H   0  0  0  0  0  0  0  0  0  0  0  0
   39.8700   32.8200   39.9600 N   0  0  0  0  0  0  0  0  0  0  0  0
   41.0960   32.2810   40.0200 C   0  0  0  0  0  0  0  0  0  0  0  0
   42.1430   33.0530   40.5140 C   0  0  0  0  0  0  0  0  0  0  0  0
   41.8670   34.3220   40.9130 C   0  0  0  0  0  0  0  0  0  0  0  0
   42.8370   35.0290   41.3680 O   0  0  0  0  0  0  0  0  0  0  0  0
   40.6470   34.8750   40.8580 N   0  0  0  0  0  0  0  0  0  0  0  0
   39.6650   34.0780   40.3690 C   0  0  0  0  0  0  0  0  0  0  0  0
   38.4850   34.4980   40.2760 O   0  0  0  0  0  0  0  0  0  0  0  0
   41.3110   31.2730   39.7020 H   0  0  0  0  0  0  0  0  0  0  0  0
   43.1520   32.6540   40.5800 H   0  0  0  0  0  0  0  0  0  0  0  0
   40.4320   35.8480   41.1640 H   0  0  0  0  0  0  0  0  0  0  0  0
   36.0640   30.0560   40.8070 C   0  0  0  0  0  0  0  0  0  0  0  0
   35.3410   30.8490   41.1410 H   0  0  0  0  0  0  0  0  0  0  0  0
   35.4540   29.2010   40.4080 H   0  0  0  0  0  0  0  0  0  0  0  0
   36.9180   29.6010   41.9790 C   0  0  0  0  0  0  0  0  0  0  0  0
   37.6880   30.3610   42.2300 H   0  0  0  0  0  0  0  0  0  0  0  0
   36.2590   29.4620   42.8600 H   0  0  0  0  0  0  0  0  0  0  0  0
   37.1430   27.1820   42.3900 C   0  0  0  0  0  0  0  0  0  0  0  0
   36.2940   27.3520   43.2820 O   0  0  0  0  0  0  0  0  0  0  0  0
   37.5040   28.3160   41.6560 N   0  0  0  0  0  0  0  0  0  0  0  0
   38.1930   28.2890   40.8650 H   0  0  0  0  0  0  0  0  0  0  0  0
   37.7360   25.8770   42.1160 C   0  0  0  0  0  0  0  0  0  0  0  0
   39.0030   25.6220   41.6350 C   0  0  0  0  0  0  0  0  0  0  0  0
   39.7750   26.3420   41.3770 H   0  0  0  0  0  0  0  0  0  0  0  0
   39.1090   24.2470   41.5400 C   0  0  0  0  0  0  0  0  0  0  0  0
   39.9500   23.6560   41.2040 H   0  0  0  0  0  0  0  0  0  0  0  0
   37.9310   23.7090   41.9560 N   0  0  0  0  0  0  0  0  0  0  0  0
   37.6140   22.7070   42.0350 H   0  0  0  0  0  0  0  0  0  0  0  0
   37.1190   24.6940   42.2990 N   0  0  0  0  0  0  0  0  0  0  0  0
  1  2  2  0  0  0  0
  1  6  1  0  0  0  0
  2  3  1  0  0  0  0
  3  9  1  0  0  0  0
  3  4  2  0  0  0  0
  5  4  1  0  0  0  0
  5 20  1  0  0  0  0
  6  5  2  0  0  0  0
  7  1  1  0  0  0  0
  8  2  1  0  0  0  0
  9 10  1  0  0  0  0
  9 15  1  0  0  0  0
 10 11  2  0  0  0  0
 11 18  1  0  0  0  0
 11 12  1  0  0  0  0
 12 13  2  0  0  0  0
 14 12  1  0  0  0  0
 14 19  1  0  0  0  0
 15 14  1  0  0  0  0
 16 15  2  0  0  0  0
 17 10  1  0  0  0  0
 20 21  1  0  0  0  0
 20 23  1  0  0  0  0
 22 20  1  0  0  0  0
 23 24  1  0  0  0  0
 23 25  1  0  0  0  0
 26 27  2  0  0  0  0
 28 23  1  0  0  0  0
 28 26  1  0  0  0  0
 29 28  1  0  0  0  0
 30 37  2  0  0  0  0
 30 26  1  0  0  0  0
 31 30  1  0  0  0  0
 32 31  1  0  0  0  0
 33 31  2  0  0  0  0
 33 35  1  0  0  0  0
 34 33  1  0  0  0  0
 35 36  1  0  0  0  0
 35 37  1  0  0  0  0
M  END
>  <minimizedAffinity>
-5.64406967

$$$$

 OpenBabel03242521193D

 37 39  0  0  0  0  0  0  0  0999 V2000
   37.9350   27.8510   43.5850 C   0  0  0  0  0  0  0  0  0  0  0  0
   37.9700   29.1900   43.1340 C   0  0  0  0  0  0  0  0  0  0  0  0
   37.9600   29.3860   41.7490 C   0  0  0  0  0  0  0  0  0  0  0  0
   37.9160   28.2930   40.9240 N   0  0  0  0  0  0  0  0  0  0  0  0
   37.8840   27.0460   41.4070 C   0  0  0  0  0  0  0  0  0  0  0  0
   37.8920   26.8010   42.7500 N   0  0  0  0  0  0  0  0  0  0  0  0
   37.9420   27.6520   44.6530 H   0  0  0  0  0  0  0  0  0  0  0  0
   38.0030   29.9700   43.8610 H   0  0  0  0  0  0  0  0  0  0  0  0
   37.9960   30.7310   41.2750 N   0  0  0  0  0  0  0  0  0  0  0  0
   39.1740   31.3710   41.2790 C   0  0  0  0  0  0  0  0  0  0  0  0
   39.2230   32.6840   40.8190 C   0  0  0  0  0  0  0  0  0  0  0  0
   38.0680   33.2530   40.3870 C   0  0  0  0  0  0  0  0  0  0  0  0
   38.1200   34.4630   39.9640 O   0  0  0  0  0  0  0  0  0  0  0  0
   36.8830   32.6250   40.3760 N   0  0  0  0  0  0  0  0  0  0  0  0
   36.8930   31.3490   40.8350 C   0  0  0  0  0  0  0  0  0  0  0  0
   35.8360   30.6720   40.8690 O   0  0  0  0  0  0  0  0  0  0  0  0
   40.0890   30.9160   41.6220 H   0  0  0  0  0  0  0  0  0  0  0  0
   40.1580   33.2390   40.8050 H   0  0  0  0  0  0  0  0  0  0  0  0
   35.9950   33.0590   40.0470 H   0  0  0  0  0  0  0  0  0  0  0  0
   37.8400   26.0540   40.3050 C   0  0  0  0  0  0  0  0  0  0  0  0
   38.6370   26.3260   39.5620 H   0  0  0  0  0  0  0  0  0  0  0  0
   38.0880   25.0280   40.6930 H   0  0  0  0  0  0  0  0  0  0  0  0
   36.4760   26.0530   39.6330 C   0  0  0  0  0  0  0  0  0  0  0  0
   36.2500   25.0590   39.1930 H   0  0  0  0  0  0  0  0  0  0  0  0
   35.7080   26.2840   40.3980 H   0  0  0  0  0  0  0  0  0  0  0  0
   36.5560   26.7910   37.2840 C   0  0  0  0  0  0  0  0  0  0  0  0
   36.6440   25.5820   37.0070 O   0  0  0  0  0  0  0  0  0  0  0  0
   36.4470   27.1090   38.6410 N   0  0  0  0  0  0  0  0  0  0  0  0
   36.3430   28.0920   38.9900 H   0  0  0  0  0  0  0  0  0  0  0  0
   36.5640   27.8280   36.2570 C   0  0  0  0  0  0  0  0  0  0  0  0
   35.5670   28.7420   35.9890 C   0  0  0  0  0  0  0  0  0  0  0  0
   34.6090   28.8500   36.4910 H   0  0  0  0  0  0  0  0  0  0  0  0
   36.0250   29.5140   34.9380 C   0  0  0  0  0  0  0  0  0  0  0  0
   35.5330   30.3380   34.4400 H   0  0  0  0  0  0  0  0  0  0  0  0
   37.2630   29.0630   34.5980 N   0  0  0  0  0  0  0  0  0  0  0  0
   37.9390   29.3810   33.8560 H   0  0  0  0  0  0  0  0  0  0  0  0
   37.5730   28.0540   35.3950 N   0  0  0  0  0  0  0  0  0  0  0  0
  1  7  1  0  0  0  0
  2  1  1  0  0  0  0
  2  8  1  0  0  0  0
  3  2  2  0  0  0  0
  4  5  2  0  0  0  0
  4  3  1  0  0  0  0
  5  6  1  0  0  0  0
  6  1  2  0  0  0  0
  9 10  1  0  0  0  0
  9  3  1  0  0  0  0
 10 17  1  0  0  0  0
 11 10  2  0  0  0  0
 12 11  1  0  0  0  0
 13 12  2  0  0  0  0
 14 12  1  0  0  0  0
 14 15  1  0  0  0  0
 15 16  2  0  0  0  0
 15  9  1  0  0  0  0
 18 11  1  0  0  0  0
 19 14  1  0  0  0  0
 20 22  1  0  0  0  0
 20  5  1  0  0  0  0
 21 20  1  0  0  0  0
 23 20  1  0  0  0  0
 23 25  1  0  0  0  0
 24 23  1  0  0  0  0
 26 28  1  0  0  0  0
 27 26  2  0  0  0  0
 28 29  1  0  0  0  0
 28 23  1  0  0  0  0
 30 26  1  0  0  0  0
 31 30  1  0  0  0  0
 31 32  1  0  0  0  0
 33 31  2  0  0  0  0
 34 33  1  0  0  0  0
 35 33  1  0  0  0  0
 35 37  1  0  0  0  0
 36 35  1  0  0  0  0
 37 30  2  0  0  0  0
M  END
>  <minimizedAffinity>
-5.63054419

$$$$

 OpenBabel03242521193D

 37 39  0  0  0  0  0  0  0  0999 V2000
   37.0030   31.5150   38.7040 C   0  0  0  0  0  0  0  0  0  0  0  0
   37.3740   30.4660   39.5760 C   0  0  0  0  0  0  0  0  0  0  0  0
   38.1230   30.8210   40.7020 C   0  0  0  0  0  0  0  0  0  0  0  0
   38.4480   32.1390   40.8950 N   0  0  0  0  0  0  0  0  0  0  0  0
   38.0700   33.0910   40.0350 C   0  0  0  0  0  0  0  0  0  0  0  0
   37.3380   32.7970   38.9200 N   0  0  0  0  0  0  0  0  0  0  0  0
   36.4220   31.2840   37.8150 H   0  0  0  0  0  0  0  0  0  0  0  0
   37.0690   29.4730   39.3340 H   0  0  0  0  0  0  0  0  0  0  0  0
   38.5070   29.7760   41.5940 N   0  0  0  0  0  0  0  0  0  0  0  0
   37.6370   29.4060   42.5450 C   0  0  0  0  0  0  0  0  0  0  0  0
   37.9980   28.3880   43.4220 C   0  0  0  0  0  0  0  0  0  0  0  0
   39.2210   27.8180   43.2690 C   0  0  0  0  0  0  0  0  0  0  0  0
   39.5480   26.8800   44.0810 O   0  0  0  0  0  0  0  0  0  0  0  0
   40.1010   28.1760   42.3230 N   0  0  0  0  0  0  0  0  0  0  0  0
   39.6980   29.1730   41.4970 C   0  0  0  0  0  0  0  0  0  0  0  0
   40.4460   29.5850   40.5760 O   0  0  0  0  0  0  0  0  0  0  0  0
   36.6660   29.8620   42.6630 H   0  0  0  0  0  0  0  0  0  0  0  0
   37.3220   28.0580   44.2070 H   0  0  0  0  0  0  0  0  0  0  0  0
   41.0400   27.7410   42.2030 H   0  0  0  0  0  0  0  0  0  0  0  0
   38.5500   34.4230   40.4770 C   0  0  0  0  0  0  0  0  0  0  0  0
   37.7800   35.1850   40.1790 H   0  0  0  0  0  0  0  0  0  0  0  0
   38.6310   34.4570   41.5970 H   0  0  0  0  0  0  0  0  0  0  0  0
   39.8890   34.7540   39.8360 C   0  0  0  0  0  0  0  0  0  0  0  0
   39.8060   35.6470   39.1800 H   0  0  0  0  0  0  0  0  0  0  0  0
   40.6180   34.9740   40.6410 H   0  0  0  0  0  0  0  0  0  0  0  0
   41.5250   33.6710   38.3460 C   0  0  0  0  0  0  0  0  0  0  0  0
   42.1140   34.7660   38.3550 O   0  0  0  0  0  0  0  0  0  0  0  0
   40.3600   33.5890   39.1160 N   0  0  0  0  0  0  0  0  0  0  0  0
   39.7940   32.7100   39.2030 H   0  0  0  0  0  0  0  0  0  0  0  0
   42.0130   32.5290   37.5800 C   0  0  0  0  0  0  0  0  0  0  0  0
   43.3130   32.2850   37.1880 C   0  0  0  0  0  0  0  0  0  0  0  0
   44.1920   32.8940   37.3780 H   0  0  0  0  0  0  0  0  0  0  0  0
   43.2860   31.0910   36.4900 C   0  0  0  0  0  0  0  0  0  0  0  0
   44.1060   30.5630   36.0230 H   0  0  0  0  0  0  0  0  0  0  0  0
   42.0000   30.6470   36.4740 N   0  0  0  0  0  0  0  0  0  0  0  0
   41.5680   29.7850   36.0510 H   0  0  0  0  0  0  0  0  0  0  0  0
   41.2490   31.5160   37.1310 N   0  0  0  0  0  0  0  0  0  0  0  0
  1  6  2  0  0  0  0
  1  2  1  0  0  0  0
  2  3  2  0  0  0  0
  3  4  1  0  0  0  0
  3  9  1  0  0  0  0
  5 20  1  0  0  0  0
  5  4  2  0  0  0  0
  6  5  1  0  0  0  0
  7  1  1  0  0  0  0
  8  2  1  0  0  0  0
  9 10  1  0  0  0  0
 10 17  1  0  0  0  0
 10 11  2  0  0  0  0
 11 18  1  0  0  0  0
 12 11  1  0  0  0  0
 12 13  2  0  0  0  0
 14 12  1  0  0  0  0
 15  9  1  0  0  0  0
 15 14  1  0  0  0  0
 16 15  2  0  0  0  0
 19 14  1  0  0  0  0
 20 22  1  0  0  0  0
 21 20  1  0  0  0  0
 23 20  1  0  0  0  0
 23 25  1  0  0  0  0
 24 23  1  0  0  0  0
 26 27  2  0  0  0  0
 26 28  1  0  0  0  0
 28 29  1  0  0  0  0
 28 23  1  0  0  0  0
 30 26  1  0  0  0  0
 31 32  1  0  0  0  0
 31 30  1  0  0  0  0
 33 31  2  0  0  0  0
 34 33  1  0  0  0  0
 35 33  1  0  0  0  0
 35 37  1  0  0  0  0
 36 35  1  0  0  0  0
 37 30  2  0  0  0  0
M  END
>  <minimizedAffinity>
-5.60768127

$$$$

 OpenBabel03242521193D

 37 39  0  0  0  0  0  0  0  0999 V2000
   38.2940   33.8920   40.0770 C   0  0  0  0  0  0  0  0  0  0  0  0
   37.3270   32.9710   39.6140 C   0  0  0  0  0  0  0  0  0  0  0  0
   37.6800   31.6180   39.6500 C   0  0  0  0  0  0  0  0  0  0  0  0
   38.9170   31.2680   40.1240 N   0  0  0  0  0  0  0  0  0  0  0  0
   39.7950   32.1830   40.5500 C   0  0  0  0  0  0  0  0  0  0  0  0
   39.4990   33.5160   40.5350 N   0  0  0  0  0  0  0  0  0  0  0  0
   38.0630   34.9530   40.0650 H   0  0  0  0  0  0  0  0  0  0  0  0
   36.3920   33.3490   39.2650 H   0  0  0  0  0  0  0  0  0  0  0  0
   36.7160   30.6740   39.1870 N   0  0  0  0  0  0  0  0  0  0  0  0
   36.6760   30.4050   37.8740 C   0  0  0  0  0  0  0  0  0  0  0  0
   35.7410   29.4860   37.4080 C   0  0  0  0  0  0  0  0  0  0  0  0
   34.9120   28.9040   38.3130 C   0  0  0  0  0  0  0  0  0  0  0  0
   34.0520   28.0580   37.8770 O   0  0  0  0  0  0  0  0  0  0  0  0
   34.9410   29.1620   39.6290 N   0  0  0  0  0  0  0  0  0  0  0  0
   35.8710   30.0650   40.0270 C   0  0  0  0  0  0  0  0  0  0  0  0
   35.9820   30.3780   41.2380 O   0  0  0  0  0  0  0  0  0  0  0  0
   37.3360   30.8700   37.1590 H   0  0  0  0  0  0  0  0  0  0  0  0
   35.6740   29.2400   36.3510 H   0  0  0  0  0  0  0  0  0  0  0  0
   34.3060   28.7180   40.3260 H   0  0  0  0  0  0  0  0  0  0  0  0
   41.0500   31.5390   41.0080 C   0  0  0  0  0  0  0  0  0  0  0  0
   41.2210   30.6260   40.3760 H   0  0  0  0  0  0  0  0  0  0  0  0
   41.9250   32.2240   40.8380 H   0  0  0  0  0  0  0  0  0  0  0  0
   40.9540   31.1510   42.4750 C   0  0  0  0  0  0  0  0  0  0  0  0
   41.8100   30.5090   42.7730 H   0  0  0  0  0  0  0  0  0  0  0  0
   40.9780   32.0760   43.0840 H   0  0  0  0  0  0  0  0  0  0  0  0
   39.6190   29.1100   42.8220 C   0  0  0  0  0  0  0  0  0  0  0  0
   40.7030   28.5050   42.7530 O   0  0  0  0  0  0  0  0  0  0  0  0
   39.6790   30.5010   42.7010 N   0  0  0  0  0  0  0  0  0  0  0  0
   38.8330   31.1170   42.7670 H   0  0  0  0  0  0  0  0  0  0  0  0
   38.3500   28.4160   43.0170 C   0  0  0  0  0  0  0  0  0  0  0  0
   37.8340   27.3930   42.2500 C   0  0  0  0  0  0  0  0  0  0  0  0
   38.2770   26.9300   41.3720 H   0  0  0  0  0  0  0  0  0  0  0  0
   36.6180   27.0610   42.8180 C   0  0  0  0  0  0  0  0  0  0  0  0
   35.9100   26.3060   42.5070 H   0  0  0  0  0  0  0  0  0  0  0  0
   36.4280   27.8710   43.8950 N   0  0  0  0  0  0  0  0  0  0  0  0
   35.6360   27.9320   44.5860 H   0  0  0  0  0  0  0  0  0  0  0  0
   37.4720   28.6760   44.0030 N   0  0  0  0  0  0  0  0  0  0  0  0
  1  6  1  0  0  0  0
  2  3  1  0  0  0  0
  2  1  2  0  0  0  0
  3  4  2  0  0  0  0
  4  5  1  0  0  0  0
  5 20  1  0  0  0  0
  6  5  2  0  0  0  0
  7  1  1  0  0  0  0
  8  2  1  0  0  0  0
  9  3  1  0  0  0  0
  9 15  1  0  0  0  0
 10  9  1  0  0  0  0
 11 10  2  0  0  0  0
 11 12  1  0  0  0  0
 12 14  1  0  0  0  0
 13 12  2  0  0  0  0
 14 15  1  0  0  0  0
 14 19  1  0  0  0  0
 15 16  2  0  0  0  0
 17 10  1  0  0  0  0
 18 11  1  0  0  0  0
 20 23  1  0  0  0  0
 21 20  1  0  0  0  0
 22 20  1  0  0  0  0
 23 28  1  0  0  0  0
 23 24  1  0  0  0  0
 23 25  1  0  0  0  0
 26 30  1  0  0  0  0
 27 26  2  0  0  0  0
 28 29  1  0  0  0  0
 28 26  1  0  0  0  0
 30 37  2  0  0  0  0
 31 33  2  0  0  0  0
 31 30  1  0  0  0  0
 32 31  1  0  0  0  0
 33 35  1  0  0  0  0
 34 33  1  0  0  0  0
 35 37  1  0  0  0  0
 35 36  1  0  0  0  0
M  END
>  <minimizedAffinity>
-5.53194189

$$$$

 OpenBabel03242521193D

 37 39  0  0  0  0  0  0  0  0999 V2000
   37.1740   27.8360   43.7020 C   0  0  0  0  0  0  0  0  0  0  0  0
   38.5060   27.4050   43.8960 C   0  0  0  0  0  0  0  0  0  0  0  0
   39.1880   26.9420   42.7660 C   0  0  0  0  0  0  0  0  0  0  0  0
   38.5400   26.9330   41.5580 N   0  0  0  0  0  0  0  0  0  0  0  0
   37.2760   27.3520   41.4320 C   0  0  0  0  0  0  0  0  0  0  0  0
   36.5670   27.8130   42.5050 N   0  0  0  0  0  0  0  0  0  0  0  0
   36.6070   28.2030   44.5530 H   0  0  0  0  0  0  0  0  0  0  0  0
   38.9170   27.4550   44.8790 H   0  0  0  0  0  0  0  0  0  0  0  0
   40.5330   26.5040   42.9420 N   0  0  0  0  0  0  0  0  0  0  0  0
   41.4890   27.4350   43.0770 C   0  0  0  0  0  0  0  0  0  0  0  0
   42.8060   27.0210   43.2500 C   0  0  0  0  0  0  0  0  0  0  0  0
   43.0580   25.6870   43.2730 C   0  0  0  0  0  0  0  0  0  0  0  0
   44.2750   25.3120   43.4320 O   0  0  0  0  0  0  0  0  0  0  0  0
   42.1140   24.7440   43.1390 N   0  0  0  0  0  0  0  0  0  0  0  0
   40.8490   25.2030   42.9730 C   0  0  0  0  0  0  0  0  0  0  0  0
   39.8900   24.4040   42.8390 O   0  0  0  0  0  0  0  0  0  0  0  0
   41.2840   28.4940   43.0590 H   0  0  0  0  0  0  0  0  0  0  0  0
   43.6100   27.7440   43.3640 H   0  0  0  0  0  0  0  0  0  0  0  0
   42.3040   23.7200   43.1550 H   0  0  0  0  0  0  0  0  0  0  0  0
   36.8170   27.2360   40.0260 C   0  0  0  0  0  0  0  0  0  0  0  0
   36.9160   26.1600   39.7180 H   0  0  0  0  0  0  0  0  0  0  0  0
   35.7280   27.5030   39.9470 H   0  0  0  0  0  0  0  0  0  0  0  0
   37.6510   28.1200   39.1120 C   0  0  0  0  0  0  0  0  0  0  0  0
   38.5800   27.6010   38.7950 H   0  0  0  0  0  0  0  0  0  0  0  0
   37.0510   28.3530   38.2090 H   0  0  0  0  0  0  0  0  0  0  0  0
   37.6750   30.5830   39.1540 C   0  0  0  0  0  0  0  0  0  0  0  0
   37.1880   30.5120   38.0130 O   0  0  0  0  0  0  0  0  0  0  0  0
   37.9270   29.3670   39.7960 N   0  0  0  0  0  0  0  0  0  0  0  0
   38.3140   29.3040   40.7690 H   0  0  0  0  0  0  0  0  0  0  0  0
   37.9710   31.8600   39.7970 C   0  0  0  0  0  0  0  0  0  0  0  0
   37.5460   33.1100   39.4010 C   0  0  0  0  0  0  0  0  0  0  0  0
   36.9230   33.3620   38.5460 H   0  0  0  0  0  0  0  0  0  0  0  0
   38.0740   34.0040   40.3130 C   0  0  0  0  0  0  0  0  0  0  0  0
   37.9680   35.0790   40.3450 H   0  0  0  0  0  0  0  0  0  0  0  0
   38.7920   33.2930   41.2240 N   0  0  0  0  0  0  0  0  0  0  0  0
   39.3420   33.6000   42.0690 H   0  0  0  0  0  0  0  0  0  0  0  0
   38.7220   32.0110   40.9050 N   0  0  0  0  0  0  0  0  0  0  0  0
  1  2  1  0  0  0  0
  1  7  1  0  0  0  0
  2  8  1  0  0  0  0
  3  9  1  0  0  0  0
  3  2  2  0  0  0  0
  4  3  1  0  0  0  0
  5  4  2  0  0  0  0
  5  6  1  0  0  0  0
  6  1  2  0  0  0  0
  9 15  1  0  0  0  0
  9 10  1  0  0  0  0
 10 11  2  0  0  0  0
 11 12  1  0  0  0  0
 11 18  1  0  0  0  0
 12 13  2  0  0  0  0
 14 19  1  0  0  0  0
 14 12  1  0  0  0  0
 15 14  1  0  0  0  0
 16 15  2  0  0  0  0
 17 10  1  0  0  0  0
 20  5  1  0  0  0  0
 21 20  1  0  0  0  0
 22 20  1  0  0  0  0
 23 28  1  0  0  0  0
 23 20  1  0  0  0  0
 24 23  1  0  0  0  0
 25 23  1  0  0  0  0
 26 28  1  0  0  0  0
 26 30  1  0  0  0  0
 27 26  2  0  0  0  0
 28 29  1  0  0  0  0
 30 37  2  0  0  0  0
 31 30  1  0  0  0  0
 31 33  2  0  0  0  0
 32 31  1  0  0  0  0
 33 34  1  0  0  0  0
 33 35  1  0  0  0  0
 35 36  1  0  0  0  0
 37 35  1  0  0  0  0
M  END
>  <minimizedAffinity>
-5.51723051

$$$$
