
 OpenBabel03252503583D

 33 36  0  0  0  0  0  0  0  0999 V2000
   46.7240   35.0490   42.6770 C   0  0  0  0  0  0  0  0  0  0  0  0
   45.8010   36.0920   42.6810 C   0  0  0  0  0  0  0  0  0  0  0  0
   44.8460   36.1080   43.6820 C   0  0  0  0  0  0  0  0  0  0  0  0
   44.8460   35.1190   44.6100 N   0  0  0  0  0  0  0  0  0  0  0  0
   45.7600   34.1150   44.5800 C   0  0  0  0  0  0  0  0  0  0  0  0
   46.7000   34.0800   43.6130 N   0  0  0  0  0  0  0  0  0  0  0  0
   45.7760   36.8920   41.9560 H   0  0  0  0  0  0  0  0  0  0  0  0
   44.1020   36.9090   43.7210 H   0  0  0  0  0  0  0  0  0  0  0  0
   46.0820   31.7700   45.1670 C   0  0  0  0  0  0  0  0  0  0  0  0
   45.7580   33.0470   45.5840 C   0  0  0  0  0  0  0  0  0  0  0  0
   45.4450   33.2810   46.9150 C   0  0  0  0  0  0  0  0  0  0  0  0
   45.4670   32.2220   47.7990 C   0  0  0  0  0  0  0  0  0  0  0  0
   45.2160   32.1350   49.1220 N   0  0  0  0  0  0  0  0  0  0  0  0
   45.3650   30.8770   49.5540 C   0  0  0  0  0  0  0  0  0  0  0  0
   45.7310   30.0930   48.4690 C   0  0  0  0  0  0  0  0  0  0  0  0
   45.7920   30.9370   47.3810 C   0  0  0  0  0  0  0  0  0  0  0  0
   46.0980   30.7210   46.0610 C   0  0  0  0  0  0  0  0  0  0  0  0
   46.3220   31.6040   44.1280 H   0  0  0  0  0  0  0  0  0  0  0  0
   45.1920   34.2960   47.2280 H   0  0  0  0  0  0  0  0  0  0  0  0
   44.9390   32.9290   49.7550 H   0  0  0  0  0  0  0  0  0  0  0  0
   45.2450   30.4480   50.5460 H   0  0  0  0  0  0  0  0  0  0  0  0
   45.9420   29.0420   48.3980 H   0  0  0  0  0  0  0  0  0  0  0  0
   46.3610   29.7550   45.6580 H   0  0  0  0  0  0  0  0  0  0  0  0
   47.7090   35.0510   41.6270 C   0  0  0  0  0  0  0  0  0  0  0  0
   48.8320   35.6320   41.6990 O   0  0  0  0  0  0  0  0  0  0  0  0
   47.4240   34.3420   40.3780 C   0  0  0  0  0  0  0  0  0  0  0  0
   48.1500   34.3170   39.2050 C   0  0  0  0  0  0  0  0  0  0  0  0
   49.0690   34.8660   39.1070 H   0  0  0  0  0  0  0  0  0  0  0  0
   47.5310   33.5200   38.2580 C   0  0  0  0  0  0  0  0  0  0  0  0
   47.8820   33.3260   37.2550 H   0  0  0  0  0  0  0  0  0  0  0  0
   46.4300   33.0780   38.8910 N   0  0  0  0  0  0  0  0  0  0  0  0
   45.7210   32.4410   38.4610 H   0  0  0  0  0  0  0  0  0  0  0  0
   46.3490   33.5450   40.1250 N   0  0  0  0  0  0  0  0  0  0  0  0
  1  2  2  0  0  0  0
  1  6  1  0  0  0  0
  2  3  1  0  0  0  0
  3  8  1  0  0  0  0
  3  4  2  0  0  0  0
  5  4  1  0  0  0  0
  5 10  1  0  0  0  0
  6  5  2  0  0  0  0
  7  2  1  0  0  0  0
  9 10  2  0  0  0  0
  9 17  1  0  0  0  0
 10 11  1  0  0  0  0
 11 19  1  0  0  0  0
 11 12  2  0  0  0  0
 12 13  1  0  0  0  0
 13 14  1  0  0  0  0
 13 20  1  0  0  0  0
 14 21  1  0  0  0  0
 15 14  2  0  0  0  0
 16 12  1  0  0  0  0
 16 15  1  0  0  0  0
 17 16  2  0  0  0  0
 18  9  1  0  0  0  0
 22 15  1  0  0  0  0
 23 17  1  0  0  0  0
 24 25  2  0  0  0  0
 24  1  1  0  0  0  0
 26 24  1  0  0  0  0
 27 26  1  0  0  0  0
 28 27  1  0  0  0  0
 29 31  1  0  0  0  0
 29 27  2  0  0  0  0
 30 29  1  0  0  0  0
 31 33  1  0  0  0  0
 32 31  1  0  0  0  0
 33 26  2  0  0  0  0
M  END
>  <minimizedAffinity>
-6.07399368

>  <minimizedRMSD>
0.742371559

$$$$
