REMARK  Name = 
REMARK  3 active torsions:
REMARK  status: ('A' for Active; 'I' for Inactive)
REMARK    1  A    between atoms: C_2  and  C_14
REMARK    2  A    between atoms: C_10  and  C_16
REMARK    3  A    between atoms: C_16  and  C_26
REMARK                            x       y       z     vdW  Elec       q    Type
REMARK                         _______ _______ _______ _____ _____    ______ ____
ROOT
ATOM      1  C   UNL     1      46.903  34.934  42.625  0.00  0.00    +0.000 A 
ATOM      2  C   UNL     1      45.973  35.968  42.553  0.00  0.00    +0.000 A 
ATOM      3  C   UNL     1      44.966  36.002  43.501  0.00  0.00    +0.000 A 
ATOM      4  N   UNL     1      44.924  35.037  44.453  0.00  0.00    +0.000 NA
ATOM      5  C   UNL     1      45.846  34.040  44.498  0.00  0.00    +0.000 A 
ATOM      6  N   UNL     1      46.836  33.989  43.583  0.00  0.00    +0.000 NA
ATOM      7  H   UNL     1      45.981  36.749  41.807  0.00  0.00    +0.000 HD
ATOM      8  H   UNL     1      44.216  36.797  43.480  0.00  0.00    +0.000 HD
ENDROOT
BRANCH   5  10
ATOM      9  C   UNL     1      46.039  31.695  45.138  0.00  0.00    +0.000 A 
ATOM     10  C   UNL     1      45.798  32.999  45.528  0.00  0.00    +0.000 A 
ATOM     11  C   UNL     1      45.522  33.282  46.857  0.00  0.00    +0.000 A 
ATOM     12  C   UNL     1      45.496  32.245  47.767  0.00  0.00    +0.000 A 
ATOM     13  N   UNL     1      45.263  32.204  49.095  0.00  0.00    +0.000 N 
ATOM     14  C   UNL     1      45.345  30.950  49.556  0.00  0.00    +0.000 A 
ATOM     15  C   UNL     1      45.646  30.121  48.485  0.00  0.00    +0.000 A 
ATOM     16  C   UNL     1      45.738  30.934  47.376  0.00  0.00    +0.000 A 
ATOM     17  C   UNL     1      46.009  30.669  46.057  0.00  0.00    +0.000 A 
ATOM     18  H   UNL     1      46.252  31.491  44.099  0.00  0.00    +0.000 HD
ATOM     19  H   UNL     1      45.334  34.318  47.149  0.00  0.00    +0.000 HD
ATOM     20  H   UNL     1      45.044  33.028  49.713  0.00  0.00    +0.000 HD
ATOM     21  H   UNL     1      45.217  30.553  50.560  0.00  0.00    +0.000 HD
ATOM     22  H   UNL     1      45.794  29.058  48.437  0.00  0.00    +0.000 HD
ATOM     23  H   UNL     1      46.208  29.679  45.674  0.00  0.00    +0.000 HD
ENDBRANCH   5  10
BRANCH   1  24
ATOM     24  C   UNL     1      47.942  34.917  41.629  0.00  0.00    +0.000 C 
ATOM     25  O   UNL     1      48.799  35.836  41.472  0.00  0.00    +0.000 OA
BRANCH  24  26
ATOM     26  C   UNL     1      48.042  33.774  40.719  0.00  0.00    +0.000 A 
ATOM     27  C   UNL     1      47.690  33.687  39.388  0.00  0.00    +0.000 A 
ATOM     28  H   UNL     1      47.275  34.529  38.864  0.00  0.00    +0.000 HD
ATOM     29  C   UNL     1      47.947  32.420  38.891  0.00  0.00    +0.000 A 
ATOM     30  H   UNL     1      47.767  32.078  37.883  0.00  0.00    +0.000 HD
ATOM     31  N   UNL     1      48.456  31.765  39.950  0.00  0.00    +0.000 N 
ATOM     32  H   UNL     1      48.765  30.767  39.929  0.00  0.00    +0.000 HD
ATOM     33  N   UNL     1      48.520  32.535  41.023  0.00  0.00    +0.000 NA
ENDBRANCH  24  26
ENDBRANCH   1  24
TORSDOF 3
