
 OpenBabel03252508283D

 38 41  0  0  1  0  0  0  0  0999 V2000
   41.1920   33.2520   39.5460 N   0  0  0  0  0  0  0  0  0  0  0  0
   41.4270   32.8310   40.9310 C   0  0  2  0  0  0  0  0  0  0  0  0
   40.2620   33.0910   41.8140 C   0  0  0  0  0  0  0  0  0  0  0  0
   39.0720   33.4640   41.0690 N   0  0  0  0  0  0  0  0  0  0  0  0
   39.2570   34.4960   40.1170 C   0  0  0  0  0  0  0  0  0  0  0  0
   40.6920   34.6390   39.6700 C   0  0  2  0  0  0  0  0  0  0  0  0
   40.4900   32.6540   39.0730 H   0  0  0  0  0  0  0  0  0  0  0  0
   41.6740   31.7460   40.9420 H   0  0  0  0  0  0  0  0  0  0  0  0
   39.9650   32.1480   42.3590 H   0  0  0  0  0  0  0  0  0  0  0  0
   40.3380   33.9450   42.5080 H   0  0  0  0  0  0  0  0  0  0  0  0
   38.7340   32.5980   40.5570 H   0  0  0  0  0  0  0  0  0  0  0  0
   38.9410   35.4790   40.5450 H   0  0  0  0  0  0  0  0  0  0  0  0
   38.5840   34.3190   39.2390 H   0  0  0  0  0  0  0  0  0  0  0  0
   41.2600   35.1110   40.4720 H   0  0  0  0  0  0  0  0  0  0  0  0
   40.8040   35.3760   38.4010 C   0  0  0  0  0  0  0  0  0  0  0  0
   41.6840   36.3610   38.0510 C   0  0  0  0  0  0  0  0  0  0  0  0
   42.4710   36.7830   38.6630 H   0  0  0  0  0  0  0  0  0  0  0  0
   41.4190   36.7620   36.7560 C   0  0  0  0  0  0  0  0  0  0  0  0
   41.9210   37.5260   36.1520 H   0  0  0  0  0  0  0  0  0  0  0  0
   40.3810   36.0150   36.3350 N   0  0  0  0  0  0  0  0  0  0  0  0
   39.8840   36.0200   35.4020 H   0  0  0  0  0  0  0  0  0  0  0  0
   40.0210   35.1930   37.3180 N   0  0  0  0  0  0  0  0  0  0  0  0
   44.6090   34.1350   42.0180 C   0  0  0  0  0  0  0  0  0  0  0  0
   43.7130   35.1780   42.2620 C   0  0  0  0  0  0  0  0  0  0  0  0
   42.4340   34.8000   41.8900 C   0  0  0  0  0  0  0  0  0  0  0  0
   42.5780   33.5590   41.4330 N   0  0  0  0  0  0  0  0  0  0  0  0
   43.8430   33.1710   41.5080 N   0  0  0  0  0  0  0  0  0  0  0  0
   44.1110   36.1160   42.6940 H   0  0  0  0  0  0  0  0  0  0  0  0
   41.7350   35.6070   42.0860 H   0  0  0  0  0  0  0  0  0  0  0  0
   48.2780   34.9440   42.0610 C   0  0  0  0  0  0  0  0  0  0  0  0
   46.9090   35.0250   41.6630 C   0  0  0  0  0  0  0  0  0  0  0  0
   46.0430   34.1740   42.3040 C   0  0  0  0  0  0  0  0  0  0  0  0
   46.5080   33.3180   43.2610 N   0  0  0  0  0  0  0  0  0  0  0  0
   47.8160   33.2740   43.6070 C   0  0  0  0  0  0  0  0  0  0  0  0
   48.6690   34.0860   43.0010 N   0  0  0  0  0  0  0  0  0  0  0  0
   48.9640   35.6200   41.5500 H   0  0  0  0  0  0  0  0  0  0  0  0
   46.5410   35.7020   40.9080 H   0  0  0  0  0  0  0  0  0  0  0  0
   48.0730   32.5590   44.3760 H   0  0  0  0  0  0  0  0  0  0  0  0
  1  6  1  0  0  0  0
  1  2  1  0  0  0  0
  2  8  1  1  0  0  0
  2 26  1  0  0  0  0
  2  3  1  0  0  0  0
  3  9  1  0  0  0  0
  3 10  1  0  0  0  0
  4  3  1  0  0  0  0
  5 12  1  0  0  0  0
  5  4  1  0  0  0  0
  6  5  1  0  0  0  0
  6 14  1  1  0  0  0
  7  1  1  0  0  0  0
 11  4  1  0  0  0  0
 13  5  1  0  0  0  0
 15  6  1  0  0  0  0
 16 15  1  0  0  0  0
 16 17  1  0  0  0  0
 18 16  2  0  0  0  0
 19 18  1  0  0  0  0
 20 18  1  0  0  0  0
 20 22  1  0  0  0  0
 21 20  1  0  0  0  0
 22 15  2  0  0  0  0
 23 24  1  0  0  0  0
 23 32  1  0  0  0  0
 24 28  1  0  0  0  0
 25 29  1  0  0  0  0
 25 24  2  0  0  0  0
 26 27  1  0  0  0  0
 26 25  1  0  0  0  0
 27 23  2  0  0  0  0
 30 35  1  0  0  0  0
 31 30  2  0  0  0  0
 31 32  1  0  0  0  0
 32 33  2  0  0  0  0
 33 34  1  0  0  0  0
 34 38  1  0  0  0  0
 35 34  2  0  0  0  0
 36 30  1  0  0  0  0
 37 31  1  0  0  0  0
M  END
>  <minimizedAffinity>
-4.78150654

>  <minimizedRMSD>
1.94316351

$$$$
