
 OpenBabel03252505053D

 42 45  0  0  1  0  0  0  0  0999 V2000
   44.5770   35.5870   44.6200 C   0  0  0  0  0  0  0  0  0  0  0  0
   45.2340   35.5980   43.3610 C   0  0  0  0  0  0  0  0  0  0  0  0
   46.3170   34.6820   43.1830 C   0  0  0  0  0  0  0  0  0  0  0  0
   46.6630   33.8600   44.2020 N   0  0  0  0  0  0  0  0  0  0  0  0
   46.0050   33.8930   45.3740 C   0  0  0  0  0  0  0  0  0  0  0  0
   44.9680   34.7460   45.5930 N   0  0  0  0  0  0  0  0  0  0  0  0
   43.7630   36.2810   44.7420 H   0  0  0  0  0  0  0  0  0  0  0  0
   44.9250   36.2740   42.5710 H   0  0  0  0  0  0  0  0  0  0  0  0
   46.4300   32.9720   46.4560 C   0  0  2  0  0  0  0  0  0  0  0  0
   46.9670   31.7460   45.7710 C   0  0  0  0  0  0  0  0  0  0  0  0
   46.1010   30.5540   45.7910 C   0  0  0  0  0  0  0  0  0  0  0  0
   45.8080   30.2930   47.2680 C   0  0  0  0  0  0  0  0  0  0  0  0
   45.0160   31.3570   47.8770 C   0  0  0  0  0  0  0  0  0  0  0  0
   45.3780   32.7320   47.4190 C   0  0  0  0  0  0  0  0  0  0  0  0
   47.2770   33.4950   46.9670 H   0  0  0  0  0  0  0  0  0  0  0  0
   47.2440   31.9430   44.7030 H   0  0  0  0  0  0  0  0  0  0  0  0
   47.9280   31.4700   46.2510 H   0  0  0  0  0  0  0  0  0  0  0  0
   45.2080   30.5700   45.1660 H   0  0  0  0  0  0  0  0  0  0  0  0
   46.7110   29.6840   45.4710 H   0  0  0  0  0  0  0  0  0  0  0  0
   46.7650   30.1450   47.7780 H   0  0  0  0  0  0  0  0  0  0  0  0
   45.1910   29.3910   47.2790 H   0  0  0  0  0  0  0  0  0  0  0  0
   44.2270   31.3460   48.5830 H   0  0  0  0  0  0  0  0  0  0  0  0
   44.6810   33.8750   47.9310 N   0  0  0  0  0  0  0  0  0  0  0  0
   45.0310   34.5370   48.6260 H   0  0  0  0  0  0  0  0  0  0  0  0
   43.7080   34.0420   47.5450 H   0  0  0  0  0  0  0  0  0  0  0  0
   47.0060   34.6700   41.9000 C   0  0  0  0  0  0  0  0  0  0  0  0
   48.1590   35.3770   41.7780 C   0  0  0  0  0  0  0  0  0  0  0  0
   48.7820   35.3300   40.5220 C   0  0  0  0  0  0  0  0  0  0  0  0
   48.1700   34.5800   39.5430 C   0  0  0  0  0  0  0  0  0  0  0  0
   47.0150   33.8730   39.6700 C   0  0  0  0  0  0  0  0  0  0  0  0
   46.4440   33.9480   40.9120 N   0  0  0  0  0  0  0  0  0  0  0  0
   48.6230   35.9550   42.5470 H   0  0  0  0  0  0  0  0  0  0  0  0
   49.7010   35.8660   40.3490 H   0  0  0  0  0  0  0  0  0  0  0  0
   48.6880   34.5760   38.5940 H   0  0  0  0  0  0  0  0  0  0  0  0
   46.4120   33.1030   38.6220 C   0  0  0  0  0  0  0  0  0  0  0  0
   45.1390   32.6050   38.5850 C   0  0  0  0  0  0  0  0  0  0  0  0
   44.3950   32.7320   39.3730 H   0  0  0  0  0  0  0  0  0  0  0  0
   45.0310   31.9310   37.3650 C   0  0  0  0  0  0  0  0  0  0  0  0
   44.0900   31.4510   37.1210 H   0  0  0  0  0  0  0  0  0  0  0  0
   46.2120   32.0410   36.7210 N   0  0  0  0  0  0  0  0  0  0  0  0
   46.2430   31.5710   35.7890 H   0  0  0  0  0  0  0  0  0  0  0  0
   47.0250   32.7450   37.4850 N   0  0  0  0  0  0  0  0  0  0  0  0
  1  7  1  0  0  0  0
  1  6  1  0  0  0  0
  2  1  2  0  0  0  0
  3  2  1  0  0  0  0
  3  4  2  0  0  0  0
  4  5  1  0  0  0  0
  5  6  2  0  0  0  0
  5  9  1  0  0  0  0
  8  2  1  0  0  0  0
  9 15  1  1  0  0  0
  9 14  1  0  0  0  0
 10 11  1  0  0  0  0
 10 17  1  0  0  0  0
 10  9  1  0  0  0  0
 11 12  1  0  0  0  0
 12 21  1  0  0  0  0
 12 20  1  0  0  0  0
 12 13  1  0  0  0  0
 13 22  1  0  0  0  0
 14 13  2  0  0  0  0
 14 23  1  0  0  0  0
 16 10  1  0  0  0  0
 18 11  1  0  0  0  0
 19 11  1  0  0  0  0
 23 24  1  0  0  0  0
 25 23  1  0  0  0  0
 26  3  1  0  0  0  0
 27 26  1  0  0  0  0
 27 32  1  0  0  0  0
 28 27  2  0  0  0  0
 29 30  2  0  0  0  0
 29 28  1  0  0  0  0
 30 31  1  0  0  0  0
 31 26  2  0  0  0  0
 33 28  1  0  0  0  0
 34 29  1  0  0  0  0
 35 30  1  0  0  0  0
 36 35  1  0  0  0  0
 36 37  1  0  0  0  0
 38 36  2  0  0  0  0
 39 38  1  0  0  0  0
 40 38  1  0  0  0  0
 40 42  1  0  0  0  0
 41 40  1  0  0  0  0
 42 35  2  0  0  0  0
M  END
>  <minimizedAffinity>
-7.17274046

>  <minimizedRMSD>
0.203802973

$$$$
