
 OpenBabel03242515413D

 35 38  0  0  0  0  0  0  0  0999 V2000
   36.9840   28.8400   41.9680 C   0  0  0  0  0  0  0  0  0  0  0  0
   37.7360   29.9830   41.8430 C   0  0  0  0  0  0  0  0  0  0  0  0
   37.2870   30.9350   40.9210 C   0  0  0  0  0  0  0  0  0  0  0  0
   36.1630   30.6850   40.2170 N   0  0  0  0  0  0  0  0  0  0  0  0
   35.4570   29.5530   40.3700 C   0  0  0  0  0  0  0  0  0  0  0  0
   35.8790   28.6460   41.2450 N   0  0  0  0  0  0  0  0  0  0  0  0
   38.6310   30.1920   42.3960 H   0  0  0  0  0  0  0  0  0  0  0  0
   38.0340   32.1730   40.7330 C   0  0  0  0  0  0  0  0  0  0  0  0
   37.6600   33.2280   39.9560 C   0  0  0  0  0  0  0  0  0  0  0  0
   36.7820   33.3710   39.3440 H   0  0  0  0  0  0  0  0  0  0  0  0
   38.6690   34.1600   40.0870 C   0  0  0  0  0  0  0  0  0  0  0  0
   38.8120   35.1330   39.6690 H   0  0  0  0  0  0  0  0  0  0  0  0
   39.5950   33.6520   40.9160 N   0  0  0  0  0  0  0  0  0  0  0  0
   40.5190   33.9950   41.3040 H   0  0  0  0  0  0  0  0  0  0  0  0
   39.2150   32.4520   41.3090 N   0  0  0  0  0  0  0  0  0  0  0  0
   37.5940   27.6280   43.1720 S   0  0  0  0  0  0  0  0  0  0  0  0
   39.1670   25.5480   42.5370 C   0  0  0  0  0  0  0  0  0  0  0  0
   37.8810   26.0520   42.3790 C   0  0  0  0  0  0  0  0  0  0  0  0
   36.9300   25.3640   41.6620 C   0  0  0  0  0  0  0  0  0  0  0  0
   37.2060   24.1500   41.0710 C   0  0  0  0  0  0  0  0  0  0  0  0
   38.5050   23.6340   41.2260 C   0  0  0  0  0  0  0  0  0  0  0  0
   39.4850   24.3110   41.9460 C   0  0  0  0  0  0  0  0  0  0  0  0
   38.5420   22.4050   40.5440 O   0  0  0  0  0  0  0  0  0  0  0  0
   37.4170   22.3860   39.7070 C   0  0  0  0  0  0  0  0  0  0  0  0
   36.4710   23.2470   40.3080 O   0  0  0  0  0  0  0  0  0  0  0  0
   39.9730   26.0230   43.0810 H   0  0  0  0  0  0  0  0  0  0  0  0
   35.9630   25.8000   41.5770 H   0  0  0  0  0  0  0  0  0  0  0  0
   40.4800   23.9040   42.0570 H   0  0  0  0  0  0  0  0  0  0  0  0
   36.9950   21.3580   39.7420 H   0  0  0  0  0  0  0  0  0  0  0  0
   37.6470   22.6520   38.6580 H   0  0  0  0  0  0  0  0  0  0  0  0
   34.3090   29.2400   39.6880 O   0  0  0  0  0  0  0  0  0  0  0  0
   34.3950   28.7950   38.3620 C   0  0  0  0  0  0  0  0  0  0  0  0
   35.1310   29.6200   37.5550 F   0  0  0  0  0  0  0  0  0  0  0  0
   34.9480   27.5020   38.4450 F   0  0  0  0  0  0  0  0  0  0  0  0
   33.1010   28.7350   37.8650 F   0  0  0  0  0  0  0  0  0  0  0  0
  1 16  1  0  0  0  0
  2  1  1  0  0  0  0
  2  7  1  0  0  0  0
  3  2  2  0  0  0  0
  4  5  2  0  0  0  0
  4  3  1  0  0  0  0
  5  6  1  0  0  0  0
  6  1  2  0  0  0  0
  8  3  1  0  0  0  0
  8 15  2  0  0  0  0
  9 11  2  0  0  0  0
  9  8  1  0  0  0  0
 10  9  1  0  0  0  0
 11 13  1  0  0  0  0
 12 11  1  0  0  0  0
 13 14  1  0  0  0  0
 13 15  1  0  0  0  0
 17 26  1  0  0  0  0
 18 17  1  0  0  0  0
 18 16  1  0  0  0  0
 19 18  2  0  0  0  0
 20 21  2  0  0  0  0
 20 19  1  0  0  0  0
 21 22  1  0  0  0  0
 22 28  1  0  0  0  0
 22 17  2  0  0  0  0
 23 21  1  0  0  0  0
 24 29  1  0  0  0  0
 24 25  1  0  0  0  0
 24 23  1  0  0  0  0
 25 20  1  0  0  0  0
 27 19  1  0  0  0  0
 30 24  1  0  0  0  0
 31  5  1  0  0  0  0
 32 34  1  0  0  0  0
 32 31  1  0  0  0  0
 33 32  1  0  0  0  0
 35 32  1  0  0  0  0
M  END
>  <minimizedAffinity>
-6.24722576

$$$$

 OpenBabel03242515413D

 35 38  0  0  0  0  0  0  0  0999 V2000
   36.5080   28.7780   41.8040 C   0  0  0  0  0  0  0  0  0  0  0  0
   37.3320   29.8770   41.8010 C   0  0  0  0  0  0  0  0  0  0  0  0
   37.1570   30.7930   40.7580 C   0  0  0  0  0  0  0  0  0  0  0  0
   36.2080   30.5540   39.8290 N   0  0  0  0  0  0  0  0  0  0  0  0
   35.4230   29.4650   39.8690 C   0  0  0  0  0  0  0  0  0  0  0  0
   35.5850   28.5920   40.8580 N   0  0  0  0  0  0  0  0  0  0  0  0
   38.0890   30.0770   42.5340 H   0  0  0  0  0  0  0  0  0  0  0  0
   37.9960   31.9840   40.6880 C   0  0  0  0  0  0  0  0  0  0  0  0
   37.7400   33.1070   39.9610 C   0  0  0  0  0  0  0  0  0  0  0  0
   36.9100   33.3480   39.3140 H   0  0  0  0  0  0  0  0  0  0  0  0
   38.8010   33.9550   40.2040 C   0  0  0  0  0  0  0  0  0  0  0  0
   39.0340   34.9390   39.8560 H   0  0  0  0  0  0  0  0  0  0  0  0
   39.6410   33.3340   41.0470 N   0  0  0  0  0  0  0  0  0  0  0  0
   40.5630   33.5870   41.5040 H   0  0  0  0  0  0  0  0  0  0  0  0
   39.1590   32.1430   41.3430 N   0  0  0  0  0  0  0  0  0  0  0  0
   36.7610   27.6110   43.1690 S   0  0  0  0  0  0  0  0  0  0  0  0
   38.2960   25.5650   42.3570 C   0  0  0  0  0  0  0  0  0  0  0  0
   38.3420   26.7940   43.0060 C   0  0  0  0  0  0  0  0  0  0  0  0
   39.5290   27.3080   43.4730 C   0  0  0  0  0  0  0  0  0  0  0  0
   40.7220   26.6340   43.3200 C   0  0  0  0  0  0  0  0  0  0  0  0
   40.6830   25.3900   42.6640 C   0  0  0  0  0  0  0  0  0  0  0  0
   39.4950   24.8480   42.1830 C   0  0  0  0  0  0  0  0  0  0  0  0
   42.0010   24.9040   42.6300 O   0  0  0  0  0  0  0  0  0  0  0  0
   42.7240   25.6620   43.5630 C   0  0  0  0  0  0  0  0  0  0  0  0
   42.0420   26.8940   43.6750 O   0  0  0  0  0  0  0  0  0  0  0  0
   37.4090   25.0880   41.9620 H   0  0  0  0  0  0  0  0  0  0  0  0
   39.5010   28.2540   43.9610 H   0  0  0  0  0  0  0  0  0  0  0  0
   39.4780   23.8920   41.6820 H   0  0  0  0  0  0  0  0  0  0  0  0
   43.7190   25.8770   43.1180 H   0  0  0  0  0  0  0  0  0  0  0  0
   42.8610   25.1480   44.5340 H   0  0  0  0  0  0  0  0  0  0  0  0
   34.4420   29.1650   38.9580 O   0  0  0  0  0  0  0  0  0  0  0  0
   34.7880   28.5330   37.7560 C   0  0  0  0  0  0  0  0  0  0  0  0
   36.1260   28.2640   37.6450 F   0  0  0  0  0  0  0  0  0  0  0  0
   34.0060   27.3620   37.7180 F   0  0  0  0  0  0  0  0  0  0  0  0
   34.4260   29.3890   36.7250 F   0  0  0  0  0  0  0  0  0  0  0  0
  1 16  1  0  0  0  0
  2  1  1  0  0  0  0
  2  7  1  0  0  0  0
  3  2  2  0  0  0  0
  4  5  2  0  0  0  0
  4  3  1  0  0  0  0
  5  6  1  0  0  0  0
  6  1  2  0  0  0  0
  8  3  1  0  0  0  0
  8 15  2  0  0  0  0
  9 11  2  0  0  0  0
  9  8  1  0  0  0  0
 10  9  1  0  0  0  0
 11 13  1  0  0  0  0
 12 11  1  0  0  0  0
 13 15  1  0  0  0  0
 13 14  1  0  0  0  0
 17 18  1  0  0  0  0
 18 16  1  0  0  0  0
 18 19  2  0  0  0  0
 19 27  1  0  0  0  0
 20 19  1  0  0  0  0
 20 25  1  0  0  0  0
 21 20  2  0  0  0  0
 22 17  2  0  0  0  0
 22 21  1  0  0  0  0
 23 21  1  0  0  0  0
 23 24  1  0  0  0  0
 24 25  1  0  0  0  0
 24 30  1  0  0  0  0
 26 17  1  0  0  0  0
 28 22  1  0  0  0  0
 29 24  1  0  0  0  0
 31  5  1  0  0  0  0
 32 31  1  0  0  0  0
 33 32  1  0  0  0  0
 34 32  1  0  0  0  0
 35 32  1  0  0  0  0
M  END
>  <minimizedAffinity>
-5.92117357

$$$$

 OpenBabel03242515413D

 35 38  0  0  0  0  0  0  0  0999 V2000
   37.0650   29.1430   41.7690 C   0  0  0  0  0  0  0  0  0  0  0  0
   36.1450   28.6970   40.8530 C   0  0  0  0  0  0  0  0  0  0  0  0
   35.7630   29.5980   39.8530 C   0  0  0  0  0  0  0  0  0  0  0  0
   36.3070   30.8330   39.8420 N   0  0  0  0  0  0  0  0  0  0  0  0
   37.2040   31.2300   40.7580 C   0  0  0  0  0  0  0  0  0  0  0  0
   37.5710   30.3770   41.7100 N   0  0  0  0  0  0  0  0  0  0  0  0
   35.7060   27.7180   40.8520 H   0  0  0  0  0  0  0  0  0  0  0  0
   34.7890   29.1950   38.8450 C   0  0  0  0  0  0  0  0  0  0  0  0
   35.0690   28.7390   37.5920 C   0  0  0  0  0  0  0  0  0  0  0  0
   36.0160   28.5860   37.0980 H   0  0  0  0  0  0  0  0  0  0  0  0
   33.8440   28.4850   37.0080 C   0  0  0  0  0  0  0  0  0  0  0  0
   33.5670   28.1190   36.0430 H   0  0  0  0  0  0  0  0  0  0  0  0
   32.8900   28.7880   37.9020 N   0  0  0  0  0  0  0  0  0  0  0  0
   31.8310   28.7560   37.9040 H   0  0  0  0  0  0  0  0  0  0  0  0
   33.4560   29.2170   39.0140 N   0  0  0  0  0  0  0  0  0  0  0  0
   37.5380   27.9500   43.0510 S   0  0  0  0  0  0  0  0  0  0  0  0
   39.2060   25.9620   42.3660 C   0  0  0  0  0  0  0  0  0  0  0  0
   37.8730   26.3520   42.3230 C   0  0  0  0  0  0  0  0  0  0  0  0
   36.9130   25.5460   41.7560 C   0  0  0  0  0  0  0  0  0  0  0  0
   37.2270   24.3210   41.2090 C   0  0  0  0  0  0  0  0  0  0  0  0
   38.5750   23.9200   41.2480 C   0  0  0  0  0  0  0  0  0  0  0  0
   39.5640   24.7170   41.8150 C   0  0  0  0  0  0  0  0  0  0  0  0
   38.6430   22.6550   40.6380 O   0  0  0  0  0  0  0  0  0  0  0  0
   37.4420   22.4920   39.9340 C   0  0  0  0  0  0  0  0  0  0  0  0
   36.4950   23.3150   40.5850 O   0  0  0  0  0  0  0  0  0  0  0  0
   40.0220   26.5330   42.7890 H   0  0  0  0  0  0  0  0  0  0  0  0
   35.9090   25.8990   41.7540 H   0  0  0  0  0  0  0  0  0  0  0  0
   40.5960   24.3980   41.8390 H   0  0  0  0  0  0  0  0  0  0  0  0
   37.1140   21.4400   40.0740 H   0  0  0  0  0  0  0  0  0  0  0  0
   37.5360   22.7060   38.8520 H   0  0  0  0  0  0  0  0  0  0  0  0
   37.7940   32.4670   40.8030 O   0  0  0  0  0  0  0  0  0  0  0  0
   38.0950   33.1300   39.6050 C   0  0  0  0  0  0  0  0  0  0  0  0
   38.5710   32.3010   38.6260 F   0  0  0  0  0  0  0  0  0  0  0  0
   36.8960   33.7650   39.2260 F   0  0  0  0  0  0  0  0  0  0  0  0
   39.0710   34.0740   39.8930 F   0  0  0  0  0  0  0  0  0  0  0  0
  1 16  1  0  0  0  0
  2  1  2  0  0  0  0
  3  2  1  0  0  0  0
  4  3  2  0  0  0  0
  4  5  1  0  0  0  0
  5 31  1  0  0  0  0
  5  6  2  0  0  0  0
  6  1  1  0  0  0  0
  7  2  1  0  0  0  0
  8 15  2  0  0  0  0
  8  3  1  0  0  0  0
  9  8  1  0  0  0  0
 10  9  1  0  0  0  0
 11  9  2  0  0  0  0
 11 13  1  0  0  0  0
 12 11  1  0  0  0  0
 13 14  1  0  0  0  0
 13 15  1  0  0  0  0
 17 26  1  0  0  0  0
 18 17  1  0  0  0  0
 18 16  1  0  0  0  0
 19 18  2  0  0  0  0
 20 21  2  0  0  0  0
 20 19  1  0  0  0  0
 21 22  1  0  0  0  0
 22 28  1  0  0  0  0
 22 17  2  0  0  0  0
 23 21  1  0  0  0  0
 24 29  1  0  0  0  0
 24 25  1  0  0  0  0
 24 23  1  0  0  0  0
 25 20  1  0  0  0  0
 27 19  1  0  0  0  0
 30 24  1  0  0  0  0
 32 35  1  0  0  0  0
 32 31  1  0  0  0  0
 33 32  1  0  0  0  0
 34 32  1  0  0  0  0
M  END
>  <minimizedAffinity>
-5.78682566

$$$$

 OpenBabel03242515413D

 35 38  0  0  0  0  0  0  0  0999 V2000
   34.8490   28.7990   38.0060 C   0  0  0  0  0  0  0  0  0  0  0  0
   35.8380   29.5700   37.4480 C   0  0  0  0  0  0  0  0  0  0  0  0
   36.8080   30.0790   38.3180 C   0  0  0  0  0  0  0  0  0  0  0  0
   36.7230   29.7920   39.6340 N   0  0  0  0  0  0  0  0  0  0  0  0
   35.7370   29.0320   40.1400 C   0  0  0  0  0  0  0  0  0  0  0  0
   34.8130   28.5460   39.3160 N   0  0  0  0  0  0  0  0  0  0  0  0
   35.9170   29.8060   36.4040 H   0  0  0  0  0  0  0  0  0  0  0  0
   37.8900   30.9070   37.7980 C   0  0  0  0  0  0  0  0  0  0  0  0
   39.1400   31.0250   38.3260 C   0  0  0  0  0  0  0  0  0  0  0  0
   39.5790   30.5590   39.1950 H   0  0  0  0  0  0  0  0  0  0  0  0
   39.8080   31.9090   37.5030 C   0  0  0  0  0  0  0  0  0  0  0  0
   40.8020   32.3010   37.5220 H   0  0  0  0  0  0  0  0  0  0  0  0
   38.9630   32.2870   36.5310 N   0  0  0  0  0  0  0  0  0  0  0  0
   39.0290   32.9340   35.6950 H   0  0  0  0  0  0  0  0  0  0  0  0
   37.8030   31.6840   36.7040 N   0  0  0  0  0  0  0  0  0  0  0  0
   33.6090   28.1550   36.8500 S   0  0  0  0  0  0  0  0  0  0  0  0
   31.5690   29.7700   37.5100 C   0  0  0  0  0  0  0  0  0  0  0  0
   32.4070   29.4190   36.4580 C   0  0  0  0  0  0  0  0  0  0  0  0
   32.2900   30.0170   35.2250 C   0  0  0  0  0  0  0  0  0  0  0  0
   31.3440   30.9880   34.9770 C   0  0  0  0  0  0  0  0  0  0  0  0
   30.4920   31.3490   36.0380 C   0  0  0  0  0  0  0  0  0  0  0  0
   30.5900   30.7580   37.2940 C   0  0  0  0  0  0  0  0  0  0  0  0
   29.6270   32.3420   35.5480 O   0  0  0  0  0  0  0  0  0  0  0  0
   29.7230   32.2930   34.1500 C   0  0  0  0  0  0  0  0  0  0  0  0
   30.9970   31.7510   33.8660 O   0  0  0  0  0  0  0  0  0  0  0  0
   31.5910   29.3500   38.5080 H   0  0  0  0  0  0  0  0  0  0  0  0
   32.9610   29.7070   34.4590 H   0  0  0  0  0  0  0  0  0  0  0  0
   29.9300   31.0430   38.1000 H   0  0  0  0  0  0  0  0  0  0  0  0
   29.7220   33.3410   33.7800 H   0  0  0  0  0  0  0  0  0  0  0  0
   28.8940   31.7360   33.6730 H   0  0  0  0  0  0  0  0  0  0  0  0
   35.5940   28.7030   41.4630 O   0  0  0  0  0  0  0  0  0  0  0  0
   36.6010   27.9680   42.1040 C   0  0  0  0  0  0  0  0  0  0  0  0
   37.7140   28.7070   42.3990 F   0  0  0  0  0  0  0  0  0  0  0  0
   35.9910   27.4410   43.2590 F   0  0  0  0  0  0  0  0  0  0  0  0
   36.9700   26.9440   41.2430 F   0  0  0  0  0  0  0  0  0  0  0  0
  1  6  1  0  0  0  0
  2  1  2  0  0  0  0
  2  3  1  0  0  0  0
  3  4  2  0  0  0  0
  4  5  1  0  0  0  0
  5 31  1  0  0  0  0
  6  5  2  0  0  0  0
  7  2  1  0  0  0  0
  8  3  1  0  0  0  0
  8  9  1  0  0  0  0
  9 10  1  0  0  0  0
 11 12  1  0  0  0  0
 11  9  2  0  0  0  0
 13 15  1  0  0  0  0
 13 11  1  0  0  0  0
 14 13  1  0  0  0  0
 15  8  2  0  0  0  0
 16  1  1  0  0  0  0
 17 26  1  0  0  0  0
 18 16  1  0  0  0  0
 18 17  2  0  0  0  0
 19 18  1  0  0  0  0
 20 19  2  0  0  0  0
 20 21  1  0  0  0  0
 21 22  2  0  0  0  0
 22 17  1  0  0  0  0
 22 28  1  0  0  0  0
 23 21  1  0  0  0  0
 24 23  1  0  0  0  0
 25 24  1  0  0  0  0
 25 20  1  0  0  0  0
 27 19  1  0  0  0  0
 29 24  1  0  0  0  0
 30 24  1  0  0  0  0
 31 32  1  0  0  0  0
 32 33  1  0  0  0  0
 32 34  1  0  0  0  0
 35 32  1  0  0  0  0
M  END
>  <minimizedAffinity>
-5.78459692

$$$$

 OpenBabel03242515413D

 35 38  0  0  0  0  0  0  0  0999 V2000
   38.0580   29.1920   42.5080 C   0  0  0  0  0  0  0  0  0  0  0  0
   39.2870   29.7670   42.7260 C   0  0  0  0  0  0  0  0  0  0  0  0
   39.6290   30.8500   41.9090 C   0  0  0  0  0  0  0  0  0  0  0  0
   38.7530   31.2650   40.9700 N   0  0  0  0  0  0  0  0  0  0  0  0
   37.5610   30.6730   40.7900 C   0  0  0  0  0  0  0  0  0  0  0  0
   37.2310   29.6440   41.5640 N   0  0  0  0  0  0  0  0  0  0  0  0
   39.9910   29.4460   43.4680 H   0  0  0  0  0  0  0  0  0  0  0  0
   40.9180   31.5110   42.0810 C   0  0  0  0  0  0  0  0  0  0  0  0
   41.5400   32.3110   41.1700 C   0  0  0  0  0  0  0  0  0  0  0  0
   41.2340   32.6130   40.1800 H   0  0  0  0  0  0  0  0  0  0  0  0
   42.7200   32.7040   41.7670 C   0  0  0  0  0  0  0  0  0  0  0  0
   43.5230   33.3280   41.4370 H   0  0  0  0  0  0  0  0  0  0  0  0
   42.7720   32.1440   42.9860 N   0  0  0  0  0  0  0  0  0  0  0  0
   43.4670   32.1590   43.7860 H   0  0  0  0  0  0  0  0  0  0  0  0
   41.6850   31.4230   43.1800 N   0  0  0  0  0  0  0  0  0  0  0  0
   37.6470   27.7910   43.5840 S   0  0  0  0  0  0  0  0  0  0  0  0
   39.1760   25.7050   42.8660 C   0  0  0  0  0  0  0  0  0  0  0  0
   37.9030   26.2460   42.7220 C   0  0  0  0  0  0  0  0  0  0  0  0
   36.9420   25.6150   41.9670 C   0  0  0  0  0  0  0  0  0  0  0  0
   37.1940   24.4230   41.3230 C   0  0  0  0  0  0  0  0  0  0  0  0
   38.4800   23.8690   41.4640 C   0  0  0  0  0  0  0  0  0  0  0  0
   39.4700   24.4880   42.2220 C   0  0  0  0  0  0  0  0  0  0  0  0
   38.4940   22.6730   40.7270 O   0  0  0  0  0  0  0  0  0  0  0  0
   37.3760   22.7180   39.8820 C   0  0  0  0  0  0  0  0  0  0  0  0
   36.4450   23.5740   40.5140 O   0  0  0  0  0  0  0  0  0  0  0  0
   39.9880   26.1350   43.4380 H   0  0  0  0  0  0  0  0  0  0  0  0
   35.9860   26.0780   41.8950 H   0  0  0  0  0  0  0  0  0  0  0  0
   40.4530   24.0540   42.3220 H   0  0  0  0  0  0  0  0  0  0  0  0
   36.9290   21.7010   39.8660 H   0  0  0  0  0  0  0  0  0  0  0  0
   37.6200   23.0260   38.8470 H   0  0  0  0  0  0  0  0  0  0  0  0
   36.6280   31.0450   39.8560 O   0  0  0  0  0  0  0  0  0  0  0  0
   36.8130   30.6840   38.5150 C   0  0  0  0  0  0  0  0  0  0  0  0
   37.1360   31.7380   37.7040 F   0  0  0  0  0  0  0  0  0  0  0  0
   37.8230   29.7020   38.5360 F   0  0  0  0  0  0  0  0  0  0  0  0
   35.6180   30.1370   38.0690 F   0  0  0  0  0  0  0  0  0  0  0  0
  1  2  1  0  0  0  0
  1 16  1  0  0  0  0
  2  7  1  0  0  0  0
  3  8  1  0  0  0  0
  3  2  2  0  0  0  0
  4  3  1  0  0  0  0
  5  4  2  0  0  0  0
  5  6  1  0  0  0  0
  6  1  2  0  0  0  0
  8 15  2  0  0  0  0
  9 11  2  0  0  0  0
  9  8  1  0  0  0  0
 10  9  1  0  0  0  0
 11 13  1  0  0  0  0
 12 11  1  0  0  0  0
 13 15  1  0  0  0  0
 13 14  1  0  0  0  0
 17 26  1  0  0  0  0
 18 17  1  0  0  0  0
 18 16  1  0  0  0  0
 19 18  2  0  0  0  0
 20 21  2  0  0  0  0
 20 19  1  0  0  0  0
 21 22  1  0  0  0  0
 22 28  1  0  0  0  0
 22 17  2  0  0  0  0
 23 21  1  0  0  0  0
 24 25  1  0  0  0  0
 24 23  1  0  0  0  0
 25 20  1  0  0  0  0
 27 19  1  0  0  0  0
 29 24  1  0  0  0  0
 30 24  1  0  0  0  0
 31  5  1  0  0  0  0
 32 34  1  0  0  0  0
 32 31  1  0  0  0  0
 33 32  1  0  0  0  0
 35 32  1  0  0  0  0
M  END
>  <minimizedAffinity>
-5.75437355

$$$$

 OpenBabel03242515413D

 35 38  0  0  0  0  0  0  0  0999 V2000
   36.8810   28.7760   38.4100 C   0  0  0  0  0  0  0  0  0  0  0  0
   37.1010   30.1190   38.5920 C   0  0  0  0  0  0  0  0  0  0  0  0
   37.6070   30.5110   39.8360 C   0  0  0  0  0  0  0  0  0  0  0  0
   37.8450   29.5700   40.7730 N   0  0  0  0  0  0  0  0  0  0  0  0
   37.6140   28.2650   40.5540 C   0  0  0  0  0  0  0  0  0  0  0  0
   37.1350   27.8870   39.3730 N   0  0  0  0  0  0  0  0  0  0  0  0
   36.9150   30.8760   37.8550 H   0  0  0  0  0  0  0  0  0  0  0  0
   37.8650   31.9220   40.1040 C   0  0  0  0  0  0  0  0  0  0  0  0
   37.3700   32.9780   39.4010 C   0  0  0  0  0  0  0  0  0  0  0  0
   36.7160   33.0030   38.5420 H   0  0  0  0  0  0  0  0  0  0  0  0
   37.8810   34.1040   40.0150 C   0  0  0  0  0  0  0  0  0  0  0  0
   37.7690   35.1480   39.8160 H   0  0  0  0  0  0  0  0  0  0  0  0
   38.6480   33.7020   41.0410 N   0  0  0  0  0  0  0  0  0  0  0  0
   39.2280   34.1950   41.7770 H   0  0  0  0  0  0  0  0  0  0  0  0
   38.6410   32.3840   41.0980 N   0  0  0  0  0  0  0  0  0  0  0  0
   36.2260   28.3010   36.7860 S   0  0  0  0  0  0  0  0  0  0  0  0
   34.1550   29.1360   35.2980 C   0  0  0  0  0  0  0  0  0  0  0  0
   34.5380   28.8620   36.6060 C   0  0  0  0  0  0  0  0  0  0  0  0
   33.6620   29.0210   37.6540 C   0  0  0  0  0  0  0  0  0  0  0  0
   32.3690   29.4570   37.4570 C   0  0  0  0  0  0  0  0  0  0  0  0
   31.9740   29.7370   36.1360 C   0  0  0  0  0  0  0  0  0  0  0  0
   32.8410   29.5830   35.0590 C   0  0  0  0  0  0  0  0  0  0  0  0
   30.6340   30.1580   36.1920 O   0  0  0  0  0  0  0  0  0  0  0  0
   30.3750   30.4720   37.5330 C   0  0  0  0  0  0  0  0  0  0  0  0
   31.2860   29.7060   38.2950 O   0  0  0  0  0  0  0  0  0  0  0  0
   34.7780   29.0390   34.4190 H   0  0  0  0  0  0  0  0  0  0  0  0
   34.0140   28.7950   38.6320 H   0  0  0  0  0  0  0  0  0  0  0  0
   32.5250   29.8020   34.0500 H   0  0  0  0  0  0  0  0  0  0  0  0
   29.3550   30.1000   37.7710 H   0  0  0  0  0  0  0  0  0  0  0  0
   30.4280   31.5560   37.7480 H   0  0  0  0  0  0  0  0  0  0  0  0
   37.8350   27.2600   41.4610 O   0  0  0  0  0  0  0  0  0  0  0  0
   37.0200   27.1670   42.5970 C   0  0  0  0  0  0  0  0  0  0  0  0
   35.8570   27.8800   42.4960 F   0  0  0  0  0  0  0  0  0  0  0  0
   36.7850   25.7880   42.7670 F   0  0  0  0  0  0  0  0  0  0  0  0
   37.7500   27.6660   43.6670 F   0  0  0  0  0  0  0  0  0  0  0  0
  1  2  2  0  0  0  0
  1  6  1  0  0  0  0
  2  3  1  0  0  0  0
  3  8  1  0  0  0  0
  3  4  2  0  0  0  0
  5  4  1  0  0  0  0
  5 31  1  0  0  0  0
  6  5  2  0  0  0  0
  7  2  1  0  0  0  0
  8 15  2  0  0  0  0
  9 11  2  0  0  0  0
  9  8  1  0  0  0  0
 10  9  1  0  0  0  0
 11 13  1  0  0  0  0
 12 11  1  0  0  0  0
 13 15  1  0  0  0  0
 13 14  1  0  0  0  0
 16  1  1  0  0  0  0
 17 18  1  0  0  0  0
 18 16  1  0  0  0  0
 18 19  2  0  0  0  0
 19 27  1  0  0  0  0
 20 19  1  0  0  0  0
 20 25  1  0  0  0  0
 21 23  1  0  0  0  0
 21 20  2  0  0  0  0
 22 17  2  0  0  0  0
 22 21  1  0  0  0  0
 23 24  1  0  0  0  0
 24 30  1  0  0  0  0
 24 29  1  0  0  0  0
 24 25  1  0  0  0  0
 26 17  1  0  0  0  0
 28 22  1  0  0  0  0
 31 32  1  0  0  0  0
 32 34  1  0  0  0  0
 32 35  1  0  0  0  0
 33 32  1  0  0  0  0
M  END
>  <minimizedAffinity>
-5.7457428

$$$$

 OpenBabel03242515413D

 35 38  0  0  0  0  0  0  0  0999 V2000
   39.6920   31.4470   40.7800 C   0  0  0  0  0  0  0  0  0  0  0  0
   40.8470   31.9610   40.2410 C   0  0  0  0  0  0  0  0  0  0  0  0
   40.7870   32.3810   38.9080 C   0  0  0  0  0  0  0  0  0  0  0  0
   39.6230   32.2620   38.2350 N   0  0  0  0  0  0  0  0  0  0  0  0
   38.5160   31.7530   38.8000 C   0  0  0  0  0  0  0  0  0  0  0  0
   38.5680   31.3520   40.0670 N   0  0  0  0  0  0  0  0  0  0  0  0
   41.7770   32.0600   40.7650 H   0  0  0  0  0  0  0  0  0  0  0  0
   41.9730   32.9370   38.2670 C   0  0  0  0  0  0  0  0  0  0  0  0
   43.2630   32.5640   38.4990 C   0  0  0  0  0  0  0  0  0  0  0  0
   43.6660   31.8200   39.1680 H   0  0  0  0  0  0  0  0  0  0  0  0
   44.0320   33.3560   37.6710 C   0  0  0  0  0  0  0  0  0  0  0  0
   45.0870   33.4200   37.5090 H   0  0  0  0  0  0  0  0  0  0  0  0
   43.2050   34.1610   36.9850 N   0  0  0  0  0  0  0  0  0  0  0  0
   43.3350   34.9160   36.2540 H   0  0  0  0  0  0  0  0  0  0  0  0
   41.9600   33.9110   37.3410 N   0  0  0  0  0  0  0  0  0  0  0  0
   39.8050   30.9120   42.5090 S   0  0  0  0  0  0  0  0  0  0  0  0
   38.1600   28.8700   43.0810 C   0  0  0  0  0  0  0  0  0  0  0  0
   39.4470   29.1660   42.6470 C   0  0  0  0  0  0  0  0  0  0  0  0
   40.3470   28.1680   42.3550 C   0  0  0  0  0  0  0  0  0  0  0  0
   40.0170   26.8350   42.4790 C   0  0  0  0  0  0  0  0  0  0  0  0
   38.7170   26.5280   42.9180 C   0  0  0  0  0  0  0  0  0  0  0  0
   37.7870   27.5190   43.2190 C   0  0  0  0  0  0  0  0  0  0  0  0
   38.6210   25.1260   42.9640 O   0  0  0  0  0  0  0  0  0  0  0  0
   39.9350   24.6400   42.9140 C   0  0  0  0  0  0  0  0  0  0  0  0
   40.6950   25.6390   42.2640 O   0  0  0  0  0  0  0  0  0  0  0  0
   37.3920   29.5900   43.3320 H   0  0  0  0  0  0  0  0  0  0  0  0
   41.3180   28.4570   42.0270 H   0  0  0  0  0  0  0  0  0  0  0  0
   36.7920   27.2700   43.5560 H   0  0  0  0  0  0  0  0  0  0  0  0
   39.9340   23.7460   42.2540 H   0  0  0  0  0  0  0  0  0  0  0  0
   40.3380   24.3620   43.9070 H   0  0  0  0  0  0  0  0  0  0  0  0
   37.3050   31.6060   38.1740 O   0  0  0  0  0  0  0  0  0  0  0  0
   37.0210   30.4120   37.4970 C   0  0  0  0  0  0  0  0  0  0  0  0
   35.8860   29.7890   37.9400 F   0  0  0  0  0  0  0  0  0  0  0  0
   36.9320   30.7730   36.1380 F   0  0  0  0  0  0  0  0  0  0  0  0
   38.0970   29.5590   37.7000 F   0  0  0  0  0  0  0  0  0  0  0  0
  1 16  1  0  0  0  0
  2  7  1  0  0  0  0
  2  1  1  0  0  0  0
  3  2  2  0  0  0  0
  4  5  2  0  0  0  0
  4  3  1  0  0  0  0
  5  6  1  0  0  0  0
  6  1  2  0  0  0  0
  8  9  1  0  0  0  0
  8  3  1  0  0  0  0
  9 10  1  0  0  0  0
 11  9  2  0  0  0  0
 12 11  1  0  0  0  0
 13 15  1  0  0  0  0
 13 11  1  0  0  0  0
 14 13  1  0  0  0  0
 15  8  2  0  0  0  0
 16 18  1  0  0  0  0
 17 22  1  0  0  0  0
 17 26  1  0  0  0  0
 18 17  2  0  0  0  0
 19 20  2  0  0  0  0
 19 18  1  0  0  0  0
 20 21  1  0  0  0  0
 21 23  1  0  0  0  0
 21 22  2  0  0  0  0
 22 28  1  0  0  0  0
 24 23  1  0  0  0  0
 24 30  1  0  0  0  0
 25 20  1  0  0  0  0
 25 24  1  0  0  0  0
 27 19  1  0  0  0  0
 29 24  1  0  0  0  0
 31  5  1  0  0  0  0
 32 35  1  0  0  0  0
 32 33  1  0  0  0  0
 32 31  1  0  0  0  0
 34 32  1  0  0  0  0
M  END
>  <minimizedAffinity>
-5.67090702

$$$$

 OpenBabel03242515413D

 35 38  0  0  0  0  0  0  0  0999 V2000
   38.6580   29.2020   41.7820 C   0  0  0  0  0  0  0  0  0  0  0  0
   39.5220   30.2040   41.4120 C   0  0  0  0  0  0  0  0  0  0  0  0
   38.9660   31.3000   40.7430 C   0  0  0  0  0  0  0  0  0  0  0  0
   37.6390   31.3140   40.4980 N   0  0  0  0  0  0  0  0  0  0  0  0
   36.8290   30.3110   40.8770 C   0  0  0  0  0  0  0  0  0  0  0  0
   37.3530   29.2680   41.5140 N   0  0  0  0  0  0  0  0  0  0  0  0
   40.5780   30.2040   41.6000 H   0  0  0  0  0  0  0  0  0  0  0  0
   39.8210   32.4030   40.3180 C   0  0  0  0  0  0  0  0  0  0  0  0
   41.0720   32.6760   40.7830 C   0  0  0  0  0  0  0  0  0  0  0  0
   41.6700   32.1680   41.5240 H   0  0  0  0  0  0  0  0  0  0  0  0
   41.4840   33.8010   40.0970 C   0  0  0  0  0  0  0  0  0  0  0  0
   42.3860   34.3740   40.1270 H   0  0  0  0  0  0  0  0  0  0  0  0
   40.4960   34.1610   39.2630 N   0  0  0  0  0  0  0  0  0  0  0  0
   40.3610   34.9390   38.5570 H   0  0  0  0  0  0  0  0  0  0  0  0
   39.4890   33.3190   39.3930 N   0  0  0  0  0  0  0  0  0  0  0  0
   39.4120   27.7980   42.6480 S   0  0  0  0  0  0  0  0  0  0  0  0
   37.5790   25.8410   42.5180 C   0  0  0  0  0  0  0  0  0  0  0  0
   38.7960   26.2550   41.9880 C   0  0  0  0  0  0  0  0  0  0  0  0
   39.4480   25.5090   41.0330 C   0  0  0  0  0  0  0  0  0  0  0  0
   38.9270   24.3250   40.5590 C   0  0  0  0  0  0  0  0  0  0  0  0
   37.6950   23.9000   41.0910 C   0  0  0  0  0  0  0  0  0  0  0  0
   37.0170   24.6350   42.0570 C   0  0  0  0  0  0  0  0  0  0  0  0
   37.3760   22.6840   40.4610 O   0  0  0  0  0  0  0  0  0  0  0  0
   38.5580   22.2300   39.8590 C   0  0  0  0  0  0  0  0  0  0  0  0
   39.3420   23.3820   39.6240 O   0  0  0  0  0  0  0  0  0  0  0  0
   37.0030   26.3640   43.2700 H   0  0  0  0  0  0  0  0  0  0  0  0
   40.3760   25.8780   40.6660 H   0  0  0  0  0  0  0  0  0  0  0  0
   36.0730   24.2980   42.4580 H   0  0  0  0  0  0  0  0  0  0  0  0
   38.2860   21.8090   38.8670 H   0  0  0  0  0  0  0  0  0  0  0  0
   39.0820   21.4570   40.4530 H   0  0  0  0  0  0  0  0  0  0  0  0
   35.4760   30.2640   40.6610 O   0  0  0  0  0  0  0  0  0  0  0  0
   34.9540   29.3250   39.7610 C   0  0  0  0  0  0  0  0  0  0  0  0
   33.5870   29.2580   39.7710 F   0  0  0  0  0  0  0  0  0  0  0  0
   35.4580   29.7050   38.5010 F   0  0  0  0  0  0  0  0  0  0  0  0
   35.4560   28.0840   40.1270 F   0  0  0  0  0  0  0  0  0  0  0  0
  1 16  1  0  0  0  0
  2  7  1  0  0  0  0
  2  1  2  0  0  0  0
  3  2  1  0  0  0  0
  4  3  2  0  0  0  0
  4  5  1  0  0  0  0
  5  6  2  0  0  0  0
  6  1  1  0  0  0  0
  8  3  1  0  0  0  0
  8  9  1  0  0  0  0
  9 10  1  0  0  0  0
 11 12  1  0  0  0  0
 11  9  2  0  0  0  0
 13 15  1  0  0  0  0
 13 11  1  0  0  0  0
 14 13  1  0  0  0  0
 15  8  2  0  0  0  0
 17 26  1  0  0  0  0
 18 17  2  0  0  0  0
 18 16  1  0  0  0  0
 19 18  1  0  0  0  0
 20 19  2  0  0  0  0
 20 21  1  0  0  0  0
 21 22  2  0  0  0  0
 22 28  1  0  0  0  0
 22 17  1  0  0  0  0
 23 21  1  0  0  0  0
 24 30  1  0  0  0  0
 24 23  1  0  0  0  0
 25 24  1  0  0  0  0
 25 20  1  0  0  0  0
 27 19  1  0  0  0  0
 29 24  1  0  0  0  0
 31  5  1  0  0  0  0
 32 33  1  0  0  0  0
 32 35  1  0  0  0  0
 32 31  1  0  0  0  0
 34 32  1  0  0  0  0
M  END
>  <minimizedAffinity>
-5.64979458

$$$$

 OpenBabel03242515413D

 35 38  0  0  0  0  0  0  0  0999 V2000
   37.9590   27.6110   41.9290 C   0  0  0  0  0  0  0  0  0  0  0  0
   39.1940   27.4480   42.5090 C   0  0  0  0  0  0  0  0  0  0  0  0
   39.9000   26.2890   42.1700 C   0  0  0  0  0  0  0  0  0  0  0  0
   39.3430   25.4100   41.3100 N   0  0  0  0  0  0  0  0  0  0  0  0
   38.1320   25.6080   40.7650 C   0  0  0  0  0  0  0  0  0  0  0  0
   37.4570   26.7090   41.0840 N   0  0  0  0  0  0  0  0  0  0  0  0
   39.6460   28.1380   43.1930 H   0  0  0  0  0  0  0  0  0  0  0  0
   41.2170   26.0450   42.7460 C   0  0  0  0  0  0  0  0  0  0  0  0
   42.0720   26.9900   43.2290 C   0  0  0  0  0  0  0  0  0  0  0  0
   41.9690   28.0630   43.2870 H   0  0  0  0  0  0  0  0  0  0  0  0
   43.1820   26.2970   43.6680 C   0  0  0  0  0  0  0  0  0  0  0  0
   44.0980   26.6120   44.1170 H   0  0  0  0  0  0  0  0  0  0  0  0
   42.9680   24.9910   43.4420 N   0  0  0  0  0  0  0  0  0  0  0  0
   43.5220   24.1040   43.6090 H   0  0  0  0  0  0  0  0  0  0  0  0
   41.7820   24.8340   42.8860 N   0  0  0  0  0  0  0  0  0  0  0  0
   37.0710   29.1240   42.3890 S   0  0  0  0  0  0  0  0  0  0  0  0
   36.8490   31.1540   40.6480 C   0  0  0  0  0  0  0  0  0  0  0  0
   37.7410   30.5320   41.5140 C   0  0  0  0  0  0  0  0  0  0  0  0
   39.0290   30.9900   41.6610 C   0  0  0  0  0  0  0  0  0  0  0  0
   39.4940   32.0820   40.9600 C   0  0  0  0  0  0  0  0  0  0  0  0
   38.5970   32.7170   40.0810 C   0  0  0  0  0  0  0  0  0  0  0  0
   37.2890   32.2730   39.9150 C   0  0  0  0  0  0  0  0  0  0  0  0
   39.2920   33.7870   39.4910 O   0  0  0  0  0  0  0  0  0  0  0  0
   40.6530   33.5560   39.7350 C   0  0  0  0  0  0  0  0  0  0  0  0
   40.7090   32.7580   40.9010 O   0  0  0  0  0  0  0  0  0  0  0  0
   35.8230   30.8590   40.4720 H   0  0  0  0  0  0  0  0  0  0  0  0
   39.6640   30.4730   42.3400 H   0  0  0  0  0  0  0  0  0  0  0  0
   36.6110   32.7690   39.2360 H   0  0  0  0  0  0  0  0  0  0  0  0
   41.1180   34.5340   39.9840 H   0  0  0  0  0  0  0  0  0  0  0  0
   41.1830   33.1070   38.8730 H   0  0  0  0  0  0  0  0  0  0  0  0
   37.5110   24.7580   39.8870 O   0  0  0  0  0  0  0  0  0  0  0  0
   36.7390   23.6980   40.3830 C   0  0  0  0  0  0  0  0  0  0  0  0
   36.0400   24.0150   41.5160 F   0  0  0  0  0  0  0  0  0  0  0  0
   35.8900   23.3340   39.3190 F   0  0  0  0  0  0  0  0  0  0  0  0
   37.6110   22.6600   40.6800 F   0  0  0  0  0  0  0  0  0  0  0  0
  1 16  1  0  0  0  0
  1  2  1  0  0  0  0
  2  7  1  0  0  0  0
  3  2  2  0  0  0  0
  3  8  1  0  0  0  0
  4  3  1  0  0  0  0
  5  6  1  0  0  0  0
  5  4  2  0  0  0  0
  6  1  2  0  0  0  0
  8 15  2  0  0  0  0
  8  9  1  0  0  0  0
  9 10  1  0  0  0  0
  9 11  2  0  0  0  0
 11 12  1  0  0  0  0
 13 14  1  0  0  0  0
 13 11  1  0  0  0  0
 15 13  1  0  0  0  0
 17 18  1  0  0  0  0
 18 19  2  0  0  0  0
 18 16  1  0  0  0  0
 19 27  1  0  0  0  0
 20 19  1  0  0  0  0
 21 20  2  0  0  0  0
 22 21  1  0  0  0  0
 22 17  2  0  0  0  0
 23 24  1  0  0  0  0
 23 21  1  0  0  0  0
 24 29  1  0  0  0  0
 24 25  1  0  0  0  0
 25 20  1  0  0  0  0
 26 17  1  0  0  0  0
 28 22  1  0  0  0  0
 30 24  1  0  0  0  0
 31 32  1  0  0  0  0
 31  5  1  0  0  0  0
 32 35  1  0  0  0  0
 32 33  1  0  0  0  0
 34 32  1  0  0  0  0
M  END
>  <minimizedAffinity>
-5.63297939

$$$$
