
 OpenBabel03252508283D

 38 41  0  0  1  0  0  0  0  0999 V2000
   41.5210   33.6270   39.3690 N   0  0  0  0  0  0  0  0  0  0  0  0
   41.5890   33.2260   40.7770 C   0  0  2  0  0  0  0  0  0  0  0  0
   40.3820   33.6240   41.5450 C   0  0  0  0  0  0  0  0  0  0  0  0
   39.3060   34.0880   40.6870 N   0  0  0  0  0  0  0  0  0  0  0  0
   39.6750   35.0680   39.7340 C   0  0  0  0  0  0  0  0  0  0  0  0
   41.1520   35.0590   39.4170 C   0  0  2  0  0  0  0  0  0  0  0  0
   40.8080   33.0850   38.8460 H   0  0  0  0  0  0  0  0  0  0  0  0
   41.7260   32.1230   40.8340 H   0  0  0  0  0  0  0  0  0  0  0  0
   39.9460   32.7310   42.0810 H   0  0  0  0  0  0  0  0  0  0  0  0
   40.4810   34.4870   42.2250 H   0  0  0  0  0  0  0  0  0  0  0  0
   38.9300   33.2440   40.1640 H   0  0  0  0  0  0  0  0  0  0  0  0
   39.4220   36.0900   40.1110 H   0  0  0  0  0  0  0  0  0  0  0  0
   39.0690   34.9310   38.8030 H   0  0  0  0  0  0  0  0  0  0  0  0
   41.6910   35.4970   40.2570 H   0  0  0  0  0  0  0  0  0  0  0  0
   41.4480   35.7430   38.1480 C   0  0  0  0  0  0  0  0  0  0  0  0
   40.5960   36.3840   37.2950 C   0  0  0  0  0  0  0  0  0  0  0  0
   39.5260   36.5050   37.4080 H   0  0  0  0  0  0  0  0  0  0  0  0
   41.3160   36.8790   36.2250 C   0  0  0  0  0  0  0  0  0  0  0  0
   40.9620   37.4430   35.3550 H   0  0  0  0  0  0  0  0  0  0  0  0
   42.5980   36.5310   36.4410 N   0  0  0  0  0  0  0  0  0  0  0  0
   43.4550   36.7220   35.8530 H   0  0  0  0  0  0  0  0  0  0  0  0
   42.6700   35.8550   37.5860 N   0  0  0  0  0  0  0  0  0  0  0  0
   44.8040   34.3050   42.0060 C   0  0  0  0  0  0  0  0  0  0  0  0
   43.9290   35.3160   42.4080 C   0  0  0  0  0  0  0  0  0  0  0  0
   42.6400   35.0180   41.9990 C   0  0  0  0  0  0  0  0  0  0  0  0
   42.7570   33.8550   41.3670 N   0  0  0  0  0  0  0  0  0  0  0  0
   44.0160   33.4390   41.3710 N   0  0  0  0  0  0  0  0  0  0  0  0
   44.3480   36.1750   42.9670 H   0  0  0  0  0  0  0  0  0  0  0  0
   41.9590   35.8000   42.3180 H   0  0  0  0  0  0  0  0  0  0  0  0
   48.4900   35.0300   42.1150 C   0  0  0  0  0  0  0  0  0  0  0  0
   47.1190   35.1900   41.7470 C   0  0  0  0  0  0  0  0  0  0  0  0
   46.2410   34.2780   42.2790 C   0  0  0  0  0  0  0  0  0  0  0  0
   46.6960   33.2920   43.1070 N   0  0  0  0  0  0  0  0  0  0  0  0
   48.0060   33.1780   43.4300 C   0  0  0  0  0  0  0  0  0  0  0  0
   48.8700   34.0460   42.9280 N   0  0  0  0  0  0  0  0  0  0  0  0
   49.1850   35.7550   41.6910 H   0  0  0  0  0  0  0  0  0  0  0  0
   46.7590   35.9680   41.0930 H   0  0  0  0  0  0  0  0  0  0  0  0
   48.2550   32.3610   44.0930 H   0  0  0  0  0  0  0  0  0  0  0  0
  1  6  1  0  0  0  0
  1  2  1  0  0  0  0
  2  8  1  1  0  0  0
  2 26  1  0  0  0  0
  2  3  1  0  0  0  0
  3  9  1  0  0  0  0
  3 10  1  0  0  0  0
  4  3  1  0  0  0  0
  5 12  1  0  0  0  0
  5  4  1  0  0  0  0
  6  5  1  0  0  0  0
  6 14  1  1  0  0  0
  7  1  1  0  0  0  0
 11  4  1  0  0  0  0
 13  5  1  0  0  0  0
 15  6  1  0  0  0  0
 16 17  1  0  0  0  0
 16 15  1  0  0  0  0
 18 20  1  0  0  0  0
 18 16  2  0  0  0  0
 19 18  1  0  0  0  0
 20 22  1  0  0  0  0
 21 20  1  0  0  0  0
 22 15  2  0  0  0  0
 23 32  1  0  0  0  0
 23 24  1  0  0  0  0
 24 28  1  0  0  0  0
 25 29  1  0  0  0  0
 25 24  2  0  0  0  0
 26 27  1  0  0  0  0
 26 25  1  0  0  0  0
 27 23  2  0  0  0  0
 30 35  1  0  0  0  0
 31 30  2  0  0  0  0
 31 32  1  0  0  0  0
 32 33  2  0  0  0  0
 33 34  1  0  0  0  0
 34 38  1  0  0  0  0
 35 34  2  0  0  0  0
 36 30  1  0  0  0  0
 37 31  1  0  0  0  0
M  END
>  <minimizedAffinity>
-4.84760952

>  <minimizedRMSD>
1.48583698

$$$$
