
 OpenBabel03252508283D

 38 41  0  0  1  0  0  0  0  0999 V2000
   41.1740   33.2930   39.4690 N   0  0  0  0  0  0  0  0  0  0  0  0
   41.4110   32.8690   40.8520 C   0  0  2  0  0  0  0  0  0  0  0  0
   40.2520   33.1380   41.7410 C   0  0  0  0  0  0  0  0  0  0  0  0
   39.0620   33.5210   41.0000 N   0  0  0  0  0  0  0  0  0  0  0  0
   39.2510   34.5510   40.0470 C   0  0  0  0  0  0  0  0  0  0  0  0
   40.6850   34.6840   39.5950 C   0  0  2  0  0  0  0  0  0  0  0  0
   40.4660   32.7000   38.9980 H   0  0  0  0  0  0  0  0  0  0  0  0
   41.6500   31.7830   40.8620 H   0  0  0  0  0  0  0  0  0  0  0  0
   39.9500   32.1970   42.2870 H   0  0  0  0  0  0  0  0  0  0  0  0
   40.3370   33.9910   42.4340 H   0  0  0  0  0  0  0  0  0  0  0  0
   38.7150   32.6570   40.4890 H   0  0  0  0  0  0  0  0  0  0  0  0
   38.9440   35.5370   40.4780 H   0  0  0  0  0  0  0  0  0  0  0  0
   38.5730   34.3800   39.1730 H   0  0  0  0  0  0  0  0  0  0  0  0
   41.2600   35.1510   40.3950 H   0  0  0  0  0  0  0  0  0  0  0  0
   40.7980   35.4210   38.3260 C   0  0  0  0  0  0  0  0  0  0  0  0
   41.6950   36.3860   37.9660 C   0  0  0  0  0  0  0  0  0  0  0  0
   42.5000   36.7880   38.5690 H   0  0  0  0  0  0  0  0  0  0  0  0
   41.4230   36.7950   36.6750 C   0  0  0  0  0  0  0  0  0  0  0  0
   41.9350   37.5490   36.0670 H   0  0  0  0  0  0  0  0  0  0  0  0
   40.3630   36.0730   36.2670 N   0  0  0  0  0  0  0  0  0  0  0  0
   39.8540   36.0910   35.3410 H   0  0  0  0  0  0  0  0  0  0  0  0
   39.9970   35.2570   37.2520 N   0  0  0  0  0  0  0  0  0  0  0  0
   44.6130   34.1670   41.8890 C   0  0  0  0  0  0  0  0  0  0  0  0
   43.7110   35.1780   42.2260 C   0  0  0  0  0  0  0  0  0  0  0  0
   42.4240   34.7990   41.8830 C   0  0  0  0  0  0  0  0  0  0  0  0
   42.5690   33.5890   41.3510 N   0  0  0  0  0  0  0  0  0  0  0  0
   43.8430   33.2200   41.3540 N   0  0  0  0  0  0  0  0  0  0  0  0
   44.1110   36.0970   42.6960 H   0  0  0  0  0  0  0  0  0  0  0  0
   41.7210   35.5810   42.1520 H   0  0  0  0  0  0  0  0  0  0  0  0
   48.3210   34.6880   41.5770 C   0  0  0  0  0  0  0  0  0  0  0  0
   46.9450   34.7050   41.1950 C   0  0  0  0  0  0  0  0  0  0  0  0
   46.0570   34.2150   42.1200 C   0  0  0  0  0  0  0  0  0  0  0  0
   46.5070   33.7510   43.3230 N   0  0  0  0  0  0  0  0  0  0  0  0
   47.8230   33.7540   43.6430 C   0  0  0  0  0  0  0  0  0  0  0  0
   48.6970   34.2210   42.7650 N   0  0  0  0  0  0  0  0  0  0  0  0
   49.0250   35.0780   40.8400 H   0  0  0  0  0  0  0  0  0  0  0  0
   46.5880   35.0730   40.2460 H   0  0  0  0  0  0  0  0  0  0  0  0
   48.0670   33.3630   44.6210 H   0  0  0  0  0  0  0  0  0  0  0  0
  1  6  1  0  0  0  0
  1  2  1  0  0  0  0
  2  8  1  1  0  0  0
  2 26  1  0  0  0  0
  2  3  1  0  0  0  0
  3  9  1  0  0  0  0
  3 10  1  0  0  0  0
  4  3  1  0  0  0  0
  5 12  1  0  0  0  0
  5  4  1  0  0  0  0
  6  5  1  0  0  0  0
  6 14  1  1  0  0  0
  7  1  1  0  0  0  0
 11  4  1  0  0  0  0
 13  5  1  0  0  0  0
 15  6  1  0  0  0  0
 16 15  1  0  0  0  0
 16 17  1  0  0  0  0
 18 16  2  0  0  0  0
 19 18  1  0  0  0  0
 20 18  1  0  0  0  0
 20 22  1  0  0  0  0
 21 20  1  0  0  0  0
 22 15  2  0  0  0  0
 23 32  1  0  0  0  0
 23 24  1  0  0  0  0
 24 28  1  0  0  0  0
 25 29  1  0  0  0  0
 25 24  2  0  0  0  0
 26 27  1  0  0  0  0
 26 25  1  0  0  0  0
 27 23  2  0  0  0  0
 30 35  1  0  0  0  0
 31 30  2  0  0  0  0
 31 32  1  0  0  0  0
 32 33  2  0  0  0  0
 33 34  1  0  0  0  0
 34 38  1  0  0  0  0
 35 34  2  0  0  0  0
 36 30  1  0  0  0  0
 37 31  1  0  0  0  0
M  END
>  <minimizedAffinity>
-4.71237803

>  <minimizedRMSD>
1.93086398

$$$$
