
 OpenBabel03252508283D

 38 41  0  0  1  0  0  0  0  0999 V2000
   41.1990   33.2140   39.5690 N   0  0  0  0  0  0  0  0  0  0  0  0
   41.4420   32.7840   40.9490 C   0  0  2  0  0  0  0  0  0  0  0  0
   40.2890   33.0510   41.8450 C   0  0  0  0  0  0  0  0  0  0  0  0
   39.0960   33.4400   41.1130 N   0  0  0  0  0  0  0  0  0  0  0  0
   39.2820   34.4740   40.1640 C   0  0  0  0  0  0  0  0  0  0  0  0
   40.7140   34.6050   39.7040 C   0  0  2  0  0  0  0  0  0  0  0  0
   40.4860   32.6250   39.1000 H   0  0  0  0  0  0  0  0  0  0  0  0
   41.6790   31.6960   40.9530 H   0  0  0  0  0  0  0  0  0  0  0  0
   39.9880   32.1090   42.3890 H   0  0  0  0  0  0  0  0  0  0  0  0
   40.3810   33.9010   42.5420 H   0  0  0  0  0  0  0  0  0  0  0  0
   38.7440   32.5800   40.6000 H   0  0  0  0  0  0  0  0  0  0  0  0
   38.9800   35.4590   40.6000 H   0  0  0  0  0  0  0  0  0  0  0  0
   38.5990   34.3080   39.2920 H   0  0  0  0  0  0  0  0  0  0  0  0
   41.2950   35.0680   40.5020 H   0  0  0  0  0  0  0  0  0  0  0  0
   40.8210   35.3470   38.4370 C   0  0  0  0  0  0  0  0  0  0  0  0
   41.7020   36.3310   38.0870 C   0  0  0  0  0  0  0  0  0  0  0  0
   42.4940   36.7470   38.6960 H   0  0  0  0  0  0  0  0  0  0  0  0
   41.4330   36.7380   36.7940 C   0  0  0  0  0  0  0  0  0  0  0  0
   41.9340   37.5030   36.1920 H   0  0  0  0  0  0  0  0  0  0  0  0
   40.3900   35.9960   36.3760 N   0  0  0  0  0  0  0  0  0  0  0  0
   39.8880   36.0060   35.4460 H   0  0  0  0  0  0  0  0  0  0  0  0
   40.0320   35.1710   37.3570 N   0  0  0  0  0  0  0  0  0  0  0  0
   44.6450   34.0420   42.0320 C   0  0  0  0  0  0  0  0  0  0  0  0
   43.7700   35.1100   42.2420 C   0  0  0  0  0  0  0  0  0  0  0  0
   42.4860   34.7530   41.8690 C   0  0  0  0  0  0  0  0  0  0  0  0
   42.6060   33.4980   41.4430 N   0  0  0  0  0  0  0  0  0  0  0  0
   43.8620   33.0840   41.5380 N   0  0  0  0  0  0  0  0  0  0  0  0
   44.1860   36.0490   42.6550 H   0  0  0  0  0  0  0  0  0  0  0  0
   41.8050   35.5800   42.0390 H   0  0  0  0  0  0  0  0  0  0  0  0
   48.3040   34.8770   42.2100 C   0  0  0  0  0  0  0  0  0  0  0  0
   46.9360   34.9990   41.8200 C   0  0  0  0  0  0  0  0  0  0  0  0
   46.0770   34.0560   42.3280 C   0  0  0  0  0  0  0  0  0  0  0  0
   46.5480   33.0770   43.1560 N   0  0  0  0  0  0  0  0  0  0  0  0
   47.8550   32.9990   43.5000 C   0  0  0  0  0  0  0  0  0  0  0  0
   48.7010   33.8980   43.0210 N   0  0  0  0  0  0  0  0  0  0  0  0
   48.9840   35.6270   41.8050 H   0  0  0  0  0  0  0  0  0  0  0  0
   46.5630   35.7730   41.1670 H   0  0  0  0  0  0  0  0  0  0  0  0
   48.1170   32.1840   44.1600 H   0  0  0  0  0  0  0  0  0  0  0  0
  1  6  1  0  0  0  0
  1  2  1  0  0  0  0
  2  8  1  1  0  0  0
  2 26  1  0  0  0  0
  2  3  1  0  0  0  0
  3  9  1  0  0  0  0
  3 10  1  0  0  0  0
  4  3  1  0  0  0  0
  5 12  1  0  0  0  0
  5  4  1  0  0  0  0
  6  5  1  0  0  0  0
  6 14  1  1  0  0  0
  7  1  1  0  0  0  0
 11  4  1  0  0  0  0
 13  5  1  0  0  0  0
 15  6  1  0  0  0  0
 16 15  1  0  0  0  0
 16 17  1  0  0  0  0
 18 16  2  0  0  0  0
 19 18  1  0  0  0  0
 20 18  1  0  0  0  0
 20 22  1  0  0  0  0
 21 20  1  0  0  0  0
 22 15  2  0  0  0  0
 23 24  1  0  0  0  0
 23 32  1  0  0  0  0
 24 28  1  0  0  0  0
 25 29  1  0  0  0  0
 25 24  2  0  0  0  0
 26 27  1  0  0  0  0
 26 25  1  0  0  0  0
 27 23  2  0  0  0  0
 30 35  1  0  0  0  0
 31 30  2  0  0  0  0
 31 32  1  0  0  0  0
 32 33  2  0  0  0  0
 33 34  1  0  0  0  0
 34 38  1  0  0  0  0
 35 34  2  0  0  0  0
 36 30  1  0  0  0  0
 37 31  1  0  0  0  0
M  END
>  <minimizedAffinity>
-4.79161167

>  <minimizedRMSD>
2.00086904

$$$$
