
 OpenBabel03252505053D

 42 45  0  0  1  0  0  0  0  0999 V2000
   44.5760   35.5860   44.6230 C   0  0  0  0  0  0  0  0  0  0  0  0
   45.2360   35.6030   43.3660 C   0  0  0  0  0  0  0  0  0  0  0  0
   46.3220   34.6900   43.1870 C   0  0  0  0  0  0  0  0  0  0  0  0
   46.6670   33.8660   44.2060 N   0  0  0  0  0  0  0  0  0  0  0  0
   46.0050   33.8930   45.3750 C   0  0  0  0  0  0  0  0  0  0  0  0
   44.9660   34.7430   45.5940 N   0  0  0  0  0  0  0  0  0  0  0  0
   43.7590   36.2780   44.7440 H   0  0  0  0  0  0  0  0  0  0  0  0
   44.9280   36.2800   42.5760 H   0  0  0  0  0  0  0  0  0  0  0  0
   46.4290   32.9710   46.4560 C   0  0  2  0  0  0  0  0  0  0  0  0
   46.9640   31.7450   45.7690 C   0  0  0  0  0  0  0  0  0  0  0  0
   46.0970   30.5540   45.7860 C   0  0  0  0  0  0  0  0  0  0  0  0
   45.8040   30.2910   47.2640 C   0  0  0  0  0  0  0  0  0  0  0  0
   45.0140   31.3550   47.8740 C   0  0  0  0  0  0  0  0  0  0  0  0
   45.3780   32.7300   47.4180 C   0  0  0  0  0  0  0  0  0  0  0  0
   47.2770   33.4920   46.9670 H   0  0  0  0  0  0  0  0  0  0  0  0
   47.2410   31.9430   44.7010 H   0  0  0  0  0  0  0  0  0  0  0  0
   47.9250   31.4660   46.2470 H   0  0  0  0  0  0  0  0  0  0  0  0
   45.2030   30.5720   45.1620 H   0  0  0  0  0  0  0  0  0  0  0  0
   46.7060   29.6840   45.4650 H   0  0  0  0  0  0  0  0  0  0  0  0
   46.7610   30.1400   47.7730 H   0  0  0  0  0  0  0  0  0  0  0  0
   45.1860   29.3900   47.2740 H   0  0  0  0  0  0  0  0  0  0  0  0
   44.2250   31.3440   48.5810 H   0  0  0  0  0  0  0  0  0  0  0  0
   44.6820   33.8740   47.9320 N   0  0  0  0  0  0  0  0  0  0  0  0
   45.0330   34.5340   48.6290 H   0  0  0  0  0  0  0  0  0  0  0  0
   43.7090   34.0420   47.5470 H   0  0  0  0  0  0  0  0  0  0  0  0
   47.0160   34.6840   41.9070 C   0  0  0  0  0  0  0  0  0  0  0  0
   48.1720   35.3870   41.7940 C   0  0  0  0  0  0  0  0  0  0  0  0
   48.7980   35.3470   40.5390 C   0  0  0  0  0  0  0  0  0  0  0  0
   48.1860   34.6060   39.5530 C   0  0  0  0  0  0  0  0  0  0  0  0
   47.0280   33.9030   39.6710 C   0  0  0  0  0  0  0  0  0  0  0  0
   46.4530   33.9710   40.9120 N   0  0  0  0  0  0  0  0  0  0  0  0
   48.6350   35.9580   42.5680 H   0  0  0  0  0  0  0  0  0  0  0  0
   49.7200   35.8800   40.3720 H   0  0  0  0  0  0  0  0  0  0  0  0
   48.7070   34.6070   38.6060 H   0  0  0  0  0  0  0  0  0  0  0  0
   46.4250   33.1420   38.6160 C   0  0  0  0  0  0  0  0  0  0  0  0
   47.0020   32.7480   37.4410 C   0  0  0  0  0  0  0  0  0  0  0  0
   48.0280   32.9680   37.1440 H   0  0  0  0  0  0  0  0  0  0  0  0
   46.0130   32.0370   36.7530 C   0  0  0  0  0  0  0  0  0  0  0  0
   46.2560   31.6250   35.7810 H   0  0  0  0  0  0  0  0  0  0  0  0
   44.9000   32.0250   37.5170 N   0  0  0  0  0  0  0  0  0  0  0  0
   44.0920   31.5150   37.0950 H   0  0  0  0  0  0  0  0  0  0  0  0
   45.1630   32.6890   38.6250 N   0  0  0  0  0  0  0  0  0  0  0  0
  1  7  1  0  0  0  0
  1  6  1  0  0  0  0
  2  1  2  0  0  0  0
  3  2  1  0  0  0  0
  3  4  2  0  0  0  0
  4  5  1  0  0  0  0
  5  6  2  0  0  0  0
  5  9  1  0  0  0  0
  8  2  1  0  0  0  0
  9 15  1  1  0  0  0
  9 14  1  0  0  0  0
 10 11  1  0  0  0  0
 10 17  1  0  0  0  0
 10  9  1  0  0  0  0
 11 12  1  0  0  0  0
 12 21  1  0  0  0  0
 12 20  1  0  0  0  0
 12 13  1  0  0  0  0
 13 22  1  0  0  0  0
 14 13  2  0  0  0  0
 14 23  1  0  0  0  0
 16 10  1  0  0  0  0
 18 11  1  0  0  0  0
 19 11  1  0  0  0  0
 23 24  1  0  0  0  0
 25 23  1  0  0  0  0
 26  3  1  0  0  0  0
 27 26  1  0  0  0  0
 27 32  1  0  0  0  0
 28 27  2  0  0  0  0
 29 30  2  0  0  0  0
 29 28  1  0  0  0  0
 30 31  1  0  0  0  0
 31 26  2  0  0  0  0
 33 28  1  0  0  0  0
 34 29  1  0  0  0  0
 35 42  2  0  0  0  0
 35 30  1  0  0  0  0
 36 35  1  0  0  0  0
 37 36  1  0  0  0  0
 38 36  2  0  0  0  0
 38 40  1  0  0  0  0
 39 38  1  0  0  0  0
 40 42  1  0  0  0  0
 41 40  1  0  0  0  0
M  END
>  <minimizedAffinity>
-7.16156197

>  <minimizedRMSD>
0.0877357125

$$$$
