
 OpenBabel03252502273D

 34 36  0  0  0  0  0  0  0  0999 V2000
   45.1790   34.3700   41.2090 C   0  0  0  0  0  0  0  0  0  0  0  0
   45.2620   34.7820   42.5350 C   0  0  0  0  0  0  0  0  0  0  0  0
   46.5300   35.0200   43.0760 C   0  0  0  0  0  0  0  0  0  0  0  0
   47.6510   34.8430   42.2940 C   0  0  0  0  0  0  0  0  0  0  0  0
   47.5800   34.4360   40.9820 C   0  0  0  0  0  0  0  0  0  0  0  0
   46.3040   34.2050   40.4670 C   0  0  0  0  0  0  0  0  0  0  0  0
   44.3790   34.9200   43.1460 H   0  0  0  0  0  0  0  0  0  0  0  0
   46.6700   35.3400   44.0890 H   0  0  0  0  0  0  0  0  0  0  0  0
   48.6620   35.0090   42.6490 H   0  0  0  0  0  0  0  0  0  0  0  0
   48.4040   34.2740   40.3040 H   0  0  0  0  0  0  0  0  0  0  0  0
   41.6170   34.7650   40.0200 C   0  0  0  0  0  0  0  0  0  0  0  0
   42.8870   35.1230   40.5090 C   0  0  0  0  0  0  0  0  0  0  0  0
   43.8410   34.1420   40.7120 C   0  0  0  0  0  0  0  0  0  0  0  0
   43.4650   32.8710   40.4150 N   0  0  0  0  0  0  0  0  0  0  0  0
   42.2460   32.5310   39.9460 C   0  0  0  0  0  0  0  0  0  0  0  0
   41.3140   33.4910   39.7480 N   0  0  0  0  0  0  0  0  0  0  0  0
   43.1530   36.1310   40.7340 H   0  0  0  0  0  0  0  0  0  0  0  0
   41.9970   31.5020   39.7240 H   0  0  0  0  0  0  0  0  0  0  0  0
   40.5960   35.8160   39.8030 C   0  0  0  0  0  0  0  0  0  0  0  0
   39.3800   35.1770   39.5820 F   0  0  0  0  0  0  0  0  0  0  0  0
   40.9060   36.4310   38.5930 F   0  0  0  0  0  0  0  0  0  0  0  0
   40.4880   36.6900   40.8500 F   0  0  0  0  0  0  0  0  0  0  0  0
   46.4990   32.6700   38.3450 C   0  0  0  0  0  0  0  0  0  0  0  0
   47.1930   31.7270   38.7580 O   0  0  0  0  0  0  0  0  0  0  0  0
   46.0910   33.7840   39.1360 N   0  0  0  0  0  0  0  0  0  0  0  0
   45.4720   34.5310   38.6930 H   0  0  0  0  0  0  0  0  0  0  0  0
   46.0640   32.6440   36.9500 C   0  0  0  0  0  0  0  0  0  0  0  0
   46.6210   31.8080   36.0280 C   0  0  0  0  0  0  0  0  0  0  0  0
   47.4190   31.0630   36.1220 H   0  0  0  0  0  0  0  0  0  0  0  0
   46.0040   32.0100   34.7880 C   0  0  0  0  0  0  0  0  0  0  0  0
   46.2090   31.5110   33.8550 H   0  0  0  0  0  0  0  0  0  0  0  0
   45.1000   32.9720   35.0480 N   0  0  0  0  0  0  0  0  0  0  0  0
   44.4820   33.3200   34.2620 H   0  0  0  0  0  0  0  0  0  0  0  0
   45.1190   33.3600   36.3130 N   0  0  0  0  0  0  0  0  0  0  0  0
  1  2  1  0  0  0  0
  2  3  2  0  0  0  0
  2  7  1  0  0  0  0
  3  8  1  0  0  0  0
  4  9  1  0  0  0  0
  4  3  1  0  0  0  0
  5  4  2  0  0  0  0
  6  5  1  0  0  0  0
  6  1  2  0  0  0  0
 10  5  1  0  0  0  0
 11 12  1  0  0  0  0
 12 13  2  0  0  0  0
 12 17  1  0  0  0  0
 13  1  1  0  0  0  0
 14 13  1  0  0  0  0
 15 14  2  0  0  0  0
 16 15  1  0  0  0  0
 16 11  2  0  0  0  0
 18 15  1  0  0  0  0
 19 11  1  0  0  0  0
 19 22  1  0  0  0  0
 20 19  1  0  0  0  0
 21 19  1  0  0  0  0
 23 24  2  0  0  0  0
 23 25  1  0  0  0  0
 25  6  1  0  0  0  0
 26 25  1  0  0  0  0
 27 23  1  0  0  0  0
 28 29  1  0  0  0  0
 28 27  1  0  0  0  0
 30 32  1  0  0  0  0
 30 28  2  0  0  0  0
 31 30  1  0  0  0  0
 32 34  1  0  0  0  0
 33 32  1  0  0  0  0
 34 27  2  0  0  0  0
M  END
>  <minimizedAffinity>
-6.20892143

>  <minimizedRMSD>
1.04756415

$$$$
