REMARK  Name = 
REMARK  3 active torsions:
REMARK  status: ('A' for Active; 'I' for Inactive)
REMARK    1  A    between atoms: C_1  and  C_8
REMARK    2  A    between atoms: N_4  and  C_13
REMARK    3  A    between atoms: C_17  and  C_31
REMARK                            x       y       z     vdW  Elec       q    Type
REMARK                         _______ _______ _______ _____ _____    ______ ____
ROOT
ATOM      1  N   UNL     1      42.351  33.736  39.644  0.00  0.00    +0.000 NA
ATOM      2  C   UNL     1      42.221  33.931  41.091  0.00  0.00    +0.000 C 
ATOM      3  C   UNL     1      41.165  34.913  41.445  0.00  0.00    +0.000 C 
ATOM      4  N   UNL     1      40.332  35.266  40.308  0.00  0.00    +0.000 NA
ATOM      5  C   UNL     1      41.037  35.643  39.139  0.00  0.00    +0.000 C 
ATOM      6  C   UNL     1      42.449  35.109  39.101  0.00  0.00    +0.000 C 
ATOM      7  H   UNL     1      41.530  33.245  39.244  0.00  0.00    +0.000 HD
ATOM      8  H   UNL     1      42.001  32.951  41.570  0.00  0.00    +0.000 HD
ATOM      9  H   UNL     1      40.445  34.463  42.189  0.00  0.00    +0.000 HD
ATOM     10  H   UNL     1      41.497  35.914  41.767  0.00  0.00    +0.000 HD
ATOM     11  H   UNL     1      39.736  34.419  40.076  0.00  0.00    +0.000 HD
ATOM     12  H   UNL     1      41.100  36.757  39.067  0.00  0.00    +0.000 HD
ATOM     13  H   UNL     1      40.464  35.314  38.235  0.00  0.00    +0.000 HD
ATOM     14  H   UNL     1      43.057  35.684  39.800  0.00  0.00    +0.000 HD
ENDROOT
BRANCH   6  15
ATOM     15  C   UNL     1      43.007  35.120  37.739  0.00  0.00    +0.000 A 
ATOM     16  C   UNL     1      42.444  35.578  36.582  0.00  0.00    +0.000 A 
ATOM     17  H   UNL     1      41.465  36.025  36.462  0.00  0.00    +0.000 HD
ATOM     18  C   UNL     1      43.333  35.385  35.541  0.00  0.00    +0.000 A 
ATOM     19  H   UNL     1      43.219  35.632  34.480  0.00  0.00    +0.000 HD
ATOM     20  N   UNL     1      44.425  34.812  36.081  0.00  0.00    +0.000 N 
ATOM     21  H   UNL     1      45.323  34.508  35.615  0.00  0.00    +0.000 HD
ATOM     22  N   UNL     1      44.224  34.657  37.387  0.00  0.00    +0.000 NA
ENDBRANCH   6  15
BRANCH   2  26
ATOM     23  C   UNL     1      45.634  34.623  42.032  0.00  0.00    +0.000 A 
ATOM     24  C   UNL     1      44.901  35.651  42.629  0.00  0.00    +0.000 A 
ATOM     25  C   UNL     1      43.554  35.498  42.348  0.00  0.00    +0.000 A 
ATOM     26  N   UNL     1      43.498  34.402  41.597  0.00  0.00    +0.000 N 
ATOM     27  N   UNL     1      44.708  33.892  41.413  0.00  0.00    +0.000 NA
ATOM     28  H   UNL     1      45.453  36.411  43.215  0.00  0.00    +0.000 HD
ATOM     29  H   UNL     1      42.983  36.292  42.818  0.00  0.00    +0.000 HD
BRANCH  23  32
ATOM     30  C   UNL     1      49.356  35.135  41.969  0.00  0.00    +0.000 A 
ATOM     31  C   UNL     1      47.973  35.455  41.815  0.00  0.00    +0.000 A 
ATOM     32  C   UNL     1      47.084  34.457  42.130  0.00  0.00    +0.000 A 
ATOM     33  N   UNL     1      47.541  33.245  42.563  0.00  0.00    +0.000 NA
ATOM     34  C   UNL     1      48.863  32.985  42.695  0.00  0.00    +0.000 A 
ATOM     35  N   UNL     1      49.738  33.933  42.396  0.00  0.00    +0.000 NA
ATOM     36  H   UNL     1      50.060  35.929  41.718  0.00  0.00    +0.000 HD
ATOM     37  H   UNL     1      47.611  36.412  41.474  0.00  0.00    +0.000 HD
ATOM     38  H   UNL     1      49.112  31.993  43.045  0.00  0.00    +0.000 HD
ENDBRANCH  23  32
ENDBRANCH   2  26
TORSDOF 3
