
 OpenBabel03252505093D

 42 45  0  0  1  0  0  0  0  0999 V2000
   37.3400   32.4910   39.8800 C   0  0  0  0  0  0  0  0  0  0  0  0
   36.9800   31.3360   40.6230 C   0  0  0  0  0  0  0  0  0  0  0  0
   38.0010   30.3600   40.8460 C   0  0  0  0  0  0  0  0  0  0  0  0
   39.2420   30.5760   40.3490 N   0  0  0  0  0  0  0  0  0  0  0  0
   39.5260   31.6900   39.6520 C   0  0  0  0  0  0  0  0  0  0  0  0
   38.5900   32.6480   39.4130 N   0  0  0  0  0  0  0  0  0  0  0  0
   36.5620   33.2190   39.7190 H   0  0  0  0  0  0  0  0  0  0  0  0
   35.9730   31.2020   41.0030 H   0  0  0  0  0  0  0  0  0  0  0  0
   40.9010   31.8720   39.1280 C   0  0  2  0  0  0  0  0  0  0  0  0
   41.7080   32.4340   40.2650 C   0  0  0  0  0  0  0  0  0  0  0  0
   42.0350   33.8690   40.1890 C   0  0  0  0  0  0  0  0  0  0  0  0
   42.7470   34.0490   38.8480 C   0  0  0  0  0  0  0  0  0  0  0  0
   41.8700   33.7900   37.7110 C   0  0  0  0  0  0  0  0  0  0  0  0
   40.9280   32.6480   37.9080 C   0  0  0  0  0  0  0  0  0  0  0  0
   41.2680   30.8380   38.9080 H   0  0  0  0  0  0  0  0  0  0  0  0
   41.2250   32.2520   41.2600 H   0  0  0  0  0  0  0  0  0  0  0  0
   42.6640   31.8760   40.3260 H   0  0  0  0  0  0  0  0  0  0  0  0
   41.2240   34.5800   40.3500 H   0  0  0  0  0  0  0  0  0  0  0  0
   42.8150   34.0820   40.9490 H   0  0  0  0  0  0  0  0  0  0  0  0
   43.6290   33.4010   38.8480 H   0  0  0  0  0  0  0  0  0  0  0  0
   43.0140   35.1080   38.8100 H   0  0  0  0  0  0  0  0  0  0  0  0
   41.7680   34.2580   36.7660 H   0  0  0  0  0  0  0  0  0  0  0  0
   40.0050   32.2810   36.8750 N   0  0  0  0  0  0  0  0  0  0  0  0
   40.0840   31.4770   36.2480 H   0  0  0  0  0  0  0  0  0  0  0  0
   39.1610   32.9100   36.7560 H   0  0  0  0  0  0  0  0  0  0  0  0
   37.6600   29.1660   41.6070 C   0  0  0  0  0  0  0  0  0  0  0  0
   37.5850   29.2600   42.9600 C   0  0  0  0  0  0  0  0  0  0  0  0
   37.2530   28.0790   43.6420 C   0  0  0  0  0  0  0  0  0  0  0  0
   37.0390   26.9520   42.8830 C   0  0  0  0  0  0  0  0  0  0  0  0
   37.1150   26.8630   41.5280 C   0  0  0  0  0  0  0  0  0  0  0  0
   37.4410   28.0380   40.9050 N   0  0  0  0  0  0  0  0  0  0  0  0
   37.7540   30.1430   43.5360 H   0  0  0  0  0  0  0  0  0  0  0  0
   37.1750   28.0760   44.7170 H   0  0  0  0  0  0  0  0  0  0  0  0
   36.7870   26.0690   43.4550 H   0  0  0  0  0  0  0  0  0  0  0  0
   36.8830   25.6650   40.7750 C   0  0  0  0  0  0  0  0  0  0  0  0
   37.1360   24.3780   41.1620 C   0  0  0  0  0  0  0  0  0  0  0  0
   37.5580   24.0870   42.1240 H   0  0  0  0  0  0  0  0  0  0  0  0
   36.7400   23.5750   40.0870 C   0  0  0  0  0  0  0  0  0  0  0  0
   36.8520   22.5010   40.1780 H   0  0  0  0  0  0  0  0  0  0  0  0
   36.2740   24.3820   39.1110 N   0  0  0  0  0  0  0  0  0  0  0  0
   35.9500   23.8840   38.2540 H   0  0  0  0  0  0  0  0  0  0  0  0
   36.3670   25.6280   39.5380 N   0  0  0  0  0  0  0  0  0  0  0  0
  1  2  1  0  0  0  0
  2  3  2  0  0  0  0
  2  8  1  0  0  0  0
  3 26  1  0  0  0  0
  4  3  1  0  0  0  0
  5  4  2  0  0  0  0
  6  5  1  0  0  0  0
  6  1  2  0  0  0  0
  7  1  1  0  0  0  0
  9 15  1  6  0  0  0
  9  5  1  0  0  0  0
  9 10  1  0  0  0  0
 10 17  1  0  0  0  0
 10 16  1  0  0  0  0
 11 10  1  0  0  0  0
 11 18  1  0  0  0  0
 11 19  1  0  0  0  0
 12 11  1  0  0  0  0
 13 14  2  0  0  0  0
 13 12  1  0  0  0  0
 14  9  1  0  0  0  0
 20 12  1  0  0  0  0
 21 12  1  0  0  0  0
 22 13  1  0  0  0  0
 23 14  1  0  0  0  0
 24 23  1  0  0  0  0
 25 23  1  0  0  0  0
 26 27  1  0  0  0  0
 27 32  1  0  0  0  0
 27 28  2  0  0  0  0
 28 33  1  0  0  0  0
 29 34  1  0  0  0  0
 29 28  1  0  0  0  0
 30 29  2  0  0  0  0
 31 30  1  0  0  0  0
 31 26  2  0  0  0  0
 35 36  1  0  0  0  0
 35 30  1  0  0  0  0
 36 37  1  0  0  0  0
 38 39  1  0  0  0  0
 38 36  2  0  0  0  0
 40 42  1  0  0  0  0
 40 38  1  0  0  0  0
 41 40  1  0  0  0  0
 42 35  2  0  0  0  0
M  END
>  <minimizedAffinity>
-6.48654175

$$$$

 OpenBabel03252505093D

 42 45  0  0  1  0  0  0  0  0999 V2000
   38.2930   32.7770   40.2450 C   0  0  0  0  0  0  0  0  0  0  0  0
   37.4290   32.1060   39.3380 C   0  0  0  0  0  0  0  0  0  0  0  0
   37.1740   30.7210   39.5850 C   0  0  0  0  0  0  0  0  0  0  0  0
   37.7560   30.1210   40.6510 N   0  0  0  0  0  0  0  0  0  0  0  0
   38.5660   30.8060   41.4760 C   0  0  0  0  0  0  0  0  0  0  0  0
   38.8400   32.1250   41.2850 N   0  0  0  0  0  0  0  0  0  0  0  0
   38.4770   33.8200   40.0480 H   0  0  0  0  0  0  0  0  0  0  0  0
   36.9840   32.6250   38.4960 H   0  0  0  0  0  0  0  0  0  0  0  0
   39.1780   30.0970   42.6250 C   0  0  2  0  0  0  0  0  0  0  0  0
   40.5670   29.7220   42.1890 C   0  0  0  0  0  0  0  0  0  0  0  0
   40.7870   28.3050   41.8500 C   0  0  0  0  0  0  0  0  0  0  0  0
   40.3540   27.5220   43.0900 C   0  0  0  0  0  0  0  0  0  0  0  0
   38.9240   27.6410   43.3540 C   0  0  0  0  0  0  0  0  0  0  0  0
   38.3610   29.0000   43.0950 C   0  0  0  0  0  0  0  0  0  0  0  0
   39.2540   30.8650   43.4350 H   0  0  0  0  0  0  0  0  0  0  0  0
   40.9190   30.3330   41.3180 H   0  0  0  0  0  0  0  0  0  0  0  0
   41.2730   29.9840   43.0030 H   0  0  0  0  0  0  0  0  0  0  0  0
   40.3450   27.9330   40.9250 H   0  0  0  0  0  0  0  0  0  0  0  0
   41.8810   28.1350   41.7830 H   0  0  0  0  0  0  0  0  0  0  0  0
   40.9610   27.8680   43.9330 H   0  0  0  0  0  0  0  0  0  0  0  0
   40.5470   26.4750   42.8450 H   0  0  0  0  0  0  0  0  0  0  0  0
   38.2000   26.9470   43.6940 H   0  0  0  0  0  0  0  0  0  0  0  0
   36.9680   29.2620   43.3080 N   0  0  0  0  0  0  0  0  0  0  0  0
   36.5610   29.7720   44.0950 H   0  0  0  0  0  0  0  0  0  0  0  0
   36.3030   28.8860   42.5740 H   0  0  0  0  0  0  0  0  0  0  0  0
   36.2910   30.0090   38.6730 C   0  0  0  0  0  0  0  0  0  0  0  0
   35.2420   29.3200   39.1930 C   0  0  0  0  0  0  0  0  0  0  0  0
   34.4230   28.6530   38.2690 C   0  0  0  0  0  0  0  0  0  0  0  0
   34.7590   28.7590   36.9380 C   0  0  0  0  0  0  0  0  0  0  0  0
   35.8100   29.4500   36.4220 C   0  0  0  0  0  0  0  0  0  0  0  0
   36.5800   30.0850   37.3600 N   0  0  0  0  0  0  0  0  0  0  0  0
   34.9930   29.2470   40.2290 H   0  0  0  0  0  0  0  0  0  0  0  0
   33.5710   28.0860   38.6070 H   0  0  0  0  0  0  0  0  0  0  0  0
   34.0980   28.2270   36.2670 H   0  0  0  0  0  0  0  0  0  0  0  0
   36.1240   29.5340   35.0260 C   0  0  0  0  0  0  0  0  0  0  0  0
   36.2550   30.6660   34.2700 C   0  0  0  0  0  0  0  0  0  0  0  0
   36.1360   31.6830   34.6440 H   0  0  0  0  0  0  0  0  0  0  0  0
   36.5640   30.2260   32.9790 C   0  0  0  0  0  0  0  0  0  0  0  0
   36.7140   30.9670   32.2040 H   0  0  0  0  0  0  0  0  0  0  0  0
   36.6070   28.8770   32.9960 N   0  0  0  0  0  0  0  0  0  0  0  0
   36.8310   28.4390   32.0760 H   0  0  0  0  0  0  0  0  0  0  0  0
   36.3420   28.4790   34.2270 N   0  0  0  0  0  0  0  0  0  0  0  0
  1  6  1  0  0  0  0
  2  3  1  0  0  0  0
  2  1  2  0  0  0  0
  3  4  2  0  0  0  0
  4  5  1  0  0  0  0
  5  9  1  0  0  0  0
  6  5  2  0  0  0  0
  7  1  1  0  0  0  0
  8  2  1  0  0  0  0
  9 14  1  0  0  0  0
  9 15  1  1  0  0  0
 10  9  1  0  0  0  0
 10 17  1  0  0  0  0
 11 10  1  0  0  0  0
 11 12  1  0  0  0  0
 12 13  1  0  0  0  0
 12 20  1  0  0  0  0
 13 22  1  0  0  0  0
 14 23  1  0  0  0  0
 14 13  2  0  0  0  0
 16 10  1  0  0  0  0
 18 11  1  0  0  0  0
 19 11  1  0  0  0  0
 21 12  1  0  0  0  0
 23 24  1  0  0  0  0
 25 23  1  0  0  0  0
 26 27  1  0  0  0  0
 26  3  1  0  0  0  0
 27 32  1  0  0  0  0
 28 33  1  0  0  0  0
 28 27  2  0  0  0  0
 29 28  1  0  0  0  0
 30 29  2  0  0  0  0
 30 31  1  0  0  0  0
 31 26  2  0  0  0  0
 34 29  1  0  0  0  0
 35 30  1  0  0  0  0
 36 37  1  0  0  0  0
 36 35  1  0  0  0  0
 38 40  1  0  0  0  0
 38 36  2  0  0  0  0
 39 38  1  0  0  0  0
 40 42  1  0  0  0  0
 41 40  1  0  0  0  0
 42 35  2  0  0  0  0
M  END
>  <minimizedAffinity>
-6.47635603

$$$$

 OpenBabel03252505093D

 42 45  0  0  1  0  0  0  0  0999 V2000
   35.8230   24.0680   39.0110 C   0  0  0  0  0  0  0  0  0  0  0  0
   35.8610   25.2510   38.2260 C   0  0  0  0  0  0  0  0  0  0  0  0
   36.4090   26.4210   38.8370 C   0  0  0  0  0  0  0  0  0  0  0  0
   36.8580   26.3530   40.1140 N   0  0  0  0  0  0  0  0  0  0  0  0
   36.7960   25.2050   40.8100 C   0  0  0  0  0  0  0  0  0  0  0  0
   36.2840   24.0640   40.2730 N   0  0  0  0  0  0  0  0  0  0  0  0
   35.4080   23.1930   38.5390 H   0  0  0  0  0  0  0  0  0  0  0  0
   35.4910   25.2630   37.2060 H   0  0  0  0  0  0  0  0  0  0  0  0
   37.2980   25.1890   42.2050 C   0  0  2  0  0  0  0  0  0  0  0  0
   37.2080   26.6080   42.6940 C   0  0  0  0  0  0  0  0  0  0  0  0
   38.4760   27.3520   42.7840 C   0  0  0  0  0  0  0  0  0  0  0  0
   39.3790   26.5020   43.6780 C   0  0  0  0  0  0  0  0  0  0  0  0
   39.7230   25.2210   43.0700 C   0  0  0  0  0  0  0  0  0  0  0  0
   38.6050   24.5810   42.3130 C   0  0  0  0  0  0  0  0  0  0  0  0
   36.5610   24.5680   42.7730 H   0  0  0  0  0  0  0  0  0  0  0  0
   36.4990   27.2240   42.0830 H   0  0  0  0  0  0  0  0  0  0  0  0
   36.7520   26.6010   43.7060 H   0  0  0  0  0  0  0  0  0  0  0  0
   38.9500   27.6540   41.8500 H   0  0  0  0  0  0  0  0  0  0  0  0
   38.2900   28.2730   43.3730 H   0  0  0  0  0  0  0  0  0  0  0  0
   38.8760   26.3810   44.6430 H   0  0  0  0  0  0  0  0  0  0  0  0
   40.3080   27.0720   43.7660 H   0  0  0  0  0  0  0  0  0  0  0  0
   40.6160   24.6530   43.0560 H   0  0  0  0  0  0  0  0  0  0  0  0
   38.8000   23.3200   41.6590 N   0  0  0  0  0  0  0  0  0  0  0  0
   38.4600   22.4110   41.9800 H   0  0  0  0  0  0  0  0  0  0  0  0
   39.3530   23.3420   40.7550 H   0  0  0  0  0  0  0  0  0  0  0  0
   36.4630   27.6480   38.0550 C   0  0  0  0  0  0  0  0  0  0  0  0
   36.3260   27.5630   36.7060 C   0  0  0  0  0  0  0  0  0  0  0  0
   36.3860   28.7750   36.0020 C   0  0  0  0  0  0  0  0  0  0  0  0
   36.5770   29.9220   36.7380 C   0  0  0  0  0  0  0  0  0  0  0  0
   36.7140   30.0030   38.0890 C   0  0  0  0  0  0  0  0  0  0  0  0
   36.6480   28.7970   38.7330 N   0  0  0  0  0  0  0  0  0  0  0  0
   36.1790   26.6640   36.1480 H   0  0  0  0  0  0  0  0  0  0  0  0
   36.2860   28.7870   34.9290 H   0  0  0  0  0  0  0  0  0  0  0  0
   36.6170   30.8290   36.1500 H   0  0  0  0  0  0  0  0  0  0  0  0
   36.9110   31.2220   38.8170 C   0  0  0  0  0  0  0  0  0  0  0  0
   37.4430   32.3920   38.3500 C   0  0  0  0  0  0  0  0  0  0  0  0
   37.7970   32.5550   37.3320 H   0  0  0  0  0  0  0  0  0  0  0  0
   37.4220   33.2760   39.4330 C   0  0  0  0  0  0  0  0  0  0  0  0
   37.8030   34.2800   39.2870 H   0  0  0  0  0  0  0  0  0  0  0  0
   36.8920   32.6290   40.4920 N   0  0  0  0  0  0  0  0  0  0  0  0
   36.8280   33.2000   41.3630 H   0  0  0  0  0  0  0  0  0  0  0  0
   36.5920   31.4020   40.1070 N   0  0  0  0  0  0  0  0  0  0  0  0
  1  6  1  0  0  0  0
  2  3  1  0  0  0  0
  2  1  2  0  0  0  0
  3  4  2  0  0  0  0
  4  5  1  0  0  0  0
  5  9  1  0  0  0  0
  6  5  2  0  0  0  0
  7  1  1  0  0  0  0
  8  2  1  0  0  0  0
  9 14  1  0  0  0  0
  9 10  1  0  0  0  0
  9 15  1  1  0  0  0
 10 11  1  0  0  0  0
 10 17  1  0  0  0  0
 11 19  1  0  0  0  0
 11 12  1  0  0  0  0
 12 21  1  0  0  0  0
 12 20  1  0  0  0  0
 13 12  1  0  0  0  0
 14 13  2  0  0  0  0
 16 10  1  0  0  0  0
 18 11  1  0  0  0  0
 22 13  1  0  0  0  0
 23 24  1  0  0  0  0
 23 14  1  0  0  0  0
 25 23  1  0  0  0  0
 26 31  1  0  0  0  0
 26  3  1  0  0  0  0
 27 26  2  0  0  0  0
 28 27  1  0  0  0  0
 28 29  2  0  0  0  0
 29 30  1  0  0  0  0
 30 31  2  0  0  0  0
 30 35  1  0  0  0  0
 32 27  1  0  0  0  0
 33 28  1  0  0  0  0
 34 29  1  0  0  0  0
 35 42  2  0  0  0  0
 36 35  1  0  0  0  0
 36 38  2  0  0  0  0
 37 36  1  0  0  0  0
 38 40  1  0  0  0  0
 39 38  1  0  0  0  0
 40 41  1  0  0  0  0
 42 40  1  0  0  0  0
M  END
>  <minimizedAffinity>
-6.42456293

$$$$

 OpenBabel03252505093D

 42 45  0  0  1  0  0  0  0  0999 V2000
   33.0810   26.8320   36.1260 C   0  0  0  0  0  0  0  0  0  0  0  0
   34.2430   27.3270   36.7750 C   0  0  0  0  0  0  0  0  0  0  0  0
   34.1490   28.6160   37.3870 C   0  0  0  0  0  0  0  0  0  0  0  0
   32.9790   29.2950   37.3200 N   0  0  0  0  0  0  0  0  0  0  0  0
   31.9110   28.7770   36.6920 C   0  0  0  0  0  0  0  0  0  0  0  0
   31.9490   27.5550   36.0950 N   0  0  0  0  0  0  0  0  0  0  0  0
   33.1640   25.8600   35.6700 H   0  0  0  0  0  0  0  0  0  0  0  0
   35.1610   26.7490   36.8050 H   0  0  0  0  0  0  0  0  0  0  0  0
   30.6570   29.5680   36.6480 C   0  0  2  0  0  0  0  0  0  0  0  0
   30.6670   30.2880   35.3270 C   0  0  0  0  0  0  0  0  0  0  0  0
   30.9750   31.7280   35.3690 C   0  0  0  0  0  0  0  0  0  0  0  0
   29.9540   32.3300   36.3340 C   0  0  0  0  0  0  0  0  0  0  0  0
   30.1300   31.8570   37.7020 C   0  0  0  0  0  0  0  0  0  0  0  0
   30.4970   30.4130   37.8100 C   0  0  0  0  0  0  0  0  0  0  0  0
   29.8340   28.8100   36.6350 H   0  0  0  0  0  0  0  0  0  0  0  0
   31.3670   29.8160   34.5910 H   0  0  0  0  0  0  0  0  0  0  0  0
   29.6680   30.1730   34.8580 H   0  0  0  0  0  0  0  0  0  0  0  0
   32.0030   32.0170   35.5880 H   0  0  0  0  0  0  0  0  0  0  0  0
   30.7140   32.1610   34.3820 H   0  0  0  0  0  0  0  0  0  0  0  0
   28.9550   32.1100   35.9440 H   0  0  0  0  0  0  0  0  0  0  0  0
   30.1670   33.4030   36.3380 H   0  0  0  0  0  0  0  0  0  0  0  0
   30.0500   32.3390   38.6420 H   0  0  0  0  0  0  0  0  0  0  0  0
   30.7060   29.8100   39.0940 N   0  0  0  0  0  0  0  0  0  0  0  0
   30.0610   29.1850   39.5830 H   0  0  0  0  0  0  0  0  0  0  0  0
   31.6200   30.0420   39.5770 H   0  0  0  0  0  0  0  0  0  0  0  0
   35.3250   29.1470   38.0610 C   0  0  0  0  0  0  0  0  0  0  0  0
   36.1620   29.9570   37.3630 C   0  0  0  0  0  0  0  0  0  0  0  0
   37.2790   30.4400   38.0620 C   0  0  0  0  0  0  0  0  0  0  0  0
   37.4170   30.0500   39.3750 C   0  0  0  0  0  0  0  0  0  0  0  0
   36.5760   29.2380   40.0710 C   0  0  0  0  0  0  0  0  0  0  0  0
   35.5010   28.7920   39.3490 N   0  0  0  0  0  0  0  0  0  0  0  0
   36.0420   30.2510   36.3440 H   0  0  0  0  0  0  0  0  0  0  0  0
   37.9880   31.0880   37.5750 H   0  0  0  0  0  0  0  0  0  0  0  0
   38.2930   30.4480   39.8700 H   0  0  0  0  0  0  0  0  0  0  0  0
   36.7580   28.8570   41.4410 C   0  0  0  0  0  0  0  0  0  0  0  0
   36.5070   27.6370   42.0040 C   0  0  0  0  0  0  0  0  0  0  0  0
   36.1250   26.7680   41.4680 H   0  0  0  0  0  0  0  0  0  0  0  0
   36.8430   27.7680   43.3550 C   0  0  0  0  0  0  0  0  0  0  0  0
   36.7210   26.9070   44.0030 H   0  0  0  0  0  0  0  0  0  0  0  0
   37.2740   29.0310   43.5590 N   0  0  0  0  0  0  0  0  0  0  0  0
   37.5530   29.2400   44.5420 H   0  0  0  0  0  0  0  0  0  0  0  0
   37.2170   29.6680   42.4050 N   0  0  0  0  0  0  0  0  0  0  0  0
  1  2  1  0  0  0  0
  2  8  1  0  0  0  0
  2  3  2  0  0  0  0
  3 26  1  0  0  0  0
  4  3  1  0  0  0  0
  5  4  2  0  0  0  0
  6  1  2  0  0  0  0
  6  5  1  0  0  0  0
  7  1  1  0  0  0  0
  9 15  1  6  0  0  0
  9  5  1  0  0  0  0
  9 14  1  0  0  0  0
 10 11  1  0  0  0  0
 10  9  1  0  0  0  0
 11 18  1  0  0  0  0
 11 12  1  0  0  0  0
 12 21  1  0  0  0  0
 12 13  1  0  0  0  0
 13 14  2  0  0  0  0
 13 22  1  0  0  0  0
 14 23  1  0  0  0  0
 16 10  1  0  0  0  0
 17 10  1  0  0  0  0
 19 11  1  0  0  0  0
 20 12  1  0  0  0  0
 23 25  1  0  0  0  0
 23 24  1  0  0  0  0
 26 31  1  0  0  0  0
 27 26  2  0  0  0  0
 27 28  1  0  0  0  0
 28 29  2  0  0  0  0
 29 34  1  0  0  0  0
 29 30  1  0  0  0  0
 30 35  1  0  0  0  0
 31 30  2  0  0  0  0
 32 27  1  0  0  0  0
 33 28  1  0  0  0  0
 35 36  1  0  0  0  0
 35 42  2  0  0  0  0
 36 38  2  0  0  0  0
 37 36  1  0  0  0  0
 38 40  1  0  0  0  0
 38 39  1  0  0  0  0
 40 41  1  0  0  0  0
 42 40  1  0  0  0  0
M  END
>  <minimizedAffinity>
-6.38226509

$$$$

 OpenBabel03252505093D

 42 45  0  0  1  0  0  0  0  0999 V2000
   36.7430   28.7300   37.7810 C   0  0  0  0  0  0  0  0  0  0  0  0
   36.9110   28.0700   39.0270 C   0  0  0  0  0  0  0  0  0  0  0  0
   37.5470   28.8050   40.0740 C   0  0  0  0  0  0  0  0  0  0  0  0
   37.9560   30.0750   39.8370 N   0  0  0  0  0  0  0  0  0  0  0  0
   37.7720   30.6500   38.6370 C   0  0  0  0  0  0  0  0  0  0  0  0
   37.1710   29.9930   37.6080 N   0  0  0  0  0  0  0  0  0  0  0  0
   36.2620   28.1660   37.0000 H   0  0  0  0  0  0  0  0  0  0  0  0
   36.5680   27.0510   39.1740 H   0  0  0  0  0  0  0  0  0  0  0  0
   38.2430   32.0410   38.4330 C   0  0  2  0  0  0  0  0  0  0  0  0
   39.6290   31.9300   37.8610 C   0  0  0  0  0  0  0  0  0  0  0  0
   40.7420   32.2270   38.7800 C   0  0  0  0  0  0  0  0  0  0  0  0
   40.4610   33.6330   39.3120 C   0  0  0  0  0  0  0  0  0  0  0  0
   39.2550   33.6900   40.1310 C   0  0  0  0  0  0  0  0  0  0  0  0
   38.1320   32.8420   39.6310 C   0  0  0  0  0  0  0  0  0  0  0  0
   37.5670   32.4660   37.6490 H   0  0  0  0  0  0  0  0  0  0  0  0
   39.8250   30.9220   37.4130 H   0  0  0  0  0  0  0  0  0  0  0  0
   39.7110   32.6260   37.0010 H   0  0  0  0  0  0  0  0  0  0  0  0
   40.9560   31.5010   39.5650 H   0  0  0  0  0  0  0  0  0  0  0  0
   41.6640   32.3390   38.1740 H   0  0  0  0  0  0  0  0  0  0  0  0
   40.4120   34.3110   38.4540 H   0  0  0  0  0  0  0  0  0  0  0  0
   41.3040   33.8610   39.9690 H   0  0  0  0  0  0  0  0  0  0  0  0
   39.0190   34.2160   41.0190 H   0  0  0  0  0  0  0  0  0  0  0  0
   36.8850   32.7970   40.3390 N   0  0  0  0  0  0  0  0  0  0  0  0
   36.0160   33.2610   40.0670 H   0  0  0  0  0  0  0  0  0  0  0  0
   36.8740   32.2240   41.2310 H   0  0  0  0  0  0  0  0  0  0  0  0
   37.7290   28.1540   41.3640 C   0  0  0  0  0  0  0  0  0  0  0  0
   36.7050   28.1820   42.2540 C   0  0  0  0  0  0  0  0  0  0  0  0
   36.9340   27.5380   43.4800 C   0  0  0  0  0  0  0  0  0  0  0  0
   38.1640   26.9470   43.6600 C   0  0  0  0  0  0  0  0  0  0  0  0
   39.1880   26.9200   42.7650 C   0  0  0  0  0  0  0  0  0  0  0  0
   38.9180   27.5600   41.5840 N   0  0  0  0  0  0  0  0  0  0  0  0
   35.7550   28.6460   42.1010 H   0  0  0  0  0  0  0  0  0  0  0  0
   36.1680   27.5190   44.2370 H   0  0  0  0  0  0  0  0  0  0  0  0
   38.2920   26.4650   44.6190 H   0  0  0  0  0  0  0  0  0  0  0  0
   40.4550   26.2910   42.9940 C   0  0  0  0  0  0  0  0  0  0  0  0
   41.5270   26.8020   43.6710 C   0  0  0  0  0  0  0  0  0  0  0  0
   41.5570   27.7850   44.1420 H   0  0  0  0  0  0  0  0  0  0  0  0
   42.5140   25.8130   43.6190 C   0  0  0  0  0  0  0  0  0  0  0  0
   43.4650   26.0080   44.1020 H   0  0  0  0  0  0  0  0  0  0  0  0
   42.0200   24.7640   42.9290 N   0  0  0  0  0  0  0  0  0  0  0  0
   42.6800   23.9620   42.8280 H   0  0  0  0  0  0  0  0  0  0  0  0
   40.7890   25.0660   42.5610 N   0  0  0  0  0  0  0  0  0  0  0  0
  1  2  1  0  0  0  0
  2  8  1  0  0  0  0
  2  3  2  0  0  0  0
  3 26  1  0  0  0  0
  4  3  1  0  0  0  0
  5  4  2  0  0  0  0
  6  1  2  0  0  0  0
  6  5  1  0  0  0  0
  7  1  1  0  0  0  0
  9 15  1  6  0  0  0
  9  5  1  0  0  0  0
  9 14  1  0  0  0  0
 10  9  1  0  0  0  0
 10 11  1  0  0  0  0
 11 12  1  0  0  0  0
 11 18  1  0  0  0  0
 12 21  1  0  0  0  0
 12 13  1  0  0  0  0
 13 22  1  0  0  0  0
 14 13  2  0  0  0  0
 14 23  1  0  0  0  0
 16 10  1  0  0  0  0
 17 10  1  0  0  0  0
 19 11  1  0  0  0  0
 20 12  1  0  0  0  0
 23 25  1  0  0  0  0
 24 23  1  0  0  0  0
 26 31  2  0  0  0  0
 26 27  1  0  0  0  0
 27 28  2  0  0  0  0
 28 29  1  0  0  0  0
 28 33  1  0  0  0  0
 29 34  1  0  0  0  0
 30 35  1  0  0  0  0
 30 29  2  0  0  0  0
 31 30  1  0  0  0  0
 32 27  1  0  0  0  0
 35 36  1  0  0  0  0
 36 37  1  0  0  0  0
 38 36  2  0  0  0  0
 38 39  1  0  0  0  0
 40 38  1  0  0  0  0
 41 40  1  0  0  0  0
 42 40  1  0  0  0  0
 42 35  2  0  0  0  0
M  END
>  <minimizedAffinity>
-6.35917664

$$$$

 OpenBabel03252505093D

 42 45  0  0  1  0  0  0  0  0999 V2000
   39.9870   32.8000   40.7490 C   0  0  0  0  0  0  0  0  0  0  0  0
   40.3890   31.6460   41.4730 C   0  0  0  0  0  0  0  0  0  0  0  0
   39.6740   30.4350   41.2190 C   0  0  0  0  0  0  0  0  0  0  0  0
   38.6630   30.4410   40.3170 N   0  0  0  0  0  0  0  0  0  0  0  0
   38.3250   31.5640   39.6610 C   0  0  0  0  0  0  0  0  0  0  0  0
   38.9750   32.7410   39.8670 N   0  0  0  0  0  0  0  0  0  0  0  0
   40.5340   33.7060   40.9500 H   0  0  0  0  0  0  0  0  0  0  0  0
   41.2050   31.6850   42.1870 H   0  0  0  0  0  0  0  0  0  0  0  0
   37.2070   31.5120   38.6880 C   0  0  2  0  0  0  0  0  0  0  0  0
   36.2230   30.5180   39.2390 C   0  0  0  0  0  0  0  0  0  0  0  0
   36.1860   29.2000   38.5800 C   0  0  0  0  0  0  0  0  0  0  0  0
   35.9240   29.4960   37.1030 C   0  0  0  0  0  0  0  0  0  0  0  0
   37.0270   30.2130   36.4730 C   0  0  0  0  0  0  0  0  0  0  0  0
   37.6610   31.2500   37.3410 C   0  0  0  0  0  0  0  0  0  0  0  0
   36.7430   32.5300   38.7230 H   0  0  0  0  0  0  0  0  0  0  0  0
   36.3670   30.3400   40.3360 H   0  0  0  0  0  0  0  0  0  0  0  0
   35.2060   30.9550   39.1690 H   0  0  0  0  0  0  0  0  0  0  0  0
   37.0300   28.5300   38.7470 H   0  0  0  0  0  0  0  0  0  0  0  0
   35.2730   28.6720   38.9240 H   0  0  0  0  0  0  0  0  0  0  0  0
   34.9790   30.0440   37.0340 H   0  0  0  0  0  0  0  0  0  0  0  0
   35.8670   28.5150   36.6240 H   0  0  0  0  0  0  0  0  0  0  0  0
   37.4710   30.1410   35.5140 H   0  0  0  0  0  0  0  0  0  0  0  0
   38.7600   32.0320   36.8540 N   0  0  0  0  0  0  0  0  0  0  0  0
   38.7220   33.0060   36.5460 H   0  0  0  0  0  0  0  0  0  0  0  0
   39.7000   31.5440   36.8120 H   0  0  0  0  0  0  0  0  0  0  0  0
   40.0670   29.2360   41.9450 C   0  0  0  0  0  0  0  0  0  0  0  0
   41.1990   29.2740   42.6940 C   0  0  0  0  0  0  0  0  0  0  0  0
   41.5310   28.0910   43.3720 C   0  0  0  0  0  0  0  0  0  0  0  0
   40.6850   27.0160   43.2150 C   0  0  0  0  0  0  0  0  0  0  0  0
   39.5510   26.9830   42.4640 C   0  0  0  0  0  0  0  0  0  0  0  0
   39.2680   28.1580   41.8210 N   0  0  0  0  0  0  0  0  0  0  0  0
   41.8470   30.1150   42.8060 H   0  0  0  0  0  0  0  0  0  0  0  0
   42.4150   28.0440   43.9860 H   0  0  0  0  0  0  0  0  0  0  0  0
   40.9830   26.1300   43.7570 H   0  0  0  0  0  0  0  0  0  0  0  0
   38.6960   25.8400   42.3280 C   0  0  0  0  0  0  0  0  0  0  0  0
   37.3460   25.8320   42.1130 C   0  0  0  0  0  0  0  0  0  0  0  0
   36.7250   26.7220   42.0120 H   0  0  0  0  0  0  0  0  0  0  0  0
   36.9800   24.4840   42.0540 C   0  0  0  0  0  0  0  0  0  0  0  0
   35.9370   24.2390   41.8880 H   0  0  0  0  0  0  0  0  0  0  0  0
   38.0920   23.7400   42.2320 N   0  0  0  0  0  0  0  0  0  0  0  0
   37.9330   22.7090   42.2070 H   0  0  0  0  0  0  0  0  0  0  0  0
   39.1090   24.5650   42.3940 N   0  0  0  0  0  0  0  0  0  0  0  0
  1  7  1  0  0  0  0
  1  2  1  0  0  0  0
  2  8  1  0  0  0  0
  3  2  2  0  0  0  0
  3 26  1  0  0  0  0
  4  3  1  0  0  0  0
  5  6  1  0  0  0  0
  5  4  2  0  0  0  0
  6  1  2  0  0  0  0
  9 15  1  1  0  0  0
  9 10  1  0  0  0  0
  9  5  1  0  0  0  0
 10 16  1  0  0  0  0
 11 18  1  0  0  0  0
 11 19  1  0  0  0  0
 11 10  1  0  0  0  0
 12 11  1  0  0  0  0
 13 12  1  0  0  0  0
 13 14  2  0  0  0  0
 14  9  1  0  0  0  0
 17 10  1  0  0  0  0
 20 12  1  0  0  0  0
 21 12  1  0  0  0  0
 22 13  1  0  0  0  0
 23 14  1  0  0  0  0
 24 23  1  0  0  0  0
 25 23  1  0  0  0  0
 26 27  1  0  0  0  0
 27 32  1  0  0  0  0
 27 28  2  0  0  0  0
 28 33  1  0  0  0  0
 29 28  1  0  0  0  0
 29 34  1  0  0  0  0
 30 29  2  0  0  0  0
 31 26  2  0  0  0  0
 31 30  1  0  0  0  0
 35 42  2  0  0  0  0
 35 30  1  0  0  0  0
 36 35  1  0  0  0  0
 37 36  1  0  0  0  0
 38 36  2  0  0  0  0
 38 40  1  0  0  0  0
 39 38  1  0  0  0  0
 40 42  1  0  0  0  0
 41 40  1  0  0  0  0
M  END
>  <minimizedAffinity>
-6.1715951

$$$$

 OpenBabel03252505093D

 42 45  0  0  1  0  0  0  0  0999 V2000
   36.2790   29.5400   37.1700 C   0  0  0  0  0  0  0  0  0  0  0  0
   36.2440   28.5910   38.2260 C   0  0  0  0  0  0  0  0  0  0  0  0
   36.9740   28.9100   39.4140 C   0  0  0  0  0  0  0  0  0  0  0  0
   37.6540   30.0800   39.4780 N   0  0  0  0  0  0  0  0  0  0  0  0
   37.6520   30.9410   38.4460 C   0  0  0  0  0  0  0  0  0  0  0  0
   36.9730   30.6840   37.2950 N   0  0  0  0  0  0  0  0  0  0  0  0
   35.7250   29.2880   36.2810 H   0  0  0  0  0  0  0  0  0  0  0  0
   35.6870   27.6650   38.1330 H   0  0  0  0  0  0  0  0  0  0  0  0
   38.4170   32.2050   38.5710 C   0  0  2  0  0  0  0  0  0  0  0  0
   39.8430   31.8610   38.2400 C   0  0  0  0  0  0  0  0  0  0  0  0
   40.7770   31.7770   39.3760 C   0  0  0  0  0  0  0  0  0  0  0  0
   40.6710   33.1280   40.0850 C   0  0  0  0  0  0  0  0  0  0  0  0
   39.3570   33.3460   40.6790 C   0  0  0  0  0  0  0  0  0  0  0  0
   38.2180   32.8450   39.8520 C   0  0  0  0  0  0  0  0  0  0  0  0
   38.0150   32.8700   37.7660 H   0  0  0  0  0  0  0  0  0  0  0  0
   39.9270   30.9020   37.6650 H   0  0  0  0  0  0  0  0  0  0  0  0
   40.2350   32.6270   37.5400 H   0  0  0  0  0  0  0  0  0  0  0  0
   40.6770   30.9240   40.0490 H   0  0  0  0  0  0  0  0  0  0  0  0
   41.8090   31.7570   38.9700 H   0  0  0  0  0  0  0  0  0  0  0  0
   40.9340   33.9060   39.3620 H   0  0  0  0  0  0  0  0  0  0  0  0
   41.3870   33.0720   40.9090 H   0  0  0  0  0  0  0  0  0  0  0  0
   39.0480   33.7900   41.5890 H   0  0  0  0  0  0  0  0  0  0  0  0
   36.8680   32.9890   40.3120 N   0  0  0  0  0  0  0  0  0  0  0  0
   36.1820   33.6690   39.9760 H   0  0  0  0  0  0  0  0  0  0  0  0
   36.5600   32.3210   41.0750 H   0  0  0  0  0  0  0  0  0  0  0  0
   36.9530   27.9560   40.5140 C   0  0  0  0  0  0  0  0  0  0  0  0
   36.7290   28.4210   41.7700 C   0  0  0  0  0  0  0  0  0  0  0  0
   36.7200   27.4590   42.7910 C   0  0  0  0  0  0  0  0  0  0  0  0
   36.9370   26.1500   42.4260 C   0  0  0  0  0  0  0  0  0  0  0  0
   37.1610   25.6890   41.1660 C   0  0  0  0  0  0  0  0  0  0  0  0
   37.1610   26.6620   40.2030 N   0  0  0  0  0  0  0  0  0  0  0  0
   36.5620   29.4410   42.0390 H   0  0  0  0  0  0  0  0  0  0  0  0
   36.5480   27.7520   43.8140 H   0  0  0  0  0  0  0  0  0  0  0  0
   36.9200   25.4470   43.2480 H   0  0  0  0  0  0  0  0  0  0  0  0
   37.3830   24.3130   40.8280 C   0  0  0  0  0  0  0  0  0  0  0  0
   36.7030   23.5630   39.9090 C   0  0  0  0  0  0  0  0  0  0  0  0
   35.8800   23.9250   39.2930 H   0  0  0  0  0  0  0  0  0  0  0  0
   37.2900   22.2940   39.9480 C   0  0  0  0  0  0  0  0  0  0  0  0
   36.9030   21.5260   39.2890 H   0  0  0  0  0  0  0  0  0  0  0  0
   38.2780   22.3180   40.8670 N   0  0  0  0  0  0  0  0  0  0  0  0
   38.7880   21.4140   40.9800 H   0  0  0  0  0  0  0  0  0  0  0  0
   38.3200   23.5320   41.3840 N   0  0  0  0  0  0  0  0  0  0  0  0
  1  6  2  0  0  0  0
  1  2  1  0  0  0  0
  2  3  2  0  0  0  0
  3  4  1  0  0  0  0
  3 26  1  0  0  0  0
  5  9  1  0  0  0  0
  5  4  2  0  0  0  0
  6  5  1  0  0  0  0
  7  1  1  0  0  0  0
  8  2  1  0  0  0  0
  9 15  1  6  0  0  0
  9 14  1  0  0  0  0
 10  9  1  0  0  0  0
 10 11  1  0  0  0  0
 11 18  1  0  0  0  0
 11 12  1  0  0  0  0
 12 13  1  0  0  0  0
 12 21  1  0  0  0  0
 13 22  1  0  0  0  0
 14 23  1  0  0  0  0
 14 13  2  0  0  0  0
 16 10  1  0  0  0  0
 17 10  1  0  0  0  0
 19 11  1  0  0  0  0
 20 12  1  0  0  0  0
 23 25  1  0  0  0  0
 24 23  1  0  0  0  0
 26 27  1  0  0  0  0
 27 32  1  0  0  0  0
 27 28  2  0  0  0  0
 28 33  1  0  0  0  0
 29 28  1  0  0  0  0
 29 34  1  0  0  0  0
 30 29  2  0  0  0  0
 31 26  2  0  0  0  0
 31 30  1  0  0  0  0
 35 30  1  0  0  0  0
 35 42  2  0  0  0  0
 36 38  2  0  0  0  0
 36 35  1  0  0  0  0
 37 36  1  0  0  0  0
 38 40  1  0  0  0  0
 39 38  1  0  0  0  0
 40 41  1  0  0  0  0
 40 42  1  0  0  0  0
M  END
>  <minimizedAffinity>
-6.14605856

$$$$

 OpenBabel03252505093D

 42 45  0  0  1  0  0  0  0  0999 V2000
   36.8670   24.7960   40.8480 C   0  0  0  0  0  0  0  0  0  0  0  0
   36.6160   25.8550   39.9360 C   0  0  0  0  0  0  0  0  0  0  0  0
   37.2720   27.1000   40.1860 C   0  0  0  0  0  0  0  0  0  0  0  0
   38.0870   27.2130   41.2620 N   0  0  0  0  0  0  0  0  0  0  0  0
   38.2880   26.1760   42.0920 C   0  0  0  0  0  0  0  0  0  0  0  0
   37.6880   24.9710   41.8970 N   0  0  0  0  0  0  0  0  0  0  0  0
   36.3670   23.8630   40.6480 H   0  0  0  0  0  0  0  0  0  0  0  0
   35.9540   25.7210   39.0860 H   0  0  0  0  0  0  0  0  0  0  0  0
   39.1880   26.3590   43.2560 C   0  0  2  0  0  0  0  0  0  0  0  0
   39.6040   27.8030   43.2370 C   0  0  0  0  0  0  0  0  0  0  0  0
   40.9750   28.0840   42.7770 C   0  0  0  0  0  0  0  0  0  0  0  0
   41.8820   27.2470   43.6800 C   0  0  0  0  0  0  0  0  0  0  0  0
   41.6940   25.8130   43.4860 C   0  0  0  0  0  0  0  0  0  0  0  0
   40.2740   25.4040   43.2680 C   0  0  0  0  0  0  0  0  0  0  0  0
   38.5430   26.1850   44.1540 H   0  0  0  0  0  0  0  0  0  0  0  0
   38.9090   28.4370   42.6270 H   0  0  0  0  0  0  0  0  0  0  0  0
   39.5060   28.2100   44.2640 H   0  0  0  0  0  0  0  0  0  0  0  0
   41.1860   27.9590   41.7140 H   0  0  0  0  0  0  0  0  0  0  0  0
   41.2150   29.1350   43.0390 H   0  0  0  0  0  0  0  0  0  0  0  0
   41.6990   27.5540   44.7140 H   0  0  0  0  0  0  0  0  0  0  0  0
   42.8990   27.4810   43.3550 H   0  0  0  0  0  0  0  0  0  0  0  0
   42.3710   25.0000   43.4670 H   0  0  0  0  0  0  0  0  0  0  0  0
   39.9400   24.0250   43.0610 N   0  0  0  0  0  0  0  0  0  0  0  0
   39.5100   23.3960   43.7420 H   0  0  0  0  0  0  0  0  0  0  0  0
   40.1640   23.6280   42.1040 H   0  0  0  0  0  0  0  0  0  0  0  0
   37.0340   28.2030   39.2660 C   0  0  0  0  0  0  0  0  0  0  0  0
   36.3140   27.9630   38.1390 C   0  0  0  0  0  0  0  0  0  0  0  0
   36.1160   29.0610   37.2880 C   0  0  0  0  0  0  0  0  0  0  0  0
   36.6650   30.2630   37.6720 C   0  0  0  0  0  0  0  0  0  0  0  0
   37.3860   30.4990   38.8020 C   0  0  0  0  0  0  0  0  0  0  0  0
   37.5530   29.4000   39.6010 N   0  0  0  0  0  0  0  0  0  0  0  0
   35.8940   27.0240   37.8540 H   0  0  0  0  0  0  0  0  0  0  0  0
   35.5540   28.9480   36.3760 H   0  0  0  0  0  0  0  0  0  0  0  0
   36.4850   31.0770   36.9840 H   0  0  0  0  0  0  0  0  0  0  0  0
   37.9400   31.7700   39.1640 C   0  0  0  0  0  0  0  0  0  0  0  0
   37.3510   32.7510   39.9110 C   0  0  0  0  0  0  0  0  0  0  0  0
   36.3510   32.6920   40.3430 H   0  0  0  0  0  0  0  0  0  0  0  0
   38.2880   33.7860   39.9840 C   0  0  0  0  0  0  0  0  0  0  0  0
   38.0280   34.6800   40.5380 H   0  0  0  0  0  0  0  0  0  0  0  0
   39.3850   33.4070   39.2950 N   0  0  0  0  0  0  0  0  0  0  0  0
   40.1550   34.1110   39.2840 H   0  0  0  0  0  0  0  0  0  0  0  0
   39.1610   32.1990   38.8120 N   0  0  0  0  0  0  0  0  0  0  0  0
  1  6  1  0  0  0  0
  2  3  1  0  0  0  0
  2  1  2  0  0  0  0
  3  4  2  0  0  0  0
  4  5  1  0  0  0  0
  5  9  1  0  0  0  0
  6  5  2  0  0  0  0
  7  1  1  0  0  0  0
  8  2  1  0  0  0  0
  9 14  1  0  0  0  0
  9 15  1  1  0  0  0
 10  9  1  0  0  0  0
 10 17  1  0  0  0  0
 11 19  1  0  0  0  0
 11 10  1  0  0  0  0
 11 12  1  0  0  0  0
 12 20  1  0  0  0  0
 13 12  1  0  0  0  0
 14 13  2  0  0  0  0
 16 10  1  0  0  0  0
 18 11  1  0  0  0  0
 21 12  1  0  0  0  0
 22 13  1  0  0  0  0
 23 14  1  0  0  0  0
 23 24  1  0  0  0  0
 25 23  1  0  0  0  0
 26 31  1  0  0  0  0
 26  3  1  0  0  0  0
 27 26  2  0  0  0  0
 28 29  2  0  0  0  0
 28 27  1  0  0  0  0
 29 30  1  0  0  0  0
 30 35  1  0  0  0  0
 30 31  2  0  0  0  0
 32 27  1  0  0  0  0
 33 28  1  0  0  0  0
 34 29  1  0  0  0  0
 35 36  1  0  0  0  0
 36 38  2  0  0  0  0
 36 37  1  0  0  0  0
 38 39  1  0  0  0  0
 40 38  1  0  0  0  0
 41 40  1  0  0  0  0
 42 35  2  0  0  0  0
 42 40  1  0  0  0  0
M  END
>  <minimizedAffinity>
-6.04830313

$$$$

 OpenBabel03252505093D

 42 45  0  0  1  0  0  0  0  0999 V2000
   34.8250   28.8890   35.3840 C   0  0  0  0  0  0  0  0  0  0  0  0
   35.5100   28.7380   36.6190 C   0  0  0  0  0  0  0  0  0  0  0  0
   34.7410   28.8940   37.8140 C   0  0  0  0  0  0  0  0  0  0  0  0
   33.4190   29.1750   37.7180 N   0  0  0  0  0  0  0  0  0  0  0  0
   32.8230   29.3070   36.5210 C   0  0  0  0  0  0  0  0  0  0  0  0
   33.5100   29.1680   35.3550 N   0  0  0  0  0  0  0  0  0  0  0  0
   35.4150   28.7690   34.4910 H   0  0  0  0  0  0  0  0  0  0  0  0
   36.5710   28.5140   36.6510 H   0  0  0  0  0  0  0  0  0  0  0  0
   31.3740   29.6180   36.4770 C   0  0  2  0  0  0  0  0  0  0  0  0
   31.1610   30.4230   35.2250 C   0  0  0  0  0  0  0  0  0  0  0  0
   30.9470   31.8700   35.4050 C   0  0  0  0  0  0  0  0  0  0  0  0
   29.7600   31.9860   36.3610 C   0  0  0  0  0  0  0  0  0  0  0  0
   30.0610   31.4700   37.6920 C   0  0  0  0  0  0  0  0  0  0  0  0
   30.9060   30.2370   37.6960 C   0  0  0  0  0  0  0  0  0  0  0  0
   30.8670   28.6280   36.3550 H   0  0  0  0  0  0  0  0  0  0  0  0
   31.9970   30.2960   34.4900 H   0  0  0  0  0  0  0  0  0  0  0  0
   30.2740   30.0180   34.6940 H   0  0  0  0  0  0  0  0  0  0  0  0
   31.8060   32.4720   35.7030 H   0  0  0  0  0  0  0  0  0  0  0  0
   30.5730   32.2820   34.4450 H   0  0  0  0  0  0  0  0  0  0  0  0
   28.9090   31.4750   35.9010 H   0  0  0  0  0  0  0  0  0  0  0  0
   29.5870   33.0600   36.4680 H   0  0  0  0  0  0  0  0  0  0  0  0
   29.7990   31.8010   38.6630 H   0  0  0  0  0  0  0  0  0  0  0  0
   31.2840   29.6210   38.9340 N   0  0  0  0  0  0  0  0  0  0  0  0
   30.8870   28.7670   39.3320 H   0  0  0  0  0  0  0  0  0  0  0  0
   32.0500   30.1050   39.4840 H   0  0  0  0  0  0  0  0  0  0  0  0
   35.4170   28.7420   39.0940 C   0  0  0  0  0  0  0  0  0  0  0  0
   35.5630   29.8370   39.8840 C   0  0  0  0  0  0  0  0  0  0  0  0
   36.2220   29.6330   41.1060 C   0  0  0  0  0  0  0  0  0  0  0  0
   36.6520   28.3550   41.3840 C   0  0  0  0  0  0  0  0  0  0  0  0
   36.5030   27.2610   40.5910 C   0  0  0  0  0  0  0  0  0  0  0  0
   35.8550   27.5080   39.4100 N   0  0  0  0  0  0  0  0  0  0  0  0
   35.2240   30.8230   39.6550 H   0  0  0  0  0  0  0  0  0  0  0  0
   36.3750   30.4550   41.7860 H   0  0  0  0  0  0  0  0  0  0  0  0
   37.1530   28.2500   42.3370 H   0  0  0  0  0  0  0  0  0  0  0  0
   36.9670   25.9450   40.9200 C   0  0  0  0  0  0  0  0  0  0  0  0
   37.6300   25.5580   42.0510 C   0  0  0  0  0  0  0  0  0  0  0  0
   37.8990   26.2190   42.8750 H   0  0  0  0  0  0  0  0  0  0  0  0
   37.8630   24.1860   41.9020 C   0  0  0  0  0  0  0  0  0  0  0  0
   38.3840   23.6620   42.6950 H   0  0  0  0  0  0  0  0  0  0  0  0
   37.3460   23.8010   40.7160 N   0  0  0  0  0  0  0  0  0  0  0  0
   37.4650   22.7870   40.5000 H   0  0  0  0  0  0  0  0  0  0  0  0
   36.8150   24.8640   40.1420 N   0  0  0  0  0  0  0  0  0  0  0  0
  1  2  1  0  0  0  0
  2  8  1  0  0  0  0
  2  3  2  0  0  0  0
  3 26  1  0  0  0  0
  4  3  1  0  0  0  0
  5  4  2  0  0  0  0
  6  1  2  0  0  0  0
  6  5  1  0  0  0  0
  7  1  1  0  0  0  0
  9 15  1  6  0  0  0
  9  5  1  0  0  0  0
  9 14  1  0  0  0  0
 10 11  1  0  0  0  0
 10  9  1  0  0  0  0
 11 18  1  0  0  0  0
 11 12  1  0  0  0  0
 12 21  1  0  0  0  0
 12 13  1  0  0  0  0
 13 14  2  0  0  0  0
 13 22  1  0  0  0  0
 14 23  1  0  0  0  0
 16 10  1  0  0  0  0
 17 10  1  0  0  0  0
 19 11  1  0  0  0  0
 20 12  1  0  0  0  0
 23 24  1  0  0  0  0
 23 25  1  0  0  0  0
 26 31  2  0  0  0  0
 26 27  1  0  0  0  0
 27 28  2  0  0  0  0
 28 29  1  0  0  0  0
 28 33  1  0  0  0  0
 29 34  1  0  0  0  0
 30 35  1  0  0  0  0
 30 29  2  0  0  0  0
 31 30  1  0  0  0  0
 32 27  1  0  0  0  0
 35 36  1  0  0  0  0
 36 37  1  0  0  0  0
 38 36  2  0  0  0  0
 38 39  1  0  0  0  0
 40 38  1  0  0  0  0
 41 40  1  0  0  0  0
 42 40  1  0  0  0  0
 42 35  2  0  0  0  0
M  END
>  <minimizedAffinity>
-5.92424202

$$$$
