
 OpenBabel03252505053D

 42 45  0  0  1  0  0  0  0  0999 V2000
   44.5770   35.5810   44.6210 C   0  0  0  0  0  0  0  0  0  0  0  0
   45.2380   35.5980   43.3650 C   0  0  0  0  0  0  0  0  0  0  0  0
   46.3250   34.6860   43.1880 C   0  0  0  0  0  0  0  0  0  0  0  0
   46.6700   33.8630   44.2070 N   0  0  0  0  0  0  0  0  0  0  0  0
   46.0080   33.8910   45.3760 C   0  0  0  0  0  0  0  0  0  0  0  0
   44.9670   34.7390   45.5930 N   0  0  0  0  0  0  0  0  0  0  0  0
   43.7590   36.2720   44.7410 H   0  0  0  0  0  0  0  0  0  0  0  0
   44.9300   36.2750   42.5750 H   0  0  0  0  0  0  0  0  0  0  0  0
   46.4310   32.9700   46.4580 C   0  0  2  0  0  0  0  0  0  0  0  0
   46.9670   31.7440   45.7720 C   0  0  0  0  0  0  0  0  0  0  0  0
   46.1020   30.5520   45.7910 C   0  0  0  0  0  0  0  0  0  0  0  0
   45.8070   30.2900   47.2680 C   0  0  0  0  0  0  0  0  0  0  0  0
   45.0160   31.3540   47.8770 C   0  0  0  0  0  0  0  0  0  0  0  0
   45.3800   32.7290   47.4200 C   0  0  0  0  0  0  0  0  0  0  0  0
   47.2790   33.4910   46.9700 H   0  0  0  0  0  0  0  0  0  0  0  0
   47.2450   31.9400   44.7050 H   0  0  0  0  0  0  0  0  0  0  0  0
   47.9290   31.4660   46.2520 H   0  0  0  0  0  0  0  0  0  0  0  0
   45.2080   30.5690   45.1660 H   0  0  0  0  0  0  0  0  0  0  0  0
   46.7110   29.6820   45.4710 H   0  0  0  0  0  0  0  0  0  0  0  0
   46.7640   30.1410   47.7780 H   0  0  0  0  0  0  0  0  0  0  0  0
   45.1900   29.3880   47.2780 H   0  0  0  0  0  0  0  0  0  0  0  0
   44.2270   31.3430   48.5830 H   0  0  0  0  0  0  0  0  0  0  0  0
   44.6830   33.8730   47.9330 N   0  0  0  0  0  0  0  0  0  0  0  0
   45.0330   34.5340   48.6290 H   0  0  0  0  0  0  0  0  0  0  0  0
   43.7100   34.0400   47.5470 H   0  0  0  0  0  0  0  0  0  0  0  0
   47.0200   34.6800   41.9090 C   0  0  0  0  0  0  0  0  0  0  0  0
   48.1660   35.4000   41.7910 C   0  0  0  0  0  0  0  0  0  0  0  0
   48.7940   35.3590   40.5370 C   0  0  0  0  0  0  0  0  0  0  0  0
   48.1950   34.6010   39.5560 C   0  0  0  0  0  0  0  0  0  0  0  0
   47.0470   33.8810   39.6800 C   0  0  0  0  0  0  0  0  0  0  0  0
   46.4700   33.9510   40.9190 N   0  0  0  0  0  0  0  0  0  0  0  0
   48.6200   35.9840   42.5610 H   0  0  0  0  0  0  0  0  0  0  0  0
   49.7080   35.9050   40.3670 H   0  0  0  0  0  0  0  0  0  0  0  0
   48.7170   34.6010   38.6100 H   0  0  0  0  0  0  0  0  0  0  0  0
   46.4560   33.1030   38.6300 C   0  0  0  0  0  0  0  0  0  0  0  0
   45.1290   32.8330   38.4440 C   0  0  0  0  0  0  0  0  0  0  0  0
   44.3230   33.1840   39.0880 H   0  0  0  0  0  0  0  0  0  0  0  0
   45.0610   32.0410   37.2930 C   0  0  0  0  0  0  0  0  0  0  0  0
   44.0890   31.7050   36.9540 H   0  0  0  0  0  0  0  0  0  0  0  0
   46.3190   31.8640   36.8340 N   0  0  0  0  0  0  0  0  0  0  0  0
   46.3860   31.2830   35.9690 H   0  0  0  0  0  0  0  0  0  0  0  0
   47.1390   32.5040   37.6440 N   0  0  0  0  0  0  0  0  0  0  0  0
  1  7  1  0  0  0  0
  1  6  1  0  0  0  0
  2  1  2  0  0  0  0
  3  2  1  0  0  0  0
  3  4  2  0  0  0  0
  4  5  1  0  0  0  0
  5  6  2  0  0  0  0
  5  9  1  0  0  0  0
  8  2  1  0  0  0  0
  9 15  1  1  0  0  0
  9 14  1  0  0  0  0
 10 11  1  0  0  0  0
 10 17  1  0  0  0  0
 10  9  1  0  0  0  0
 11 12  1  0  0  0  0
 12 21  1  0  0  0  0
 12 20  1  0  0  0  0
 12 13  1  0  0  0  0
 13 22  1  0  0  0  0
 14 13  2  0  0  0  0
 14 23  1  0  0  0  0
 16 10  1  0  0  0  0
 18 11  1  0  0  0  0
 19 11  1  0  0  0  0
 23 24  1  0  0  0  0
 25 23  1  0  0  0  0
 26  3  1  0  0  0  0
 27 26  1  0  0  0  0
 27 32  1  0  0  0  0
 28 27  2  0  0  0  0
 29 30  2  0  0  0  0
 29 28  1  0  0  0  0
 30 31  1  0  0  0  0
 31 26  2  0  0  0  0
 33 28  1  0  0  0  0
 34 29  1  0  0  0  0
 35 30  1  0  0  0  0
 36 35  1  0  0  0  0
 36 37  1  0  0  0  0
 38 36  2  0  0  0  0
 39 38  1  0  0  0  0
 40 38  1  0  0  0  0
 40 42  1  0  0  0  0
 41 40  1  0  0  0  0
 42 35  2  0  0  0  0
M  END
>  <minimizedAffinity>
-7.16619492

>  <minimizedRMSD>
0.0583422557

$$$$
