
 OpenBabel03242519123D

 46 49  0  0  1  0  0  0  0  0999 V2000
   40.0250   33.2230   38.9350 N   0  0  0  0  0  0  0  0  0  0  0  0
   40.0490   33.0620   37.8880 H   0  0  0  0  0  0  0  0  0  0  0  0
   41.9640   35.0630   41.2850 N   0  0  0  0  0  0  0  0  0  0  0  0
   41.4630   33.7610   40.8380 C   0  0  0  0  0  0  0  0  0  0  0  0
   40.9170   34.1860   39.5000 C   0  0  2  0  0  0  0  0  0  0  0  0
   40.1080   35.4030   39.8730 C   0  0  0  0  0  0  0  0  0  0  0  0
   40.9310   36.0250   40.9670 C   0  0  0  0  0  0  0  0  0  0  0  0
   40.6540   33.3990   41.4720 H   0  0  0  0  0  0  0  0  0  0  0  0
   42.3370   33.1010   40.7590 H   0  0  0  0  0  0  0  0  0  0  0  0
   41.7010   34.5120   38.8150 H   0  0  0  0  0  0  0  0  0  0  0  0
   39.1740   35.0030   40.3600 H   0  0  0  0  0  0  0  0  0  0  0  0
   39.8930   36.0620   39.0330 H   0  0  0  0  0  0  0  0  0  0  0  0
   40.3510   36.1770   41.9010 H   0  0  0  0  0  0  0  0  0  0  0  0
   41.3810   36.9830   40.6350 H   0  0  0  0  0  0  0  0  0  0  0  0
   44.5210   36.5980   43.5040 C   0  0  0  0  0  0  0  0  0  0  0  0
   43.2640   36.3210   42.9780 C   0  0  0  0  0  0  0  0  0  0  0  0
   43.1720   35.4220   41.9010 C   0  0  0  0  0  0  0  0  0  0  0  0
   44.3300   34.8720   41.4350 N   0  0  0  0  0  0  0  0  0  0  0  0
   45.5360   35.1470   41.9510 C   0  0  0  0  0  0  0  0  0  0  0  0
   45.6280   36.0110   42.9870 N   0  0  0  0  0  0  0  0  0  0  0  0
   44.5030   37.3000   44.3310 H   0  0  0  0  0  0  0  0  0  0  0  0
   42.3570   36.7480   43.3390 H   0  0  0  0  0  0  0  0  0  0  0  0
   46.4270   34.6930   41.5560 H   0  0  0  0  0  0  0  0  0  0  0  0
   39.2990   31.0650   39.9530 C   0  0  0  0  0  0  0  0  0  0  0  0
   39.0510   32.3790   39.5090 C   0  0  0  0  0  0  0  0  0  0  0  0
   37.7580   32.7680   39.6870 C   0  0  0  0  0  0  0  0  0  0  0  0
   36.7400   32.0220   40.2330 C   0  0  0  0  0  0  0  0  0  0  0  0
   37.0360   30.7410   40.6530 C   0  0  0  0  0  0  0  0  0  0  0  0
   38.3210   30.2860   40.5020 C   0  0  0  0  0  0  0  0  0  0  0  0
   37.4380   33.7700   39.3820 H   0  0  0  0  0  0  0  0  0  0  0  0
   35.7280   32.3850   40.3500 H   0  0  0  0  0  0  0  0  0  0  0  0
   36.2840   30.1010   41.0910 H   0  0  0  0  0  0  0  0  0  0  0  0
   38.8710   28.7420   42.3180 C   0  0  0  0  0  0  0  0  0  0  0  0
   38.7730   29.7050   43.1650 O   0  0  0  0  0  0  0  0  0  0  0  0
   38.6070   28.9500   40.9460 N   0  0  0  0  0  0  0  0  0  0  0  0
   38.6060   28.1910   40.2220 H   0  0  0  0  0  0  0  0  0  0  0  0
   39.2530   27.3520   42.6420 C   0  0  0  0  0  0  0  0  0  0  0  0
   39.2860   26.1640   41.9630 C   0  0  0  0  0  0  0  0  0  0  0  0
   38.9580   26.2110   40.9260 H   0  0  0  0  0  0  0  0  0  0  0  0
   39.7490   25.1940   42.8260 C   0  0  0  0  0  0  0  0  0  0  0  0
   39.8320   24.1940   42.4370 H   0  0  0  0  0  0  0  0  0  0  0  0
   39.9920   25.7940   44.0170 N   0  0  0  0  0  0  0  0  0  0  0  0
   40.3520   25.2390   44.8210 H   0  0  0  0  0  0  0  0  0  0  0  0
   39.6960   27.0780   43.9040 N   0  0  0  0  0  0  0  0  0  0  0  0
   41.7440   30.1810   39.6900 N   0  0  0  0  0  0  0  0  0  0  0  0
   40.6620   30.5700   39.7980 C   0  0  0  0  0  0  0  0  0  0  0  0
  1  5  1  0  0  0  0
  1 25  1  0  0  0  0
  2  1  1  0  0  0  0
  3 17  1  0  0  0  0
  4  3  1  0  0  0  0
  4  8  1  0  0  0  0
  5 10  1  6  0  0  0
  5  6  1  0  0  0  0
  5  4  1  0  0  0  0
  6 11  1  0  0  0  0
  6  7  1  0  0  0  0
  7  3  1  0  0  0  0
  7 13  1  0  0  0  0
  9  4  1  0  0  0  0
 12  6  1  0  0  0  0
 14  7  1  0  0  0  0
 15 21  1  0  0  0  0
 16 22  1  0  0  0  0
 16 15  2  0  0  0  0
 17 16  1  0  0  0  0
 18 17  2  0  0  0  0
 18 19  1  0  0  0  0
 19 20  2  0  0  0  0
 20 15  1  0  0  0  0
 23 19  1  0  0  0  0
 24 29  1  0  0  0  0
 25 26  1  0  0  0  0
 25 24  2  0  0  0  0
 26 27  2  0  0  0  0
 27 31  1  0  0  0  0
 27 28  1  0  0  0  0
 28 32  1  0  0  0  0
 29 28  2  0  0  0  0
 29 35  1  0  0  0  0
 30 26  1  0  0  0  0
 33 37  1  0  0  0  0
 33 34  2  0  0  0  0
 35 33  1  0  0  0  0
 36 35  1  0  0  0  0
 37 44  2  0  0  0  0
 38 37  1  0  0  0  0
 38 40  2  0  0  0  0
 39 38  1  0  0  0  0
 40 42  1  0  0  0  0
 41 40  1  0  0  0  0
 42 43  1  0  0  0  0
 44 42  1  0  0  0  0
 45 46  3  0  0  0  0
 46 24  1  0  0  0  0
M  END
>  <minimizedAffinity>
-6.30125427

$$$$

 OpenBabel03242519123D

 46 49  0  0  1  0  0  0  0  0999 V2000
   39.0000   32.4690   38.1950 N   0  0  0  0  0  0  0  0  0  0  0  0
   38.5270   33.0170   37.4210 H   0  0  0  0  0  0  0  0  0  0  0  0
   37.8360   29.6640   40.0510 N   0  0  0  0  0  0  0  0  0  0  0  0
   38.9700   30.4890   39.6290 C   0  0  0  0  0  0  0  0  0  0  0  0
   38.1960   31.6350   39.0320 C   0  0  2  0  0  0  0  0  0  0  0  0
   37.2090   30.9100   38.1520 C   0  0  0  0  0  0  0  0  0  0  0  0
   36.8960   29.6760   38.9520 C   0  0  0  0  0  0  0  0  0  0  0  0
   39.5630   29.9980   38.8580 H   0  0  0  0  0  0  0  0  0  0  0  0
   39.5140   30.7630   40.5440 H   0  0  0  0  0  0  0  0  0  0  0  0
   37.6240   32.1860   39.7800 H   0  0  0  0  0  0  0  0  0  0  0  0
   37.8010   30.5720   37.2560 H   0  0  0  0  0  0  0  0  0  0  0  0
   36.3420   31.5090   37.8790 H   0  0  0  0  0  0  0  0  0  0  0  0
   37.0750   28.7420   38.3800 H   0  0  0  0  0  0  0  0  0  0  0  0
   35.8540   29.6980   39.3320 H   0  0  0  0  0  0  0  0  0  0  0  0
   36.7850   27.1190   42.5490 C   0  0  0  0  0  0  0  0  0  0  0  0
   36.9620   27.7140   41.3040 C   0  0  0  0  0  0  0  0  0  0  0  0
   37.6000   28.9650   41.2440 C   0  0  0  0  0  0  0  0  0  0  0  0
   38.0110   29.5220   42.4190 N   0  0  0  0  0  0  0  0  0  0  0  0
   37.8350   28.9380   43.6120 C   0  0  0  0  0  0  0  0  0  0  0  0
   37.2220   27.7360   43.6740 N   0  0  0  0  0  0  0  0  0  0  0  0
   36.2850   26.1570   42.5060 H   0  0  0  0  0  0  0  0  0  0  0  0
   36.6420   27.2810   40.3840 H   0  0  0  0  0  0  0  0  0  0  0  0
   38.1740   29.4100   44.5180 H   0  0  0  0  0  0  0  0  0  0  0  0
   41.0370   33.6060   39.0740 C   0  0  0  0  0  0  0  0  0  0  0  0
   40.3830   32.7420   38.1730 C   0  0  0  0  0  0  0  0  0  0  0  0
   41.2260   32.1840   37.2610 C   0  0  0  0  0  0  0  0  0  0  0  0
   42.5820   32.3860   37.1580 C   0  0  0  0  0  0  0  0  0  0  0  0
   43.1740   33.2410   38.0650 C   0  0  0  0  0  0  0  0  0  0  0  0
   42.3820   33.8380   39.0120 C   0  0  0  0  0  0  0  0  0  0  0  0
   40.8380   31.4930   36.5050 H   0  0  0  0  0  0  0  0  0  0  0  0
   43.2030   31.9130   36.4090 H   0  0  0  0  0  0  0  0  0  0  0  0
   44.2350   33.4450   38.0410 H   0  0  0  0  0  0  0  0  0  0  0  0
   43.8270   34.1610   40.9600 C   0  0  0  0  0  0  0  0  0  0  0  0
   44.0580   32.8960   40.9960 O   0  0  0  0  0  0  0  0  0  0  0  0
   43.0190   34.7240   39.9450 N   0  0  0  0  0  0  0  0  0  0  0  0
   42.8510   35.7520   39.8270 H   0  0  0  0  0  0  0  0  0  0  0  0
   44.3450   35.1550   41.9220 C   0  0  0  0  0  0  0  0  0  0  0  0
   45.5700   35.6940   42.2060 C   0  0  0  0  0  0  0  0  0  0  0  0
   46.3930   35.3270   41.5960 H   0  0  0  0  0  0  0  0  0  0  0  0
   45.4090   36.5960   43.2370 C   0  0  0  0  0  0  0  0  0  0  0  0
   46.2920   37.1080   43.5790 H   0  0  0  0  0  0  0  0  0  0  0  0
   44.0950   36.5980   43.5710 N   0  0  0  0  0  0  0  0  0  0  0  0
   43.7500   37.2150   44.3350 H   0  0  0  0  0  0  0  0  0  0  0  0
   43.4650   35.7410   42.7870 N   0  0  0  0  0  0  0  0  0  0  0  0
   39.5530   34.7660   40.8850 N   0  0  0  0  0  0  0  0  0  0  0  0
   40.2060   34.2460   40.0860 C   0  0  0  0  0  0  0  0  0  0  0  0
  1  5  1  0  0  0  0
  2  1  1  0  0  0  0
  3 17  1  0  0  0  0
  4  3  1  0  0  0  0
  4  9  1  0  0  0  0
  5  4  1  0  0  0  0
  5 10  1  1  0  0  0
  6  7  1  0  0  0  0
  6  5  1  0  0  0  0
  7 14  1  0  0  0  0
  7  3  1  0  0  0  0
  8  4  1  0  0  0  0
 11  6  1  0  0  0  0
 12  6  1  0  0  0  0
 13  7  1  0  0  0  0
 15 20  1  0  0  0  0
 16 15  2  0  0  0  0
 17 16  1  0  0  0  0
 17 18  2  0  0  0  0
 18 19  1  0  0  0  0
 19 20  2  0  0  0  0
 19 23  1  0  0  0  0
 21 15  1  0  0  0  0
 22 16  1  0  0  0  0
 24 46  1  0  0  0  0
 25  1  1  0  0  0  0
 25 24  2  0  0  0  0
 26 25  1  0  0  0  0
 27 26  2  0  0  0  0
 27 28  1  0  0  0  0
 28 29  2  0  0  0  0
 29 24  1  0  0  0  0
 29 35  1  0  0  0  0
 30 26  1  0  0  0  0
 31 27  1  0  0  0  0
 32 28  1  0  0  0  0
 33 34  2  0  0  0  0
 33 37  1  0  0  0  0
 35 33  1  0  0  0  0
 36 35  1  0  0  0  0
 37 38  1  0  0  0  0
 37 44  2  0  0  0  0
 38 40  2  0  0  0  0
 39 38  1  0  0  0  0
 40 42  1  0  0  0  0
 40 41  1  0  0  0  0
 42 43  1  0  0  0  0
 44 42  1  0  0  0  0
 46 45  3  0  0  0  0
M  END
>  <minimizedAffinity>
-6.29376554

$$$$

 OpenBabel03242519123D

 46 49  0  0  1  0  0  0  0  0999 V2000
   37.6980   29.3880   40.1980 N   0  0  0  0  0  0  0  0  0  0  0  0
   37.0600   28.7690   39.6210 H   0  0  0  0  0  0  0  0  0  0  0  0
   38.3540   32.8760   39.9280 N   0  0  0  0  0  0  0  0  0  0  0  0
   38.4170   31.6610   40.7440 C   0  0  0  0  0  0  0  0  0  0  0  0
   38.0780   30.6600   39.6690 C   0  0  2  0  0  0  0  0  0  0  0  0
   36.8560   31.2860   39.0450 C   0  0  0  0  0  0  0  0  0  0  0  0
   37.1650   32.7560   39.1140 C   0  0  0  0  0  0  0  0  0  0  0  0
   37.6490   31.6510   41.5170 H   0  0  0  0  0  0  0  0  0  0  0  0
   39.4530   31.5780   41.1020 H   0  0  0  0  0  0  0  0  0  0  0  0
   38.8470   30.6020   38.8970 H   0  0  0  0  0  0  0  0  0  0  0  0
   36.0190   31.0970   39.7750 H   0  0  0  0  0  0  0  0  0  0  0  0
   36.6340   30.9130   38.0470 H   0  0  0  0  0  0  0  0  0  0  0  0
   36.3730   33.3330   39.6360 H   0  0  0  0  0  0  0  0  0  0  0  0
   37.3420   33.1760   38.1040 H   0  0  0  0  0  0  0  0  0  0  0  0
   39.7850   36.2980   40.1720 C   0  0  0  0  0  0  0  0  0  0  0  0
   38.8480   35.2770   40.2870 C   0  0  0  0  0  0  0  0  0  0  0  0
   39.2090   33.9860   39.8640 C   0  0  0  0  0  0  0  0  0  0  0  0
   40.4670   33.8120   39.3640 N   0  0  0  0  0  0  0  0  0  0  0  0
   41.3610   34.8050   39.2600 C   0  0  0  0  0  0  0  0  0  0  0  0
   41.0170   36.0480   39.6650 N   0  0  0  0  0  0  0  0  0  0  0  0
   39.4260   37.2610   40.5210 H   0  0  0  0  0  0  0  0  0  0  0  0
   37.8650   35.4080   40.6770 H   0  0  0  0  0  0  0  0  0  0  0  0
   42.3430   34.6290   38.8600 H   0  0  0  0  0  0  0  0  0  0  0  0
   39.2010   28.0140   41.6380 C   0  0  0  0  0  0  0  0  0  0  0  0
   38.0090   28.7290   41.4060 C   0  0  0  0  0  0  0  0  0  0  0  0
   37.1680   28.7270   42.4770 C   0  0  0  0  0  0  0  0  0  0  0  0
   37.3790   28.1180   43.6910 C   0  0  0  0  0  0  0  0  0  0  0  0
   38.5620   27.4300   43.8670 C   0  0  0  0  0  0  0  0  0  0  0  0
   39.4560   27.3920   42.8260 C   0  0  0  0  0  0  0  0  0  0  0  0
   36.2060   29.2500   42.4220 H   0  0  0  0  0  0  0  0  0  0  0  0
   36.6720   28.1500   44.5090 H   0  0  0  0  0  0  0  0  0  0  0  0
   38.7930   26.9280   44.7960 H   0  0  0  0  0  0  0  0  0  0  0  0
   41.8340   27.3990   43.4030 C   0  0  0  0  0  0  0  0  0  0  0  0
   41.7710   28.6620   43.6380 O   0  0  0  0  0  0  0  0  0  0  0  0
   40.6810   26.6710   43.0310 N   0  0  0  0  0  0  0  0  0  0  0  0
   40.6580   25.6320   42.8930 H   0  0  0  0  0  0  0  0  0  0  0  0
   43.0540   26.5710   43.4840 C   0  0  0  0  0  0  0  0  0  0  0  0
   44.4000   26.8150   43.5250 C   0  0  0  0  0  0  0  0  0  0  0  0
   44.6840   27.8650   43.4930 H   0  0  0  0  0  0  0  0  0  0  0  0
   45.0500   25.6010   43.6000 C   0  0  0  0  0  0  0  0  0  0  0  0
   46.1250   25.6260   43.6390 H   0  0  0  0  0  0  0  0  0  0  0  0
   44.1010   24.6340   43.6020 N   0  0  0  0  0  0  0  0  0  0  0  0
   44.3750   23.6300   43.6540 H   0  0  0  0  0  0  0  0  0  0  0  0
   42.9150   25.2140   43.5330 N   0  0  0  0  0  0  0  0  0  0  0  0
   40.9270   27.9370   39.6780 N   0  0  0  0  0  0  0  0  0  0  0  0
   40.1580   27.9680   40.5390 C   0  0  0  0  0  0  0  0  0  0  0  0
  1 25  1  0  0  0  0
  2  1  1  0  0  0  0
  3  4  1  0  0  0  0
  4  9  1  0  0  0  0
  4  8  1  0  0  0  0
  5 10  1  6  0  0  0
  5  1  1  0  0  0  0
  5  4  1  0  0  0  0
  6  7  1  0  0  0  0
  6  5  1  0  0  0  0
  6 11  1  0  0  0  0
  7 13  1  0  0  0  0
  7  3  1  0  0  0  0
 12  6  1  0  0  0  0
 14  7  1  0  0  0  0
 15 16  1  0  0  0  0
 15 21  1  0  0  0  0
 16 22  1  0  0  0  0
 17  3  1  0  0  0  0
 17 16  2  0  0  0  0
 18 17  1  0  0  0  0
 19 18  2  0  0  0  0
 19 20  1  0  0  0  0
 20 15  2  0  0  0  0
 23 19  1  0  0  0  0
 24 29  1  0  0  0  0
 25 24  2  0  0  0  0
 25 26  1  0  0  0  0
 26 27  2  0  0  0  0
 27 28  1  0  0  0  0
 27 31  1  0  0  0  0
 28 32  1  0  0  0  0
 29 35  1  0  0  0  0
 29 28  2  0  0  0  0
 30 26  1  0  0  0  0
 33 37  1  0  0  0  0
 33 34  2  0  0  0  0
 35 33  1  0  0  0  0
 36 35  1  0  0  0  0
 37 38  1  0  0  0  0
 37 44  2  0  0  0  0
 38 40  2  0  0  0  0
 39 38  1  0  0  0  0
 40 42  1  0  0  0  0
 40 41  1  0  0  0  0
 42 43  1  0  0  0  0
 44 42  1  0  0  0  0
 45 46  3  0  0  0  0
 46 24  1  0  0  0  0
M  END
>  <minimizedAffinity>
-6.19921589

$$$$

 OpenBabel03242519123D

 46 49  0  0  1  0  0  0  0  0999 V2000
   39.5280   29.4970   41.5200 N   0  0  0  0  0  0  0  0  0  0  0  0
   40.5000   29.1680   41.7870 H   0  0  0  0  0  0  0  0  0  0  0  0
   39.1150   32.9540   40.7840 N   0  0  0  0  0  0  0  0  0  0  0  0
   39.7170   31.9320   41.6420 C   0  0  0  0  0  0  0  0  0  0  0  0
   39.3950   30.7240   40.8000 C   0  0  2  0  0  0  0  0  0  0  0  0
   37.9310   30.9360   40.5110 C   0  0  0  0  0  0  0  0  0  0  0  0
   37.8340   32.4290   40.3660 C   0  0  0  0  0  0  0  0  0  0  0  0
   39.2100   31.8600   42.6050 H   0  0  0  0  0  0  0  0  0  0  0  0
   40.7920   32.1550   41.6870 H   0  0  0  0  0  0  0  0  0  0  0  0
   39.9220   30.7310   39.8440 H   0  0  0  0  0  0  0  0  0  0  0  0
   37.3970   30.6690   41.4670 H   0  0  0  0  0  0  0  0  0  0  0  0
   37.5660   30.3690   39.6560 H   0  0  0  0  0  0  0  0  0  0  0  0
   37.0790   32.8740   41.0470 H   0  0  0  0  0  0  0  0  0  0  0  0
   37.6200   32.7170   39.3170 H   0  0  0  0  0  0  0  0  0  0  0  0
   39.4020   36.5780   40.0070 C   0  0  0  0  0  0  0  0  0  0  0  0
   38.8210   35.3900   40.4350 C   0  0  0  0  0  0  0  0  0  0  0  0
   39.5870   34.2120   40.3820 C   0  0  0  0  0  0  0  0  0  0  0  0
   40.8640   34.3090   39.9090 N   0  0  0  0  0  0  0  0  0  0  0  0
   41.4120   35.4610   39.4990 C   0  0  0  0  0  0  0  0  0  0  0  0
   40.6780   36.5950   39.5500 N   0  0  0  0  0  0  0  0  0  0  0  0
   38.7440   37.4380   40.0820 H   0  0  0  0  0  0  0  0  0  0  0  0
   37.8250   35.3100   40.8060 H   0  0  0  0  0  0  0  0  0  0  0  0
   42.4220   35.4970   39.1330 H   0  0  0  0  0  0  0  0  0  0  0  0
   38.1820   27.4120   41.2770 C   0  0  0  0  0  0  0  0  0  0  0  0
   38.5820   28.5620   41.9870 C   0  0  0  0  0  0  0  0  0  0  0  0
   37.9570   28.6900   43.1910 C   0  0  0  0  0  0  0  0  0  0  0  0
   37.0250   27.8370   43.7320 C   0  0  0  0  0  0  0  0  0  0  0  0
   36.6690   26.7250   42.9960 C   0  0  0  0  0  0  0  0  0  0  0  0
   37.2600   26.5350   41.7730 C   0  0  0  0  0  0  0  0  0  0  0  0
   38.1830   29.5440   43.8390 H   0  0  0  0  0  0  0  0  0  0  0  0
   36.5610   27.9900   44.6960 H   0  0  0  0  0  0  0  0  0  0  0  0
   35.9420   26.0140   43.3620 H   0  0  0  0  0  0  0  0  0  0  0  0
   37.5860   24.1690   41.2390 C   0  0  0  0  0  0  0  0  0  0  0  0
   38.4980   24.0930   42.1440 O   0  0  0  0  0  0  0  0  0  0  0  0
   36.8750   25.3720   41.0250 N   0  0  0  0  0  0  0  0  0  0  0  0
   36.0780   25.4740   40.3500 H   0  0  0  0  0  0  0  0  0  0  0  0
   37.1730   23.0710   40.3430 C   0  0  0  0  0  0  0  0  0  0  0  0
   36.1310   22.8490   39.4840 C   0  0  0  0  0  0  0  0  0  0  0  0
   35.4050   23.6570   39.4140 H   0  0  0  0  0  0  0  0  0  0  0  0
   36.3030   21.6020   38.9200 C   0  0  0  0  0  0  0  0  0  0  0  0
   35.5570   21.2790   38.2160 H   0  0  0  0  0  0  0  0  0  0  0  0
   37.4400   21.0770   39.4380 N   0  0  0  0  0  0  0  0  0  0  0  0
   37.7620   20.1310   39.1460 H   0  0  0  0  0  0  0  0  0  0  0  0
   37.9560   21.9530   40.2840 N   0  0  0  0  0  0  0  0  0  0  0  0
   39.2900   27.0180   38.9440 N   0  0  0  0  0  0  0  0  0  0  0  0
   38.8050   27.1990   39.9760 C   0  0  0  0  0  0  0  0  0  0  0  0
  1  2  1  0  0  0  0
  1 25  1  0  0  0  0
  3  4  1  0  0  0  0
  4  9  1  0  0  0  0
  4  8  1  0  0  0  0
  5 10  1  6  0  0  0
  5  1  1  0  0  0  0
  5  4  1  0  0  0  0
  6  5  1  0  0  0  0
  6 11  1  0  0  0  0
  7  6  1  0  0  0  0
  7  3  1  0  0  0  0
  7 13  1  0  0  0  0
 12  6  1  0  0  0  0
 14  7  1  0  0  0  0
 15 21  1  0  0  0  0
 15 16  1  0  0  0  0
 16 22  1  0  0  0  0
 17 16  2  0  0  0  0
 17  3  1  0  0  0  0
 18 17  1  0  0  0  0
 19 20  1  0  0  0  0
 19 18  2  0  0  0  0
 20 15  2  0  0  0  0
 23 19  1  0  0  0  0
 24 29  2  0  0  0  0
 24 25  1  0  0  0  0
 25 26  2  0  0  0  0
 26 27  1  0  0  0  0
 26 30  1  0  0  0  0
 27 31  1  0  0  0  0
 28 32  1  0  0  0  0
 28 27  2  0  0  0  0
 29 28  1  0  0  0  0
 33 34  2  0  0  0  0
 35 33  1  0  0  0  0
 35 29  1  0  0  0  0
 36 35  1  0  0  0  0
 37 33  1  0  0  0  0
 38 37  1  0  0  0  0
 39 38  1  0  0  0  0
 40 42  1  0  0  0  0
 40 38  2  0  0  0  0
 41 40  1  0  0  0  0
 42 44  1  0  0  0  0
 43 42  1  0  0  0  0
 44 37  2  0  0  0  0
 45 46  3  0  0  0  0
 46 24  1  0  0  0  0
M  END
>  <minimizedAffinity>
-5.95825243

$$$$

 OpenBabel03242519123D

 46 49  0  0  1  0  0  0  0  0999 V2000
   37.2940   30.1830   41.6800 N   0  0  0  0  0  0  0  0  0  0  0  0
   36.4310   30.3940   42.2580 H   0  0  0  0  0  0  0  0  0  0  0  0
   37.4240   26.6290   41.5250 N   0  0  0  0  0  0  0  0  0  0  0  0
   36.8210   27.8720   41.0370 C   0  0  0  0  0  0  0  0  0  0  0  0
   37.7910   28.8430   41.6580 C   0  0  2  0  0  0  0  0  0  0  0  0
   37.8490   28.3470   43.0810 C   0  0  0  0  0  0  0  0  0  0  0  0
   37.7470   26.8560   42.9170 C   0  0  0  0  0  0  0  0  0  0  0  0
   35.8230   28.0280   41.4480 H   0  0  0  0  0  0  0  0  0  0  0  0
   36.8830   27.8390   39.9400 H   0  0  0  0  0  0  0  0  0  0  0  0
   38.7950   28.7540   41.2390 H   0  0  0  0  0  0  0  0  0  0  0  0
   36.8850   28.6870   43.5550 H   0  0  0  0  0  0  0  0  0  0  0  0
   38.7270   28.6870   43.6280 H   0  0  0  0  0  0  0  0  0  0  0  0
   36.9120   26.4200   43.5040 H   0  0  0  0  0  0  0  0  0  0  0  0
   38.7020   26.3570   43.1800 H   0  0  0  0  0  0  0  0  0  0  0  0
   37.7020   23.0200   40.6800 C   0  0  0  0  0  0  0  0  0  0  0  0
   37.3970   24.1540   41.4250 C   0  0  0  0  0  0  0  0  0  0  0  0
   37.6840   25.4150   40.8740 C   0  0  0  0  0  0  0  0  0  0  0  0
   38.2480   25.4490   39.6320 N   0  0  0  0  0  0  0  0  0  0  0  0
   38.5370   24.3480   38.9240 C   0  0  0  0  0  0  0  0  0  0  0  0
   38.2620   23.1350   39.4510 N   0  0  0  0  0  0  0  0  0  0  0  0
   37.4480   22.0900   41.1780 H   0  0  0  0  0  0  0  0  0  0  0  0
   36.9550   24.1320   42.3950 H   0  0  0  0  0  0  0  0  0  0  0  0
   38.9820   24.4160   37.9480 H   0  0  0  0  0  0  0  0  0  0  0  0
   38.9700   31.9930   41.3180 C   0  0  0  0  0  0  0  0  0  0  0  0
   37.7340   31.3700   41.0580 C   0  0  0  0  0  0  0  0  0  0  0  0
   36.9870   32.0310   40.1310 C   0  0  0  0  0  0  0  0  0  0  0  0
   37.3250   33.1890   39.4720 C   0  0  0  0  0  0  0  0  0  0  0  0
   38.5470   33.7590   39.7630 C   0  0  0  0  0  0  0  0  0  0  0  0
   39.3500   33.1440   40.6890 C   0  0  0  0  0  0  0  0  0  0  0  0
   36.0030   31.6450   39.8410 H   0  0  0  0  0  0  0  0  0  0  0  0
   36.6880   33.6710   38.7420 H   0  0  0  0  0  0  0  0  0  0  0  0
   38.8760   34.6690   39.2810 H   0  0  0  0  0  0  0  0  0  0  0  0
   41.7240   33.4200   40.1630 C   0  0  0  0  0  0  0  0  0  0  0  0
   41.5840   32.6550   39.1390 O   0  0  0  0  0  0  0  0  0  0  0  0
   40.6180   33.7550   40.9760 N   0  0  0  0  0  0  0  0  0  0  0  0
   40.6590   34.4260   41.7820 H   0  0  0  0  0  0  0  0  0  0  0  0
   42.9940   34.0250   40.6140 C   0  0  0  0  0  0  0  0  0  0  0  0
   44.3220   33.8190   40.3560 C   0  0  0  0  0  0  0  0  0  0  0  0
   44.5400   33.0200   39.6500 H   0  0  0  0  0  0  0  0  0  0  0  0
   45.0460   34.7250   41.1010 C   0  0  0  0  0  0  0  0  0  0  0  0
   46.1170   34.6890   41.0070 H   0  0  0  0  0  0  0  0  0  0  0  0
   44.1590   35.4720   41.8030 N   0  0  0  0  0  0  0  0  0  0  0  0
   44.4940   36.2260   42.4380 H   0  0  0  0  0  0  0  0  0  0  0  0
   42.9390   35.0530   41.5110 N   0  0  0  0  0  0  0  0  0  0  0  0
   40.5170   30.8250   43.0710 N   0  0  0  0  0  0  0  0  0  0  0  0
   39.8330   31.3490   42.3000 C   0  0  0  0  0  0  0  0  0  0  0  0
  1  2  1  0  0  0  0
  3  7  1  0  0  0  0
  4  8  1  0  0  0  0
  4  3  1  0  0  0  0
  4  5  1  0  0  0  0
  5 10  1  6  0  0  0
  5  1  1  0  0  0  0
  5  6  1  0  0  0  0
  6 11  1  0  0  0  0
  6 12  1  0  0  0  0
  7  6  1  0  0  0  0
  7 14  1  0  0  0  0
  7 13  1  0  0  0  0
  9  4  1  0  0  0  0
 15 21  1  0  0  0  0
 15 16  1  0  0  0  0
 16 22  1  0  0  0  0
 17 16  2  0  0  0  0
 17  3  1  0  0  0  0
 18 17  1  0  0  0  0
 19 20  1  0  0  0  0
 19 18  2  0  0  0  0
 20 15  2  0  0  0  0
 23 19  1  0  0  0  0
 24 46  1  0  0  0  0
 25 24  1  0  0  0  0
 25  1  1  0  0  0  0
 26 25  2  0  0  0  0
 27 28  2  0  0  0  0
 27 26  1  0  0  0  0
 28 29  1  0  0  0  0
 29 35  1  0  0  0  0
 29 24  2  0  0  0  0
 30 26  1  0  0  0  0
 31 27  1  0  0  0  0
 32 28  1  0  0  0  0
 33 37  1  0  0  0  0
 33 35  1  0  0  0  0
 34 33  2  0  0  0  0
 35 36  1  0  0  0  0
 37 44  2  0  0  0  0
 38 37  1  0  0  0  0
 38 40  2  0  0  0  0
 39 38  1  0  0  0  0
 40 42  1  0  0  0  0
 41 40  1  0  0  0  0
 42 43  1  0  0  0  0
 44 42  1  0  0  0  0
 46 45  3  0  0  0  0
M  END
>  <minimizedAffinity>
-5.93574238

$$$$

 OpenBabel03242519123D

 46 49  0  0  1  0  0  0  0  0999 V2000
   37.3570   27.8370   42.1390 N   0  0  0  0  0  0  0  0  0  0  0  0
   36.7360   27.9770   42.9860 H   0  0  0  0  0  0  0  0  0  0  0  0
   37.2040   24.9260   40.0960 N   0  0  0  0  0  0  0  0  0  0  0  0
   37.4170   25.4980   41.4280 C   0  0  0  0  0  0  0  0  0  0  0  0
   36.9480   26.9010   41.1390 C   0  0  2  0  0  0  0  0  0  0  0  0
   37.7010   27.2180   39.8720 C   0  0  0  0  0  0  0  0  0  0  0  0
   37.7110   25.8980   39.1520 C   0  0  0  0  0  0  0  0  0  0  0  0
   38.4720   25.5070   41.7020 H   0  0  0  0  0  0  0  0  0  0  0  0
   36.7530   24.9520   42.1120 H   0  0  0  0  0  0  0  0  0  0  0  0
   35.8830   26.9440   40.9070 H   0  0  0  0  0  0  0  0  0  0  0  0
   38.7610   27.4170   40.1960 H   0  0  0  0  0  0  0  0  0  0  0  0
   37.2750   28.0440   39.3040 H   0  0  0  0  0  0  0  0  0  0  0  0
   38.7370   25.5660   38.8870 H   0  0  0  0  0  0  0  0  0  0  0  0
   37.0730   25.9300   38.2470 H   0  0  0  0  0  0  0  0  0  0  0  0
   34.8260   22.2630   39.0600 C   0  0  0  0  0  0  0  0  0  0  0  0
   35.2670   23.5230   39.4490 C   0  0  0  0  0  0  0  0  0  0  0  0
   36.6380   23.7060   39.6990 C   0  0  0  0  0  0  0  0  0  0  0  0
   37.4590   22.6270   39.5420 N   0  0  0  0  0  0  0  0  0  0  0  0
   37.0210   21.4170   39.1670 C   0  0  0  0  0  0  0  0  0  0  0  0
   35.7030   21.2390   38.9250 N   0  0  0  0  0  0  0  0  0  0  0  0
   33.7560   22.2090   38.8870 H   0  0  0  0  0  0  0  0  0  0  0  0
   34.6300   24.3690   39.5710 H   0  0  0  0  0  0  0  0  0  0  0  0
   37.6990   20.5900   39.0540 H   0  0  0  0  0  0  0  0  0  0  0  0
   38.4990   30.0430   41.9220 C   0  0  0  0  0  0  0  0  0  0  0  0
   38.4870   28.6730   42.2520 C   0  0  0  0  0  0  0  0  0  0  0  0
   39.6910   28.2220   42.7010 C   0  0  0  0  0  0  0  0  0  0  0  0
   40.8450   28.9540   42.8460 C   0  0  0  0  0  0  0  0  0  0  0  0
   40.8040   30.2910   42.5090 C   0  0  0  0  0  0  0  0  0  0  0  0
   39.6210   30.8120   42.0490 C   0  0  0  0  0  0  0  0  0  0  0  0
   39.8110   27.1720   42.9910 H   0  0  0  0  0  0  0  0  0  0  0  0
   41.7760   28.5400   43.2090 H   0  0  0  0  0  0  0  0  0  0  0  0
   41.6740   30.9250   42.5990 H   0  0  0  0  0  0  0  0  0  0  0  0
   40.0570   32.5860   40.4210 C   0  0  0  0  0  0  0  0  0  0  0  0
   40.4000   31.7010   39.5520 O   0  0  0  0  0  0  0  0  0  0  0  0
   39.6000   32.2050   41.7040 N   0  0  0  0  0  0  0  0  0  0  0  0
   39.2450   32.8770   42.4270 H   0  0  0  0  0  0  0  0  0  0  0  0
   40.0890   34.0480   40.2150 C   0  0  0  0  0  0  0  0  0  0  0  0
   39.1900   35.0720   40.3420 C   0  0  0  0  0  0  0  0  0  0  0  0
   38.1960   34.7810   40.6740 H   0  0  0  0  0  0  0  0  0  0  0  0
   39.8300   36.2440   39.9950 C   0  0  0  0  0  0  0  0  0  0  0  0
   39.2510   37.1490   40.0430 H   0  0  0  0  0  0  0  0  0  0  0  0
   41.1050   35.9250   39.6610 N   0  0  0  0  0  0  0  0  0  0  0  0
   41.7710   36.6680   39.3650 H   0  0  0  0  0  0  0  0  0  0  0  0
   41.2550   34.6180   39.7940 N   0  0  0  0  0  0  0  0  0  0  0  0
   36.2480   31.0440   41.0510 N   0  0  0  0  0  0  0  0  0  0  0  0
   37.2470   30.6080   41.4320 C   0  0  0  0  0  0  0  0  0  0  0  0
  1 25  1  0  0  0  0
  1  2  1  0  0  0  0
  3  4  1  0  0  0  0
  4  8  1  0  0  0  0
  4  9  1  0  0  0  0
  5 10  1  6  0  0  0
  5  4  1  0  0  0  0
  5  1  1  0  0  0  0
  6 11  1  0  0  0  0
  6  5  1  0  0  0  0
  7  6  1  0  0  0  0
  7  3  1  0  0  0  0
 12  6  1  0  0  0  0
 13  7  1  0  0  0  0
 14  7  1  0  0  0  0
 15 16  1  0  0  0  0
 16 22  1  0  0  0  0
 16 17  2  0  0  0  0
 17  3  1  0  0  0  0
 18 17  1  0  0  0  0
 19 18  2  0  0  0  0
 20 15  2  0  0  0  0
 20 19  1  0  0  0  0
 21 15  1  0  0  0  0
 23 19  1  0  0  0  0
 24 29  2  0  0  0  0
 24 25  1  0  0  0  0
 25 26  2  0  0  0  0
 26 27  1  0  0  0  0
 26 30  1  0  0  0  0
 27 31  1  0  0  0  0
 28 32  1  0  0  0  0
 28 27  2  0  0  0  0
 29 28  1  0  0  0  0
 33 35  1  0  0  0  0
 34 33  2  0  0  0  0
 35 29  1  0  0  0  0
 35 36  1  0  0  0  0
 37 38  1  0  0  0  0
 37 33  1  0  0  0  0
 38 39  1  0  0  0  0
 40 41  1  0  0  0  0
 40 38  2  0  0  0  0
 42 44  1  0  0  0  0
 42 40  1  0  0  0  0
 43 42  1  0  0  0  0
 44 37  2  0  0  0  0
 45 46  3  0  0  0  0
 46 24  1  0  0  0  0
M  END
>  <minimizedAffinity>
-5.83917761

$$$$

 OpenBabel03242519123D

 46 49  0  0  1  0  0  0  0  0999 V2000
   37.3590   29.6330   41.1710 N   0  0  0  0  0  0  0  0  0  0  0  0
   36.3270   29.6610   41.4110 H   0  0  0  0  0  0  0  0  0  0  0  0
   38.2650   32.9050   40.1030 N   0  0  0  0  0  0  0  0  0  0  0  0
   38.0890   31.9660   41.2140 C   0  0  0  0  0  0  0  0  0  0  0  0
   37.9140   30.7050   40.4070 C   0  0  2  0  0  0  0  0  0  0  0  0
   36.8830   31.1330   39.3930 C   0  0  0  0  0  0  0  0  0  0  0  0
   37.2590   32.5630   39.1210 C   0  0  0  0  0  0  0  0  0  0  0  0
   37.1810   32.1740   41.7800 H   0  0  0  0  0  0  0  0  0  0  0  0
   39.0240   31.9850   41.7900 H   0  0  0  0  0  0  0  0  0  0  0  0
   38.8180   30.4330   39.8600 H   0  0  0  0  0  0  0  0  0  0  0  0
   35.9060   31.1570   39.9530 H   0  0  0  0  0  0  0  0  0  0  0  0
   36.8450   30.4960   38.5110 H   0  0  0  0  0  0  0  0  0  0  0  0
   36.4140   33.2640   39.2860 H   0  0  0  0  0  0  0  0  0  0  0  0
   37.6610   32.6840   38.0950 H   0  0  0  0  0  0  0  0  0  0  0  0
   41.3080   34.8890   39.3140 C   0  0  0  0  0  0  0  0  0  0  0  0
   40.4940   33.7700   39.4540 C   0  0  0  0  0  0  0  0  0  0  0  0
   39.1800   33.9510   39.9190 C   0  0  0  0  0  0  0  0  0  0  0  0
   38.7810   35.2240   40.2070 N   0  0  0  0  0  0  0  0  0  0  0  0
   39.5750   36.2940   40.0670 C   0  0  0  0  0  0  0  0  0  0  0  0
   40.8390   36.1230   39.6190 N   0  0  0  0  0  0  0  0  0  0  0  0
   42.3040   34.6610   38.9490 H   0  0  0  0  0  0  0  0  0  0  0  0
   40.8020   32.7740   39.2300 H   0  0  0  0  0  0  0  0  0  0  0  0
   39.2240   37.2830   40.3040 H   0  0  0  0  0  0  0  0  0  0  0  0
   38.1530   27.2760   40.9850 C   0  0  0  0  0  0  0  0  0  0  0  0
   37.9250   28.4600   41.7140 C   0  0  0  0  0  0  0  0  0  0  0  0
   38.3090   28.3670   43.0170 C   0  0  0  0  0  0  0  0  0  0  0  0
   38.8660   27.2740   43.6370 C   0  0  0  0  0  0  0  0  0  0  0  0
   39.0690   26.1400   42.8780 C   0  0  0  0  0  0  0  0  0  0  0  0
   38.7040   26.1650   41.5560 C   0  0  0  0  0  0  0  0  0  0  0  0
   38.1830   29.2230   43.6890 H   0  0  0  0  0  0  0  0  0  0  0  0
   39.1530   27.2580   44.6800 H   0  0  0  0  0  0  0  0  0  0  0  0
   39.5030   25.2460   43.3020 H   0  0  0  0  0  0  0  0  0  0  0  0
   37.9540   23.9470   40.8460 C   0  0  0  0  0  0  0  0  0  0  0  0
   36.8600   24.1090   41.5040 O   0  0  0  0  0  0  0  0  0  0  0  0
   38.9240   24.9740   40.7860 N   0  0  0  0  0  0  0  0  0  0  0  0
   39.8010   24.9250   40.2120 H   0  0  0  0  0  0  0  0  0  0  0  0
   38.3340   22.7310   40.0990 C   0  0  0  0  0  0  0  0  0  0  0  0
   38.0240   21.4000   40.1740 C   0  0  0  0  0  0  0  0  0  0  0  0
   37.3290   21.1290   40.9670 H   0  0  0  0  0  0  0  0  0  0  0  0
   38.7130   20.7450   39.1760 C   0  0  0  0  0  0  0  0  0  0  0  0
   38.5740   19.6810   39.1040 H   0  0  0  0  0  0  0  0  0  0  0  0
   39.4340   21.6770   38.5040 N   0  0  0  0  0  0  0  0  0  0  0  0
   40.0350   21.3970   37.7010 H   0  0  0  0  0  0  0  0  0  0  0  0
   39.2060   22.8570   39.0560 N   0  0  0  0  0  0  0  0  0  0  0  0
   37.4530   27.3080   38.4670 N   0  0  0  0  0  0  0  0  0  0  0  0
   37.7690   27.2910   39.5780 C   0  0  0  0  0  0  0  0  0  0  0  0
  1  2  1  0  0  0  0
  1 25  1  0  0  0  0
  3  4  1  0  0  0  0
  4  8  1  0  0  0  0
  4  9  1  0  0  0  0
  5 10  1  6  0  0  0
  5  1  1  0  0  0  0
  5  4  1  0  0  0  0
  6 11  1  0  0  0  0
  6  5  1  0  0  0  0
  7 13  1  0  0  0  0
  7  6  1  0  0  0  0
  7  3  1  0  0  0  0
 12  6  1  0  0  0  0
 14  7  1  0  0  0  0
 15 16  2  0  0  0  0
 15 20  1  0  0  0  0
 16 17  1  0  0  0  0
 17  3  1  0  0  0  0
 17 18  2  0  0  0  0
 19 18  1  0  0  0  0
 19 23  1  0  0  0  0
 20 19  2  0  0  0  0
 21 15  1  0  0  0  0
 22 16  1  0  0  0  0
 24 29  2  0  0  0  0
 24 25  1  0  0  0  0
 25 26  2  0  0  0  0
 26 27  1  0  0  0  0
 26 30  1  0  0  0  0
 27 31  1  0  0  0  0
 28 32  1  0  0  0  0
 28 27  2  0  0  0  0
 29 28  1  0  0  0  0
 33 34  2  0  0  0  0
 35 33  1  0  0  0  0
 35 29  1  0  0  0  0
 36 35  1  0  0  0  0
 37 38  1  0  0  0  0
 37 33  1  0  0  0  0
 38 39  1  0  0  0  0
 40 38  2  0  0  0  0
 41 40  1  0  0  0  0
 42 44  1  0  0  0  0
 42 40  1  0  0  0  0
 43 42  1  0  0  0  0
 44 37  2  0  0  0  0
 45 46  3  0  0  0  0
 46 24  1  0  0  0  0
M  END
>  <minimizedAffinity>
-5.83347034

$$$$

 OpenBabel03242519123D

 46 49  0  0  1  0  0  0  0  0999 V2000
   39.0240   30.4130   37.9290 N   0  0  0  0  0  0  0  0  0  0  0  0
   39.4720   30.6780   37.0060 H   0  0  0  0  0  0  0  0  0  0  0  0
   38.7240   27.3380   39.6970 N   0  0  0  0  0  0  0  0  0  0  0  0
   38.4610   28.7780   39.6590 C   0  0  0  0  0  0  0  0  0  0  0  0
   38.8220   29.0270   38.2170 C   0  0  2  0  0  0  0  0  0  0  0  0
   40.1560   28.3330   38.1120 C   0  0  0  0  0  0  0  0  0  0  0  0
   39.9780   27.1370   39.0060 C   0  0  0  0  0  0  0  0  0  0  0  0
   39.1370   29.3310   40.3120 H   0  0  0  0  0  0  0  0  0  0  0  0
   37.3900   28.9060   39.8660 H   0  0  0  0  0  0  0  0  0  0  0  0
   38.1390   28.5300   37.5260 H   0  0  0  0  0  0  0  0  0  0  0  0
   40.8880   29.0160   38.6290 H   0  0  0  0  0  0  0  0  0  0  0  0
   40.4500   28.1000   37.0900 H   0  0  0  0  0  0  0  0  0  0  0  0
   40.7590   27.0730   39.7920 H   0  0  0  0  0  0  0  0  0  0  0  0
   39.9510   26.1970   38.4170 H   0  0  0  0  0  0  0  0  0  0  0  0
   37.1000   24.9790   42.0670 C   0  0  0  0  0  0  0  0  0  0  0  0
   37.8580   26.0620   41.6360 C   0  0  0  0  0  0  0  0  0  0  0  0
   37.9870   26.2830   40.2540 C   0  0  0  0  0  0  0  0  0  0  0  0
   37.3530   25.4140   39.4130 N   0  0  0  0  0  0  0  0  0  0  0  0
   36.6240   24.3750   39.8420 C   0  0  0  0  0  0  0  0  0  0  0  0
   36.4990   24.1600   41.1700 N   0  0  0  0  0  0  0  0  0  0  0  0
   37.0520   24.8820   43.1470 H   0  0  0  0  0  0  0  0  0  0  0  0
   38.3540   26.7430   42.2900 H   0  0  0  0  0  0  0  0  0  0  0  0
   36.1400   23.7120   39.1480 H   0  0  0  0  0  0  0  0  0  0  0  0
   39.6450   32.2320   39.5160 C   0  0  0  0  0  0  0  0  0  0  0  0
   38.7350   31.5860   38.6560 C   0  0  0  0  0  0  0  0  0  0  0  0
   37.5280   32.2120   38.5880 C   0  0  0  0  0  0  0  0  0  0  0  0
   37.1520   33.3540   39.2540 C   0  0  0  0  0  0  0  0  0  0  0  0
   38.0800   33.9480   40.0840 C   0  0  0  0  0  0  0  0  0  0  0  0
   39.3180   33.3690   40.1990 C   0  0  0  0  0  0  0  0  0  0  0  0
   36.7340   31.8070   37.9510 H   0  0  0  0  0  0  0  0  0  0  0  0
   36.1740   33.8080   39.1610 H   0  0  0  0  0  0  0  0  0  0  0  0
   37.8500   34.8480   40.6380 H   0  0  0  0  0  0  0  0  0  0  0  0
   41.1450   34.9650   40.5160 C   0  0  0  0  0  0  0  0  0  0  0  0
   41.0390   35.3280   39.2870 O   0  0  0  0  0  0  0  0  0  0  0  0
   40.2680   34.0040   41.0690 N   0  0  0  0  0  0  0  0  0  0  0  0
   40.2640   33.7190   42.0780 H   0  0  0  0  0  0  0  0  0  0  0  0
   42.1450   35.4740   41.4770 C   0  0  0  0  0  0  0  0  0  0  0  0
   42.2270   36.5420   42.3290 C   0  0  0  0  0  0  0  0  0  0  0  0
   41.3640   37.2050   42.3280 H   0  0  0  0  0  0  0  0  0  0  0  0
   43.4410   36.4750   42.9800 C   0  0  0  0  0  0  0  0  0  0  0  0
   43.6570   37.2530   43.6900 H   0  0  0  0  0  0  0  0  0  0  0  0
   44.0840   35.3730   42.5220 N   0  0  0  0  0  0  0  0  0  0  0  0
   45.0290   35.1290   42.8850 H   0  0  0  0  0  0  0  0  0  0  0  0
   43.3110   34.7800   41.6290 N   0  0  0  0  0  0  0  0  0  0  0  0
   42.0130   31.1550   39.7590 N   0  0  0  0  0  0  0  0  0  0  0  0
   40.9650   31.6260   39.6460 C   0  0  0  0  0  0  0  0  0  0  0  0
  1  5  1  0  0  0  0
  1 25  1  0  0  0  0
  2  1  1  0  0  0  0
  3 17  1  0  0  0  0
  4  3  1  0  0  0  0
  4  9  1  0  0  0  0
  4  8  1  0  0  0  0
  5 10  1  6  0  0  0
  5  4  1  0  0  0  0
  6  5  1  0  0  0  0
  6 11  1  0  0  0  0
  6  7  1  0  0  0  0
  7  3  1  0  0  0  0
  7 13  1  0  0  0  0
 12  6  1  0  0  0  0
 14  7  1  0  0  0  0
 15 21  1  0  0  0  0
 16 15  1  0  0  0  0
 16 22  1  0  0  0  0
 17 16  2  0  0  0  0
 18 19  2  0  0  0  0
 18 17  1  0  0  0  0
 19 20  1  0  0  0  0
 20 15  2  0  0  0  0
 23 19  1  0  0  0  0
 24 46  1  0  0  0  0
 24 29  1  0  0  0  0
 25 24  2  0  0  0  0
 26 25  1  0  0  0  0
 26 27  2  0  0  0  0
 27 28  1  0  0  0  0
 28 29  2  0  0  0  0
 28 32  1  0  0  0  0
 29 35  1  0  0  0  0
 30 26  1  0  0  0  0
 31 27  1  0  0  0  0
 33 35  1  0  0  0  0
 33 37  1  0  0  0  0
 34 33  2  0  0  0  0
 35 36  1  0  0  0  0
 37 44  2  0  0  0  0
 37 38  1  0  0  0  0
 38 40  2  0  0  0  0
 39 38  1  0  0  0  0
 40 41  1  0  0  0  0
 42 43  1  0  0  0  0
 42 40  1  0  0  0  0
 44 42  1  0  0  0  0
 46 45  3  0  0  0  0
M  END
>  <minimizedAffinity>
-5.7828064

$$$$

 OpenBabel03242519123D

 46 49  0  0  1  0  0  0  0  0999 V2000
   39.2040   32.2250   38.9400 N   0  0  0  0  0  0  0  0  0  0  0  0
   39.0080   32.0450   37.9150 H   0  0  0  0  0  0  0  0  0  0  0  0
   41.5550   34.1490   40.7950 N   0  0  0  0  0  0  0  0  0  0  0  0
   40.9980   32.8300   40.4890 C   0  0  0  0  0  0  0  0  0  0  0  0
   40.1760   33.2150   39.2860 C   0  0  2  0  0  0  0  0  0  0  0  0
   39.4390   34.4280   39.7960 C   0  0  0  0  0  0  0  0  0  0  0  0
   40.4600   35.0880   40.6820 C   0  0  0  0  0  0  0  0  0  0  0  0
   40.3460   32.4700   41.2850 H   0  0  0  0  0  0  0  0  0  0  0  0
   41.8490   32.1810   40.2420 H   0  0  0  0  0  0  0  0  0  0  0  0
   40.7930   33.5370   38.4460 H   0  0  0  0  0  0  0  0  0  0  0  0
   38.6360   34.0250   40.4750 H   0  0  0  0  0  0  0  0  0  0  0  0
   39.0410   35.0640   39.0070 H   0  0  0  0  0  0  0  0  0  0  0  0
   40.0860   35.2530   41.7130 H   0  0  0  0  0  0  0  0  0  0  0  0
   40.8120   36.0440   40.2440 H   0  0  0  0  0  0  0  0  0  0  0  0
   45.2500   34.5370   40.9180 C   0  0  0  0  0  0  0  0  0  0  0  0
   44.0120   34.0740   40.4860 C   0  0  0  0  0  0  0  0  0  0  0  0
   42.8580   34.5410   41.1380 C   0  0  0  0  0  0  0  0  0  0  0  0
   43.0240   35.4260   42.1630 N   0  0  0  0  0  0  0  0  0  0  0  0
   44.2240   35.8640   42.5700 C   0  0  0  0  0  0  0  0  0  0  0  0
   45.3350   35.4170   41.9440 N   0  0  0  0  0  0  0  0  0  0  0  0
   46.0870   34.1280   40.3610 H   0  0  0  0  0  0  0  0  0  0  0  0
   43.8780   33.3830   39.6850 H   0  0  0  0  0  0  0  0  0  0  0  0
   44.3140   36.5620   43.3820 H   0  0  0  0  0  0  0  0  0  0  0  0
   38.6860   30.0230   39.9890 C   0  0  0  0  0  0  0  0  0  0  0  0
   38.3940   31.3760   39.7210 C   0  0  0  0  0  0  0  0  0  0  0  0
   37.2340   31.7960   40.2970 C   0  0  0  0  0  0  0  0  0  0  0  0
   36.3780   31.0480   41.0710 C   0  0  0  0  0  0  0  0  0  0  0  0
   36.7100   29.7290   41.3030 C   0  0  0  0  0  0  0  0  0  0  0  0
   37.8670   29.2400   40.7520 C   0  0  0  0  0  0  0  0  0  0  0  0
   36.8960   32.8300   40.1630 H   0  0  0  0  0  0  0  0  0  0  0  0
   35.4670   31.4370   41.5040 H   0  0  0  0  0  0  0  0  0  0  0  0
   36.0830   29.0840   41.9030 H   0  0  0  0  0  0  0  0  0  0  0  0
   37.5350   26.8690   40.2500 C   0  0  0  0  0  0  0  0  0  0  0  0
   36.7300   27.1850   39.2980 O   0  0  0  0  0  0  0  0  0  0  0  0
   38.1930   27.8650   41.0060 N   0  0  0  0  0  0  0  0  0  0  0  0
   38.9090   27.6680   41.7480 H   0  0  0  0  0  0  0  0  0  0  0  0
   37.8710   25.4920   40.6680 C   0  0  0  0  0  0  0  0  0  0  0  0
   38.4680   24.4100   40.0800 C   0  0  0  0  0  0  0  0  0  0  0  0
   38.7900   24.5580   39.0510 H   0  0  0  0  0  0  0  0  0  0  0  0
   38.4950   23.3860   41.0030 C   0  0  0  0  0  0  0  0  0  0  0  0
   38.9370   22.4570   40.6880 H   0  0  0  0  0  0  0  0  0  0  0  0
   37.9170   23.8490   42.1380 N   0  0  0  0  0  0  0  0  0  0  0  0
   37.8310   23.2320   42.9730 H   0  0  0  0  0  0  0  0  0  0  0  0
   37.5470   25.1020   41.9360 N   0  0  0  0  0  0  0  0  0  0  0  0
   40.8800   29.0740   38.9350 N   0  0  0  0  0  0  0  0  0  0  0  0
   39.9130   29.4930   39.4080 C   0  0  0  0  0  0  0  0  0  0  0  0
  1  5  1  0  0  0  0
  1 25  1  0  0  0  0
  2  1  1  0  0  0  0
  3 17  1  0  0  0  0
  4  3  1  0  0  0  0
  4  8  1  0  0  0  0
  5 10  1  6  0  0  0
  5  6  1  0  0  0  0
  5  4  1  0  0  0  0
  6 11  1  0  0  0  0
  6  7  1  0  0  0  0
  7  3  1  0  0  0  0
  7 13  1  0  0  0  0
  9  4  1  0  0  0  0
 12  6  1  0  0  0  0
 14  7  1  0  0  0  0
 15 20  1  0  0  0  0
 16 15  2  0  0  0  0
 16 17  1  0  0  0  0
 17 18  2  0  0  0  0
 18 19  1  0  0  0  0
 19 23  1  0  0  0  0
 20 19  2  0  0  0  0
 21 15  1  0  0  0  0
 22 16  1  0  0  0  0
 24 29  1  0  0  0  0
 25 24  2  0  0  0  0
 25 26  1  0  0  0  0
 26 27  2  0  0  0  0
 27 28  1  0  0  0  0
 27 31  1  0  0  0  0
 28 32  1  0  0  0  0
 29 35  1  0  0  0  0
 29 28  2  0  0  0  0
 30 26  1  0  0  0  0
 33 37  1  0  0  0  0
 33 35  1  0  0  0  0
 34 33  2  0  0  0  0
 35 36  1  0  0  0  0
 37 44  2  0  0  0  0
 38 37  1  0  0  0  0
 38 40  2  0  0  0  0
 39 38  1  0  0  0  0
 40 42  1  0  0  0  0
 41 40  1  0  0  0  0
 42 43  1  0  0  0  0
 44 42  1  0  0  0  0
 45 46  3  0  0  0  0
 46 24  1  0  0  0  0
M  END
>  <minimizedAffinity>
-5.63612556

$$$$
