
 OpenBabel03252501123D

 19 20  0  0  0  0  0  0  0  0999 V2000
   35.7500   29.2150   40.6530 C   0  0  0  0  0  0  0  0  0  0  0  0
   34.5810   28.9820   40.2780 O   0  0  0  0  0  0  0  0  0  0  0  0
   37.6360   26.2080   41.5980 C   0  0  0  0  0  0  0  0  0  0  0  0
   36.8210   27.1200   40.8690 C   0  0  0  0  0  0  0  0  0  0  0  0
   36.5700   28.3520   41.4440 C   0  0  0  0  0  0  0  0  0  0  0  0
   37.0900   28.6530   42.6520 N   0  0  0  0  0  0  0  0  0  0  0  0
   37.8700   27.7570   43.3290 C   0  0  0  0  0  0  0  0  0  0  0  0
   38.1430   26.5340   42.8030 N   0  0  0  0  0  0  0  0  0  0  0  0
   37.8380   25.2420   41.1550 H   0  0  0  0  0  0  0  0  0  0  0  0
   36.4460   26.7920   39.9050 H   0  0  0  0  0  0  0  0  0  0  0  0
   38.2120   28.1450   44.2820 H   0  0  0  0  0  0  0  0  0  0  0  0
   36.2970   30.5140   40.2130 C   0  0  0  0  0  0  0  0  0  0  0  0
   36.7300   30.8160   38.9250 C   0  0  0  0  0  0  0  0  0  0  0  0
   36.7360   30.1640   38.0640 H   0  0  0  0  0  0  0  0  0  0  0  0
   37.1560   32.1480   38.9960 C   0  0  0  0  0  0  0  0  0  0  0  0
   37.5510   32.6240   38.0840 H   0  0  0  0  0  0  0  0  0  0  0  0
   36.9810   32.5990   40.2520 N   0  0  0  0  0  0  0  0  0  0  0  0
   37.2560   33.5780   40.4530 H   0  0  0  0  0  0  0  0  0  0  0  0
   36.4680   31.6230   40.9780 N   0  0  0  0  0  0  0  0  0  0  0  0
  1  5  1  0  0  0  0
  2  1  2  0  0  0  0
  3  8  1  0  0  0  0
  4  5  1  0  0  0  0
  4  3  2  0  0  0  0
  5  6  2  0  0  0  0
  6  7  1  0  0  0  0
  7 11  1  0  0  0  0
  8  7  2  0  0  0  0
  9  3  1  0  0  0  0
 10  4  1  0  0  0  0
 12  1  1  0  0  0  0
 12 19  2  0  0  0  0
 13 15  2  0  0  0  0
 13 12  1  0  0  0  0
 14 13  1  0  0  0  0
 15 17  1  0  0  0  0
 16 15  1  0  0  0  0
 17 18  1  0  0  0  0
 17 19  1  0  0  0  0
M  END
>  <minimizedAffinity>
-4.14072037

$$$$

 OpenBabel03252501123D

 19 20  0  0  0  0  0  0  0  0999 V2000
   37.2470   28.8130   42.3720 C   0  0  0  0  0  0  0  0  0  0  0  0
   37.4120   28.9120   43.6070 O   0  0  0  0  0  0  0  0  0  0  0  0
   37.0720   25.2000   41.7330 C   0  0  0  0  0  0  0  0  0  0  0  0
   37.2370   26.4500   42.3940 C   0  0  0  0  0  0  0  0  0  0  0  0
   37.0710   27.5980   41.6410 C   0  0  0  0  0  0  0  0  0  0  0  0
   36.7640   27.5070   40.3300 N   0  0  0  0  0  0  0  0  0  0  0  0
   36.6110   26.2930   39.7210 C   0  0  0  0  0  0  0  0  0  0  0  0
   36.7660   25.1380   40.4220 N   0  0  0  0  0  0  0  0  0  0  0  0
   37.1990   24.2970   42.3140 H   0  0  0  0  0  0  0  0  0  0  0  0
   37.4840   26.4260   43.4500 H   0  0  0  0  0  0  0  0  0  0  0  0
   36.3660   26.3860   38.6690 H   0  0  0  0  0  0  0  0  0  0  0  0
   37.2380   30.0940   41.6410 C   0  0  0  0  0  0  0  0  0  0  0  0
   38.3650   30.7840   41.2010 C   0  0  0  0  0  0  0  0  0  0  0  0
   39.3990   30.4970   41.3220 H   0  0  0  0  0  0  0  0  0  0  0  0
   37.8600   31.9260   40.5690 C   0  0  0  0  0  0  0  0  0  0  0  0
   38.5710   32.6440   40.1310 H   0  0  0  0  0  0  0  0  0  0  0  0
   36.5150   31.9070   40.6350 N   0  0  0  0  0  0  0  0  0  0  0  0
   36.0020   32.6970   40.2050 H   0  0  0  0  0  0  0  0  0  0  0  0
   36.1450   30.8120   41.2750 N   0  0  0  0  0  0  0  0  0  0  0  0
  1  2  2  0  0  0  0
  3  9  1  0  0  0  0
  3  4  1  0  0  0  0
  4 10  1  0  0  0  0
  5  1  1  0  0  0  0
  5  4  2  0  0  0  0
  6  5  1  0  0  0  0
  7  6  2  0  0  0  0
  7  8  1  0  0  0  0
  8  3  2  0  0  0  0
 11  7  1  0  0  0  0
 12  1  1  0  0  0  0
 13 14  1  0  0  0  0
 13 12  1  0  0  0  0
 15 17  1  0  0  0  0
 15 13  2  0  0  0  0
 16 15  1  0  0  0  0
 17 19  1  0  0  0  0
 18 17  1  0  0  0  0
 19 12  2  0  0  0  0
M  END
>  <minimizedAffinity>
-4.10615063

$$$$

 OpenBabel03252501123D

 19 20  0  0  0  0  0  0  0  0999 V2000
   39.1410   30.2910   41.1990 C   0  0  0  0  0  0  0  0  0  0  0  0
   40.3810   30.2520   41.0560 O   0  0  0  0  0  0  0  0  0  0  0  0
   37.3420   28.2660   43.6800 C   0  0  0  0  0  0  0  0  0  0  0  0
   38.1540   29.2760   43.0910 C   0  0  0  0  0  0  0  0  0  0  0  0
   38.3190   29.2440   41.7180 C   0  0  0  0  0  0  0  0  0  0  0  0
   37.7210   28.2790   40.9890 N   0  0  0  0  0  0  0  0  0  0  0  0
   36.9460   27.3210   41.5810 C   0  0  0  0  0  0  0  0  0  0  0  0
   36.7570   27.3130   42.9270 N   0  0  0  0  0  0  0  0  0  0  0  0
   37.2070   28.2840   44.7530 H   0  0  0  0  0  0  0  0  0  0  0  0
   38.5950   30.0110   43.7560 H   0  0  0  0  0  0  0  0  0  0  0  0
   36.5370   26.6190   40.8640 H   0  0  0  0  0  0  0  0  0  0  0  0
   38.5060   31.5560   40.7810 C   0  0  0  0  0  0  0  0  0  0  0  0
   39.1780   32.7340   40.4640 C   0  0  0  0  0  0  0  0  0  0  0  0
   40.2440   32.9050   40.4750 H   0  0  0  0  0  0  0  0  0  0  0  0
   38.1670   33.6420   40.1310 C   0  0  0  0  0  0  0  0  0  0  0  0
   38.4520   34.6660   39.8390 H   0  0  0  0  0  0  0  0  0  0  0  0
   36.9720   33.0320   40.2450 N   0  0  0  0  0  0  0  0  0  0  0  0
   36.1260   33.5890   40.0280 H   0  0  0  0  0  0  0  0  0  0  0  0
   37.1760   31.7860   40.6330 N   0  0  0  0  0  0  0  0  0  0  0  0
  1  5  1  0  0  0  0
  2  1  2  0  0  0  0
  3  9  1  0  0  0  0
  4  3  1  0  0  0  0
  4 10  1  0  0  0  0
  5  4  2  0  0  0  0
  6  7  2  0  0  0  0
  6  5  1  0  0  0  0
  7  8  1  0  0  0  0
  8  3  2  0  0  0  0
 11  7  1  0  0  0  0
 12  1  1  0  0  0  0
 13 14  1  0  0  0  0
 13 12  1  0  0  0  0
 15 17  1  0  0  0  0
 15 13  2  0  0  0  0
 16 15  1  0  0  0  0
 17 19  1  0  0  0  0
 18 17  1  0  0  0  0
 19 12  2  0  0  0  0
M  END
>  <minimizedAffinity>
-4.03360128

$$$$

 OpenBabel03252501123D

 19 20  0  0  0  0  0  0  0  0999 V2000
   38.7820   32.6240   40.2590 C   0  0  0  0  0  0  0  0  0  0  0  0
   38.7780   33.7450   40.8120 O   0  0  0  0  0  0  0  0  0  0  0  0
   36.0470   30.2480   40.8600 C   0  0  0  0  0  0  0  0  0  0  0  0
   36.7720   31.3930   40.4260 C   0  0  0  0  0  0  0  0  0  0  0  0
   38.1200   31.4490   40.7310 C   0  0  0  0  0  0  0  0  0  0  0  0
   38.7000   30.4420   41.4160 N   0  0  0  0  0  0  0  0  0  0  0  0
   37.9780   29.3530   41.8200 C   0  0  0  0  0  0  0  0  0  0  0  0
   36.6510   29.2560   41.5430 N   0  0  0  0  0  0  0  0  0  0  0  0
   34.9920   30.1960   40.6250 H   0  0  0  0  0  0  0  0  0  0  0  0
   36.2220   32.1550   39.8820 H   0  0  0  0  0  0  0  0  0  0  0  0
   38.5840   28.6320   42.3560 H   0  0  0  0  0  0  0  0  0  0  0  0
   39.5540   32.5530   39.0040 C   0  0  0  0  0  0  0  0  0  0  0  0
   40.8540   33.0190   38.8240 C   0  0  0  0  0  0  0  0  0  0  0  0
   41.4880   33.4950   39.5570 H   0  0  0  0  0  0  0  0  0  0  0  0
   41.1530   32.7340   37.4870 C   0  0  0  0  0  0  0  0  0  0  0  0
   42.1450   33.0140   37.0970 H   0  0  0  0  0  0  0  0  0  0  0  0
   40.0900   32.1360   36.9160 N   0  0  0  0  0  0  0  0  0  0  0  0
   40.1690   31.8650   35.9190 H   0  0  0  0  0  0  0  0  0  0  0  0
   39.1360   32.0280   37.8230 N   0  0  0  0  0  0  0  0  0  0  0  0
  1  5  1  0  0  0  0
  1  2  2  0  0  0  0
  3  8  1  0  0  0  0
  4  5  1  0  0  0  0
  4  3  2  0  0  0  0
  5  6  2  0  0  0  0
  6  7  1  0  0  0  0
  7 11  1  0  0  0  0
  8  7  2  0  0  0  0
  9  3  1  0  0  0  0
 10  4  1  0  0  0  0
 12  1  1  0  0  0  0
 13 12  1  0  0  0  0
 13 14  1  0  0  0  0
 15 13  2  0  0  0  0
 16 15  1  0  0  0  0
 17 15  1  0  0  0  0
 17 19  1  0  0  0  0
 18 17  1  0  0  0  0
 19 12  2  0  0  0  0
M  END
>  <minimizedAffinity>
-3.98789334

$$$$

 OpenBabel03252501123D

 19 20  0  0  0  0  0  0  0  0999 V2000
   39.0180   25.8770   42.8480 C   0  0  0  0  0  0  0  0  0  0  0  0
   39.8880   25.5420   43.6800 O   0  0  0  0  0  0  0  0  0  0  0  0
   36.5710   24.0300   40.8260 C   0  0  0  0  0  0  0  0  0  0  0  0
   37.1490   24.8270   41.8530 C   0  0  0  0  0  0  0  0  0  0  0  0
   38.5100   25.0660   41.7870 C   0  0  0  0  0  0  0  0  0  0  0  0
   39.2370   24.5510   40.7740 N   0  0  0  0  0  0  0  0  0  0  0  0
   38.6540   23.7890   39.8000 C   0  0  0  0  0  0  0  0  0  0  0  0
   37.3210   23.5270   39.8250 N   0  0  0  0  0  0  0  0  0  0  0  0
   35.5070   23.8380   40.8700 H   0  0  0  0  0  0  0  0  0  0  0  0
   36.4870   25.1980   42.6280 H   0  0  0  0  0  0  0  0  0  0  0  0
   39.3680   23.4500   39.0580 H   0  0  0  0  0  0  0  0  0  0  0  0
   38.4920   27.2450   43.0150 C   0  0  0  0  0  0  0  0  0  0  0  0
   39.0760   28.4050   42.5100 C   0  0  0  0  0  0  0  0  0  0  0  0
   39.9830   28.4840   41.9310 H   0  0  0  0  0  0  0  0  0  0  0  0
   38.2260   29.4380   42.9200 C   0  0  0  0  0  0  0  0  0  0  0  0
   38.4800   30.4730   42.6380 H   0  0  0  0  0  0  0  0  0  0  0  0
   37.2050   28.9160   43.6240 N   0  0  0  0  0  0  0  0  0  0  0  0
   36.4910   29.5700   43.9940 H   0  0  0  0  0  0  0  0  0  0  0  0
   37.3640   27.6060   43.6800 N   0  0  0  0  0  0  0  0  0  0  0  0
  1 12  1  0  0  0  0
  1  2  2  0  0  0  0
  3  9  1  0  0  0  0
  3  4  1  0  0  0  0
  4 10  1  0  0  0  0
  5  4  2  0  0  0  0
  5  1  1  0  0  0  0
  6  5  1  0  0  0  0
  7  8  1  0  0  0  0
  7  6  2  0  0  0  0
  8  3  2  0  0  0  0
 11  7  1  0  0  0  0
 12 19  2  0  0  0  0
 13 15  2  0  0  0  0
 13 12  1  0  0  0  0
 14 13  1  0  0  0  0
 15 17  1  0  0  0  0
 16 15  1  0  0  0  0
 17 19  1  0  0  0  0
 17 18  1  0  0  0  0
M  END
>  <minimizedAffinity>
-3.92506599

$$$$

 OpenBabel03252501123D

 19 20  0  0  0  0  0  0  0  0999 V2000
   38.2800   29.7180   40.4500 C   0  0  0  0  0  0  0  0  0  0  0  0
   38.7180   28.9370   39.5790 O   0  0  0  0  0  0  0  0  0  0  0  0
   37.2110   33.1120   39.5400 C   0  0  0  0  0  0  0  0  0  0  0  0
   37.2650   31.6930   39.6430 C   0  0  0  0  0  0  0  0  0  0  0  0
   38.2940   31.1450   40.3870 C   0  0  0  0  0  0  0  0  0  0  0  0
   39.2000   31.9490   40.9820 N   0  0  0  0  0  0  0  0  0  0  0  0
   39.1230   33.3090   40.8660 C   0  0  0  0  0  0  0  0  0  0  0  0
   38.1290   33.8910   40.1440 N   0  0  0  0  0  0  0  0  0  0  0  0
   36.4090   33.5490   38.9610 H   0  0  0  0  0  0  0  0  0  0  0  0
   36.4940   31.1270   39.1310 H   0  0  0  0  0  0  0  0  0  0  0  0
   39.9200   33.8140   41.3990 H   0  0  0  0  0  0  0  0  0  0  0  0
   37.7020   29.0610   41.6390 C   0  0  0  0  0  0  0  0  0  0  0  0
   38.3090   28.9660   42.8880 C   0  0  0  0  0  0  0  0  0  0  0  0
   39.2760   29.3480   43.1790 H   0  0  0  0  0  0  0  0  0  0  0  0
   37.3890   28.2680   43.6790 C   0  0  0  0  0  0  0  0  0  0  0  0
   37.6470   28.0630   44.7300 H   0  0  0  0  0  0  0  0  0  0  0  0
   36.3060   27.9710   42.9370 N   0  0  0  0  0  0  0  0  0  0  0  0
   35.5370   27.4510   43.3960 H   0  0  0  0  0  0  0  0  0  0  0  0
   36.4940   28.4460   41.7180 N   0  0  0  0  0  0  0  0  0  0  0  0
  1 12  1  0  0  0  0
  2  1  2  0  0  0  0
  3  4  2  0  0  0  0
  3  8  1  0  0  0  0
  4  5  1  0  0  0  0
  5  1  1  0  0  0  0
  5  6  2  0  0  0  0
  7  6  1  0  0  0  0
  7 11  1  0  0  0  0
  8  7  2  0  0  0  0
  9  3  1  0  0  0  0
 10  4  1  0  0  0  0
 12 19  2  0  0  0  0
 12 13  1  0  0  0  0
 13 14  1  0  0  0  0
 13 15  2  0  0  0  0
 15 16  1  0  0  0  0
 17 18  1  0  0  0  0
 17 15  1  0  0  0  0
 19 17  1  0  0  0  0
M  END
>  <minimizedAffinity>
-3.91189909

$$$$

 OpenBabel03252501123D

 19 20  0  0  0  0  0  0  0  0999 V2000
   37.0810   27.5950   42.5570 C   0  0  0  0  0  0  0  0  0  0  0  0
   36.2130   27.0210   43.2470 O   0  0  0  0  0  0  0  0  0  0  0  0
   40.4730   26.7160   43.6570 C   0  0  0  0  0  0  0  0  0  0  0  0
   39.0990   27.0860   43.6760 C   0  0  0  0  0  0  0  0  0  0  0  0
   38.4590   27.2280   42.4580 C   0  0  0  0  0  0  0  0  0  0  0  0
   39.1360   27.0160   41.3110 N   0  0  0  0  0  0  0  0  0  0  0  0
   40.4560   26.6610   41.3230 C   0  0  0  0  0  0  0  0  0  0  0  0
   41.1260   26.5110   42.4960 N   0  0  0  0  0  0  0  0  0  0  0  0
   40.9820   26.6020   44.6050 H   0  0  0  0  0  0  0  0  0  0  0  0
   38.6370   27.2360   44.6460 H   0  0  0  0  0  0  0  0  0  0  0  0
   40.8560   26.5270   40.3250 H   0  0  0  0  0  0  0  0  0  0  0  0
   36.5960   28.7560   41.7860 C   0  0  0  0  0  0  0  0  0  0  0  0
   37.2020   30.0090   41.7400 C   0  0  0  0  0  0  0  0  0  0  0  0
   38.1010   30.3230   42.2480 H   0  0  0  0  0  0  0  0  0  0  0  0
   36.3870   30.7670   40.8900 C   0  0  0  0  0  0  0  0  0  0  0  0
   36.6640   31.8150   40.6920 H   0  0  0  0  0  0  0  0  0  0  0  0
   35.3640   30.0030   40.4640 N   0  0  0  0  0  0  0  0  0  0  0  0
   34.6750   30.4370   39.8230 H   0  0  0  0  0  0  0  0  0  0  0  0
   35.4900   28.8020   40.9990 N   0  0  0  0  0  0  0  0  0  0  0  0
  1  2  2  0  0  0  0
  3  4  1  0  0  0  0
  3  9  1  0  0  0  0
  4 10  1  0  0  0  0
  5  1  1  0  0  0  0
  5  4  2  0  0  0  0
  6  7  2  0  0  0  0
  6  5  1  0  0  0  0
  7  8  1  0  0  0  0
  8  3  2  0  0  0  0
 11  7  1  0  0  0  0
 12  1  1  0  0  0  0
 13 12  1  0  0  0  0
 13 14  1  0  0  0  0
 15 13  2  0  0  0  0
 16 15  1  0  0  0  0
 17 15  1  0  0  0  0
 17 19  1  0  0  0  0
 18 17  1  0  0  0  0
 19 12  2  0  0  0  0
M  END
>  <minimizedAffinity>
-3.8447423

$$$$

 OpenBabel03252501123D

 19 20  0  0  0  0  0  0  0  0999 V2000
   37.0490   27.9260   39.4630 C   0  0  0  0  0  0  0  0  0  0  0  0
   37.3370   28.0100   38.2500 O   0  0  0  0  0  0  0  0  0  0  0  0
   36.4710   24.3900   40.2690 C   0  0  0  0  0  0  0  0  0  0  0  0
   36.5320   25.6230   39.5600 C   0  0  0  0  0  0  0  0  0  0  0  0
   37.0120   26.7280   40.2400 C   0  0  0  0  0  0  0  0  0  0  0  0
   37.4010   26.6130   41.5260 N   0  0  0  0  0  0  0  0  0  0  0  0
   37.3320   25.4150   42.1830 C   0  0  0  0  0  0  0  0  0  0  0  0
   36.8660   24.3030   41.5550 N   0  0  0  0  0  0  0  0  0  0  0  0
   36.0970   23.5210   39.7450 H   0  0  0  0  0  0  0  0  0  0  0  0
   36.1970   25.6210   38.5280 H   0  0  0  0  0  0  0  0  0  0  0  0
   37.6800   25.4850   43.2070 H   0  0  0  0  0  0  0  0  0  0  0  0
   36.7240   29.2100   40.1150 C   0  0  0  0  0  0  0  0  0  0  0  0
   37.5810   30.3010   40.2280 C   0  0  0  0  0  0  0  0  0  0  0  0
   38.5950   30.3800   39.8670 H   0  0  0  0  0  0  0  0  0  0  0  0
   36.8370   31.2690   40.9130 C   0  0  0  0  0  0  0  0  0  0  0  0
   37.3080   32.2410   41.1290 H   0  0  0  0  0  0  0  0  0  0  0  0
   35.6150   30.7740   41.1850 N   0  0  0  0  0  0  0  0  0  0  0  0
   34.9510   31.3850   41.6930 H   0  0  0  0  0  0  0  0  0  0  0  0
   35.5480   29.5440   40.7070 N   0  0  0  0  0  0  0  0  0  0  0  0
  1 12  1  0  0  0  0
  1  5  1  0  0  0  0
  2  1  2  0  0  0  0
  3  8  1  0  0  0  0
  4  5  1  0  0  0  0
  4  3  2  0  0  0  0
  5  6  2  0  0  0  0
  6  7  1  0  0  0  0
  7 11  1  0  0  0  0
  8  7  2  0  0  0  0
  9  3  1  0  0  0  0
 10  4  1  0  0  0  0
 12 13  1  0  0  0  0
 12 19  2  0  0  0  0
 13 15  2  0  0  0  0
 14 13  1  0  0  0  0
 15 16  1  0  0  0  0
 15 17  1  0  0  0  0
 17 18  1  0  0  0  0
 19 17  1  0  0  0  0
M  END
>  <minimizedAffinity>
-3.72625494

$$$$

 OpenBabel03252501123D

 19 20  0  0  0  0  0  0  0  0999 V2000
   37.2370   30.5470   41.2440 C   0  0  0  0  0  0  0  0  0  0  0  0
   36.1100   31.0560   41.0660 O   0  0  0  0  0  0  0  0  0  0  0  0
   39.8730   32.9570   40.3880 C   0  0  0  0  0  0  0  0  0  0  0  0
   38.6590   32.3990   40.8780 C   0  0  0  0  0  0  0  0  0  0  0  0
   38.4750   31.0360   40.7240 C   0  0  0  0  0  0  0  0  0  0  0  0
   39.4260   30.2890   40.1270 N   0  0  0  0  0  0  0  0  0  0  0  0
   40.5830   30.8530   39.6650 C   0  0  0  0  0  0  0  0  0  0  0  0
   40.8070   32.1870   39.7950 N   0  0  0  0  0  0  0  0  0  0  0  0
   40.0260   34.0210   40.5050 H   0  0  0  0  0  0  0  0  0  0  0  0
   37.9510   33.0760   41.3440 H   0  0  0  0  0  0  0  0  0  0  0  0
   41.2450   30.1240   39.2130 H   0  0  0  0  0  0  0  0  0  0  0  0
   37.2450   29.3290   42.0780 C   0  0  0  0  0  0  0  0  0  0  0  0
   36.4800   28.1880   41.8510 C   0  0  0  0  0  0  0  0  0  0  0  0
   35.7770   28.0160   41.0490 H   0  0  0  0  0  0  0  0  0  0  0  0
   36.8250   27.3160   42.8900 C   0  0  0  0  0  0  0  0  0  0  0  0
   36.3430   26.3260   42.9300 H   0  0  0  0  0  0  0  0  0  0  0  0
   37.7380   27.9120   43.6790 N   0  0  0  0  0  0  0  0  0  0  0  0
   38.0880   27.3790   44.4960 H   0  0  0  0  0  0  0  0  0  0  0  0
   37.9880   29.1140   43.1930 N   0  0  0  0  0  0  0  0  0  0  0  0
  1 12  1  0  0  0  0
  2  1  2  0  0  0  0
  3  9  1  0  0  0  0
  3  4  1  0  0  0  0
  4 10  1  0  0  0  0
  5  4  2  0  0  0  0
  5  1  1  0  0  0  0
  6  5  1  0  0  0  0
  7  8  1  0  0  0  0
  7  6  2  0  0  0  0
  8  3  2  0  0  0  0
 11  7  1  0  0  0  0
 12 19  2  0  0  0  0
 13 12  1  0  0  0  0
 13 15  2  0  0  0  0
 14 13  1  0  0  0  0
 15 16  1  0  0  0  0
 15 17  1  0  0  0  0
 17 18  1  0  0  0  0
 19 17  1  0  0  0  0
M  END
>  <minimizedAffinity>
-3.71027827

$$$$
