
 OpenBabel03252508403D

 40 43  0  0  0  0  0  0  0  0999 V2000
   38.7770   30.3970   38.9320 C   0  0  0  0  0  0  0  0  0  0  0  0
   40.1550   30.4080   39.0090 C   0  0  0  0  0  0  0  0  0  0  0  0
   40.7850   29.1910   39.0360 C   0  0  0  0  0  0  0  0  0  0  0  0
   40.1310   27.9850   38.9940 C   0  0  0  0  0  0  0  0  0  0  0  0
   38.7560   28.0120   38.9180 C   0  0  0  0  0  0  0  0  0  0  0  0
   38.0780   29.2000   38.8880 C   0  0  0  0  0  0  0  0  0  0  0  0
   41.8670   29.2050   39.0960 H   0  0  0  0  0  0  0  0  0  0  0  0
   40.7220   27.0710   39.0220 H   0  0  0  0  0  0  0  0  0  0  0  0
   38.2590   27.0450   38.8850 H   0  0  0  0  0  0  0  0  0  0  0  0
   41.9350   33.5680   37.9790 C   0  0  0  0  0  0  0  0  0  0  0  0
   41.3010   32.3110   37.8840 C   0  0  0  0  0  0  0  0  0  0  0  0
   40.8140   31.6990   39.0520 C   0  0  0  0  0  0  0  0  0  0  0  0
   41.0000   32.3870   40.2000 N   0  0  0  0  0  0  0  0  0  0  0  0
   41.6030   33.5740   40.2630 C   0  0  0  0  0  0  0  0  0  0  0  0
   42.0700   34.1610   39.1450 N   0  0  0  0  0  0  0  0  0  0  0  0
   42.4070   34.1400   36.7810 N   0  0  0  0  0  0  0  0  0  0  0  0
   41.1930   31.8280   36.9240 H   0  0  0  0  0  0  0  0  0  0  0  0
   41.7300   34.0910   41.2120 H   0  0  0  0  0  0  0  0  0  0  0  0
   43.2860   34.7130   36.7820 H   0  0  0  0  0  0  0  0  0  0  0  0
   41.9640   34.0610   35.8390 H   0  0  0  0  0  0  0  0  0  0  0  0
   36.6230   29.1270   38.8060 C   0  0  0  0  0  0  0  0  0  0  0  0
   36.1040   29.1360   37.5280 C   0  0  0  0  0  0  0  0  0  0  0  0
   34.7310   29.0740   37.2740 C   0  0  0  0  0  0  0  0  0  0  0  0
   33.8740   29.0000   38.3440 C   0  0  0  0  0  0  0  0  0  0  0  0
   34.3720   28.9890   39.6190 C   0  0  0  0  0  0  0  0  0  0  0  0
   35.7410   29.0520   39.8660 C   0  0  0  0  0  0  0  0  0  0  0  0
   36.6950   29.1920   36.6200 H   0  0  0  0  0  0  0  0  0  0  0  0
   34.3220   29.0810   36.2720 H   0  0  0  0  0  0  0  0  0  0  0  0
   32.8140   28.9470   38.2770 H   0  0  0  0  0  0  0  0  0  0  0  0
   33.8180   28.9340   40.5500 H   0  0  0  0  0  0  0  0  0  0  0  0
   36.3700   29.0470   41.1820 C   0  0  0  0  0  0  0  0  0  0  0  0
   36.4430   27.8280   41.8600 C   0  0  0  0  0  0  0  0  0  0  0  0
   36.1230   26.8270   41.6260 H   0  0  0  0  0  0  0  0  0  0  0  0
   37.0710   28.0550   43.0750 C   0  0  0  0  0  0  0  0  0  0  0  0
   37.3640   27.4630   43.9430 H   0  0  0  0  0  0  0  0  0  0  0  0
   37.3600   29.3890   43.1030 N   0  0  0  0  0  0  0  0  0  0  0  0
   37.8350   29.9890   43.8380 H   0  0  0  0  0  0  0  0  0  0  0  0
   36.9440   29.9660   41.9840 N   0  0  0  0  0  0  0  0  0  0  0  0
   37.4270   32.6260   38.8640 N   0  0  0  0  0  0  0  0  0  0  0  0
   38.0400   31.6260   38.8980 C   0  0  0  0  0  0  0  0  0  0  0  0
  1  2  1  0  0  0  0
  2  3  2  0  0  0  0
  2 12  1  0  0  0  0
  3  7  1  0  0  0  0
  4  8  1  0  0  0  0
  4  3  1  0  0  0  0
  5  4  2  0  0  0  0
  6  5  1  0  0  0  0
  6  1  2  0  0  0  0
  9  5  1  0  0  0  0
 10 15  1  0  0  0  0
 11 10  2  0  0  0  0
 11 12  1  0  0  0  0
 12 13  2  0  0  0  0
 13 14  1  0  0  0  0
 14 18  1  0  0  0  0
 15 14  2  0  0  0  0
 16 19  1  0  0  0  0
 16 10  1  0  0  0  0
 17 11  1  0  0  0  0
 20 16  1  0  0  0  0
 21  6  1  0  0  0  0
 21 26  1  0  0  0  0
 22 21  2  0  0  0  0
 23 22  1  0  0  0  0
 23 24  2  0  0  0  0
 24 25  1  0  0  0  0
 25 26  2  0  0  0  0
 25 30  1  0  0  0  0
 26 31  1  0  0  0  0
 27 22  1  0  0  0  0
 28 23  1  0  0  0  0
 29 24  1  0  0  0  0
 31 32  1  0  0  0  0
 31 38  2  0  0  0  0
 32 34  2  0  0  0  0
 33 32  1  0  0  0  0
 34 36  1  0  0  0  0
 34 35  1  0  0  0  0
 36 37  1  0  0  0  0
 38 36  1  0  0  0  0
 39 40  3  0  0  0  0
 40  1  1  0  0  0  0
M  END
>  <minimizedAffinity>
-6.44969797

$$$$

 OpenBabel03252508403D

 40 43  0  0  0  0  0  0  0  0999 V2000
   38.5370   27.5170   41.3760 C   0  0  0  0  0  0  0  0  0  0  0  0
   39.0230   27.5100   42.6680 C   0  0  0  0  0  0  0  0  0  0  0  0
   38.1000   27.6020   43.6780 C   0  0  0  0  0  0  0  0  0  0  0  0
   36.7460   27.7000   43.4760 C   0  0  0  0  0  0  0  0  0  0  0  0
   36.2980   27.7030   42.1740 C   0  0  0  0  0  0  0  0  0  0  0  0
   37.1760   27.6140   41.1290 C   0  0  0  0  0  0  0  0  0  0  0  0
   38.4860   27.5960   44.6900 H   0  0  0  0  0  0  0  0  0  0  0  0
   36.0940   27.7680   44.3450 H   0  0  0  0  0  0  0  0  0  0  0  0
   35.2210   27.7810   42.0380 H   0  0  0  0  0  0  0  0  0  0  0  0
   42.4800   26.1170   43.2380 C   0  0  0  0  0  0  0  0  0  0  0  0
   41.0790   26.1650   43.0710 C   0  0  0  0  0  0  0  0  0  0  0  0
   40.4580   27.4060   42.8450 C   0  0  0  0  0  0  0  0  0  0  0  0
   41.2790   28.4790   42.8060 N   0  0  0  0  0  0  0  0  0  0  0  0
   42.6000   28.4060   42.9660 C   0  0  0  0  0  0  0  0  0  0  0  0
   43.1960   27.2180   43.1820 N   0  0  0  0  0  0  0  0  0  0  0  0
   43.0550   24.8500   43.4620 N   0  0  0  0  0  0  0  0  0  0  0  0
   40.4950   25.2590   43.1170 H   0  0  0  0  0  0  0  0  0  0  0  0
   43.2220   29.2980   42.9260 H   0  0  0  0  0  0  0  0  0  0  0  0
   43.8890   24.7560   44.0910 H   0  0  0  0  0  0  0  0  0  0  0  0
   42.7360   23.9430   43.0560 H   0  0  0  0  0  0  0  0  0  0  0  0
   36.6070   27.6260   39.7850 C   0  0  0  0  0  0  0  0  0  0  0  0
   36.3660   26.3830   39.2380 C   0  0  0  0  0  0  0  0  0  0  0  0
   35.8240   26.2170   37.9600 C   0  0  0  0  0  0  0  0  0  0  0  0
   35.5240   27.3400   37.2300 C   0  0  0  0  0  0  0  0  0  0  0  0
   35.7560   28.5800   37.7580 C   0  0  0  0  0  0  0  0  0  0  0  0
   36.2970   28.7390   39.0320 C   0  0  0  0  0  0  0  0  0  0  0  0
   36.5680   25.4380   39.7320 H   0  0  0  0  0  0  0  0  0  0  0  0
   35.6350   25.2420   37.5290 H   0  0  0  0  0  0  0  0  0  0  0  0
   35.1090   27.3410   36.2510 H   0  0  0  0  0  0  0  0  0  0  0  0
   35.5690   29.5450   37.2990 H   0  0  0  0  0  0  0  0  0  0  0  0
   36.5810   30.0140   39.6830 C   0  0  0  0  0  0  0  0  0  0  0  0
   37.7530   30.6790   39.3180 C   0  0  0  0  0  0  0  0  0  0  0  0
   38.5490   30.4600   38.6260 H   0  0  0  0  0  0  0  0  0  0  0  0
   37.8210   31.8540   40.0530 C   0  0  0  0  0  0  0  0  0  0  0  0
   38.5050   32.6980   40.1430 H   0  0  0  0  0  0  0  0  0  0  0  0
   36.7010   31.8710   40.8330 N   0  0  0  0  0  0  0  0  0  0  0  0
   36.3520   32.5780   41.5430 H   0  0  0  0  0  0  0  0  0  0  0  0
   35.9760   30.7830   40.6090 N   0  0  0  0  0  0  0  0  0  0  0  0
   40.1590   27.3460   39.3410 N   0  0  0  0  0  0  0  0  0  0  0  0
   39.4340   27.4240   40.2620 C   0  0  0  0  0  0  0  0  0  0  0  0
  1  2  1  0  0  0  0
  2 12  1  0  0  0  0
  2  3  2  0  0  0  0
  3  7  1  0  0  0  0
  4  3  1  0  0  0  0
  4  8  1  0  0  0  0
  5  4  2  0  0  0  0
  6  1  2  0  0  0  0
  6  5  1  0  0  0  0
  9  5  1  0  0  0  0
 10 16  1  0  0  0  0
 11 17  1  0  0  0  0
 11 10  2  0  0  0  0
 12 11  1  0  0  0  0
 13 12  2  0  0  0  0
 13 14  1  0  0  0  0
 14 15  2  0  0  0  0
 15 10  1  0  0  0  0
 16 19  1  0  0  0  0
 18 14  1  0  0  0  0
 20 16  1  0  0  0  0
 21  6  1  0  0  0  0
 22 27  1  0  0  0  0
 22 21  1  0  0  0  0
 23 22  2  0  0  0  0
 24 25  2  0  0  0  0
 24 23  1  0  0  0  0
 25 26  1  0  0  0  0
 26 31  1  0  0  0  0
 26 21  2  0  0  0  0
 28 23  1  0  0  0  0
 29 24  1  0  0  0  0
 30 25  1  0  0  0  0
 31 38  2  0  0  0  0
 32 31  1  0  0  0  0
 32 34  2  0  0  0  0
 33 32  1  0  0  0  0
 34 35  1  0  0  0  0
 34 36  1  0  0  0  0
 36 37  1  0  0  0  0
 38 36  1  0  0  0  0
 39 40  3  0  0  0  0
 40  1  1  0  0  0  0
M  END
>  <minimizedAffinity>
-6.35455227

$$$$

 OpenBabel03252508403D

 40 43  0  0  0  0  0  0  0  0999 V2000
   37.9040   27.8500   41.1720 C   0  0  0  0  0  0  0  0  0  0  0  0
   37.7880   28.9140   42.0430 C   0  0  0  0  0  0  0  0  0  0  0  0
   37.2450   28.6520   43.2740 C   0  0  0  0  0  0  0  0  0  0  0  0
   36.8180   27.4120   43.6790 C   0  0  0  0  0  0  0  0  0  0  0  0
   36.9500   26.3730   42.7840 C   0  0  0  0  0  0  0  0  0  0  0  0
   37.4850   26.5800   41.5420 C   0  0  0  0  0  0  0  0  0  0  0  0
   37.1560   29.4900   43.9550 H   0  0  0  0  0  0  0  0  0  0  0  0
   36.4000   27.3050   44.6790 H   0  0  0  0  0  0  0  0  0  0  0  0
   36.6060   25.3990   43.1260 H   0  0  0  0  0  0  0  0  0  0  0  0
   37.8670   32.3700   40.5390 C   0  0  0  0  0  0  0  0  0  0  0  0
   37.3710   31.1220   40.9690 C   0  0  0  0  0  0  0  0  0  0  0  0
   38.2470   30.2100   41.5840 C   0  0  0  0  0  0  0  0  0  0  0  0
   39.5290   30.6200   41.7130 N   0  0  0  0  0  0  0  0  0  0  0  0
   39.9720   31.8060   41.2980 C   0  0  0  0  0  0  0  0  0  0  0  0
   39.1330   32.6800   40.7100 N   0  0  0  0  0  0  0  0  0  0  0  0
   36.9490   33.2490   39.9290 N   0  0  0  0  0  0  0  0  0  0  0  0
   36.3300   30.8720   40.8270 H   0  0  0  0  0  0  0  0  0  0  0  0
   41.0140   32.0920   41.4240 H   0  0  0  0  0  0  0  0  0  0  0  0
   37.2630   33.8790   39.1510 H   0  0  0  0  0  0  0  0  0  0  0  0
   35.9400   33.3570   40.1690 H   0  0  0  0  0  0  0  0  0  0  0  0
   37.5840   25.4190   40.6640 C   0  0  0  0  0  0  0  0  0  0  0  0
   36.5430   25.2660   39.7720 C   0  0  0  0  0  0  0  0  0  0  0  0
   36.4830   24.2080   38.8610 C   0  0  0  0  0  0  0  0  0  0  0  0
   37.5040   23.2900   38.8620 C   0  0  0  0  0  0  0  0  0  0  0  0
   38.5450   23.4270   39.7400 C   0  0  0  0  0  0  0  0  0  0  0  0
   38.5990   24.4840   40.6450 C   0  0  0  0  0  0  0  0  0  0  0  0
   35.6920   25.9350   39.6920 H   0  0  0  0  0  0  0  0  0  0  0  0
   35.6670   24.0860   38.1610 H   0  0  0  0  0  0  0  0  0  0  0  0
   37.5690   22.4460   38.2190 H   0  0  0  0  0  0  0  0  0  0  0  0
   39.4110   22.7840   39.8510 H   0  0  0  0  0  0  0  0  0  0  0  0
   39.6600   24.7180   41.6180 C   0  0  0  0  0  0  0  0  0  0  0  0
   40.7800   25.4380   41.1950 C   0  0  0  0  0  0  0  0  0  0  0  0
   41.0640   25.8890   40.2590 H   0  0  0  0  0  0  0  0  0  0  0  0
   41.6510   25.5390   42.2690 C   0  0  0  0  0  0  0  0  0  0  0  0
   42.6280   25.9830   42.4620 H   0  0  0  0  0  0  0  0  0  0  0  0
   41.0440   24.8880   43.3040 N   0  0  0  0  0  0  0  0  0  0  0  0
   41.3530   24.7220   44.3060 H   0  0  0  0  0  0  0  0  0  0  0  0
   39.8720   24.4070   42.9120 N   0  0  0  0  0  0  0  0  0  0  0  0
   38.9290   28.1940   38.8000 N   0  0  0  0  0  0  0  0  0  0  0  0
   38.4610   28.0370   39.8650 C   0  0  0  0  0  0  0  0  0  0  0  0
  1  6  2  0  0  0  0
  1  2  1  0  0  0  0
  2  3  2  0  0  0  0
  3  4  1  0  0  0  0
  3  7  1  0  0  0  0
  4  8  1  0  0  0  0
  5  9  1  0  0  0  0
  5  4  2  0  0  0  0
  6  5  1  0  0  0  0
 10 15  2  0  0  0  0
 10 11  1  0  0  0  0
 11 12  2  0  0  0  0
 12 13  1  0  0  0  0
 12  2  1  0  0  0  0
 14 18  1  0  0  0  0
 14 13  2  0  0  0  0
 15 14  1  0  0  0  0
 16 20  1  0  0  0  0
 16 10  1  0  0  0  0
 17 11  1  0  0  0  0
 19 16  1  0  0  0  0
 21  6  1  0  0  0  0
 22 21  2  0  0  0  0
 23 24  2  0  0  0  0
 23 22  1  0  0  0  0
 24 25  1  0  0  0  0
 25 30  1  0  0  0  0
 25 26  2  0  0  0  0
 26 21  1  0  0  0  0
 26 31  1  0  0  0  0
 27 22  1  0  0  0  0
 28 23  1  0  0  0  0
 29 24  1  0  0  0  0
 31 38  2  0  0  0  0
 32 31  1  0  0  0  0
 32 34  2  0  0  0  0
 33 32  1  0  0  0  0
 34 35  1  0  0  0  0
 34 36  1  0  0  0  0
 36 37  1  0  0  0  0
 38 36  1  0  0  0  0
 39 40  3  0  0  0  0
 40  1  1  0  0  0  0
M  END
>  <minimizedAffinity>
-6.34126139

$$$$

 OpenBabel03252508403D

 40 43  0  0  0  0  0  0  0  0999 V2000
   39.2500   31.3930   40.0650 C   0  0  0  0  0  0  0  0  0  0  0  0
   39.3930   32.7290   39.7490 C   0  0  0  0  0  0  0  0  0  0  0  0
   38.2470   33.4780   39.6890 C   0  0  0  0  0  0  0  0  0  0  0  0
   36.9890   32.9810   39.9210 C   0  0  0  0  0  0  0  0  0  0  0  0
   36.8840   31.6440   40.2340 C   0  0  0  0  0  0  0  0  0  0  0  0
   37.9970   30.8500   40.3070 C   0  0  0  0  0  0  0  0  0  0  0  0
   38.3640   34.5260   39.4410 H   0  0  0  0  0  0  0  0  0  0  0  0
   36.1400   33.6580   39.8490 H   0  0  0  0  0  0  0  0  0  0  0  0
   35.8780   31.2710   40.4150 H   0  0  0  0  0  0  0  0  0  0  0  0
   42.5210   33.9370   38.0250 C   0  0  0  0  0  0  0  0  0  0  0  0
   41.2060   33.4580   38.2060 C   0  0  0  0  0  0  0  0  0  0  0  0
   40.7360   33.2220   39.5090 C   0  0  0  0  0  0  0  0  0  0  0  0
   41.6080   33.4800   40.5080 N   0  0  0  0  0  0  0  0  0  0  0  0
   42.8460   33.9330   40.3100 C   0  0  0  0  0  0  0  0  0  0  0  0
   43.2980   34.1600   39.0620 N   0  0  0  0  0  0  0  0  0  0  0  0
   42.9460   34.1590   36.7000 N   0  0  0  0  0  0  0  0  0  0  0  0
   40.5710   33.2770   37.3510 H   0  0  0  0  0  0  0  0  0  0  0  0
   43.5140   34.1280   41.1460 H   0  0  0  0  0  0  0  0  0  0  0  0
   43.9440   33.9820   36.4320 H   0  0  0  0  0  0  0  0  0  0  0  0
   42.3560   34.4960   35.9070 H   0  0  0  0  0  0  0  0  0  0  0  0
   37.7860   29.4470   40.6450 C   0  0  0  0  0  0  0  0  0  0  0  0
   37.7810   29.1610   41.9950 C   0  0  0  0  0  0  0  0  0  0  0  0
   37.5920   27.8670   42.4880 C   0  0  0  0  0  0  0  0  0  0  0  0
   37.4060   26.8480   41.5880 C   0  0  0  0  0  0  0  0  0  0  0  0
   37.4070   27.1140   40.2450 C   0  0  0  0  0  0  0  0  0  0  0  0
   37.5960   28.4060   39.7600 C   0  0  0  0  0  0  0  0  0  0  0  0
   37.9190   29.8930   42.7830 H   0  0  0  0  0  0  0  0  0  0  0  0
   37.5890   27.6420   43.5470 H   0  0  0  0  0  0  0  0  0  0  0  0
   37.2530   25.8270   41.8420 H   0  0  0  0  0  0  0  0  0  0  0  0
   37.2730   26.4140   39.4280 H   0  0  0  0  0  0  0  0  0  0  0  0
   37.6150   28.7910   38.3530 C   0  0  0  0  0  0  0  0  0  0  0  0
   36.3890   29.0490   37.7360 C   0  0  0  0  0  0  0  0  0  0  0  0
   35.3670   29.0290   38.0740 H   0  0  0  0  0  0  0  0  0  0  0  0
   36.6410   29.3940   36.4160 C   0  0  0  0  0  0  0  0  0  0  0  0
   36.0560   29.6770   35.5410 H   0  0  0  0  0  0  0  0  0  0  0  0
   37.9980   29.3380   36.2690 N   0  0  0  0  0  0  0  0  0  0  0  0
   38.6200   29.5240   35.4300 H   0  0  0  0  0  0  0  0  0  0  0  0
   38.5630   28.9820   37.4150 N   0  0  0  0  0  0  0  0  0  0  0  0
   41.3440   29.8460   40.2080 N   0  0  0  0  0  0  0  0  0  0  0  0
   40.3980   30.5390   40.1490 C   0  0  0  0  0  0  0  0  0  0  0  0
  1 40  1  0  0  0  0
  1  6  1  0  0  0  0
  2  1  2  0  0  0  0
  3  2  1  0  0  0  0
  3  4  2  0  0  0  0
  4  5  1  0  0  0  0
  5  6  2  0  0  0  0
  5  9  1  0  0  0  0
  6 21  1  0  0  0  0
  7  3  1  0  0  0  0
  8  4  1  0  0  0  0
 10 11  2  0  0  0  0
 10 15  1  0  0  0  0
 11 12  1  0  0  0  0
 12  2  1  0  0  0  0
 12 13  2  0  0  0  0
 14 13  1  0  0  0  0
 14 18  1  0  0  0  0
 15 14  2  0  0  0  0
 16 10  1  0  0  0  0
 17 11  1  0  0  0  0
 19 16  1  0  0  0  0
 20 16  1  0  0  0  0
 21 22  1  0  0  0  0
 22 23  2  0  0  0  0
 22 27  1  0  0  0  0
 23 28  1  0  0  0  0
 24 29  1  0  0  0  0
 24 23  1  0  0  0  0
 25 24  2  0  0  0  0
 26 25  1  0  0  0  0
 26 21  2  0  0  0  0
 30 25  1  0  0  0  0
 31 26  1  0  0  0  0
 32 33  1  0  0  0  0
 32 31  1  0  0  0  0
 34 32  2  0  0  0  0
 35 34  1  0  0  0  0
 36 34  1  0  0  0  0
 36 38  1  0  0  0  0
 37 36  1  0  0  0  0
 38 31  2  0  0  0  0
 40 39  3  0  0  0  0
M  END
>  <minimizedAffinity>
-6.03185034

$$$$

 OpenBabel03252508403D

 40 43  0  0  0  0  0  0  0  0999 V2000
   38.8790   29.7680   39.3620 C   0  0  0  0  0  0  0  0  0  0  0  0
   38.9220   30.4820   38.1810 C   0  0  0  0  0  0  0  0  0  0  0  0
   37.7210   30.7800   37.5920 C   0  0  0  0  0  0  0  0  0  0  0  0
   36.5010   30.4120   38.1020 C   0  0  0  0  0  0  0  0  0  0  0  0
   36.4960   29.7000   39.2810 C   0  0  0  0  0  0  0  0  0  0  0  0
   37.6670   29.3760   39.9110 C   0  0  0  0  0  0  0  0  0  0  0  0
   37.7600   31.3410   36.6660 H   0  0  0  0  0  0  0  0  0  0  0  0
   35.6020   30.6960   37.5590 H   0  0  0  0  0  0  0  0  0  0  0  0
   35.5180   29.4190   39.6680 H   0  0  0  0  0  0  0  0  0  0  0  0
   41.8880   32.5130   37.0450 C   0  0  0  0  0  0  0  0  0  0  0  0
   40.6080   32.2020   37.5490 C   0  0  0  0  0  0  0  0  0  0  0  0
   40.2270   30.8540   37.6700 C   0  0  0  0  0  0  0  0  0  0  0  0
   41.1470   29.9440   37.2810 N   0  0  0  0  0  0  0  0  0  0  0  0
   42.3510   30.2640   36.8080 C   0  0  0  0  0  0  0  0  0  0  0  0
   42.7170   31.5550   36.6920 N   0  0  0  0  0  0  0  0  0  0  0  0
   42.2230   33.8780   36.9430 N   0  0  0  0  0  0  0  0  0  0  0  0
   39.9300   32.9920   37.8370 H   0  0  0  0  0  0  0  0  0  0  0  0
   43.0600   29.4950   36.5080 H   0  0  0  0  0  0  0  0  0  0  0  0
   42.8290   34.2120   36.1540 H   0  0  0  0  0  0  0  0  0  0  0  0
   41.9260   34.6400   37.5910 H   0  0  0  0  0  0  0  0  0  0  0  0
   37.5610   28.6210   41.1550 C   0  0  0  0  0  0  0  0  0  0  0  0
   37.5660   29.3800   42.3060 C   0  0  0  0  0  0  0  0  0  0  0  0
   37.4720   28.8130   43.5800 C   0  0  0  0  0  0  0  0  0  0  0  0
   37.3720   27.4480   43.6790 C   0  0  0  0  0  0  0  0  0  0  0  0
   37.3650   26.6800   42.5470 C   0  0  0  0  0  0  0  0  0  0  0  0
   37.4590   27.2500   41.2800 C   0  0  0  0  0  0  0  0  0  0  0  0
   37.6410   30.4620   42.3350 H   0  0  0  0  0  0  0  0  0  0  0  0
   37.4760   29.4080   44.4850 H   0  0  0  0  0  0  0  0  0  0  0  0
   37.2950   26.9040   44.5900 H   0  0  0  0  0  0  0  0  0  0  0  0
   37.2910   25.6000   42.4750 H   0  0  0  0  0  0  0  0  0  0  0  0
   37.4600   26.5210   40.0160 C   0  0  0  0  0  0  0  0  0  0  0  0
   38.6690   25.9680   39.5890 C   0  0  0  0  0  0  0  0  0  0  0  0
   39.6650   25.9520   39.9980 H   0  0  0  0  0  0  0  0  0  0  0  0
   38.4400   25.3300   38.3800 C   0  0  0  0  0  0  0  0  0  0  0  0
   39.0260   24.7630   37.6550 H   0  0  0  0  0  0  0  0  0  0  0  0
   37.1140   25.5080   38.1080 N   0  0  0  0  0  0  0  0  0  0  0  0
   36.5160   25.1900   37.2910 H   0  0  0  0  0  0  0  0  0  0  0  0
   36.5440   26.2120   39.0770 N   0  0  0  0  0  0  0  0  0  0  0  0
   41.0880   29.1330   40.5920 N   0  0  0  0  0  0  0  0  0  0  0  0
   40.0890   29.4150   40.0430 C   0  0  0  0  0  0  0  0  0  0  0  0
  1  6  1  0  0  0  0
  1 40  1  0  0  0  0
  2  1  2  0  0  0  0
  3  4  2  0  0  0  0
  3  2  1  0  0  0  0
  4  5  1  0  0  0  0
  5  9  1  0  0  0  0
  5  6  2  0  0  0  0
  6 21  1  0  0  0  0
  7  3  1  0  0  0  0
  8  4  1  0  0  0  0
 10 11  1  0  0  0  0
 11 12  2  0  0  0  0
 11 17  1  0  0  0  0
 12  2  1  0  0  0  0
 13 12  1  0  0  0  0
 14 13  2  0  0  0  0
 15 14  1  0  0  0  0
 15 10  2  0  0  0  0
 16 10  1  0  0  0  0
 16 20  1  0  0  0  0
 18 14  1  0  0  0  0
 19 16  1  0  0  0  0
 21 26  2  0  0  0  0
 21 22  1  0  0  0  0
 22 27  1  0  0  0  0
 22 23  2  0  0  0  0
 23 24  1  0  0  0  0
 23 28  1  0  0  0  0
 24 29  1  0  0  0  0
 25 24  2  0  0  0  0
 26 25  1  0  0  0  0
 30 25  1  0  0  0  0
 31 26  1  0  0  0  0
 32 33  1  0  0  0  0
 32 31  1  0  0  0  0
 34 32  2  0  0  0  0
 35 34  1  0  0  0  0
 36 34  1  0  0  0  0
 36 38  1  0  0  0  0
 37 36  1  0  0  0  0
 38 31  2  0  0  0  0
 40 39  3  0  0  0  0
M  END
>  <minimizedAffinity>
-5.96167231

$$$$

 OpenBabel03252508403D

 40 43  0  0  0  0  0  0  0  0999 V2000
   38.3900   27.4030   41.5060 C   0  0  0  0  0  0  0  0  0  0  0  0
   37.3840   26.4910   41.7550 C   0  0  0  0  0  0  0  0  0  0  0  0
   36.5830   26.7320   42.8420 C   0  0  0  0  0  0  0  0  0  0  0  0
   36.7270   27.8100   43.6800 C   0  0  0  0  0  0  0  0  0  0  0  0
   37.7420   28.6980   43.4010 C   0  0  0  0  0  0  0  0  0  0  0  0
   38.5700   28.5050   42.3290 C   0  0  0  0  0  0  0  0  0  0  0  0
   35.7940   26.0150   43.0320 H   0  0  0  0  0  0  0  0  0  0  0  0
   36.0400   27.9130   44.5180 H   0  0  0  0  0  0  0  0  0  0  0  0
   37.8370   29.5450   44.0780 H   0  0  0  0  0  0  0  0  0  0  0  0
   37.6410   23.0390   40.2630 C   0  0  0  0  0  0  0  0  0  0  0  0
   37.7870   24.1030   41.1770 C   0  0  0  0  0  0  0  0  0  0  0  0
   37.2600   25.3650   40.8510 C   0  0  0  0  0  0  0  0  0  0  0  0
   36.6410   25.4540   39.6530 N   0  0  0  0  0  0  0  0  0  0  0  0
   36.5160   24.4320   38.8060 C   0  0  0  0  0  0  0  0  0  0  0  0
   37.0200   23.2230   39.1190 N   0  0  0  0  0  0  0  0  0  0  0  0
   38.1860   21.7940   40.6360 N   0  0  0  0  0  0  0  0  0  0  0  0
   38.2970   23.9470   42.1160 H   0  0  0  0  0  0  0  0  0  0  0  0
   36.0080   24.5510   37.8520 H   0  0  0  0  0  0  0  0  0  0  0  0
   38.6010   21.1630   39.9080 H   0  0  0  0  0  0  0  0  0  0  0  0
   38.2300   21.4000   41.6010 H   0  0  0  0  0  0  0  0  0  0  0  0
   39.6160   29.4990   42.1140 C   0  0  0  0  0  0  0  0  0  0  0  0
   40.8110   29.2440   42.7540 C   0  0  0  0  0  0  0  0  0  0  0  0
   41.9140   30.0960   42.6540 C   0  0  0  0  0  0  0  0  0  0  0  0
   41.7940   31.2280   41.8870 C   0  0  0  0  0  0  0  0  0  0  0  0
   40.6160   31.4960   41.2450 C   0  0  0  0  0  0  0  0  0  0  0  0
   39.5200   30.6430   41.3490 C   0  0  0  0  0  0  0  0  0  0  0  0
   41.0050   28.3800   43.3810 H   0  0  0  0  0  0  0  0  0  0  0  0
   42.8520   29.8970   43.1560 H   0  0  0  0  0  0  0  0  0  0  0  0
   42.5610   31.9490   41.7350 H   0  0  0  0  0  0  0  0  0  0  0  0
   40.3820   32.3450   40.6110 H   0  0  0  0  0  0  0  0  0  0  0  0
   38.2250   30.8390   40.7060 C   0  0  0  0  0  0  0  0  0  0  0  0
   38.1490   30.6340   39.3270 C   0  0  0  0  0  0  0  0  0  0  0  0
   38.8670   30.3470   38.5770 H   0  0  0  0  0  0  0  0  0  0  0  0
   36.8410   30.8740   38.9330 C   0  0  0  0  0  0  0  0  0  0  0  0
   36.2740   30.8550   38.0020 H   0  0  0  0  0  0  0  0  0  0  0  0
   36.1650   31.2130   40.0700 N   0  0  0  0  0  0  0  0  0  0  0  0
   35.1500   31.4750   40.2300 H   0  0  0  0  0  0  0  0  0  0  0  0
   36.9880   31.1910   41.1100 N   0  0  0  0  0  0  0  0  0  0  0  0
   39.9880   27.0900   39.4700 N   0  0  0  0  0  0  0  0  0  0  0  0
   39.2720   27.2260   40.3910 C   0  0  0  0  0  0  0  0  0  0  0  0
  1  2  2  0  0  0  0
  1  6  1  0  0  0  0
  2  3  1  0  0  0  0
  3  7  1  0  0  0  0
  3  4  2  0  0  0  0
  4  8  1  0  0  0  0
  5  4  1  0  0  0  0
  5  9  1  0  0  0  0
  6  5  2  0  0  0  0
 10 16  1  0  0  0  0
 10 11  1  0  0  0  0
 11 17  1  0  0  0  0
 12 11  2  0  0  0  0
 12  2  1  0  0  0  0
 13 12  1  0  0  0  0
 14 15  1  0  0  0  0
 14 13  2  0  0  0  0
 15 10  2  0  0  0  0
 16 20  1  0  0  0  0
 18 14  1  0  0  0  0
 19 16  1  0  0  0  0
 21  6  1  0  0  0  0
 21 22  1  0  0  0  0
 22 27  1  0  0  0  0
 23 22  2  0  0  0  0
 23 28  1  0  0  0  0
 24 23  1  0  0  0  0
 25 26  1  0  0  0  0
 25 24  2  0  0  0  0
 26 21  2  0  0  0  0
 29 24  1  0  0  0  0
 30 25  1  0  0  0  0
 31 38  2  0  0  0  0
 31 26  1  0  0  0  0
 32 31  1  0  0  0  0
 33 32  1  0  0  0  0
 34 32  2  0  0  0  0
 34 36  1  0  0  0  0
 35 34  1  0  0  0  0
 36 37  1  0  0  0  0
 36 38  1  0  0  0  0
 39 40  3  0  0  0  0
 40  1  1  0  0  0  0
M  END
>  <minimizedAffinity>
-5.92038012

$$$$

 OpenBabel03252508403D

 40 43  0  0  0  0  0  0  0  0999 V2000
   38.8430   30.6760   39.0350 C   0  0  0  0  0  0  0  0  0  0  0  0
   39.3290   31.9200   39.3850 C   0  0  0  0  0  0  0  0  0  0  0  0
   38.4540   32.7790   39.9960 C   0  0  0  0  0  0  0  0  0  0  0  0
   37.1440   32.4750   40.2730 C   0  0  0  0  0  0  0  0  0  0  0  0
   36.6930   31.2260   39.9100 C   0  0  0  0  0  0  0  0  0  0  0  0
   37.5260   30.3290   39.2970 C   0  0  0  0  0  0  0  0  0  0  0  0
   38.8400   33.7540   40.2690 H   0  0  0  0  0  0  0  0  0  0  0  0
   36.5270   33.2270   40.7620 H   0  0  0  0  0  0  0  0  0  0  0  0
   35.6530   31.0060   40.1400 H   0  0  0  0  0  0  0  0  0  0  0  0
   42.4340   33.3040   37.7530 C   0  0  0  0  0  0  0  0  0  0  0  0
   41.0700   33.0550   38.0120 C   0  0  0  0  0  0  0  0  0  0  0  0
   40.7170   32.2080   39.0780 C   0  0  0  0  0  0  0  0  0  0  0  0
   41.7450   31.6890   39.7840 N   0  0  0  0  0  0  0  0  0  0  0  0
   43.0270   31.9400   39.5190 C   0  0  0  0  0  0  0  0  0  0  0  0
   43.3660   32.7510   38.4990 N   0  0  0  0  0  0  0  0  0  0  0  0
   42.7360   34.1590   36.6750 N   0  0  0  0  0  0  0  0  0  0  0  0
   40.3070   33.5110   37.3980 H   0  0  0  0  0  0  0  0  0  0  0  0
   43.8220   31.4990   40.1160 H   0  0  0  0  0  0  0  0  0  0  0  0
   43.5930   33.9890   36.0940 H   0  0  0  0  0  0  0  0  0  0  0  0
   42.1820   34.9870   36.3660 H   0  0  0  0  0  0  0  0  0  0  0  0
   36.9580   29.0310   38.9500 C   0  0  0  0  0  0  0  0  0  0  0  0
   36.3820   28.9560   37.6990 C   0  0  0  0  0  0  0  0  0  0  0  0
   35.7930   27.7860   37.2130 C   0  0  0  0  0  0  0  0  0  0  0  0
   35.7920   26.6740   38.0180 C   0  0  0  0  0  0  0  0  0  0  0  0
   36.3600   26.7310   39.2610 C   0  0  0  0  0  0  0  0  0  0  0  0
   36.9460   27.9000   39.7410 C   0  0  0  0  0  0  0  0  0  0  0  0
   36.3310   29.7750   36.9910 H   0  0  0  0  0  0  0  0  0  0  0  0
   35.3400   27.7260   36.2310 H   0  0  0  0  0  0  0  0  0  0  0  0
   35.3760   25.7300   37.7580 H   0  0  0  0  0  0  0  0  0  0  0  0
   36.4320   25.9370   39.9980 H   0  0  0  0  0  0  0  0  0  0  0  0
   37.5750   28.0630   41.0470 C   0  0  0  0  0  0  0  0  0  0  0  0
   36.7400   28.2860   42.1450 C   0  0  0  0  0  0  0  0  0  0  0  0
   35.6730   28.3730   42.2620 H   0  0  0  0  0  0  0  0  0  0  0  0
   37.5420   28.4100   43.2690 C   0  0  0  0  0  0  0  0  0  0  0  0
   37.3960   28.5850   44.3360 H   0  0  0  0  0  0  0  0  0  0  0  0
   38.8260   28.2590   42.8310 N   0  0  0  0  0  0  0  0  0  0  0  0
   39.7510   28.2810   43.3500 H   0  0  0  0  0  0  0  0  0  0  0  0
   38.8370   28.0560   41.5210 N   0  0  0  0  0  0  0  0  0  0  0  0
   40.3870   28.9240   37.8760 N   0  0  0  0  0  0  0  0  0  0  0  0
   39.6920   29.7180   38.3930 C   0  0  0  0  0  0  0  0  0  0  0  0
  1  6  2  0  0  0  0
  1  2  1  0  0  0  0
  2  3  2  0  0  0  0
  3  7  1  0  0  0  0
  3  4  1  0  0  0  0
  4  8  1  0  0  0  0
  5  9  1  0  0  0  0
  5  4  2  0  0  0  0
  6  5  1  0  0  0  0
 10 11  2  0  0  0  0
 10 15  1  0  0  0  0
 11 12  1  0  0  0  0
 12  2  1  0  0  0  0
 12 13  2  0  0  0  0
 14 13  1  0  0  0  0
 14 18  1  0  0  0  0
 15 14  2  0  0  0  0
 16 10  1  0  0  0  0
 17 11  1  0  0  0  0
 19 16  1  0  0  0  0
 20 16  1  0  0  0  0
 21  6  1  0  0  0  0
 21 26  1  0  0  0  0
 22 21  2  0  0  0  0
 23 22  1  0  0  0  0
 23 24  2  0  0  0  0
 24 25  1  0  0  0  0
 25 26  2  0  0  0  0
 25 30  1  0  0  0  0
 26 31  1  0  0  0  0
 27 22  1  0  0  0  0
 28 23  1  0  0  0  0
 29 24  1  0  0  0  0
 31 38  2  0  0  0  0
 31 32  1  0  0  0  0
 32 33  1  0  0  0  0
 32 34  2  0  0  0  0
 34 35  1  0  0  0  0
 36 34  1  0  0  0  0
 36 37  1  0  0  0  0
 38 36  1  0  0  0  0
 39 40  3  0  0  0  0
 40  1  1  0  0  0  0
M  END
>  <minimizedAffinity>
-5.90687943

$$$$

 OpenBabel03252508403D

 40 43  0  0  0  0  0  0  0  0999 V2000
   39.1480   28.6880   41.6770 C   0  0  0  0  0  0  0  0  0  0  0  0
   37.8770   29.2190   41.5940 C   0  0  0  0  0  0  0  0  0  0  0  0
   36.9920   28.8690   42.5800 C   0  0  0  0  0  0  0  0  0  0  0  0
   37.2960   28.0330   43.6250 C   0  0  0  0  0  0  0  0  0  0  0  0
   38.5740   27.5220   43.6770 C   0  0  0  0  0  0  0  0  0  0  0  0
   39.4970   27.8400   42.7170 C   0  0  0  0  0  0  0  0  0  0  0  0
   35.9950   29.2880   42.5110 H   0  0  0  0  0  0  0  0  0  0  0  0
   36.5230   27.8150   44.3600 H   0  0  0  0  0  0  0  0  0  0  0  0
   38.7930   26.8620   44.5140 H   0  0  0  0  0  0  0  0  0  0  0  0
   37.2040   32.3020   39.5290 C   0  0  0  0  0  0  0  0  0  0  0  0
   37.4870   31.4900   40.6480 C   0  0  0  0  0  0  0  0  0  0  0  0
   37.5880   30.0980   40.4770 C   0  0  0  0  0  0  0  0  0  0  0  0
   37.4000   29.6430   39.2180 N   0  0  0  0  0  0  0  0  0  0  0  0
   37.1340   30.4320   38.1780 C   0  0  0  0  0  0  0  0  0  0  0  0
   37.0370   31.7650   38.3410 N   0  0  0  0  0  0  0  0  0  0  0  0
   37.1130   33.6900   39.7520 N   0  0  0  0  0  0  0  0  0  0  0  0
   37.6230   31.9350   41.6220 H   0  0  0  0  0  0  0  0  0  0  0  0
   36.9910   30.0200   37.1810 H   0  0  0  0  0  0  0  0  0  0  0  0
   36.4310   34.2670   39.2010 H   0  0  0  0  0  0  0  0  0  0  0  0
   37.6700   34.2470   40.4360 H   0  0  0  0  0  0  0  0  0  0  0  0
   40.8240   27.2500   42.8560 C   0  0  0  0  0  0  0  0  0  0  0  0
   41.7660   28.0570   43.4580 C   0  0  0  0  0  0  0  0  0  0  0  0
   43.0850   27.6460   43.6670 C   0  0  0  0  0  0  0  0  0  0  0  0
   43.4480   26.3870   43.2540 C   0  0  0  0  0  0  0  0  0  0  0  0
   42.5250   25.5730   42.6560 C   0  0  0  0  0  0  0  0  0  0  0  0
   41.2120   25.9890   42.4500 C   0  0  0  0  0  0  0  0  0  0  0  0
   41.5810   29.0640   43.8180 H   0  0  0  0  0  0  0  0  0  0  0  0
   43.8260   28.2780   44.1380 H   0  0  0  0  0  0  0  0  0  0  0  0
   44.4170   25.9640   43.3590 H   0  0  0  0  0  0  0  0  0  0  0  0
   42.6690   24.5640   42.2840 H   0  0  0  0  0  0  0  0  0  0  0  0
   40.1560   25.1990   41.8240 C   0  0  0  0  0  0  0  0  0  0  0  0
   40.0170   25.2890   40.4380 C   0  0  0  0  0  0  0  0  0  0  0  0
   40.5370   25.8390   39.6720 H   0  0  0  0  0  0  0  0  0  0  0  0
   38.9660   24.4660   40.0620 C   0  0  0  0  0  0  0  0  0  0  0  0
   38.4660   24.1850   39.1350 H   0  0  0  0  0  0  0  0  0  0  0  0
   38.5010   23.9040   41.2170 N   0  0  0  0  0  0  0  0  0  0  0  0
   37.7120   23.2180   41.3950 H   0  0  0  0  0  0  0  0  0  0  0  0
   39.2080   24.3420   42.2500 N   0  0  0  0  0  0  0  0  0  0  0  0
   40.9450   29.2500   39.8740 N   0  0  0  0  0  0  0  0  0  0  0  0
   40.1340   29.0040   40.6870 C   0  0  0  0  0  0  0  0  0  0  0  0
  1  6  1  0  0  0  0
  2  1  2  0  0  0  0
  2  3  1  0  0  0  0
  3  4  2  0  0  0  0
  4  5  1  0  0  0  0
  4  8  1  0  0  0  0
  5  9  1  0  0  0  0
  6 21  1  0  0  0  0
  6  5  2  0  0  0  0
  7  3  1  0  0  0  0
 10 16  1  0  0  0  0
 10 11  1  0  0  0  0
 11 17  1  0  0  0  0
 12 11  2  0  0  0  0
 12  2  1  0  0  0  0
 13 12  1  0  0  0  0
 14 15  1  0  0  0  0
 14 13  2  0  0  0  0
 15 10  2  0  0  0  0
 16 20  1  0  0  0  0
 18 14  1  0  0  0  0
 19 16  1  0  0  0  0
 21 22  1  0  0  0  0
 22 23  2  0  0  0  0
 22 27  1  0  0  0  0
 23 28  1  0  0  0  0
 24 29  1  0  0  0  0
 24 23  1  0  0  0  0
 25 24  2  0  0  0  0
 26 25  1  0  0  0  0
 26 21  2  0  0  0  0
 30 25  1  0  0  0  0
 31 38  2  0  0  0  0
 31 26  1  0  0  0  0
 32 31  1  0  0  0  0
 33 32  1  0  0  0  0
 34 32  2  0  0  0  0
 34 36  1  0  0  0  0
 35 34  1  0  0  0  0
 36 37  1  0  0  0  0
 36 38  1  0  0  0  0
 39 40  3  0  0  0  0
 40  1  1  0  0  0  0
M  END
>  <minimizedAffinity>
-5.88173819

$$$$

 OpenBabel03252508403D

 40 43  0  0  0  0  0  0  0  0999 V2000
   40.4040   28.2470   40.5320 C   0  0  0  0  0  0  0  0  0  0  0  0
   41.2770   29.3150   40.4890 C   0  0  0  0  0  0  0  0  0  0  0  0
   41.7920   29.7450   41.6850 C   0  0  0  0  0  0  0  0  0  0  0  0
   41.4910   29.1810   42.8990 C   0  0  0  0  0  0  0  0  0  0  0  0
   40.6160   28.1160   42.9050 C   0  0  0  0  0  0  0  0  0  0  0  0
   40.0730   27.6480   41.7390 C   0  0  0  0  0  0  0  0  0  0  0  0
   42.4760   30.5830   41.6460 H   0  0  0  0  0  0  0  0  0  0  0  0
   41.9520   29.5940   43.7940 H   0  0  0  0  0  0  0  0  0  0  0  0
   40.3930   27.6840   43.8780 H   0  0  0  0  0  0  0  0  0  0  0  0
   41.1100   31.4380   37.3780 C   0  0  0  0  0  0  0  0  0  0  0  0
   40.7810   30.9140   38.6460 C   0  0  0  0  0  0  0  0  0  0  0  0
   41.5730   29.8880   39.1900 C   0  0  0  0  0  0  0  0  0  0  0  0
   42.6120   29.4780   38.4300 N   0  0  0  0  0  0  0  0  0  0  0  0
   42.9020   29.9900   37.2340 C   0  0  0  0  0  0  0  0  0  0  0  0
   42.1440   30.9730   36.7120 N   0  0  0  0  0  0  0  0  0  0  0  0
   40.2860   32.4650   36.8750 N   0  0  0  0  0  0  0  0  0  0  0  0
   39.9310   31.2990   39.1890 H   0  0  0  0  0  0  0  0  0  0  0  0
   43.7500   29.6280   36.6580 H   0  0  0  0  0  0  0  0  0  0  0  0
   40.0960   32.5290   35.8450 H   0  0  0  0  0  0  0  0  0  0  0  0
   39.8150   33.2110   37.4320 H   0  0  0  0  0  0  0  0  0  0  0  0
   39.1580   26.5170   41.8440 C   0  0  0  0  0  0  0  0  0  0  0  0
   39.7570   25.2740   41.8480 C   0  0  0  0  0  0  0  0  0  0  0  0
   39.0240   24.0880   41.9430 C   0  0  0  0  0  0  0  0  0  0  0  0
   37.6570   24.1730   42.0340 C   0  0  0  0  0  0  0  0  0  0  0  0
   37.0470   25.3970   42.0330 C   0  0  0  0  0  0  0  0  0  0  0  0
   37.7820   26.5760   41.9380 C   0  0  0  0  0  0  0  0  0  0  0  0
   40.8250   25.1010   41.7800 H   0  0  0  0  0  0  0  0  0  0  0  0
   39.4920   23.1120   41.9450 H   0  0  0  0  0  0  0  0  0  0  0  0
   36.9950   23.3430   42.1120 H   0  0  0  0  0  0  0  0  0  0  0  0
   35.9860   25.6130   42.1000 H   0  0  0  0  0  0  0  0  0  0  0  0
   37.2290   27.9260   41.9280 C   0  0  0  0  0  0  0  0  0  0  0  0
   36.5140   28.3240   40.7970 C   0  0  0  0  0  0  0  0  0  0  0  0
   36.2580   27.8400   39.8700 H   0  0  0  0  0  0  0  0  0  0  0  0
   36.0850   29.6270   41.0020 C   0  0  0  0  0  0  0  0  0  0  0  0
   35.5120   30.3730   40.4500 H   0  0  0  0  0  0  0  0  0  0  0  0
   36.5450   29.9810   42.2380 N   0  0  0  0  0  0  0  0  0  0  0  0
   36.4500   30.8820   42.7900 H   0  0  0  0  0  0  0  0  0  0  0  0
   37.2180   28.9740   42.7760 N   0  0  0  0  0  0  0  0  0  0  0  0
   39.3350   27.3080   38.3470 N   0  0  0  0  0  0  0  0  0  0  0  0
   39.8210   27.7350   39.3280 C   0  0  0  0  0  0  0  0  0  0  0  0
  1  6  1  0  0  0  0
  2  1  2  0  0  0  0
  2  3  1  0  0  0  0
  3  4  2  0  0  0  0
  4  5  1  0  0  0  0
  4  8  1  0  0  0  0
  5  9  1  0  0  0  0
  6 21  1  0  0  0  0
  6  5  2  0  0  0  0
  7  3  1  0  0  0  0
 10 11  1  0  0  0  0
 11 17  1  0  0  0  0
 11 12  2  0  0  0  0
 12  2  1  0  0  0  0
 13 12  1  0  0  0  0
 14 13  2  0  0  0  0
 15 14  1  0  0  0  0
 15 10  2  0  0  0  0
 16 10  1  0  0  0  0
 16 20  1  0  0  0  0
 18 14  1  0  0  0  0
 19 16  1  0  0  0  0
 21 22  2  0  0  0  0
 21 26  1  0  0  0  0
 22 23  1  0  0  0  0
 23 28  1  0  0  0  0
 23 24  2  0  0  0  0
 24 29  1  0  0  0  0
 25 24  1  0  0  0  0
 25 30  1  0  0  0  0
 26 25  2  0  0  0  0
 27 22  1  0  0  0  0
 31 26  1  0  0  0  0
 31 38  2  0  0  0  0
 32 34  2  0  0  0  0
 32 31  1  0  0  0  0
 33 32  1  0  0  0  0
 34 36  1  0  0  0  0
 35 34  1  0  0  0  0
 36 38  1  0  0  0  0
 36 37  1  0  0  0  0
 39 40  3  0  0  0  0
 40  1  1  0  0  0  0
M  END
>  <minimizedAffinity>
-5.8699131

$$$$
