
 OpenBabel03252506403D

 39 42  0  0  1  0  0  0  0  0999 V2000
   49.5780   33.4640   41.4330 N   0  0  1  0  0  0  0  0  0  0  0  0
   50.7250   33.0690   42.2140 C   0  0  0  0  0  0  0  0  0  0  0  0
   51.2930   31.7380   41.8780 C   0  0  0  0  0  0  0  0  0  0  0  0
   50.2870   30.6650   42.1960 C   0  0  0  0  0  0  0  0  0  0  0  0
   48.8920   31.1290   41.9340 C   0  0  0  0  0  0  0  0  0  0  0  0
   48.8830   32.2780   40.9840 C   0  0  2  0  0  0  0  0  0  0  0  0
   50.4440   33.0450   43.2890 H   0  0  0  0  0  0  0  0  0  0  0  0
   51.5100   33.8760   42.1490 H   0  0  0  0  0  0  0  0  0  0  0  0
   52.1430   31.5790   42.6130 H   0  0  0  0  0  0  0  0  0  0  0  0
   51.7830   31.6450   40.8990 H   0  0  0  0  0  0  0  0  0  0  0  0
   50.5300   29.6960   41.7180 H   0  0  0  0  0  0  0  0  0  0  0  0
   50.3480   30.4690   43.2930 H   0  0  0  0  0  0  0  0  0  0  0  0
   48.3480   31.4200   42.8540 H   0  0  0  0  0  0  0  0  0  0  0  0
   48.3530   30.3030   41.4560 H   0  0  0  0  0  0  0  0  0  0  0  0
   47.7840   32.6290   41.0320 H   0  0  0  0  0  0  0  0  0  0  0  0
   49.0700   31.9500   39.5640 C   0  0  0  0  0  0  0  0  0  0  0  0
   48.0300   31.6860   38.6580 C   0  0  0  0  0  0  0  0  0  0  0  0
   46.9650   31.6950   38.9390 H   0  0  0  0  0  0  0  0  0  0  0  0
   48.4950   31.4180   37.3890 C   0  0  0  0  0  0  0  0  0  0  0  0
   47.9060   31.1850   36.5190 H   0  0  0  0  0  0  0  0  0  0  0  0
   49.8230   31.5270   37.5600 N   0  0  0  0  0  0  0  0  0  0  0  0
   50.5410   31.3880   36.7960 H   0  0  0  0  0  0  0  0  0  0  0  0
   50.1540   31.8260   38.7770 N   0  0  0  0  0  0  0  0  0  0  0  0
   47.3540   34.6560   41.9520 C   0  0  1  0  0  0  0  0  0  0  0  0
   48.4230   35.6370   41.7080 C   0  0  0  0  0  0  0  0  0  0  0  0
   48.7770   34.3070   42.2640 C   0  0  2  0  0  0  0  0  0  0  0  0
   46.9420   34.1790   41.0410 H   0  0  0  0  0  0  0  0  0  0  0  0
   48.4730   36.4840   42.4240 H   0  0  0  0  0  0  0  0  0  0  0  0
   48.6690   35.9260   40.6880 H   0  0  0  0  0  0  0  0  0  0  0  0
   49.0010   34.1960   43.3450 H   0  0  0  0  0  0  0  0  0  0  0  0
   45.5700   36.0180   43.1110 C   0  0  0  0  0  0  0  0  0  0  0  0
   46.4090   34.8770   43.0710 C   0  0  0  0  0  0  0  0  0  0  0  0
   46.3120   33.9580   44.1240 C   0  0  0  0  0  0  0  0  0  0  0  0
   45.4190   34.2120   45.1270 N   0  0  0  0  0  0  0  0  0  0  0  0
   44.6340   35.3180   45.1300 C   0  0  0  0  0  0  0  0  0  0  0  0
   44.7020   36.2330   44.1210 N   0  0  0  0  0  0  0  0  0  0  0  0
   45.6150   36.7390   42.3290 H   0  0  0  0  0  0  0  0  0  0  0  0
   46.9270   33.0730   44.1410 H   0  0  0  0  0  0  0  0  0  0  0  0
   43.9410   35.4740   45.9500 H   0  0  0  0  0  0  0  0  0  0  0  0
  1  2  1  1  0  0  0
  1 26  1  0  0  0  0
  2  7  1  0  0  0  0
  3  4  1  0  0  0  0
  3  2  1  0  0  0  0
  3  9  1  0  0  0  0
  4 12  1  0  0  0  0
  5  4  1  0  0  0  0
  5 13  1  0  0  0  0
  6 15  1  1  0  0  0
  6  1  1  0  0  0  0
  6  5  1  0  0  0  0
  8  2  1  0  0  0  0
 10  3  1  0  0  0  0
 11  4  1  0  0  0  0
 14  5  1  0  0  0  0
 16  6  1  0  0  0  0
 17 18  1  0  0  0  0
 17 16  1  0  0  0  0
 19 21  1  0  0  0  0
 19 17  2  0  0  0  0
 20 19  1  0  0  0  0
 21 23  1  0  0  0  0
 22 21  1  0  0  0  0
 23 16  2  0  0  0  0
 24 27  1  6  0  0  0
 24 26  1  0  0  0  0
 24 32  1  0  0  0  0
 25 24  1  0  0  0  0
 25 26  1  0  0  0  0
 25 28  1  0  0  0  0
 26 30  1  1  0  0  0
 29 25  1  0  0  0  0
 31 36  1  0  0  0  0
 32 31  2  0  0  0  0
 32 33  1  0  0  0  0
 33 38  1  0  0  0  0
 33 34  2  0  0  0  0
 34 35  1  0  0  0  0
 35 39  1  0  0  0  0
 36 35  2  0  0  0  0
 37 31  1  0  0  0  0
M  END
>  <minimizedAffinity>
-4.88743067

>  <minimizedRMSD>
0.70802778

$$$$
