
 OpenBabel03252509253D

 29 31  0  0  1  0  0  0  0  0999 V2000
   46.5900   35.0900   41.9210 C   0  0  1  0  0  0  0  0  0  0  0  0
   48.1280   35.2800   41.9210 C   0  0  0  0  0  0  0  0  0  0  0  0
   47.3460   34.0790   41.3020 C   0  0  2  0  0  0  0  0  0  0  0  0
   46.1040   35.9150   41.3840 H   0  0  0  0  0  0  0  0  0  0  0  0
   48.5640   35.9250   41.1370 H   0  0  0  0  0  0  0  0  0  0  0  0
   48.6940   35.0390   42.8250 H   0  0  0  0  0  0  0  0  0  0  0  0
   47.4830   33.1030   41.8580 H   0  0  0  0  0  0  0  0  0  0  0  0
   44.6550   35.4160   45.1100 C   0  0  0  0  0  0  0  0  0  0  0  0
   45.1280   35.7220   43.8050 C   0  0  0  0  0  0  0  0  0  0  0  0
   46.0760   34.8670   43.3180 C   0  0  0  0  0  0  0  0  0  0  0  0
   46.5300   33.8000   44.0450 N   0  0  0  0  0  0  0  0  0  0  0  0
   46.0500   33.5520   45.2810 C   0  0  0  0  0  0  0  0  0  0  0  0
   45.1080   34.3640   45.8140 N   0  0  0  0  0  0  0  0  0  0  0  0
   43.9000   36.0500   45.5580 H   0  0  0  0  0  0  0  0  0  0  0  0
   46.4420   32.6970   45.8160 H   0  0  0  0  0  0  0  0  0  0  0  0
   44.6630   36.8440   43.0900 N   0  0  0  0  0  0  0  0  0  0  0  0
   43.6920   37.1530   42.8110 H   0  0  0  0  0  0  0  0  0  0  0  0
   45.4960   37.4290   42.8210 H   0  0  0  0  0  0  0  0  0  0  0  0
   47.3740   33.9080   39.8000 C   0  0  0  0  0  0  0  0  0  0  0  0
   48.3160   33.4110   39.5270 H   0  0  0  0  0  0  0  0  0  0  0  0
   47.3130   34.8790   39.2670 H   0  0  0  0  0  0  0  0  0  0  0  0
   46.2480   33.0110   39.4660 C   0  0  0  0  0  0  0  0  0  0  0  0
   45.4420   33.0030   38.3340 C   0  0  0  0  0  0  0  0  0  0  0  0
   45.5270   33.6860   37.4970 H   0  0  0  0  0  0  0  0  0  0  0  0
   44.5040   31.9810   38.4440 C   0  0  0  0  0  0  0  0  0  0  0  0
   43.7320   31.7050   37.7390 H   0  0  0  0  0  0  0  0  0  0  0  0
   44.7810   31.4050   39.6480 N   0  0  0  0  0  0  0  0  0  0  0  0
   44.2120   30.5970   39.9770 H   0  0  0  0  0  0  0  0  0  0  0  0
   45.7880   31.9970   40.2420 N   0  0  0  0  0  0  0  0  0  0  0  0
  1  4  1  6  0  0  0
  1 10  1  0  0  0  0
  2  1  1  0  0  0  0
  2  6  1  0  0  0  0
  3  7  1  1  0  0  0
  3  2  1  0  0  0  0
  3  1  1  0  0  0  0
  5  2  1  0  0  0  0
  8 14  1  0  0  0  0
  8 13  1  0  0  0  0
  9  8  2  0  0  0  0
 10  9  1  0  0  0  0
 10 11  2  0  0  0  0
 11 12  1  0  0  0  0
 12 13  2  0  0  0  0
 12 15  1  0  0  0  0
 16  9  1  0  0  0  0
 17 16  1  0  0  0  0
 18 16  1  0  0  0  0
 19  3  1  0  0  0  0
 20 19  1  0  0  0  0
 21 19  1  0  0  0  0
 22 19  1  0  0  0  0
 22 29  2  0  0  0  0
 23 25  2  0  0  0  0
 23 22  1  0  0  0  0
 24 23  1  0  0  0  0
 25 27  1  0  0  0  0
 26 25  1  0  0  0  0
 27 28  1  0  0  0  0
 27 29  1  0  0  0  0
M  END
>  <minimizedAffinity>
-4.39413214

>  <minimizedRMSD>
0.742721617

$$$$
