
 OpenBabel03252509263D

 29 31  0  0  1  0  0  0  0  0999 V2000
   46.6120   35.1080   41.9390 C   0  0  1  0  0  0  0  0  0  0  0  0
   48.1490   35.3050   41.9380 C   0  0  0  0  0  0  0  0  0  0  0  0
   47.3700   34.1110   41.3000 C   0  0  2  0  0  0  0  0  0  0  0  0
   46.1200   35.9400   41.4180 H   0  0  0  0  0  0  0  0  0  0  0  0
   48.5790   35.9650   41.1650 H   0  0  0  0  0  0  0  0  0  0  0  0
   48.7180   35.0490   42.8360 H   0  0  0  0  0  0  0  0  0  0  0  0
   47.5130   33.1270   41.8380 H   0  0  0  0  0  0  0  0  0  0  0  0
   44.6740   35.3570   45.1340 C   0  0  0  0  0  0  0  0  0  0  0  0
   45.1400   35.6890   43.8330 C   0  0  0  0  0  0  0  0  0  0  0  0
   46.1030   34.8570   43.3340 C   0  0  0  0  0  0  0  0  0  0  0  0
   46.5760   33.7890   44.0460 N   0  0  0  0  0  0  0  0  0  0  0  0
   46.1020   33.5150   45.2790 C   0  0  0  0  0  0  0  0  0  0  0  0
   45.1460   34.3040   45.8240 N   0  0  0  0  0  0  0  0  0  0  0  0
   43.9090   35.9730   45.5910 H   0  0  0  0  0  0  0  0  0  0  0  0
   46.5080   32.6610   45.8020 H   0  0  0  0  0  0  0  0  0  0  0  0
   44.6560   36.8120   43.1330 N   0  0  0  0  0  0  0  0  0  0  0  0
   43.6790   37.1080   42.8580 H   0  0  0  0  0  0  0  0  0  0  0  0
   45.4780   37.4150   42.8720 H   0  0  0  0  0  0  0  0  0  0  0  0
   47.3940   33.9680   39.7950 C   0  0  0  0  0  0  0  0  0  0  0  0
   48.3770   33.5720   39.5020 H   0  0  0  0  0  0  0  0  0  0  0  0
   47.2280   34.9360   39.2800 H   0  0  0  0  0  0  0  0  0  0  0  0
   46.3590   32.9670   39.4590 C   0  0  0  0  0  0  0  0  0  0  0  0
   46.4760   31.5850   39.3610 C   0  0  0  0  0  0  0  0  0  0  0  0
   47.3860   31.0210   39.5230 H   0  0  0  0  0  0  0  0  0  0  0  0
   45.2420   31.0430   39.0190 C   0  0  0  0  0  0  0  0  0  0  0  0
   44.9910   30.0030   38.8660 H   0  0  0  0  0  0  0  0  0  0  0  0
   44.4180   32.1240   38.9250 N   0  0  0  0  0  0  0  0  0  0  0  0
   43.4150   31.9900   38.6760 H   0  0  0  0  0  0  0  0  0  0  0  0
   45.0600   33.2390   39.1790 N   0  0  0  0  0  0  0  0  0  0  0  0
  1  4  1  6  0  0  0
  1 10  1  0  0  0  0
  2  1  1  0  0  0  0
  2  6  1  0  0  0  0
  3  7  1  1  0  0  0
  3  2  1  0  0  0  0
  3  1  1  0  0  0  0
  5  2  1  0  0  0  0
  8 14  1  0  0  0  0
  8 13  1  0  0  0  0
  9  8  2  0  0  0  0
 10  9  1  0  0  0  0
 10 11  2  0  0  0  0
 11 12  1  0  0  0  0
 12 15  1  0  0  0  0
 12 13  2  0  0  0  0
 16  9  1  0  0  0  0
 17 16  1  0  0  0  0
 18 16  1  0  0  0  0
 19  3  1  0  0  0  0
 20 19  1  0  0  0  0
 21 19  1  0  0  0  0
 22 19  1  0  0  0  0
 23 22  1  0  0  0  0
 23 24  1  0  0  0  0
 25 23  2  0  0  0  0
 26 25  1  0  0  0  0
 27 25  1  0  0  0  0
 27 29  1  0  0  0  0
 28 27  1  0  0  0  0
 29 22  2  0  0  0  0
M  END
>  <minimizedAffinity>
-4.38389587

>  <minimizedRMSD>
0.856592

$$$$
