
 OpenBabel03252509263D

 29 31  0  0  1  0  0  0  0  0999 V2000
   46.6240   35.1160   41.9210 C   0  0  1  0  0  0  0  0  0  0  0  0
   48.1670   35.2630   41.9290 C   0  0  0  0  0  0  0  0  0  0  0  0
   47.3530   34.0990   41.2810 C   0  0  2  0  0  0  0  0  0  0  0  0
   46.1630   35.9660   41.4010 H   0  0  0  0  0  0  0  0  0  0  0  0
   48.6230   35.9130   41.1620 H   0  0  0  0  0  0  0  0  0  0  0  0
   48.7220   34.9850   42.8300 H   0  0  0  0  0  0  0  0  0  0  0  0
   47.4610   33.1070   41.8150 H   0  0  0  0  0  0  0  0  0  0  0  0
   44.6570   35.3950   45.0950 C   0  0  0  0  0  0  0  0  0  0  0  0
   45.1380   35.7170   43.7970 C   0  0  0  0  0  0  0  0  0  0  0  0
   46.1000   34.8750   43.3110 C   0  0  0  0  0  0  0  0  0  0  0  0
   46.5570   33.8070   44.0340 N   0  0  0  0  0  0  0  0  0  0  0  0
   46.0690   33.5430   45.2620 C   0  0  0  0  0  0  0  0  0  0  0  0
   45.1140   34.3420   45.7940 N   0  0  0  0  0  0  0  0  0  0  0  0
   43.8910   36.0180   45.5410 H   0  0  0  0  0  0  0  0  0  0  0  0
   46.4630   32.6880   45.7940 H   0  0  0  0  0  0  0  0  0  0  0  0
   44.6690   36.8400   43.0870 N   0  0  0  0  0  0  0  0  0  0  0  0
   43.6980   37.1420   42.8010 H   0  0  0  0  0  0  0  0  0  0  0  0
   45.4990   37.4360   42.8310 H   0  0  0  0  0  0  0  0  0  0  0  0
   47.3810   33.9610   39.7760 C   0  0  0  0  0  0  0  0  0  0  0  0
   48.3380   33.4990   39.4900 H   0  0  0  0  0  0  0  0  0  0  0  0
   47.2890   34.9410   39.2650 H   0  0  0  0  0  0  0  0  0  0  0  0
   46.2830   33.0370   39.4250 C   0  0  0  0  0  0  0  0  0  0  0  0
   45.7360   32.0020   40.1760 C   0  0  0  0  0  0  0  0  0  0  0  0
   46.0550   31.7120   41.1700 H   0  0  0  0  0  0  0  0  0  0  0  0
   44.7180   31.3960   39.4500 C   0  0  0  0  0  0  0  0  0  0  0  0
   44.0930   30.5640   39.7430 H   0  0  0  0  0  0  0  0  0  0  0  0
   44.6850   32.0920   38.2780 N   0  0  0  0  0  0  0  0  0  0  0  0
   43.9940   31.8340   37.5420 H   0  0  0  0  0  0  0  0  0  0  0  0
   45.5880   33.0420   38.2610 N   0  0  0  0  0  0  0  0  0  0  0  0
  1  4  1  6  0  0  0
  1  2  1  0  0  0  0
  1 10  1  0  0  0  0
  2  6  1  0  0  0  0
  3  7  1  1  0  0  0
  3  1  1  0  0  0  0
  3  2  1  0  0  0  0
  5  2  1  0  0  0  0
  8 14  1  0  0  0  0
  8 13  1  0  0  0  0
  9  8  2  0  0  0  0
 10  9  1  0  0  0  0
 10 11  2  0  0  0  0
 11 12  1  0  0  0  0
 12 15  1  0  0  0  0
 12 13  2  0  0  0  0
 16  9  1  0  0  0  0
 17 16  1  0  0  0  0
 18 16  1  0  0  0  0
 19  3  1  0  0  0  0
 20 19  1  0  0  0  0
 21 19  1  0  0  0  0
 22 19  1  0  0  0  0
 22 23  1  0  0  0  0
 23 24  1  0  0  0  0
 25 26  1  0  0  0  0
 25 23  2  0  0  0  0
 27 25  1  0  0  0  0
 28 27  1  0  0  0  0
 29 27  1  0  0  0  0
 29 22  2  0  0  0  0
M  END
>  <minimizedAffinity>
-4.40774918

>  <minimizedRMSD>
0.859445274

$$$$
