
 OpenBabel03252509253D

 29 31  0  0  1  0  0  0  0  0999 V2000
   46.6860   35.1500   41.9700 C   0  0  1  0  0  0  0  0  0  0  0  0
   48.2320   35.2550   41.9870 C   0  0  0  0  0  0  0  0  0  0  0  0
   47.3910   34.1370   41.2960 C   0  0  2  0  0  0  0  0  0  0  0  0
   46.2500   36.0290   41.4800 H   0  0  0  0  0  0  0  0  0  0  0  0
   48.7080   35.9190   41.2450 H   0  0  0  0  0  0  0  0  0  0  0  0
   48.7770   34.9310   42.8790 H   0  0  0  0  0  0  0  0  0  0  0  0
   47.4700   33.1240   41.7940 H   0  0  0  0  0  0  0  0  0  0  0  0
   44.6700   35.3250   45.1200 C   0  0  0  0  0  0  0  0  0  0  0  0
   45.1590   35.6800   43.8340 C   0  0  0  0  0  0  0  0  0  0  0  0
   46.1510   34.8730   43.3500 C   0  0  0  0  0  0  0  0  0  0  0  0
   46.6300   33.8080   44.0630 N   0  0  0  0  0  0  0  0  0  0  0  0
   46.1330   33.5120   45.2810 C   0  0  0  0  0  0  0  0  0  0  0  0
   45.1480   34.2750   45.8110 N   0  0  0  0  0  0  0  0  0  0  0  0
   43.8810   35.9190   45.5650 H   0  0  0  0  0  0  0  0  0  0  0  0
   46.5450   32.6610   45.8050 H   0  0  0  0  0  0  0  0  0  0  0  0
   44.6670   36.7990   43.1340 N   0  0  0  0  0  0  0  0  0  0  0  0
   43.6910   37.0770   42.8390 H   0  0  0  0  0  0  0  0  0  0  0  0
   45.4820   37.4230   42.8980 H   0  0  0  0  0  0  0  0  0  0  0  0
   47.4200   34.0520   39.7870 C   0  0  0  0  0  0  0  0  0  0  0  0
   48.4120   33.6880   39.4820 H   0  0  0  0  0  0  0  0  0  0  0  0
   47.2370   35.0360   39.3090 H   0  0  0  0  0  0  0  0  0  0  0  0
   46.4060   33.0460   39.4100 C   0  0  0  0  0  0  0  0  0  0  0  0
   45.0230   33.1760   39.3550 C   0  0  0  0  0  0  0  0  0  0  0  0
   44.4670   34.0750   39.5910 H   0  0  0  0  0  0  0  0  0  0  0  0
   44.4640   31.9690   38.9480 C   0  0  0  0  0  0  0  0  0  0  0  0
   43.4190   31.7330   38.8030 H   0  0  0  0  0  0  0  0  0  0  0  0
   45.5380   31.1480   38.7710 N   0  0  0  0  0  0  0  0  0  0  0  0
   45.3910   30.1650   38.4600 H   0  0  0  0  0  0  0  0  0  0  0  0
   46.6620   31.7670   39.0370 N   0  0  0  0  0  0  0  0  0  0  0  0
  1  4  1  6  0  0  0
  1  2  1  0  0  0  0
  1 10  1  0  0  0  0
  2  6  1  0  0  0  0
  3  7  1  1  0  0  0
  3  1  1  0  0  0  0
  3  2  1  0  0  0  0
  5  2  1  0  0  0  0
  8 14  1  0  0  0  0
  8 13  1  0  0  0  0
  9  8  2  0  0  0  0
 10  9  1  0  0  0  0
 10 11  2  0  0  0  0
 11 12  1  0  0  0  0
 12 15  1  0  0  0  0
 12 13  2  0  0  0  0
 16  9  1  0  0  0  0
 17 16  1  0  0  0  0
 18 16  1  0  0  0  0
 19  3  1  0  0  0  0
 20 19  1  0  0  0  0
 21 19  1  0  0  0  0
 22 19  1  0  0  0  0
 23 22  1  0  0  0  0
 23 24  1  0  0  0  0
 25 23  2  0  0  0  0
 26 25  1  0  0  0  0
 27 25  1  0  0  0  0
 27 29  1  0  0  0  0
 28 27  1  0  0  0  0
 29 22  2  0  0  0  0
M  END
>  <minimizedAffinity>
-4.39148045

>  <minimizedRMSD>
0.84152931

$$$$
