
 OpenBabel03252509263D

 29 31  0  0  1  0  0  0  0  0999 V2000
   46.6020   35.1020   41.9300 C   0  0  1  0  0  0  0  0  0  0  0  0
   48.1430   35.2660   41.9330 C   0  0  0  0  0  0  0  0  0  0  0  0
   47.3410   34.0840   41.3020 C   0  0  2  0  0  0  0  0  0  0  0  0
   46.1300   35.9390   41.4010 H   0  0  0  0  0  0  0  0  0  0  0  0
   48.5890   35.9110   41.1570 H   0  0  0  0  0  0  0  0  0  0  0  0
   48.7030   35.0060   42.8360 H   0  0  0  0  0  0  0  0  0  0  0  0
   47.4610   33.1010   41.8480 H   0  0  0  0  0  0  0  0  0  0  0  0
   44.6530   35.4130   45.1130 C   0  0  0  0  0  0  0  0  0  0  0  0
   45.1310   35.7240   43.8110 C   0  0  0  0  0  0  0  0  0  0  0  0
   46.0830   34.8720   43.3250 C   0  0  0  0  0  0  0  0  0  0  0  0
   46.5360   33.8040   44.0510 N   0  0  0  0  0  0  0  0  0  0  0  0
   46.0520   33.5510   45.2840 C   0  0  0  0  0  0  0  0  0  0  0  0
   45.1060   34.3600   45.8160 N   0  0  0  0  0  0  0  0  0  0  0  0
   43.8950   36.0440   45.5600 H   0  0  0  0  0  0  0  0  0  0  0  0
   46.4430   32.6960   45.8170 H   0  0  0  0  0  0  0  0  0  0  0  0
   44.6660   36.8470   43.0980 N   0  0  0  0  0  0  0  0  0  0  0  0
   43.6960   37.1550   42.8150 H   0  0  0  0  0  0  0  0  0  0  0  0
   45.4990   37.4350   42.8340 H   0  0  0  0  0  0  0  0  0  0  0  0
   47.3670   33.9280   39.7980 C   0  0  0  0  0  0  0  0  0  0  0  0
   48.3130   33.4410   39.5190 H   0  0  0  0  0  0  0  0  0  0  0  0
   47.2980   34.9040   39.2750 H   0  0  0  0  0  0  0  0  0  0  0  0
   46.2480   33.0250   39.4570 C   0  0  0  0  0  0  0  0  0  0  0  0
   45.7210   31.9700   40.1920 C   0  0  0  0  0  0  0  0  0  0  0  0
   46.0710   31.6440   41.1640 H   0  0  0  0  0  0  0  0  0  0  0  0
   44.6690   31.3970   39.4830 C   0  0  0  0  0  0  0  0  0  0  0  0
   44.0480   30.5600   39.7720 H   0  0  0  0  0  0  0  0  0  0  0  0
   44.6010   32.1330   38.3380 N   0  0  0  0  0  0  0  0  0  0  0  0
   43.8820   31.9050   37.6190 H   0  0  0  0  0  0  0  0  0  0  0  0
   45.5110   33.0760   38.3200 N   0  0  0  0  0  0  0  0  0  0  0  0
  1  4  1  6  0  0  0
  1  2  1  0  0  0  0
  1 10  1  0  0  0  0
  2  6  1  0  0  0  0
  3  7  1  1  0  0  0
  3  1  1  0  0  0  0
  3  2  1  0  0  0  0
  5  2  1  0  0  0  0
  8 14  1  0  0  0  0
  8 13  1  0  0  0  0
  9  8  2  0  0  0  0
 10  9  1  0  0  0  0
 10 11  2  0  0  0  0
 11 12  1  0  0  0  0
 12 13  2  0  0  0  0
 12 15  1  0  0  0  0
 16  9  1  0  0  0  0
 17 16  1  0  0  0  0
 18 16  1  0  0  0  0
 19  3  1  0  0  0  0
 20 19  1  0  0  0  0
 21 19  1  0  0  0  0
 22 19  1  0  0  0  0
 22 23  1  0  0  0  0
 23 24  1  0  0  0  0
 25 26  1  0  0  0  0
 25 23  2  0  0  0  0
 27 25  1  0  0  0  0
 28 27  1  0  0  0  0
 29 27  1  0  0  0  0
 29 22  2  0  0  0  0
M  END
>  <minimizedAffinity>
-4.41038275

>  <minimizedRMSD>
0.712040722

$$$$
