
 OpenBabel03252509253D

 29 31  0  0  1  0  0  0  0  0999 V2000
   46.6780   35.1450   42.0140 C   0  0  1  0  0  0  0  0  0  0  0  0
   48.2280   35.1380   42.0440 C   0  0  0  0  0  0  0  0  0  0  0  0
   47.3120   34.0860   41.3410 C   0  0  2  0  0  0  0  0  0  0  0  0
   46.3110   36.0560   41.5230 H   0  0  0  0  0  0  0  0  0  0  0  0
   48.7560   35.7680   41.3080 H   0  0  0  0  0  0  0  0  0  0  0  0
   48.7400   34.7720   42.9380 H   0  0  0  0  0  0  0  0  0  0  0  0
   47.3140   33.0690   41.8360 H   0  0  0  0  0  0  0  0  0  0  0  0
   44.6150   35.4220   45.1260 C   0  0  0  0  0  0  0  0  0  0  0  0
   45.1350   35.7440   43.8440 C   0  0  0  0  0  0  0  0  0  0  0  0
   46.1120   34.9040   43.3880 C   0  0  0  0  0  0  0  0  0  0  0  0
   46.5500   33.8370   44.1240 N   0  0  0  0  0  0  0  0  0  0  0  0
   46.0250   33.5730   45.3380 C   0  0  0  0  0  0  0  0  0  0  0  0
   45.0530   34.3700   45.8400 N   0  0  0  0  0  0  0  0  0  0  0  0
   43.8360   36.0440   45.5490 H   0  0  0  0  0  0  0  0  0  0  0  0
   46.4060   32.7190   45.8810 H   0  0  0  0  0  0  0  0  0  0  0  0
   44.6860   36.8660   43.1190 N   0  0  0  0  0  0  0  0  0  0  0  0
   43.7230   37.1660   42.8040 H   0  0  0  0  0  0  0  0  0  0  0  0
   45.5220   37.4640   42.8880 H   0  0  0  0  0  0  0  0  0  0  0  0
   47.3480   34.0050   39.8320 C   0  0  0  0  0  0  0  0  0  0  0  0
   48.3040   33.5480   39.5340 H   0  0  0  0  0  0  0  0  0  0  0  0
   47.2640   35.0030   39.3570 H   0  0  0  0  0  0  0  0  0  0  0  0
   46.2470   33.1000   39.4410 C   0  0  0  0  0  0  0  0  0  0  0  0
   46.3120   31.8000   38.9560 C   0  0  0  0  0  0  0  0  0  0  0  0
   47.2230   31.2380   38.7870 H   0  0  0  0  0  0  0  0  0  0  0  0
   45.0230   31.3320   38.7190 C   0  0  0  0  0  0  0  0  0  0  0  0
   44.7250   30.3640   38.3420 H   0  0  0  0  0  0  0  0  0  0  0  0
   44.2210   32.3750   39.0740 N   0  0  0  0  0  0  0  0  0  0  0  0
   43.1860   32.2830   38.9910 H   0  0  0  0  0  0  0  0  0  0  0  0
   44.9240   33.4000   39.4920 N   0  0  0  0  0  0  0  0  0  0  0  0
  1  4  1  6  0  0  0
  1  2  1  0  0  0  0
  1 10  1  0  0  0  0
  2  6  1  0  0  0  0
  3  7  1  1  0  0  0
  3  1  1  0  0  0  0
  3  2  1  0  0  0  0
  5  2  1  0  0  0  0
  8 14  1  0  0  0  0
  8 13  1  0  0  0  0
  9  8  2  0  0  0  0
 10  9  1  0  0  0  0
 10 11  2  0  0  0  0
 11 12  1  0  0  0  0
 12 13  2  0  0  0  0
 12 15  1  0  0  0  0
 16  9  1  0  0  0  0
 17 16  1  0  0  0  0
 18 16  1  0  0  0  0
 19  3  1  0  0  0  0
 20 19  1  0  0  0  0
 21 19  1  0  0  0  0
 22 29  2  0  0  0  0
 22 19  1  0  0  0  0
 23 22  1  0  0  0  0
 24 23  1  0  0  0  0
 25 23  2  0  0  0  0
 25 27  1  0  0  0  0
 26 25  1  0  0  0  0
 27 29  1  0  0  0  0
 28 27  1  0  0  0  0
M  END
>  <minimizedAffinity>
-4.40315914

>  <minimizedRMSD>
0.708013058

$$$$
