
 OpenBabel03252509253D

 29 31  0  0  1  0  0  0  0  0999 V2000
   46.8460   35.1650   41.8620 C   0  0  1  0  0  0  0  0  0  0  0  0
   48.3580   35.5000   41.9150 C   0  0  0  0  0  0  0  0  0  0  0  0
   47.7100   34.2630   41.2160 C   0  0  2  0  0  0  0  0  0  0  0  0
   46.2950   35.9660   41.3520 H   0  0  0  0  0  0  0  0  0  0  0  0
   48.7480   36.2220   41.1770 H   0  0  0  0  0  0  0  0  0  0  0  0
   48.9220   35.2660   42.8230 H   0  0  0  0  0  0  0  0  0  0  0  0
   47.9270   33.2780   41.7260 H   0  0  0  0  0  0  0  0  0  0  0  0
   44.8110   35.1380   45.0050 C   0  0  0  0  0  0  0  0  0  0  0  0
   45.2830   35.5550   43.7310 C   0  0  0  0  0  0  0  0  0  0  0  0
   46.3220   34.8210   43.2310 C   0  0  0  0  0  0  0  0  0  0  0  0
   46.8600   33.7670   43.9180 N   0  0  0  0  0  0  0  0  0  0  0  0
   46.3770   33.4100   45.1250 C   0  0  0  0  0  0  0  0  0  0  0  0
   45.3480   34.1000   45.6700 N   0  0  0  0  0  0  0  0  0  0  0  0
   43.9870   35.6730   45.4610 H   0  0  0  0  0  0  0  0  0  0  0  0
   46.8370   32.5710   45.6290 H   0  0  0  0  0  0  0  0  0  0  0  0
   44.7290   36.6620   43.0580 N   0  0  0  0  0  0  0  0  0  0  0  0
   43.7400   36.8900   42.7660 H   0  0  0  0  0  0  0  0  0  0  0  0
   45.5080   37.3380   42.8430 H   0  0  0  0  0  0  0  0  0  0  0  0
   47.7900   34.1740   39.7080 C   0  0  0  0  0  0  0  0  0  0  0  0
   48.7930   33.8110   39.4380 H   0  0  0  0  0  0  0  0  0  0  0  0
   47.6200   35.1560   39.2220 H   0  0  0  0  0  0  0  0  0  0  0  0
   46.7920   33.1630   39.3010 C   0  0  0  0  0  0  0  0  0  0  0  0
   46.0750   33.0700   38.1140 C   0  0  0  0  0  0  0  0  0  0  0  0
   46.1520   33.7550   37.2800 H   0  0  0  0  0  0  0  0  0  0  0  0
   45.2450   31.9540   38.1650 C   0  0  0  0  0  0  0  0  0  0  0  0
   44.5600   31.5980   37.4080 H   0  0  0  0  0  0  0  0  0  0  0  0
   45.4920   31.4120   39.3900 N   0  0  0  0  0  0  0  0  0  0  0  0
   44.9880   30.5490   39.6850 H   0  0  0  0  0  0  0  0  0  0  0  0
   46.3850   32.1080   40.0510 N   0  0  0  0  0  0  0  0  0  0  0  0
  1  4  1  6  0  0  0
  1  2  1  0  0  0  0
  1 10  1  0  0  0  0
  2  6  1  0  0  0  0
  3  7  1  1  0  0  0
  3  1  1  0  0  0  0
  3  2  1  0  0  0  0
  5  2  1  0  0  0  0
  8 14  1  0  0  0  0
  8 13  1  0  0  0  0
  9  8  2  0  0  0  0
 10  9  1  0  0  0  0
 10 11  2  0  0  0  0
 11 12  1  0  0  0  0
 12 15  1  0  0  0  0
 12 13  2  0  0  0  0
 16  9  1  0  0  0  0
 17 16  1  0  0  0  0
 18 16  1  0  0  0  0
 19  3  1  0  0  0  0
 20 19  1  0  0  0  0
 21 19  1  0  0  0  0
 22 19  1  0  0  0  0
 22 29  2  0  0  0  0
 23 25  2  0  0  0  0
 23 22  1  0  0  0  0
 24 23  1  0  0  0  0
 25 27  1  0  0  0  0
 26 25  1  0  0  0  0
 27 28  1  0  0  0  0
 27 29  1  0  0  0  0
M  END
>  <minimizedAffinity>
-4.44541502

>  <minimizedRMSD>
1.0760932

$$$$
