
 OpenBabel03252509253D

 29 31  0  0  1  0  0  0  0  0999 V2000
   46.7110   35.1610   41.9500 C   0  0  1  0  0  0  0  0  0  0  0  0
   48.2530   35.3110   41.9750 C   0  0  0  0  0  0  0  0  0  0  0  0
   47.4480   34.1680   41.2800 C   0  0  2  0  0  0  0  0  0  0  0  0
   46.2510   36.0270   41.4570 H   0  0  0  0  0  0  0  0  0  0  0  0
   48.7130   35.9890   41.2340 H   0  0  0  0  0  0  0  0  0  0  0  0
   48.8030   35.0030   42.8690 H   0  0  0  0  0  0  0  0  0  0  0  0
   47.5540   33.1590   41.7790 H   0  0  0  0  0  0  0  0  0  0  0  0
   44.6890   35.2930   45.0990 C   0  0  0  0  0  0  0  0  0  0  0  0
   45.1760   35.6620   43.8150 C   0  0  0  0  0  0  0  0  0  0  0  0
   46.1770   34.8700   43.3270 C   0  0  0  0  0  0  0  0  0  0  0  0
   46.6670   33.8050   44.0340 N   0  0  0  0  0  0  0  0  0  0  0  0
   46.1720   33.4960   45.2490 C   0  0  0  0  0  0  0  0  0  0  0  0
   45.1780   34.2440   45.7830 N   0  0  0  0  0  0  0  0  0  0  0  0
   43.8930   35.8760   45.5460 H   0  0  0  0  0  0  0  0  0  0  0  0
   46.5930   32.6460   45.7690 H   0  0  0  0  0  0  0  0  0  0  0  0
   44.6720   36.7810   43.1220 N   0  0  0  0  0  0  0  0  0  0  0  0
   43.6940   37.0500   42.8280 H   0  0  0  0  0  0  0  0  0  0  0  0
   45.4810   37.4140   42.8910 H   0  0  0  0  0  0  0  0  0  0  0  0
   47.4870   34.0840   39.7710 C   0  0  0  0  0  0  0  0  0  0  0  0
   48.4860   33.7340   39.4710 H   0  0  0  0  0  0  0  0  0  0  0  0
   47.2920   35.0650   39.2920 H   0  0  0  0  0  0  0  0  0  0  0  0
   46.4900   33.0630   39.3880 C   0  0  0  0  0  0  0  0  0  0  0  0
   46.6910   31.7370   39.0250 C   0  0  0  0  0  0  0  0  0  0  0  0
   47.6520   31.2400   38.9680 H   0  0  0  0  0  0  0  0  0  0  0  0
   45.4620   31.1460   38.7460 C   0  0  0  0  0  0  0  0  0  0  0  0
   45.2670   30.1280   38.4360 H   0  0  0  0  0  0  0  0  0  0  0  0
   44.5580   32.1450   38.9520 N   0  0  0  0  0  0  0  0  0  0  0  0
   43.5440   31.9600   38.8090 H   0  0  0  0  0  0  0  0  0  0  0  0
   45.1480   33.2540   39.3230 N   0  0  0  0  0  0  0  0  0  0  0  0
  1  4  1  6  0  0  0
  1  2  1  0  0  0  0
  1 10  1  0  0  0  0
  2  6  1  0  0  0  0
  3  7  1  1  0  0  0
  3  1  1  0  0  0  0
  3  2  1  0  0  0  0
  5  2  1  0  0  0  0
  8 14  1  0  0  0  0
  8 13  1  0  0  0  0
  9  8  2  0  0  0  0
 10  9  1  0  0  0  0
 10 11  2  0  0  0  0
 11 12  1  0  0  0  0
 12 15  1  0  0  0  0
 12 13  2  0  0  0  0
 16  9  1  0  0  0  0
 17 16  1  0  0  0  0
 18 16  1  0  0  0  0
 19  3  1  0  0  0  0
 20 19  1  0  0  0  0
 21 19  1  0  0  0  0
 22 19  1  0  0  0  0
 23 22  1  0  0  0  0
 24 23  1  0  0  0  0
 25 27  1  0  0  0  0
 25 23  2  0  0  0  0
 26 25  1  0  0  0  0
 27 29  1  0  0  0  0
 28 27  1  0  0  0  0
 29 22  2  0  0  0  0
M  END
>  <minimizedAffinity>
-4.37952518

>  <minimizedRMSD>
0.872264087

$$$$
