
 OpenBabel03242514123D

 33 35  0  0  0  0  0  0  0  0999 V2000
   45.2820   33.5380   43.6130 C   0  0  0  0  0  0  0  0  0  0  0  0
   44.3820   33.2270   42.5560 C   0  0  0  0  0  0  0  0  0  0  0  0
   44.5320   34.1340   41.3640 C   0  0  0  0  0  0  0  0  0  0  0  0
   44.1310   35.5460   41.7950 C   0  0  0  0  0  0  0  0  0  0  0  0
   44.8140   35.9570   43.0600 C   0  0  0  0  0  0  0  0  0  0  0  0
   45.8760   34.9630   43.4620 C   0  0  0  0  0  0  0  0  0  0  0  0
   44.8300   33.6340   44.6160 H   0  0  0  0  0  0  0  0  0  0  0  0
   44.0360   32.2100   42.3760 H   0  0  0  0  0  0  0  0  0  0  0  0
   43.3620   33.6130   42.9270 H   0  0  0  0  0  0  0  0  0  0  0  0
   45.5640   34.3520   41.0330 H   0  0  0  0  0  0  0  0  0  0  0  0
   43.8650   33.8460   40.5300 H   0  0  0  0  0  0  0  0  0  0  0  0
   44.3670   36.2620   40.9810 H   0  0  0  0  0  0  0  0  0  0  0  0
   43.0270   35.5300   41.8800 H   0  0  0  0  0  0  0  0  0  0  0  0
   44.0340   35.8640   43.8740 H   0  0  0  0  0  0  0  0  0  0  0  0
   45.2140   36.9600   43.0900 H   0  0  0  0  0  0  0  0  0  0  0  0
   46.6720   34.8740   42.7120 H   0  0  0  0  0  0  0  0  0  0  0  0
   46.3250   35.2700   44.4110 H   0  0  0  0  0  0  0  0  0  0  0  0
   46.4050   32.6070   43.8250 C   0  0  0  0  0  0  0  0  0  0  0  0
   46.4600   31.9970   45.0550 C   0  0  0  0  0  0  0  0  0  0  0  0
   47.4440   31.0310   45.1600 C   0  0  0  0  0  0  0  0  0  0  0  0
   48.2630   30.7560   44.1130 N   0  0  0  0  0  0  0  0  0  0  0  0
   48.2000   31.3600   42.9390 C   0  0  0  0  0  0  0  0  0  0  0  0
   47.2680   32.2730   42.8280 N   0  0  0  0  0  0  0  0  0  0  0  0
   47.7490   30.3800   45.9620 H   0  0  0  0  0  0  0  0  0  0  0  0
   48.7870   31.2240   42.0650 H   0  0  0  0  0  0  0  0  0  0  0  0
   45.8700   31.9840   46.3640 C   0  0  0  0  0  0  0  0  0  0  0  0
   45.5920   30.9140   47.2420 C   0  0  0  0  0  0  0  0  0  0  0  0
   45.8350   29.8740   47.0890 H   0  0  0  0  0  0  0  0  0  0  0  0
   44.9370   31.3350   48.3680 C   0  0  0  0  0  0  0  0  0  0  0  0
   44.5970   30.7640   49.2050 H   0  0  0  0  0  0  0  0  0  0  0  0
   44.8190   32.6530   48.1700 N   0  0  0  0  0  0  0  0  0  0  0  0
   44.3770   33.3770   48.7880 H   0  0  0  0  0  0  0  0  0  0  0  0
   45.3470   33.0420   47.0260 N   0  0  0  0  0  0  0  0  0  0  0  0
  1 18  1  0  0  0  0
  1  7  1  0  0  0  0
  2  9  1  0  0  0  0
  2  1  1  0  0  0  0
  3  4  1  0  0  0  0
  3  2  1  0  0  0  0
  4 13  1  0  0  0  0
  4  5  1  0  0  0  0
  5 15  1  0  0  0  0
  5  6  1  0  0  0  0
  5 14  1  0  0  0  0
  6  1  1  0  0  0  0
  6 17  1  0  0  0  0
  8  2  1  0  0  0  0
 10  3  1  0  0  0  0
 11  3  1  0  0  0  0
 12  4  1  0  0  0  0
 16  6  1  0  0  0  0
 18 19  1  0  0  0  0
 19 20  2  0  0  0  0
 19 26  1  0  0  0  0
 20 24  1  0  0  0  0
 21 20  1  0  0  0  0
 22 21  2  0  0  0  0
 23 22  1  0  0  0  0
 23 18  2  0  0  0  0
 25 22  1  0  0  0  0
 26 33  2  0  0  0  0
 26 27  1  0  0  0  0
 27 29  2  0  0  0  0
 28 27  1  0  0  0  0
 29 30  1  0  0  0  0
 31 29  1  0  0  0  0
 31 32  1  0  0  0  0
 33 31  1  0  0  0  0
M  END
>  <minimizedAffinity>
-4.55468988

>  <minimizedRMSD>
5.57292318

$$$$
