
 OpenBabel03252509283D

 20 21  0  0  0  0  0  0  0  0999 V2000
   47.0690   34.8540   41.9860 C   0  0  0  0  0  0  0  0  0  0  0  0
   47.9580   34.1910   42.2010 H   0  0  0  0  0  0  0  0  0  0  0  0
   47.5090   35.8420   41.7430 H   0  0  0  0  0  0  0  0  0  0  0  0
   44.5880   36.0140   44.5130 C   0  0  0  0  0  0  0  0  0  0  0  0
   45.3670   35.9820   43.3370 C   0  0  0  0  0  0  0  0  0  0  0  0
   46.2540   34.9010   43.2020 C   0  0  0  0  0  0  0  0  0  0  0  0
   46.3080   33.9660   44.1950 N   0  0  0  0  0  0  0  0  0  0  0  0
   45.5400   34.0440   45.3020 C   0  0  0  0  0  0  0  0  0  0  0  0
   44.6780   35.0800   45.4510 N   0  0  0  0  0  0  0  0  0  0  0  0
   43.9230   36.8730   44.5590 H   0  0  0  0  0  0  0  0  0  0  0  0
   45.2890   36.7460   42.5780 H   0  0  0  0  0  0  0  0  0  0  0  0
   45.6680   33.2460   46.0220 H   0  0  0  0  0  0  0  0  0  0  0  0
   46.3970   34.2440   40.8210 C   0  0  0  0  0  0  0  0  0  0  0  0
   47.1770   33.7420   39.7850 C   0  0  0  0  0  0  0  0  0  0  0  0
   48.2670   33.7130   39.6660 H   0  0  0  0  0  0  0  0  0  0  0  0
   46.3770   33.2130   38.7870 C   0  0  0  0  0  0  0  0  0  0  0  0
   46.6200   32.7480   37.8550 H   0  0  0  0  0  0  0  0  0  0  0  0
   45.1160   33.4170   39.2610 N   0  0  0  0  0  0  0  0  0  0  0  0
   44.1930   33.1700   38.8240 H   0  0  0  0  0  0  0  0  0  0  0  0
   45.1230   34.0240   40.4580 N   0  0  0  0  0  0  0  0  0  0  0  0
  1  2  1  0  0  0  0
  1  6  1  0  0  0  0
  3  1  1  0  0  0  0
  4 10  1  0  0  0  0
  4  9  1  0  0  0  0
  5  4  2  0  0  0  0
  6  5  1  0  0  0  0
  6  7  2  0  0  0  0
  7  8  1  0  0  0  0
  8  9  2  0  0  0  0
  8 12  1  0  0  0  0
 11  5  1  0  0  0  0
 13  1  1  0  0  0  0
 14 13  1  0  0  0  0
 15 14  1  0  0  0  0
 16 18  1  0  0  0  0
 16 14  2  0  0  0  0
 17 16  1  0  0  0  0
 18 20  1  0  0  0  0
 19 18  1  0  0  0  0
 20 13  2  0  0  0  0
M  END
>  <minimizedAffinity>
-3.93949914

>  <minimizedRMSD>
0.278319508

$$$$
