
 OpenBabel03252509283D

 20 21  0  0  0  0  0  0  0  0999 V2000
   47.4320   34.9200   41.9680 C   0  0  0  0  0  0  0  0  0  0  0  0
   48.3060   34.2710   42.2700 H   0  0  0  0  0  0  0  0  0  0  0  0
   47.8760   35.9170   41.7780 H   0  0  0  0  0  0  0  0  0  0  0  0
   44.6720   36.0060   44.2230 C   0  0  0  0  0  0  0  0  0  0  0  0
   45.5700   35.9980   43.1340 C   0  0  0  0  0  0  0  0  0  0  0  0
   46.4930   34.9410   43.0930 C   0  0  0  0  0  0  0  0  0  0  0  0
   46.4690   34.0050   44.0850 N   0  0  0  0  0  0  0  0  0  0  0  0
   45.5880   34.0590   45.1060 C   0  0  0  0  0  0  0  0  0  0  0  0
   44.6880   35.0710   45.1650 N   0  0  0  0  0  0  0  0  0  0  0  0
   43.9830   36.8470   44.1990 H   0  0  0  0  0  0  0  0  0  0  0  0
   45.5510   36.7620   42.3720 H   0  0  0  0  0  0  0  0  0  0  0  0
   45.6610   33.2620   45.8350 H   0  0  0  0  0  0  0  0  0  0  0  0
   46.8970   34.3070   40.7350 C   0  0  0  0  0  0  0  0  0  0  0  0
   47.7580   34.0950   39.6640 C   0  0  0  0  0  0  0  0  0  0  0  0
   48.8290   34.3130   39.5590 H   0  0  0  0  0  0  0  0  0  0  0  0
   47.0840   33.5170   38.6040 C   0  0  0  0  0  0  0  0  0  0  0  0
   47.4130   33.2160   37.6330 H   0  0  0  0  0  0  0  0  0  0  0  0
   45.8110   33.3950   39.0770 N   0  0  0  0  0  0  0  0  0  0  0  0
   44.9590   33.0040   38.6030 H   0  0  0  0  0  0  0  0  0  0  0  0
   45.6990   33.8590   40.3320 N   0  0  0  0  0  0  0  0  0  0  0  0
  1  2  1  0  0  0  0
  1  6  1  0  0  0  0
  3  1  1  0  0  0  0
  4  9  1  0  0  0  0
  5  4  2  0  0  0  0
  6  5  1  0  0  0  0
  6  7  2  0  0  0  0
  7  8  1  0  0  0  0
  8  9  2  0  0  0  0
  8 12  1  0  0  0  0
 10  4  1  0  0  0  0
 11  5  1  0  0  0  0
 13  1  1  0  0  0  0
 14 13  1  0  0  0  0
 15 14  1  0  0  0  0
 16 18  1  0  0  0  0
 16 14  2  0  0  0  0
 17 16  1  0  0  0  0
 18 20  1  0  0  0  0
 19 18  1  0  0  0  0
 20 13  2  0  0  0  0
M  END
>  <minimizedAffinity>
-3.9474225

>  <minimizedRMSD>
0.813910007

$$$$
