
 OpenBabel03252509123D

 30 33  0  0  0  0  0  0  0  0999 V2000
   39.3480   30.3120   41.9720 C   0  0  0  0  0  0  0  0  0  0  0  0
   38.2330   29.7180   41.3940 C   0  0  0  0  0  0  0  0  0  0  0  0
   37.3530   30.4270   40.6010 C   0  0  0  0  0  0  0  0  0  0  0  0
   37.5610   31.7800   40.3540 C   0  0  0  0  0  0  0  0  0  0  0  0
   36.9050   32.7460   39.6390 N   0  0  0  0  0  0  0  0  0  0  0  0
   37.6150   33.9110   39.7820 C   0  0  0  0  0  0  0  0  0  0  0  0
   38.6880   33.6350   40.5810 N   0  0  0  0  0  0  0  0  0  0  0  0
   38.6780   32.3390   40.9430 C   0  0  0  0  0  0  0  0  0  0  0  0
   39.5680   31.6660   41.7330 C   0  0  0  0  0  0  0  0  0  0  0  0
   40.0040   29.7080   42.5870 H   0  0  0  0  0  0  0  0  0  0  0  0
   36.0240   32.5620   39.1010 H   0  0  0  0  0  0  0  0  0  0  0  0
   37.2950   34.8250   39.3060 H   0  0  0  0  0  0  0  0  0  0  0  0
   40.4280   32.1060   42.1840 H   0  0  0  0  0  0  0  0  0  0  0  0
   36.8960   26.6130   42.8200 C   0  0  0  0  0  0  0  0  0  0  0  0
   37.5110   25.6270   42.0220 C   0  0  0  0  0  0  0  0  0  0  0  0
   38.3780   26.0410   41.0020 C   0  0  0  0  0  0  0  0  0  0  0  0
   38.5690   27.3870   40.8510 N   0  0  0  0  0  0  0  0  0  0  0  0
   37.9700   28.3070   41.6260 C   0  0  0  0  0  0  0  0  0  0  0  0
   37.1300   27.9350   42.6150 N   0  0  0  0  0  0  0  0  0  0  0  0
   36.2230   26.2950   43.6120 H   0  0  0  0  0  0  0  0  0  0  0  0
   37.2860   24.5780   42.2310 H   0  0  0  0  0  0  0  0  0  0  0  0
   38.8470   25.3070   40.3940 H   0  0  0  0  0  0  0  0  0  0  0  0
   36.1620   29.8710   39.9620 C   0  0  0  0  0  0  0  0  0  0  0  0
   36.2670   29.5830   38.5950 C   0  0  0  0  0  0  0  0  0  0  0  0
   37.0940   29.6940   37.8820 H   0  0  0  0  0  0  0  0  0  0  0  0
   35.0660   29.0660   38.1260 C   0  0  0  0  0  0  0  0  0  0  0  0
   34.7730   28.7340   37.1440 H   0  0  0  0  0  0  0  0  0  0  0  0
   34.2770   29.0580   39.2170 N   0  0  0  0  0  0  0  0  0  0  0  0
   33.2780   28.7320   39.2670 H   0  0  0  0  0  0  0  0  0  0  0  0
   34.9200   29.5230   40.2650 N   0  0  0  0  0  0  0  0  0  0  0  0
  1 10  1  0  0  0  0
  2 18  1  0  0  0  0
  2  1  2  0  0  0  0
  3  2  1  0  0  0  0
  4  3  2  0  0  0  0
  4  8  1  0  0  0  0
  5  6  1  0  0  0  0
  5  4  1  0  0  0  0
  6  7  2  0  0  0  0
  7  8  1  0  0  0  0
  8  9  2  0  0  0  0
  9  1  1  0  0  0  0
  9 13  1  0  0  0  0
 11  5  1  0  0  0  0
 12  6  1  0  0  0  0
 14 20  1  0  0  0  0
 15 21  1  0  0  0  0
 15 14  2  0  0  0  0
 16 15  1  0  0  0  0
 17 16  2  0  0  0  0
 17 18  1  0  0  0  0
 18 19  2  0  0  0  0
 19 14  1  0  0  0  0
 22 16  1  0  0  0  0
 23 30  2  0  0  0  0
 23  3  1  0  0  0  0
 24 23  1  0  0  0  0
 25 24  1  0  0  0  0
 26 24  2  0  0  0  0
 26 28  1  0  0  0  0
 27 26  1  0  0  0  0
 28 29  1  0  0  0  0
 28 30  1  0  0  0  0
M  END
>  <minimizedAffinity>
-5.32246876

$$$$

 OpenBabel03252509123D

 30 33  0  0  0  0  0  0  0  0999 V2000
   36.4530   26.0900   39.4590 C   0  0  0  0  0  0  0  0  0  0  0  0
   36.6380   27.3540   40.0040 C   0  0  0  0  0  0  0  0  0  0  0  0
   36.2020   28.4980   39.3660 C   0  0  0  0  0  0  0  0  0  0  0  0
   35.5560   28.4160   38.1370 C   0  0  0  0  0  0  0  0  0  0  0  0
   35.0170   29.3230   37.2650 N   0  0  0  0  0  0  0  0  0  0  0  0
   34.5110   28.6160   36.2030 C   0  0  0  0  0  0  0  0  0  0  0  0
   34.7520   27.2940   36.4480 N   0  0  0  0  0  0  0  0  0  0  0  0
   35.3880   27.1450   37.6240 C   0  0  0  0  0  0  0  0  0  0  0  0
   35.8070   25.9930   38.2300 C   0  0  0  0  0  0  0  0  0  0  0  0
   36.8160   25.2260   40.0030 H   0  0  0  0  0  0  0  0  0  0  0  0
   35.0220   30.3580   37.4360 H   0  0  0  0  0  0  0  0  0  0  0  0
   34.0300   29.1130   35.3750 H   0  0  0  0  0  0  0  0  0  0  0  0
   35.6740   25.0150   37.8250 H   0  0  0  0  0  0  0  0  0  0  0  0
   37.2290   27.7140   43.6070 C   0  0  0  0  0  0  0  0  0  0  0  0
   38.6360   27.7570   43.6780 C   0  0  0  0  0  0  0  0  0  0  0  0
   39.3660   27.6610   42.4860 C   0  0  0  0  0  0  0  0  0  0  0  0
   38.6550   27.5300   41.3250 N   0  0  0  0  0  0  0  0  0  0  0  0
   37.3120   27.4930   41.2850 C   0  0  0  0  0  0  0  0  0  0  0  0
   36.5860   27.5840   42.4190 N   0  0  0  0  0  0  0  0  0  0  0  0
   36.6600   27.7900   44.5310 H   0  0  0  0  0  0  0  0  0  0  0  0
   39.1020   27.8630   44.6610 H   0  0  0  0  0  0  0  0  0  0  0  0
   40.4280   27.6910   42.5270 H   0  0  0  0  0  0  0  0  0  0  0  0
   36.3620   29.8580   39.8770 C   0  0  0  0  0  0  0  0  0  0  0  0
   37.3860   30.6220   39.3000 C   0  0  0  0  0  0  0  0  0  0  0  0
   38.1160   30.3960   38.5130 H   0  0  0  0  0  0  0  0  0  0  0  0
   37.4210   31.8830   39.8810 C   0  0  0  0  0  0  0  0  0  0  0  0
   38.0620   32.7300   39.6990 H   0  0  0  0  0  0  0  0  0  0  0  0
   36.4250   31.8430   40.7860 N   0  0  0  0  0  0  0  0  0  0  0  0
   36.1330   32.6190   41.4330 H   0  0  0  0  0  0  0  0  0  0  0  0
   35.8250   30.6730   40.7720 N   0  0  0  0  0  0  0  0  0  0  0  0
  1 10  1  0  0  0  0
  1  2  1  0  0  0  0
  2 18  1  0  0  0  0
  3 23  1  0  0  0  0
  3  2  2  0  0  0  0
  4  3  1  0  0  0  0
  5 11  1  0  0  0  0
  5  4  1  0  0  0  0
  6  7  2  0  0  0  0
  6  5  1  0  0  0  0
  7  8  1  0  0  0  0
  8  4  2  0  0  0  0
  8  9  1  0  0  0  0
  9  1  2  0  0  0  0
 12  6  1  0  0  0  0
 13  9  1  0  0  0  0
 14 15  1  0  0  0  0
 14 20  1  0  0  0  0
 15 21  1  0  0  0  0
 16 22  1  0  0  0  0
 16 15  2  0  0  0  0
 17 16  1  0  0  0  0
 18 17  2  0  0  0  0
 18 19  1  0  0  0  0
 19 14  2  0  0  0  0
 23 30  2  0  0  0  0
 24 23  1  0  0  0  0
 24 26  2  0  0  0  0
 25 24  1  0  0  0  0
 26 28  1  0  0  0  0
 27 26  1  0  0  0  0
 28 29  1  0  0  0  0
 30 28  1  0  0  0  0
M  END
>  <minimizedAffinity>
-5.13322544

$$$$

 OpenBabel03252509123D

 30 33  0  0  0  0  0  0  0  0999 V2000
   36.6160   26.1530   39.7700 C   0  0  0  0  0  0  0  0  0  0  0  0
   36.4730   27.5310   39.6630 C   0  0  0  0  0  0  0  0  0  0  0  0
   36.9860   28.3970   40.6080 C   0  0  0  0  0  0  0  0  0  0  0  0
   37.6710   27.9060   41.7140 C   0  0  0  0  0  0  0  0  0  0  0  0
   38.2840   28.4690   42.8010 N   0  0  0  0  0  0  0  0  0  0  0  0
   38.7920   27.4440   43.5580 C   0  0  0  0  0  0  0  0  0  0  0  0
   38.4800   26.2770   42.9200 N   0  0  0  0  0  0  0  0  0  0  0  0
   37.7950   26.5330   41.7900 C   0  0  0  0  0  0  0  0  0  0  0  0
   37.3000   25.6490   40.8720 C   0  0  0  0  0  0  0  0  0  0  0  0
   36.1920   25.5210   38.9990 H   0  0  0  0  0  0  0  0  0  0  0  0
   38.3230   29.5040   42.9670 H   0  0  0  0  0  0  0  0  0  0  0  0
   39.3260   27.6340   44.4760 H   0  0  0  0  0  0  0  0  0  0  0  0
   37.4000   24.5890   40.9390 H   0  0  0  0  0  0  0  0  0  0  0  0
   33.8020   28.9270   37.5710 C   0  0  0  0  0  0  0  0  0  0  0  0
   34.4640   29.1490   36.3460 C   0  0  0  0  0  0  0  0  0  0  0  0
   35.8220   28.8170   36.2540 C   0  0  0  0  0  0  0  0  0  0  0  0
   36.4160   28.2960   37.3700 N   0  0  0  0  0  0  0  0  0  0  0  0
   35.7610   28.0930   38.5260 C   0  0  0  0  0  0  0  0  0  0  0  0
   34.4530   28.4040   38.6410 N   0  0  0  0  0  0  0  0  0  0  0  0
   32.7470   29.1840   37.6450 H   0  0  0  0  0  0  0  0  0  0  0  0
   33.8900   29.5720   35.5170 H   0  0  0  0  0  0  0  0  0  0  0  0
   36.3320   28.9810   35.3360 H   0  0  0  0  0  0  0  0  0  0  0  0
   36.8740   29.8540   40.5620 C   0  0  0  0  0  0  0  0  0  0  0  0
   37.9080   30.5360   39.9070 C   0  0  0  0  0  0  0  0  0  0  0  0
   38.8170   30.1830   39.4030 H   0  0  0  0  0  0  0  0  0  0  0  0
   37.6700   31.9040   39.9430 C   0  0  0  0  0  0  0  0  0  0  0  0
   38.2360   32.7330   39.5510 H   0  0  0  0  0  0  0  0  0  0  0  0
   36.5080   32.0060   40.6160 N   0  0  0  0  0  0  0  0  0  0  0  0
   35.9940   32.8930   40.8490 H   0  0  0  0  0  0  0  0  0  0  0  0
   36.0620   30.8200   40.9650 N   0  0  0  0  0  0  0  0  0  0  0  0
  1  9  1  0  0  0  0
  2  1  2  0  0  0  0
  2  3  1  0  0  0  0
  3  4  2  0  0  0  0
  4  8  1  0  0  0  0
  4  5  1  0  0  0  0
  5 11  1  0  0  0  0
  5  6  1  0  0  0  0
  6 12  1  0  0  0  0
  7  6  2  0  0  0  0
  8  7  1  0  0  0  0
  9 13  1  0  0  0  0
  9  8  2  0  0  0  0
 10  1  1  0  0  0  0
 14 20  1  0  0  0  0
 14 19  1  0  0  0  0
 15 14  2  0  0  0  0
 16 15  1  0  0  0  0
 16 17  2  0  0  0  0
 17 18  1  0  0  0  0
 18 19  2  0  0  0  0
 18  2  1  0  0  0  0
 21 15  1  0  0  0  0
 22 16  1  0  0  0  0
 23  3  1  0  0  0  0
 23 30  2  0  0  0  0
 24 26  2  0  0  0  0
 24 23  1  0  0  0  0
 25 24  1  0  0  0  0
 26 28  1  0  0  0  0
 27 26  1  0  0  0  0
 28 29  1  0  0  0  0
 28 30  1  0  0  0  0
M  END
>  <minimizedAffinity>
-5.0546546

$$$$

 OpenBabel03252509123D

 30 33  0  0  0  0  0  0  0  0999 V2000
   38.8830   30.0570   42.7690 C   0  0  0  0  0  0  0  0  0  0  0  0
   38.8260   30.3670   41.4160 C   0  0  0  0  0  0  0  0  0  0  0  0
   38.3550   29.4710   40.4770 C   0  0  0  0  0  0  0  0  0  0  0  0
   37.9180   28.2090   40.8660 C   0  0  0  0  0  0  0  0  0  0  0  0
   37.4100   27.1170   40.2140 N   0  0  0  0  0  0  0  0  0  0  0  0
   37.1630   26.1570   41.1620 C   0  0  0  0  0  0  0  0  0  0  0  0
   37.5240   26.6790   42.3710 N   0  0  0  0  0  0  0  0  0  0  0  0
   37.9880   27.9330   42.2170 C   0  0  0  0  0  0  0  0  0  0  0  0
   38.4480   28.7970   43.1720 C   0  0  0  0  0  0  0  0  0  0  0  0
   39.2630   30.7980   43.4610 H   0  0  0  0  0  0  0  0  0  0  0  0
   37.2620   27.0860   39.1760 H   0  0  0  0  0  0  0  0  0  0  0  0
   36.7550   25.1940   40.8930 H   0  0  0  0  0  0  0  0  0  0  0  0
   38.4990   28.5750   44.2130 H   0  0  0  0  0  0  0  0  0  0  0  0
   40.9790   33.0890   40.2250 C   0  0  0  0  0  0  0  0  0  0  0  0
   40.0710   34.1600   40.1040 C   0  0  0  0  0  0  0  0  0  0  0  0
   38.7280   33.9340   40.4330 C   0  0  0  0  0  0  0  0  0  0  0  0
   38.3890   32.6770   40.8530 N   0  0  0  0  0  0  0  0  0  0  0  0
   39.2750   31.6720   40.9590 C   0  0  0  0  0  0  0  0  0  0  0  0
   40.5750   31.8640   40.6490 N   0  0  0  0  0  0  0  0  0  0  0  0
   42.0220   33.2610   39.9700 H   0  0  0  0  0  0  0  0  0  0  0  0
   40.4510   35.1250   39.7580 H   0  0  0  0  0  0  0  0  0  0  0  0
   38.0330   34.7340   40.3460 H   0  0  0  0  0  0  0  0  0  0  0  0
   38.2660   29.7270   39.0410 C   0  0  0  0  0  0  0  0  0  0  0  0
   37.0300   30.1840   38.5670 C   0  0  0  0  0  0  0  0  0  0  0  0
   36.0810   30.3980   39.0750 H   0  0  0  0  0  0  0  0  0  0  0  0
   37.0930   30.3820   37.1930 C   0  0  0  0  0  0  0  0  0  0  0  0
   36.3500   30.7220   36.4910 H   0  0  0  0  0  0  0  0  0  0  0  0
   38.3570   30.0390   36.8810 N   0  0  0  0  0  0  0  0  0  0  0  0
   38.7940   30.0550   35.9250 H   0  0  0  0  0  0  0  0  0  0  0  0
   39.0200   29.6650   37.9530 N   0  0  0  0  0  0  0  0  0  0  0  0
  1  9  1  0  0  0  0
  1 10  1  0  0  0  0
  2  1  2  0  0  0  0
  3  4  2  0  0  0  0
  3  2  1  0  0  0  0
  4  8  1  0  0  0  0
  5  4  1  0  0  0  0
  5  6  1  0  0  0  0
  6  7  2  0  0  0  0
  8  7  1  0  0  0  0
  8  9  2  0  0  0  0
  9 13  1  0  0  0  0
 11  5  1  0  0  0  0
 12  6  1  0  0  0  0
 14 19  1  0  0  0  0
 15 14  2  0  0  0  0
 15 16  1  0  0  0  0
 16 17  2  0  0  0  0
 17 18  1  0  0  0  0
 18  2  1  0  0  0  0
 19 18  2  0  0  0  0
 20 14  1  0  0  0  0
 21 15  1  0  0  0  0
 22 16  1  0  0  0  0
 23  3  1  0  0  0  0
 24 23  1  0  0  0  0
 24 25  1  0  0  0  0
 26 24  2  0  0  0  0
 27 26  1  0  0  0  0
 28 26  1  0  0  0  0
 28 30  1  0  0  0  0
 29 28  1  0  0  0  0
 30 23  2  0  0  0  0
M  END
>  <minimizedAffinity>
-5.04821634

$$$$

 OpenBabel03252509123D

 30 33  0  0  0  0  0  0  0  0999 V2000
   37.3240   30.9670   36.7600 C   0  0  0  0  0  0  0  0  0  0  0  0
   37.4420   30.9580   38.1440 C   0  0  0  0  0  0  0  0  0  0  0  0
   36.9410   29.9280   38.9150 C   0  0  0  0  0  0  0  0  0  0  0  0
   36.2920   28.8520   38.3170 C   0  0  0  0  0  0  0  0  0  0  0  0
   35.6980   27.7060   38.7720 N   0  0  0  0  0  0  0  0  0  0  0  0
   35.2260   27.0290   37.6760 C   0  0  0  0  0  0  0  0  0  0  0  0
   35.5400   27.7740   36.5750 N   0  0  0  0  0  0  0  0  0  0  0  0
   36.1930   28.8930   36.9400 C   0  0  0  0  0  0  0  0  0  0  0  0
   36.6780   29.8960   36.1480 C   0  0  0  0  0  0  0  0  0  0  0  0
   37.7350   31.8010   36.2050 H   0  0  0  0  0  0  0  0  0  0  0  0
   35.6460   27.4510   39.7880 H   0  0  0  0  0  0  0  0  0  0  0  0
   34.7120   26.0860   37.7770 H   0  0  0  0  0  0  0  0  0  0  0  0
   36.5960   29.9200   35.0850 H   0  0  0  0  0  0  0  0  0  0  0  0
   38.0160   34.1100   39.9300 C   0  0  0  0  0  0  0  0  0  0  0  0
   39.4180   34.1230   40.0740 C   0  0  0  0  0  0  0  0  0  0  0  0
   40.1510   33.0470   39.5550 C   0  0  0  0  0  0  0  0  0  0  0  0
   39.4460   32.0490   38.9400 N   0  0  0  0  0  0  0  0  0  0  0  0
   38.1080   32.0610   38.8160 C   0  0  0  0  0  0  0  0  0  0  0  0
   37.3800   33.0870   39.3060 N   0  0  0  0  0  0  0  0  0  0  0  0
   37.4450   34.9450   40.3310 H   0  0  0  0  0  0  0  0  0  0  0  0
   39.8790   34.9730   40.5840 H   0  0  0  0  0  0  0  0  0  0  0  0
   41.2090   33.0450   39.6580 H   0  0  0  0  0  0  0  0  0  0  0  0
   37.0260   29.8500   40.3720 C   0  0  0  0  0  0  0  0  0  0  0  0
   38.1420   29.1840   40.8940 C   0  0  0  0  0  0  0  0  0  0  0  0
   38.9970   28.6920   40.4120 H   0  0  0  0  0  0  0  0  0  0  0  0
   38.0890   29.1870   42.2820 C   0  0  0  0  0  0  0  0  0  0  0  0
   38.7610   28.7770   43.0190 H   0  0  0  0  0  0  0  0  0  0  0  0
   36.9490   29.8500   42.5550 N   0  0  0  0  0  0  0  0  0  0  0  0
   36.5580   30.0610   43.5080 H   0  0  0  0  0  0  0  0  0  0  0  0
   36.3490   30.2250   41.4470 N   0  0  0  0  0  0  0  0  0  0  0  0
  1  2  1  0  0  0  0
  2 18  1  0  0  0  0
  2  3  2  0  0  0  0
  3 23  1  0  0  0  0
  4  5  1  0  0  0  0
  4  3  1  0  0  0  0
  5 11  1  0  0  0  0
  6 12  1  0  0  0  0
  6  5  1  0  0  0  0
  7  8  1  0  0  0  0
  7  6  2  0  0  0  0
  8  4  2  0  0  0  0
  9  1  2  0  0  0  0
  9  8  1  0  0  0  0
 10  1  1  0  0  0  0
 13  9  1  0  0  0  0
 14 15  1  0  0  0  0
 14 20  1  0  0  0  0
 15 21  1  0  0  0  0
 16 22  1  0  0  0  0
 16 15  2  0  0  0  0
 17 16  1  0  0  0  0
 18 17  2  0  0  0  0
 18 19  1  0  0  0  0
 19 14  2  0  0  0  0
 23 24  1  0  0  0  0
 23 30  2  0  0  0  0
 24 26  2  0  0  0  0
 25 24  1  0  0  0  0
 26 28  1  0  0  0  0
 26 27  1  0  0  0  0
 28 29  1  0  0  0  0
 30 28  1  0  0  0  0
M  END
>  <minimizedAffinity>
-4.97612429

$$$$

 OpenBabel03252509123D

 30 33  0  0  0  0  0  0  0  0999 V2000
   41.1220   29.7330   42.8370 C   0  0  0  0  0  0  0  0  0  0  0  0
   39.8870   29.8610   42.2140 C   0  0  0  0  0  0  0  0  0  0  0  0
   39.5850   30.9330   41.3980 C   0  0  0  0  0  0  0  0  0  0  0  0
   40.5250   31.9330   41.1740 C   0  0  0  0  0  0  0  0  0  0  0  0
   40.5500   33.0930   40.4460 N   0  0  0  0  0  0  0  0  0  0  0  0
   41.7860   33.6600   40.6270 C   0  0  0  0  0  0  0  0  0  0  0  0
   42.4900   32.8380   41.4600 N   0  0  0  0  0  0  0  0  0  0  0  0
   41.7420   31.7750   41.8070 C   0  0  0  0  0  0  0  0  0  0  0  0
   42.0730   30.7260   42.6200 C   0  0  0  0  0  0  0  0  0  0  0  0
   41.3040   28.8710   43.4670 H   0  0  0  0  0  0  0  0  0  0  0  0
   39.7370   33.4300   39.8760 H   0  0  0  0  0  0  0  0  0  0  0  0
   42.0520   34.5910   40.1510 H   0  0  0  0  0  0  0  0  0  0  0  0
   43.0150   30.6130   43.1060 H   0  0  0  0  0  0  0  0  0  0  0  0
   37.0700   27.9920   43.6400 C   0  0  0  0  0  0  0  0  0  0  0  0
   36.9670   26.8900   42.7670 C   0  0  0  0  0  0  0  0  0  0  0  0
   37.8670   26.8020   41.6980 C   0  0  0  0  0  0  0  0  0  0  0  0
   38.7920   27.8030   41.5740 N   0  0  0  0  0  0  0  0  0  0  0  0
   38.8690   28.8440   42.4210 C   0  0  0  0  0  0  0  0  0  0  0  0
   38.0140   28.9510   43.4600 N   0  0  0  0  0  0  0  0  0  0  0  0
   36.3720   28.0630   44.4720 H   0  0  0  0  0  0  0  0  0  0  0  0
   36.1880   26.1480   42.9600 H   0  0  0  0  0  0  0  0  0  0  0  0
   37.8000   25.9760   41.0320 H   0  0  0  0  0  0  0  0  0  0  0  0
   38.3100   31.1350   40.7130 C   0  0  0  0  0  0  0  0  0  0  0  0
   38.2460   30.7030   39.3810 C   0  0  0  0  0  0  0  0  0  0  0  0
   38.9870   30.2260   38.7270 H   0  0  0  0  0  0  0  0  0  0  0  0
   36.9840   30.9590   38.8610 C   0  0  0  0  0  0  0  0  0  0  0  0
   36.5680   30.7690   37.8850 H   0  0  0  0  0  0  0  0  0  0  0  0
   36.3280   31.5350   39.8860 N   0  0  0  0  0  0  0  0  0  0  0  0
   35.3330   31.8750   39.8840 H   0  0  0  0  0  0  0  0  0  0  0  0
   37.1030   31.6290   40.9440 N   0  0  0  0  0  0  0  0  0  0  0  0
  1 10  1  0  0  0  0
  2 18  1  0  0  0  0
  2  1  2  0  0  0  0
  3  2  1  0  0  0  0
  4  3  2  0  0  0  0
  4  8  1  0  0  0  0
  5  6  1  0  0  0  0
  5  4  1  0  0  0  0
  6  7  2  0  0  0  0
  7  8  1  0  0  0  0
  8  9  2  0  0  0  0
  9  1  1  0  0  0  0
  9 13  1  0  0  0  0
 11  5  1  0  0  0  0
 12  6  1  0  0  0  0
 14 20  1  0  0  0  0
 15 21  1  0  0  0  0
 15 14  2  0  0  0  0
 16 15  1  0  0  0  0
 17 16  2  0  0  0  0
 17 18  1  0  0  0  0
 18 19  2  0  0  0  0
 19 14  1  0  0  0  0
 22 16  1  0  0  0  0
 23 30  2  0  0  0  0
 23  3  1  0  0  0  0
 24 23  1  0  0  0  0
 25 24  1  0  0  0  0
 26 24  2  0  0  0  0
 26 28  1  0  0  0  0
 27 26  1  0  0  0  0
 28 30  1  0  0  0  0
 29 28  1  0  0  0  0
M  END
>  <minimizedAffinity>
-4.93721867

$$$$

 OpenBabel03252509123D

 30 33  0  0  0  0  0  0  0  0999 V2000
   37.7220   29.4280   42.7160 C   0  0  0  0  0  0  0  0  0  0  0  0
   37.9510   29.6980   41.3720 C   0  0  0  0  0  0  0  0  0  0  0  0
   37.8810   28.7150   40.4040 C   0  0  0  0  0  0  0  0  0  0  0  0
   37.5750   27.4040   40.7540 C   0  0  0  0  0  0  0  0  0  0  0  0
   37.4310   26.2280   40.0680 N   0  0  0  0  0  0  0  0  0  0  0  0
   37.1180   25.2570   40.9850 C   0  0  0  0  0  0  0  0  0  0  0  0
   37.0780   25.8580   42.2110 N   0  0  0  0  0  0  0  0  0  0  0  0
   37.3530   27.1700   42.0970 C   0  0  0  0  0  0  0  0  0  0  0  0
   37.4140   28.1200   43.0790 C   0  0  0  0  0  0  0  0  0  0  0  0
   37.7910   30.2370   43.4320 H   0  0  0  0  0  0  0  0  0  0  0  0
   37.5510   26.1510   39.0290 H   0  0  0  0  0  0  0  0  0  0  0  0
   36.9540   24.2340   40.6860 H   0  0  0  0  0  0  0  0  0  0  0  0
   37.2420   27.9300   44.1140 H   0  0  0  0  0  0  0  0  0  0  0  0
   37.6230   33.1340   40.1300 C   0  0  0  0  0  0  0  0  0  0  0  0
   38.9520   33.6010   40.1820 C   0  0  0  0  0  0  0  0  0  0  0  0
   39.9460   32.7290   40.6440 C   0  0  0  0  0  0  0  0  0  0  0  0
   39.5530   31.4730   41.0170 N   0  0  0  0  0  0  0  0  0  0  0  0
   38.2780   31.0520   40.9570 C   0  0  0  0  0  0  0  0  0  0  0  0
   37.3020   31.8730   40.5150 N   0  0  0  0  0  0  0  0  0  0  0  0
   36.8490   33.8090   39.7710 H   0  0  0  0  0  0  0  0  0  0  0  0
   39.1540   34.6260   39.8590 H   0  0  0  0  0  0  0  0  0  0  0  0
   40.9520   33.0690   40.6880 H   0  0  0  0  0  0  0  0  0  0  0  0
   38.1100   28.9240   38.9760 C   0  0  0  0  0  0  0  0  0  0  0  0
   36.9720   29.1610   38.1930 C   0  0  0  0  0  0  0  0  0  0  0  0
   35.9060   29.2240   38.4460 H   0  0  0  0  0  0  0  0  0  0  0  0
   37.3400   29.3380   36.8660 C   0  0  0  0  0  0  0  0  0  0  0  0
   36.7480   29.5370   35.9870 H   0  0  0  0  0  0  0  0  0  0  0  0
   38.6790   29.2030   36.8860 N   0  0  0  0  0  0  0  0  0  0  0  0
   39.3300   29.2720   36.0630 H   0  0  0  0  0  0  0  0  0  0  0  0
   39.1080   28.9660   38.1060 N   0  0  0  0  0  0  0  0  0  0  0  0
  1  9  1  0  0  0  0
  1 10  1  0  0  0  0
  2  1  2  0  0  0  0
  3  4  2  0  0  0  0
  3  2  1  0  0  0  0
  4  8  1  0  0  0  0
  5  4  1  0  0  0  0
  5  6  1  0  0  0  0
  6  7  2  0  0  0  0
  8  7  1  0  0  0  0
  8  9  2  0  0  0  0
  9 13  1  0  0  0  0
 11  5  1  0  0  0  0
 12  6  1  0  0  0  0
 14 15  2  0  0  0  0
 14 19  1  0  0  0  0
 15 16  1  0  0  0  0
 16 22  1  0  0  0  0
 16 17  2  0  0  0  0
 18 17  1  0  0  0  0
 18  2  1  0  0  0  0
 19 18  2  0  0  0  0
 20 14  1  0  0  0  0
 21 15  1  0  0  0  0
 23  3  1  0  0  0  0
 24 25  1  0  0  0  0
 24 23  1  0  0  0  0
 26 28  1  0  0  0  0
 26 24  2  0  0  0  0
 27 26  1  0  0  0  0
 28 30  1  0  0  0  0
 29 28  1  0  0  0  0
 30 23  2  0  0  0  0
M  END
>  <minimizedAffinity>
-4.87909365

$$$$

 OpenBabel03252509123D

 30 33  0  0  0  0  0  0  0  0999 V2000
   35.8130   28.9210   40.5410 C   0  0  0  0  0  0  0  0  0  0  0  0
   37.0010   28.3010   40.9070 C   0  0  0  0  0  0  0  0  0  0  0  0
   38.1730   29.0090   41.0860 C   0  0  0  0  0  0  0  0  0  0  0  0
   38.1970   30.3870   40.9000 C   0  0  0  0  0  0  0  0  0  0  0  0
   39.1570   31.3590   40.9910 N   0  0  0  0  0  0  0  0  0  0  0  0
   38.5570   32.5540   40.6830 C   0  0  0  0  0  0  0  0  0  0  0  0
   37.2460   32.2890   40.4110 N   0  0  0  0  0  0  0  0  0  0  0  0
   37.0000   30.9720   40.5370 C   0  0  0  0  0  0  0  0  0  0  0  0
   35.8230   30.3000   40.3530 C   0  0  0  0  0  0  0  0  0  0  0  0
   34.9240   28.3160   40.4140 H   0  0  0  0  0  0  0  0  0  0  0  0
   40.1530   31.1600   41.2530 H   0  0  0  0  0  0  0  0  0  0  0  0
   39.1130   33.4790   40.6860 H   0  0  0  0  0  0  0  0  0  0  0  0
   34.9030   30.7600   40.0710 H   0  0  0  0  0  0  0  0  0  0  0  0
   36.9650   25.0120   42.5320 C   0  0  0  0  0  0  0  0  0  0  0  0
   37.0860   24.1340   41.4360 C   0  0  0  0  0  0  0  0  0  0  0  0
   37.1780   24.6820   40.1500 C   0  0  0  0  0  0  0  0  0  0  0  0
   37.1430   26.0460   40.0480 N   0  0  0  0  0  0  0  0  0  0  0  0
   37.0270   26.8620   41.1100 C   0  0  0  0  0  0  0  0  0  0  0  0
   36.9380   26.3580   42.3590 N   0  0  0  0  0  0  0  0  0  0  0  0
   36.8940   24.5880   43.5310 H   0  0  0  0  0  0  0  0  0  0  0  0
   37.1030   23.0580   41.6340 H   0  0  0  0  0  0  0  0  0  0  0  0
   37.2680   24.0300   39.3150 H   0  0  0  0  0  0  0  0  0  0  0  0
   39.4570   28.4260   41.4690 C   0  0  0  0  0  0  0  0  0  0  0  0
   39.7650   28.4460   42.8360 C   0  0  0  0  0  0  0  0  0  0  0  0
   39.2150   28.8230   43.7080 H   0  0  0  0  0  0  0  0  0  0  0  0
   41.0080   27.8640   43.0490 C   0  0  0  0  0  0  0  0  0  0  0  0
   41.5690   27.7020   43.9550 H   0  0  0  0  0  0  0  0  0  0  0  0
   41.4110   27.5140   41.8130 N   0  0  0  0  0  0  0  0  0  0  0  0
   42.3150   27.0400   41.5570 H   0  0  0  0  0  0  0  0  0  0  0  0
   40.5100   27.8430   40.9150 N   0  0  0  0  0  0  0  0  0  0  0  0
  1  2  1  0  0  0  0
  2  3  2  0  0  0  0
  2 18  1  0  0  0  0
  3 23  1  0  0  0  0
  4  5  1  0  0  0  0
  4  3  1  0  0  0  0
  5 11  1  0  0  0  0
  6 12  1  0  0  0  0
  6  5  1  0  0  0  0
  7  8  1  0  0  0  0
  7  6  2  0  0  0  0
  8  4  2  0  0  0  0
  9  8  1  0  0  0  0
  9  1  2  0  0  0  0
 10  1  1  0  0  0  0
 13  9  1  0  0  0  0
 14 20  1  0  0  0  0
 15 21  1  0  0  0  0
 15 14  2  0  0  0  0
 16 15  1  0  0  0  0
 17 16  2  0  0  0  0
 17 18  1  0  0  0  0
 18 19  2  0  0  0  0
 19 14  1  0  0  0  0
 22 16  1  0  0  0  0
 23 24  1  0  0  0  0
 24 26  2  0  0  0  0
 24 25  1  0  0  0  0
 26 27  1  0  0  0  0
 28 26  1  0  0  0  0
 29 28  1  0  0  0  0
 30 23  2  0  0  0  0
 30 28  1  0  0  0  0
M  END
>  <minimizedAffinity>
-4.86658812

$$$$

 OpenBabel03252509123D

 30 33  0  0  0  0  0  0  0  0999 V2000
   40.2520   28.9550   38.5350 C   0  0  0  0  0  0  0  0  0  0  0  0
   39.3320   29.8920   38.9890 C   0  0  0  0  0  0  0  0  0  0  0  0
   39.4660   31.2400   38.7210 C   0  0  0  0  0  0  0  0  0  0  0  0
   40.5450   31.7060   37.9780 C   0  0  0  0  0  0  0  0  0  0  0  0
   40.9650   32.9360   37.5470 N   0  0  0  0  0  0  0  0  0  0  0  0
   42.1260   32.7450   36.8410 C   0  0  0  0  0  0  0  0  0  0  0  0
   42.3920   31.4060   36.8540 N   0  0  0  0  0  0  0  0  0  0  0  0
   41.4400   30.7480   37.5420 C   0  0  0  0  0  0  0  0  0  0  0  0
   41.3360   29.4070   37.7890 C   0  0  0  0  0  0  0  0  0  0  0  0
   40.0970   27.9100   38.7760 H   0  0  0  0  0  0  0  0  0  0  0  0
   40.4480   33.8240   37.7540 H   0  0  0  0  0  0  0  0  0  0  0  0
   42.6550   33.5730   36.3960 H   0  0  0  0  0  0  0  0  0  0  0  0
   42.0330   28.6750   37.4490 H   0  0  0  0  0  0  0  0  0  0  0  0
   37.1490   29.1360   41.8390 C   0  0  0  0  0  0  0  0  0  0  0  0
   36.0020   28.6120   41.2080 C   0  0  0  0  0  0  0  0  0  0  0  0
   35.9920   28.5250   39.8100 C   0  0  0  0  0  0  0  0  0  0  0  0
   37.1070   28.9590   39.1480 N   0  0  0  0  0  0  0  0  0  0  0  0
   38.1890   29.4550   39.7740 C   0  0  0  0  0  0  0  0  0  0  0  0
   38.2230   29.5490   41.1200 N   0  0  0  0  0  0  0  0  0  0  0  0
   37.1590   29.2040   42.9240 H   0  0  0  0  0  0  0  0  0  0  0  0
   35.1660   28.2940   41.8370 H   0  0  0  0  0  0  0  0  0  0  0  0
   35.1330   28.1320   39.3230 H   0  0  0  0  0  0  0  0  0  0  0  0
   38.5420   32.2810   39.1650 C   0  0  0  0  0  0  0  0  0  0  0  0
   39.0200   33.1590   40.1470 C   0  0  0  0  0  0  0  0  0  0  0  0
   39.9850   33.2240   40.6680 H   0  0  0  0  0  0  0  0  0  0  0  0
   38.0400   34.0880   40.4710 C   0  0  0  0  0  0  0  0  0  0  0  0
   38.0420   34.9060   41.1720 H   0  0  0  0  0  0  0  0  0  0  0  0
   37.0050   33.7450   39.6800 N   0  0  0  0  0  0  0  0  0  0  0  0
   36.0670   34.2180   39.6330 H   0  0  0  0  0  0  0  0  0  0  0  0
   37.3080   32.7050   38.9350 N   0  0  0  0  0  0  0  0  0  0  0  0
  1 10  1  0  0  0  0
  1  2  1  0  0  0  0
  2 18  1  0  0  0  0
  3  2  2  0  0  0  0
  3 23  1  0  0  0  0
  4  3  1  0  0  0  0
  5 11  1  0  0  0  0
  5  4  1  0  0  0  0
  6  7  2  0  0  0  0
  6  5  1  0  0  0  0
  7  8  1  0  0  0  0
  8  9  1  0  0  0  0
  8  4  2  0  0  0  0
  9  1  2  0  0  0  0
 12  6  1  0  0  0  0
 13  9  1  0  0  0  0
 14 20  1  0  0  0  0
 15 21  1  0  0  0  0
 15 14  1  0  0  0  0
 16 15  2  0  0  0  0
 17 18  2  0  0  0  0
 17 16  1  0  0  0  0
 18 19  1  0  0  0  0
 19 14  2  0  0  0  0
 22 16  1  0  0  0  0
 23 24  1  0  0  0  0
 24 26  2  0  0  0  0
 24 25  1  0  0  0  0
 26 27  1  0  0  0  0
 28 26  1  0  0  0  0
 29 28  1  0  0  0  0
 30 23  2  0  0  0  0
 30 28  1  0  0  0  0
M  END
>  <minimizedAffinity>
-4.77939749

$$$$
