
 OpenBabel03252509283D

 20 21  0  0  0  0  0  0  0  0999 V2000
   47.0680   34.9060   41.9600 C   0  0  0  0  0  0  0  0  0  0  0  0
   47.9860   34.2870   42.1790 H   0  0  0  0  0  0  0  0  0  0  0  0
   47.4610   35.9100   41.7050 H   0  0  0  0  0  0  0  0  0  0  0  0
   44.5990   36.0210   44.5180 C   0  0  0  0  0  0  0  0  0  0  0  0
   45.3770   36.0130   43.3410 C   0  0  0  0  0  0  0  0  0  0  0  0
   46.2540   34.9290   43.1780 C   0  0  0  0  0  0  0  0  0  0  0  0
   46.3010   33.9680   44.1460 N   0  0  0  0  0  0  0  0  0  0  0  0
   45.5350   34.0230   45.2560 C   0  0  0  0  0  0  0  0  0  0  0  0
   44.6820   35.0620   45.4320 N   0  0  0  0  0  0  0  0  0  0  0  0
   43.9410   36.8840   44.5870 H   0  0  0  0  0  0  0  0  0  0  0  0
   45.3030   36.7970   42.6030 H   0  0  0  0  0  0  0  0  0  0  0  0
   45.6570   33.2060   45.9550 H   0  0  0  0  0  0  0  0  0  0  0  0
   46.4210   34.2540   40.8020 C   0  0  0  0  0  0  0  0  0  0  0  0
   45.0470   34.0460   40.8320 C   0  0  0  0  0  0  0  0  0  0  0  0
   44.3070   34.2920   41.6040 H   0  0  0  0  0  0  0  0  0  0  0  0
   44.6240   33.4280   39.6680 C   0  0  0  0  0  0  0  0  0  0  0  0
   43.6540   33.1180   39.3420 H   0  0  0  0  0  0  0  0  0  0  0  0
   45.7780   33.2790   38.9600 N   0  0  0  0  0  0  0  0  0  0  0  0
   45.9260   32.8540   38.0100 H   0  0  0  0  0  0  0  0  0  0  0  0
   46.8390   33.7650   39.6250 N   0  0  0  0  0  0  0  0  0  0  0  0
  1  2  1  0  0  0  0
  1  6  1  0  0  0  0
  3  1  1  0  0  0  0
  4 10  1  0  0  0  0
  4  9  1  0  0  0  0
  5  4  2  0  0  0  0
  6  5  1  0  0  0  0
  6  7  2  0  0  0  0
  7  8  1  0  0  0  0
  8  9  2  0  0  0  0
  8 12  1  0  0  0  0
 11  5  1  0  0  0  0
 13 14  1  0  0  0  0
 13  1  1  0  0  0  0
 14 15  1  0  0  0  0
 16 14  2  0  0  0  0
 17 16  1  0  0  0  0
 18 20  1  0  0  0  0
 18 16  1  0  0  0  0
 19 18  1  0  0  0  0
 20 13  2  0  0  0  0
M  END
>  <minimizedAffinity>
-3.87537956

>  <minimizedRMSD>
0.349994451

$$$$
