
 OpenBabel03252509293D

 20 21  0  0  0  0  0  0  0  0999 V2000
   47.0410   34.9130   42.1000 C   0  0  0  0  0  0  0  0  0  0  0  0
   47.9580   34.2810   42.2900 H   0  0  0  0  0  0  0  0  0  0  0  0
   47.4390   35.9230   41.8770 H   0  0  0  0  0  0  0  0  0  0  0  0
   44.5380   35.9100   44.6730 C   0  0  0  0  0  0  0  0  0  0  0  0
   45.3060   35.9370   43.4900 C   0  0  0  0  0  0  0  0  0  0  0  0
   46.2360   34.8980   43.3240 C   0  0  0  0  0  0  0  0  0  0  0  0
   46.3400   33.9450   44.2950 N   0  0  0  0  0  0  0  0  0  0  0  0
   45.5810   33.9650   45.4100 C   0  0  0  0  0  0  0  0  0  0  0  0
   44.6760   34.9590   45.5890 N   0  0  0  0  0  0  0  0  0  0  0  0
   43.8370   36.7370   44.7440 H   0  0  0  0  0  0  0  0  0  0  0  0
   45.1870   36.7130   42.7500 H   0  0  0  0  0  0  0  0  0  0  0  0
   45.7490   33.1570   46.1110 H   0  0  0  0  0  0  0  0  0  0  0  0
   46.3820   34.3050   40.9250 C   0  0  0  0  0  0  0  0  0  0  0  0
   47.1740   33.7620   39.9190 C   0  0  0  0  0  0  0  0  0  0  0  0
   48.2650   33.6980   39.8310 H   0  0  0  0  0  0  0  0  0  0  0  0
   46.3850   33.2430   38.9080 C   0  0  0  0  0  0  0  0  0  0  0  0
   46.6390   32.7560   37.9900 H   0  0  0  0  0  0  0  0  0  0  0  0
   45.1190   33.4930   39.3440 N   0  0  0  0  0  0  0  0  0  0  0  0
   44.2000   33.2670   38.8850 H   0  0  0  0  0  0  0  0  0  0  0  0
   45.1130   34.1190   40.5310 N   0  0  0  0  0  0  0  0  0  0  0  0
  1  2  1  0  0  0  0
  1  6  1  0  0  0  0
  3  1  1  0  0  0  0
  4 10  1  0  0  0  0
  4  9  1  0  0  0  0
  5  4  2  0  0  0  0
  6  5  1  0  0  0  0
  6  7  2  0  0  0  0
  7  8  1  0  0  0  0
  8  9  2  0  0  0  0
  8 12  1  0  0  0  0
 11  5  1  0  0  0  0
 13  1  1  0  0  0  0
 14 13  1  0  0  0  0
 15 14  1  0  0  0  0
 16 18  1  0  0  0  0
 16 14  2  0  0  0  0
 17 16  1  0  0  0  0
 18 20  1  0  0  0  0
 19 18  1  0  0  0  0
 20 13  2  0  0  0  0
M  END
>  <minimizedAffinity>
-3.93298745

>  <minimizedRMSD>
0.79770112

$$$$
