
 OpenBabel03252508313D

 31 33  0  0  1  0  0  0  0  0999 V2000
   45.8370   34.0000   41.8260 N   0  0  0  0  0  0  0  0  0  0  0  0
   47.0950   33.3430   41.6340 C   0  0  1  0  0  0  0  0  0  0  0  0
   47.3750   32.9190   40.2390 C   0  0  0  0  0  0  0  0  0  0  0  0
   46.2820   32.3900   39.5420 N   0  0  0  0  0  0  0  0  0  0  0  0
   45.0260   32.9700   39.7590 C   0  0  0  0  0  0  0  0  0  0  0  0
   45.0980   34.2060   40.6200 C   0  0  0  0  0  0  0  0  0  0  0  0
   47.1000   32.4410   42.2860 H   0  0  0  0  0  0  0  0  0  0  0  0
   47.8810   33.7820   39.7180 H   0  0  0  0  0  0  0  0  0  0  0  0
   48.2000   32.1500   40.2850 H   0  0  0  0  0  0  0  0  0  0  0  0
   46.4490   31.7970   38.7420 H   0  0  0  0  0  0  0  0  0  0  0  0
   44.3670   32.2320   40.3020 H   0  0  0  0  0  0  0  0  0  0  0  0
   44.4480   33.2340   38.8480 H   0  0  0  0  0  0  0  0  0  0  0  0
   45.6760   34.9520   40.0040 H   0  0  0  0  0  0  0  0  0  0  0  0
   44.0970   34.6100   40.7010 H   0  0  0  0  0  0  0  0  0  0  0  0
   44.9020   35.6350   43.2710 C   0  0  0  0  0  0  0  0  0  0  0  0
   45.4620   34.3720   43.1260 C   0  0  0  0  0  0  0  0  0  0  0  0
   45.6080   33.5970   44.2740 C   0  0  0  0  0  0  0  0  0  0  0  0
   45.2160   34.0680   45.4860 N   0  0  0  0  0  0  0  0  0  0  0  0
   44.6690   35.3170   45.5910 C   0  0  0  0  0  0  0  0  0  0  0  0
   44.5220   36.0670   44.5030 N   0  0  0  0  0  0  0  0  0  0  0  0
   44.7060   36.3750   42.5260 H   0  0  0  0  0  0  0  0  0  0  0  0
   46.0360   32.6270   44.1620 H   0  0  0  0  0  0  0  0  0  0  0  0
   44.3790   35.6300   46.5840 H   0  0  0  0  0  0  0  0  0  0  0  0
   48.2460   34.1860   42.0670 C   0  0  0  0  0  0  0  0  0  0  0  0
   48.4290   35.3290   41.3020 C   0  0  0  0  0  0  0  0  0  0  0  0
   47.9450   35.7880   40.4530 H   0  0  0  0  0  0  0  0  0  0  0  0
   49.5340   35.9990   41.8240 C   0  0  0  0  0  0  0  0  0  0  0  0
   50.0860   36.9060   41.6120 H   0  0  0  0  0  0  0  0  0  0  0  0
   49.9610   35.2480   42.8570 N   0  0  0  0  0  0  0  0  0  0  0  0
   50.7470   35.3090   43.5700 H   0  0  0  0  0  0  0  0  0  0  0  0
   49.2090   34.1830   43.0040 N   0  0  0  0  0  0  0  0  0  0  0  0
  1 16  1  0  0  0  0
  2  1  1  0  0  0  0
  2 24  1  0  0  0  0
  2  7  1  1  0  0  0
  3  9  1  0  0  0  0
  3  2  1  0  0  0  0
  4  5  1  0  0  0  0
  4  3  1  0  0  0  0
  5 11  1  0  0  0  0
  5  6  1  0  0  0  0
  6 14  1  0  0  0  0
  6  1  1  0  0  0  0
  8  3  1  0  0  0  0
 10  4  1  0  0  0  0
 12  5  1  0  0  0  0
 13  6  1  0  0  0  0
 15 20  1  0  0  0  0
 16 15  2  0  0  0  0
 16 17  1  0  0  0  0
 17 18  2  0  0  0  0
 18 19  1  0  0  0  0
 19 23  1  0  0  0  0
 20 19  2  0  0  0  0
 21 15  1  0  0  0  0
 22 17  1  0  0  0  0
 24 31  2  0  0  0  0
 25 27  2  0  0  0  0
 25 24  1  0  0  0  0
 26 25  1  0  0  0  0
 27 29  1  0  0  0  0
 28 27  1  0  0  0  0
 29 31  1  0  0  0  0
 29 30  1  0  0  0  0
M  END
>  <minimizedAffinity>
-5.18941355

>  <minimizedRMSD>
2.77048254

$$$$
