
 OpenBabel03252509283D

 20 21  0  0  0  0  0  0  0  0999 V2000
   46.8120   35.0040   41.9430 C   0  0  0  0  0  0  0  0  0  0  0  0
   47.9060   34.8120   42.1490 H   0  0  0  0  0  0  0  0  0  0  0  0
   46.7850   36.0170   41.4950 H   0  0  0  0  0  0  0  0  0  0  0  0
   44.5310   35.9250   44.7410 C   0  0  0  0  0  0  0  0  0  0  0  0
   45.2010   35.9880   43.5010 C   0  0  0  0  0  0  0  0  0  0  0  0
   46.1080   34.9520   43.2270 C   0  0  0  0  0  0  0  0  0  0  0  0
   46.2840   33.9670   44.1550 N   0  0  0  0  0  0  0  0  0  0  0  0
   45.6170   33.9530   45.3280 C   0  0  0  0  0  0  0  0  0  0  0  0
   44.7360   34.9450   45.6120 N   0  0  0  0  0  0  0  0  0  0  0  0
   43.8430   36.7530   44.8950 H   0  0  0  0  0  0  0  0  0  0  0  0
   45.0280   36.7890   42.7990 H   0  0  0  0  0  0  0  0  0  0  0  0
   45.8370   33.1230   45.9860 H   0  0  0  0  0  0  0  0  0  0  0  0
   46.4060   33.9610   40.9790 C   0  0  0  0  0  0  0  0  0  0  0  0
   45.1010   33.9650   40.4970 C   0  0  0  0  0  0  0  0  0  0  0  0
   44.2660   34.6420   40.7150 H   0  0  0  0  0  0  0  0  0  0  0  0
   44.9070   32.9210   39.6100 C   0  0  0  0  0  0  0  0  0  0  0  0
   44.0490   32.6150   39.0530 H   0  0  0  0  0  0  0  0  0  0  0  0
   46.1250   32.3070   39.5830 N   0  0  0  0  0  0  0  0  0  0  0  0
   46.4330   31.4630   39.0380 H   0  0  0  0  0  0  0  0  0  0  0  0
   47.0100   32.9180   40.3880 N   0  0  0  0  0  0  0  0  0  0  0  0
  1  2  1  0  0  0  0
  1  6  1  0  0  0  0
  3  1  1  0  0  0  0
  4 10  1  0  0  0  0
  4  9  1  0  0  0  0
  5  4  2  0  0  0  0
  6  5  1  0  0  0  0
  6  7  2  0  0  0  0
  7  8  1  0  0  0  0
  8  9  2  0  0  0  0
  8 12  1  0  0  0  0
 11  5  1  0  0  0  0
 13  1  1  0  0  0  0
 14 15  1  0  0  0  0
 14 13  1  0  0  0  0
 16 14  2  0  0  0  0
 17 16  1  0  0  0  0
 18 16  1  0  0  0  0
 18 20  1  0  0  0  0
 19 18  1  0  0  0  0
 20 13  2  0  0  0  0
M  END
>  <minimizedAffinity>
-3.56091166

>  <minimizedRMSD>
0.434403241

$$$$
