
 OpenBabel03252502453D

 30 32  0  0  1  0  0  0  0  0999 V2000
   38.1670   29.2690   43.3040 C   0  0  0  0  0  0  0  0  0  0  0  0
   38.5350   29.6570   44.2800 H   0  0  0  0  0  0  0  0  0  0  0  0
   37.1470   29.7530   43.2080 H   0  0  0  0  0  0  0  0  0  0  0  0
   37.8910   27.7990   43.3620 C   0  0  1  0  0  0  0  0  0  0  0  0
   36.4990   27.4120   43.6800 C   0  0  0  0  0  0  0  0  0  0  0  0
   37.1840   27.1420   42.3350 C   0  0  2  0  0  0  0  0  0  0  0  0
   38.6370   27.2720   43.9600 H   0  0  0  0  0  0  0  0  0  0  0  0
   36.2870   26.5040   44.2620 H   0  0  0  0  0  0  0  0  0  0  0  0
   35.7680   28.2040   43.7960 H   0  0  0  0  0  0  0  0  0  0  0  0
   36.4460   27.3520   41.5890 H   0  0  0  0  0  0  0  0  0  0  0  0
   37.6080   25.7070   42.0820 C   0  0  0  0  0  0  0  0  0  0  0  0
   36.9430   24.8060   41.2380 C   0  0  0  0  0  0  0  0  0  0  0  0
   36.0420   24.9680   40.6340 H   0  0  0  0  0  0  0  0  0  0  0  0
   37.5720   23.5870   41.2240 C   0  0  0  0  0  0  0  0  0  0  0  0
   37.3320   22.6800   40.6900 H   0  0  0  0  0  0  0  0  0  0  0  0
   38.6010   23.7810   42.0600 N   0  0  0  0  0  0  0  0  0  0  0  0
   39.3530   23.1190   42.3560 H   0  0  0  0  0  0  0  0  0  0  0  0
   38.6610   24.9900   42.5790 N   0  0  0  0  0  0  0  0  0  0  0  0
   39.0360   29.5050   42.1580 C   0  0  0  0  0  0  0  0  0  0  0  0
   39.2720   28.8200   41.3960 H   0  0  0  0  0  0  0  0  0  0  0  0
   40.0510   29.7870   42.6030 H   0  0  0  0  0  0  0  0  0  0  0  0
   36.9620   31.8980   40.1340 C   0  0  0  0  0  0  0  0  0  0  0  0
   37.4170   30.7350   40.8310 C   0  0  0  0  0  0  0  0  0  0  0  0
   38.6440   30.7450   41.4510 C   0  0  0  0  0  0  0  0  0  0  0  0
   39.3720   31.8940   41.3610 N   0  0  0  0  0  0  0  0  0  0  0  0
   38.9350   32.9670   40.7080 C   0  0  0  0  0  0  0  0  0  0  0  0
   37.7470   32.9910   40.0960 N   0  0  0  0  0  0  0  0  0  0  0  0
   36.0130   31.9750   39.6210 H   0  0  0  0  0  0  0  0  0  0  0  0
   36.6670   29.9690   40.7640 H   0  0  0  0  0  0  0  0  0  0  0  0
   39.6260   33.8130   40.7220 H   0  0  0  0  0  0  0  0  0  0  0  0
  1  4  1  0  0  0  0
  1  2  1  0  0  0  0
  3  1  1  0  0  0  0
  4  5  1  0  0  0  0
  4  7  1  1  0  0  0
  5  9  1  0  0  0  0
  5  8  1  0  0  0  0
  6 10  1  6  0  0  0
  6  4  1  0  0  0  0
  6  5  1  0  0  0  0
 11  6  1  0  0  0  0
 11 18  2  0  0  0  0
 12 11  1  0  0  0  0
 13 12  1  0  0  0  0
 14 12  2  0  0  0  0
 14 16  1  0  0  0  0
 15 14  1  0  0  0  0
 16 17  1  0  0  0  0
 16 18  1  0  0  0  0
 19 21  1  0  0  0  0
 19  1  1  0  0  0  0
 20 19  1  0  0  0  0
 22 23  1  0  0  0  0
 23 24  2  0  0  0  0
 24 19  1  0  0  0  0
 25 24  1  0  0  0  0
 26 30  1  0  0  0  0
 26 25  2  0  0  0  0
 27 22  2  0  0  0  0
 27 26  1  0  0  0  0
 28 22  1  0  0  0  0
 29 23  1  0  0  0  0
M  END
>  <minimizedAffinity>
-4.86898994

$$$$

 OpenBabel03252502453D

 30 32  0  0  1  0  0  0  0  0999 V2000
   37.3610   29.4430   42.3720 C   0  0  0  0  0  0  0  0  0  0  0  0
   38.3180   29.9580   42.1340 H   0  0  0  0  0  0  0  0  0  0  0  0
   36.9540   30.0510   43.2370 H   0  0  0  0  0  0  0  0  0  0  0  0
   37.5940   28.0780   42.9400 C   0  0  1  0  0  0  0  0  0  0  0  0
   36.4170   27.4140   43.5400 C   0  0  0  0  0  0  0  0  0  0  0  0
   37.1370   26.9190   42.2810 C   0  0  2  0  0  0  0  0  0  0  0  0
   38.4810   28.0520   43.5760 H   0  0  0  0  0  0  0  0  0  0  0  0
   36.5280   26.7490   44.4080 H   0  0  0  0  0  0  0  0  0  0  0  0
   35.4640   27.9280   43.4850 H   0  0  0  0  0  0  0  0  0  0  0  0
   36.3630   26.6140   41.6070 H   0  0  0  0  0  0  0  0  0  0  0  0
   38.0150   25.6930   42.4580 C   0  0  0  0  0  0  0  0  0  0  0  0
   39.3360   25.7070   42.9260 C   0  0  0  0  0  0  0  0  0  0  0  0
   39.9460   26.5650   43.2370 H   0  0  0  0  0  0  0  0  0  0  0  0
   39.8570   24.4390   42.9700 C   0  0  0  0  0  0  0  0  0  0  0  0
   40.8330   24.0920   43.2760 H   0  0  0  0  0  0  0  0  0  0  0  0
   38.8390   23.6900   42.5270 N   0  0  0  0  0  0  0  0  0  0  0  0
   38.7820   22.6550   42.3930 H   0  0  0  0  0  0  0  0  0  0  0  0
   37.7550   24.3720   42.2190 N   0  0  0  0  0  0  0  0  0  0  0  0
   36.4230   29.3010   41.2660 C   0  0  0  0  0  0  0  0  0  0  0  0
   35.3730   29.2990   41.3280 H   0  0  0  0  0  0  0  0  0  0  0  0
   36.6750   28.2930   40.7860 H   0  0  0  0  0  0  0  0  0  0  0  0
   37.2470   32.5520   39.5710 C   0  0  0  0  0  0  0  0  0  0  0  0
   36.9260   31.5680   40.5570 C   0  0  0  0  0  0  0  0  0  0  0  0
   36.7420   30.2580   40.1830 C   0  0  0  0  0  0  0  0  0  0  0  0
   36.8810   29.9690   38.8580 N   0  0  0  0  0  0  0  0  0  0  0  0
   37.1800   30.8960   37.9520 C   0  0  0  0  0  0  0  0  0  0  0  0
   37.3650   32.1780   38.2830 N   0  0  0  0  0  0  0  0  0  0  0  0
   37.4060   33.6010   39.7780 H   0  0  0  0  0  0  0  0  0  0  0  0
   36.8780   32.0390   41.5210 H   0  0  0  0  0  0  0  0  0  0  0  0
   37.2590   30.5160   36.9310 H   0  0  0  0  0  0  0  0  0  0  0  0
  1  4  1  0  0  0  0
  1  3  1  0  0  0  0
  2  1  1  0  0  0  0
  4  5  1  0  0  0  0
  4  7  1  1  0  0  0
  5  8  1  0  0  0  0
  6 10  1  6  0  0  0
  6 11  1  0  0  0  0
  6  4  1  0  0  0  0
  6  5  1  0  0  0  0
  9  5  1  0  0  0  0
 11 12  1  0  0  0  0
 12 14  2  0  0  0  0
 12 13  1  0  0  0  0
 14 15  1  0  0  0  0
 16 14  1  0  0  0  0
 17 16  1  0  0  0  0
 18 11  2  0  0  0  0
 18 16  1  0  0  0  0
 19 20  1  0  0  0  0
 19  1  1  0  0  0  0
 21 19  1  0  0  0  0
 22 28  1  0  0  0  0
 22 23  1  0  0  0  0
 23 29  1  0  0  0  0
 24 23  2  0  0  0  0
 24 19  1  0  0  0  0
 25 24  1  0  0  0  0
 26 27  1  0  0  0  0
 26 25  2  0  0  0  0
 27 22  2  0  0  0  0
 30 26  1  0  0  0  0
M  END
>  <minimizedAffinity>
-4.84738398

$$$$

 OpenBabel03252502453D

 30 32  0  0  1  0  0  0  0  0999 V2000
   36.4900   30.5900   39.4640 C   0  0  0  0  0  0  0  0  0  0  0  0
   36.8580   29.5810   39.1730 H   0  0  0  0  0  0  0  0  0  0  0  0
   35.5250   30.6860   38.8790 H   0  0  0  0  0  0  0  0  0  0  0  0
   37.3730   31.6750   38.9320 C   0  0  1  0  0  0  0  0  0  0  0  0
   37.2910   32.9780   39.6270 C   0  0  0  0  0  0  0  0  0  0  0  0
   38.5350   32.0820   39.6170 C   0  0  2  0  0  0  0  0  0  0  0  0
   37.3010   31.7560   37.8460 H   0  0  0  0  0  0  0  0  0  0  0  0
   37.4160   33.9190   39.0740 H   0  0  0  0  0  0  0  0  0  0  0  0
   36.6480   33.0480   40.4970 H   0  0  0  0  0  0  0  0  0  0  0  0
   38.9240   32.1180   40.6140 H   0  0  0  0  0  0  0  0  0  0  0  0
   39.6760   32.5400   38.7290 C   0  0  0  0  0  0  0  0  0  0  0  0
   40.7090   33.4040   39.1210 C   0  0  0  0  0  0  0  0  0  0  0  0
   40.8720   33.8800   40.0960 H   0  0  0  0  0  0  0  0  0  0  0  0
   41.5850   33.6270   38.0900 C   0  0  0  0  0  0  0  0  0  0  0  0
   42.4780   34.2310   38.0470 H   0  0  0  0  0  0  0  0  0  0  0  0
   41.0600   32.8930   37.0990 N   0  0  0  0  0  0  0  0  0  0  0  0
   41.3970   32.7600   36.1190 H   0  0  0  0  0  0  0  0  0  0  0  0
   39.9580   32.2480   37.4230 N   0  0  0  0  0  0  0  0  0  0  0  0
   36.3310   30.8200   40.8950 C   0  0  0  0  0  0  0  0  0  0  0  0
   35.4410   31.0740   41.3950 H   0  0  0  0  0  0  0  0  0  0  0  0
   37.0440   31.6790   41.1430 H   0  0  0  0  0  0  0  0  0  0  0  0
   36.8430   27.3240   42.1730 C   0  0  0  0  0  0  0  0  0  0  0  0
   36.3400   28.4600   41.4670 C   0  0  0  0  0  0  0  0  0  0  0  0
   36.9020   29.6980   41.6730 C   0  0  0  0  0  0  0  0  0  0  0  0
   37.9320   29.7670   42.5630 N   0  0  0  0  0  0  0  0  0  0  0  0
   38.3880   28.7010   43.2130 C   0  0  0  0  0  0  0  0  0  0  0  0
   37.8650   27.4840   43.0350 N   0  0  0  0  0  0  0  0  0  0  0  0
   36.4590   26.3180   42.0710 H   0  0  0  0  0  0  0  0  0  0  0  0
   35.5380   28.1490   40.8240 H   0  0  0  0  0  0  0  0  0  0  0  0
   39.2170   28.9100   43.8920 H   0  0  0  0  0  0  0  0  0  0  0  0
  1 19  1  0  0  0  0
  2  1  1  0  0  0  0
  3  1  1  0  0  0  0
  4  7  1  6  0  0  0
  4  1  1  0  0  0  0
  4  6  1  0  0  0  0
  4  5  1  0  0  0  0
  5  9  1  0  0  0  0
  6  5  1  0  0  0  0
  6 10  1  1  0  0  0
  8  5  1  0  0  0  0
 11 12  1  0  0  0  0
 11  6  1  0  0  0  0
 12 13  1  0  0  0  0
 14 12  2  0  0  0  0
 15 14  1  0  0  0  0
 16 18  1  0  0  0  0
 16 14  1  0  0  0  0
 17 16  1  0  0  0  0
 18 11  2  0  0  0  0
 19 21  1  0  0  0  0
 19 20  1  0  0  0  0
 19 24  1  0  0  0  0
 22 27  1  0  0  0  0
 23 24  1  0  0  0  0
 23 22  2  0  0  0  0
 24 25  2  0  0  0  0
 25 26  1  0  0  0  0
 26 30  1  0  0  0  0
 27 26  2  0  0  0  0
 28 22  1  0  0  0  0
 29 23  1  0  0  0  0
M  END
>  <minimizedAffinity>
-4.74214172

$$$$

 OpenBabel03252502453D

 30 32  0  0  1  0  0  0  0  0999 V2000
   36.9540   28.0720   41.3990 C   0  0  0  0  0  0  0  0  0  0  0  0
   37.6510   27.6400   40.6460 H   0  0  0  0  0  0  0  0  0  0  0  0
   35.9520   28.0260   40.8720 H   0  0  0  0  0  0  0  0  0  0  0  0
   37.2080   29.5310   41.6140 C   0  0  1  0  0  0  0  0  0  0  0  0
   38.3090   29.8680   42.5430 C   0  0  0  0  0  0  0  0  0  0  0  0
   38.3220   30.1770   41.0410 C   0  0  2  0  0  0  0  0  0  0  0  0
   36.2840   30.0750   41.8190 H   0  0  0  0  0  0  0  0  0  0  0  0
   38.2530   30.7610   43.1810 H   0  0  0  0  0  0  0  0  0  0  0  0
   38.8870   29.0510   42.9600 H   0  0  0  0  0  0  0  0  0  0  0  0
   39.3140   29.9520   40.7090 H   0  0  0  0  0  0  0  0  0  0  0  0
   38.0950   31.6280   40.6610 C   0  0  0  0  0  0  0  0  0  0  0  0
   39.0920   32.6130   40.6030 C   0  0  0  0  0  0  0  0  0  0  0  0
   40.1650   32.5160   40.8100 H   0  0  0  0  0  0  0  0  0  0  0  0
   38.5680   33.8240   40.2280 C   0  0  0  0  0  0  0  0  0  0  0  0
   39.0470   34.7810   40.0870 H   0  0  0  0  0  0  0  0  0  0  0  0
   37.2680   33.5420   40.0690 N   0  0  0  0  0  0  0  0  0  0  0  0
   36.4810   34.1680   39.7860 H   0  0  0  0  0  0  0  0  0  0  0  0
   36.9500   32.2860   40.3080 N   0  0  0  0  0  0  0  0  0  0  0  0
   36.9550   27.4310   42.7080 C   0  0  0  0  0  0  0  0  0  0  0  0
   36.1200   27.0530   43.2230 H   0  0  0  0  0  0  0  0  0  0  0  0
   37.3940   28.2080   43.4230 H   0  0  0  0  0  0  0  0  0  0  0  0
   40.0720   25.5650   43.6670 C   0  0  0  0  0  0  0  0  0  0  0  0
   39.0590   26.5680   43.5560 C   0  0  0  0  0  0  0  0  0  0  0  0
   37.9610   26.3470   42.7590 C   0  0  0  0  0  0  0  0  0  0  0  0
   37.9030   25.1520   42.1060 N   0  0  0  0  0  0  0  0  0  0  0  0
   38.8530   24.2290   42.2190 C   0  0  0  0  0  0  0  0  0  0  0  0
   39.9330   24.4120   42.9850 N   0  0  0  0  0  0  0  0  0  0  0  0
   40.9650   25.6570   44.2690 H   0  0  0  0  0  0  0  0  0  0  0  0
   39.3290   27.4090   44.1670 H   0  0  0  0  0  0  0  0  0  0  0  0
   38.6700   23.3230   41.6370 H   0  0  0  0  0  0  0  0  0  0  0  0
  1  4  1  0  0  0  0
  1 19  1  0  0  0  0
  2  1  1  0  0  0  0
  3  1  1  0  0  0  0
  4  7  1  1  0  0  0
  4  5  1  0  0  0  0
  5  9  1  0  0  0  0
  5  8  1  0  0  0  0
  6 10  1  6  0  0  0
  6  4  1  0  0  0  0
  6  5  1  0  0  0  0
 11  6  1  0  0  0  0
 12 11  1  0  0  0  0
 12 13  1  0  0  0  0
 14 12  2  0  0  0  0
 15 14  1  0  0  0  0
 16 14  1  0  0  0  0
 16 18  1  0  0  0  0
 17 16  1  0  0  0  0
 18 11  2  0  0  0  0
 19 24  1  0  0  0  0
 19 20  1  0  0  0  0
 19 21  1  0  0  0  0
 22 28  1  0  0  0  0
 23 22  1  0  0  0  0
 23 29  1  0  0  0  0
 24 23  2  0  0  0  0
 25 26  2  0  0  0  0
 25 24  1  0  0  0  0
 26 27  1  0  0  0  0
 27 22  2  0  0  0  0
 30 26  1  0  0  0  0
M  END
>  <minimizedAffinity>
-4.68632746

$$$$

 OpenBabel03252502453D

 30 32  0  0  1  0  0  0  0  0999 V2000
   36.7410   27.7430   42.4340 C   0  0  0  0  0  0  0  0  0  0  0  0
   36.3920   27.3900   41.4370 H   0  0  0  0  0  0  0  0  0  0  0  0
   35.7940   27.7240   43.0550 H   0  0  0  0  0  0  0  0  0  0  0  0
   37.1490   29.1830   42.3990 C   0  0  1  0  0  0  0  0  0  0  0  0
   38.4770   29.4950   42.9700 C   0  0  0  0  0  0  0  0  0  0  0  0
   38.1170   29.6520   41.4890 C   0  0  2  0  0  0  0  0  0  0  0  0
   36.3530   29.8360   42.7620 H   0  0  0  0  0  0  0  0  0  0  0  0
   38.6550   30.4480   43.4880 H   0  0  0  0  0  0  0  0  0  0  0  0
   39.0820   28.6690   43.3240 H   0  0  0  0  0  0  0  0  0  0  0  0
   38.9680   29.2950   40.9460 H   0  0  0  0  0  0  0  0  0  0  0  0
   37.9050   31.0740   41.0040 C   0  0  0  0  0  0  0  0  0  0  0  0
   38.9210   32.0190   40.8030 C   0  0  0  0  0  0  0  0  0  0  0  0
   40.0030   31.9060   40.9510 H   0  0  0  0  0  0  0  0  0  0  0  0
   38.4060   33.2110   40.3620 C   0  0  0  0  0  0  0  0  0  0  0  0
   38.9000   34.1390   40.1130 H   0  0  0  0  0  0  0  0  0  0  0  0
   37.0920   32.9590   40.3080 N   0  0  0  0  0  0  0  0  0  0  0  0
   36.3050   33.5840   40.0230 H   0  0  0  0  0  0  0  0  0  0  0  0
   36.7570   31.7370   40.6690 N   0  0  0  0  0  0  0  0  0  0  0  0
   37.8420   26.9920   43.0240 C   0  0  0  0  0  0  0  0  0  0  0  0
   37.9080   26.6490   44.0150 H   0  0  0  0  0  0  0  0  0  0  0  0
   38.7630   27.6600   42.8990 H   0  0  0  0  0  0  0  0  0  0  0  0
   37.4650   23.6920   41.2670 C   0  0  0  0  0  0  0  0  0  0  0  0
   37.2160   24.8510   42.0650 C   0  0  0  0  0  0  0  0  0  0  0  0
   38.1840   25.8200   42.1870 C   0  0  0  0  0  0  0  0  0  0  0  0
   39.3540   25.6090   41.5220 N   0  0  0  0  0  0  0  0  0  0  0  0
   39.5710   24.5250   40.7830 C   0  0  0  0  0  0  0  0  0  0  0  0
   38.6510   23.5660   40.6430 N   0  0  0  0  0  0  0  0  0  0  0  0
   36.7610   22.8850   41.1180 H   0  0  0  0  0  0  0  0  0  0  0  0
   36.2260   24.7880   42.4780 H   0  0  0  0  0  0  0  0  0  0  0  0
   40.5550   24.4950   40.3090 H   0  0  0  0  0  0  0  0  0  0  0  0
  1 19  1  0  0  0  0
  1  3  1  0  0  0  0
  2  1  1  0  0  0  0
  4  1  1  0  0  0  0
  4  7  1  1  0  0  0
  4  5  1  0  0  0  0
  5  9  1  0  0  0  0
  5  8  1  0  0  0  0
  6 10  1  6  0  0  0
  6  4  1  0  0  0  0
  6  5  1  0  0  0  0
 11  6  1  0  0  0  0
 12 13  1  0  0  0  0
 12 11  1  0  0  0  0
 14 12  2  0  0  0  0
 15 14  1  0  0  0  0
 16 14  1  0  0  0  0
 16 18  1  0  0  0  0
 17 16  1  0  0  0  0
 18 11  2  0  0  0  0
 19 20  1  0  0  0  0
 21 19  1  0  0  0  0
 22 23  1  0  0  0  0
 23 24  2  0  0  0  0
 23 29  1  0  0  0  0
 24 19  1  0  0  0  0
 25 24  1  0  0  0  0
 26 25  2  0  0  0  0
 27 26  1  0  0  0  0
 27 22  2  0  0  0  0
 28 22  1  0  0  0  0
 30 26  1  0  0  0  0
M  END
>  <minimizedAffinity>
-4.66800308

$$$$

 OpenBabel03252502453D

 30 32  0  0  1  0  0  0  0  0999 V2000
   39.4380   29.0270   42.8340 C   0  0  0  0  0  0  0  0  0  0  0  0
   39.7940   29.6870   42.0110 H   0  0  0  0  0  0  0  0  0  0  0  0
   40.1690   29.2470   43.6700 H   0  0  0  0  0  0  0  0  0  0  0  0
   39.6460   27.5800   42.5110 C   0  0  1  0  0  0  0  0  0  0  0  0
   40.6310   26.8640   43.3500 C   0  0  0  0  0  0  0  0  0  0  0  0
   39.1290   26.5600   43.3340 C   0  0  2  0  0  0  0  0  0  0  0  0
   39.7900   27.4230   41.4400 H   0  0  0  0  0  0  0  0  0  0  0  0
   41.2520   26.0620   42.9270 H   0  0  0  0  0  0  0  0  0  0  0  0
   41.0920   27.4090   44.1660 H   0  0  0  0  0  0  0  0  0  0  0  0
   38.8570   26.3950   44.3570 H   0  0  0  0  0  0  0  0  0  0  0  0
   38.7150   25.2960   42.6040 C   0  0  0  0  0  0  0  0  0  0  0  0
   37.5260   25.1350   41.8790 C   0  0  0  0  0  0  0  0  0  0  0  0
   36.7190   25.8600   41.7140 H   0  0  0  0  0  0  0  0  0  0  0  0
   37.4440   23.8770   41.3390 C   0  0  0  0  0  0  0  0  0  0  0  0
   36.6740   23.4230   40.7320 H   0  0  0  0  0  0  0  0  0  0  0  0
   38.5840   23.3090   41.7510 N   0  0  0  0  0  0  0  0  0  0  0  0
   38.9500   22.3450   41.5750 H   0  0  0  0  0  0  0  0  0  0  0  0
   39.3490   24.0910   42.4840 N   0  0  0  0  0  0  0  0  0  0  0  0
   38.0420   29.1900   43.2210 C   0  0  0  0  0  0  0  0  0  0  0  0
   37.6730   29.7880   44.0040 H   0  0  0  0  0  0  0  0  0  0  0  0
   37.6760   28.1380   43.4780 H   0  0  0  0  0  0  0  0  0  0  0  0
   35.4320   28.8700   40.5380 C   0  0  0  0  0  0  0  0  0  0  0  0
   36.2810   28.6050   41.6560 C   0  0  0  0  0  0  0  0  0  0  0  0
   37.2100   29.5390   42.0480 C   0  0  0  0  0  0  0  0  0  0  0  0
   37.2660   30.6930   41.3250 N   0  0  0  0  0  0  0  0  0  0  0  0
   36.4700   30.9260   40.2860 C   0  0  0  0  0  0  0  0  0  0  0  0
   35.5560   30.0390   39.8800 N   0  0  0  0  0  0  0  0  0  0  0  0
   34.6770   28.1920   40.1640 H   0  0  0  0  0  0  0  0  0  0  0  0
   36.0410   27.6380   42.0590 H   0  0  0  0  0  0  0  0  0  0  0  0
   36.6290   31.8930   39.8060 H   0  0  0  0  0  0  0  0  0  0  0  0
  1 19  1  0  0  0  0
  1  3  1  0  0  0  0
  2  1  1  0  0  0  0
  4  7  1  6  0  0  0
  4  1  1  0  0  0  0
  4  6  1  0  0  0  0
  4  5  1  0  0  0  0
  5  9  1  0  0  0  0
  6  5  1  0  0  0  0
  6 10  1  1  0  0  0
  8  5  1  0  0  0  0
 11  6  1  0  0  0  0
 12 11  1  0  0  0  0
 13 12  1  0  0  0  0
 14 16  1  0  0  0  0
 14 12  2  0  0  0  0
 15 14  1  0  0  0  0
 16 18  1  0  0  0  0
 17 16  1  0  0  0  0
 18 11  2  0  0  0  0
 19 21  1  0  0  0  0
 19 20  1  0  0  0  0
 22 23  1  0  0  0  0
 23 24  2  0  0  0  0
 23 29  1  0  0  0  0
 24 19  1  0  0  0  0
 25 24  1  0  0  0  0
 26 25  2  0  0  0  0
 27 26  1  0  0  0  0
 27 22  2  0  0  0  0
 28 22  1  0  0  0  0
 30 26  1  0  0  0  0
M  END
>  <minimizedAffinity>
-4.4832325

$$$$

 OpenBabel03252502453D

 30 32  0  0  1  0  0  0  0  0999 V2000
   36.8120   28.4570   39.0970 C   0  0  0  0  0  0  0  0  0  0  0  0
   37.6010   27.6720   39.0700 H   0  0  0  0  0  0  0  0  0  0  0  0
   36.2380   28.2710   38.1380 H   0  0  0  0  0  0  0  0  0  0  0  0
   37.3910   29.8280   38.9380 C   0  0  1  0  0  0  0  0  0  0  0  0
   37.0180   30.5520   37.7040 C   0  0  0  0  0  0  0  0  0  0  0  0
   36.6050   30.9840   39.1160 C   0  0  2  0  0  0  0  0  0  0  0  0
   38.4640   29.8380   39.1420 H   0  0  0  0  0  0  0  0  0  0  0  0
   37.7260   31.2370   37.2170 H   0  0  0  0  0  0  0  0  0  0  0  0
   36.3170   30.0730   37.0290 H   0  0  0  0  0  0  0  0  0  0  0  0
   35.5850   31.2980   39.0340 H   0  0  0  0  0  0  0  0  0  0  0  0
   37.3440   32.1800   39.6860 C   0  0  0  0  0  0  0  0  0  0  0  0
   38.4490   32.1120   40.5470 C   0  0  0  0  0  0  0  0  0  0  0  0
   38.9550   31.2230   40.9450 H   0  0  0  0  0  0  0  0  0  0  0  0
   38.8890   33.3660   40.8860 C   0  0  0  0  0  0  0  0  0  0  0  0
   39.7050   33.6740   41.5230 H   0  0  0  0  0  0  0  0  0  0  0  0
   38.0400   34.1610   40.2220 N   0  0  0  0  0  0  0  0  0  0  0  0
   37.9960   35.2050   40.1850 H   0  0  0  0  0  0  0  0  0  0  0  0
   37.1320   33.5200   39.5160 N   0  0  0  0  0  0  0  0  0  0  0  0
   35.9710   28.4730   40.2860 C   0  0  0  0  0  0  0  0  0  0  0  0
   35.0600   27.9650   40.4190 H   0  0  0  0  0  0  0  0  0  0  0  0
   35.7020   29.5730   40.4500 H   0  0  0  0  0  0  0  0  0  0  0  0
   38.0960   26.5150   42.6880 C   0  0  0  0  0  0  0  0  0  0  0  0
   37.3070   26.8950   41.5580 C   0  0  0  0  0  0  0  0  0  0  0  0
   36.7660   28.1570   41.4940 C   0  0  0  0  0  0  0  0  0  0  0  0
   37.0210   28.9920   42.5410 N   0  0  0  0  0  0  0  0  0  0  0  0
   37.7570   28.6230   43.5860 C   0  0  0  0  0  0  0  0  0  0  0  0
   38.2980   27.4040   43.6790 N   0  0  0  0  0  0  0  0  0  0  0  0
   38.5570   25.5450   42.8180 H   0  0  0  0  0  0  0  0  0  0  0  0
   37.2570   26.0710   40.8710 H   0  0  0  0  0  0  0  0  0  0  0  0
   37.8760   29.3980   44.3460 H   0  0  0  0  0  0  0  0  0  0  0  0
  1 19  1  0  0  0  0
  2  1  1  0  0  0  0
  3  1  1  0  0  0  0
  4  1  1  0  0  0  0
  4  6  1  0  0  0  0
  4  7  1  1  0  0  0
  5  4  1  0  0  0  0
  5  6  1  0  0  0  0
  6 10  1  1  0  0  0
  6 11  1  0  0  0  0
  8  5  1  0  0  0  0
  9  5  1  0  0  0  0
 11 12  1  0  0  0  0
 12 14  2  0  0  0  0
 12 13  1  0  0  0  0
 14 15  1  0  0  0  0
 16 14  1  0  0  0  0
 17 16  1  0  0  0  0
 18 11  2  0  0  0  0
 18 16  1  0  0  0  0
 19 20  1  0  0  0  0
 19 21  1  0  0  0  0
 19 24  1  0  0  0  0
 22 28  1  0  0  0  0
 22 27  1  0  0  0  0
 23 22  2  0  0  0  0
 24 23  1  0  0  0  0
 24 25  2  0  0  0  0
 25 26  1  0  0  0  0
 26 27  2  0  0  0  0
 26 30  1  0  0  0  0
 29 23  1  0  0  0  0
M  END
>  <minimizedAffinity>
-4.43888712

$$$$

 OpenBabel03252502453D

 30 32  0  0  1  0  0  0  0  0999 V2000
   37.0520   30.8800   38.3850 C   0  0  0  0  0  0  0  0  0  0  0  0
   36.3760   30.6530   37.5300 H   0  0  0  0  0  0  0  0  0  0  0  0
   37.9740   30.2660   38.1480 H   0  0  0  0  0  0  0  0  0  0  0  0
   36.5300   30.3120   39.6670 C   0  0  1  0  0  0  0  0  0  0  0  0
   35.4070   29.3570   39.5450 C   0  0  0  0  0  0  0  0  0  0  0  0
   36.8060   28.9840   40.0500 C   0  0  2  0  0  0  0  0  0  0  0  0
   36.3610   31.0910   40.4130 H   0  0  0  0  0  0  0  0  0  0  0  0
   34.6260   29.3050   40.3170 H   0  0  0  0  0  0  0  0  0  0  0  0
   35.0740   29.0920   38.5480 H   0  0  0  0  0  0  0  0  0  0  0  0
   37.0290   28.0360   39.6060 H   0  0  0  0  0  0  0  0  0  0  0  0
   36.9340   28.7620   41.5460 C   0  0  0  0  0  0  0  0  0  0  0  0
   36.6760   27.5530   42.2080 C   0  0  0  0  0  0  0  0  0  0  0  0
   36.3530   26.5930   41.7840 H   0  0  0  0  0  0  0  0  0  0  0  0
   36.8820   27.6750   43.5580 C   0  0  0  0  0  0  0  0  0  0  0  0
   36.7770   26.9510   44.3520 H   0  0  0  0  0  0  0  0  0  0  0  0
   37.2580   28.9550   43.6800 N   0  0  0  0  0  0  0  0  0  0  0  0
   37.5180   29.4940   44.5360 H   0  0  0  0  0  0  0  0  0  0  0  0
   37.3020   29.6210   42.5440 N   0  0  0  0  0  0  0  0  0  0  0  0
   37.3340   32.2910   38.6150 C   0  0  0  0  0  0  0  0  0  0  0  0
   36.7640   32.9600   39.1920 H   0  0  0  0  0  0  0  0  0  0  0  0
   37.3530   32.7680   37.5750 H   0  0  0  0  0  0  0  0  0  0  0  0
   41.0690   31.9140   38.7740 C   0  0  0  0  0  0  0  0  0  0  0  0
   39.6970   31.7800   38.3960 C   0  0  0  0  0  0  0  0  0  0  0  0
   38.7280   32.4770   39.0760 C   0  0  0  0  0  0  0  0  0  0  0  0
   39.1460   33.2760   40.0990 N   0  0  0  0  0  0  0  0  0  0  0  0
   40.4260   33.3900   40.4390 C   0  0  0  0  0  0  0  0  0  0  0  0
   41.3930   32.7260   39.7970 N   0  0  0  0  0  0  0  0  0  0  0  0
   41.8920   31.4020   38.2940 H   0  0  0  0  0  0  0  0  0  0  0  0
   39.6260   31.1030   37.5640 H   0  0  0  0  0  0  0  0  0  0  0  0
   40.6090   34.0660   41.2770 H   0  0  0  0  0  0  0  0  0  0  0  0
  1 19  1  0  0  0  0
  1  4  1  0  0  0  0
  2  1  1  0  0  0  0
  3  1  1  0  0  0  0
  4  6  1  0  0  0  0
  4  7  1  1  0  0  0
  5  4  1  0  0  0  0
  5  6  1  0  0  0  0
  5  8  1  0  0  0  0
  6 10  1  6  0  0  0
  6 11  1  0  0  0  0
  9  5  1  0  0  0  0
 11 12  1  0  0  0  0
 11 18  2  0  0  0  0
 12 14  2  0  0  0  0
 13 12  1  0  0  0  0
 14 16  1  0  0  0  0
 14 15  1  0  0  0  0
 16 17  1  0  0  0  0
 18 16  1  0  0  0  0
 19 24  1  0  0  0  0
 19 20  1  0  0  0  0
 21 19  1  0  0  0  0
 22 27  1  0  0  0  0
 23 22  2  0  0  0  0
 23 24  1  0  0  0  0
 24 25  2  0  0  0  0
 25 26  1  0  0  0  0
 26 30  1  0  0  0  0
 27 26  2  0  0  0  0
 28 22  1  0  0  0  0
 29 23  1  0  0  0  0
M  END
>  <minimizedAffinity>
-4.41195822

$$$$

 OpenBabel03252502453D

 30 32  0  0  1  0  0  0  0  0999 V2000
   37.8570   25.3250   42.3720 C   0  0  0  0  0  0  0  0  0  0  0  0
   38.3380   25.0240   43.3300 H   0  0  0  0  0  0  0  0  0  0  0  0
   38.7430   25.5240   41.6950 H   0  0  0  0  0  0  0  0  0  0  0  0
   37.1620   26.6450   42.4940 C   0  0  1  0  0  0  0  0  0  0  0  0
   37.6700   27.5520   43.5460 C   0  0  0  0  0  0  0  0  0  0  0  0
   37.7630   27.8370   42.0430 C   0  0  2  0  0  0  0  0  0  0  0  0
   36.0770   26.5300   42.5050 H   0  0  0  0  0  0  0  0  0  0  0  0
   36.9880   28.2240   44.0870 H   0  0  0  0  0  0  0  0  0  0  0  0
   38.5330   27.2290   44.1180 H   0  0  0  0  0  0  0  0  0  0  0  0
   38.7380   28.2530   41.8890 H   0  0  0  0  0  0  0  0  0  0  0  0
   36.7980   28.8780   41.5050 C   0  0  0  0  0  0  0  0  0  0  0  0
   35.7560   28.6220   40.6030 C   0  0  0  0  0  0  0  0  0  0  0  0
   35.4610   27.6680   40.1470 H   0  0  0  0  0  0  0  0  0  0  0  0
   35.0650   29.7690   40.3080 C   0  0  0  0  0  0  0  0  0  0  0  0
   34.2170   29.9300   39.6590 H   0  0  0  0  0  0  0  0  0  0  0  0
   35.7070   30.6910   41.0380 N   0  0  0  0  0  0  0  0  0  0  0  0
   35.5250   31.7160   41.1260 H   0  0  0  0  0  0  0  0  0  0  0  0
   36.7150   30.2210   41.7450 N   0  0  0  0  0  0  0  0  0  0  0  0
   36.8990   24.3780   41.8170 C   0  0  0  0  0  0  0  0  0  0  0  0
   35.8980   24.5730   41.5610 H   0  0  0  0  0  0  0  0  0  0  0  0
   36.8300   23.5340   42.5860 H   0  0  0  0  0  0  0  0  0  0  0  0
   39.3770   23.4050   39.1640 C   0  0  0  0  0  0  0  0  0  0  0  0
   38.7520   24.0340   40.2860 C   0  0  0  0  0  0  0  0  0  0  0  0
   37.4690   23.6870   40.6380 C   0  0  0  0  0  0  0  0  0  0  0  0
   36.8540   22.7390   39.8760 N   0  0  0  0  0  0  0  0  0  0  0  0
   37.4490   22.1630   38.8350 C   0  0  0  0  0  0  0  0  0  0  0  0
   38.6950   22.4770   38.4670 N   0  0  0  0  0  0  0  0  0  0  0  0
   40.3790   23.6180   38.8200 H   0  0  0  0  0  0  0  0  0  0  0  0
   39.4370   24.7360   40.7230 H   0  0  0  0  0  0  0  0  0  0  0  0
   36.8340   21.4210   38.3210 H   0  0  0  0  0  0  0  0  0  0  0  0
  1  4  1  0  0  0  0
  1  2  1  0  0  0  0
  3  1  1  0  0  0  0
  4  7  1  6  0  0  0
  4  5  1  0  0  0  0
  5  8  1  0  0  0  0
  5  9  1  0  0  0  0
  6 10  1  6  0  0  0
  6  4  1  0  0  0  0
  6  5  1  0  0  0  0
 11 18  2  0  0  0  0
 11  6  1  0  0  0  0
 12 11  1  0  0  0  0
 13 12  1  0  0  0  0
 14 12  2  0  0  0  0
 14 16  1  0  0  0  0
 15 14  1  0  0  0  0
 16 17  1  0  0  0  0
 16 18  1  0  0  0  0
 19  1  1  0  0  0  0
 19 21  1  0  0  0  0
 20 19  1  0  0  0  0
 22 23  1  0  0  0  0
 23 24  2  0  0  0  0
 23 29  1  0  0  0  0
 24 19  1  0  0  0  0
 25 24  1  0  0  0  0
 26 25  2  0  0  0  0
 27 26  1  0  0  0  0
 27 22  2  0  0  0  0
 28 22  1  0  0  0  0
 30 26  1  0  0  0  0
M  END
>  <minimizedAffinity>
-4.36084843

$$$$
