
 OpenBabel03252504083D

 18 19  0  0  0  0  0  0  0  0999 V2000
   36.6800   30.1050   41.3960 C   0  0  0  0  0  0  0  0  0  0  0  0
   37.8620   30.6900   40.9160 C   0  0  0  0  0  0  0  0  0  0  0  0
   39.0090   29.8800   40.8570 C   0  0  0  0  0  0  0  0  0  0  0  0
   38.8990   28.5850   41.2690 N   0  0  0  0  0  0  0  0  0  0  0  0
   37.7490   28.0640   41.7220 C   0  0  0  0  0  0  0  0  0  0  0  0
   36.6300   28.8200   41.7890 N   0  0  0  0  0  0  0  0  0  0  0  0
   39.9200   30.2890   40.4990 H   0  0  0  0  0  0  0  0  0  0  0  0
   37.6470   27.0370   42.0510 H   0  0  0  0  0  0  0  0  0  0  0  0
   37.8660   32.0840   40.5030 C   0  0  0  0  0  0  0  0  0  0  0  0
   38.8530   32.9790   40.8430 C   0  0  0  0  0  0  0  0  0  0  0  0
   39.7430   32.8650   41.4270 H   0  0  0  0  0  0  0  0  0  0  0  0
   38.4800   34.1610   40.2610 C   0  0  0  0  0  0  0  0  0  0  0  0
   38.9270   35.1500   40.2420 H   0  0  0  0  0  0  0  0  0  0  0  0
   37.3090   33.9940   39.5900 N   0  0  0  0  0  0  0  0  0  0  0  0
   36.7470   34.6740   39.0400 H   0  0  0  0  0  0  0  0  0  0  0  0
   36.9580   32.7300   39.7510 N   0  0  0  0  0  0  0  0  0  0  0  0
   35.5550   30.8940   41.4550 O   0  0  0  0  0  0  0  0  0  0  0  0
   34.7930   30.7670   42.1010 H   0  0  0  0  0  0  0  0  0  0  0  0
  1 17  1  0  0  0  0
  1  6  1  0  0  0  0
  2  1  2  0  0  0  0
  3  2  1  0  0  0  0
  3  4  2  0  0  0  0
  4  5  1  0  0  0  0
  5  6  2  0  0  0  0
  5  8  1  0  0  0  0
  7  3  1  0  0  0  0
  9 10  1  0  0  0  0
  9  2  1  0  0  0  0
 10 11  1  0  0  0  0
 12 10  2  0  0  0  0
 13 12  1  0  0  0  0
 14 16  1  0  0  0  0
 14 12  1  0  0  0  0
 15 14  1  0  0  0  0
 16  9  2  0  0  0  0
 17 18  1  0  0  0  0
M  END
>  <minimizedAffinity>
-4.52705669

$$$$

 OpenBabel03252504083D

 18 19  0  0  0  0  0  0  0  0999 V2000
   37.0890   28.2520   42.6900 C   0  0  0  0  0  0  0  0  0  0  0  0
   37.1820   28.6370   41.3440 C   0  0  0  0  0  0  0  0  0  0  0  0
   37.2700   27.6150   40.3810 C   0  0  0  0  0  0  0  0  0  0  0  0
   37.2590   26.3240   40.8180 N   0  0  0  0  0  0  0  0  0  0  0  0
   37.1680   25.9980   42.1160 C   0  0  0  0  0  0  0  0  0  0  0  0
   37.0830   26.9600   43.0620 N   0  0  0  0  0  0  0  0  0  0  0  0
   37.3410   27.8700   39.3540 H   0  0  0  0  0  0  0  0  0  0  0  0
   37.1580   24.9770   42.4760 H   0  0  0  0  0  0  0  0  0  0  0  0
   37.1850   30.0470   40.9900 C   0  0  0  0  0  0  0  0  0  0  0  0
   38.2890   30.7110   40.5090 C   0  0  0  0  0  0  0  0  0  0  0  0
   39.2870   30.3790   40.3100 H   0  0  0  0  0  0  0  0  0  0  0  0
   37.8700   32.0000   40.3060 C   0  0  0  0  0  0  0  0  0  0  0  0
   38.3700   32.8920   39.9410 H   0  0  0  0  0  0  0  0  0  0  0  0
   36.5600   32.1170   40.6490 N   0  0  0  0  0  0  0  0  0  0  0  0
   35.9290   32.9430   40.6210 H   0  0  0  0  0  0  0  0  0  0  0  0
   36.1680   30.9230   41.0590 N   0  0  0  0  0  0  0  0  0  0  0  0
   37.0030   29.2490   43.6340 O   0  0  0  0  0  0  0  0  0  0  0  0
   37.3170   29.1700   44.5870 H   0  0  0  0  0  0  0  0  0  0  0  0
  1  6  1  0  0  0  0
  1 17  1  0  0  0  0
  2  1  2  0  0  0  0
  3  4  2  0  0  0  0
  3  2  1  0  0  0  0
  4  5  1  0  0  0  0
  5  8  1  0  0  0  0
  5  6  2  0  0  0  0
  7  3  1  0  0  0  0
  9 16  2  0  0  0  0
  9  2  1  0  0  0  0
 10  9  1  0  0  0  0
 11 10  1  0  0  0  0
 12 10  2  0  0  0  0
 12 14  1  0  0  0  0
 13 12  1  0  0  0  0
 14 16  1  0  0  0  0
 15 14  1  0  0  0  0
 17 18  1  0  0  0  0
M  END
>  <minimizedAffinity>
-4.30506039

$$$$

 OpenBabel03252504083D

 18 19  0  0  0  0  0  0  0  0999 V2000
   36.7300   31.1180   40.6820 C   0  0  0  0  0  0  0  0  0  0  0  0
   37.7800   30.3100   41.1430 C   0  0  0  0  0  0  0  0  0  0  0  0
   39.0850   30.6520   40.7470 C   0  0  0  0  0  0  0  0  0  0  0  0
   39.2420   31.7420   39.9440 N   0  0  0  0  0  0  0  0  0  0  0  0
   38.2110   32.4890   39.5240 C   0  0  0  0  0  0  0  0  0  0  0  0
   36.9460   32.1830   39.8900 N   0  0  0  0  0  0  0  0  0  0  0  0
   39.9020   30.0630   41.0780 H   0  0  0  0  0  0  0  0  0  0  0  0
   38.3230   33.3580   38.8860 H   0  0  0  0  0  0  0  0  0  0  0  0
   37.4960   29.1680   41.9980 C   0  0  0  0  0  0  0  0  0  0  0  0
   38.1090   28.9480   43.2090 C   0  0  0  0  0  0  0  0  0  0  0  0
   38.8540   29.5050   43.7380 H   0  0  0  0  0  0  0  0  0  0  0  0
   37.5630   27.7840   43.6800 C   0  0  0  0  0  0  0  0  0  0  0  0
   37.7210   27.2050   44.5850 H   0  0  0  0  0  0  0  0  0  0  0  0
   36.6500   27.3110   42.7890 N   0  0  0  0  0  0  0  0  0  0  0  0
   36.0540   26.4600   42.8270 H   0  0  0  0  0  0  0  0  0  0  0  0
   36.6270   28.1660   41.7810 N   0  0  0  0  0  0  0  0  0  0  0  0
   35.4510   30.7860   41.0670 O   0  0  0  0  0  0  0  0  0  0  0  0
   34.6180   30.9920   40.5420 H   0  0  0  0  0  0  0  0  0  0  0  0
  1 17  1  0  0  0  0
  1  2  1  0  0  0  0
  2  9  1  0  0  0  0
  3  7  1  0  0  0  0
  3  2  2  0  0  0  0
  4  3  1  0  0  0  0
  5  6  1  0  0  0  0
  5  4  2  0  0  0  0
  6  1  2  0  0  0  0
  8  5  1  0  0  0  0
  9 10  1  0  0  0  0
 10 12  2  0  0  0  0
 10 11  1  0  0  0  0
 12 13  1  0  0  0  0
 14 15  1  0  0  0  0
 14 12  1  0  0  0  0
 16  9  2  0  0  0  0
 16 14  1  0  0  0  0
 18 17  1  0  0  0  0
M  END
>  <minimizedAffinity>
-4.28407431

$$$$

 OpenBabel03252504083D

 18 19  0  0  0  0  0  0  0  0999 V2000
   38.1180   33.3100   40.0880 C   0  0  0  0  0  0  0  0  0  0  0  0
   38.2760   31.9350   40.3200 C   0  0  0  0  0  0  0  0  0  0  0  0
   39.5750   31.4660   40.5830 C   0  0  0  0  0  0  0  0  0  0  0  0
   40.5910   32.3750   40.5950 N   0  0  0  0  0  0  0  0  0  0  0  0
   40.3980   33.6820   40.3690 C   0  0  0  0  0  0  0  0  0  0  0  0
   39.1590   34.1610   40.1140 N   0  0  0  0  0  0  0  0  0  0  0  0
   39.7310   30.4330   40.7620 H   0  0  0  0  0  0  0  0  0  0  0  0
   41.1950   34.4150   40.3770 H   0  0  0  0  0  0  0  0  0  0  0  0
   37.1190   31.0540   40.2810 C   0  0  0  0  0  0  0  0  0  0  0  0
   36.8350   30.2120   39.2320 C   0  0  0  0  0  0  0  0  0  0  0  0
   37.3430   30.0350   38.3060 H   0  0  0  0  0  0  0  0  0  0  0  0
   35.6790   29.5710   39.5910 C   0  0  0  0  0  0  0  0  0  0  0  0
   35.0650   28.8220   39.1010 H   0  0  0  0  0  0  0  0  0  0  0  0
   35.2740   30.0060   40.8150 N   0  0  0  0  0  0  0  0  0  0  0  0
   34.4470   29.7340   41.3840 H   0  0  0  0  0  0  0  0  0  0  0  0
   36.1610   30.9010   41.2110 N   0  0  0  0  0  0  0  0  0  0  0  0
   36.8480   33.7720   39.8300 O   0  0  0  0  0  0  0  0  0  0  0  0
   36.6300   34.5890   39.2840 H   0  0  0  0  0  0  0  0  0  0  0  0
  1  6  2  0  0  0  0
  1  2  1  0  0  0  0
  2  3  2  0  0  0  0
  3  4  1  0  0  0  0
  3  7  1  0  0  0  0
  5  8  1  0  0  0  0
  5  4  2  0  0  0  0
  6  5  1  0  0  0  0
  9  2  1  0  0  0  0
  9 16  2  0  0  0  0
 10 12  2  0  0  0  0
 10  9  1  0  0  0  0
 11 10  1  0  0  0  0
 12 14  1  0  0  0  0
 13 12  1  0  0  0  0
 14 16  1  0  0  0  0
 14 15  1  0  0  0  0
 17  1  1  0  0  0  0
 18 17  1  0  0  0  0
M  END
>  <minimizedAffinity>
-4.23973751

$$$$

 OpenBabel03252504083D

 18 19  0  0  0  0  0  0  0  0999 V2000
   36.9870   31.4420   40.2690 C   0  0  0  0  0  0  0  0  0  0  0  0
   37.8750   30.6860   39.4890 C   0  0  0  0  0  0  0  0  0  0  0  0
   37.9220   29.3000   39.7200 C   0  0  0  0  0  0  0  0  0  0  0  0
   37.1060   28.7850   40.6820 N   0  0  0  0  0  0  0  0  0  0  0  0
   36.2700   29.5430   41.4070 C   0  0  0  0  0  0  0  0  0  0  0  0
   36.2040   30.8790   41.2060 N   0  0  0  0  0  0  0  0  0  0  0  0
   38.5820   28.6970   39.1490 H   0  0  0  0  0  0  0  0  0  0  0  0
   35.6160   29.1470   42.1740 H   0  0  0  0  0  0  0  0  0  0  0  0
   38.7010   31.3410   38.4880 C   0  0  0  0  0  0  0  0  0  0  0  0
   40.0550   31.5380   38.6250 C   0  0  0  0  0  0  0  0  0  0  0  0
   40.7330   31.2840   39.4140 H   0  0  0  0  0  0  0  0  0  0  0  0
   40.4410   32.1790   37.4780 C   0  0  0  0  0  0  0  0  0  0  0  0
   41.3990   32.5430   37.1200 H   0  0  0  0  0  0  0  0  0  0  0  0
   39.3630   32.3650   36.6700 N   0  0  0  0  0  0  0  0  0  0  0  0
   39.2940   32.8120   35.7340 H   0  0  0  0  0  0  0  0  0  0  0  0
   38.3230   31.8500   37.3030 N   0  0  0  0  0  0  0  0  0  0  0  0
   36.9380   32.7990   40.0460 O   0  0  0  0  0  0  0  0  0  0  0  0
   36.6830   33.4890   40.7330 H   0  0  0  0  0  0  0  0  0  0  0  0
  1  6  1  0  0  0  0
  2  3  1  0  0  0  0
  2  1  2  0  0  0  0
  3  4  2  0  0  0  0
  4  5  1  0  0  0  0
  5  8  1  0  0  0  0
  6  5  2  0  0  0  0
  7  3  1  0  0  0  0
  9 10  1  0  0  0  0
  9  2  1  0  0  0  0
 10 11  1  0  0  0  0
 12 10  2  0  0  0  0
 13 12  1  0  0  0  0
 14 16  1  0  0  0  0
 14 12  1  0  0  0  0
 15 14  1  0  0  0  0
 16  9  2  0  0  0  0
 17  1  1  0  0  0  0
 17 18  1  0  0  0  0
M  END
>  <minimizedAffinity>
-4.0805068

$$$$

 OpenBabel03252504083D

 18 19  0  0  0  0  0  0  0  0999 V2000
   37.0070   28.0210   41.1210 C   0  0  0  0  0  0  0  0  0  0  0  0
   37.4510   29.1200   41.8720 C   0  0  0  0  0  0  0  0  0  0  0  0
   37.9460   28.8670   43.1630 C   0  0  0  0  0  0  0  0  0  0  0  0
   37.9610   27.5750   43.5990 N   0  0  0  0  0  0  0  0  0  0  0  0
   37.5270   26.5510   42.8490 C   0  0  0  0  0  0  0  0  0  0  0  0
   37.0470   26.7660   41.6040 N   0  0  0  0  0  0  0  0  0  0  0  0
   38.2890   29.6740   43.7590 H   0  0  0  0  0  0  0  0  0  0  0  0
   37.5350   25.5210   43.1830 H   0  0  0  0  0  0  0  0  0  0  0  0
   37.3880   30.4580   41.3060 C   0  0  0  0  0  0  0  0  0  0  0  0
   38.4950   31.2270   41.0370 C   0  0  0  0  0  0  0  0  0  0  0  0
   39.5410   31.0370   41.1690 H   0  0  0  0  0  0  0  0  0  0  0  0
   38.0020   32.3960   40.5210 C   0  0  0  0  0  0  0  0  0  0  0  0
   38.4760   33.3050   40.1620 H   0  0  0  0  0  0  0  0  0  0  0  0
   36.6440   32.3420   40.4770 N   0  0  0  0  0  0  0  0  0  0  0  0
   35.9540   33.0470   40.1470 H   0  0  0  0  0  0  0  0  0  0  0  0
   36.2970   31.1610   40.9570 N   0  0  0  0  0  0  0  0  0  0  0  0
   36.5220   28.2640   39.8570 O   0  0  0  0  0  0  0  0  0  0  0  0
   35.8420   27.6970   39.3800 H   0  0  0  0  0  0  0  0  0  0  0  0
  1  6  2  0  0  0  0
  1  2  1  0  0  0  0
  2  3  2  0  0  0  0
  3  4  1  0  0  0  0
  3  7  1  0  0  0  0
  5  8  1  0  0  0  0
  5  4  2  0  0  0  0
  6  5  1  0  0  0  0
  9  2  1  0  0  0  0
 10 11  1  0  0  0  0
 10  9  1  0  0  0  0
 12 10  2  0  0  0  0
 13 12  1  0  0  0  0
 14 12  1  0  0  0  0
 14 16  1  0  0  0  0
 15 14  1  0  0  0  0
 16  9  2  0  0  0  0
 17  1  1  0  0  0  0
 18 17  1  0  0  0  0
M  END
>  <minimizedAffinity>
-3.98146629

$$$$

 OpenBabel03252504083D

 18 19  0  0  0  0  0  0  0  0999 V2000
   39.4440   26.6530   43.0970 C   0  0  0  0  0  0  0  0  0  0  0  0
   38.1830   26.6020   42.4840 C   0  0  0  0  0  0  0  0  0  0  0  0
   37.6630   25.3330   42.1740 C   0  0  0  0  0  0  0  0  0  0  0  0
   38.4160   24.2400   42.4870 N   0  0  0  0  0  0  0  0  0  0  0  0
   39.6190   24.3320   43.0730 C   0  0  0  0  0  0  0  0  0  0  0  0
   40.1420   25.5400   43.3830 N   0  0  0  0  0  0  0  0  0  0  0  0
   36.7120   25.2560   41.7110 H   0  0  0  0  0  0  0  0  0  0  0  0
   40.2270   23.4730   43.3280 H   0  0  0  0  0  0  0  0  0  0  0  0
   37.4660   27.8330   42.1940 C   0  0  0  0  0  0  0  0  0  0  0  0
   36.7490   28.0460   41.0400 C   0  0  0  0  0  0  0  0  0  0  0  0
   36.5770   27.4230   40.1860 H   0  0  0  0  0  0  0  0  0  0  0  0
   36.2390   29.3110   41.1640 C   0  0  0  0  0  0  0  0  0  0  0  0
   35.6150   29.9240   40.5210 H   0  0  0  0  0  0  0  0  0  0  0  0
   36.6290   29.8490   42.3510 N   0  0  0  0  0  0  0  0  0  0  0  0
   36.4260   30.7810   42.7650 H   0  0  0  0  0  0  0  0  0  0  0  0
   37.3690   28.9360   42.9550 N   0  0  0  0  0  0  0  0  0  0  0  0
   39.9560   27.8930   43.4010 O   0  0  0  0  0  0  0  0  0  0  0  0
   40.9360   28.1150   43.4610 H   0  0  0  0  0  0  0  0  0  0  0  0
  1  6  1  0  0  0  0
  1 17  1  0  0  0  0
  2  1  2  0  0  0  0
  3  2  1  0  0  0  0
  3  4  2  0  0  0  0
  4  5  1  0  0  0  0
  5  8  1  0  0  0  0
  5  6  2  0  0  0  0
  7  3  1  0  0  0  0
  9  2  1  0  0  0  0
  9 16  2  0  0  0  0
 10 12  2  0  0  0  0
 10  9  1  0  0  0  0
 11 10  1  0  0  0  0
 12 14  1  0  0  0  0
 13 12  1  0  0  0  0
 14 15  1  0  0  0  0
 14 16  1  0  0  0  0
 17 18  1  0  0  0  0
M  END
>  <minimizedAffinity>
-3.91321373

$$$$

 OpenBabel03252504083D

 18 19  0  0  0  0  0  0  0  0999 V2000
   35.8930   29.7220   39.6690 C   0  0  0  0  0  0  0  0  0  0  0  0
   36.6010   28.6390   40.2110 C   0  0  0  0  0  0  0  0  0  0  0  0
   37.0270   27.6340   39.3240 C   0  0  0  0  0  0  0  0  0  0  0  0
   36.7250   27.7780   38.0030 N   0  0  0  0  0  0  0  0  0  0  0  0
   36.0450   28.8290   37.5250 C   0  0  0  0  0  0  0  0  0  0  0  0
   35.6230   29.8110   38.3540 N   0  0  0  0  0  0  0  0  0  0  0  0
   37.5660   26.8000   39.6990 H   0  0  0  0  0  0  0  0  0  0  0  0
   35.7980   28.9570   36.4780 H   0  0  0  0  0  0  0  0  0  0  0  0
   36.8680   28.5870   41.6390 C   0  0  0  0  0  0  0  0  0  0  0  0
   36.6650   27.4700   42.4140 C   0  0  0  0  0  0  0  0  0  0  0  0
   36.3030   26.4920   42.1700 H   0  0  0  0  0  0  0  0  0  0  0  0
   37.0350   27.8410   43.6800 C   0  0  0  0  0  0  0  0  0  0  0  0
   37.0560   27.3140   44.6290 H   0  0  0  0  0  0  0  0  0  0  0  0
   37.4490   29.1360   43.6760 N   0  0  0  0  0  0  0  0  0  0  0  0
   37.7950   29.7330   44.4550 H   0  0  0  0  0  0  0  0  0  0  0  0
   37.3390   29.5650   42.4310 N   0  0  0  0  0  0  0  0  0  0  0  0
   35.4730   30.7070   40.5330 O   0  0  0  0  0  0  0  0  0  0  0  0
   34.6690   31.2960   40.3920 H   0  0  0  0  0  0  0  0  0  0  0  0
  1  2  1  0  0  0  0
  1 17  1  0  0  0  0
  2  9  1  0  0  0  0
  3  7  1  0  0  0  0
  3  2  2  0  0  0  0
  4  3  1  0  0  0  0
  5  4  2  0  0  0  0
  5  6  1  0  0  0  0
  6  1  2  0  0  0  0
  8  5  1  0  0  0  0
  9 10  1  0  0  0  0
  9 16  2  0  0  0  0
 10 12  2  0  0  0  0
 11 10  1  0  0  0  0
 12 13  1  0  0  0  0
 14 12  1  0  0  0  0
 14 15  1  0  0  0  0
 16 14  1  0  0  0  0
 18 17  1  0  0  0  0
M  END
>  <minimizedAffinity>
-3.9123826

$$$$

 OpenBabel03252504083D

 18 19  0  0  0  0  0  0  0  0999 V2000
   36.4800   29.9000   41.2780 C   0  0  0  0  0  0  0  0  0  0  0  0
   36.3080   28.8750   40.3350 C   0  0  0  0  0  0  0  0  0  0  0  0
   37.2400   27.8230   40.3430 C   0  0  0  0  0  0  0  0  0  0  0  0
   38.2460   27.8680   41.2620 N   0  0  0  0  0  0  0  0  0  0  0  0
   38.3750   28.8660   42.1470 C   0  0  0  0  0  0  0  0  0  0  0  0
   37.4930   29.8910   42.1620 N   0  0  0  0  0  0  0  0  0  0  0  0
   37.1410   27.0310   39.6440 H   0  0  0  0  0  0  0  0  0  0  0  0
   39.1690   28.9140   42.8830 H   0  0  0  0  0  0  0  0  0  0  0  0
   35.1970   28.9300   39.3980 C   0  0  0  0  0  0  0  0  0  0  0  0
   35.3380   28.7910   38.0370 C   0  0  0  0  0  0  0  0  0  0  0  0
   36.2020   28.6310   37.4250 H   0  0  0  0  0  0  0  0  0  0  0  0
   34.0690   28.9030   37.5340 C   0  0  0  0  0  0  0  0  0  0  0  0
   33.6670   28.8630   36.5260 H   0  0  0  0  0  0  0  0  0  0  0  0
   33.1870   29.1020   38.5490 N   0  0  0  0  0  0  0  0  0  0  0  0
   32.1550   29.2270   38.5280 H   0  0  0  0  0  0  0  0  0  0  0  0
   33.8940   29.1140   39.6660 N   0  0  0  0  0  0  0  0  0  0  0  0
   35.5700   30.9320   41.2730 O   0  0  0  0  0  0  0  0  0  0  0  0
   35.7610   31.8720   41.5780 H   0  0  0  0  0  0  0  0  0  0  0  0
  1  6  1  0  0  0  0
  2  3  1  0  0  0  0
  2  1  2  0  0  0  0
  3  4  2  0  0  0  0
  4  5  1  0  0  0  0
  5  6  2  0  0  0  0
  5  8  1  0  0  0  0
  7  3  1  0  0  0  0
  9 16  2  0  0  0  0
  9  2  1  0  0  0  0
 10  9  1  0  0  0  0
 11 10  1  0  0  0  0
 12 10  2  0  0  0  0
 12 14  1  0  0  0  0
 13 12  1  0  0  0  0
 14 16  1  0  0  0  0
 15 14  1  0  0  0  0
 17  1  1  0  0  0  0
 17 18  1  0  0  0  0
M  END
>  <minimizedAffinity>
-3.87112522

$$$$
