REMARK  Name = 
REMARK  2 active torsions:
REMARK  status: ('A' for Active; 'I' for Inactive)
REMARK    1  A    between atoms: C_3  and  C_7
REMARK    2  A    between atoms: C_7  and  C_13
REMARK                            x       y       z     vdW  Elec       q    Type
REMARK                         _______ _______ _______ _____ _____    ______ ____
ROOT
ATOM      1  C   UNL     1      46.964  34.772  41.926  0.00  0.00    +0.000 C 
ATOM      2  H   UNL     1      47.923  34.223  42.159  0.00  0.00    +0.000 HD
ATOM      3  H   UNL     1      47.291  35.769  41.570  0.00  0.00    +0.000 HD
ENDROOT
BRANCH   1   6
ATOM      4  C   UNL     1      44.565  36.002  44.498  0.00  0.00    +0.000 A 
ATOM      5  C   UNL     1      45.299  35.932  43.295  0.00  0.00    +0.000 A 
ATOM      6  C   UNL     1      46.195  34.858  43.170  0.00  0.00    +0.000 A 
ATOM      7  N   UNL     1      46.301  33.965  44.197  0.00  0.00    +0.000 NA
ATOM      8  C   UNL     1      45.575  34.078  45.329  0.00  0.00    +0.000 A 
ATOM      9  N   UNL     1      44.704  35.108  45.469  0.00  0.00    +0.000 NA
ATOM     10  H   UNL     1      43.890  36.853  44.535  0.00  0.00    +0.000 HD
ATOM     11  H   UNL     1      45.180  36.663  42.510  0.00  0.00    +0.000 HD
ATOM     12  H   UNL     1      45.742  33.312  46.075  0.00  0.00    +0.000 HD
ENDBRANCH   1   6
BRANCH   1  13
ATOM     13  C   UNL     1      46.313  33.988  40.856  0.00  0.00    +0.000 A 
ATOM     14  C   UNL     1      47.075  33.580  39.767  0.00  0.00    +0.000 A 
ATOM     15  H   UNL     1      48.136  33.743  39.541  0.00  0.00    +0.000 HD
ATOM     16  C   UNL     1      46.300  32.862  38.873  0.00  0.00    +0.000 A 
ATOM     17  H   UNL     1      46.539  32.399  37.940  0.00  0.00    +0.000 HD
ATOM     18  N   UNL     1      45.071  32.859  39.463  0.00  0.00    +0.000 N 
ATOM     19  H   UNL     1      44.174  32.425  39.129  0.00  0.00    +0.000 HD
ATOM     20  N   UNL     1      45.075  33.521  40.630  0.00  0.00    +0.000 NA
ENDBRANCH   1  13
TORSDOF 2
