
 OpenBabel03252509283D

 20 21  0  0  0  0  0  0  0  0999 V2000
   47.1820   34.9250   41.9910 C   0  0  0  0  0  0  0  0  0  0  0  0
   48.0920   34.2990   42.2280 H   0  0  0  0  0  0  0  0  0  0  0  0
   47.5850   35.9320   41.7620 H   0  0  0  0  0  0  0  0  0  0  0  0
   44.5960   35.9760   44.4590 C   0  0  0  0  0  0  0  0  0  0  0  0
   45.4080   35.9830   43.3050 C   0  0  0  0  0  0  0  0  0  0  0  0
   46.3320   34.9320   43.1840 C   0  0  0  0  0  0  0  0  0  0  0  0
   46.3890   33.9880   44.1680 N   0  0  0  0  0  0  0  0  0  0  0  0
   45.5890   34.0280   45.2540 C   0  0  0  0  0  0  0  0  0  0  0  0
   44.6890   35.0340   45.3890 N   0  0  0  0  0  0  0  0  0  0  0  0
   43.9030   36.8120   44.4950 H   0  0  0  0  0  0  0  0  0  0  0  0
   45.3260   36.7520   42.5530 H   0  0  0  0  0  0  0  0  0  0  0  0
   45.7220   33.2260   45.9680 H   0  0  0  0  0  0  0  0  0  0  0  0
   46.5680   34.2930   40.8050 C   0  0  0  0  0  0  0  0  0  0  0  0
   47.3930   33.8830   39.7630 C   0  0  0  0  0  0  0  0  0  0  0  0
   48.4820   33.9460   39.6520 H   0  0  0  0  0  0  0  0  0  0  0  0
   46.6450   33.3160   38.7460 C   0  0  0  0  0  0  0  0  0  0  0  0
   46.9310   32.8970   37.8040 H   0  0  0  0  0  0  0  0  0  0  0  0
   45.3680   33.4040   39.2150 N   0  0  0  0  0  0  0  0  0  0  0  0
   44.4710   33.0930   38.7640 H   0  0  0  0  0  0  0  0  0  0  0  0
   45.3200   33.9790   40.4270 N   0  0  0  0  0  0  0  0  0  0  0  0
  1  2  1  0  0  0  0
  1  6  1  0  0  0  0
  3  1  1  0  0  0  0
  4 10  1  0  0  0  0
  4  9  1  0  0  0  0
  5  4  2  0  0  0  0
  6  5  1  0  0  0  0
  6  7  2  0  0  0  0
  7  8  1  0  0  0  0
  8  9  2  0  0  0  0
  8 12  1  0  0  0  0
 11  5  1  0  0  0  0
 13  1  1  0  0  0  0
 14 13  1  0  0  0  0
 15 14  1  0  0  0  0
 16 18  1  0  0  0  0
 16 14  2  0  0  0  0
 17 16  1  0  0  0  0
 18 20  1  0  0  0  0
 19 18  1  0  0  0  0
 20 13  2  0  0  0  0
M  END
>  <minimizedAffinity>
-3.94781995

>  <minimizedRMSD>
0.392166048

$$$$
