
 OpenBabel03252504063D

 18 19  0  0  0  0  0  0  0  0999 V2000
   45.3140   33.2420   47.3890 C   0  0  0  0  0  0  0  0  0  0  0  0
   45.8170   33.3250   46.0810 C   0  0  0  0  0  0  0  0  0  0  0  0
   46.9010   32.4930   45.7490 C   0  0  0  0  0  0  0  0  0  0  0  0
   47.3890   31.6650   46.7160 N   0  0  0  0  0  0  0  0  0  0  0  0
   46.8790   31.6160   47.9550 C   0  0  0  0  0  0  0  0  0  0  0  0
   45.8370   32.4050   48.3010 N   0  0  0  0  0  0  0  0  0  0  0  0
   47.3070   32.5290   44.7700 H   0  0  0  0  0  0  0  0  0  0  0  0
   47.2570   30.9620   48.7320 H   0  0  0  0  0  0  0  0  0  0  0  0
   45.2180   34.2470   45.1300 C   0  0  0  0  0  0  0  0  0  0  0  0
   45.2080   34.0420   43.7700 C   0  0  0  0  0  0  0  0  0  0  0  0
   45.5970   33.2460   43.1690 H   0  0  0  0  0  0  0  0  0  0  0  0
   44.5560   35.1290   43.2500 C   0  0  0  0  0  0  0  0  0  0  0  0
   44.3000   35.4230   42.2370 H   0  0  0  0  0  0  0  0  0  0  0  0
   44.1830   35.9650   44.2550 N   0  0  0  0  0  0  0  0  0  0  0  0
   43.6750   36.8720   44.2200 H   0  0  0  0  0  0  0  0  0  0  0  0
   44.5940   35.4100   45.3820 N   0  0  0  0  0  0  0  0  0  0  0  0
   44.2530   34.0550   47.7170 O   0  0  0  0  0  0  0  0  0  0  0  0
   44.0510   34.3940   48.6430 H   0  0  0  0  0  0  0  0  0  0  0  0
  1 17  1  0  0  0  0
  1  6  1  0  0  0  0
  2  1  2  0  0  0  0
  3  2  1  0  0  0  0
  3  4  2  0  0  0  0
  4  5  1  0  0  0  0
  5  6  2  0  0  0  0
  5  8  1  0  0  0  0
  7  3  1  0  0  0  0
  9 16  2  0  0  0  0
  9  2  1  0  0  0  0
 10  9  1  0  0  0  0
 11 10  1  0  0  0  0
 12 10  2  0  0  0  0
 12 14  1  0  0  0  0
 13 12  1  0  0  0  0
 14 16  1  0  0  0  0
 15 14  1  0  0  0  0
 17 18  1  0  0  0  0
M  END
>  <minimizedAffinity>
-4.79349041

>  <minimizedRMSD>
3.76279736

$$$$
