
 OpenBabel03252504453D

 20 21  0  0  0  0  0  0  0  0999 V2000
   37.6090   28.3080   42.9960 C   0  0  0  0  0  0  0  0  0  0  0  0
   38.9440   27.9150   43.1230 C   0  0  0  0  0  0  0  0  0  0  0  0
   39.9140   28.7420   42.5420 C   0  0  0  0  0  0  0  0  0  0  0  0
   39.5060   29.8620   41.8950 N   0  0  0  0  0  0  0  0  0  0  0  0
   38.1950   30.2010   41.7990 C   0  0  0  0  0  0  0  0  0  0  0  0
   37.2480   29.4170   42.3530 N   0  0  0  0  0  0  0  0  0  0  0  0
   39.2460   27.0190   43.6420 H   0  0  0  0  0  0  0  0  0  0  0  0
   40.9740   28.5170   42.5900 H   0  0  0  0  0  0  0  0  0  0  0  0
   37.8780   31.4310   41.0790 C   0  0  0  0  0  0  0  0  0  0  0  0
   38.9060   32.3440   40.9520 C   0  0  0  0  0  0  0  0  0  0  0  0
   39.9460   32.3890   41.2670 H   0  0  0  0  0  0  0  0  0  0  0  0
   38.3750   33.4250   40.2380 C   0  0  0  0  0  0  0  0  0  0  0  0
   38.8460   34.3580   39.9220 H   0  0  0  0  0  0  0  0  0  0  0  0
   37.0710   33.1270   39.9660 N   0  0  0  0  0  0  0  0  0  0  0  0
   36.4290   33.7490   39.4460 H   0  0  0  0  0  0  0  0  0  0  0  0
   36.7860   31.9360   40.4720 N   0  0  0  0  0  0  0  0  0  0  0  0
   36.5800   27.4160   43.6210 C   0  0  0  0  0  0  0  0  0  0  0  0
   36.2790   26.7030   42.8140 H   0  0  0  0  0  0  0  0  0  0  0  0
   37.0290   26.8450   44.4520 H   0  0  0  0  0  0  0  0  0  0  0  0
   35.6640   27.9590   43.9140 H   0  0  0  0  0  0  0  0  0  0  0  0
  1  2  1  0  0  0  0
  1 17  1  0  0  0  0
  2  7  1  0  0  0  0
  3  8  1  0  0  0  0
  3  2  2  0  0  0  0
  4  3  1  0  0  0  0
  5  4  2  0  0  0  0
  5  6  1  0  0  0  0
  6  1  2  0  0  0  0
  9  5  1  0  0  0  0
 10  9  1  0  0  0  0
 10 11  1  0  0  0  0
 12 10  2  0  0  0  0
 13 12  1  0  0  0  0
 14 12  1  0  0  0  0
 14 16  1  0  0  0  0
 15 14  1  0  0  0  0
 16  9  2  0  0  0  0
 17 20  1  0  0  0  0
 17 19  1  0  0  0  0
 18 17  1  0  0  0  0
M  END
>  <minimizedAffinity>
-4.25332975

$$$$

 OpenBabel03252504453D

 20 21  0  0  0  0  0  0  0  0999 V2000
   37.4310   28.9850   42.1980 C   0  0  0  0  0  0  0  0  0  0  0  0
   36.2770   28.3900   41.6820 C   0  0  0  0  0  0  0  0  0  0  0  0
   35.5560   29.1160   40.7240 C   0  0  0  0  0  0  0  0  0  0  0  0
   36.0130   30.3390   40.3590 N   0  0  0  0  0  0  0  0  0  0  0  0
   37.1420   30.8740   40.8920 C   0  0  0  0  0  0  0  0  0  0  0  0
   37.8490   30.1890   41.8140 N   0  0  0  0  0  0  0  0  0  0  0  0
   35.9310   27.4150   41.9850 H   0  0  0  0  0  0  0  0  0  0  0  0
   34.6490   28.7340   40.2680 H   0  0  0  0  0  0  0  0  0  0  0  0
   37.5350   32.1990   40.4210 C   0  0  0  0  0  0  0  0  0  0  0  0
   38.6790   32.7290   40.9830 C   0  0  0  0  0  0  0  0  0  0  0  0
   39.4030   32.4000   41.7250 H   0  0  0  0  0  0  0  0  0  0  0  0
   38.8550   33.9840   40.3870 C   0  0  0  0  0  0  0  0  0  0  0  0
   39.6330   34.7340   40.5430 H   0  0  0  0  0  0  0  0  0  0  0  0
   37.8280   34.1580   39.5050 N   0  0  0  0  0  0  0  0  0  0  0  0
   37.7020   35.0010   38.9190 H   0  0  0  0  0  0  0  0  0  0  0  0
   37.0480   33.0880   39.5330 N   0  0  0  0  0  0  0  0  0  0  0  0
   38.1950   28.2000   43.2220 C   0  0  0  0  0  0  0  0  0  0  0  0
   37.7800   28.5220   44.2100 H   0  0  0  0  0  0  0  0  0  0  0  0
   38.0040   27.1210   43.0920 H   0  0  0  0  0  0  0  0  0  0  0  0
   39.2690   28.4500   43.2390 H   0  0  0  0  0  0  0  0  0  0  0  0
  1 17  1  0  0  0  0
  2  7  1  0  0  0  0
  2  1  2  0  0  0  0
  3  2  1  0  0  0  0
  4  3  2  0  0  0  0
  4  5  1  0  0  0  0
  5  6  2  0  0  0  0
  6  1  1  0  0  0  0
  8  3  1  0  0  0  0
  9  5  1  0  0  0  0
  9 10  1  0  0  0  0
 10 11  1  0  0  0  0
 12 13  1  0  0  0  0
 12 10  2  0  0  0  0
 14 16  1  0  0  0  0
 14 12  1  0  0  0  0
 15 14  1  0  0  0  0
 16  9  2  0  0  0  0
 17 20  1  0  0  0  0
 17 18  1  0  0  0  0
 19 17  1  0  0  0  0
M  END
>  <minimizedAffinity>
-4.22639132

$$$$

 OpenBabel03252504453D

 20 21  0  0  0  0  0  0  0  0999 V2000
   37.1850   27.0060   41.4670 C   0  0  0  0  0  0  0  0  0  0  0  0
   37.4170   26.7960   42.8290 C   0  0  0  0  0  0  0  0  0  0  0  0
   37.6250   27.9310   43.6250 C   0  0  0  0  0  0  0  0  0  0  0  0
   37.5910   29.1510   43.0350 N   0  0  0  0  0  0  0  0  0  0  0  0
   37.3620   29.3010   41.7060 C   0  0  0  0  0  0  0  0  0  0  0  0
   37.1580   28.2220   40.9240 N   0  0  0  0  0  0  0  0  0  0  0  0
   37.4400   25.8160   43.2780 H   0  0  0  0  0  0  0  0  0  0  0  0
   37.8130   27.8650   44.6910 H   0  0  0  0  0  0  0  0  0  0  0  0
   37.3480   30.6660   41.1840 C   0  0  0  0  0  0  0  0  0  0  0  0
   38.5700   31.3050   41.1210 C   0  0  0  0  0  0  0  0  0  0  0  0
   39.5950   31.0440   41.3730 H   0  0  0  0  0  0  0  0  0  0  0  0
   38.3120   32.5780   40.5980 C   0  0  0  0  0  0  0  0  0  0  0  0
   38.9950   33.4020   40.3860 H   0  0  0  0  0  0  0  0  0  0  0  0
   36.9680   32.6550   40.3700 N   0  0  0  0  0  0  0  0  0  0  0  0
   36.4910   33.4870   39.9820 H   0  0  0  0  0  0  0  0  0  0  0  0
   36.4040   31.5090   40.7220 N   0  0  0  0  0  0  0  0  0  0  0  0
   36.9630   25.7860   40.6250 C   0  0  0  0  0  0  0  0  0  0  0  0
   37.9760   25.5030   40.2440 H   0  0  0  0  0  0  0  0  0  0  0  0
   36.5740   24.9620   41.2470 H   0  0  0  0  0  0  0  0  0  0  0  0
   36.3420   25.9870   39.7350 H   0  0  0  0  0  0  0  0  0  0  0  0
  1  2  1  0  0  0  0
  2  7  1  0  0  0  0
  2  3  2  0  0  0  0
  3  8  1  0  0  0  0
  4  3  1  0  0  0  0
  5  4  2  0  0  0  0
  6  1  2  0  0  0  0
  6  5  1  0  0  0  0
  9  5  1  0  0  0  0
 10  9  1  0  0  0  0
 10 11  1  0  0  0  0
 12 10  2  0  0  0  0
 13 12  1  0  0  0  0
 14 12  1  0  0  0  0
 14 16  1  0  0  0  0
 15 14  1  0  0  0  0
 16  9  2  0  0  0  0
 17 19  1  0  0  0  0
 17  1  1  0  0  0  0
 18 17  1  0  0  0  0
 20 17  1  0  0  0  0
M  END
>  <minimizedAffinity>
-4.19774914

$$$$

 OpenBabel03252504453D

 20 21  0  0  0  0  0  0  0  0999 V2000
   39.5230   27.9900   43.0370 C   0  0  0  0  0  0  0  0  0  0  0  0
   38.5330   27.0870   43.4340 C   0  0  0  0  0  0  0  0  0  0  0  0
   37.2060   27.4130   43.1230 C   0  0  0  0  0  0  0  0  0  0  0  0
   36.9620   28.5730   42.4640 N   0  0  0  0  0  0  0  0  0  0  0  0
   37.9600   29.4180   42.1000 C   0  0  0  0  0  0  0  0  0  0  0  0
   39.2430   29.1200   42.3900 N   0  0  0  0  0  0  0  0  0  0  0  0
   38.7500   26.1700   43.9570 H   0  0  0  0  0  0  0  0  0  0  0  0
   36.3730   26.7730   43.3910 H   0  0  0  0  0  0  0  0  0  0  0  0
   37.5740   30.6360   41.3940 C   0  0  0  0  0  0  0  0  0  0  0  0
   38.5990   31.5010   41.0670 C   0  0  0  0  0  0  0  0  0  0  0  0
   39.6770   31.5120   41.2060 H   0  0  0  0  0  0  0  0  0  0  0  0
   37.9970   32.5800   40.4070 C   0  0  0  0  0  0  0  0  0  0  0  0
   38.4430   33.4820   39.9830 H   0  0  0  0  0  0  0  0  0  0  0  0
   36.6560   32.3280   40.3630 N   0  0  0  0  0  0  0  0  0  0  0  0
   35.9600   32.9590   39.9310 H   0  0  0  0  0  0  0  0  0  0  0  0
   36.4160   31.1670   40.9530 N   0  0  0  0  0  0  0  0  0  0  0  0
   40.9390   27.6320   43.3740 C   0  0  0  0  0  0  0  0  0  0  0  0
   41.1330   28.1050   44.3690 H   0  0  0  0  0  0  0  0  0  0  0  0
   41.0380   26.5380   43.4750 H   0  0  0  0  0  0  0  0  0  0  0  0
   41.6700   28.0710   42.6730 H   0  0  0  0  0  0  0  0  0  0  0  0
  1 17  1  0  0  0  0
  1  2  1  0  0  0  0
  2  7  1  0  0  0  0
  3  8  1  0  0  0  0
  3  2  2  0  0  0  0
  4  3  1  0  0  0  0
  5  6  1  0  0  0  0
  5  4  2  0  0  0  0
  6  1  2  0  0  0  0
  9  5  1  0  0  0  0
 10 11  1  0  0  0  0
 10  9  1  0  0  0  0
 12 10  2  0  0  0  0
 13 12  1  0  0  0  0
 14 12  1  0  0  0  0
 14 16  1  0  0  0  0
 15 14  1  0  0  0  0
 16  9  2  0  0  0  0
 17 19  1  0  0  0  0
 17 18  1  0  0  0  0
 20 17  1  0  0  0  0
M  END
>  <minimizedAffinity>
-4.16183758

$$$$

 OpenBabel03252504453D

 20 21  0  0  0  0  0  0  0  0999 V2000
   38.2240   25.5520   42.2180 C   0  0  0  0  0  0  0  0  0  0  0  0
   39.2830   25.8350   43.0840 C   0  0  0  0  0  0  0  0  0  0  0  0
   39.4880   27.1780   43.4290 C   0  0  0  0  0  0  0  0  0  0  0  0
   38.6570   28.1140   42.9090 N   0  0  0  0  0  0  0  0  0  0  0  0
   37.6400   27.7880   42.0700 C   0  0  0  0  0  0  0  0  0  0  0  0
   37.4280   26.5010   41.7280 N   0  0  0  0  0  0  0  0  0  0  0  0
   39.9330   25.0750   43.4870 H   0  0  0  0  0  0  0  0  0  0  0  0
   40.2860   27.4920   44.0940 H   0  0  0  0  0  0  0  0  0  0  0  0
   36.8110   28.8830   41.5740 C   0  0  0  0  0  0  0  0  0  0  0  0
   35.8700   28.5490   40.6210 C   0  0  0  0  0  0  0  0  0  0  0  0
   35.5690   27.6350   40.1160 H   0  0  0  0  0  0  0  0  0  0  0  0
   35.2070   29.7410   40.3010 C   0  0  0  0  0  0  0  0  0  0  0  0
   34.3950   29.9260   39.5950 H   0  0  0  0  0  0  0  0  0  0  0  0
   35.7640   30.7280   41.0610 N   0  0  0  0  0  0  0  0  0  0  0  0
   35.4690   31.7190   41.0330 H   0  0  0  0  0  0  0  0  0  0  0  0
   36.7190   30.2050   41.8160 N   0  0  0  0  0  0  0  0  0  0  0  0
   38.0140   24.1130   41.8560 C   0  0  0  0  0  0  0  0  0  0  0  0
   38.6080   23.9550   40.9210 H   0  0  0  0  0  0  0  0  0  0  0  0
   38.4180   23.4600   42.6480 H   0  0  0  0  0  0  0  0  0  0  0  0
   36.9650   23.8850   41.6000 H   0  0  0  0  0  0  0  0  0  0  0  0
  1  2  1  0  0  0  0
  2  3  2  0  0  0  0
  2  7  1  0  0  0  0
  3  8  1  0  0  0  0
  4  3  1  0  0  0  0
  5  4  2  0  0  0  0
  6  5  1  0  0  0  0
  6  1  2  0  0  0  0
  9 16  2  0  0  0  0
  9  5  1  0  0  0  0
 10  9  1  0  0  0  0
 11 10  1  0  0  0  0
 12 10  2  0  0  0  0
 12 14  1  0  0  0  0
 13 12  1  0  0  0  0
 14 16  1  0  0  0  0
 15 14  1  0  0  0  0
 17  1  1  0  0  0  0
 17 19  1  0  0  0  0
 18 17  1  0  0  0  0
 20 17  1  0  0  0  0
M  END
>  <minimizedAffinity>
-4.14195776

$$$$

 OpenBabel03252504453D

 20 21  0  0  0  0  0  0  0  0999 V2000
   35.8000   29.6520   38.0470 C   0  0  0  0  0  0  0  0  0  0  0  0
   35.0280   28.9230   38.9550 C   0  0  0  0  0  0  0  0  0  0  0  0
   35.1180   29.2840   40.3060 C   0  0  0  0  0  0  0  0  0  0  0  0
   35.9400   30.3060   40.6500 N   0  0  0  0  0  0  0  0  0  0  0  0
   36.6710   30.9830   39.7280 C   0  0  0  0  0  0  0  0  0  0  0  0
   36.5960   30.6510   38.4240 N   0  0  0  0  0  0  0  0  0  0  0  0
   34.3810   28.1130   38.6600 H   0  0  0  0  0  0  0  0  0  0  0  0
   34.5560   28.7750   41.0820 H   0  0  0  0  0  0  0  0  0  0  0  0
   37.5200   32.0660   40.2190 C   0  0  0  0  0  0  0  0  0  0  0  0
   37.3480   33.2950   39.6160 C   0  0  0  0  0  0  0  0  0  0  0  0
   36.7090   33.6900   38.8290 H   0  0  0  0  0  0  0  0  0  0  0  0
   38.2540   34.1610   40.2400 C   0  0  0  0  0  0  0  0  0  0  0  0
   38.4460   35.2220   40.0680 H   0  0  0  0  0  0  0  0  0  0  0  0
   38.9270   33.4320   41.1780 N   0  0  0  0  0  0  0  0  0  0  0  0
   39.6620   33.8160   41.7950 H   0  0  0  0  0  0  0  0  0  0  0  0
   38.4810   32.1850   41.1560 N   0  0  0  0  0  0  0  0  0  0  0  0
   35.6970   29.2580   36.6040 C   0  0  0  0  0  0  0  0  0  0  0  0
   36.5090   28.5060   36.4450 H   0  0  0  0  0  0  0  0  0  0  0  0
   34.7230   28.7750   36.4130 H   0  0  0  0  0  0  0  0  0  0  0  0
   35.9080   30.0940   35.9160 H   0  0  0  0  0  0  0  0  0  0  0  0
  1  6  2  0  0  0  0
  1  2  1  0  0  0  0
  2  3  2  0  0  0  0
  3  4  1  0  0  0  0
  3  8  1  0  0  0  0
  5  9  1  0  0  0  0
  5  4  2  0  0  0  0
  6  5  1  0  0  0  0
  7  2  1  0  0  0  0
  9 16  2  0  0  0  0
 10  9  1  0  0  0  0
 10 12  2  0  0  0  0
 11 10  1  0  0  0  0
 12 14  1  0  0  0  0
 13 12  1  0  0  0  0
 14 15  1  0  0  0  0
 16 14  1  0  0  0  0
 17  1  1  0  0  0  0
 18 17  1  0  0  0  0
 19 17  1  0  0  0  0
 20 17  1  0  0  0  0
M  END
>  <minimizedAffinity>
-4.03022814

$$$$

 OpenBabel03252504453D

 20 21  0  0  0  0  0  0  0  0999 V2000
   36.2980   28.7940   41.1440 C   0  0  0  0  0  0  0  0  0  0  0  0
   36.9600   29.8640   41.7510 C   0  0  0  0  0  0  0  0  0  0  0  0
   38.0550   29.5580   42.5700 C   0  0  0  0  0  0  0  0  0  0  0  0
   38.4040   28.2570   42.7270 N   0  0  0  0  0  0  0  0  0  0  0  0
   37.7270   27.2520   42.1150 C   0  0  0  0  0  0  0  0  0  0  0  0
   36.6710   27.5280   41.3220 N   0  0  0  0  0  0  0  0  0  0  0  0
   36.6670   30.8920   41.6120 H   0  0  0  0  0  0  0  0  0  0  0  0
   38.6300   30.3240   43.0820 H   0  0  0  0  0  0  0  0  0  0  0  0
   38.1950   25.8910   42.3590 C   0  0  0  0  0  0  0  0  0  0  0  0
   39.4310   25.7720   42.9630 C   0  0  0  0  0  0  0  0  0  0  0  0
   40.1870   26.4650   43.3230 H   0  0  0  0  0  0  0  0  0  0  0  0
   39.6650   24.3970   43.0930 C   0  0  0  0  0  0  0  0  0  0  0  0
   40.5200   23.8670   43.5160 H   0  0  0  0  0  0  0  0  0  0  0  0
   38.5800   23.7530   42.5720 N   0  0  0  0  0  0  0  0  0  0  0  0
   38.4780   22.7250   42.5350 H   0  0  0  0  0  0  0  0  0  0  0  0
   37.7110   24.6530   42.1390 N   0  0  0  0  0  0  0  0  0  0  0  0
   35.1290   29.1320   40.2700 C   0  0  0  0  0  0  0  0  0  0  0  0
   34.2370   29.0930   40.9430 H   0  0  0  0  0  0  0  0  0  0  0  0
   35.2340   30.1580   39.8770 H   0  0  0  0  0  0  0  0  0  0  0  0
   34.9550   28.3810   39.4790 H   0  0  0  0  0  0  0  0  0  0  0  0
  1  6  2  0  0  0  0
  1  2  1  0  0  0  0
  2  3  2  0  0  0  0
  3  4  1  0  0  0  0
  3  8  1  0  0  0  0
  5  9  1  0  0  0  0
  5  4  2  0  0  0  0
  6  5  1  0  0  0  0
  7  2  1  0  0  0  0
  9 10  1  0  0  0  0
 10 12  2  0  0  0  0
 10 11  1  0  0  0  0
 12 13  1  0  0  0  0
 14 12  1  0  0  0  0
 15 14  1  0  0  0  0
 16  9  2  0  0  0  0
 16 14  1  0  0  0  0
 17 18  1  0  0  0  0
 17  1  1  0  0  0  0
 19 17  1  0  0  0  0
 20 17  1  0  0  0  0
M  END
>  <minimizedAffinity>
-4.02688122

$$$$

 OpenBabel03252504453D

 20 21  0  0  0  0  0  0  0  0999 V2000
   37.1500   28.3160   42.3100 C   0  0  0  0  0  0  0  0  0  0  0  0
   37.2520   27.4150   41.2460 C   0  0  0  0  0  0  0  0  0  0  0  0
   37.5400   27.9460   39.9820 C   0  0  0  0  0  0  0  0  0  0  0  0
   37.7010   29.2880   39.8650 N   0  0  0  0  0  0  0  0  0  0  0  0
   37.5910   30.1220   40.9300 C   0  0  0  0  0  0  0  0  0  0  0  0
   37.3150   29.6280   42.1540 N   0  0  0  0  0  0  0  0  0  0  0  0
   37.1200   26.3510   41.3620 H   0  0  0  0  0  0  0  0  0  0  0  0
   37.6380   27.3240   39.0990 H   0  0  0  0  0  0  0  0  0  0  0  0
   37.7850   31.5480   40.6800 C   0  0  0  0  0  0  0  0  0  0  0  0
   37.0320   32.0940   39.6610 C   0  0  0  0  0  0  0  0  0  0  0  0
   36.2920   31.7200   38.9570 H   0  0  0  0  0  0  0  0  0  0  0  0
   37.3810   33.4500   39.6080 C   0  0  0  0  0  0  0  0  0  0  0  0
   37.0240   34.2420   38.9490 H   0  0  0  0  0  0  0  0  0  0  0  0
   38.3150   33.6630   40.5800 N   0  0  0  0  0  0  0  0  0  0  0  0
   38.7550   34.5780   40.7730 H   0  0  0  0  0  0  0  0  0  0  0  0
   38.5480   32.5220   41.2130 N   0  0  0  0  0  0  0  0  0  0  0  0
   36.8410   27.7380   43.6570 C   0  0  0  0  0  0  0  0  0  0  0  0
   35.7250   27.7620   43.7400 H   0  0  0  0  0  0  0  0  0  0  0  0
   37.1770   26.6880   43.7050 H   0  0  0  0  0  0  0  0  0  0  0  0
   37.2280   28.3540   44.4870 H   0  0  0  0  0  0  0  0  0  0  0  0
  1 17  1  0  0  0  0
  2  7  1  0  0  0  0
  2  1  2  0  0  0  0
  3  2  1  0  0  0  0
  4  3  2  0  0  0  0
  4  5  1  0  0  0  0
  5  6  2  0  0  0  0
  6  1  1  0  0  0  0
  8  3  1  0  0  0  0
  9  5  1  0  0  0  0
  9 16  2  0  0  0  0
 10  9  1  0  0  0  0
 11 10  1  0  0  0  0
 12 10  2  0  0  0  0
 12 14  1  0  0  0  0
 13 12  1  0  0  0  0
 14 15  1  0  0  0  0
 14 16  1  0  0  0  0
 17 19  1  0  0  0  0
 17 18  1  0  0  0  0
 17 20  1  0  0  0  0
M  END
>  <minimizedAffinity>
-3.98058295

$$$$

 OpenBabel03252504453D

 20 21  0  0  0  0  0  0  0  0999 V2000
   37.1480   30.7280   38.2690 C   0  0  0  0  0  0  0  0  0  0  0  0
   37.3010   32.0930   38.5280 C   0  0  0  0  0  0  0  0  0  0  0  0
   37.3280   32.4910   39.8710 C   0  0  0  0  0  0  0  0  0  0  0  0
   37.2030   31.5420   40.8310 N   0  0  0  0  0  0  0  0  0  0  0  0
   37.0560   30.2270   40.5270 C   0  0  0  0  0  0  0  0  0  0  0  0
   37.0290   29.8250   39.2410 N   0  0  0  0  0  0  0  0  0  0  0  0
   37.3990   32.8320   37.7490 H   0  0  0  0  0  0  0  0  0  0  0  0
   37.4430   33.5290   40.1670 H   0  0  0  0  0  0  0  0  0  0  0  0
   36.9310   29.2970   41.6470 C   0  0  0  0  0  0  0  0  0  0  0  0
   37.8020   29.4920   42.6990 C   0  0  0  0  0  0  0  0  0  0  0  0
   38.6000   30.1950   42.9250 H   0  0  0  0  0  0  0  0  0  0  0  0
   37.5000   28.4980   43.6390 C   0  0  0  0  0  0  0  0  0  0  0  0
   37.9480   28.2910   44.6120 H   0  0  0  0  0  0  0  0  0  0  0  0
   36.4760   27.7560   43.1240 N   0  0  0  0  0  0  0  0  0  0  0  0
   36.0450   26.9480   43.6050 H   0  0  0  0  0  0  0  0  0  0  0  0
   36.1450   28.2420   41.9370 N   0  0  0  0  0  0  0  0  0  0  0  0
   37.1210   30.3130   36.8290 C   0  0  0  0  0  0  0  0  0  0  0  0
   36.0410   30.3250   36.5400 H   0  0  0  0  0  0  0  0  0  0  0  0
   37.6630   31.0500   36.2120 H   0  0  0  0  0  0  0  0  0  0  0  0
   37.4720   29.2780   36.6760 H   0  0  0  0  0  0  0  0  0  0  0  0
  1  2  2  0  0  0  0
  1  6  1  0  0  0  0
  2  3  1  0  0  0  0
  3  8  1  0  0  0  0
  3  4  2  0  0  0  0
  5  4  1  0  0  0  0
  5  9  1  0  0  0  0
  6  5  2  0  0  0  0
  7  2  1  0  0  0  0
  9 16  2  0  0  0  0
  9 10  1  0  0  0  0
 10 11  1  0  0  0  0
 10 12  2  0  0  0  0
 12 13  1  0  0  0  0
 14 15  1  0  0  0  0
 14 12  1  0  0  0  0
 16 14  1  0  0  0  0
 17  1  1  0  0  0  0
 18 17  1  0  0  0  0
 19 17  1  0  0  0  0
 20 17  1  0  0  0  0
M  END
>  <minimizedAffinity>
-3.9470377

$$$$
