
 OpenBabel03242513153D

 29 31  0  0  0  0  0  0  0  0999 V2000
   38.4500   29.9870   42.9360 Cl  0  0  0  0  0  0  0  0  0  0  0  0
   37.5000   29.4770   41.5230 C   0  0  0  0  0  0  0  0  0  0  0  0
   36.8900   28.2730   41.5330 C   0  0  0  0  0  0  0  0  0  0  0  0
   36.1390   27.9460   40.4340 C   0  0  0  0  0  0  0  0  0  0  0  0
   36.0230   28.8120   39.3750 C   0  0  0  0  0  0  0  0  0  0  0  0
   36.6670   30.0570   39.3840 C   0  0  0  0  0  0  0  0  0  0  0  0
   37.4130   30.3710   40.4910 C   0  0  0  0  0  0  0  0  0  0  0  0
   35.5740   27.0500   40.2770 H   0  0  0  0  0  0  0  0  0  0  0  0
   35.4320   28.5790   38.4850 H   0  0  0  0  0  0  0  0  0  0  0  0
   36.5260   30.6830   38.5100 H   0  0  0  0  0  0  0  0  0  0  0  0
   38.0520   31.6800   40.4180 C   0  0  0  0  0  0  0  0  0  0  0  0
   39.3460   32.1330   40.4300 C   0  0  0  0  0  0  0  0  0  0  0  0
   40.2180   31.5380   40.5050 H   0  0  0  0  0  0  0  0  0  0  0  0
   39.4460   33.4810   40.3340 C   0  0  0  0  0  0  0  0  0  0  0  0
   40.2940   34.1200   40.3170 H   0  0  0  0  0  0  0  0  0  0  0  0
   38.1900   33.8810   40.2590 N   0  0  0  0  0  0  0  0  0  0  0  0
   37.7430   34.8420   40.1720 H   0  0  0  0  0  0  0  0  0  0  0  0
   37.3860   32.8540   40.3080 N   0  0  0  0  0  0  0  0  0  0  0  0
   37.0640   27.3790   42.6590 C   0  0  0  0  0  0  0  0  0  0  0  0
   36.2090   27.4650   43.5850 O   0  0  0  0  0  0  0  0  0  0  0  0
   40.1770   25.8180   43.6790 C   0  0  0  0  0  0  0  0  0  0  0  0
   40.2750   24.6530   42.9150 C   0  0  0  0  0  0  0  0  0  0  0  0
   39.2210   24.4340   42.0330 C   0  0  0  0  0  0  0  0  0  0  0  0
   38.1960   25.3380   41.9720 N   0  0  0  0  0  0  0  0  0  0  0  0
   38.1530   26.4380   42.7280 C   0  0  0  0  0  0  0  0  0  0  0  0
   39.1520   26.6690   43.5800 N   0  0  0  0  0  0  0  0  0  0  0  0
   40.9710   26.0500   44.3910 H   0  0  0  0  0  0  0  0  0  0  0  0
   41.1120   24.0000   43.0260 H   0  0  0  0  0  0  0  0  0  0  0  0
   39.2610   23.5440   41.4250 H   0  0  0  0  0  0  0  0  0  0  0  0
  2  3  1  0  0  0  0
  2  1  1  0  0  0  0
  3 19  1  0  0  0  0
  4  3  2  0  0  0  0
  5  6  2  0  0  0  0
  5  4  1  0  0  0  0
  6  7  1  0  0  0  0
  7  2  2  0  0  0  0
  8  4  1  0  0  0  0
  9  5  1  0  0  0  0
 10  6  1  0  0  0  0
 11 12  1  0  0  0  0
 11  7  1  0  0  0  0
 12 13  1  0  0  0  0
 14 12  2  0  0  0  0
 15 14  1  0  0  0  0
 16 18  1  0  0  0  0
 16 14  1  0  0  0  0
 17 16  1  0  0  0  0
 18 11  2  0  0  0  0
 19 25  1  0  0  0  0
 19 20  2  0  0  0  0
 21 27  1  0  0  0  0
 22 28  1  0  0  0  0
 22 21  2  0  0  0  0
 23 22  1  0  0  0  0
 24 23  2  0  0  0  0
 24 25  1  0  0  0  0
 25 26  2  0  0  0  0
 26 21  1  0  0  0  0
 29 23  1  0  0  0  0
M  END
>  <minimizedAffinity>
-5.41997433

$$$$

 OpenBabel03242513153D

 29 31  0  0  0  0  0  0  0  0999 V2000
   39.1140   27.1720   39.8630 Cl  0  0  0  0  0  0  0  0  0  0  0  0
   38.2590   27.4500   41.3960 C   0  0  0  0  0  0  0  0  0  0  0  0
   38.2840   28.6780   41.9570 C   0  0  0  0  0  0  0  0  0  0  0  0
   37.5770   28.8470   43.1180 C   0  0  0  0  0  0  0  0  0  0  0  0
   36.8800   27.8050   43.6790 C   0  0  0  0  0  0  0  0  0  0  0  0
   36.8700   26.5360   43.0810 C   0  0  0  0  0  0  0  0  0  0  0  0
   37.5810   26.3830   41.9190 C   0  0  0  0  0  0  0  0  0  0  0  0
   37.4680   29.7470   43.6880 H   0  0  0  0  0  0  0  0  0  0  0  0
   36.3070   27.9080   44.6050 H   0  0  0  0  0  0  0  0  0  0  0  0
   36.2960   25.7670   43.5860 H   0  0  0  0  0  0  0  0  0  0  0  0
   37.5210   25.0350   41.3660 C   0  0  0  0  0  0  0  0  0  0  0  0
   36.7230   24.3920   40.4540 C   0  0  0  0  0  0  0  0  0  0  0  0
   35.9080   24.8130   39.9270 H   0  0  0  0  0  0  0  0  0  0  0  0
   37.0670   23.0960   40.2570 C   0  0  0  0  0  0  0  0  0  0  0  0
   36.6500   22.3500   39.6280 H   0  0  0  0  0  0  0  0  0  0  0  0
   38.1010   22.9230   41.0600 N   0  0  0  0  0  0  0  0  0  0  0  0
   38.7220   22.0850   41.2670 H   0  0  0  0  0  0  0  0  0  0  0  0
   38.3660   24.0300   41.6990 N   0  0  0  0  0  0  0  0  0  0  0  0
   39.0560   29.7400   41.3470 C   0  0  0  0  0  0  0  0  0  0  0  0
   40.3090   29.6870   41.5030 O   0  0  0  0  0  0  0  0  0  0  0  0
   38.1220   33.0820   40.2890 C   0  0  0  0  0  0  0  0  0  0  0  0
   37.2810   32.9020   39.1880 C   0  0  0  0  0  0  0  0  0  0  0  0
   37.0520   31.5770   38.8310 C   0  0  0  0  0  0  0  0  0  0  0  0
   37.6410   30.5740   39.5520 N   0  0  0  0  0  0  0  0  0  0  0  0
   38.4380   30.8040   40.5990 C   0  0  0  0  0  0  0  0  0  0  0  0
   38.6720   32.0660   40.9600 N   0  0  0  0  0  0  0  0  0  0  0  0
   38.3430   34.0980   40.6220 H   0  0  0  0  0  0  0  0  0  0  0  0
   36.8640   33.7420   38.6800 H   0  0  0  0  0  0  0  0  0  0  0  0
   36.4080   31.3960   37.9860 H   0  0  0  0  0  0  0  0  0  0  0  0
  1  2  1  0  0  0  0
  2  7  2  0  0  0  0
  2  3  1  0  0  0  0
  3  4  2  0  0  0  0
  4  5  1  0  0  0  0
  4  8  1  0  0  0  0
  5  9  1  0  0  0  0
  6 10  1  0  0  0  0
  6  5  2  0  0  0  0
  7  6  1  0  0  0  0
 11 18  2  0  0  0  0
 11  7  1  0  0  0  0
 12 11  1  0  0  0  0
 13 12  1  0  0  0  0
 14 12  2  0  0  0  0
 14 16  1  0  0  0  0
 15 14  1  0  0  0  0
 16 17  1  0  0  0  0
 16 18  1  0  0  0  0
 19 20  2  0  0  0  0
 19  3  1  0  0  0  0
 21 27  1  0  0  0  0
 21 26  1  0  0  0  0
 22 21  2  0  0  0  0
 23 22  1  0  0  0  0
 23 24  2  0  0  0  0
 24 25  1  0  0  0  0
 25 26  2  0  0  0  0
 25 19  1  0  0  0  0
 28 22  1  0  0  0  0
 29 23  1  0  0  0  0
M  END
>  <minimizedAffinity>
-5.394104

$$$$

 OpenBabel03242513153D

 29 31  0  0  0  0  0  0  0  0999 V2000
   39.6010   27.8790   42.7000 Cl  0  0  0  0  0  0  0  0  0  0  0  0
   38.8290   26.3280   42.3040 C   0  0  0  0  0  0  0  0  0  0  0  0
   37.4830   26.2580   42.2250 C   0  0  0  0  0  0  0  0  0  0  0  0
   36.9410   25.0480   41.8780 C   0  0  0  0  0  0  0  0  0  0  0  0
   37.7420   23.9620   41.6280 C   0  0  0  0  0  0  0  0  0  0  0  0
   39.1390   24.0560   41.7170 C   0  0  0  0  0  0  0  0  0  0  0  0
   39.6660   25.2730   42.0630 C   0  0  0  0  0  0  0  0  0  0  0  0
   35.9040   24.8130   41.7510 H   0  0  0  0  0  0  0  0  0  0  0  0
   37.3400   22.9830   41.3500 H   0  0  0  0  0  0  0  0  0  0  0  0
   39.7000   23.1530   41.5040 H   0  0  0  0  0  0  0  0  0  0  0  0
   41.1220   25.2840   42.1380 C   0  0  0  0  0  0  0  0  0  0  0  0
   42.1380   25.6210   41.2800 C   0  0  0  0  0  0  0  0  0  0  0  0
   42.0300   25.9750   40.2890 H   0  0  0  0  0  0  0  0  0  0  0  0
   43.3710   25.4610   41.8180 C   0  0  0  0  0  0  0  0  0  0  0  0
   44.3380   25.6330   41.4130 H   0  0  0  0  0  0  0  0  0  0  0  0
   43.1250   25.0160   43.0360 N   0  0  0  0  0  0  0  0  0  0  0  0
   43.7580   24.7430   43.8460 H   0  0  0  0  0  0  0  0  0  0  0  0
   41.8380   24.9120   43.2260 N   0  0  0  0  0  0  0  0  0  0  0  0
   36.6760   27.4220   42.5270 C   0  0  0  0  0  0  0  0  0  0  0  0
   36.1530   27.4630   43.6770 O   0  0  0  0  0  0  0  0  0  0  0  0
   35.7820   29.1370   39.4570 C   0  0  0  0  0  0  0  0  0  0  0  0
   36.0520   30.4870   39.6940 C   0  0  0  0  0  0  0  0  0  0  0  0
   36.5570   30.7760   40.9590 C   0  0  0  0  0  0  0  0  0  0  0  0
   36.7490   29.7590   41.8540 N   0  0  0  0  0  0  0  0  0  0  0  0
   36.4730   28.4830   41.5740 C   0  0  0  0  0  0  0  0  0  0  0  0
   35.9890   28.1820   40.3680 N   0  0  0  0  0  0  0  0  0  0  0  0
   35.3850   28.8420   38.4850 H   0  0  0  0  0  0  0  0  0  0  0  0
   35.8710   31.2180   38.9380 H   0  0  0  0  0  0  0  0  0  0  0  0
   36.7770   31.8070   41.1800 H   0  0  0  0  0  0  0  0  0  0  0  0
  2  1  1  0  0  0  0
  3  2  1  0  0  0  0
  3 19  1  0  0  0  0
  4  3  2  0  0  0  0
  5  6  2  0  0  0  0
  5  4  1  0  0  0  0
  6  7  1  0  0  0  0
  7 11  1  0  0  0  0
  7  2  2  0  0  0  0
  8  4  1  0  0  0  0
  9  5  1  0  0  0  0
 10  6  1  0  0  0  0
 11 18  2  0  0  0  0
 12 14  2  0  0  0  0
 12 11  1  0  0  0  0
 13 12  1  0  0  0  0
 14 16  1  0  0  0  0
 15 14  1  0  0  0  0
 16 18  1  0  0  0  0
 16 17  1  0  0  0  0
 19 20  2  0  0  0  0
 21 22  2  0  0  0  0
 21 26  1  0  0  0  0
 22 23  1  0  0  0  0
 23 29  1  0  0  0  0
 23 24  2  0  0  0  0
 25 24  1  0  0  0  0
 25 19  1  0  0  0  0
 26 25  2  0  0  0  0
 27 21  1  0  0  0  0
 28 22  1  0  0  0  0
M  END
>  <minimizedAffinity>
-5.35610199

$$$$

 OpenBabel03242513153D

 29 31  0  0  0  0  0  0  0  0999 V2000
   40.2080   29.1260   40.2730 Cl  0  0  0  0  0  0  0  0  0  0  0  0
   38.6290   29.9120   40.4940 C   0  0  0  0  0  0  0  0  0  0  0  0
   37.7410   29.3850   41.3630 C   0  0  0  0  0  0  0  0  0  0  0  0
   36.5550   30.0510   41.5240 C   0  0  0  0  0  0  0  0  0  0  0  0
   36.2920   31.2020   40.8240 C   0  0  0  0  0  0  0  0  0  0  0  0
   37.2280   31.7320   39.9230 C   0  0  0  0  0  0  0  0  0  0  0  0
   38.4100   31.0540   39.7740 C   0  0  0  0  0  0  0  0  0  0  0  0
   35.7480   29.7930   42.1780 H   0  0  0  0  0  0  0  0  0  0  0  0
   35.3550   31.7570   40.9290 H   0  0  0  0  0  0  0  0  0  0  0  0
   36.9440   32.6440   39.4090 H   0  0  0  0  0  0  0  0  0  0  0  0
   39.3240   31.6690   38.8180 C   0  0  0  0  0  0  0  0  0  0  0  0
   40.5270   32.3220   38.9040 C   0  0  0  0  0  0  0  0  0  0  0  0
   41.0710   32.5210   39.7890 H   0  0  0  0  0  0  0  0  0  0  0  0
   41.0080   32.7230   37.7020 C   0  0  0  0  0  0  0  0  0  0  0  0
   41.8970   33.2430   37.4430 H   0  0  0  0  0  0  0  0  0  0  0  0
   40.0890   32.3140   36.8460 N   0  0  0  0  0  0  0  0  0  0  0  0
   40.0040   32.3870   35.7890 H   0  0  0  0  0  0  0  0  0  0  0  0
   39.1210   31.7100   37.4790 N   0  0  0  0  0  0  0  0  0  0  0  0
   38.0490   28.1520   42.0580 C   0  0  0  0  0  0  0  0  0  0  0  0
   38.7520   28.2540   43.1030 O   0  0  0  0  0  0  0  0  0  0  0  0
   37.1860   24.6280   42.0300 C   0  0  0  0  0  0  0  0  0  0  0  0
   36.6860   24.3780   40.7500 C   0  0  0  0  0  0  0  0  0  0  0  0
   36.6640   25.4790   39.8990 C   0  0  0  0  0  0  0  0  0  0  0  0
   37.1140   26.6890   40.3540 N   0  0  0  0  0  0  0  0  0  0  0  0
   37.5830   26.8720   41.5910 C   0  0  0  0  0  0  0  0  0  0  0  0
   37.6140   25.8300   42.4230 N   0  0  0  0  0  0  0  0  0  0  0  0
   37.2320   23.8060   42.7480 H   0  0  0  0  0  0  0  0  0  0  0  0
   36.3540   23.4020   40.4780 H   0  0  0  0  0  0  0  0  0  0  0  0
   36.2850   25.3270   38.9020 H   0  0  0  0  0  0  0  0  0  0  0  0
  1  2  1  0  0  0  0
  2  3  1  0  0  0  0
  3  4  2  0  0  0  0
  3 19  1  0  0  0  0
  4  8  1  0  0  0  0
  5  9  1  0  0  0  0
  5  4  1  0  0  0  0
  6  5  2  0  0  0  0
  7  6  1  0  0  0  0
  7  2  2  0  0  0  0
 10  6  1  0  0  0  0
 11 12  1  0  0  0  0
 11  7  1  0  0  0  0
 12 13  1  0  0  0  0
 14 12  2  0  0  0  0
 15 14  1  0  0  0  0
 16 18  1  0  0  0  0
 16 14  1  0  0  0  0
 17 16  1  0  0  0  0
 18 11  2  0  0  0  0
 19 20  2  0  0  0  0
 21 26  1  0  0  0  0
 21 27  1  0  0  0  0
 22 21  2  0  0  0  0
 23 24  2  0  0  0  0
 23 22  1  0  0  0  0
 24 25  1  0  0  0  0
 25 19  1  0  0  0  0
 25 26  2  0  0  0  0
 28 22  1  0  0  0  0
 29 23  1  0  0  0  0
M  END
>  <minimizedAffinity>
-5.33123827

$$$$

 OpenBabel03242513153D

 29 31  0  0  0  0  0  0  0  0999 V2000
   39.4590   28.4030   39.1110 Cl  0  0  0  0  0  0  0  0  0  0  0  0
   38.1430   29.3380   39.8550 C   0  0  0  0  0  0  0  0  0  0  0  0
   37.2490   28.7110   40.6480 C   0  0  0  0  0  0  0  0  0  0  0  0
   36.2780   29.4850   41.2260 C   0  0  0  0  0  0  0  0  0  0  0  0
   36.2260   30.8380   41.0000 C   0  0  0  0  0  0  0  0  0  0  0  0
   37.1640   31.4700   40.1700 C   0  0  0  0  0  0  0  0  0  0  0  0
   38.1300   30.6820   39.6000 C   0  0  0  0  0  0  0  0  0  0  0  0
   35.5030   29.1660   41.8930 H   0  0  0  0  0  0  0  0  0  0  0  0
   35.4640   31.4830   41.4460 H   0  0  0  0  0  0  0  0  0  0  0  0
   37.0550   32.5410   40.0420 H   0  0  0  0  0  0  0  0  0  0  0  0
   39.0620   31.4150   38.7500 C   0  0  0  0  0  0  0  0  0  0  0  0
   40.2420   32.0830   38.9510 C   0  0  0  0  0  0  0  0  0  0  0  0
   40.7480   32.2000   39.8730 H   0  0  0  0  0  0  0  0  0  0  0  0
   40.7560   32.6200   37.8180 C   0  0  0  0  0  0  0  0  0  0  0  0
   41.6400   33.1850   37.6510 H   0  0  0  0  0  0  0  0  0  0  0  0
   39.8810   32.2830   36.8890 N   0  0  0  0  0  0  0  0  0  0  0  0
   39.8340   32.4660   35.8420 H   0  0  0  0  0  0  0  0  0  0  0  0
   38.9080   31.5930   37.4160 N   0  0  0  0  0  0  0  0  0  0  0  0
   37.3240   27.2770   40.8350 C   0  0  0  0  0  0  0  0  0  0  0  0
   36.5650   26.5730   40.1100 O   0  0  0  0  0  0  0  0  0  0  0  0
   39.5730   26.9180   43.6590 C   0  0  0  0  0  0  0  0  0  0  0  0
   39.9330   25.5690   43.6790 C   0  0  0  0  0  0  0  0  0  0  0  0
   39.3660   24.7920   42.6730 C   0  0  0  0  0  0  0  0  0  0  0  0
   38.5250   25.3760   41.7650 N   0  0  0  0  0  0  0  0  0  0  0  0
   38.2150   26.6750   41.7940 C   0  0  0  0  0  0  0  0  0  0  0  0
   38.7460   27.4390   42.7480 N   0  0  0  0  0  0  0  0  0  0  0  0
   39.9820   27.5840   44.4210 H   0  0  0  0  0  0  0  0  0  0  0  0
   40.5960   25.1940   44.4260 H   0  0  0  0  0  0  0  0  0  0  0  0
   39.6200   23.7450   42.6540 H   0  0  0  0  0  0  0  0  0  0  0  0
  1  2  1  0  0  0  0
  2  3  1  0  0  0  0
  3 19  1  0  0  0  0
  3  4  2  0  0  0  0
  4  8  1  0  0  0  0
  5  4  1  0  0  0  0
  5  9  1  0  0  0  0
  6  5  2  0  0  0  0
  7  2  2  0  0  0  0
  7  6  1  0  0  0  0
 10  6  1  0  0  0  0
 11 12  1  0  0  0  0
 11  7  1  0  0  0  0
 12 13  1  0  0  0  0
 14 12  2  0  0  0  0
 15 14  1  0  0  0  0
 16 18  1  0  0  0  0
 16 14  1  0  0  0  0
 17 16  1  0  0  0  0
 18 11  2  0  0  0  0
 19 25  1  0  0  0  0
 20 19  2  0  0  0  0
 21 22  1  0  0  0  0
 21 27  1  0  0  0  0
 22 28  1  0  0  0  0
 23 22  2  0  0  0  0
 24 25  2  0  0  0  0
 24 23  1  0  0  0  0
 25 26  1  0  0  0  0
 26 21  2  0  0  0  0
 29 23  1  0  0  0  0
M  END
>  <minimizedAffinity>
-5.29171705

$$$$

 OpenBabel03242513153D

 29 31  0  0  0  0  0  0  0  0999 V2000
   36.3230   26.7830   38.9490 Cl  0  0  0  0  0  0  0  0  0  0  0  0
   36.6970   27.0720   40.6620 C   0  0  0  0  0  0  0  0  0  0  0  0
   36.2940   28.2210   41.2460 C   0  0  0  0  0  0  0  0  0  0  0  0
   36.5750   28.3760   42.5770 C   0  0  0  0  0  0  0  0  0  0  0  0
   37.2410   27.4000   43.2770 C   0  0  0  0  0  0  0  0  0  0  0  0
   37.6530   26.2140   42.6510 C   0  0  0  0  0  0  0  0  0  0  0  0
   37.3630   26.0730   41.3180 C   0  0  0  0  0  0  0  0  0  0  0  0
   36.3180   29.2050   43.2040 H   0  0  0  0  0  0  0  0  0  0  0  0
   37.4800   27.4940   44.3400 H   0  0  0  0  0  0  0  0  0  0  0  0
   38.1740   25.4930   43.2720 H   0  0  0  0  0  0  0  0  0  0  0  0
   37.8290   24.8160   40.7450 C   0  0  0  0  0  0  0  0  0  0  0  0
   37.3990   23.5140   40.7740 C   0  0  0  0  0  0  0  0  0  0  0  0
   36.5470   23.1470   41.2830 H   0  0  0  0  0  0  0  0  0  0  0  0
   38.1860   22.6710   40.0620 C   0  0  0  0  0  0  0  0  0  0  0  0
   38.1180   21.6250   39.8960 H   0  0  0  0  0  0  0  0  0  0  0  0
   39.1270   23.4590   39.5770 N   0  0  0  0  0  0  0  0  0  0  0  0
   39.9740   23.2760   38.9590 H   0  0  0  0  0  0  0  0  0  0  0  0
   38.9300   24.6890   39.9640 N   0  0  0  0  0  0  0  0  0  0  0  0
   35.6210   29.2360   40.4620 C   0  0  0  0  0  0  0  0  0  0  0  0
   34.3750   29.0920   40.3040 O   0  0  0  0  0  0  0  0  0  0  0  0
   37.3260   32.4270   40.1890 C   0  0  0  0  0  0  0  0  0  0  0  0
   37.6950   32.5370   38.8460 C   0  0  0  0  0  0  0  0  0  0  0  0
   37.3270   31.4620   38.0430 C   0  0  0  0  0  0  0  0  0  0  0  0
   36.6540   30.4080   38.5970 N   0  0  0  0  0  0  0  0  0  0  0  0
   36.3250   30.3550   39.8900 C   0  0  0  0  0  0  0  0  0  0  0  0
   36.6670   31.3730   40.6790 N   0  0  0  0  0  0  0  0  0  0  0  0
   37.5840   33.2360   40.8740 H   0  0  0  0  0  0  0  0  0  0  0  0
   38.2210   33.3960   38.4970 H   0  0  0  0  0  0  0  0  0  0  0  0
   37.5950   31.5090   37.0000 H   0  0  0  0  0  0  0  0  0  0  0  0
  1  2  1  0  0  0  0
  2  3  2  0  0  0  0
  2  7  1  0  0  0  0
  3  4  1  0  0  0  0
  4  8  1  0  0  0  0
  4  5  2  0  0  0  0
  5  9  1  0  0  0  0
  6 10  1  0  0  0  0
  6  5  1  0  0  0  0
  7  6  2  0  0  0  0
 11 12  1  0  0  0  0
 11  7  1  0  0  0  0
 12 13  1  0  0  0  0
 14 12  2  0  0  0  0
 15 14  1  0  0  0  0
 16 18  1  0  0  0  0
 16 14  1  0  0  0  0
 17 16  1  0  0  0  0
 18 11  2  0  0  0  0
 19  3  1  0  0  0  0
 20 19  2  0  0  0  0
 21 26  1  0  0  0  0
 21 27  1  0  0  0  0
 22 21  2  0  0  0  0
 23 24  2  0  0  0  0
 23 22  1  0  0  0  0
 24 25  1  0  0  0  0
 25 19  1  0  0  0  0
 25 26  2  0  0  0  0
 28 22  1  0  0  0  0
 29 23  1  0  0  0  0
M  END
>  <minimizedAffinity>
-5.23590374

$$$$

 OpenBabel03242513153D

 29 31  0  0  0  0  0  0  0  0999 V2000
   37.1590   28.5050   39.8220 Cl  0  0  0  0  0  0  0  0  0  0  0  0
   38.1300   29.5350   40.8950 C   0  0  0  0  0  0  0  0  0  0  0  0
   38.3380   29.1530   42.1730 C   0  0  0  0  0  0  0  0  0  0  0  0
   39.1250   29.9640   42.9470 C   0  0  0  0  0  0  0  0  0  0  0  0
   39.6710   31.1150   42.4340 C   0  0  0  0  0  0  0  0  0  0  0  0
   39.4400   31.4960   41.1040 C   0  0  0  0  0  0  0  0  0  0  0  0
   38.6520   30.6730   40.3430 C   0  0  0  0  0  0  0  0  0  0  0  0
   39.4110   29.8120   43.9670 H   0  0  0  0  0  0  0  0  0  0  0  0
   40.3020   31.7840   43.0260 H   0  0  0  0  0  0  0  0  0  0  0  0
   39.9060   32.4180   40.7760 H   0  0  0  0  0  0  0  0  0  0  0  0
   38.4590   31.1420   38.9750 C   0  0  0  0  0  0  0  0  0  0  0  0
   37.3730   31.3940   38.1770 C   0  0  0  0  0  0  0  0  0  0  0  0
   36.3560   31.2770   38.4460 H   0  0  0  0  0  0  0  0  0  0  0  0
   37.7050   31.8330   36.9390 C   0  0  0  0  0  0  0  0  0  0  0  0
   37.1020   32.1070   36.1090 H   0  0  0  0  0  0  0  0  0  0  0  0
   39.0250   31.8560   36.9600 N   0  0  0  0  0  0  0  0  0  0  0  0
   39.7550   32.1260   36.2350 H   0  0  0  0  0  0  0  0  0  0  0  0
   39.4640   31.4610   38.1240 N   0  0  0  0  0  0  0  0  0  0  0  0
   37.7180   27.9460   42.6800 C   0  0  0  0  0  0  0  0  0  0  0  0
   36.5050   28.0360   43.0240 O   0  0  0  0  0  0  0  0  0  0  0  0
   38.6550   24.4790   42.1650 C   0  0  0  0  0  0  0  0  0  0  0  0
   39.7910   24.2800   42.9530 C   0  0  0  0  0  0  0  0  0  0  0  0
   40.2160   25.3950   43.6690 C   0  0  0  0  0  0  0  0  0  0  0  0
   39.5200   26.5690   43.5600 N   0  0  0  0  0  0  0  0  0  0  0  0
   38.4380   26.7030   42.7900 C   0  0  0  0  0  0  0  0  0  0  0  0
   38.0120   25.6480   42.0950 N   0  0  0  0  0  0  0  0  0  0  0  0
   38.2690   23.6440   41.5770 H   0  0  0  0  0  0  0  0  0  0  0  0
   40.2740   23.3290   42.9790 H   0  0  0  0  0  0  0  0  0  0  0  0
   41.0900   25.2820   44.2890 H   0  0  0  0  0  0  0  0  0  0  0  0
  1  2  1  0  0  0  0
  2  3  1  0  0  0  0
  3 19  1  0  0  0  0
  3  4  2  0  0  0  0
  4  8  1  0  0  0  0
  5  4  1  0  0  0  0
  5  9  1  0  0  0  0
  6  5  2  0  0  0  0
  7  2  2  0  0  0  0
  7  6  1  0  0  0  0
 10  6  1  0  0  0  0
 11  7  1  0  0  0  0
 12 13  1  0  0  0  0
 12 11  1  0  0  0  0
 14 16  1  0  0  0  0
 14 12  2  0  0  0  0
 15 14  1  0  0  0  0
 16 18  1  0  0  0  0
 17 16  1  0  0  0  0
 18 11  2  0  0  0  0
 19 25  1  0  0  0  0
 19 20  2  0  0  0  0
 21 22  1  0  0  0  0
 22 28  1  0  0  0  0
 22 23  2  0  0  0  0
 23 29  1  0  0  0  0
 24 23  1  0  0  0  0
 25 24  2  0  0  0  0
 26 21  2  0  0  0  0
 26 25  1  0  0  0  0
 27 21  1  0  0  0  0
M  END
>  <minimizedAffinity>
-5.21801424

$$$$

 OpenBabel03242513153D

 29 31  0  0  0  0  0  0  0  0999 V2000
   36.4190   27.2670   40.2470 Cl  0  0  0  0  0  0  0  0  0  0  0  0
   37.6370   27.4040   41.5330 C   0  0  0  0  0  0  0  0  0  0  0  0
   38.1330   26.2840   42.1000 C   0  0  0  0  0  0  0  0  0  0  0  0
   39.0980   26.4460   43.0600 C   0  0  0  0  0  0  0  0  0  0  0  0
   39.5310   27.6980   43.4220 C   0  0  0  0  0  0  0  0  0  0  0  0
   39.0000   28.8490   42.8220 C   0  0  0  0  0  0  0  0  0  0  0  0
   38.0370   28.6710   41.8630 C   0  0  0  0  0  0  0  0  0  0  0  0
   39.6140   25.6780   43.5990 H   0  0  0  0  0  0  0  0  0  0  0  0
   40.2980   27.8600   44.1840 H   0  0  0  0  0  0  0  0  0  0  0  0
   39.3940   29.8000   43.1640 H   0  0  0  0  0  0  0  0  0  0  0  0
   37.5360   29.9160   41.2930 C   0  0  0  0  0  0  0  0  0  0  0  0
   38.0260   30.8530   40.4200 C   0  0  0  0  0  0  0  0  0  0  0  0
   38.9730   30.8350   39.9480 H   0  0  0  0  0  0  0  0  0  0  0  0
   37.1640   31.8710   40.1830 C   0  0  0  0  0  0  0  0  0  0  0  0
   37.2510   32.7320   39.5670 H   0  0  0  0  0  0  0  0  0  0  0  0
   36.1130   31.5680   40.9220 N   0  0  0  0  0  0  0  0  0  0  0  0
   35.1780   32.0490   41.0790 H   0  0  0  0  0  0  0  0  0  0  0  0
   36.3200   30.4490   41.5610 N   0  0  0  0  0  0  0  0  0  0  0  0
   37.6260   24.9860   41.7080 C   0  0  0  0  0  0  0  0  0  0  0  0
   36.5910   24.5800   42.3090 O   0  0  0  0  0  0  0  0  0  0  0  0
   38.4890   22.1360   39.6340 C   0  0  0  0  0  0  0  0  0  0  0  0
   39.4450   22.6090   38.7320 C   0  0  0  0  0  0  0  0  0  0  0  0
   39.7780   23.9530   38.8750 C   0  0  0  0  0  0  0  0  0  0  0  0
   39.1710   24.6960   39.8510 N   0  0  0  0  0  0  0  0  0  0  0  0
   38.2620   24.1910   40.6880 C   0  0  0  0  0  0  0  0  0  0  0  0
   37.9270   22.9060   40.5700 N   0  0  0  0  0  0  0  0  0  0  0  0
   38.1830   21.0900   39.5770 H   0  0  0  0  0  0  0  0  0  0  0  0
   39.8680   21.9600   37.9990 H   0  0  0  0  0  0  0  0  0  0  0  0
   40.5120   24.3560   38.1970 H   0  0  0  0  0  0  0  0  0  0  0  0
  1  2  1  0  0  0  0
  2  7  2  0  0  0  0
  2  3  1  0  0  0  0
  3  4  2  0  0  0  0
  4  5  1  0  0  0  0
  4  8  1  0  0  0  0
  5  9  1  0  0  0  0
  6 10  1  0  0  0  0
  6  5  2  0  0  0  0
  7  6  1  0  0  0  0
 11 18  2  0  0  0  0
 11  7  1  0  0  0  0
 12 11  1  0  0  0  0
 13 12  1  0  0  0  0
 14 12  2  0  0  0  0
 14 16  1  0  0  0  0
 15 14  1  0  0  0  0
 16 17  1  0  0  0  0
 16 18  1  0  0  0  0
 19  3  1  0  0  0  0
 19 20  2  0  0  0  0
 21 26  1  0  0  0  0
 22 23  1  0  0  0  0
 22 21  2  0  0  0  0
 23 24  2  0  0  0  0
 24 25  1  0  0  0  0
 25 19  1  0  0  0  0
 26 25  2  0  0  0  0
 27 21  1  0  0  0  0
 28 22  1  0  0  0  0
 29 23  1  0  0  0  0
M  END
>  <minimizedAffinity>
-5.16782475

$$$$

 OpenBabel03242513153D

 29 31  0  0  0  0  0  0  0  0999 V2000
   37.7270   31.8520   36.9120 Cl  0  0  0  0  0  0  0  0  0  0  0  0
   36.9270   31.0510   38.2820 C   0  0  0  0  0  0  0  0  0  0  0  0
   36.9440   31.6390   39.4970 C   0  0  0  0  0  0  0  0  0  0  0  0
   36.2800   30.9980   40.5090 C   0  0  0  0  0  0  0  0  0  0  0  0
   35.6320   29.8080   40.2860 C   0  0  0  0  0  0  0  0  0  0  0  0
   35.6280   29.2130   39.0160 C   0  0  0  0  0  0  0  0  0  0  0  0
   36.2960   29.8670   38.0130 C   0  0  0  0  0  0  0  0  0  0  0  0
   36.1720   31.3230   41.5240 H   0  0  0  0  0  0  0  0  0  0  0  0
   35.0930   29.2720   41.0720 H   0  0  0  0  0  0  0  0  0  0  0  0
   35.0940   28.2740   38.9220 H   0  0  0  0  0  0  0  0  0  0  0  0
   36.2470   29.1800   36.7280 C   0  0  0  0  0  0  0  0  0  0  0  0
   35.3070   29.0260   35.7420 C   0  0  0  0  0  0  0  0  0  0  0  0
   34.3280   29.4280   35.7410 H   0  0  0  0  0  0  0  0  0  0  0  0
   35.7380   28.2770   34.6980 C   0  0  0  0  0  0  0  0  0  0  0  0
   35.2530   27.9840   33.8010 H   0  0  0  0  0  0  0  0  0  0  0  0
   36.9730   27.9550   35.0360 N   0  0  0  0  0  0  0  0  0  0  0  0
   37.7270   27.3810   34.5530 H   0  0  0  0  0  0  0  0  0  0  0  0
   37.2710   28.4690   36.1980 N   0  0  0  0  0  0  0  0  0  0  0  0
   37.6660   32.8790   39.6940 C   0  0  0  0  0  0  0  0  0  0  0  0
   37.0120   33.9460   39.5190 O   0  0  0  0  0  0  0  0  0  0  0  0
   40.9850   34.1420   40.4380 C   0  0  0  0  0  0  0  0  0  0  0  0
   41.7370   33.0210   40.7970 C   0  0  0  0  0  0  0  0  0  0  0  0
   41.0470   31.8130   40.7670 C   0  0  0  0  0  0  0  0  0  0  0  0
   39.7280   31.8000   40.4030 N   0  0  0  0  0  0  0  0  0  0  0  0
   39.0560   32.9050   40.0700 C   0  0  0  0  0  0  0  0  0  0  0  0
   39.6970   34.0740   40.0900 N   0  0  0  0  0  0  0  0  0  0  0  0
   41.4660   35.1220   40.4400 H   0  0  0  0  0  0  0  0  0  0  0  0
   42.7630   33.1200   41.0690 H   0  0  0  0  0  0  0  0  0  0  0  0
   41.5930   30.9240   41.0370 H   0  0  0  0  0  0  0  0  0  0  0  0
  1  2  1  0  0  0  0
  2  3  1  0  0  0  0
  3 19  1  0  0  0  0
  3  4  2  0  0  0  0
  4  8  1  0  0  0  0
  5  4  1  0  0  0  0
  5  9  1  0  0  0  0
  6  5  2  0  0  0  0
  7  2  2  0  0  0  0
  7  6  1  0  0  0  0
 10  6  1  0  0  0  0
 11  7  1  0  0  0  0
 12 11  1  0  0  0  0
 13 12  1  0  0  0  0
 14 16  1  0  0  0  0
 14 12  2  0  0  0  0
 15 14  1  0  0  0  0
 16 18  1  0  0  0  0
 17 16  1  0  0  0  0
 18 11  2  0  0  0  0
 19 25  1  0  0  0  0
 20 19  2  0  0  0  0
 21 27  1  0  0  0  0
 21 22  1  0  0  0  0
 22 28  1  0  0  0  0
 23 22  2  0  0  0  0
 23 29  1  0  0  0  0
 24 23  1  0  0  0  0
 25 26  1  0  0  0  0
 25 24  2  0  0  0  0
 26 21  2  0  0  0  0
M  END
>  <minimizedAffinity>
-5.14042759

$$$$
