
 OpenBabel03252509283D

 20 21  0  0  0  0  0  0  0  0999 V2000
   47.0060   34.9990   41.8860 C   0  0  0  0  0  0  0  0  0  0  0  0
   48.0080   34.5310   42.1150 H   0  0  0  0  0  0  0  0  0  0  0  0
   47.2460   36.0290   41.5570 H   0  0  0  0  0  0  0  0  0  0  0  0
   44.5910   36.0300   44.5290 C   0  0  0  0  0  0  0  0  0  0  0  0
   45.3390   36.0560   43.3330 C   0  0  0  0  0  0  0  0  0  0  0  0
   46.2230   34.9860   43.1240 C   0  0  0  0  0  0  0  0  0  0  0  0
   46.3070   34.0050   44.0710 N   0  0  0  0  0  0  0  0  0  0  0  0
   45.5690   34.0280   45.2000 C   0  0  0  0  0  0  0  0  0  0  0  0
   44.7080   35.0530   45.4200 N   0  0  0  0  0  0  0  0  0  0  0  0
   43.9260   36.8830   44.6330 H   0  0  0  0  0  0  0  0  0  0  0  0
   45.2380   36.8540   42.6130 H   0  0  0  0  0  0  0  0  0  0  0  0
   45.7180   33.1980   45.8780 H   0  0  0  0  0  0  0  0  0  0  0  0
   46.4350   34.1870   40.7920 C   0  0  0  0  0  0  0  0  0  0  0  0
   45.0560   34.0410   40.7150 C   0  0  0  0  0  0  0  0  0  0  0  0
   44.2620   34.4430   41.3570 H   0  0  0  0  0  0  0  0  0  0  0  0
   44.7080   33.2520   39.6320 C   0  0  0  0  0  0  0  0  0  0  0  0
   43.7580   32.9300   39.2650 H   0  0  0  0  0  0  0  0  0  0  0  0
   45.9150   32.9420   39.0780 N   0  0  0  0  0  0  0  0  0  0  0  0
   46.1270   32.3570   38.2310 H   0  0  0  0  0  0  0  0  0  0  0  0
   46.9340   33.4900   39.7580 N   0  0  0  0  0  0  0  0  0  0  0  0
  1  2  1  0  0  0  0
  1  6  1  0  0  0  0
  3  1  1  0  0  0  0
  4 10  1  0  0  0  0
  4  9  1  0  0  0  0
  5  4  2  0  0  0  0
  6  5  1  0  0  0  0
  6  7  2  0  0  0  0
  7  8  1  0  0  0  0
  8  9  2  0  0  0  0
  8 12  1  0  0  0  0
 11  5  1  0  0  0  0
 13  1  1  0  0  0  0
 14 13  1  0  0  0  0
 14 15  1  0  0  0  0
 16 14  2  0  0  0  0
 17 16  1  0  0  0  0
 18 16  1  0  0  0  0
 18 20  1  0  0  0  0
 19 18  1  0  0  0  0
 20 13  2  0  0  0  0
M  END
>  <minimizedAffinity>
-3.72912431

>  <minimizedRMSD>
0.204802722

$$$$
