
 OpenBabel03252504163D

 34 36  0  0  0  0  0  0  0  0999 V2000
   37.3700   30.0560   36.5540 F   0  0  0  0  0  0  0  0  0  0  0  0
   36.0840   29.5860   36.7020 C   0  0  0  0  0  0  0  0  0  0  0  0
   35.6170   29.2470   37.9540 C   0  0  0  0  0  0  0  0  0  0  0  0
   34.3060   28.7820   38.0160 C   0  0  0  0  0  0  0  0  0  0  0  0
   33.5290   28.6680   36.8870 C   0  0  0  0  0  0  0  0  0  0  0  0
   34.0590   29.0250   35.6580 C   0  0  0  0  0  0  0  0  0  0  0  0
   35.3530   29.4940   35.5410 C   0  0  0  0  0  0  0  0  0  0  0  0
   33.8850   28.4990   38.9840 H   0  0  0  0  0  0  0  0  0  0  0  0
   32.5100   28.3080   36.9200 H   0  0  0  0  0  0  0  0  0  0  0  0
   33.4390   28.9330   34.7730 H   0  0  0  0  0  0  0  0  0  0  0  0
   35.9200   29.8720   34.2530 C   0  0  0  0  0  0  0  0  0  0  0  0
   35.9200   31.1550   33.7430 C   0  0  0  0  0  0  0  0  0  0  0  0
   35.5380   32.0830   34.1430 H   0  0  0  0  0  0  0  0  0  0  0  0
   36.5590   31.0180   32.5140 C   0  0  0  0  0  0  0  0  0  0  0  0
   36.7480   31.8080   31.8190 H   0  0  0  0  0  0  0  0  0  0  0  0
   36.9130   29.7360   32.3090 N   0  0  0  0  0  0  0  0  0  0  0  0
   37.3990   29.2520   31.5250 H   0  0  0  0  0  0  0  0  0  0  0  0
   36.5200   29.0480   33.3740 N   0  0  0  0  0  0  0  0  0  0  0  0
   37.6650   28.3120   40.8160 C   0  0  0  0  0  0  0  0  0  0  0  0
   38.0260   29.5140   41.3900 C   0  0  0  0  0  0  0  0  0  0  0  0
   37.5480   30.6910   40.7690 C   0  0  0  0  0  0  0  0  0  0  0  0
   36.7750   30.5770   39.6680 N   0  0  0  0  0  0  0  0  0  0  0  0
   36.4510   29.3720   39.1470 C   0  0  0  0  0  0  0  0  0  0  0  0
   36.8940   28.2330   39.7180 N   0  0  0  0  0  0  0  0  0  0  0  0
   37.8150   31.6460   41.1970 H   0  0  0  0  0  0  0  0  0  0  0  0
   38.8740   29.5500   42.5940 C   0  0  0  0  0  0  0  0  0  0  0  0
   39.2650   30.8410   42.8530 F   0  0  0  0  0  0  0  0  0  0  0  0
   38.0790   29.1640   43.6790 F   0  0  0  0  0  0  0  0  0  0  0  0
   39.9660   28.7540   42.5630 F   0  0  0  0  0  0  0  0  0  0  0  0
   38.1310   27.1770   41.4210 O   0  0  0  0  0  0  0  0  0  0  0  0
   37.3740   26.2110   42.1010 C   0  0  0  0  0  0  0  0  0  0  0  0
   36.5040   26.8880   42.9570 F   0  0  0  0  0  0  0  0  0  0  0  0
   36.7180   25.4160   41.2020 F   0  0  0  0  0  0  0  0  0  0  0  0
   38.1960   25.4880   42.9380 F   0  0  0  0  0  0  0  0  0  0  0  0
  1  2  1  0  0  0  0
  2  3  1  0  0  0  0
  3  4  2  0  0  0  0
  3 23  1  0  0  0  0
  4  8  1  0  0  0  0
  5  9  1  0  0  0  0
  5  4  1  0  0  0  0
  6  5  2  0  0  0  0
  7  6  1  0  0  0  0
  7  2  2  0  0  0  0
 10  6  1  0  0  0  0
 11  7  1  0  0  0  0
 12 13  1  0  0  0  0
 12 11  1  0  0  0  0
 14 12  2  0  0  0  0
 15 14  1  0  0  0  0
 16 14  1  0  0  0  0
 16 18  1  0  0  0  0
 17 16  1  0  0  0  0
 18 11  2  0  0  0  0
 19 20  1  0  0  0  0
 19 30  1  0  0  0  0
 20 26  1  0  0  0  0
 21 25  1  0  0  0  0
 21 20  2  0  0  0  0
 22 21  1  0  0  0  0
 23 22  2  0  0  0  0
 23 24  1  0  0  0  0
 24 19  2  0  0  0  0
 26 27  1  0  0  0  0
 26 28  1  0  0  0  0
 29 26  1  0  0  0  0
 30 31  1  0  0  0  0
 31 34  1  0  0  0  0
 31 32  1  0  0  0  0
 33 31  1  0  0  0  0
M  END
>  <minimizedAffinity>
-6.28487968

$$$$

 OpenBabel03252504163D

 34 36  0  0  0  0  0  0  0  0999 V2000
   38.9470   26.9610   40.3720 F   0  0  0  0  0  0  0  0  0  0  0  0
   38.1840   27.2510   41.4810 C   0  0  0  0  0  0  0  0  0  0  0  0
   38.1310   28.5430   41.9580 C   0  0  0  0  0  0  0  0  0  0  0  0
   37.3370   28.7510   43.0840 C   0  0  0  0  0  0  0  0  0  0  0  0
   36.6500   27.7200   43.6790 C   0  0  0  0  0  0  0  0  0  0  0  0
   36.7460   26.4430   43.1490 C   0  0  0  0  0  0  0  0  0  0  0  0
   37.5190   26.1830   42.0340 C   0  0  0  0  0  0  0  0  0  0  0  0
   37.2590   29.7570   43.5040 H   0  0  0  0  0  0  0  0  0  0  0  0
   36.0300   27.8650   44.5530 H   0  0  0  0  0  0  0  0  0  0  0  0
   36.2000   25.6350   43.6250 H   0  0  0  0  0  0  0  0  0  0  0  0
   37.6270   24.8430   41.4700 C   0  0  0  0  0  0  0  0  0  0  0  0
   36.7580   24.3140   40.5370 C   0  0  0  0  0  0  0  0  0  0  0  0
   35.8840   24.7300   40.0570 H   0  0  0  0  0  0  0  0  0  0  0  0
   37.2620   23.0360   40.3110 C   0  0  0  0  0  0  0  0  0  0  0  0
   36.8480   22.3140   39.6400 H   0  0  0  0  0  0  0  0  0  0  0  0
   38.3570   22.8230   41.0610 N   0  0  0  0  0  0  0  0  0  0  0  0
   38.9980   22.0080   41.1660 H   0  0  0  0  0  0  0  0  0  0  0  0
   38.5710   23.9300   41.7630 N   0  0  0  0  0  0  0  0  0  0  0  0
   39.1840   30.9450   39.4320 C   0  0  0  0  0  0  0  0  0  0  0  0
   40.1930   31.6650   40.0400 C   0  0  0  0  0  0  0  0  0  0  0  0
   40.5220   31.3130   41.3680 C   0  0  0  0  0  0  0  0  0  0  0  0
   39.8460   30.3050   41.9610 N   0  0  0  0  0  0  0  0  0  0  0  0
   38.8660   29.6320   41.3180 C   0  0  0  0  0  0  0  0  0  0  0  0
   38.5290   29.9470   40.0500 N   0  0  0  0  0  0  0  0  0  0  0  0
   41.3080   31.8610   41.8680 H   0  0  0  0  0  0  0  0  0  0  0  0
   40.8810   32.7510   39.3200 C   0  0  0  0  0  0  0  0  0  0  0  0
   40.0390   33.8280   39.1830 F   0  0  0  0  0  0  0  0  0  0  0  0
   41.9360   33.1880   40.1280 F   0  0  0  0  0  0  0  0  0  0  0  0
   41.3820   32.4230   38.1080 F   0  0  0  0  0  0  0  0  0  0  0  0
   38.8690   31.2910   38.1470 O   0  0  0  0  0  0  0  0  0  0  0  0
   37.6360   31.7740   37.6810 C   0  0  0  0  0  0  0  0  0  0  0  0
   36.7490   30.6970   37.6530 F   0  0  0  0  0  0  0  0  0  0  0  0
   37.2030   32.7940   38.4820 F   0  0  0  0  0  0  0  0  0  0  0  0
   37.7610   32.1590   36.3640 F   0  0  0  0  0  0  0  0  0  0  0  0
  1  2  1  0  0  0  0
  2  3  2  0  0  0  0
  2  7  1  0  0  0  0
  3  4  1  0  0  0  0
  4  8  1  0  0  0  0
  4  5  2  0  0  0  0
  5  9  1  0  0  0  0
  6 10  1  0  0  0  0
  6  5  1  0  0  0  0
  7  6  2  0  0  0  0
 11 18  2  0  0  0  0
 11  7  1  0  0  0  0
 12 11  1  0  0  0  0
 13 12  1  0  0  0  0
 14 12  2  0  0  0  0
 14 16  1  0  0  0  0
 15 14  1  0  0  0  0
 16 17  1  0  0  0  0
 16 18  1  0  0  0  0
 19 20  2  0  0  0  0
 19 24  1  0  0  0  0
 20 21  1  0  0  0  0
 21 25  1  0  0  0  0
 21 22  2  0  0  0  0
 23  3  1  0  0  0  0
 23 22  1  0  0  0  0
 24 23  2  0  0  0  0
 26 20  1  0  0  0  0
 26 28  1  0  0  0  0
 27 26  1  0  0  0  0
 29 26  1  0  0  0  0
 30 19  1  0  0  0  0
 31 30  1  0  0  0  0
 31 33  1  0  0  0  0
 32 31  1  0  0  0  0
 34 31  1  0  0  0  0
M  END
>  <minimizedAffinity>
-5.97753668

$$$$

 OpenBabel03252504163D

 34 36  0  0  0  0  0  0  0  0999 V2000
   37.1220   29.4690   36.6610 F   0  0  0  0  0  0  0  0  0  0  0  0
   35.7650   29.2330   36.6960 C   0  0  0  0  0  0  0  0  0  0  0  0
   35.1670   28.8450   37.8760 C   0  0  0  0  0  0  0  0  0  0  0  0
   33.7930   28.6280   37.8250 C   0  0  0  0  0  0  0  0  0  0  0  0
   33.0810   28.7910   36.6610 C   0  0  0  0  0  0  0  0  0  0  0  0
   33.7430   29.1820   35.5080 C   0  0  0  0  0  0  0  0  0  0  0  0
   35.1050   29.4120   35.5040 C   0  0  0  0  0  0  0  0  0  0  0  0
   33.2670   28.3190   38.7330 H   0  0  0  0  0  0  0  0  0  0  0  0
   32.0140   28.6250   36.6060 H   0  0  0  0  0  0  0  0  0  0  0  0
   33.1740   29.3080   34.5940 H   0  0  0  0  0  0  0  0  0  0  0  0
   35.8100   29.8230   34.2970 C   0  0  0  0  0  0  0  0  0  0  0  0
   35.8660   31.1190   33.8240 C   0  0  0  0  0  0  0  0  0  0  0  0
   35.4410   32.0370   34.2040 H   0  0  0  0  0  0  0  0  0  0  0  0
   36.6370   31.0130   32.6700 C   0  0  0  0  0  0  0  0  0  0  0  0
   36.9010   31.8210   32.0220 H   0  0  0  0  0  0  0  0  0  0  0  0
   37.0130   29.7370   32.4720 N   0  0  0  0  0  0  0  0  0  0  0  0
   37.5840   29.2730   31.7340 H   0  0  0  0  0  0  0  0  0  0  0  0
   36.5050   29.0220   33.4680 N   0  0  0  0  0  0  0  0  0  0  0  0
   37.0980   29.6690   40.8520 C   0  0  0  0  0  0  0  0  0  0  0  0
   37.3790   28.4480   41.4290 C   0  0  0  0  0  0  0  0  0  0  0  0
   36.8860   27.2980   40.7720 C   0  0  0  0  0  0  0  0  0  0  0  0
   36.1800   27.4530   39.6310 N   0  0  0  0  0  0  0  0  0  0  0  0
   35.9330   28.6750   39.1080 C   0  0  0  0  0  0  0  0  0  0  0  0
   36.3910   29.7900   39.7150 N   0  0  0  0  0  0  0  0  0  0  0  0
   37.0920   26.3280   41.2020 H   0  0  0  0  0  0  0  0  0  0  0  0
   38.1580   28.3670   42.6770 C   0  0  0  0  0  0  0  0  0  0  0  0
   37.5570   29.1240   43.6540 F   0  0  0  0  0  0  0  0  0  0  0  0
   38.0980   27.0430   43.1260 F   0  0  0  0  0  0  0  0  0  0  0  0
   39.4590   28.7230   42.5780 F   0  0  0  0  0  0  0  0  0  0  0  0
   37.5760   30.7790   41.4930 O   0  0  0  0  0  0  0  0  0  0  0  0
   38.6360   31.6010   41.0800 C   0  0  0  0  0  0  0  0  0  0  0  0
   39.3650   30.8940   40.1230 F   0  0  0  0  0  0  0  0  0  0  0  0
   38.1480   32.7860   40.6040 F   0  0  0  0  0  0  0  0  0  0  0  0
   39.5140   31.7790   42.1280 F   0  0  0  0  0  0  0  0  0  0  0  0
  1  2  1  0  0  0  0
  2  3  1  0  0  0  0
  3 23  1  0  0  0  0
  4  3  2  0  0  0  0
  4  8  1  0  0  0  0
  5  4  1  0  0  0  0
  6  5  2  0  0  0  0
  7  6  1  0  0  0  0
  7  2  2  0  0  0  0
  9  5  1  0  0  0  0
 10  6  1  0  0  0  0
 11  7  1  0  0  0  0
 12 13  1  0  0  0  0
 12 11  1  0  0  0  0
 14 12  2  0  0  0  0
 15 14  1  0  0  0  0
 16 14  1  0  0  0  0
 16 18  1  0  0  0  0
 17 16  1  0  0  0  0
 18 11  2  0  0  0  0
 19 20  1  0  0  0  0
 19 30  1  0  0  0  0
 20 26  1  0  0  0  0
 21 25  1  0  0  0  0
 21 20  2  0  0  0  0
 22 21  1  0  0  0  0
 23 22  2  0  0  0  0
 23 24  1  0  0  0  0
 24 19  2  0  0  0  0
 26 28  1  0  0  0  0
 26 27  1  0  0  0  0
 29 26  1  0  0  0  0
 31 30  1  0  0  0  0
 31 34  1  0  0  0  0
 32 31  1  0  0  0  0
 33 31  1  0  0  0  0
M  END
>  <minimizedAffinity>
-5.95436716

$$$$

 OpenBabel03252504163D

 34 36  0  0  0  0  0  0  0  0999 V2000
   39.8490   29.8490   39.0750 F   0  0  0  0  0  0  0  0  0  0  0  0
   38.8670   30.7380   39.4520 C   0  0  0  0  0  0  0  0  0  0  0  0
   37.7220   30.2770   40.0640 C   0  0  0  0  0  0  0  0  0  0  0  0
   36.7810   31.2430   40.4140 C   0  0  0  0  0  0  0  0  0  0  0  0
   36.9900   32.5770   40.1580 C   0  0  0  0  0  0  0  0  0  0  0  0
   38.1640   32.9750   39.5390 C   0  0  0  0  0  0  0  0  0  0  0  0
   39.1300   32.0580   39.1730 C   0  0  0  0  0  0  0  0  0  0  0  0
   35.8540   30.9320   40.9020 H   0  0  0  0  0  0  0  0  0  0  0  0
   36.2680   33.3380   40.4230 H   0  0  0  0  0  0  0  0  0  0  0  0
   38.3210   34.0300   39.3410 H   0  0  0  0  0  0  0  0  0  0  0  0
   40.3690   32.4670   38.5210 C   0  0  0  0  0  0  0  0  0  0  0  0
   41.4320   33.0680   39.1640 C   0  0  0  0  0  0  0  0  0  0  0  0
   41.5760   33.3460   40.1990 H   0  0  0  0  0  0  0  0  0  0  0  0
   42.3610   33.2640   38.1470 C   0  0  0  0  0  0  0  0  0  0  0  0
   43.3240   33.7130   38.2620 H   0  0  0  0  0  0  0  0  0  0  0  0
   41.8780   32.8100   36.9770 N   0  0  0  0  0  0  0  0  0  0  0  0
   42.2700   32.7810   36.0120 H   0  0  0  0  0  0  0  0  0  0  0  0
   40.6660   32.3260   37.2160 N   0  0  0  0  0  0  0  0  0  0  0  0
   37.9100   27.0350   41.7120 C   0  0  0  0  0  0  0  0  0  0  0  0
   37.1600   26.1970   40.9110 C   0  0  0  0  0  0  0  0  0  0  0  0
   36.5680   26.7680   39.7630 C   0  0  0  0  0  0  0  0  0  0  0  0
   36.7640   28.0810   39.5120 N   0  0  0  0  0  0  0  0  0  0  0  0
   37.5090   28.8570   40.3320 C   0  0  0  0  0  0  0  0  0  0  0  0
   38.0870   28.3380   41.4360 N   0  0  0  0  0  0  0  0  0  0  0  0
   35.9750   26.1350   39.1170 H   0  0  0  0  0  0  0  0  0  0  0  0
   36.9960   24.7750   41.2570 C   0  0  0  0  0  0  0  0  0  0  0  0
   36.5140   24.6570   42.5380 F   0  0  0  0  0  0  0  0  0  0  0  0
   36.0010   24.2520   40.4230 F   0  0  0  0  0  0  0  0  0  0  0  0
   38.1030   24.0100   41.1280 F   0  0  0  0  0  0  0  0  0  0  0  0
   38.4810   26.4770   42.8230 O   0  0  0  0  0  0  0  0  0  0  0  0
   39.8340   26.1520   43.0040 C   0  0  0  0  0  0  0  0  0  0  0  0
   40.4330   27.2170   43.6790 F   0  0  0  0  0  0  0  0  0  0  0  0
   39.9420   24.9690   43.6800 F   0  0  0  0  0  0  0  0  0  0  0  0
   40.4650   26.1160   41.7790 F   0  0  0  0  0  0  0  0  0  0  0  0
  1  2  1  0  0  0  0
  2  3  1  0  0  0  0
  3 23  1  0  0  0  0
  3  4  2  0  0  0  0
  4  8  1  0  0  0  0
  5  4  1  0  0  0  0
  5  9  1  0  0  0  0
  6  5  2  0  0  0  0
  7  2  2  0  0  0  0
  7  6  1  0  0  0  0
 10  6  1  0  0  0  0
 11 12  1  0  0  0  0
 11  7  1  0  0  0  0
 12 13  1  0  0  0  0
 14 15  1  0  0  0  0
 14 12  2  0  0  0  0
 16 18  1  0  0  0  0
 16 14  1  0  0  0  0
 17 16  1  0  0  0  0
 18 11  2  0  0  0  0
 19 30  1  0  0  0  0
 20 26  1  0  0  0  0
 20 19  2  0  0  0  0
 21 20  1  0  0  0  0
 22 21  2  0  0  0  0
 22 23  1  0  0  0  0
 23 24  2  0  0  0  0
 24 19  1  0  0  0  0
 25 21  1  0  0  0  0
 26 27  1  0  0  0  0
 28 26  1  0  0  0  0
 29 26  1  0  0  0  0
 30 31  1  0  0  0  0
 31 32  1  0  0  0  0
 31 33  1  0  0  0  0
 34 31  1  0  0  0  0
M  END
>  <minimizedAffinity>
-5.88077068

$$$$

 OpenBabel03252504163D

 34 36  0  0  0  0  0  0  0  0999 V2000
   40.7470   31.0520   39.6330 F   0  0  0  0  0  0  0  0  0  0  0  0
   41.5000   31.3870   40.7360 C   0  0  0  0  0  0  0  0  0  0  0  0
   41.2740   30.7530   41.9390 C   0  0  0  0  0  0  0  0  0  0  0  0
   42.0780   31.1510   43.0040 C   0  0  0  0  0  0  0  0  0  0  0  0
   43.0390   32.1230   42.8550 C   0  0  0  0  0  0  0  0  0  0  0  0
   43.2160   32.7220   41.6190 C   0  0  0  0  0  0  0  0  0  0  0  0
   42.4450   32.3630   40.5300 C   0  0  0  0  0  0  0  0  0  0  0  0
   41.9420   30.6800   43.9810 H   0  0  0  0  0  0  0  0  0  0  0  0
   43.6710   32.4420   43.6730 H   0  0  0  0  0  0  0  0  0  0  0  0
   43.9760   33.4870   41.5100 H   0  0  0  0  0  0  0  0  0  0  0  0
   42.6230   32.9870   39.2240 C   0  0  0  0  0  0  0  0  0  0  0  0
   42.0070   34.1560   38.8240 C   0  0  0  0  0  0  0  0  0  0  0  0
   41.3200   34.8140   39.3370 H   0  0  0  0  0  0  0  0  0  0  0  0
   42.4780   34.3460   37.5280 C   0  0  0  0  0  0  0  0  0  0  0  0
   42.2180   35.1590   36.8840 H   0  0  0  0  0  0  0  0  0  0  0  0
   43.3170   33.3530   37.1830 N   0  0  0  0  0  0  0  0  0  0  0  0
   43.8580   33.1510   36.3160 H   0  0  0  0  0  0  0  0  0  0  0  0
   43.3980   32.5320   38.2230 N   0  0  0  0  0  0  0  0  0  0  0  0
   37.9950   29.1730   42.0670 C   0  0  0  0  0  0  0  0  0  0  0  0
   38.2620   27.8470   42.3430 C   0  0  0  0  0  0  0  0  0  0  0  0
   39.6190   27.4830   42.4900 C   0  0  0  0  0  0  0  0  0  0  0  0
   40.5670   28.4350   42.3570 N   0  0  0  0  0  0  0  0  0  0  0  0
   40.2500   29.7210   42.0860 C   0  0  0  0  0  0  0  0  0  0  0  0
   38.9620   30.0980   41.9390 N   0  0  0  0  0  0  0  0  0  0  0  0
   39.8570   26.4510   42.7070 H   0  0  0  0  0  0  0  0  0  0  0  0
   37.1670   26.8710   42.4730 C   0  0  0  0  0  0  0  0  0  0  0  0
   36.5690   26.6730   41.2510 F   0  0  0  0  0  0  0  0  0  0  0  0
   37.7380   25.6430   42.8230 F   0  0  0  0  0  0  0  0  0  0  0  0
   36.2180   27.1740   43.3860 F   0  0  0  0  0  0  0  0  0  0  0  0
   36.6800   29.5200   41.9240 O   0  0  0  0  0  0  0  0  0  0  0  0
   36.0150   29.8370   40.7290 C   0  0  0  0  0  0  0  0  0  0  0  0
   36.8520   29.4680   39.6750 F   0  0  0  0  0  0  0  0  0  0  0  0
   34.8030   29.2060   40.6890 F   0  0  0  0  0  0  0  0  0  0  0  0
   35.8970   31.2060   40.6190 F   0  0  0  0  0  0  0  0  0  0  0  0
  1  2  1  0  0  0  0
  2  3  1  0  0  0  0
  3 23  1  0  0  0  0
  3  4  2  0  0  0  0
  4  8  1  0  0  0  0
  5  4  1  0  0  0  0
  5  9  1  0  0  0  0
  6  5  2  0  0  0  0
  7  2  2  0  0  0  0
  7  6  1  0  0  0  0
 10  6  1  0  0  0  0
 11  7  1  0  0  0  0
 12 11  1  0  0  0  0
 12 13  1  0  0  0  0
 14 12  2  0  0  0  0
 15 14  1  0  0  0  0
 16 14  1  0  0  0  0
 16 18  1  0  0  0  0
 17 16  1  0  0  0  0
 18 11  2  0  0  0  0
 19 20  1  0  0  0  0
 20 26  1  0  0  0  0
 20 21  2  0  0  0  0
 21 25  1  0  0  0  0
 22 21  1  0  0  0  0
 23 22  2  0  0  0  0
 24 19  2  0  0  0  0
 24 23  1  0  0  0  0
 26 28  1  0  0  0  0
 26 29  1  0  0  0  0
 27 26  1  0  0  0  0
 30 19  1  0  0  0  0
 31 30  1  0  0  0  0
 32 31  1  0  0  0  0
 33 31  1  0  0  0  0
 34 31  1  0  0  0  0
M  END
>  <minimizedAffinity>
-5.83430624

$$$$

 OpenBabel03252504163D

 34 36  0  0  0  0  0  0  0  0999 V2000
   38.3280   30.2010   40.3830 F   0  0  0  0  0  0  0  0  0  0  0  0
   37.9040   30.2700   39.0740 C   0  0  0  0  0  0  0  0  0  0  0  0
   37.3880   29.1490   38.4600 C   0  0  0  0  0  0  0  0  0  0  0  0
   36.9820   29.3050   37.1370 C   0  0  0  0  0  0  0  0  0  0  0  0
   37.0950   30.5110   36.4880 C   0  0  0  0  0  0  0  0  0  0  0  0
   37.6230   31.6000   37.1620 C   0  0  0  0  0  0  0  0  0  0  0  0
   38.0390   31.5000   38.4750 C   0  0  0  0  0  0  0  0  0  0  0  0
   36.5650   28.4480   36.6020 H   0  0  0  0  0  0  0  0  0  0  0  0
   36.7840   30.6470   35.4610 H   0  0  0  0  0  0  0  0  0  0  0  0
   37.7080   32.5480   36.6420 H   0  0  0  0  0  0  0  0  0  0  0  0
   38.5960   32.6390   39.1940 C   0  0  0  0  0  0  0  0  0  0  0  0
   37.9070   33.3950   40.1200 C   0  0  0  0  0  0  0  0  0  0  0  0
   36.8940   33.3210   40.4910 H   0  0  0  0  0  0  0  0  0  0  0  0
   38.8380   34.3480   40.5230 C   0  0  0  0  0  0  0  0  0  0  0  0
   38.6670   35.1200   41.2420 H   0  0  0  0  0  0  0  0  0  0  0  0
   40.0030   34.1690   39.8750 N   0  0  0  0  0  0  0  0  0  0  0  0
   40.9160   34.6700   39.9070 H   0  0  0  0  0  0  0  0  0  0  0  0
   39.8450   33.1260   39.0690 N   0  0  0  0  0  0  0  0  0  0  0  0
   37.5800   26.6700   41.1210 C   0  0  0  0  0  0  0  0  0  0  0  0
   37.0880   25.5130   40.5510 C   0  0  0  0  0  0  0  0  0  0  0  0
   36.6740   25.5880   39.2020 C   0  0  0  0  0  0  0  0  0  0  0  0
   36.7820   26.7680   38.5520 N   0  0  0  0  0  0  0  0  0  0  0  0
   37.2720   27.8710   39.1600 C   0  0  0  0  0  0  0  0  0  0  0  0
   37.6750   27.8290   40.4480 N   0  0  0  0  0  0  0  0  0  0  0  0
   36.2850   24.6970   38.7300 H   0  0  0  0  0  0  0  0  0  0  0  0
   37.0040   24.2660   41.3310 C   0  0  0  0  0  0  0  0  0  0  0  0
   38.2480   23.9300   41.8100 F   0  0  0  0  0  0  0  0  0  0  0  0
   36.2170   24.5270   42.4570 F   0  0  0  0  0  0  0  0  0  0  0  0
   36.4780   23.2040   40.6810 F   0  0  0  0  0  0  0  0  0  0  0  0
   37.9790   26.5910   42.4270 O   0  0  0  0  0  0  0  0  0  0  0  0
   39.2760   26.7830   42.9270 C   0  0  0  0  0  0  0  0  0  0  0  0
   39.2720   27.9740   43.6540 F   0  0  0  0  0  0  0  0  0  0  0  0
   39.6500   25.7050   43.6800 F   0  0  0  0  0  0  0  0  0  0  0  0
   40.1420   27.0160   41.8790 F   0  0  0  0  0  0  0  0  0  0  0  0
  2  1  1  0  0  0  0
  3  2  2  0  0  0  0
  3 23  1  0  0  0  0
  4  3  1  0  0  0  0
  5  4  2  0  0  0  0
  5  6  1  0  0  0  0
  6  7  2  0  0  0  0
  7  2  1  0  0  0  0
  7 11  1  0  0  0  0
  8  4  1  0  0  0  0
  9  5  1  0  0  0  0
 10  6  1  0  0  0  0
 11 12  1  0  0  0  0
 12 13  1  0  0  0  0
 12 14  2  0  0  0  0
 14 15  1  0  0  0  0
 16 17  1  0  0  0  0
 16 14  1  0  0  0  0
 18 11  2  0  0  0  0
 18 16  1  0  0  0  0
 19 30  1  0  0  0  0
 20 19  1  0  0  0  0
 20 26  1  0  0  0  0
 21 20  2  0  0  0  0
 22 23  2  0  0  0  0
 22 21  1  0  0  0  0
 23 24  1  0  0  0  0
 24 19  2  0  0  0  0
 25 21  1  0  0  0  0
 26 27  1  0  0  0  0
 26 28  1  0  0  0  0
 29 26  1  0  0  0  0
 30 31  1  0  0  0  0
 31 32  1  0  0  0  0
 31 33  1  0  0  0  0
 34 31  1  0  0  0  0
M  END
>  <minimizedAffinity>
-5.83098888

$$$$

 OpenBabel03252504163D

 34 36  0  0  0  0  0  0  0  0999 V2000
   33.1400   29.0580   38.8340 F   0  0  0  0  0  0  0  0  0  0  0  0
   33.9420   29.0630   37.7140 C   0  0  0  0  0  0  0  0  0  0  0  0
   35.3070   28.9280   37.8480 C   0  0  0  0  0  0  0  0  0  0  0  0
   36.0450   28.9430   36.6660 C   0  0  0  0  0  0  0  0  0  0  0  0
   35.4380   29.0860   35.4420 C   0  0  0  0  0  0  0  0  0  0  0  0
   34.0600   29.2190   35.3760 C   0  0  0  0  0  0  0  0  0  0  0  0
   33.2820   29.2100   36.5170 C   0  0  0  0  0  0  0  0  0  0  0  0
   37.1310   28.8380   36.7140 H   0  0  0  0  0  0  0  0  0  0  0  0
   35.9970   29.1000   34.5160 H   0  0  0  0  0  0  0  0  0  0  0  0
   33.5890   29.3320   34.4060 H   0  0  0  0  0  0  0  0  0  0  0  0
   31.8320   29.3480   36.4590 C   0  0  0  0  0  0  0  0  0  0  0  0
   31.1440   30.5140   36.7300 C   0  0  0  0  0  0  0  0  0  0  0  0
   31.4900   31.4970   37.0180 H   0  0  0  0  0  0  0  0  0  0  0  0
   29.8120   30.1580   36.5460 C   0  0  0  0  0  0  0  0  0  0  0  0
   28.9710   30.8070   36.6670 H   0  0  0  0  0  0  0  0  0  0  0  0
   29.7160   28.8640   36.1910 N   0  0  0  0  0  0  0  0  0  0  0  0
   28.9060   28.2470   35.9700 H   0  0  0  0  0  0  0  0  0  0  0  0
   30.9520   28.3810   36.1400 N   0  0  0  0  0  0  0  0  0  0  0  0
   37.1090   27.4120   40.6260 C   0  0  0  0  0  0  0  0  0  0  0  0
   37.1590   28.4030   41.5860 C   0  0  0  0  0  0  0  0  0  0  0  0
   36.5520   29.6380   41.2660 C   0  0  0  0  0  0  0  0  0  0  0  0
   35.9620   29.7800   40.0590 N   0  0  0  0  0  0  0  0  0  0  0  0
   35.9420   28.7750   39.1550 C   0  0  0  0  0  0  0  0  0  0  0  0
   36.5150   27.5850   39.4330 N   0  0  0  0  0  0  0  0  0  0  0  0
   36.5760   30.4310   42.0000 H   0  0  0  0  0  0  0  0  0  0  0  0
   37.8230   28.1640   42.8790 C   0  0  0  0  0  0  0  0  0  0  0  0
   38.0240   29.3590   43.5280 F   0  0  0  0  0  0  0  0  0  0  0  0
   36.9350   27.4370   43.6800 F   0  0  0  0  0  0  0  0  0  0  0  0
   38.9930   27.4890   42.8200 F   0  0  0  0  0  0  0  0  0  0  0  0
   37.7000   26.2190   40.9400 O   0  0  0  0  0  0  0  0  0  0  0  0
   37.0640   24.9780   41.0970 C   0  0  0  0  0  0  0  0  0  0  0  0
   38.0100   23.9870   40.8310 F   0  0  0  0  0  0  0  0  0  0  0  0
   36.5350   24.8810   42.3540 F   0  0  0  0  0  0  0  0  0  0  0  0
   36.1100   24.8230   40.1140 F   0  0  0  0  0  0  0  0  0  0  0  0
  2  3  1  0  0  0  0
  2  1  1  0  0  0  0
  3 23  1  0  0  0  0
  4  8  1  0  0  0  0
  4  3  2  0  0  0  0
  5  4  1  0  0  0  0
  6  5  2  0  0  0  0
  6  7  1  0  0  0  0
  7  2  2  0  0  0  0
  9  5  1  0  0  0  0
 10  6  1  0  0  0  0
 11  7  1  0  0  0  0
 11 12  1  0  0  0  0
 12 13  1  0  0  0  0
 14 15  1  0  0  0  0
 14 12  2  0  0  0  0
 16 14  1  0  0  0  0
 17 16  1  0  0  0  0
 18 16  1  0  0  0  0
 18 11  2  0  0  0  0
 19 30  1  0  0  0  0
 19 20  1  0  0  0  0
 20 26  1  0  0  0  0
 21 20  2  0  0  0  0
 21 25  1  0  0  0  0
 22 21  1  0  0  0  0
 23 24  1  0  0  0  0
 23 22  2  0  0  0  0
 24 19  2  0  0  0  0
 26 27  1  0  0  0  0
 26 28  1  0  0  0  0
 29 26  1  0  0  0  0
 30 31  1  0  0  0  0
 31 33  1  0  0  0  0
 32 31  1  0  0  0  0
 34 31  1  0  0  0  0
M  END
>  <minimizedAffinity>
-5.82714033

$$$$

 OpenBabel03252504163D

 34 36  0  0  0  0  0  0  0  0999 V2000
   36.9150   28.6330   36.1650 F   0  0  0  0  0  0  0  0  0  0  0  0
   35.5440   28.7450   36.2200 C   0  0  0  0  0  0  0  0  0  0  0  0
   34.8590   28.2480   37.3080 C   0  0  0  0  0  0  0  0  0  0  0  0
   33.4740   28.4020   37.2850 C   0  0  0  0  0  0  0  0  0  0  0  0
   32.8370   29.0150   36.2330 C   0  0  0  0  0  0  0  0  0  0  0  0
   33.5840   29.4930   35.1690 C   0  0  0  0  0  0  0  0  0  0  0  0
   34.9600   29.3660   35.1420 C   0  0  0  0  0  0  0  0  0  0  0  0
   32.8820   28.0260   38.1220 H   0  0  0  0  0  0  0  0  0  0  0  0
   31.7630   29.1410   36.2010 H   0  0  0  0  0  0  0  0  0  0  0  0
   33.0730   29.9750   34.3430 H   0  0  0  0  0  0  0  0  0  0  0  0
   35.7560   29.8660   34.0280 C   0  0  0  0  0  0  0  0  0  0  0  0
   35.8770   31.1970   33.6850 C   0  0  0  0  0  0  0  0  0  0  0  0
   35.4510   32.0890   34.1230 H   0  0  0  0  0  0  0  0  0  0  0  0
   36.7210   31.1750   32.5790 C   0  0  0  0  0  0  0  0  0  0  0  0
   37.0490   32.0310   32.0290 H   0  0  0  0  0  0  0  0  0  0  0  0
   37.0760   29.9110   32.2850 N   0  0  0  0  0  0  0  0  0  0  0  0
   37.6820   29.4990   31.5440 H   0  0  0  0  0  0  0  0  0  0  0  0
   36.4830   29.1230   33.1730 N   0  0  0  0  0  0  0  0  0  0  0  0
   36.3570   27.7530   40.5890 C   0  0  0  0  0  0  0  0  0  0  0  0
   36.8270   26.4550   40.5620 C   0  0  0  0  0  0  0  0  0  0  0  0
   36.6210   25.7230   39.3710 C   0  0  0  0  0  0  0  0  0  0  0  0
   35.9870   26.3220   38.3400 N   0  0  0  0  0  0  0  0  0  0  0  0
   35.5470   27.5980   38.4210 C   0  0  0  0  0  0  0  0  0  0  0  0
   35.7290   28.3210   39.5460 N   0  0  0  0  0  0  0  0  0  0  0  0
   36.9790   24.7040   39.3210 H   0  0  0  0  0  0  0  0  0  0  0  0
   37.5100   25.8770   41.7320 C   0  0  0  0  0  0  0  0  0  0  0  0
   37.7590   24.5430   41.5160 F   0  0  0  0  0  0  0  0  0  0  0  0
   38.7630   26.4890   41.8330 F   0  0  0  0  0  0  0  0  0  0  0  0
   36.8690   26.0220   42.9130 F   0  0  0  0  0  0  0  0  0  0  0  0
   36.5590   28.4560   41.7450 O   0  0  0  0  0  0  0  0  0  0  0  0
   37.3930   29.5710   41.9190 C   0  0  0  0  0  0  0  0  0  0  0  0
   37.7730   29.6040   43.2620 F   0  0  0  0  0  0  0  0  0  0  0  0
   38.4610   29.4920   41.0700 F   0  0  0  0  0  0  0  0  0  0  0  0
   36.6620   30.7250   41.7350 F   0  0  0  0  0  0  0  0  0  0  0  0
  1  2  1  0  0  0  0
  2  3  1  0  0  0  0
  3 23  1  0  0  0  0
  4  3  2  0  0  0  0
  4  8  1  0  0  0  0
  5  4  1  0  0  0  0
  6  5  2  0  0  0  0
  7  6  1  0  0  0  0
  7  2  2  0  0  0  0
  9  5  1  0  0  0  0
 10  6  1  0  0  0  0
 11  7  1  0  0  0  0
 12 11  1  0  0  0  0
 12 13  1  0  0  0  0
 14 12  2  0  0  0  0
 15 14  1  0  0  0  0
 16 14  1  0  0  0  0
 16 18  1  0  0  0  0
 17 16  1  0  0  0  0
 18 11  2  0  0  0  0
 19 30  1  0  0  0  0
 20 19  1  0  0  0  0
 20 26  1  0  0  0  0
 21 20  2  0  0  0  0
 22 23  2  0  0  0  0
 22 21  1  0  0  0  0
 23 24  1  0  0  0  0
 24 19  2  0  0  0  0
 25 21  1  0  0  0  0
 26 28  1  0  0  0  0
 26 29  1  0  0  0  0
 27 26  1  0  0  0  0
 30 31  1  0  0  0  0
 31 32  1  0  0  0  0
 33 31  1  0  0  0  0
 34 31  1  0  0  0  0
M  END
>  <minimizedAffinity>
-5.76984072

$$$$

 OpenBabel03252504163D

 34 36  0  0  0  0  0  0  0  0999 V2000
   41.9800   29.5130   38.3850 F   0  0  0  0  0  0  0  0  0  0  0  0
   41.6710   30.8550   38.4260 C   0  0  0  0  0  0  0  0  0  0  0  0
   40.7360   31.3160   39.3280 C   0  0  0  0  0  0  0  0  0  0  0  0
   40.4830   32.6860   39.3040 C   0  0  0  0  0  0  0  0  0  0  0  0
   41.1320   33.5220   38.4270 C   0  0  0  0  0  0  0  0  0  0  0  0
   42.0610   32.9940   37.5450 C   0  0  0  0  0  0  0  0  0  0  0  0
   42.3500   31.6430   37.5280 C   0  0  0  0  0  0  0  0  0  0  0  0
   39.7510   33.1050   39.9990 H   0  0  0  0  0  0  0  0  0  0  0  0
   40.9460   34.5870   38.3970 H   0  0  0  0  0  0  0  0  0  0  0  0
   42.5690   33.6610   36.8570 H   0  0  0  0  0  0  0  0  0  0  0  0
   43.3260   31.0780   36.6040 C   0  0  0  0  0  0  0  0  0  0  0  0
   44.6690   31.3960   36.5900 C   0  0  0  0  0  0  0  0  0  0  0  0
   45.2490   32.0720   37.2030 H   0  0  0  0  0  0  0  0  0  0  0  0
   45.1780   30.6190   35.5540 C   0  0  0  0  0  0  0  0  0  0  0  0
   46.1990   30.5960   35.2380 H   0  0  0  0  0  0  0  0  0  0  0  0
   44.2000   29.8890   34.9900 N   0  0  0  0  0  0  0  0  0  0  0  0
   44.1900   29.2030   34.2060 H   0  0  0  0  0  0  0  0  0  0  0  0
   43.0770   30.1750   35.6370 N   0  0  0  0  0  0  0  0  0  0  0  0
   38.1220   29.2520   40.8000 C   0  0  0  0  0  0  0  0  0  0  0  0
   38.6940   28.7350   41.9440 C   0  0  0  0  0  0  0  0  0  0  0  0
   40.0280   29.1090   42.2200 C   0  0  0  0  0  0  0  0  0  0  0  0
   40.6620   29.9400   41.3640 N   0  0  0  0  0  0  0  0  0  0  0  0
   40.0530   30.4190   40.2560 C   0  0  0  0  0  0  0  0  0  0  0  0
   38.7790   30.0780   39.9670 N   0  0  0  0  0  0  0  0  0  0  0  0
   40.5010   28.7180   43.1100 H   0  0  0  0  0  0  0  0  0  0  0  0
   37.9320   27.8330   42.8250 C   0  0  0  0  0  0  0  0  0  0  0  0
   38.7880   27.1800   43.6790 F   0  0  0  0  0  0  0  0  0  0  0  0
   37.1150   28.6290   43.6360 F   0  0  0  0  0  0  0  0  0  0  0  0
   37.1520   26.9240   42.1980 F   0  0  0  0  0  0  0  0  0  0  0  0
   36.8300   28.8860   40.5370 O   0  0  0  0  0  0  0  0  0  0  0  0
   35.7280   29.7400   40.3730 C   0  0  0  0  0  0  0  0  0  0  0  0
   35.7700   30.2310   39.0670 F   0  0  0  0  0  0  0  0  0  0  0  0
   34.5710   29.0640   40.6460 F   0  0  0  0  0  0  0  0  0  0  0  0
   35.8860   30.8530   41.1710 F   0  0  0  0  0  0  0  0  0  0  0  0
  1  2  1  0  0  0  0
  2  3  1  0  0  0  0
  3 23  1  0  0  0  0
  4  3  2  0  0  0  0
  4  8  1  0  0  0  0
  5  4  1  0  0  0  0
  6  5  2  0  0  0  0
  7  6  1  0  0  0  0
  7  2  2  0  0  0  0
  9  5  1  0  0  0  0
 10  6  1  0  0  0  0
 11  7  1  0  0  0  0
 12 11  1  0  0  0  0
 12 13  1  0  0  0  0
 14 12  2  0  0  0  0
 15 14  1  0  0  0  0
 16 14  1  0  0  0  0
 16 18  1  0  0  0  0
 17 16  1  0  0  0  0
 18 11  2  0  0  0  0
 19 20  1  0  0  0  0
 20 21  2  0  0  0  0
 20 26  1  0  0  0  0
 21 25  1  0  0  0  0
 22 21  1  0  0  0  0
 23 22  2  0  0  0  0
 24 23  1  0  0  0  0
 24 19  2  0  0  0  0
 26 28  1  0  0  0  0
 26 27  1  0  0  0  0
 29 26  1  0  0  0  0
 30 19  1  0  0  0  0
 31 30  1  0  0  0  0
 31 33  1  0  0  0  0
 31 34  1  0  0  0  0
 32 31  1  0  0  0  0
M  END
>  <minimizedAffinity>
-5.76856184

$$$$
