
 OpenBabel03252509283D

 20 21  0  0  0  0  0  0  0  0999 V2000
   47.4340   34.9200   41.9670 C   0  0  0  0  0  0  0  0  0  0  0  0
   48.3080   34.2720   42.2690 H   0  0  0  0  0  0  0  0  0  0  0  0
   47.8770   35.9170   41.7770 H   0  0  0  0  0  0  0  0  0  0  0  0
   44.6730   36.0050   44.2220 C   0  0  0  0  0  0  0  0  0  0  0  0
   45.5710   35.9970   43.1340 C   0  0  0  0  0  0  0  0  0  0  0  0
   46.4950   34.9410   43.0920 C   0  0  0  0  0  0  0  0  0  0  0  0
   46.4710   34.0040   44.0840 N   0  0  0  0  0  0  0  0  0  0  0  0
   45.5900   34.0570   45.1050 C   0  0  0  0  0  0  0  0  0  0  0  0
   44.6890   35.0700   45.1640 N   0  0  0  0  0  0  0  0  0  0  0  0
   43.9840   36.8450   44.1990 H   0  0  0  0  0  0  0  0  0  0  0  0
   45.5510   36.7610   42.3720 H   0  0  0  0  0  0  0  0  0  0  0  0
   45.6630   33.2610   45.8340 H   0  0  0  0  0  0  0  0  0  0  0  0
   46.8990   34.3070   40.7340 C   0  0  0  0  0  0  0  0  0  0  0  0
   47.7600   34.0950   39.6630 C   0  0  0  0  0  0  0  0  0  0  0  0
   48.8300   34.3140   39.5590 H   0  0  0  0  0  0  0  0  0  0  0  0
   47.0850   33.5180   38.6030 C   0  0  0  0  0  0  0  0  0  0  0  0
   47.4160   33.2170   37.6310 H   0  0  0  0  0  0  0  0  0  0  0  0
   45.8130   33.3950   39.0760 N   0  0  0  0  0  0  0  0  0  0  0  0
   44.9610   33.0030   38.6010 H   0  0  0  0  0  0  0  0  0  0  0  0
   45.7000   33.8590   40.3310 N   0  0  0  0  0  0  0  0  0  0  0  0
  1  2  1  0  0  0  0
  1  6  1  0  0  0  0
  3  1  1  0  0  0  0
  4  9  1  0  0  0  0
  5  4  2  0  0  0  0
  6  5  1  0  0  0  0
  6  7  2  0  0  0  0
  7  8  1  0  0  0  0
  8  9  2  0  0  0  0
  8 12  1  0  0  0  0
 10  4  1  0  0  0  0
 11  5  1  0  0  0  0
 13  1  1  0  0  0  0
 14 13  1  0  0  0  0
 15 14  1  0  0  0  0
 16 18  1  0  0  0  0
 16 14  2  0  0  0  0
 17 16  1  0  0  0  0
 18 20  1  0  0  0  0
 19 18  1  0  0  0  0
 20 13  2  0  0  0  0
M  END
>  <minimizedAffinity>
-3.94492722

>  <minimizedRMSD>
0.729733467

$$$$
