
 OpenBabel03252504543D

 20 21  0  0  0  0  0  0  0  0999 V2000
   39.0750   30.4590   41.5230 C   0  0  0  0  0  0  0  0  0  0  0  0
   39.7590   30.1090   40.6950 H   0  0  0  0  0  0  0  0  0  0  0  0
   39.7590   30.7860   42.3310 H   0  0  0  0  0  0  0  0  0  0  0  0
   37.2420   28.0350   43.6780 C   0  0  0  0  0  0  0  0  0  0  0  0
   38.0340   29.1410   43.3030 C   0  0  0  0  0  0  0  0  0  0  0  0
   38.2540   29.3150   41.9270 C   0  0  0  0  0  0  0  0  0  0  0  0
   37.7010   28.4250   41.0530 N   0  0  0  0  0  0  0  0  0  0  0  0
   36.9500   27.3820   41.4640 C   0  0  0  0  0  0  0  0  0  0  0  0
   36.7260   27.1960   42.7890 N   0  0  0  0  0  0  0  0  0  0  0  0
   37.1080   27.9540   44.7540 H   0  0  0  0  0  0  0  0  0  0  0  0
   38.4510   29.8190   44.0330 H   0  0  0  0  0  0  0  0  0  0  0  0
   36.5630   26.7420   40.6820 H   0  0  0  0  0  0  0  0  0  0  0  0
   38.3130   31.5890   40.9510 C   0  0  0  0  0  0  0  0  0  0  0  0
   38.9890   32.7660   40.6460 C   0  0  0  0  0  0  0  0  0  0  0  0
   40.0480   33.0260   40.7590 H   0  0  0  0  0  0  0  0  0  0  0  0
   38.1170   33.7050   40.1240 C   0  0  0  0  0  0  0  0  0  0  0  0
   38.2740   34.7060   39.7830 H   0  0  0  0  0  0  0  0  0  0  0  0
   36.9200   33.0520   40.1310 N   0  0  0  0  0  0  0  0  0  0  0  0
   35.9750   33.3910   39.8170 H   0  0  0  0  0  0  0  0  0  0  0  0
   37.0330   31.8070   40.6170 N   0  0  0  0  0  0  0  0  0  0  0  0
  1  6  1  0  0  0  0
  1  3  1  0  0  0  0
  2  1  1  0  0  0  0
  4 10  1  0  0  0  0
  5  4  1  0  0  0  0
  5 11  1  0  0  0  0
  6  5  2  0  0  0  0
  7  8  2  0  0  0  0
  7  6  1  0  0  0  0
  8  9  1  0  0  0  0
  9  4  2  0  0  0  0
 12  8  1  0  0  0  0
 13  1  1  0  0  0  0
 14 15  1  0  0  0  0
 14 13  1  0  0  0  0
 16 18  1  0  0  0  0
 16 14  2  0  0  0  0
 17 16  1  0  0  0  0
 18 20  1  0  0  0  0
 19 18  1  0  0  0  0
 20 13  2  0  0  0  0
M  END
>  <minimizedAffinity>
-4.0019722

$$$$

 OpenBabel03252504543D

 20 21  0  0  0  0  0  0  0  0999 V2000
   36.1320   30.7000   41.0770 C   0  0  0  0  0  0  0  0  0  0  0  0
   35.8590   31.4390   41.8870 H   0  0  0  0  0  0  0  0  0  0  0  0
   35.1610   30.3000   40.7240 H   0  0  0  0  0  0  0  0  0  0  0  0
   37.2710   27.3620   42.2780 C   0  0  0  0  0  0  0  0  0  0  0  0
   36.4600   28.3510   41.6820 C   0  0  0  0  0  0  0  0  0  0  0  0
   36.9630   29.6620   41.6920 C   0  0  0  0  0  0  0  0  0  0  0  0
   38.1790   29.8970   42.2660 N   0  0  0  0  0  0  0  0  0  0  0  0
   38.9160   28.9140   42.8230 C   0  0  0  0  0  0  0  0  0  0  0  0
   38.4480   27.6410   42.8240 N   0  0  0  0  0  0  0  0  0  0  0  0
   36.8280   26.3700   42.2390 H   0  0  0  0  0  0  0  0  0  0  0  0
   35.5040   28.1160   41.2410 H   0  0  0  0  0  0  0  0  0  0  0  0
   39.8640   29.2170   43.2480 H   0  0  0  0  0  0  0  0  0  0  0  0
   36.8150   31.4940   40.0350 C   0  0  0  0  0  0  0  0  0  0  0  0
   36.9500   30.9520   38.7610 C   0  0  0  0  0  0  0  0  0  0  0  0
   36.6220   29.9850   38.3630 H   0  0  0  0  0  0  0  0  0  0  0  0
   37.6110   31.8350   37.9260 C   0  0  0  0  0  0  0  0  0  0  0  0
   37.8900   31.7630   36.8960 H   0  0  0  0  0  0  0  0  0  0  0  0
   37.8600   32.9020   38.7370 N   0  0  0  0  0  0  0  0  0  0  0  0
   38.3460   33.8070   38.5160 H   0  0  0  0  0  0  0  0  0  0  0  0
   37.3920   32.7040   39.9800 N   0  0  0  0  0  0  0  0  0  0  0  0
  1  6  1  0  0  0  0
  1  2  1  0  0  0  0
  3  1  1  0  0  0  0
  4  9  1  0  0  0  0
  5  6  1  0  0  0  0
  5  4  2  0  0  0  0
  6  7  2  0  0  0  0
  7  8  1  0  0  0  0
  8  9  2  0  0  0  0
  8 12  1  0  0  0  0
 10  4  1  0  0  0  0
 11  5  1  0  0  0  0
 13  1  1  0  0  0  0
 14 13  1  0  0  0  0
 15 14  1  0  0  0  0
 16 18  1  0  0  0  0
 16 14  2  0  0  0  0
 17 16  1  0  0  0  0
 18 20  1  0  0  0  0
 19 18  1  0  0  0  0
 20 13  2  0  0  0  0
M  END
>  <minimizedAffinity>
-3.89391994

$$$$

 OpenBabel03252504543D

 20 21  0  0  0  0  0  0  0  0999 V2000
   37.6200   28.2940   43.6520 C   0  0  0  0  0  0  0  0  0  0  0  0
   38.1960   28.6310   44.5630 H   0  0  0  0  0  0  0  0  0  0  0  0
   36.5690   28.2250   43.9950 H   0  0  0  0  0  0  0  0  0  0  0  0
   37.9010   24.9650   42.0030 C   0  0  0  0  0  0  0  0  0  0  0  0
   37.3730   26.2180   42.3790 C   0  0  0  0  0  0  0  0  0  0  0  0
   38.1550   26.9900   43.2530 C   0  0  0  0  0  0  0  0  0  0  0  0
   39.3530   26.4930   43.6790 N   0  0  0  0  0  0  0  0  0  0  0  0
   39.8130   25.2860   43.2890 C   0  0  0  0  0  0  0  0  0  0  0  0
   39.0730   24.5250   42.4450 N   0  0  0  0  0  0  0  0  0  0  0  0
   37.2510   24.4160   41.3270 H   0  0  0  0  0  0  0  0  0  0  0  0
   36.4200   26.5690   42.0150 H   0  0  0  0  0  0  0  0  0  0  0  0
   40.7750   24.9950   43.6900 H   0  0  0  0  0  0  0  0  0  0  0  0
   37.8070   29.3650   42.6510 C   0  0  0  0  0  0  0  0  0  0  0  0
   39.0240   30.0360   42.6080 C   0  0  0  0  0  0  0  0  0  0  0  0
   39.9270   29.9090   43.2170 H   0  0  0  0  0  0  0  0  0  0  0  0
   39.0130   30.9980   41.6130 C   0  0  0  0  0  0  0  0  0  0  0  0
   39.7580   31.6960   41.2930 H   0  0  0  0  0  0  0  0  0  0  0  0
   37.7650   30.8760   41.0790 N   0  0  0  0  0  0  0  0  0  0  0  0
   37.3220   31.4140   40.2910 H   0  0  0  0  0  0  0  0  0  0  0  0
   37.0530   29.9150   41.6880 N   0  0  0  0  0  0  0  0  0  0  0  0
  1  3  1  0  0  0  0
  1  2  1  0  0  0  0
  4  5  2  0  0  0  0
  4  9  1  0  0  0  0
  5  6  1  0  0  0  0
  6  1  1  0  0  0  0
  6  7  2  0  0  0  0
  8  7  1  0  0  0  0
  8 12  1  0  0  0  0
  9  8  2  0  0  0  0
 10  4  1  0  0  0  0
 11  5  1  0  0  0  0
 13  1  1  0  0  0  0
 14 13  1  0  0  0  0
 14 15  1  0  0  0  0
 16 14  2  0  0  0  0
 17 16  1  0  0  0  0
 18 16  1  0  0  0  0
 18 20  1  0  0  0  0
 19 18  1  0  0  0  0
 20 13  2  0  0  0  0
M  END
>  <minimizedAffinity>
-3.74454474

$$$$

 OpenBabel03252504543D

 20 21  0  0  0  0  0  0  0  0999 V2000
   36.9850   28.8220   40.1680 C   0  0  0  0  0  0  0  0  0  0  0  0
   35.9140   28.4660   40.1390 H   0  0  0  0  0  0  0  0  0  0  0  0
   37.4430   28.4040   39.2490 H   0  0  0  0  0  0  0  0  0  0  0  0
   39.5040   27.3240   42.4690 C   0  0  0  0  0  0  0  0  0  0  0  0
   38.9280   27.8450   41.2910 C   0  0  0  0  0  0  0  0  0  0  0  0
   37.5960   28.2780   41.3830 C   0  0  0  0  0  0  0  0  0  0  0  0
   36.9500   28.1710   42.5810 N   0  0  0  0  0  0  0  0  0  0  0  0
   37.5460   27.6640   43.6800 C   0  0  0  0  0  0  0  0  0  0  0  0
   38.8330   27.2410   43.6110 N   0  0  0  0  0  0  0  0  0  0  0  0
   40.5340   27.0070   42.3340 H   0  0  0  0  0  0  0  0  0  0  0  0
   39.4810   27.9100   40.3660 H   0  0  0  0  0  0  0  0  0  0  0  0
   36.9370   27.6280   44.5730 H   0  0  0  0  0  0  0  0  0  0  0  0
   36.9090   30.2970   40.1270 C   0  0  0  0  0  0  0  0  0  0  0  0
   37.3130   30.9560   38.9710 C   0  0  0  0  0  0  0  0  0  0  0  0
   37.7010   30.5590   38.0250 H   0  0  0  0  0  0  0  0  0  0  0  0
   37.1710   32.3250   39.1170 C   0  0  0  0  0  0  0  0  0  0  0  0
   37.3780   33.1350   38.4510 H   0  0  0  0  0  0  0  0  0  0  0  0
   36.6780   32.4510   40.3820 N   0  0  0  0  0  0  0  0  0  0  0  0
   36.4200   33.3210   40.9130 H   0  0  0  0  0  0  0  0  0  0  0  0
   36.5230   31.2580   40.9780 N   0  0  0  0  0  0  0  0  0  0  0  0
  1  6  1  0  0  0  0
  2  1  1  0  0  0  0
  3  1  1  0  0  0  0
  4  9  1  0  0  0  0
  5  6  1  0  0  0  0
  5  4  2  0  0  0  0
  6  7  2  0  0  0  0
  7  8  1  0  0  0  0
  8 12  1  0  0  0  0
  9  8  2  0  0  0  0
 10  4  1  0  0  0  0
 11  5  1  0  0  0  0
 13  1  1  0  0  0  0
 13 20  2  0  0  0  0
 14 16  2  0  0  0  0
 14 13  1  0  0  0  0
 15 14  1  0  0  0  0
 16 18  1  0  0  0  0
 17 16  1  0  0  0  0
 18 19  1  0  0  0  0
 18 20  1  0  0  0  0
M  END
>  <minimizedAffinity>
-3.70988297

$$$$

 OpenBabel03252504543D

 20 21  0  0  0  0  0  0  0  0999 V2000
   35.6900   29.1760   40.8480 C   0  0  0  0  0  0  0  0  0  0  0  0
   35.3590   28.4230   40.0750 H   0  0  0  0  0  0  0  0  0  0  0  0
   34.7560   29.4840   41.3580 H   0  0  0  0  0  0  0  0  0  0  0  0
   37.1390   31.2060   38.0800 C   0  0  0  0  0  0  0  0  0  0  0  0
   36.5330   30.1260   38.7550 C   0  0  0  0  0  0  0  0  0  0  0  0
   36.3190   30.2900   40.1330 C   0  0  0  0  0  0  0  0  0  0  0  0
   36.7020   31.4590   40.7260 N   0  0  0  0  0  0  0  0  0  0  0  0
   37.2790   32.4630   40.0330 C   0  0  0  0  0  0  0  0  0  0  0  0
   37.4940   32.3240   38.7010 N   0  0  0  0  0  0  0  0  0  0  0  0
   37.2780   31.0200   37.0180 H   0  0  0  0  0  0  0  0  0  0  0  0
   36.2470   29.2200   38.2430 H   0  0  0  0  0  0  0  0  0  0  0  0
   37.5400   33.3420   40.6070 H   0  0  0  0  0  0  0  0  0  0  0  0
   36.5970   28.4380   41.7520 C   0  0  0  0  0  0  0  0  0  0  0  0
   36.9300   27.1240   41.4400 C   0  0  0  0  0  0  0  0  0  0  0  0
   36.6250   26.4960   40.5940 H   0  0  0  0  0  0  0  0  0  0  0  0
   37.7830   26.6000   42.3940 C   0  0  0  0  0  0  0  0  0  0  0  0
   38.2390   25.6370   42.4850 H   0  0  0  0  0  0  0  0  0  0  0  0
   37.9400   27.6330   43.2700 N   0  0  0  0  0  0  0  0  0  0  0  0
   38.5100   27.6770   44.1520 H   0  0  0  0  0  0  0  0  0  0  0  0
   37.2430   28.7160   42.8940 N   0  0  0  0  0  0  0  0  0  0  0  0
  1  3  1  0  0  0  0
  1 13  1  0  0  0  0
  2  1  1  0  0  0  0
  4  9  2  0  0  0  0
  4  5  1  0  0  0  0
  5  6  2  0  0  0  0
  6  7  1  0  0  0  0
  6  1  1  0  0  0  0
  8 12  1  0  0  0  0
  8  7  2  0  0  0  0
  9  8  1  0  0  0  0
 10  4  1  0  0  0  0
 11  5  1  0  0  0  0
 13 20  2  0  0  0  0
 14 13  1  0  0  0  0
 14 16  2  0  0  0  0
 15 14  1  0  0  0  0
 16 17  1  0  0  0  0
 16 18  1  0  0  0  0
 18 19  1  0  0  0  0
 20 18  1  0  0  0  0
M  END
>  <minimizedAffinity>
-3.69142532

$$$$

 OpenBabel03252504543D

 20 21  0  0  0  0  0  0  0  0999 V2000
   39.1080   26.2860   42.9800 C   0  0  0  0  0  0  0  0  0  0  0  0
   40.1650   26.5580   42.6890 H   0  0  0  0  0  0  0  0  0  0  0  0
   39.1990   25.8500   43.9940 H   0  0  0  0  0  0  0  0  0  0  0  0
   36.8180   23.9940   41.1400 C   0  0  0  0  0  0  0  0  0  0  0  0
   37.2710   24.9370   42.0870 C   0  0  0  0  0  0  0  0  0  0  0  0
   38.6230   25.3080   42.0030 C   0  0  0  0  0  0  0  0  0  0  0  0
   39.4020   24.7470   41.0320 N   0  0  0  0  0  0  0  0  0  0  0  0
   38.9180   23.8480   40.1500 C   0  0  0  0  0  0  0  0  0  0  0  0
   37.6160   23.4760   40.2140 N   0  0  0  0  0  0  0  0  0  0  0  0
   35.7660   23.7480   41.2560 H   0  0  0  0  0  0  0  0  0  0  0  0
   36.6160   25.3530   42.8370 H   0  0  0  0  0  0  0  0  0  0  0  0
   39.6270   23.4700   39.4240 H   0  0  0  0  0  0  0  0  0  0  0  0
   38.3640   27.5630   42.9900 C   0  0  0  0  0  0  0  0  0  0  0  0
   38.7610   28.5770   42.1250 C   0  0  0  0  0  0  0  0  0  0  0  0
   39.5760   28.6050   41.3920 H   0  0  0  0  0  0  0  0  0  0  0  0
   37.9520   29.6890   42.2760 C   0  0  0  0  0  0  0  0  0  0  0  0
   37.9580   30.6410   41.7890 H   0  0  0  0  0  0  0  0  0  0  0  0
   37.0750   29.3030   43.2460 N   0  0  0  0  0  0  0  0  0  0  0  0
   36.2790   29.8410   43.6750 H   0  0  0  0  0  0  0  0  0  0  0  0
   37.3150   28.0520   43.6680 N   0  0  0  0  0  0  0  0  0  0  0  0
  1 13  1  0  0  0  0
  1  3  1  0  0  0  0
  2  1  1  0  0  0  0
  4 10  1  0  0  0  0
  4  5  1  0  0  0  0
  5 11  1  0  0  0  0
  6  5  2  0  0  0  0
  6  1  1  0  0  0  0
  7  6  1  0  0  0  0
  8  9  1  0  0  0  0
  8  7  2  0  0  0  0
  9  4  2  0  0  0  0
 12  8  1  0  0  0  0
 13 20  2  0  0  0  0
 14 16  2  0  0  0  0
 14 13  1  0  0  0  0
 15 14  1  0  0  0  0
 16 18  1  0  0  0  0
 17 16  1  0  0  0  0
 18 20  1  0  0  0  0
 18 19  1  0  0  0  0
M  END
>  <minimizedAffinity>
-3.65800905

$$$$

 OpenBabel03252504543D

 20 21  0  0  0  0  0  0  0  0999 V2000
   37.3430   32.0530   38.6670 C   0  0  0  0  0  0  0  0  0  0  0  0
   37.6380   31.4280   37.7740 H   0  0  0  0  0  0  0  0  0  0  0  0
   36.7040   32.8560   38.2490 H   0  0  0  0  0  0  0  0  0  0  0  0
   40.9410   32.4050   39.5680 C   0  0  0  0  0  0  0  0  0  0  0  0
   39.7630   31.8830   38.9940 C   0  0  0  0  0  0  0  0  0  0  0  0
   38.5750   32.5830   39.2570 C   0  0  0  0  0  0  0  0  0  0  0  0
   38.6280   33.7030   40.0360 N   0  0  0  0  0  0  0  0  0  0  0  0
   39.7840   34.1610   40.5620 C   0  0  0  0  0  0  0  0  0  0  0  0
   40.9420   33.4990   40.3200 N   0  0  0  0  0  0  0  0  0  0  0  0
   41.8260   31.8210   39.3290 H   0  0  0  0  0  0  0  0  0  0  0  0
   39.7710   30.9930   38.3830 H   0  0  0  0  0  0  0  0  0  0  0  0
   39.7050   35.0580   41.1640 H   0  0  0  0  0  0  0  0  0  0  0  0
   36.5830   31.1430   39.5490 C   0  0  0  0  0  0  0  0  0  0  0  0
   36.0900   29.9550   39.0200 C   0  0  0  0  0  0  0  0  0  0  0  0
   36.1650   29.5440   38.0070 H   0  0  0  0  0  0  0  0  0  0  0  0
   35.4100   29.2380   39.9890 C   0  0  0  0  0  0  0  0  0  0  0  0
   34.9050   28.2960   39.9500 H   0  0  0  0  0  0  0  0  0  0  0  0
   35.5170   30.0310   41.0930 N   0  0  0  0  0  0  0  0  0  0  0  0
   35.1430   29.8740   42.0630 H   0  0  0  0  0  0  0  0  0  0  0  0
   36.2070   31.1530   40.8370 N   0  0  0  0  0  0  0  0  0  0  0  0
  1  6  1  0  0  0  0
  1 13  1  0  0  0  0
  2  1  1  0  0  0  0
  3  1  1  0  0  0  0
  4  9  1  0  0  0  0
  5  6  1  0  0  0  0
  5  4  2  0  0  0  0
  6  7  2  0  0  0  0
  7  8  1  0  0  0  0
  8 12  1  0  0  0  0
  9  8  2  0  0  0  0
 10  4  1  0  0  0  0
 11  5  1  0  0  0  0
 13 20  2  0  0  0  0
 14 13  1  0  0  0  0
 14 16  2  0  0  0  0
 15 14  1  0  0  0  0
 16 18  1  0  0  0  0
 17 16  1  0  0  0  0
 18 19  1  0  0  0  0
 20 18  1  0  0  0  0
M  END
>  <minimizedAffinity>
-3.64497328

$$$$

 OpenBabel03252504543D

 20 21  0  0  0  0  0  0  0  0999 V2000
   36.5900   27.4030   42.8540 C   0  0  0  0  0  0  0  0  0  0  0  0
   35.5550   26.9700   42.7260 H   0  0  0  0  0  0  0  0  0  0  0  0
   36.6490   27.6770   43.9260 H   0  0  0  0  0  0  0  0  0  0  0  0
   35.7960   29.8590   40.1670 C   0  0  0  0  0  0  0  0  0  0  0  0
   35.6920   28.7260   41.0010 C   0  0  0  0  0  0  0  0  0  0  0  0
   36.6860   28.5750   41.9810 C   0  0  0  0  0  0  0  0  0  0  0  0
   37.6730   29.5140   42.0680 N   0  0  0  0  0  0  0  0  0  0  0  0
   37.7280   30.5820   41.2440 C   0  0  0  0  0  0  0  0  0  0  0  0
   36.7770   30.7450   40.2910 N   0  0  0  0  0  0  0  0  0  0  0  0
   34.9990   29.9200   39.4310 H   0  0  0  0  0  0  0  0  0  0  0  0
   34.8910   28.0100   40.8940 H   0  0  0  0  0  0  0  0  0  0  0  0
   38.5560   31.2600   41.4050 H   0  0  0  0  0  0  0  0  0  0  0  0
   37.5190   26.3060   42.5110 C   0  0  0  0  0  0  0  0  0  0  0  0
   36.9920   25.0760   42.1320 C   0  0  0  0  0  0  0  0  0  0  0  0
   35.9490   24.7500   42.0350 H   0  0  0  0  0  0  0  0  0  0  0  0
   38.0060   24.1790   41.8500 C   0  0  0  0  0  0  0  0  0  0  0  0
   37.9830   23.1570   41.5350 H   0  0  0  0  0  0  0  0  0  0  0  0
   39.1360   24.9090   42.0730 N   0  0  0  0  0  0  0  0  0  0  0  0
   40.1430   24.6220   41.9800 H   0  0  0  0  0  0  0  0  0  0  0  0
   38.8520   26.1620   42.4620 N   0  0  0  0  0  0  0  0  0  0  0  0
  1  3  1  0  0  0  0
  2  1  1  0  0  0  0
  4  9  2  0  0  0  0
  4  5  1  0  0  0  0
  5  6  2  0  0  0  0
  6  7  1  0  0  0  0
  6  1  1  0  0  0  0
  8 12  1  0  0  0  0
  8  7  2  0  0  0  0
  9  8  1  0  0  0  0
 10  4  1  0  0  0  0
 11  5  1  0  0  0  0
 13  1  1  0  0  0  0
 14 13  1  0  0  0  0
 15 14  1  0  0  0  0
 16 18  1  0  0  0  0
 16 14  2  0  0  0  0
 17 16  1  0  0  0  0
 18 20  1  0  0  0  0
 19 18  1  0  0  0  0
 20 13  2  0  0  0  0
M  END
>  <minimizedAffinity>
-3.63674998

$$$$

 OpenBabel03252504543D

 20 21  0  0  0  0  0  0  0  0999 V2000
   37.4350   32.9080   39.8970 C   0  0  0  0  0  0  0  0  0  0  0  0
   36.8290   33.4780   40.6610 H   0  0  0  0  0  0  0  0  0  0  0  0
   37.3500   33.5060   38.9680 H   0  0  0  0  0  0  0  0  0  0  0  0
   36.3120   29.7010   38.3670 C   0  0  0  0  0  0  0  0  0  0  0  0
   36.9030   30.9760   38.4900 C   0  0  0  0  0  0  0  0  0  0  0  0
   36.8260   31.5830   39.7540 C   0  0  0  0  0  0  0  0  0  0  0  0
   36.1980   30.9180   40.7670 N   0  0  0  0  0  0  0  0  0  0  0  0
   35.6480   29.6970   40.5970 C   0  0  0  0  0  0  0  0  0  0  0  0
   35.7120   29.0940   39.3840 N   0  0  0  0  0  0  0  0  0  0  0  0
   36.4040   29.2840   37.3680 H   0  0  0  0  0  0  0  0  0  0  0  0
   37.3890   31.4630   37.6580 H   0  0  0  0  0  0  0  0  0  0  0  0
   35.1770   29.2660   41.4710 H   0  0  0  0  0  0  0  0  0  0  0  0
   38.8160   32.8940   40.4220 C   0  0  0  0  0  0  0  0  0  0  0  0
   39.7590   33.7410   39.8490 C   0  0  0  0  0  0  0  0  0  0  0  0
   39.6600   34.4620   39.0280 H   0  0  0  0  0  0  0  0  0  0  0  0
   40.9870   33.5900   40.4670 C   0  0  0  0  0  0  0  0  0  0  0  0
   41.9300   34.0650   40.2980 H   0  0  0  0  0  0  0  0  0  0  0  0
   40.7420   32.6370   41.4120 N   0  0  0  0  0  0  0  0  0  0  0  0
   41.3990   32.2140   42.1160 H   0  0  0  0  0  0  0  0  0  0  0  0
   39.4650   32.2260   41.3870 N   0  0  0  0  0  0  0  0  0  0  0  0
  1 13  1  0  0  0  0
  1  2  1  0  0  0  0
  3  1  1  0  0  0  0
  4  5  2  0  0  0  0
  4  9  1  0  0  0  0
  5  6  1  0  0  0  0
  6  1  1  0  0  0  0
  6  7  2  0  0  0  0
  8  7  1  0  0  0  0
  8 12  1  0  0  0  0
  9  8  2  0  0  0  0
 10  4  1  0  0  0  0
 11  5  1  0  0  0  0
 13 20  2  0  0  0  0
 14 13  1  0  0  0  0
 14 16  2  0  0  0  0
 15 14  1  0  0  0  0
 16 18  1  0  0  0  0
 17 16  1  0  0  0  0
 18 19  1  0  0  0  0
 20 18  1  0  0  0  0
M  END
>  <minimizedAffinity>
-3.61432886

$$$$
