
 OpenBabel03252508203D

 33 35  0  0  0  0  0  0  0  0999 V2000
   46.1040   31.7470   38.8310 C   0  0  0  0  0  0  0  0  0  0  0  0
   46.6710   31.3020   37.6400 C   0  0  0  0  0  0  0  0  0  0  0  0
   46.3730   31.7800   36.3680 C   0  0  0  0  0  0  0  0  0  0  0  0
   45.4250   32.7880   36.3380 C   0  0  0  0  0  0  0  0  0  0  0  0
   44.8530   33.2430   37.4980 C   0  0  0  0  0  0  0  0  0  0  0  0
   45.1610   32.7560   38.7570 C   0  0  0  0  0  0  0  0  0  0  0  0
   47.4070   30.5070   37.7550 H   0  0  0  0  0  0  0  0  0  0  0  0
   46.9020   31.3260   35.5560 H   0  0  0  0  0  0  0  0  0  0  0  0
   45.1880   33.1640   35.3570 H   0  0  0  0  0  0  0  0  0  0  0  0
   44.1340   34.0310   37.2930 H   0  0  0  0  0  0  0  0  0  0  0  0
   44.4260   33.3900   39.8390 C   0  0  0  0  0  0  0  0  0  0  0  0
   44.6910   34.3940   40.7290 C   0  0  0  0  0  0  0  0  0  0  0  0
   45.6010   34.9550   40.7990 H   0  0  0  0  0  0  0  0  0  0  0  0
   43.6630   34.6670   41.5640 C   0  0  0  0  0  0  0  0  0  0  0  0
   43.5790   35.3890   42.3520 H   0  0  0  0  0  0  0  0  0  0  0  0
   42.7230   33.7980   41.1750 N   0  0  0  0  0  0  0  0  0  0  0  0
   41.7440   33.6420   41.5420 H   0  0  0  0  0  0  0  0  0  0  0  0
   43.1850   33.0760   40.1840 N   0  0  0  0  0  0  0  0  0  0  0  0
   46.4430   31.1950   40.1380 C   0  0  0  0  0  0  0  0  0  0  0  0
   46.3900   30.0880   40.0420 H   0  0  0  0  0  0  0  0  0  0  0  0
   45.8080   31.5660   40.9570 H   0  0  0  0  0  0  0  0  0  0  0  0
   47.9260   31.4380   40.4870 C   0  0  0  0  0  0  0  0  0  0  0  0
   48.1460   30.7290   41.2930 H   0  0  0  0  0  0  0  0  0  0  0  0
   48.5450   31.3160   39.6000 H   0  0  0  0  0  0  0  0  0  0  0  0
   47.8760   34.3650   42.8790 C   0  0  0  0  0  0  0  0  0  0  0  0
   47.7620   33.0300   42.3990 C   0  0  0  0  0  0  0  0  0  0  0  0
   48.0220   32.8140   41.0550 C   0  0  0  0  0  0  0  0  0  0  0  0
   48.3680   33.9080   40.2990 N   0  0  0  0  0  0  0  0  0  0  0  0
   48.4660   35.1400   40.7730 C   0  0  0  0  0  0  0  0  0  0  0  0
   48.2210   35.3800   42.0640 N   0  0  0  0  0  0  0  0  0  0  0  0
   47.6680   34.5060   43.9340 H   0  0  0  0  0  0  0  0  0  0  0  0
   47.4850   32.2310   43.0690 H   0  0  0  0  0  0  0  0  0  0  0  0
   48.7400   35.9720   40.1420 H   0  0  0  0  0  0  0  0  0  0  0  0
  1 19  1  0  0  0  0
  2  7  1  0  0  0  0
  2  1  2  0  0  0  0
  3  2  1  0  0  0  0
  4  3  2  0  0  0  0
  4  5  1  0  0  0  0
  5  6  2  0  0  0  0
  6  1  1  0  0  0  0
  6 11  1  0  0  0  0
  8  3  1  0  0  0  0
  9  4  1  0  0  0  0
 10  5  1  0  0  0  0
 11 18  2  0  0  0  0
 11 12  1  0  0  0  0
 12 13  1  0  0  0  0
 12 14  2  0  0  0  0
 14 15  1  0  0  0  0
 16 17  1  0  0  0  0
 16 14  1  0  0  0  0
 18 16  1  0  0  0  0
 19 22  1  0  0  0  0
 19 21  1  0  0  0  0
 20 19  1  0  0  0  0
 22 27  1  0  0  0  0
 22 23  1  0  0  0  0
 24 22  1  0  0  0  0
 25 31  1  0  0  0  0
 26 25  1  0  0  0  0
 26 32  1  0  0  0  0
 27 26  2  0  0  0  0
 28 29  2  0  0  0  0
 28 27  1  0  0  0  0
 29 30  1  0  0  0  0
 30 25  2  0  0  0  0
 33 29  1  0  0  0  0
M  END
>  <minimizedAffinity>
-3.27403522

>  <minimizedRMSD>
5.79500866

$$$$
