
 OpenBabel03252500093D

 30 32  0  0  0  0  0  0  0  0999 V2000
   45.1950   32.4970   40.4010 Cl  0  0  0  0  0  0  0  0  0  0  0  0
   46.5860   33.4780   40.0310 C   0  0  0  0  0  0  0  0  0  0  0  0
   47.2720   34.1350   41.0180 C   0  0  0  0  0  0  0  0  0  0  0  0
   48.3830   34.9240   40.7590 C   0  0  0  0  0  0  0  0  0  0  0  0
   48.7640   35.0100   39.4320 C   0  0  0  0  0  0  0  0  0  0  0  0
   48.0860   34.3580   38.4360 C   0  0  0  0  0  0  0  0  0  0  0  0
   47.0080   33.5980   38.7200 C   0  0  0  0  0  0  0  0  0  0  0  0
   48.9180   35.4410   41.5660 H   0  0  0  0  0  0  0  0  0  0  0  0
   49.6330   35.6280   39.2310 H   0  0  0  0  0  0  0  0  0  0  0  0
   48.3870   34.4290   37.3980 H   0  0  0  0  0  0  0  0  0  0  0  0
   46.8300   32.8680   44.4600 C   0  0  0  0  0  0  0  0  0  0  0  0
   45.9290   33.8020   45.0110 C   0  0  0  0  0  0  0  0  0  0  0  0
   45.4920   34.8360   44.2060 C   0  0  0  0  0  0  0  0  0  0  0  0
   45.9450   34.9090   42.9290 N   0  0  0  0  0  0  0  0  0  0  0  0
   46.8170   34.0010   42.4090 C   0  0  0  0  0  0  0  0  0  0  0  0
   47.2520   32.9850   43.1860 N   0  0  0  0  0  0  0  0  0  0  0  0
   47.1460   32.0780   45.1210 H   0  0  0  0  0  0  0  0  0  0  0  0
   45.5570   33.7600   46.0260 H   0  0  0  0  0  0  0  0  0  0  0  0
   44.5300   35.8930   44.6830 C   0  0  0  0  0  0  0  0  0  0  0  0
   45.0160   37.1500   44.4230 F   0  0  0  0  0  0  0  0  0  0  0  0
   43.3230   35.7270   44.0110 F   0  0  0  0  0  0  0  0  0  0  0  0
   44.3570   35.6940   46.0220 F   0  0  0  0  0  0  0  0  0  0  0  0
   46.2560   32.8860   37.6930 C   0  0  0  0  0  0  0  0  0  0  0  0
   46.5400   31.6080   37.2280 C   0  0  0  0  0  0  0  0  0  0  0  0
   47.3370   30.9260   37.5190 H   0  0  0  0  0  0  0  0  0  0  0  0
   45.6310   31.2540   36.2660 C   0  0  0  0  0  0  0  0  0  0  0  0
   45.4500   30.4020   35.6440 H   0  0  0  0  0  0  0  0  0  0  0  0
   44.7940   32.3110   36.1450 N   0  0  0  0  0  0  0  0  0  0  0  0
   43.9560   32.5940   35.5980 H   0  0  0  0  0  0  0  0  0  0  0  0
   45.1720   33.2580   36.9870 N   0  0  0  0  0  0  0  0  0  0  0  0
  2  1  1  0  0  0  0
  2  3  1  0  0  0  0
  3 15  1  0  0  0  0
  4  3  2  0  0  0  0
  4  8  1  0  0  0  0
  5  4  1  0  0  0  0
  6  7  1  0  0  0  0
  6  5  2  0  0  0  0
  7  2  2  0  0  0  0
  9  5  1  0  0  0  0
 10  6  1  0  0  0  0
 11 12  1  0  0  0  0
 11 17  1  0  0  0  0
 12 18  1  0  0  0  0
 13 19  1  0  0  0  0
 13 12  2  0  0  0  0
 14 13  1  0  0  0  0
 15 14  2  0  0  0  0
 15 16  1  0  0  0  0
 16 11  2  0  0  0  0
 19 22  1  0  0  0  0
 20 19  1  0  0  0  0
 21 19  1  0  0  0  0
 23  7  1  0  0  0  0
 24 25  1  0  0  0  0
 24 23  1  0  0  0  0
 26 24  2  0  0  0  0
 27 26  1  0  0  0  0
 28 26  1  0  0  0  0
 28 30  1  0  0  0  0
 29 28  1  0  0  0  0
 30 23  2  0  0  0  0
M  END
>  <minimizedAffinity>
-5.62885857

>  <minimizedRMSD>
1.33795273

$$$$
