
 OpenBabel03252505313D

 26 27  0  0  0  0  0  0  0  0999 V2000
   37.0640   30.0520   39.4300 O   0  0  0  0  0  0  0  0  0  0  0  0
   37.0940   31.0570   40.5690 P   0  0  1  0  0  0  0  0  0  0  0  0
   35.6360   31.0940   41.4220 O   0  0  0  0  0  0  0  0  0  0  0  0
   35.4430   30.2820   41.9290 H   0  0  0  0  0  0  0  0  0  0  0  0
   38.3740   30.6310   41.5920 O   0  0  0  0  0  0  0  0  0  0  0  0
   37.4430   27.6790   43.3280 C   0  0  0  0  0  0  0  0  0  0  0  0
   38.6710   27.0680   43.6720 C   0  0  0  0  0  0  0  0  0  0  0  0
   39.8330   27.7440   43.2660 C   0  0  0  0  0  0  0  0  0  0  0  0
   39.7090   28.9220   42.5780 N   0  0  0  0  0  0  0  0  0  0  0  0
   38.5090   29.4470   42.2830 C   0  0  0  0  0  0  0  0  0  0  0  0
   37.3960   28.8360   42.6520 N   0  0  0  0  0  0  0  0  0  0  0  0
   36.5320   27.1620   43.6370 H   0  0  0  0  0  0  0  0  0  0  0  0
   38.6970   26.1420   44.2140 H   0  0  0  0  0  0  0  0  0  0  0  0
   40.8010   27.3310   43.4980 H   0  0  0  0  0  0  0  0  0  0  0  0
   37.3010   32.5900   39.8920 O   0  0  0  0  0  0  0  0  0  0  0  0
   38.6020   32.9800   40.1110 C   0  0  0  0  0  0  0  0  0  0  0  0
   39.0020   32.3930   40.9570 H   0  0  0  0  0  0  0  0  0  0  0  0
   38.6220   34.0460   40.4790 H   0  0  0  0  0  0  0  0  0  0  0  0
   39.4960   32.8030   38.9450 C   0  0  0  0  0  0  0  0  0  0  0  0
   40.8500   33.0780   38.8260 C   0  0  0  0  0  0  0  0  0  0  0  0
   41.4600   33.4890   39.6410 H   0  0  0  0  0  0  0  0  0  0  0  0
   41.1820   32.7290   37.5360 C   0  0  0  0  0  0  0  0  0  0  0  0
   42.1770   32.8330   37.1490 H   0  0  0  0  0  0  0  0  0  0  0  0
   40.0900   32.2690   36.9110 N   0  0  0  0  0  0  0  0  0  0  0  0
   40.0330   31.9310   35.9270 H   0  0  0  0  0  0  0  0  0  0  0  0
   39.0730   32.3090   37.7490 N   0  0  0  0  0  0  0  0  0  0  0  0
  2  1  2  6  0  0  0
  2  3  1  0  0  0  0
  2  5  1  0  0  0  0
  3  4  1  0  0  0  0
  5 10  1  0  0  0  0
  6 12  1  0  0  0  0
  6  7  1  0  0  0  0
  7 13  1  0  0  0  0
  8 14  1  0  0  0  0
  8  7  2  0  0  0  0
  9  8  1  0  0  0  0
 10  9  2  0  0  0  0
 10 11  1  0  0  0  0
 11  6  2  0  0  0  0
 15 16  1  0  0  0  0
 15  2  1  0  0  0  0
 16 18  1  0  0  0  0
 16 17  1  0  0  0  0
 19 16  1  0  0  0  0
 20 19  1  0  0  0  0
 20 21  1  0  0  0  0
 22 20  2  0  0  0  0
 23 22  1  0  0  0  0
 24 22  1  0  0  0  0
 24 26  1  0  0  0  0
 25 24  1  0  0  0  0
 26 19  2  0  0  0  0
M  END
>  <minimizedAffinity>
-4.91026211

$$$$

 OpenBabel03252505313D

 26 27  0  0  0  0  0  0  0  0999 V2000
   34.7590   29.1840   39.5860 O   0  0  0  0  0  0  0  0  0  0  0  0
   35.8970   29.5380   40.5280 P   0  0  1  0  0  0  0  0  0  0  0  0
   35.6510   31.0270   41.2880 O   0  0  0  0  0  0  0  0  0  0  0  0
   34.9080   31.0410   41.9210 H   0  0  0  0  0  0  0  0  0  0  0  0
   36.0190   28.2970   41.6720 O   0  0  0  0  0  0  0  0  0  0  0  0
   38.4770   25.8500   42.4260 C   0  0  0  0  0  0  0  0  0  0  0  0
   39.4850   26.5620   43.1150 C   0  0  0  0  0  0  0  0  0  0  0  0
   39.2570   27.9350   43.3000 C   0  0  0  0  0  0  0  0  0  0  0  0
   38.1010   28.4870   42.8130 N   0  0  0  0  0  0  0  0  0  0  0  0
   37.1840   27.7510   42.1650 C   0  0  0  0  0  0  0  0  0  0  0  0
   37.3690   26.4560   41.9760 N   0  0  0  0  0  0  0  0  0  0  0  0
   38.6430   24.7820   42.2760 H   0  0  0  0  0  0  0  0  0  0  0  0
   40.3690   26.0670   43.4720 H   0  0  0  0  0  0  0  0  0  0  0  0
   39.9880   28.5340   43.8190 H   0  0  0  0  0  0  0  0  0  0  0  0
   37.3000   29.6920   39.6010 O   0  0  0  0  0  0  0  0  0  0  0  0
   37.8310   30.9390   39.8370 C   0  0  0  0  0  0  0  0  0  0  0  0
   38.4170   30.8950   40.7720 H   0  0  0  0  0  0  0  0  0  0  0  0
   37.0010   31.6690   40.0640 H   0  0  0  0  0  0  0  0  0  0  0  0
   38.7040   31.4450   38.7540 C   0  0  0  0  0  0  0  0  0  0  0  0
   40.0680   31.6950   38.7680 C   0  0  0  0  0  0  0  0  0  0  0  0
   40.7060   31.5340   39.6470 H   0  0  0  0  0  0  0  0  0  0  0  0
   40.3690   32.1530   37.5040 C   0  0  0  0  0  0  0  0  0  0  0  0
   41.3630   32.4310   37.2140 H   0  0  0  0  0  0  0  0  0  0  0  0
   39.2490   32.1780   36.7690 N   0  0  0  0  0  0  0  0  0  0  0  0
   39.1650   32.4790   35.7750 H   0  0  0  0  0  0  0  0  0  0  0  0
   38.2450   31.7550   37.5100 N   0  0  0  0  0  0  0  0  0  0  0  0
  2  1  2  6  0  0  0
  2  3  1  0  0  0  0
  2  5  1  0  0  0  0
  3  4  1  0  0  0  0
  5 10  1  0  0  0  0
  6  7  1  0  0  0  0
  7  8  2  0  0  0  0
  7 13  1  0  0  0  0
  8 14  1  0  0  0  0
  9  8  1  0  0  0  0
 10  9  2  0  0  0  0
 11 10  1  0  0  0  0
 11  6  2  0  0  0  0
 12  6  1  0  0  0  0
 15 16  1  0  0  0  0
 15  2  1  0  0  0  0
 16 18  1  0  0  0  0
 16 17  1  0  0  0  0
 19 20  1  0  0  0  0
 19 16  1  0  0  0  0
 20 21  1  0  0  0  0
 22 20  2  0  0  0  0
 23 22  1  0  0  0  0
 24 22  1  0  0  0  0
 24 26  1  0  0  0  0
 25 24  1  0  0  0  0
 26 19  2  0  0  0  0
M  END
>  <minimizedAffinity>
-4.82341003

$$$$

 OpenBabel03252505313D

 26 27  0  0  0  0  0  0  0  0999 V2000
   37.3510   28.4760   39.9810 O   0  0  0  0  0  0  0  0  0  0  0  0
   36.6060   28.8130   41.2610 P   0  0  1  0  0  0  0  0  0  0  0  0
   35.0330   29.3520   40.9570 O   0  0  0  0  0  0  0  0  0  0  0  0
   34.4340   28.6700   40.5960 H   0  0  0  0  0  0  0  0  0  0  0  0
   36.5840   27.4190   42.2210 O   0  0  0  0  0  0  0  0  0  0  0  0
   39.6970   26.5340   43.6800 C   0  0  0  0  0  0  0  0  0  0  0  0
   39.8920   25.1840   43.3060 C   0  0  0  0  0  0  0  0  0  0  0  0
   38.8810   24.6070   42.5200 C   0  0  0  0  0  0  0  0  0  0  0  0
   37.7950   25.3680   42.1730 N   0  0  0  0  0  0  0  0  0  0  0  0
   37.6720   26.6460   42.5650 C   0  0  0  0  0  0  0  0  0  0  0  0
   38.6070   27.2190   43.3040 N   0  0  0  0  0  0  0  0  0  0  0  0
   40.4750   26.9930   44.2910 H   0  0  0  0  0  0  0  0  0  0  0  0
   40.7680   24.6450   43.6120 H   0  0  0  0  0  0  0  0  0  0  0  0
   38.9700   23.5820   42.2020 H   0  0  0  0  0  0  0  0  0  0  0  0
   37.4210   30.0890   42.0080 O   0  0  0  0  0  0  0  0  0  0  0  0
   38.3880   30.5410   41.1400 C   0  0  0  0  0  0  0  0  0  0  0  0
   38.3620   29.9120   40.2320 H   0  0  0  0  0  0  0  0  0  0  0  0
   39.4100   30.3530   41.5790 H   0  0  0  0  0  0  0  0  0  0  0  0
   38.2350   31.9580   40.7390 C   0  0  0  0  0  0  0  0  0  0  0  0
   39.1460   33.0000   40.8270 C   0  0  0  0  0  0  0  0  0  0  0  0
   40.1600   32.8870   41.2330 H   0  0  0  0  0  0  0  0  0  0  0  0
   38.4930   34.1000   40.3170 C   0  0  0  0  0  0  0  0  0  0  0  0
   38.9540   35.0660   40.2560 H   0  0  0  0  0  0  0  0  0  0  0  0
   37.2570   33.7430   39.9420 N   0  0  0  0  0  0  0  0  0  0  0  0
   36.5320   34.3610   39.5220 H   0  0  0  0  0  0  0  0  0  0  0  0
   37.0930   32.4590   40.1910 N   0  0  0  0  0  0  0  0  0  0  0  0
  2  1  2  6  0  0  0
  2 15  1  0  0  0  0
  2  5  1  0  0  0  0
  3  2  1  0  0  0  0
  4  3  1  0  0  0  0
  5 10  1  0  0  0  0
  6 12  1  0  0  0  0
  7 13  1  0  0  0  0
  7  6  1  0  0  0  0
  8  7  2  0  0  0  0
  9  8  1  0  0  0  0
  9 10  2  0  0  0  0
 10 11  1  0  0  0  0
 11  6  2  0  0  0  0
 14  8  1  0  0  0  0
 16 18  1  0  0  0  0
 16 15  1  0  0  0  0
 17 16  1  0  0  0  0
 19 20  1  0  0  0  0
 19 16  1  0  0  0  0
 20 21  1  0  0  0  0
 22 20  2  0  0  0  0
 23 22  1  0  0  0  0
 24 26  1  0  0  0  0
 24 22  1  0  0  0  0
 25 24  1  0  0  0  0
 26 19  2  0  0  0  0
M  END
>  <minimizedAffinity>
-4.78880358

$$$$

 OpenBabel03252505313D

 26 27  0  0  0  0  0  0  0  0999 V2000
   34.3580   29.2020   39.7440 O   0  0  0  0  0  0  0  0  0  0  0  0
   35.6740   29.4780   40.4510 P   0  0  1  0  0  0  0  0  0  0  0  0
   35.6550   30.9520   41.2750 O   0  0  0  0  0  0  0  0  0  0  0  0
   35.0520   30.9790   42.0430 H   0  0  0  0  0  0  0  0  0  0  0  0
   35.9580   28.1980   41.5210 O   0  0  0  0  0  0  0  0  0  0  0  0
   39.1180   28.6990   43.0580 C   0  0  0  0  0  0  0  0  0  0  0  0
   39.5710   27.3960   43.3690 C   0  0  0  0  0  0  0  0  0  0  0  0
   38.7140   26.3420   43.0130 C   0  0  0  0  0  0  0  0  0  0  0  0
   37.5230   26.6330   42.4010 N   0  0  0  0  0  0  0  0  0  0  0  0
   37.1530   27.8960   42.1350 C   0  0  0  0  0  0  0  0  0  0  0  0
   37.9370   28.9110   42.4580 N   0  0  0  0  0  0  0  0  0  0  0  0
   39.7740   29.5270   43.3310 H   0  0  0  0  0  0  0  0  0  0  0  0
   40.5180   27.2380   43.8500 H   0  0  0  0  0  0  0  0  0  0  0  0
   39.0020   25.3250   43.2220 H   0  0  0  0  0  0  0  0  0  0  0  0
   36.8740   29.5980   39.2680 O   0  0  0  0  0  0  0  0  0  0  0  0
   36.3200   30.2000   38.1610 C   0  0  0  0  0  0  0  0  0  0  0  0
   36.6730   31.2450   38.1210 H   0  0  0  0  0  0  0  0  0  0  0  0
   35.2030   30.2890   38.2960 H   0  0  0  0  0  0  0  0  0  0  0  0
   36.6490   29.5380   36.8780 C   0  0  0  0  0  0  0  0  0  0  0  0
   35.8700   29.3900   35.7410 C   0  0  0  0  0  0  0  0  0  0  0  0
   34.8450   29.7730   35.6520 H   0  0  0  0  0  0  0  0  0  0  0  0
   36.6580   28.7000   34.8460 C   0  0  0  0  0  0  0  0  0  0  0  0
   36.3170   28.4350   33.8640 H   0  0  0  0  0  0  0  0  0  0  0  0
   37.8450   28.4460   35.4110 N   0  0  0  0  0  0  0  0  0  0  0  0
   38.6450   27.9390   34.9770 H   0  0  0  0  0  0  0  0  0  0  0  0
   37.8500   28.9450   36.6310 N   0  0  0  0  0  0  0  0  0  0  0  0
  2  1  2  6  0  0  0
  2  3  1  0  0  0  0
  2  5  1  0  0  0  0
  3  4  1  0  0  0  0
  5 10  1  0  0  0  0
  6 12  1  0  0  0  0
  6  7  1  0  0  0  0
  7 13  1  0  0  0  0
  8 14  1  0  0  0  0
  8  7  2  0  0  0  0
  9  8  1  0  0  0  0
 10  9  2  0  0  0  0
 10 11  1  0  0  0  0
 11  6  2  0  0  0  0
 15  2  1  0  0  0  0
 16 18  1  0  0  0  0
 16 15  1  0  0  0  0
 17 16  1  0  0  0  0
 19 16  1  0  0  0  0
 20 19  1  0  0  0  0
 21 20  1  0  0  0  0
 22 24  1  0  0  0  0
 22 20  2  0  0  0  0
 23 22  1  0  0  0  0
 24 26  1  0  0  0  0
 25 24  1  0  0  0  0
 26 19  2  0  0  0  0
M  END
>  <minimizedAffinity>
-4.65036678

$$$$

 OpenBabel03252505313D

 26 27  0  0  0  0  0  0  0  0999 V2000
   34.4750   29.2270   39.5940 O   0  0  0  0  0  0  0  0  0  0  0  0
   35.8400   29.7430   40.0170 P   0  0  1  0  0  0  0  0  0  0  0  0
   35.7740   30.5870   41.4790 O   0  0  0  0  0  0  0  0  0  0  0  0
   35.5630   30.0350   42.2570 H   0  0  0  0  0  0  0  0  0  0  0  0
   36.8740   28.4090   40.1440 O   0  0  0  0  0  0  0  0  0  0  0  0
   38.8370   28.6070   43.0940 C   0  0  0  0  0  0  0  0  0  0  0  0
   38.9090   27.2740   43.5620 C   0  0  0  0  0  0  0  0  0  0  0  0
   38.2380   26.3110   42.7910 C   0  0  0  0  0  0  0  0  0  0  0  0
   37.5710   26.7110   41.6630 N   0  0  0  0  0  0  0  0  0  0  0  0
   37.5420   27.9970   41.2760 C   0  0  0  0  0  0  0  0  0  0  0  0
   38.1640   28.9280   41.9790 N   0  0  0  0  0  0  0  0  0  0  0  0
   39.3550   29.3650   43.6850 H   0  0  0  0  0  0  0  0  0  0  0  0
   39.4510   27.0280   44.4550 H   0  0  0  0  0  0  0  0  0  0  0  0
   38.2550   25.2770   43.0940 H   0  0  0  0  0  0  0  0  0  0  0  0
   36.3570   30.8420   38.8450 O   0  0  0  0  0  0  0  0  0  0  0  0
   37.7300   30.9110   38.9020 C   0  0  0  0  0  0  0  0  0  0  0  0
   38.1280   30.7850   37.8800 H   0  0  0  0  0  0  0  0  0  0  0  0
   38.1310   30.0200   39.4680 H   0  0  0  0  0  0  0  0  0  0  0  0
   38.2550   32.1760   39.4620 C   0  0  0  0  0  0  0  0  0  0  0  0
   39.4950   32.7710   39.2810 C   0  0  0  0  0  0  0  0  0  0  0  0
   40.2890   32.3410   38.6560 H   0  0  0  0  0  0  0  0  0  0  0  0
   39.4570   33.9290   40.0250 C   0  0  0  0  0  0  0  0  0  0  0  0
   40.2870   34.6060   40.0800 H   0  0  0  0  0  0  0  0  0  0  0  0
   38.2620   34.0290   40.6230 N   0  0  0  0  0  0  0  0  0  0  0  0
   37.9420   34.7970   41.2490 H   0  0  0  0  0  0  0  0  0  0  0  0
   37.5330   32.9810   40.2910 N   0  0  0  0  0  0  0  0  0  0  0  0
  2  1  2  6  0  0  0
  2  5  1  0  0  0  0
  2  3  1  0  0  0  0
  3  4  1  0  0  0  0
  5 10  1  0  0  0  0
  6  7  1  0  0  0  0
  6 12  1  0  0  0  0
  7 13  1  0  0  0  0
  8 14  1  0  0  0  0
  8  7  2  0  0  0  0
  9  8  1  0  0  0  0
 10  9  2  0  0  0  0
 10 11  1  0  0  0  0
 11  6  2  0  0  0  0
 15 16  1  0  0  0  0
 15  2  1  0  0  0  0
 16 19  1  0  0  0  0
 16 18  1  0  0  0  0
 17 16  1  0  0  0  0
 19 26  2  0  0  0  0
 20 19  1  0  0  0  0
 20 22  2  0  0  0  0
 21 20  1  0  0  0  0
 22 23  1  0  0  0  0
 22 24  1  0  0  0  0
 24 25  1  0  0  0  0
 26 24  1  0  0  0  0
M  END
>  <minimizedAffinity>
-4.48737478

$$$$

 OpenBabel03252505313D

 26 27  0  0  0  0  0  0  0  0999 V2000
   37.8670   29.9600   42.7350 O   0  0  0  0  0  0  0  0  0  0  0  0
   37.1150   29.9500   41.4160 P   0  0  1  0  0  0  0  0  0  0  0  0
   35.7790   30.9850   41.4390 O   0  0  0  0  0  0  0  0  0  0  0  0
   36.0040   31.9350   41.4890 H   0  0  0  0  0  0  0  0  0  0  0  0
   38.2040   30.4070   40.2030 O   0  0  0  0  0  0  0  0  0  0  0  0
   38.7000   33.9060   40.5310 C   0  0  0  0  0  0  0  0  0  0  0  0
   39.9020   34.1600   39.8300 C   0  0  0  0  0  0  0  0  0  0  0  0
   40.5220   33.0460   39.2410 C   0  0  0  0  0  0  0  0  0  0  0  0
   39.9400   31.8140   39.3780 N   0  0  0  0  0  0  0  0  0  0  0  0
   38.7960   31.6420   40.0600 C   0  0  0  0  0  0  0  0  0  0  0  0
   38.1870   32.6710   40.6260 N   0  0  0  0  0  0  0  0  0  0  0  0
   38.2090   34.7640   40.9940 H   0  0  0  0  0  0  0  0  0  0  0  0
   40.3040   35.1530   39.7600 H   0  0  0  0  0  0  0  0  0  0  0  0
   41.4410   33.1740   38.6920 H   0  0  0  0  0  0  0  0  0  0  0  0
   36.5150   28.3890   41.1800 O   0  0  0  0  0  0  0  0  0  0  0  0
   36.5980   27.7170   42.3780 C   0  0  0  0  0  0  0  0  0  0  0  0
   35.5760   27.4430   42.6940 H   0  0  0  0  0  0  0  0  0  0  0  0
   36.9580   28.4200   43.1840 H   0  0  0  0  0  0  0  0  0  0  0  0
   37.4260   26.4910   42.3340 C   0  0  0  0  0  0  0  0  0  0  0  0
   37.0290   25.1660   42.2250 C   0  0  0  0  0  0  0  0  0  0  0  0
   35.9810   24.8500   42.1530 H   0  0  0  0  0  0  0  0  0  0  0  0
   38.1960   24.4340   42.2310 C   0  0  0  0  0  0  0  0  0  0  0  0
   38.2050   23.3640   42.1590 H   0  0  0  0  0  0  0  0  0  0  0  0
   39.2380   25.2690   42.3380 N   0  0  0  0  0  0  0  0  0  0  0  0
   40.2450   25.0060   42.3690 H   0  0  0  0  0  0  0  0  0  0  0  0
   38.7860   26.5060   42.4010 N   0  0  0  0  0  0  0  0  0  0  0  0
  2  3  1  0  0  0  0
  2  1  2  1  0  0  0
  3  4  1  0  0  0  0
  5  2  1  0  0  0  0
  6 11  1  0  0  0  0
  6 12  1  0  0  0  0
  7  6  2  0  0  0  0
  8  9  2  0  0  0  0
  8  7  1  0  0  0  0
  9 10  1  0  0  0  0
 10  5  1  0  0  0  0
 10 11  2  0  0  0  0
 13  7  1  0  0  0  0
 14  8  1  0  0  0  0
 15  2  1  0  0  0  0
 15 16  1  0  0  0  0
 16 17  1  0  0  0  0
 16 18  1  0  0  0  0
 19 16  1  0  0  0  0
 19 26  2  0  0  0  0
 20 22  2  0  0  0  0
 20 19  1  0  0  0  0
 21 20  1  0  0  0  0
 22 24  1  0  0  0  0
 23 22  1  0  0  0  0
 24 25  1  0  0  0  0
 24 26  1  0  0  0  0
M  END
>  <minimizedAffinity>
-4.48306656

$$$$

 OpenBabel03252505313D

 26 27  0  0  0  0  0  0  0  0999 V2000
   35.5820   29.5530   37.6490 O   0  0  0  0  0  0  0  0  0  0  0  0
   36.9710   30.0050   38.0690 P   0  0  1  0  0  0  0  0  0  0  0  0
   38.0780   29.9210   36.7950 O   0  0  0  0  0  0  0  0  0  0  0  0
   37.9130   30.5580   36.0730 H   0  0  0  0  0  0  0  0  0  0  0  0
   36.8400   31.5910   38.6440 O   0  0  0  0  0  0  0  0  0  0  0  0
   40.1330   32.8720   38.9780 C   0  0  0  0  0  0  0  0  0  0  0  0
   40.0100   33.9260   39.9130 C   0  0  0  0  0  0  0  0  0  0  0  0
   38.7190   34.1600   40.4150 C   0  0  0  0  0  0  0  0  0  0  0  0
   37.6860   33.3730   39.9800 N   0  0  0  0  0  0  0  0  0  0  0  0
   37.8730   32.3870   39.0870 C   0  0  0  0  0  0  0  0  0  0  0  0
   39.0760   32.1420   38.5960 N   0  0  0  0  0  0  0  0  0  0  0  0
   41.1310   32.6820   38.5800 H   0  0  0  0  0  0  0  0  0  0  0  0
   40.8630   34.5050   40.2120 H   0  0  0  0  0  0  0  0  0  0  0  0
   38.5590   34.9490   41.1320 H   0  0  0  0  0  0  0  0  0  0  0  0
   37.5170   28.9380   39.2580 O   0  0  0  0  0  0  0  0  0  0  0  0
   36.4380   28.5750   40.0320 C   0  0  0  0  0  0  0  0  0  0  0  0
   36.0840   27.5860   39.6900 H   0  0  0  0  0  0  0  0  0  0  0  0
   35.5720   29.2670   39.8240 H   0  0  0  0  0  0  0  0  0  0  0  0
   36.7240   28.5020   41.4820 C   0  0  0  0  0  0  0  0  0  0  0  0
   36.6560   27.4130   42.3380 C   0  0  0  0  0  0  0  0  0  0  0  0
   36.3620   26.4050   42.0160 H   0  0  0  0  0  0  0  0  0  0  0  0
   37.0230   27.8960   43.5750 C   0  0  0  0  0  0  0  0  0  0  0  0
   37.0630   27.2740   44.4470 H   0  0  0  0  0  0  0  0  0  0  0  0
   37.2970   29.2030   43.4710 N   0  0  0  0  0  0  0  0  0  0  0  0
   37.5990   29.8380   44.2400 H   0  0  0  0  0  0  0  0  0  0  0  0
   37.1200   29.5760   42.2190 N   0  0  0  0  0  0  0  0  0  0  0  0
  2  1  2  6  0  0  0
  2  5  1  0  0  0  0
  2 15  1  0  0  0  0
  3  2  1  0  0  0  0
  4  3  1  0  0  0  0
  5 10  1  0  0  0  0
  6  7  1  0  0  0  0
  7 13  1  0  0  0  0
  7  8  2  0  0  0  0
  8 14  1  0  0  0  0
  9  8  1  0  0  0  0
 10  9  2  0  0  0  0
 11  6  2  0  0  0  0
 11 10  1  0  0  0  0
 12  6  1  0  0  0  0
 15 16  1  0  0  0  0
 16 19  1  0  0  0  0
 17 16  1  0  0  0  0
 18 16  1  0  0  0  0
 19 26  2  0  0  0  0
 19 20  1  0  0  0  0
 20 22  2  0  0  0  0
 21 20  1  0  0  0  0
 22 23  1  0  0  0  0
 24 22  1  0  0  0  0
 24 25  1  0  0  0  0
 26 24  1  0  0  0  0
M  END
>  <minimizedAffinity>
-4.48089314

$$$$

 OpenBabel03252505313D

 26 27  0  0  0  0  0  0  0  0999 V2000
   39.4780   28.2140   43.3270 O   0  0  0  0  0  0  0  0  0  0  0  0
   38.4960   28.9520   42.4330 P   0  0  1  0  0  0  0  0  0  0  0  0
   37.0670   29.3410   43.2460 O   0  0  0  0  0  0  0  0  0  0  0  0
   37.1720   30.0060   43.9540 H   0  0  0  0  0  0  0  0  0  0  0  0
   39.2660   30.3520   41.8750 O   0  0  0  0  0  0  0  0  0  0  0  0
   38.8150   33.5760   40.4620 C   0  0  0  0  0  0  0  0  0  0  0  0
   37.6030   33.4800   39.7400 C   0  0  0  0  0  0  0  0  0  0  0  0
   36.9580   32.2330   39.7770 C   0  0  0  0  0  0  0  0  0  0  0  0
   37.5280   31.2130   40.4910 N   0  0  0  0  0  0  0  0  0  0  0  0
   38.6850   31.3720   41.1540 C   0  0  0  0  0  0  0  0  0  0  0  0
   39.3160   32.5340   41.1400 N   0  0  0  0  0  0  0  0  0  0  0  0
   39.3260   34.5400   40.4390 H   0  0  0  0  0  0  0  0  0  0  0  0
   37.2100   34.3210   39.2000 H   0  0  0  0  0  0  0  0  0  0  0  0
   36.0290   32.0950   39.2480 H   0  0  0  0  0  0  0  0  0  0  0  0
   38.0700   27.9110   41.1730 O   0  0  0  0  0  0  0  0  0  0  0  0
   37.0750   27.0770   41.6290 C   0  0  0  0  0  0  0  0  0  0  0  0
   36.1720   27.2490   41.0180 H   0  0  0  0  0  0  0  0  0  0  0  0
   36.7690   27.3850   42.6700 H   0  0  0  0  0  0  0  0  0  0  0  0
   37.4160   25.6370   41.5790 C   0  0  0  0  0  0  0  0  0  0  0  0
   36.8280   24.6200   40.8420 C   0  0  0  0  0  0  0  0  0  0  0  0
   35.9810   24.7750   40.1610 H   0  0  0  0  0  0  0  0  0  0  0  0
   37.5290   23.4800   41.1680 C   0  0  0  0  0  0  0  0  0  0  0  0
   37.2970   22.5220   40.7470 H   0  0  0  0  0  0  0  0  0  0  0  0
   38.4860   23.7920   42.0520 N   0  0  0  0  0  0  0  0  0  0  0  0
   39.1740   23.1370   42.4810 H   0  0  0  0  0  0  0  0  0  0  0  0
   38.4270   25.0840   42.3050 N   0  0  0  0  0  0  0  0  0  0  0  0
  2  3  1  0  0  0  0
  2  1  2  1  0  0  0
  3  4  1  0  0  0  0
  5  2  1  0  0  0  0
  6 11  1  0  0  0  0
  7  8  1  0  0  0  0
  7  6  2  0  0  0  0
  8  9  2  0  0  0  0
  9 10  1  0  0  0  0
 10  5  1  0  0  0  0
 11 10  2  0  0  0  0
 12  6  1  0  0  0  0
 13  7  1  0  0  0  0
 14  8  1  0  0  0  0
 15 16  1  0  0  0  0
 15  2  1  0  0  0  0
 16 18  1  0  0  0  0
 17 16  1  0  0  0  0
 19 16  1  0  0  0  0
 19 26  2  0  0  0  0
 20 22  2  0  0  0  0
 20 19  1  0  0  0  0
 21 20  1  0  0  0  0
 22 24  1  0  0  0  0
 23 22  1  0  0  0  0
 24 26  1  0  0  0  0
 24 25  1  0  0  0  0
M  END
>  <minimizedAffinity>
-4.4732852

$$$$

 OpenBabel03252505313D

 26 27  0  0  0  0  0  0  0  0999 V2000
   39.0900   33.2290   40.9750 O   0  0  0  0  0  0  0  0  0  0  0  0
   38.0140   32.6750   40.0560 P   0  0  1  0  0  0  0  0  0  0  0  0
   36.8490   33.8360   39.6720 O   0  0  0  0  0  0  0  0  0  0  0  0
   37.1750   34.5690   39.1140 H   0  0  0  0  0  0  0  0  0  0  0  0
   38.7800   32.1100   38.6560 O   0  0  0  0  0  0  0  0  0  0  0  0
   36.9160   29.9260   36.5700 C   0  0  0  0  0  0  0  0  0  0  0  0
   37.7020   28.7530   36.4930 C   0  0  0  0  0  0  0  0  0  0  0  0
   38.9100   28.7700   37.2080 C   0  0  0  0  0  0  0  0  0  0  0  0
   39.2450   29.8940   37.9170 N   0  0  0  0  0  0  0  0  0  0  0  0
   38.4510   30.9760   37.9460 C   0  0  0  0  0  0  0  0  0  0  0  0
   37.3070   30.9910   37.2840 N   0  0  0  0  0  0  0  0  0  0  0  0
   35.9750   29.9250   36.0170 H   0  0  0  0  0  0  0  0  0  0  0  0
   37.3790   27.9060   35.9180 H   0  0  0  0  0  0  0  0  0  0  0  0
   39.5540   27.9070   37.1910 H   0  0  0  0  0  0  0  0  0  0  0  0
   37.2160   31.4420   40.8890 O   0  0  0  0  0  0  0  0  0  0  0  0
   38.1660   30.6610   41.5070 C   0  0  0  0  0  0  0  0  0  0  0  0
   38.7310   31.2960   42.2120 H   0  0  0  0  0  0  0  0  0  0  0  0
   38.9360   30.3320   40.7510 H   0  0  0  0  0  0  0  0  0  0  0  0
   37.6170   29.5020   42.2460 C   0  0  0  0  0  0  0  0  0  0  0  0
   38.0660   28.9160   43.4200 C   0  0  0  0  0  0  0  0  0  0  0  0
   38.9430   29.2680   43.9780 H   0  0  0  0  0  0  0  0  0  0  0  0
   37.1950   27.8770   43.6650 C   0  0  0  0  0  0  0  0  0  0  0  0
   37.2930   27.2330   44.5170 H   0  0  0  0  0  0  0  0  0  0  0  0
   36.2740   27.8380   42.6940 N   0  0  0  0  0  0  0  0  0  0  0  0
   35.4860   27.1610   42.6110 H   0  0  0  0  0  0  0  0  0  0  0  0
   36.5180   28.8100   41.8370 N   0  0  0  0  0  0  0  0  0  0  0  0
  2 15  1  0  0  0  0
  2  1  2  1  0  0  0
  3  2  1  0  0  0  0
  4  3  1  0  0  0  0
  5  2  1  0  0  0  0
  6 11  1  0  0  0  0
  7  6  2  0  0  0  0
  7  8  1  0  0  0  0
  8  9  2  0  0  0  0
  9 10  1  0  0  0  0
 10  5  1  0  0  0  0
 11 10  2  0  0  0  0
 12  6  1  0  0  0  0
 13  7  1  0  0  0  0
 14  8  1  0  0  0  0
 15 16  1  0  0  0  0
 16 17  1  0  0  0  0
 16 19  1  0  0  0  0
 18 16  1  0  0  0  0
 19 20  1  0  0  0  0
 20 22  2  0  0  0  0
 20 21  1  0  0  0  0
 22 23  1  0  0  0  0
 24 22  1  0  0  0  0
 25 24  1  0  0  0  0
 26 19  2  0  0  0  0
 26 24  1  0  0  0  0
M  END
>  <minimizedAffinity>
-4.40315628

$$$$
