
 OpenBabel03242514243D

 33 36  0  0  0  0  0  0  0  0999 V2000
   40.7950   30.6510   40.8770 Cl  0  0  0  0  0  0  0  0  0  0  0  0
   39.2450   31.2700   40.3560 C   0  0  0  0  0  0  0  0  0  0  0  0
   39.1960   32.3280   39.5130 C   0  0  0  0  0  0  0  0  0  0  0  0
   37.9570   32.8400   39.0840 C   0  0  0  0  0  0  0  0  0  0  0  0
   36.8350   32.2200   39.5550 C   0  0  0  0  0  0  0  0  0  0  0  0
   36.9020   31.1340   40.4190 C   0  0  0  0  0  0  0  0  0  0  0  0
   38.1160   30.6580   40.8190 C   0  0  0  0  0  0  0  0  0  0  0  0
   37.8810   33.6830   38.4120 H   0  0  0  0  0  0  0  0  0  0  0  0
   35.8240   32.5280   39.2910 H   0  0  0  0  0  0  0  0  0  0  0  0
   36.0040   30.6520   40.7850 H   0  0  0  0  0  0  0  0  0  0  0  0
   38.2150   29.5180   41.7280 C   0  0  0  0  0  0  0  0  0  0  0  0
   38.0950   29.5250   43.0640 N   0  0  0  0  0  0  0  0  0  0  0  0
   38.2540   28.2670   43.5100 C   0  0  0  0  0  0  0  0  0  0  0  0
   38.4750   27.4580   42.4540 N   0  0  0  0  0  0  0  0  0  0  0  0
   38.4500   28.2310   41.3640 N   0  0  0  0  0  0  0  0  0  0  0  0
   38.1910   28.0670   44.5750 H   0  0  0  0  0  0  0  0  0  0  0  0
   38.6870   26.0550   42.5590 C   0  0  0  0  0  0  0  0  0  0  0  0
   39.9000   25.5420   43.0030 C   0  0  0  0  0  0  0  0  0  0  0  0
   40.8350   26.0220   43.3270 H   0  0  0  0  0  0  0  0  0  0  0  0
   39.7680   24.1580   42.9840 C   0  0  0  0  0  0  0  0  0  0  0  0
   40.4790   23.3790   43.2540 H   0  0  0  0  0  0  0  0  0  0  0  0
   38.5220   23.8670   42.5450 N   0  0  0  0  0  0  0  0  0  0  0  0
   38.1220   22.9000   42.4220 H   0  0  0  0  0  0  0  0  0  0  0  0
   37.8690   25.0140   42.2890 N   0  0  0  0  0  0  0  0  0  0  0  0
   42.1810   34.4750   39.3650 C   0  0  0  0  0  0  0  0  0  0  0  0
   42.7270   34.1300   38.1290 C   0  0  0  0  0  0  0  0  0  0  0  0
   42.0850   33.1750   37.3520 C   0  0  0  0  0  0  0  0  0  0  0  0
   40.9520   32.6250   37.8430 N   0  0  0  0  0  0  0  0  0  0  0  0
   40.4300   32.9610   39.0340 C   0  0  0  0  0  0  0  0  0  0  0  0
   41.0440   33.8850   39.7950 N   0  0  0  0  0  0  0  0  0  0  0  0
   42.7210   35.2170   39.9180 H   0  0  0  0  0  0  0  0  0  0  0  0
   43.6300   34.5460   37.7030 H   0  0  0  0  0  0  0  0  0  0  0  0
   42.3820   32.8060   36.3830 H   0  0  0  0  0  0  0  0  0  0  0  0
  2  7  1  0  0  0  0
  2  1  1  0  0  0  0
  3  2  2  0  0  0  0
  4  3  1  0  0  0  0
  4  5  2  0  0  0  0
  5  6  1  0  0  0  0
  6 10  1  0  0  0  0
  6  7  2  0  0  0  0
  7 11  1  0  0  0  0
  8  4  1  0  0  0  0
  9  5  1  0  0  0  0
 11 12  1  0  0  0  0
 12 13  2  0  0  0  0
 13 16  1  0  0  0  0
 14 17  1  0  0  0  0
 14 13  1  0  0  0  0
 15 11  2  0  0  0  0
 15 14  1  0  0  0  0
 17 18  1  0  0  0  0
 18 19  1  0  0  0  0
 20 18  2  0  0  0  0
 20 21  1  0  0  0  0
 22 20  1  0  0  0  0
 23 22  1  0  0  0  0
 24 22  1  0  0  0  0
 24 17  2  0  0  0  0
 25 30  1  0  0  0  0
 25 31  1  0  0  0  0
 26 25  2  0  0  0  0
 27 28  2  0  0  0  0
 27 26  1  0  0  0  0
 28 29  1  0  0  0  0
 29  3  1  0  0  0  0
 29 30  2  0  0  0  0
 32 26  1  0  0  0  0
 33 27  1  0  0  0  0
M  END
>  <minimizedAffinity>
-5.95053959

$$$$

 OpenBabel03242514243D

 33 36  0  0  0  0  0  0  0  0999 V2000
   39.3960   27.2200   40.1550 Cl  0  0  0  0  0  0  0  0  0  0  0  0
   38.4340   27.4910   41.5900 C   0  0  0  0  0  0  0  0  0  0  0  0
   37.5320   26.5580   41.9770 C   0  0  0  0  0  0  0  0  0  0  0  0
   36.7490   26.7600   43.1290 C   0  0  0  0  0  0  0  0  0  0  0  0
   36.9490   27.9220   43.8170 C   0  0  0  0  0  0  0  0  0  0  0  0
   37.8790   28.8700   43.4080 C   0  0  0  0  0  0  0  0  0  0  0  0
   38.6250   28.6480   42.2870 C   0  0  0  0  0  0  0  0  0  0  0  0
   36.0190   26.0370   43.4650 H   0  0  0  0  0  0  0  0  0  0  0  0
   36.4010   28.1850   44.7210 H   0  0  0  0  0  0  0  0  0  0  0  0
   38.0270   29.7870   43.9630 H   0  0  0  0  0  0  0  0  0  0  0  0
   39.6110   29.6280   41.8340 C   0  0  0  0  0  0  0  0  0  0  0  0
   40.8830   29.7540   42.2410 N   0  0  0  0  0  0  0  0  0  0  0  0
   41.4400   30.7800   41.5750 C   0  0  0  0  0  0  0  0  0  0  0  0
   40.5190   31.3080   40.7440 N   0  0  0  0  0  0  0  0  0  0  0  0
   39.3990   30.5970   40.9080 N   0  0  0  0  0  0  0  0  0  0  0  0
   42.4760   31.0420   41.7680 H   0  0  0  0  0  0  0  0  0  0  0  0
   40.7660   32.4140   39.8840 C   0  0  0  0  0  0  0  0  0  0  0  0
   40.8290   33.7110   40.3800 C   0  0  0  0  0  0  0  0  0  0  0  0
   40.7200   34.1250   41.3930 H   0  0  0  0  0  0  0  0  0  0  0  0
   41.0810   34.5340   39.2870 C   0  0  0  0  0  0  0  0  0  0  0  0
   41.2030   35.6150   39.2330 H   0  0  0  0  0  0  0  0  0  0  0  0
   41.1630   33.7490   38.1880 N   0  0  0  0  0  0  0  0  0  0  0  0
   41.3470   34.0830   37.2060 H   0  0  0  0  0  0  0  0  0  0  0  0
   40.9740   32.4690   38.5490 N   0  0  0  0  0  0  0  0  0  0  0  0
   36.3080   24.1700   39.4580 C   0  0  0  0  0  0  0  0  0  0  0  0
   37.0320   23.0190   39.7720 C   0  0  0  0  0  0  0  0  0  0  0  0
   37.9290   23.0560   40.8320 C   0  0  0  0  0  0  0  0  0  0  0  0
   38.0520   24.2190   41.5090 N   0  0  0  0  0  0  0  0  0  0  0  0
   37.3530   25.3240   41.2030 C   0  0  0  0  0  0  0  0  0  0  0  0
   36.4820   25.3000   40.1780 N   0  0  0  0  0  0  0  0  0  0  0  0
   35.6330   24.0800   38.6320 H   0  0  0  0  0  0  0  0  0  0  0  0
   36.9610   22.0720   39.2550 H   0  0  0  0  0  0  0  0  0  0  0  0
   38.5540   22.2550   41.1920 H   0  0  0  0  0  0  0  0  0  0  0  0
  1  2  1  0  0  0  0
  2  3  2  0  0  0  0
  2  7  1  0  0  0  0
  3  4  1  0  0  0  0
  4  8  1  0  0  0  0
  4  5  2  0  0  0  0
  5  9  1  0  0  0  0
  6  5  1  0  0  0  0
  6 10  1  0  0  0  0
  7  6  2  0  0  0  0
 11 12  1  0  0  0  0
 11  7  1  0  0  0  0
 13 16  1  0  0  0  0
 13 12  2  0  0  0  0
 14 15  1  0  0  0  0
 14 13  1  0  0  0  0
 15 11  2  0  0  0  0
 17 18  1  0  0  0  0
 17 14  1  0  0  0  0
 18 19  1  0  0  0  0
 20 18  2  0  0  0  0
 21 20  1  0  0  0  0
 22 24  1  0  0  0  0
 22 20  1  0  0  0  0
 23 22  1  0  0  0  0
 24 17  2  0  0  0  0
 25 26  2  0  0  0  0
 25 30  1  0  0  0  0
 26 27  1  0  0  0  0
 27 33  1  0  0  0  0
 27 28  2  0  0  0  0
 29 28  1  0  0  0  0
 29  3  1  0  0  0  0
 30 29  2  0  0  0  0
 31 25  1  0  0  0  0
 32 26  1  0  0  0  0
M  END
>  <minimizedAffinity>
-5.66312075

$$$$

 OpenBabel03242514243D

 33 36  0  0  0  0  0  0  0  0999 V2000
   39.5170   28.1360   40.6480 Cl  0  0  0  0  0  0  0  0  0  0  0  0
   37.9570   28.9270   40.6500 C   0  0  0  0  0  0  0  0  0  0  0  0
   36.8310   28.1850   40.7740 C   0  0  0  0  0  0  0  0  0  0  0  0
   35.5670   28.8060   40.7770 C   0  0  0  0  0  0  0  0  0  0  0  0
   35.5450   30.1650   40.6520 C   0  0  0  0  0  0  0  0  0  0  0  0
   36.7100   30.9120   40.5260 C   0  0  0  0  0  0  0  0  0  0  0  0
   37.9210   30.2860   40.5260 C   0  0  0  0  0  0  0  0  0  0  0  0
   34.6490   28.2440   40.8740 H   0  0  0  0  0  0  0  0  0  0  0  0
   34.6270   30.7510   40.6420 H   0  0  0  0  0  0  0  0  0  0  0  0
   36.6760   31.9900   40.4270 H   0  0  0  0  0  0  0  0  0  0  0  0
   39.1620   31.0470   40.3950 C   0  0  0  0  0  0  0  0  0  0  0  0
   39.9810   31.4500   41.3780 N   0  0  0  0  0  0  0  0  0  0  0  0
   41.0050   32.1220   40.8260 C   0  0  0  0  0  0  0  0  0  0  0  0
   40.8370   32.1470   39.4890 N   0  0  0  0  0  0  0  0  0  0  0  0
   39.7040   31.4860   39.2310 N   0  0  0  0  0  0  0  0  0  0  0  0
   41.7810   32.5310   41.4670 H   0  0  0  0  0  0  0  0  0  0  0  0
   41.7390   32.7770   38.5870 C   0  0  0  0  0  0  0  0  0  0  0  0
   41.7680   34.1610   38.4490 C   0  0  0  0  0  0  0  0  0  0  0  0
   41.1940   34.9670   38.9270 H   0  0  0  0  0  0  0  0  0  0  0  0
   42.7470   34.4360   37.5000 C   0  0  0  0  0  0  0  0  0  0  0  0
   43.0900   35.3890   37.0990 H   0  0  0  0  0  0  0  0  0  0  0  0
   43.2750   33.2580   37.0960 N   0  0  0  0  0  0  0  0  0  0  0  0
   44.0400   33.1390   36.3810 H   0  0  0  0  0  0  0  0  0  0  0  0
   42.6660   32.2560   37.7520 N   0  0  0  0  0  0  0  0  0  0  0  0
   37.1650   24.8320   42.2520 C   0  0  0  0  0  0  0  0  0  0  0  0
   37.0460   24.0070   41.1340 C   0  0  0  0  0  0  0  0  0  0  0  0
   36.8530   24.5870   39.8870 C   0  0  0  0  0  0  0  0  0  0  0  0
   36.7910   25.9360   39.8250 N   0  0  0  0  0  0  0  0  0  0  0  0
   36.9070   26.7270   40.9050 C   0  0  0  0  0  0  0  0  0  0  0  0
   37.0930   26.1750   42.1180 N   0  0  0  0  0  0  0  0  0  0  0  0
   37.3120   24.3270   43.1860 H   0  0  0  0  0  0  0  0  0  0  0  0
   37.0900   22.9260   41.1430 H   0  0  0  0  0  0  0  0  0  0  0  0
   36.7440   24.0870   38.9380 H   0  0  0  0  0  0  0  0  0  0  0  0
  1  2  1  0  0  0  0
  2  3  1  0  0  0  0
  3  4  2  0  0  0  0
  3 29  1  0  0  0  0
  4  8  1  0  0  0  0
  5  4  1  0  0  0  0
  6  7  1  0  0  0  0
  6  5  2  0  0  0  0
  7  2  2  0  0  0  0
  9  5  1  0  0  0  0
 10  6  1  0  0  0  0
 11  7  1  0  0  0  0
 11 12  1  0  0  0  0
 13 12  2  0  0  0  0
 13 16  1  0  0  0  0
 14 13  1  0  0  0  0
 15 14  1  0  0  0  0
 15 11  2  0  0  0  0
 17 14  1  0  0  0  0
 18 17  1  0  0  0  0
 18 19  1  0  0  0  0
 20 18  2  0  0  0  0
 21 20  1  0  0  0  0
 22 20  1  0  0  0  0
 22 24  1  0  0  0  0
 23 22  1  0  0  0  0
 24 17  2  0  0  0  0
 25 31  1  0  0  0  0
 26 32  1  0  0  0  0
 26 25  2  0  0  0  0
 27 26  1  0  0  0  0
 28 27  2  0  0  0  0
 28 29  1  0  0  0  0
 29 30  2  0  0  0  0
 30 25  1  0  0  0  0
 33 27  1  0  0  0  0
M  END
>  <minimizedAffinity>
-5.63671637

$$$$

 OpenBabel03242514243D

 33 36  0  0  0  0  0  0  0  0999 V2000
   38.3090   27.5710   39.1640 Cl  0  0  0  0  0  0  0  0  0  0  0  0
   37.9480   27.9200   40.8380 C   0  0  0  0  0  0  0  0  0  0  0  0
   37.6550   26.9050   41.6860 C   0  0  0  0  0  0  0  0  0  0  0  0
   37.3610   27.1690   43.0370 C   0  0  0  0  0  0  0  0  0  0  0  0
   37.3910   28.4750   43.4330 C   0  0  0  0  0  0  0  0  0  0  0  0
   37.6940   29.5060   42.5520 C   0  0  0  0  0  0  0  0  0  0  0  0
   37.9750   29.2220   41.2470 C   0  0  0  0  0  0  0  0  0  0  0  0
   37.1220   26.3830   43.7400 H   0  0  0  0  0  0  0  0  0  0  0  0
   37.1810   28.7970   44.4530 H   0  0  0  0  0  0  0  0  0  0  0  0
   37.7140   30.5370   42.8810 H   0  0  0  0  0  0  0  0  0  0  0  0
   38.2980   30.2870   40.2990 C   0  0  0  0  0  0  0  0  0  0  0  0
   37.4820   30.8510   39.3960 N   0  0  0  0  0  0  0  0  0  0  0  0
   38.1750   31.7880   38.7270 C   0  0  0  0  0  0  0  0  0  0  0  0
   39.4350   31.8190   39.2060 N   0  0  0  0  0  0  0  0  0  0  0  0
   39.5040   30.8960   40.1710 N   0  0  0  0  0  0  0  0  0  0  0  0
   37.6830   32.3600   37.9470 H   0  0  0  0  0  0  0  0  0  0  0  0
   40.4460   32.6980   38.7260 C   0  0  0  0  0  0  0  0  0  0  0  0
   41.0830   32.4650   37.5120 C   0  0  0  0  0  0  0  0  0  0  0  0
   40.9750   31.6740   36.7560 H   0  0  0  0  0  0  0  0  0  0  0  0
   42.0010   33.4980   37.3510 C   0  0  0  0  0  0  0  0  0  0  0  0
   42.7030   33.6950   36.5420 H   0  0  0  0  0  0  0  0  0  0  0  0
   41.9060   34.3080   38.4300 N   0  0  0  0  0  0  0  0  0  0  0  0
   42.4740   35.1800   38.5970 H   0  0  0  0  0  0  0  0  0  0  0  0
   40.9660   33.8250   39.2600 N   0  0  0  0  0  0  0  0  0  0  0  0
   38.7340   23.4770   40.8970 C   0  0  0  0  0  0  0  0  0  0  0  0
   37.5840   22.9340   40.3230 C   0  0  0  0  0  0  0  0  0  0  0  0
   36.4500   23.7280   40.2070 C   0  0  0  0  0  0  0  0  0  0  0  0
   36.5250   24.9990   40.6600 N   0  0  0  0  0  0  0  0  0  0  0  0
   37.6350   25.5170   41.2120 C   0  0  0  0  0  0  0  0  0  0  0  0
   38.7390   24.7570   41.3290 N   0  0  0  0  0  0  0  0  0  0  0  0
   39.5750   22.8170   40.9590 H   0  0  0  0  0  0  0  0  0  0  0  0
   37.4850   21.9230   39.9500 H   0  0  0  0  0  0  0  0  0  0  0  0
   35.4940   23.4530   39.7910 H   0  0  0  0  0  0  0  0  0  0  0  0
  1  2  1  0  0  0  0
  2  7  2  0  0  0  0
  2  3  1  0  0  0  0
  3  4  2  0  0  0  0
  4  5  1  0  0  0  0
  4  8  1  0  0  0  0
  5  9  1  0  0  0  0
  6 10  1  0  0  0  0
  6  5  2  0  0  0  0
  7  6  1  0  0  0  0
 11  7  1  0  0  0  0
 12 11  1  0  0  0  0
 13 14  1  0  0  0  0
 13 12  2  0  0  0  0
 14 15  1  0  0  0  0
 15 11  2  0  0  0  0
 16 13  1  0  0  0  0
 17 14  1  0  0  0  0
 17 24  2  0  0  0  0
 18 17  1  0  0  0  0
 19 18  1  0  0  0  0
 20 18  2  0  0  0  0
 20 22  1  0  0  0  0
 21 20  1  0  0  0  0
 22 23  1  0  0  0  0
 22 24  1  0  0  0  0
 25 31  1  0  0  0  0
 25 30  1  0  0  0  0
 26 25  2  0  0  0  0
 27 26  1  0  0  0  0
 27 28  2  0  0  0  0
 28 29  1  0  0  0  0
 29 30  2  0  0  0  0
 29  3  1  0  0  0  0
 32 26  1  0  0  0  0
 33 27  1  0  0  0  0
M  END
>  <minimizedAffinity>
-5.60031366

$$$$

 OpenBabel03242514243D

 33 36  0  0  0  0  0  0  0  0999 V2000
   37.4130   31.0060   36.9850 Cl  0  0  0  0  0  0  0  0  0  0  0  0
   36.5370   30.3610   38.3540 C   0  0  0  0  0  0  0  0  0  0  0  0
   35.6650   29.3410   38.1700 C   0  0  0  0  0  0  0  0  0  0  0  0
   34.9510   28.8100   39.2610 C   0  0  0  0  0  0  0  0  0  0  0  0
   35.1850   29.3690   40.4840 C   0  0  0  0  0  0  0  0  0  0  0  0
   36.0830   30.4150   40.6570 C   0  0  0  0  0  0  0  0  0  0  0  0
   36.7620   30.9110   39.5820 C   0  0  0  0  0  0  0  0  0  0  0  0
   34.2470   27.9970   39.1500 H   0  0  0  0  0  0  0  0  0  0  0  0
   34.6910   29.0400   41.3980 H   0  0  0  0  0  0  0  0  0  0  0  0
   36.2580   30.8480   41.6330 H   0  0  0  0  0  0  0  0  0  0  0  0
   37.7120   32.0100   39.7360 C   0  0  0  0  0  0  0  0  0  0  0  0
   37.4370   33.3190   39.8440 N   0  0  0  0  0  0  0  0  0  0  0  0
   38.5970   33.9860   39.9670 C   0  0  0  0  0  0  0  0  0  0  0  0
   39.6120   33.1000   39.9380 N   0  0  0  0  0  0  0  0  0  0  0  0
   39.0630   31.8890   39.7950 N   0  0  0  0  0  0  0  0  0  0  0  0
   38.5820   35.0670   40.0670 H   0  0  0  0  0  0  0  0  0  0  0  0
   40.9840   33.4590   40.0430 C   0  0  0  0  0  0  0  0  0  0  0  0
   41.6630   34.0300   38.9720 C   0  0  0  0  0  0  0  0  0  0  0  0
   41.3510   34.2970   37.9520 H   0  0  0  0  0  0  0  0  0  0  0  0
   42.9640   34.2530   39.4100 C   0  0  0  0  0  0  0  0  0  0  0  0
   43.8190   34.6810   38.8890 H   0  0  0  0  0  0  0  0  0  0  0  0
   43.0480   33.8290   40.6920 N   0  0  0  0  0  0  0  0  0  0  0  0
   43.9090   33.8660   41.2980 H   0  0  0  0  0  0  0  0  0  0  0  0
   41.8520   33.3500   41.0740 N   0  0  0  0  0  0  0  0  0  0  0  0
   36.1150   27.3250   35.1250 C   0  0  0  0  0  0  0  0  0  0  0  0
   35.0300   27.7270   34.3460 C   0  0  0  0  0  0  0  0  0  0  0  0
   34.1520   28.6760   34.8530 C   0  0  0  0  0  0  0  0  0  0  0  0
   34.4010   29.1640   36.0890 N   0  0  0  0  0  0  0  0  0  0  0  0
   35.4480   28.7740   36.8350 C   0  0  0  0  0  0  0  0  0  0  0  0
   36.3040   27.8550   36.3530 N   0  0  0  0  0  0  0  0  0  0  0  0
   36.7570   26.5910   34.6800 H   0  0  0  0  0  0  0  0  0  0  0  0
   34.7980   27.3600   33.3550 H   0  0  0  0  0  0  0  0  0  0  0  0
   33.2750   29.0830   34.3760 H   0  0  0  0  0  0  0  0  0  0  0  0
  1  2  1  0  0  0  0
  2  7  1  0  0  0  0
  3  2  2  0  0  0  0
  3  4  1  0  0  0  0
  4  5  2  0  0  0  0
  5  6  1  0  0  0  0
  5  9  1  0  0  0  0
  6 10  1  0  0  0  0
  7 11  1  0  0  0  0
  7  6  2  0  0  0  0
  8  4  1  0  0  0  0
 11 15  2  0  0  0  0
 11 12  1  0  0  0  0
 12 13  2  0  0  0  0
 13 16  1  0  0  0  0
 14 13  1  0  0  0  0
 14 17  1  0  0  0  0
 15 14  1  0  0  0  0
 17 24  2  0  0  0  0
 18 20  2  0  0  0  0
 18 17  1  0  0  0  0
 19 18  1  0  0  0  0
 20 22  1  0  0  0  0
 21 20  1  0  0  0  0
 22 24  1  0  0  0  0
 22 23  1  0  0  0  0
 25 30  1  0  0  0  0
 26 27  1  0  0  0  0
 26 25  2  0  0  0  0
 27 28  2  0  0  0  0
 28 29  1  0  0  0  0
 29  3  1  0  0  0  0
 30 29  2  0  0  0  0
 31 25  1  0  0  0  0
 32 26  1  0  0  0  0
 33 27  1  0  0  0  0
M  END
>  <minimizedAffinity>
-5.50947905

$$$$

 OpenBabel03242514243D

 33 36  0  0  0  0  0  0  0  0999 V2000
   39.9330   28.7610   39.6130 Cl  0  0  0  0  0  0  0  0  0  0  0  0
   38.5590   29.7300   40.0930 C   0  0  0  0  0  0  0  0  0  0  0  0
   37.5870   29.1800   40.8600 C   0  0  0  0  0  0  0  0  0  0  0  0
   36.4740   29.9450   41.2550 C   0  0  0  0  0  0  0  0  0  0  0  0
   36.4330   31.2420   40.8310 C   0  0  0  0  0  0  0  0  0  0  0  0
   37.4380   31.7930   40.0450 C   0  0  0  0  0  0  0  0  0  0  0  0
   38.5060   31.0280   39.6760 C   0  0  0  0  0  0  0  0  0  0  0  0
   35.6810   29.5380   41.8660 H   0  0  0  0  0  0  0  0  0  0  0  0
   35.6220   31.9280   41.0750 H   0  0  0  0  0  0  0  0  0  0  0  0
   37.3920   32.8230   39.7160 H   0  0  0  0  0  0  0  0  0  0  0  0
   39.5770   31.5820   38.8500 C   0  0  0  0  0  0  0  0  0  0  0  0
   39.6220   31.6530   37.5110 N   0  0  0  0  0  0  0  0  0  0  0  0
   40.7820   32.2310   37.1570 C   0  0  0  0  0  0  0  0  0  0  0  0
   41.4760   32.5280   38.2730 N   0  0  0  0  0  0  0  0  0  0  0  0
   40.7320   32.1270   39.3090 N   0  0  0  0  0  0  0  0  0  0  0  0
   41.0050   32.3790   36.1040 H   0  0  0  0  0  0  0  0  0  0  0  0
   42.7550   33.1520   38.2710 C   0  0  0  0  0  0  0  0  0  0  0  0
   43.9020   32.4390   37.9390 C   0  0  0  0  0  0  0  0  0  0  0  0
   44.0680   31.3920   37.6460 H   0  0  0  0  0  0  0  0  0  0  0  0
   44.9600   33.3370   38.0370 C   0  0  0  0  0  0  0  0  0  0  0  0
   46.0250   33.1920   37.8630 H   0  0  0  0  0  0  0  0  0  0  0  0
   44.4540   34.5340   38.4120 N   0  0  0  0  0  0  0  0  0  0  0  0
   45.0090   35.4160   38.5700 H   0  0  0  0  0  0  0  0  0  0  0  0
   43.1220   34.4220   38.5530 N   0  0  0  0  0  0  0  0  0  0  0  0
   38.4530   26.1820   42.8110 C   0  0  0  0  0  0  0  0  0  0  0  0
   37.8340   25.1690   42.0790 C   0  0  0  0  0  0  0  0  0  0  0  0
   37.1260   25.5030   40.9310 C   0  0  0  0  0  0  0  0  0  0  0  0
   37.0770   26.8080   40.5820 N   0  0  0  0  0  0  0  0  0  0  0  0
   37.6760   27.7810   41.2900 C   0  0  0  0  0  0  0  0  0  0  0  0
   38.3640   27.4670   42.4040 N   0  0  0  0  0  0  0  0  0  0  0  0
   38.9830   25.8630   43.6850 H   0  0  0  0  0  0  0  0  0  0  0  0
   37.8490   24.1160   42.3250 H   0  0  0  0  0  0  0  0  0  0  0  0
   36.5980   24.8390   40.2670 H   0  0  0  0  0  0  0  0  0  0  0  0
  1  2  1  0  0  0  0
  2  3  1  0  0  0  0
  3  4  2  0  0  0  0
  3 29  1  0  0  0  0
  4  8  1  0  0  0  0
  5  9  1  0  0  0  0
  5  4  1  0  0  0  0
  6  5  2  0  0  0  0
  7  6  1  0  0  0  0
  7  2  2  0  0  0  0
 10  6  1  0  0  0  0
 11 15  2  0  0  0  0
 11  7  1  0  0  0  0
 12 11  1  0  0  0  0
 13 12  2  0  0  0  0
 13 14  1  0  0  0  0
 14 15  1  0  0  0  0
 16 13  1  0  0  0  0
 17 14  1  0  0  0  0
 17 24  2  0  0  0  0
 18 20  2  0  0  0  0
 18 17  1  0  0  0  0
 19 18  1  0  0  0  0
 20 22  1  0  0  0  0
 21 20  1  0  0  0  0
 22 24  1  0  0  0  0
 22 23  1  0  0  0  0
 25 31  1  0  0  0  0
 26 32  1  0  0  0  0
 26 25  2  0  0  0  0
 27 26  1  0  0  0  0
 28 27  2  0  0  0  0
 28 29  1  0  0  0  0
 29 30  2  0  0  0  0
 30 25  1  0  0  0  0
 33 27  1  0  0  0  0
M  END
>  <minimizedAffinity>
-5.41354942

$$$$

 OpenBabel03242514243D

 33 36  0  0  0  0  0  0  0  0999 V2000
   36.4630   27.1150   38.3920 Cl  0  0  0  0  0  0  0  0  0  0  0  0
   36.6340   26.2430   39.8980 C   0  0  0  0  0  0  0  0  0  0  0  0
   36.5760   24.8900   39.8990 C   0  0  0  0  0  0  0  0  0  0  0  0
   36.7120   24.1730   41.1020 C   0  0  0  0  0  0  0  0  0  0  0  0
   36.9020   24.9030   42.2400 C   0  0  0  0  0  0  0  0  0  0  0  0
   36.9600   26.2910   42.2230 C   0  0  0  0  0  0  0  0  0  0  0  0
   36.8260   26.9620   41.0420 C   0  0  0  0  0  0  0  0  0  0  0  0
   36.6690   23.0930   41.1390 H   0  0  0  0  0  0  0  0  0  0  0  0
   37.0200   24.4560   43.2260 H   0  0  0  0  0  0  0  0  0  0  0  0
   37.1120   26.8570   43.1330 H   0  0  0  0  0  0  0  0  0  0  0  0
   36.8830   28.4220   40.9960 C   0  0  0  0  0  0  0  0  0  0  0  0
   35.8620   29.2830   41.1200 N   0  0  0  0  0  0  0  0  0  0  0  0
   36.3480   30.5320   41.0170 C   0  0  0  0  0  0  0  0  0  0  0  0
   37.6810   30.4640   40.8280 N   0  0  0  0  0  0  0  0  0  0  0  0
   38.0030   29.1660   40.8160 N   0  0  0  0  0  0  0  0  0  0  0  0
   35.6690   31.3760   41.0920 H   0  0  0  0  0  0  0  0  0  0  0  0
   38.5210   31.6020   40.6780 C   0  0  0  0  0  0  0  0  0  0  0  0
   38.5500   32.3230   39.4890 C   0  0  0  0  0  0  0  0  0  0  0  0
   38.0170   32.2040   38.5350 H   0  0  0  0  0  0  0  0  0  0  0  0
   39.4640   33.3540   39.6810 C   0  0  0  0  0  0  0  0  0  0  0  0
   39.7850   34.1440   39.0050 H   0  0  0  0  0  0  0  0  0  0  0  0
   39.9530   33.2440   40.9380 N   0  0  0  0  0  0  0  0  0  0  0  0
   40.6660   33.8820   41.3790 H   0  0  0  0  0  0  0  0  0  0  0  0
   39.3840   32.1860   41.5390 N   0  0  0  0  0  0  0  0  0  0  0  0
   37.2540   23.0600   36.7790 C   0  0  0  0  0  0  0  0  0  0  0  0
   35.9670   22.7730   36.3240 C   0  0  0  0  0  0  0  0  0  0  0  0
   34.8770   23.1980   37.0730 C   0  0  0  0  0  0  0  0  0  0  0  0
   35.1270   23.8750   38.2150 N   0  0  0  0  0  0  0  0  0  0  0  0
   36.3690   24.1500   38.6490 C   0  0  0  0  0  0  0  0  0  0  0  0
   37.4310   23.7430   37.9320 N   0  0  0  0  0  0  0  0  0  0  0  0
   38.0530   22.7070   36.1590 H   0  0  0  0  0  0  0  0  0  0  0  0
   35.7270   22.2340   35.4170 H   0  0  0  0  0  0  0  0  0  0  0  0
   33.8320   23.0530   36.8540 H   0  0  0  0  0  0  0  0  0  0  0  0
  1  2  1  0  0  0  0
  2  3  2  0  0  0  0
  2  7  1  0  0  0  0
  3  4  1  0  0  0  0
  4  8  1  0  0  0  0
  4  5  2  0  0  0  0
  5  9  1  0  0  0  0
  6  5  1  0  0  0  0
  6 10  1  0  0  0  0
  7  6  2  0  0  0  0
 11  7  1  0  0  0  0
 11 12  1  0  0  0  0
 13 16  1  0  0  0  0
 13 12  2  0  0  0  0
 14 13  1  0  0  0  0
 15 14  1  0  0  0  0
 15 11  2  0  0  0  0
 17 14  1  0  0  0  0
 17 24  2  0  0  0  0
 18 20  2  0  0  0  0
 18 17  1  0  0  0  0
 19 18  1  0  0  0  0
 20 22  1  0  0  0  0
 21 20  1  0  0  0  0
 22 23  1  0  0  0  0
 22 24  1  0  0  0  0
 25 30  1  0  0  0  0
 26 25  2  0  0  0  0
 26 27  1  0  0  0  0
 27 28  2  0  0  0  0
 28 29  1  0  0  0  0
 29  3  1  0  0  0  0
 30 29  2  0  0  0  0
 31 25  1  0  0  0  0
 32 26  1  0  0  0  0
 33 27  1  0  0  0  0
M  END
>  <minimizedAffinity>
-5.36200285

$$$$

 OpenBabel03242514243D

 33 36  0  0  0  0  0  0  0  0999 V2000
   40.8030   30.1270   38.9460 Cl  0  0  0  0  0  0  0  0  0  0  0  0
   39.4720   31.1790   39.3670 C   0  0  0  0  0  0  0  0  0  0  0  0
   39.6580   32.5210   39.3830 C   0  0  0  0  0  0  0  0  0  0  0  0
   38.5970   33.3820   39.7200 C   0  0  0  0  0  0  0  0  0  0  0  0
   37.3990   32.8000   40.0200 C   0  0  0  0  0  0  0  0  0  0  0  0
   37.2230   31.4220   39.9980 C   0  0  0  0  0  0  0  0  0  0  0  0
   38.2690   30.6100   39.6680 C   0  0  0  0  0  0  0  0  0  0  0  0
   38.7110   34.4570   39.7430 H   0  0  0  0  0  0  0  0  0  0  0  0
   36.5090   33.3670   40.2940 H   0  0  0  0  0  0  0  0  0  0  0  0
   36.2670   30.9750   40.2380 H   0  0  0  0  0  0  0  0  0  0  0  0
   38.1110   29.1570   39.6370 C   0  0  0  0  0  0  0  0  0  0  0  0
   37.7290   28.3990   38.5990 N   0  0  0  0  0  0  0  0  0  0  0  0
   37.7140   27.1150   38.9950 C   0  0  0  0  0  0  0  0  0  0  0  0
   38.0870   27.0570   40.2890 N   0  0  0  0  0  0  0  0  0  0  0  0
   38.3290   28.3130   40.6780 N   0  0  0  0  0  0  0  0  0  0  0  0
   37.4270   26.3420   38.2890 H   0  0  0  0  0  0  0  0  0  0  0  0
   38.1820   25.8490   41.0350 C   0  0  0  0  0  0  0  0  0  0  0  0
   37.0430   25.2000   41.5000 C   0  0  0  0  0  0  0  0  0  0  0  0
   35.9710   25.4280   41.4150 H   0  0  0  0  0  0  0  0  0  0  0  0
   37.4900   24.0710   42.1790 C   0  0  0  0  0  0  0  0  0  0  0  0
   36.9300   23.2920   42.6940 H   0  0  0  0  0  0  0  0  0  0  0  0
   38.8410   24.0570   42.1160 N   0  0  0  0  0  0  0  0  0  0  0  0
   39.4700   23.3240   42.5380 H   0  0  0  0  0  0  0  0  0  0  0  0
   39.2590   25.1310   41.4240 N   0  0  0  0  0  0  0  0  0  0  0  0
   43.0360   33.9330   39.7490 C   0  0  0  0  0  0  0  0  0  0  0  0
   43.3960   34.1740   38.4230 C   0  0  0  0  0  0  0  0  0  0  0  0
   42.4970   33.8580   37.4130 C   0  0  0  0  0  0  0  0  0  0  0  0
   41.3080   33.3280   37.7750 N   0  0  0  0  0  0  0  0  0  0  0  0
   40.9650   33.0980   39.0540 C   0  0  0  0  0  0  0  0  0  0  0  0
   41.8290   33.4010   40.0390 N   0  0  0  0  0  0  0  0  0  0  0  0
   43.7700   34.1980   40.4820 H   0  0  0  0  0  0  0  0  0  0  0  0
   44.3370   34.5950   38.0940 H   0  0  0  0  0  0  0  0  0  0  0  0
   42.6300   33.9830   36.3500 H   0  0  0  0  0  0  0  0  0  0  0  0
  1  2  1  0  0  0  0
  2  3  2  0  0  0  0
  2  7  1  0  0  0  0
  3  4  1  0  0  0  0
  4  8  1  0  0  0  0
  4  5  2  0  0  0  0
  5  9  1  0  0  0  0
  6  5  1  0  0  0  0
  6 10  1  0  0  0  0
  7  6  2  0  0  0  0
 11  7  1  0  0  0  0
 11 15  2  0  0  0  0
 12 13  2  0  0  0  0
 12 11  1  0  0  0  0
 13 14  1  0  0  0  0
 14 15  1  0  0  0  0
 14 17  1  0  0  0  0
 16 13  1  0  0  0  0
 17 24  2  0  0  0  0
 17 18  1  0  0  0  0
 18 20  2  0  0  0  0
 19 18  1  0  0  0  0
 20 21  1  0  0  0  0
 22 20  1  0  0  0  0
 22 23  1  0  0  0  0
 24 22  1  0  0  0  0
 25 30  1  0  0  0  0
 25 31  1  0  0  0  0
 26 25  2  0  0  0  0
 27 28  2  0  0  0  0
 27 26  1  0  0  0  0
 28 29  1  0  0  0  0
 29  3  1  0  0  0  0
 29 30  2  0  0  0  0
 32 26  1  0  0  0  0
 33 27  1  0  0  0  0
M  END
>  <minimizedAffinity>
-5.31382942

$$$$

 OpenBabel03242514243D

 33 36  0  0  0  0  0  0  0  0999 V2000
   37.8400   26.9950   40.6790 Cl  0  0  0  0  0  0  0  0  0  0  0  0
   36.6950   26.9280   39.3600 C   0  0  0  0  0  0  0  0  0  0  0  0
   36.4830   25.7550   38.7160 C   0  0  0  0  0  0  0  0  0  0  0  0
   35.5650   25.6830   37.6520 C   0  0  0  0  0  0  0  0  0  0  0  0
   34.9170   26.8360   37.3150 C   0  0  0  0  0  0  0  0  0  0  0  0
   35.1440   28.0320   37.9850 C   0  0  0  0  0  0  0  0  0  0  0  0
   36.0390   28.0740   39.0130 C   0  0  0  0  0  0  0  0  0  0  0  0
   35.3720   24.7640   37.1170 H   0  0  0  0  0  0  0  0  0  0  0  0
   34.1860   26.8990   36.5090 H   0  0  0  0  0  0  0  0  0  0  0  0
   34.6230   28.9380   37.7060 H   0  0  0  0  0  0  0  0  0  0  0  0
   36.2980   29.3180   39.7350 C   0  0  0  0  0  0  0  0  0  0  0  0
   35.5910   29.8350   40.7510 N   0  0  0  0  0  0  0  0  0  0  0  0
   36.1680   30.9910   41.1230 C   0  0  0  0  0  0  0  0  0  0  0  0
   37.2440   31.2080   40.3410 N   0  0  0  0  0  0  0  0  0  0  0  0
   37.3190   30.1790   39.4920 N   0  0  0  0  0  0  0  0  0  0  0  0
   35.7370   31.5630   41.9380 H   0  0  0  0  0  0  0  0  0  0  0  0
   38.0940   32.3430   40.4580 C   0  0  0  0  0  0  0  0  0  0  0  0
   37.6980   33.5900   39.9860 C   0  0  0  0  0  0  0  0  0  0  0  0
   36.7810   33.9390   39.4890 H   0  0  0  0  0  0  0  0  0  0  0  0
   38.7490   34.4600   40.2550 C   0  0  0  0  0  0  0  0  0  0  0  0
   38.8520   35.5240   40.0500 H   0  0  0  0  0  0  0  0  0  0  0  0
   39.7280   33.7510   40.8640 N   0  0  0  0  0  0  0  0  0  0  0  0
   40.6530   34.1340   41.1920 H   0  0  0  0  0  0  0  0  0  0  0  0
   39.3310   32.4730   40.9870 N   0  0  0  0  0  0  0  0  0  0  0  0
   37.3770   22.6550   40.4860 C   0  0  0  0  0  0  0  0  0  0  0  0
   38.5620   22.2860   39.8480 C   0  0  0  0  0  0  0  0  0  0  0  0
   39.0520   23.0860   38.8240 C   0  0  0  0  0  0  0  0  0  0  0  0
   38.3460   24.1920   38.4980 N   0  0  0  0  0  0  0  0  0  0  0  0
   37.2050   24.5420   39.1160 C   0  0  0  0  0  0  0  0  0  0  0  0
   36.7220   23.7740   40.1080 N   0  0  0  0  0  0  0  0  0  0  0  0
   37.0500   21.9990   41.2670 H   0  0  0  0  0  0  0  0  0  0  0  0
   39.1550   21.4110   40.0790 H   0  0  0  0  0  0  0  0  0  0  0  0
   39.9460   22.9350   38.2410 H   0  0  0  0  0  0  0  0  0  0  0  0
  2  1  1  0  0  0  0
  3 29  1  0  0  0  0
  3  2  2  0  0  0  0
  4  3  1  0  0  0  0
  5  4  2  0  0  0  0
  5  6  1  0  0  0  0
  6  7  2  0  0  0  0
  7  2  1  0  0  0  0
  7 11  1  0  0  0  0
  8  4  1  0  0  0  0
  9  5  1  0  0  0  0
 10  6  1  0  0  0  0
 11 12  1  0  0  0  0
 12 13  2  0  0  0  0
 13 16  1  0  0  0  0
 14 17  1  0  0  0  0
 14 13  1  0  0  0  0
 15 11  2  0  0  0  0
 15 14  1  0  0  0  0
 17 24  2  0  0  0  0
 18 20  2  0  0  0  0
 18 17  1  0  0  0  0
 19 18  1  0  0  0  0
 20 22  1  0  0  0  0
 21 20  1  0  0  0  0
 22 24  1  0  0  0  0
 22 23  1  0  0  0  0
 25 31  1  0  0  0  0
 26 32  1  0  0  0  0
 26 25  2  0  0  0  0
 27 26  1  0  0  0  0
 28 27  2  0  0  0  0
 28 29  1  0  0  0  0
 29 30  2  0  0  0  0
 30 25  1  0  0  0  0
 33 27  1  0  0  0  0
M  END
>  <minimizedAffinity>
-5.30223799

$$$$
