
 OpenBabel03242519563D

 27 29  0  0  0  0  0  0  0  0999 V2000
   44.6590   32.9760   41.2350 Br  0  0  0  0  0  0  0  0  0  0  0  0
   46.3000   33.9220   41.0070 C   0  0  0  0  0  0  0  0  0  0  0  0
   46.8330   34.7270   41.9950 C   0  0  0  0  0  0  0  0  0  0  0  0
   48.0330   35.3770   41.7390 C   0  0  0  0  0  0  0  0  0  0  0  0
   48.6980   35.2420   40.5350 C   0  0  0  0  0  0  0  0  0  0  0  0
   48.1760   34.4430   39.5410 C   0  0  0  0  0  0  0  0  0  0  0  0
   46.9840   33.8040   39.8110 C   0  0  0  0  0  0  0  0  0  0  0  0
   48.4310   36.0040   42.5370 H   0  0  0  0  0  0  0  0  0  0  0  0
   49.6370   35.7730   40.3840 H   0  0  0  0  0  0  0  0  0  0  0  0
   48.6940   34.3340   38.5950 H   0  0  0  0  0  0  0  0  0  0  0  0
   44.4820   35.9480   44.7020 C   0  0  0  0  0  0  0  0  0  0  0  0
   45.1850   35.8540   43.4930 C   0  0  0  0  0  0  0  0  0  0  0  0
   46.0940   34.8370   43.2490 C   0  0  0  0  0  0  0  0  0  0  0  0
   46.2590   33.9370   44.2590 N   0  0  0  0  0  0  0  0  0  0  0  0
   45.5750   34.0400   45.4200 C   0  0  0  0  0  0  0  0  0  0  0  0
   44.7020   35.0240   45.6410 N   0  0  0  0  0  0  0  0  0  0  0  0
   43.7730   36.7430   44.8910 H   0  0  0  0  0  0  0  0  0  0  0  0
   45.0010   36.6000   42.7480 H   0  0  0  0  0  0  0  0  0  0  0  0
   45.8410   33.2350   46.0950 H   0  0  0  0  0  0  0  0  0  0  0  0
   46.4080   32.9460   38.7650 C   0  0  0  0  0  0  0  0  0  0  0  0
   46.6740   31.6190   38.5300 C   0  0  0  0  0  0  0  0  0  0  0  0
   47.3660   31.0160   39.1070 H   0  0  0  0  0  0  0  0  0  0  0  0
   45.9200   31.1860   37.4480 C   0  0  0  0  0  0  0  0  0  0  0  0
   45.9770   30.1670   37.0920 H   0  0  0  0  0  0  0  0  0  0  0  0
   45.2040   32.2720   37.0450 N   0  0  0  0  0  0  0  0  0  0  0  0
   44.5560   32.1900   36.2350 H   0  0  0  0  0  0  0  0  0  0  0  0
   45.5070   33.2920   37.8320 N   0  0  0  0  0  0  0  0  0  0  0  0
  2  1  1  0  0  0  0
  2  3  1  0  0  0  0
  3 13  1  0  0  0  0
  4  3  2  0  0  0  0
  4  8  1  0  0  0  0
  5  4  1  0  0  0  0
  6  7  1  0  0  0  0
  6  5  2  0  0  0  0
  7  2  2  0  0  0  0
  9  5  1  0  0  0  0
 10  6  1  0  0  0  0
 11 17  1  0  0  0  0
 11 16  1  0  0  0  0
 12 11  2  0  0  0  0
 13 12  1  0  0  0  0
 13 14  2  0  0  0  0
 14 15  1  0  0  0  0
 15 16  2  0  0  0  0
 15 19  1  0  0  0  0
 18 12  1  0  0  0  0
 20  7  1  0  0  0  0
 21 20  1  0  0  0  0
 21 22  1  0  0  0  0
 23 21  2  0  0  0  0
 24 23  1  0  0  0  0
 25 23  1  0  0  0  0
 25 27  1  0  0  0  0
 26 25  1  0  0  0  0
 27 20  2  0  0  0  0
M  END
>  <minimizedAffinity>
-5.37950563

>  <minimizedRMSD>
0.389185071

$$$$
