
 OpenBabel03252507053D

 46 49  0  0  0  0  0  0  0  0999 V2000
   40.1360   31.6480   40.8480 C   0  0  0  0  0  0  0  0  0  0  0  0
   41.2120   31.9540   41.0770 H   0  0  0  0  0  0  0  0  0  0  0  0
   39.6380   31.7080   41.8400 H   0  0  0  0  0  0  0  0  0  0  0  0
   39.5460   32.4120   39.9230 N   0  0  0  0  0  0  0  0  0  0  0  0
   38.6990   31.9890   38.8520 C   0  0  0  0  0  0  0  0  0  0  0  0
   37.3570   32.4490   39.4290 C   0  0  0  0  0  0  0  0  0  0  0  0
   37.2850   33.8800   39.6630 C   0  0  0  0  0  0  0  0  0  0  0  0
   38.5060   34.6170   39.8950 C   0  0  0  0  0  0  0  0  0  0  0  0
   39.7990   33.8640   40.0760 C   0  0  0  0  0  0  0  0  0  0  0  0
   38.6230   30.8680   38.8660 H   0  0  0  0  0  0  0  0  0  0  0  0
   38.9020   32.3460   37.8570 H   0  0  0  0  0  0  0  0  0  0  0  0
   36.5160   32.1080   38.7930 H   0  0  0  0  0  0  0  0  0  0  0  0
   37.2570   31.9090   40.4040 H   0  0  0  0  0  0  0  0  0  0  0  0
   36.7550   34.3700   38.8010 H   0  0  0  0  0  0  0  0  0  0  0  0
   36.5980   34.0760   40.5330 H   0  0  0  0  0  0  0  0  0  0  0  0
   38.5810   35.6600   39.9800 H   0  0  0  0  0  0  0  0  0  0  0  0
   41.3100   34.6170   40.4180 S   0  0  0  0  0  0  0  0  0  0  0  0
   42.5900   34.1630   39.3030 C   0  0  0  0  0  0  0  0  0  0  0  0
   43.7910   33.6020   38.9470 C   0  0  0  0  0  0  0  0  0  0  0  0
   44.2250   33.1480   39.8180 H   0  0  0  0  0  0  0  0  0  0  0  0
   44.0730   33.7670   37.6090 C   0  0  0  0  0  0  0  0  0  0  0  0
   44.9980   33.3600   37.2270 H   0  0  0  0  0  0  0  0  0  0  0  0
   43.0130   34.4460   37.1420 N   0  0  0  0  0  0  0  0  0  0  0  0
   43.1230   34.6340   36.0960 H   0  0  0  0  0  0  0  0  0  0  0  0
   42.1360   34.6870   38.1200 N   0  0  0  0  0  0  0  0  0  0  0  0
   40.2330   30.2160   40.4690 C   0  0  0  0  0  0  0  0  0  0  0  0
   39.9050   30.0890   39.4120 H   0  0  0  0  0  0  0  0  0  0  0  0
   41.2430   29.7790   40.5890 H   0  0  0  0  0  0  0  0  0  0  0  0
   39.2790   29.4560   41.3000 C   0  0  0  0  0  0  0  0  0  0  0  0
   38.9410   29.8920   42.5600 C   0  0  0  0  0  0  0  0  0  0  0  0
   38.0550   29.1280   43.2990 C   0  0  0  0  0  0  0  0  0  0  0  0
   37.5590   27.9840   42.7430 N   0  0  0  0  0  0  0  0  0  0  0  0
   37.9060   27.5930   41.5190 C   0  0  0  0  0  0  0  0  0  0  0  0
   38.7630   28.3450   40.8270 N   0  0  0  0  0  0  0  0  0  0  0  0
   39.2020   30.7500   43.1540 H   0  0  0  0  0  0  0  0  0  0  0  0
   37.6750   29.3130   44.3100 H   0  0  0  0  0  0  0  0  0  0  0  0
   37.3020   26.3720   40.9930 C   0  0  0  0  0  0  0  0  0  0  0  0
   37.2000   25.2340   41.7890 C   0  0  0  0  0  0  0  0  0  0  0  0
   36.6360   24.0950   41.2850 C   0  0  0  0  0  0  0  0  0  0  0  0
   36.2060   24.1900   39.9870 C   0  0  0  0  0  0  0  0  0  0  0  0
   36.2820   25.2890   39.1480 C   0  0  0  0  0  0  0  0  0  0  0  0
   36.8530   26.3810   39.7200 N   0  0  0  0  0  0  0  0  0  0  0  0
   37.5680   25.2500   42.8100 H   0  0  0  0  0  0  0  0  0  0  0  0
   36.5200   23.1750   41.8370 H   0  0  0  0  0  0  0  0  0  0  0  0
   35.7440   23.3000   39.5330 H   0  0  0  0  0  0  0  0  0  0  0  0
   35.9170   25.2750   38.1350 H   0  0  0  0  0  0  0  0  0  0  0  0
  1  2  1  0  0  0  0
  1  3  1  0  0  0  0
  4  9  1  0  0  0  0
  4  1  1  0  0  0  0
  5 10  1  0  0  0  0
  5  6  1  0  0  0  0
  5  4  1  0  0  0  0
  6  7  1  0  0  0  0
  6 13  1  0  0  0  0
  7  8  1  0  0  0  0
  7 15  1  0  0  0  0
  8 16  1  0  0  0  0
  8  9  2  0  0  0  0
  9 17  1  0  0  0  0
 11  5  1  0  0  0  0
 12  6  1  0  0  0  0
 14  7  1  0  0  0  0
 18 17  1  0  0  0  0
 19 18  1  0  0  0  0
 19 20  1  0  0  0  0
 21 19  2  0  0  0  0
 22 21  1  0  0  0  0
 23 21  1  0  0  0  0
 23 25  1  0  0  0  0
 24 23  1  0  0  0  0
 25 18  2  0  0  0  0
 26 28  1  0  0  0  0
 26  1  1  0  0  0  0
 26 29  1  0  0  0  0
 27 26  1  0  0  0  0
 29 30  1  0  0  0  0
 30 35  1  0  0  0  0
 30 31  2  0  0  0  0
 31 36  1  0  0  0  0
 32 31  1  0  0  0  0
 33 32  2  0  0  0  0
 34 29  2  0  0  0  0
 34 33  1  0  0  0  0
 37 33  1  0  0  0  0
 37 38  1  0  0  0  0
 38 43  1  0  0  0  0
 39 38  2  0  0  0  0
 39 44  1  0  0  0  0
 40 39  1  0  0  0  0
 41 42  1  0  0  0  0
 41 40  2  0  0  0  0
 42 37  2  0  0  0  0
 45 40  1  0  0  0  0
 46 41  1  0  0  0  0
M  END
>  <minimizedAffinity>
-6.15223217

$$$$

 OpenBabel03252507053D

 46 49  0  0  0  0  0  0  0  0999 V2000
   40.1740   31.2790   41.7780 C   0  0  0  0  0  0  0  0  0  0  0  0
   40.8150   31.2260   42.7220 H   0  0  0  0  0  0  0  0  0  0  0  0
   39.1510   31.4560   42.1750 H   0  0  0  0  0  0  0  0  0  0  0  0
   40.5670   32.2220   40.9150 N   0  0  0  0  0  0  0  0  0  0  0  0
   41.8250   32.9000   40.8760 C   0  0  0  0  0  0  0  0  0  0  0  0
   42.4300   32.1840   39.6650 C   0  0  0  0  0  0  0  0  0  0  0  0
   41.6660   32.3610   38.4430 C   0  0  0  0  0  0  0  0  0  0  0  0
   40.2510   32.6390   38.5330 C   0  0  0  0  0  0  0  0  0  0  0  0
   39.5660   32.5540   39.8730 C   0  0  0  0  0  0  0  0  0  0  0  0
   42.4570   32.5470   41.7350 H   0  0  0  0  0  0  0  0  0  0  0  0
   41.8340   33.9740   40.8090 H   0  0  0  0  0  0  0  0  0  0  0  0
   43.4870   32.4830   39.5180 H   0  0  0  0  0  0  0  0  0  0  0  0
   42.4420   31.1010   39.9410 H   0  0  0  0  0  0  0  0  0  0  0  0
   42.1310   33.1790   37.8300 H   0  0  0  0  0  0  0  0  0  0  0  0
   41.7930   31.4490   37.7960 H   0  0  0  0  0  0  0  0  0  0  0  0
   39.6240   32.8760   37.7260 H   0  0  0  0  0  0  0  0  0  0  0  0
   37.8780   32.8020   40.1080 S   0  0  0  0  0  0  0  0  0  0  0  0
   36.9100   31.3630   39.8280 C   0  0  0  0  0  0  0  0  0  0  0  0
   36.4110   30.3230   39.0850 C   0  0  0  0  0  0  0  0  0  0  0  0
   36.8590   30.3560   38.1100 H   0  0  0  0  0  0  0  0  0  0  0  0
   35.5170   29.5510   39.7940 C   0  0  0  0  0  0  0  0  0  0  0  0
   35.0650   28.7040   39.2980 H   0  0  0  0  0  0  0  0  0  0  0  0
   35.4740   30.1390   41.0000 N   0  0  0  0  0  0  0  0  0  0  0  0
   34.8020   29.6180   41.6450 H   0  0  0  0  0  0  0  0  0  0  0  0
   36.2830   31.2010   41.0370 N   0  0  0  0  0  0  0  0  0  0  0  0
   40.2190   29.9030   41.2230 C   0  0  0  0  0  0  0  0  0  0  0  0
   40.0280   29.9380   40.1260 H   0  0  0  0  0  0  0  0  0  0  0  0
   41.1710   29.3670   41.4070 H   0  0  0  0  0  0  0  0  0  0  0  0
   39.1110   29.1310   41.8190 C   0  0  0  0  0  0  0  0  0  0  0  0
   38.5740   29.4940   43.0330 C   0  0  0  0  0  0  0  0  0  0  0  0
   37.5490   28.7210   43.5490 C   0  0  0  0  0  0  0  0  0  0  0  0
   37.1190   27.6440   42.8310 N   0  0  0  0  0  0  0  0  0  0  0  0
   37.6600   27.3230   41.6590 C   0  0  0  0  0  0  0  0  0  0  0  0
   38.6480   28.0810   41.1820 N   0  0  0  0  0  0  0  0  0  0  0  0
   38.7570   30.2960   43.7260 H   0  0  0  0  0  0  0  0  0  0  0  0
   37.0060   28.8540   44.4930 H   0  0  0  0  0  0  0  0  0  0  0  0
   37.1160   26.1700   40.9450 C   0  0  0  0  0  0  0  0  0  0  0  0
   36.9820   24.9410   41.5860 C   0  0  0  0  0  0  0  0  0  0  0  0
   36.4750   23.8680   40.9080 C   0  0  0  0  0  0  0  0  0  0  0  0
   36.1320   24.1190   39.6050 C   0  0  0  0  0  0  0  0  0  0  0  0
   36.2420   25.3150   38.9150 C   0  0  0  0  0  0  0  0  0  0  0  0
   36.7530   26.3320   39.6550 N   0  0  0  0  0  0  0  0  0  0  0  0
   37.2810   24.8340   42.6240 H   0  0  0  0  0  0  0  0  0  0  0  0
   36.3400   22.8850   41.3330 H   0  0  0  0  0  0  0  0  0  0  0  0
   35.7180   23.2870   39.0140 H   0  0  0  0  0  0  0  0  0  0  0  0
   35.9460   25.4220   37.8860 H   0  0  0  0  0  0  0  0  0  0  0  0
  1  3  1  0  0  0  0
  1  2  1  0  0  0  0
  4  1  1  0  0  0  0
  5  4  1  0  0  0  0
  5 10  1  0  0  0  0
  6 13  1  0  0  0  0
  6  5  1  0  0  0  0
  7  8  1  0  0  0  0
  7  6  1  0  0  0  0
  8  9  2  0  0  0  0
  9 17  1  0  0  0  0
  9  4  1  0  0  0  0
 11  5  1  0  0  0  0
 12  6  1  0  0  0  0
 14  7  1  0  0  0  0
 15  7  1  0  0  0  0
 16  8  1  0  0  0  0
 18 17  1  0  0  0  0
 18 25  2  0  0  0  0
 19 21  2  0  0  0  0
 19 18  1  0  0  0  0
 20 19  1  0  0  0  0
 21 23  1  0  0  0  0
 22 21  1  0  0  0  0
 23 25  1  0  0  0  0
 23 24  1  0  0  0  0
 26 28  1  0  0  0  0
 26  1  1  0  0  0  0
 26 29  1  0  0  0  0
 27 26  1  0  0  0  0
 29 30  1  0  0  0  0
 30 31  2  0  0  0  0
 30 35  1  0  0  0  0
 31 36  1  0  0  0  0
 32 31  1  0  0  0  0
 33 32  2  0  0  0  0
 34 33  1  0  0  0  0
 34 29  2  0  0  0  0
 37 38  1  0  0  0  0
 37 33  1  0  0  0  0
 38 43  1  0  0  0  0
 39 44  1  0  0  0  0
 39 38  2  0  0  0  0
 40 39  1  0  0  0  0
 41 40  2  0  0  0  0
 41 42  1  0  0  0  0
 42 37  2  0  0  0  0
 45 40  1  0  0  0  0
 46 41  1  0  0  0  0
M  END
>  <minimizedAffinity>
-5.80022669

$$$$

 OpenBabel03252507053D

 46 49  0  0  0  0  0  0  0  0999 V2000
   40.3950   31.3890   40.6020 C   0  0  0  0  0  0  0  0  0  0  0  0
   39.9710   30.4660   40.0810 H   0  0  0  0  0  0  0  0  0  0  0  0
   41.4820   31.1640   40.6720 H   0  0  0  0  0  0  0  0  0  0  0  0
   40.1410   32.5330   39.9590 N   0  0  0  0  0  0  0  0  0  0  0  0
   39.0980   32.7900   39.0150 C   0  0  0  0  0  0  0  0  0  0  0  0
   38.1790   33.6230   39.9130 C   0  0  0  0  0  0  0  0  0  0  0  0
   38.7970   34.8420   40.4060 C   0  0  0  0  0  0  0  0  0  0  0  0
   40.2350   34.9040   40.5240 C   0  0  0  0  0  0  0  0  0  0  0  0
   41.0470   33.6510   40.3150 C   0  0  0  0  0  0  0  0  0  0  0  0
   38.5170   31.8450   38.8450 H   0  0  0  0  0  0  0  0  0  0  0  0
   39.3500   33.2580   38.0780 H   0  0  0  0  0  0  0  0  0  0  0  0
   37.2210   33.8420   39.4020 H   0  0  0  0  0  0  0  0  0  0  0  0
   37.9330   32.9580   40.7780 H   0  0  0  0  0  0  0  0  0  0  0  0
   38.4740   35.7060   39.7640 H   0  0  0  0  0  0  0  0  0  0  0  0
   38.3610   35.0920   41.4130 H   0  0  0  0  0  0  0  0  0  0  0  0
   40.7900   35.7570   40.7760 H   0  0  0  0  0  0  0  0  0  0  0  0
   42.7590   33.5740   40.4850 S   0  0  0  0  0  0  0  0  0  0  0  0
   43.5790   32.9280   39.0720 C   0  0  0  0  0  0  0  0  0  0  0  0
   44.1280   31.9390   38.2950 C   0  0  0  0  0  0  0  0  0  0  0  0
   43.9710   30.9960   38.7830 H   0  0  0  0  0  0  0  0  0  0  0  0
   44.6910   32.4310   37.1380 C   0  0  0  0  0  0  0  0  0  0  0  0
   45.1510   31.7320   36.4540 H   0  0  0  0  0  0  0  0  0  0  0  0
   44.4760   33.7540   37.2170 N   0  0  0  0  0  0  0  0  0  0  0  0
   44.8750   34.2490   36.3590 H   0  0  0  0  0  0  0  0  0  0  0  0
   43.8260   34.0620   38.3430 N   0  0  0  0  0  0  0  0  0  0  0  0
   39.8270   31.3330   41.9720 C   0  0  0  0  0  0  0  0  0  0  0  0
   40.6050   30.9710   42.6830 H   0  0  0  0  0  0  0  0  0  0  0  0
   39.4220   32.2970   42.3390 H   0  0  0  0  0  0  0  0  0  0  0  0
   38.7470   30.3260   41.9800 C   0  0  0  0  0  0  0  0  0  0  0  0
   38.5610   29.5040   43.0680 C   0  0  0  0  0  0  0  0  0  0  0  0
   37.5440   28.5680   43.0100 C   0  0  0  0  0  0  0  0  0  0  0  0
   36.7770   28.5060   41.8830 N   0  0  0  0  0  0  0  0  0  0  0  0
   36.9850   29.3180   40.8500 C   0  0  0  0  0  0  0  0  0  0  0  0
   37.9720   30.2120   40.9270 N   0  0  0  0  0  0  0  0  0  0  0  0
   39.0340   29.4110   44.0290 H   0  0  0  0  0  0  0  0  0  0  0  0
   37.2500   27.8350   43.7710 H   0  0  0  0  0  0  0  0  0  0  0  0
   36.0960   29.2010   39.6970 C   0  0  0  0  0  0  0  0  0  0  0  0
   34.7170   29.1070   39.8740 C   0  0  0  0  0  0  0  0  0  0  0  0
   33.8950   28.9950   38.7870 C   0  0  0  0  0  0  0  0  0  0  0  0
   34.5370   28.9880   37.5760 C   0  0  0  0  0  0  0  0  0  0  0  0
   35.8980   29.0780   37.3380 C   0  0  0  0  0  0  0  0  0  0  0  0
   36.6480   29.1860   38.4650 N   0  0  0  0  0  0  0  0  0  0  0  0
   34.2960   29.1210   40.8730 H   0  0  0  0  0  0  0  0  0  0  0  0
   32.8200   28.9170   38.8400 H   0  0  0  0  0  0  0  0  0  0  0  0
   33.9190   28.9000   36.6690 H   0  0  0  0  0  0  0  0  0  0  0  0
   36.3180   29.0640   36.3470 H   0  0  0  0  0  0  0  0  0  0  0  0
  1  3  1  0  0  0  0
  1 26  1  0  0  0  0
  2  1  1  0  0  0  0
  4  9  1  0  0  0  0
  4  1  1  0  0  0  0
  5  6  1  0  0  0  0
  5  4  1  0  0  0  0
  6  7  1  0  0  0  0
  6 13  1  0  0  0  0
  7  8  1  0  0  0  0
  7 15  1  0  0  0  0
  8 16  1  0  0  0  0
  9 17  1  0  0  0  0
  9  8  2  0  0  0  0
 10  5  1  0  0  0  0
 11  5  1  0  0  0  0
 12  6  1  0  0  0  0
 14  7  1  0  0  0  0
 18 17  1  0  0  0  0
 19 20  1  0  0  0  0
 19 18  1  0  0  0  0
 21 23  1  0  0  0  0
 21 19  2  0  0  0  0
 22 21  1  0  0  0  0
 23 25  1  0  0  0  0
 24 23  1  0  0  0  0
 25 18  2  0  0  0  0
 26 29  1  0  0  0  0
 26 28  1  0  0  0  0
 26 27  1  0  0  0  0
 29 30  1  0  0  0  0
 30 35  1  0  0  0  0
 31 30  2  0  0  0  0
 31 36  1  0  0  0  0
 32 31  1  0  0  0  0
 33 34  1  0  0  0  0
 33 32  2  0  0  0  0
 34 29  2  0  0  0  0
 37 38  1  0  0  0  0
 37 33  1  0  0  0  0
 38 43  1  0  0  0  0
 39 44  1  0  0  0  0
 39 38  2  0  0  0  0
 40 39  1  0  0  0  0
 41 40  2  0  0  0  0
 41 42  1  0  0  0  0
 42 37  2  0  0  0  0
 45 40  1  0  0  0  0
 46 41  1  0  0  0  0
M  END
>  <minimizedAffinity>
-5.72371197

$$$$

 OpenBabel03252507053D

 46 49  0  0  0  0  0  0  0  0999 V2000
   38.9850   30.1340   40.0980 C   0  0  0  0  0  0  0  0  0  0  0  0
   38.2270   29.3490   39.7590 H   0  0  0  0  0  0  0  0  0  0  0  0
   39.9610   29.6190   39.9640 H   0  0  0  0  0  0  0  0  0  0  0  0
   38.9060   31.2840   39.4200 N   0  0  0  0  0  0  0  0  0  0  0  0
   37.9690   31.6320   38.3980 C   0  0  0  0  0  0  0  0  0  0  0  0
   37.0870   32.5820   39.2130 C   0  0  0  0  0  0  0  0  0  0  0  0
   37.7990   33.7360   39.7310 C   0  0  0  0  0  0  0  0  0  0  0  0
   39.2240   33.6420   39.9540 C   0  0  0  0  0  0  0  0  0  0  0  0
   39.9030   32.3030   39.8240 C   0  0  0  0  0  0  0  0  0  0  0  0
   37.2990   30.7520   38.2010 H   0  0  0  0  0  0  0  0  0  0  0  0
   38.3370   32.0470   37.4750 H   0  0  0  0  0  0  0  0  0  0  0  0
   36.1980   32.8930   38.6300 H   0  0  0  0  0  0  0  0  0  0  0  0
   36.7070   31.9680   40.0670 H   0  0  0  0  0  0  0  0  0  0  0  0
   37.6220   34.6150   39.0540 H   0  0  0  0  0  0  0  0  0  0  0  0
   37.3240   34.0560   40.7000 H   0  0  0  0  0  0  0  0  0  0  0  0
   39.8510   34.4350   40.2330 H   0  0  0  0  0  0  0  0  0  0  0  0
   41.5800   32.0420   40.1210 S   0  0  0  0  0  0  0  0  0  0  0  0
   42.3610   33.3720   40.9610 C   0  0  0  0  0  0  0  0  0  0  0  0
   42.7960   34.6650   41.1140 C   0  0  0  0  0  0  0  0  0  0  0  0
   42.4820   35.2330   40.2590 H   0  0  0  0  0  0  0  0  0  0  0  0
   43.4760   34.8550   42.2970 C   0  0  0  0  0  0  0  0  0  0  0  0
   43.8610   35.8410   42.5140 H   0  0  0  0  0  0  0  0  0  0  0  0
   43.4510   33.6440   42.8770 N   0  0  0  0  0  0  0  0  0  0  0  0
   43.9560   33.6700   43.8170 H   0  0  0  0  0  0  0  0  0  0  0  0
   42.8020   32.7640   42.1080 N   0  0  0  0  0  0  0  0  0  0  0  0
   38.7390   30.2790   41.5540 C   0  0  0  0  0  0  0  0  0  0  0  0
   39.7110   30.4070   42.0840 H   0  0  0  0  0  0  0  0  0  0  0  0
   38.0680   31.1190   41.8230 H   0  0  0  0  0  0  0  0  0  0  0  0
   38.1520   29.0190   42.0490 C   0  0  0  0  0  0  0  0  0  0  0  0
   37.6330   28.9360   43.3200 C   0  0  0  0  0  0  0  0  0  0  0  0
   37.1120   27.7230   43.7340 C   0  0  0  0  0  0  0  0  0  0  0  0
   37.1360   26.6720   42.8640 N   0  0  0  0  0  0  0  0  0  0  0  0
   37.6450   26.7880   41.6400 C   0  0  0  0  0  0  0  0  0  0  0  0
   38.1430   27.9660   41.2640 N   0  0  0  0  0  0  0  0  0  0  0  0
   37.5080   29.6350   44.1280 H   0  0  0  0  0  0  0  0  0  0  0  0
   36.6620   27.4690   44.7010 H   0  0  0  0  0  0  0  0  0  0  0  0
   37.6010   25.6180   40.7650 C   0  0  0  0  0  0  0  0  0  0  0  0
   36.7220   24.5710   41.0300 C   0  0  0  0  0  0  0  0  0  0  0  0
   36.6920   23.4800   40.2060 C   0  0  0  0  0  0  0  0  0  0  0  0
   37.5680   23.5280   39.1530 C   0  0  0  0  0  0  0  0  0  0  0  0
   38.4630   24.5370   38.8410 C   0  0  0  0  0  0  0  0  0  0  0  0
   38.4340   25.5850   39.7040 N   0  0  0  0  0  0  0  0  0  0  0  0
   36.0610   24.6190   41.8890 H   0  0  0  0  0  0  0  0  0  0  0  0
   36.0410   22.6300   40.3420 H   0  0  0  0  0  0  0  0  0  0  0  0
   37.5830   22.6720   38.4600 H   0  0  0  0  0  0  0  0  0  0  0  0
   39.1190   24.4900   37.9890 H   0  0  0  0  0  0  0  0  0  0  0  0
  1 26  1  0  0  0  0
  2  1  1  0  0  0  0
  3  1  1  0  0  0  0
  4  9  1  0  0  0  0
  4  1  1  0  0  0  0
  5  6  1  0  0  0  0
  5  4  1  0  0  0  0
  6  7  1  0  0  0  0
  6 13  1  0  0  0  0
  7  8  1  0  0  0  0
  7 15  1  0  0  0  0
  8 16  1  0  0  0  0
  9  8  2  0  0  0  0
  9 17  1  0  0  0  0
 10  5  1  0  0  0  0
 11  5  1  0  0  0  0
 12  6  1  0  0  0  0
 14  7  1  0  0  0  0
 17 18  1  0  0  0  0
 18 19  1  0  0  0  0
 18 25  2  0  0  0  0
 19 21  2  0  0  0  0
 20 19  1  0  0  0  0
 21 22  1  0  0  0  0
 21 23  1  0  0  0  0
 23 24  1  0  0  0  0
 25 23  1  0  0  0  0
 26 28  1  0  0  0  0
 26 29  1  0  0  0  0
 26 27  1  0  0  0  0
 29 30  1  0  0  0  0
 30 31  2  0  0  0  0
 30 35  1  0  0  0  0
 31 36  1  0  0  0  0
 32 31  1  0  0  0  0
 33 32  2  0  0  0  0
 34 33  1  0  0  0  0
 34 29  2  0  0  0  0
 37 38  1  0  0  0  0
 37 33  1  0  0  0  0
 38 43  1  0  0  0  0
 39 44  1  0  0  0  0
 39 38  2  0  0  0  0
 40 39  1  0  0  0  0
 41 40  2  0  0  0  0
 41 42  1  0  0  0  0
 42 37  2  0  0  0  0
 45 40  1  0  0  0  0
 46 41  1  0  0  0  0
M  END
>  <minimizedAffinity>
-5.7189064

$$$$

 OpenBabel03252507053D

 46 49  0  0  0  0  0  0  0  0999 V2000
   40.2620   27.8620   40.6580 C   0  0  0  0  0  0  0  0  0  0  0  0
   39.9740   28.9520   40.8470 H   0  0  0  0  0  0  0  0  0  0  0  0
   41.3690   27.8720   40.7550 H   0  0  0  0  0  0  0  0  0  0  0  0
   39.6740   26.9990   41.4920 N   0  0  0  0  0  0  0  0  0  0  0  0
   39.5210   25.5880   41.3220 C   0  0  0  0  0  0  0  0  0  0  0  0
   40.5840   25.1230   42.3210 C   0  0  0  0  0  0  0  0  0  0  0  0
   40.3270   25.5500   43.6840 C   0  0  0  0  0  0  0  0  0  0  0  0
   39.5380   26.7380   43.9130 C   0  0  0  0  0  0  0  0  0  0  0  0
   39.1600   27.6080   42.7410 C   0  0  0  0  0  0  0  0  0  0  0  0
   39.9450   25.2910   40.3260 H   0  0  0  0  0  0  0  0  0  0  0  0
   38.5480   25.1490   41.4700 H   0  0  0  0  0  0  0  0  0  0  0  0
   40.7210   24.0250   42.2680 H   0  0  0  0  0  0  0  0  0  0  0  0
   41.5410   25.5800   41.9640 H   0  0  0  0  0  0  0  0  0  0  0  0
   39.8420   24.7090   44.2510 H   0  0  0  0  0  0  0  0  0  0  0  0
   41.3100   25.6860   44.2180 H   0  0  0  0  0  0  0  0  0  0  0  0
   39.2130   27.0840   44.8480 H   0  0  0  0  0  0  0  0  0  0  0  0
   38.2750   29.0790   42.8820 S   0  0  0  0  0  0  0  0  0  0  0  0
   36.9220   29.1970   41.7680 C   0  0  0  0  0  0  0  0  0  0  0  0
   35.9270   28.7050   40.9610 C   0  0  0  0  0  0  0  0  0  0  0  0
   35.9230   27.6340   41.0400 H   0  0  0  0  0  0  0  0  0  0  0  0
   35.2320   29.7030   40.3140 C   0  0  0  0  0  0  0  0  0  0  0  0
   34.4260   29.4200   39.6530 H   0  0  0  0  0  0  0  0  0  0  0  0
   35.8220   30.8300   40.7430 N   0  0  0  0  0  0  0  0  0  0  0  0
   35.3590   31.6850   40.3010 H   0  0  0  0  0  0  0  0  0  0  0  0
   36.8130   30.5520   41.5940 N   0  0  0  0  0  0  0  0  0  0  0  0
   39.9300   27.6360   39.2290 C   0  0  0  0  0  0  0  0  0  0  0  0
   40.8660   27.6340   38.6260 H   0  0  0  0  0  0  0  0  0  0  0  0
   39.3720   26.6990   39.0330 H   0  0  0  0  0  0  0  0  0  0  0  0
   39.1270   28.7810   38.7570 C   0  0  0  0  0  0  0  0  0  0  0  0
   38.0660   28.5910   37.9020 C   0  0  0  0  0  0  0  0  0  0  0  0
   37.3610   29.7050   37.4800 C   0  0  0  0  0  0  0  0  0  0  0  0
   37.7500   30.9320   37.9320 N   0  0  0  0  0  0  0  0  0  0  0  0
   38.7800   31.0790   38.7600 C   0  0  0  0  0  0  0  0  0  0  0  0
   39.4460   29.9920   39.1520 N   0  0  0  0  0  0  0  0  0  0  0  0
   37.6030   27.7270   37.4580 H   0  0  0  0  0  0  0  0  0  0  0  0
   36.4980   29.7480   36.8060 H   0  0  0  0  0  0  0  0  0  0  0  0
   39.1060   32.4280   39.2170 C   0  0  0  0  0  0  0  0  0  0  0  0
   40.4010   32.9240   39.0890 C   0  0  0  0  0  0  0  0  0  0  0  0
   40.6950   34.1870   39.5220 C   0  0  0  0  0  0  0  0  0  0  0  0
   39.6390   34.8710   40.0650 C   0  0  0  0  0  0  0  0  0  0  0  0
   38.3350   34.4320   40.2190 C   0  0  0  0  0  0  0  0  0  0  0  0
   38.1210   33.1700   39.7660 N   0  0  0  0  0  0  0  0  0  0  0  0
   41.1770   32.3090   38.6450 H   0  0  0  0  0  0  0  0  0  0  0  0
   41.6710   34.6420   39.4580 H   0  0  0  0  0  0  0  0  0  0  0  0
   39.8230   35.8940   40.4290 H   0  0  0  0  0  0  0  0  0  0  0  0
   37.5640   35.0410   40.6590 H   0  0  0  0  0  0  0  0  0  0  0  0
  1  3  1  0  0  0  0
  1  2  1  0  0  0  0
  1  4  1  0  0  0  0
  4  9  1  0  0  0  0
  5 11  1  0  0  0  0
  5  4  1  0  0  0  0
  5  6  1  0  0  0  0
  6  7  1  0  0  0  0
  7  8  1  0  0  0  0
  7 15  1  0  0  0  0
  7 14  1  0  0  0  0
  8 16  1  0  0  0  0
  9 17  1  0  0  0  0
  9  8  2  0  0  0  0
 10  5  1  0  0  0  0
 12  6  1  0  0  0  0
 13  6  1  0  0  0  0
 18 17  1  0  0  0  0
 19 20  1  0  0  0  0
 19 18  1  0  0  0  0
 21 23  1  0  0  0  0
 21 19  2  0  0  0  0
 22 21  1  0  0  0  0
 23 25  1  0  0  0  0
 24 23  1  0  0  0  0
 25 18  2  0  0  0  0
 26  1  1  0  0  0  0
 27 26  1  0  0  0  0
 28 26  1  0  0  0  0
 29 34  1  0  0  0  0
 29 26  1  0  0  0  0
 30 29  2  0  0  0  0
 31 30  1  0  0  0  0
 31 32  2  0  0  0  0
 32 33  1  0  0  0  0
 33 34  2  0  0  0  0
 33 37  1  0  0  0  0
 35 30  1  0  0  0  0
 36 31  1  0  0  0  0
 37 42  1  0  0  0  0
 38 37  2  0  0  0  0
 38 39  1  0  0  0  0
 39 40  2  0  0  0  0
 40 41  1  0  0  0  0
 40 45  1  0  0  0  0
 41 46  1  0  0  0  0
 42 41  2  0  0  0  0
 43 38  1  0  0  0  0
 44 39  1  0  0  0  0
M  END
>  <minimizedAffinity>
-5.68170071

$$$$

 OpenBabel03252507053D

 46 49  0  0  0  0  0  0  0  0999 V2000
   36.7680   27.5760   42.1600 C   0  0  0  0  0  0  0  0  0  0  0  0
   36.6120   28.5170   41.5320 H   0  0  0  0  0  0  0  0  0  0  0  0
   35.7570   27.3780   42.5770 H   0  0  0  0  0  0  0  0  0  0  0  0
   37.2560   26.5430   41.4660 N   0  0  0  0  0  0  0  0  0  0  0  0
   38.0830   25.4800   41.9470 C   0  0  0  0  0  0  0  0  0  0  0  0
   37.0280   24.3700   41.9820 C   0  0  0  0  0  0  0  0  0  0  0  0
   36.4480   24.0790   40.6830 C   0  0  0  0  0  0  0  0  0  0  0  0
   36.4330   25.1100   39.6720 C   0  0  0  0  0  0  0  0  0  0  0  0
   36.8440   26.5120   40.0430 C   0  0  0  0  0  0  0  0  0  0  0  0
   38.3150   25.6600   43.0310 H   0  0  0  0  0  0  0  0  0  0  0  0
   38.9760   25.2300   41.4010 H   0  0  0  0  0  0  0  0  0  0  0  0
   37.4370   23.4530   42.4490 H   0  0  0  0  0  0  0  0  0  0  0  0
   36.2290   24.7470   42.6680 H   0  0  0  0  0  0  0  0  0  0  0  0
   36.9610   23.1810   40.2420 H   0  0  0  0  0  0  0  0  0  0  0  0
   35.3880   23.7260   40.8260 H   0  0  0  0  0  0  0  0  0  0  0  0
   36.1280   24.9830   38.6770 H   0  0  0  0  0  0  0  0  0  0  0  0
   36.8140   27.8430   38.9500 S   0  0  0  0  0  0  0  0  0  0  0  0
   38.3950   28.5530   38.6610 C   0  0  0  0  0  0  0  0  0  0  0  0
   39.7470   28.7000   38.8460 C   0  0  0  0  0  0  0  0  0  0  0  0
   40.0750   27.9620   39.5530 H   0  0  0  0  0  0  0  0  0  0  0  0
   40.2750   29.7150   38.0790 C   0  0  0  0  0  0  0  0  0  0  0  0
   41.3350   29.9120   38.1510 H   0  0  0  0  0  0  0  0  0  0  0  0
   39.2150   30.1940   37.4100 N   0  0  0  0  0  0  0  0  0  0  0  0
   39.5080   30.9980   36.7720 H   0  0  0  0  0  0  0  0  0  0  0  0
   38.1060   29.5260   37.7390 N   0  0  0  0  0  0  0  0  0  0  0  0
   37.6450   28.0170   43.2730 C   0  0  0  0  0  0  0  0  0  0  0  0
   37.0440   28.5900   44.0150 H   0  0  0  0  0  0  0  0  0  0  0  0
   38.1720   27.1930   43.7940 H   0  0  0  0  0  0  0  0  0  0  0  0
   38.6450   28.9550   42.7260 C   0  0  0  0  0  0  0  0  0  0  0  0
   39.9910   28.7050   42.8590 C   0  0  0  0  0  0  0  0  0  0  0  0
   40.8810   29.6290   42.3410 C   0  0  0  0  0  0  0  0  0  0  0  0
   40.3820   30.7390   41.7240 N   0  0  0  0  0  0  0  0  0  0  0  0
   39.0730   30.9490   41.6120 C   0  0  0  0  0  0  0  0  0  0  0  0
   38.2340   30.0450   42.1200 N   0  0  0  0  0  0  0  0  0  0  0  0
   40.5680   27.9020   43.2840 H   0  0  0  0  0  0  0  0  0  0  0  0
   41.9770   29.6010   42.3540 H   0  0  0  0  0  0  0  0  0  0  0  0
   38.6290   32.1500   40.9080 C   0  0  0  0  0  0  0  0  0  0  0  0
   37.4830   32.1220   40.1170 C   0  0  0  0  0  0  0  0  0  0  0  0
   37.0780   33.2520   39.4610 C   0  0  0  0  0  0  0  0  0  0  0  0
   37.8760   34.3490   39.6560 C   0  0  0  0  0  0  0  0  0  0  0  0
   39.0220   34.4370   40.4270 C   0  0  0  0  0  0  0  0  0  0  0  0
   39.3600   33.2760   41.0460 N   0  0  0  0  0  0  0  0  0  0  0  0
   36.9110   31.2050   40.0210 H   0  0  0  0  0  0  0  0  0  0  0  0
   36.2040   33.3120   38.8310 H   0  0  0  0  0  0  0  0  0  0  0  0
   37.5930   35.2850   39.1490 H   0  0  0  0  0  0  0  0  0  0  0  0
   39.5900   35.3460   40.5230 H   0  0  0  0  0  0  0  0  0  0  0  0
  1  3  1  0  0  0  0
  1 26  1  0  0  0  0
  2  1  1  0  0  0  0
  4  5  1  0  0  0  0
  4  1  1  0  0  0  0
  5  6  1  0  0  0  0
  5 10  1  0  0  0  0
  6 12  1  0  0  0  0
  6 13  1  0  0  0  0
  7 15  1  0  0  0  0
  7  6  1  0  0  0  0
  8  9  2  0  0  0  0
  8  7  1  0  0  0  0
  9  4  1  0  0  0  0
 11  5  1  0  0  0  0
 14  7  1  0  0  0  0
 16  8  1  0  0  0  0
 17  9  1  0  0  0  0
 18 19  1  0  0  0  0
 18 17  1  0  0  0  0
 19 20  1  0  0  0  0
 21 22  1  0  0  0  0
 21 19  2  0  0  0  0
 23 25  1  0  0  0  0
 23 21  1  0  0  0  0
 24 23  1  0  0  0  0
 25 18  2  0  0  0  0
 26 28  1  0  0  0  0
 26 27  1  0  0  0  0
 29 30  1  0  0  0  0
 29 26  1  0  0  0  0
 30 35  1  0  0  0  0
 31 36  1  0  0  0  0
 31 30  2  0  0  0  0
 32 31  1  0  0  0  0
 33 32  2  0  0  0  0
 33 34  1  0  0  0  0
 34 29  2  0  0  0  0
 37 42  1  0  0  0  0
 37 33  1  0  0  0  0
 38 37  2  0  0  0  0
 39 40  2  0  0  0  0
 39 38  1  0  0  0  0
 40 41  1  0  0  0  0
 41 46  1  0  0  0  0
 41 42  2  0  0  0  0
 43 38  1  0  0  0  0
 44 39  1  0  0  0  0
 45 40  1  0  0  0  0
M  END
>  <minimizedAffinity>
-5.6666007

$$$$

 OpenBabel03252507053D

 46 49  0  0  0  0  0  0  0  0999 V2000
   39.8750   29.8720   39.8420 C   0  0  0  0  0  0  0  0  0  0  0  0
   39.4320   28.8540   39.5720 H   0  0  0  0  0  0  0  0  0  0  0  0
   40.2780   30.2380   38.8730 H   0  0  0  0  0  0  0  0  0  0  0  0
   38.9930   30.7130   40.3900 N   0  0  0  0  0  0  0  0  0  0  0  0
   39.2650   31.9290   41.0910 C   0  0  0  0  0  0  0  0  0  0  0  0
   38.8410   32.9180   40.0020 C   0  0  0  0  0  0  0  0  0  0  0  0
   37.4460   32.7970   39.6180 C   0  0  0  0  0  0  0  0  0  0  0  0
   36.7730   31.5310   39.7990 C   0  0  0  0  0  0  0  0  0  0  0  0
   37.5760   30.3210   40.2030 C   0  0  0  0  0  0  0  0  0  0  0  0
   40.3770   32.0710   41.1600 H   0  0  0  0  0  0  0  0  0  0  0  0
   38.7980   32.0920   42.0480 H   0  0  0  0  0  0  0  0  0  0  0  0
   39.0830   33.9580   40.2980 H   0  0  0  0  0  0  0  0  0  0  0  0
   39.4890   32.6800   39.1220 H   0  0  0  0  0  0  0  0  0  0  0  0
   36.8440   33.5780   40.1580 H   0  0  0  0  0  0  0  0  0  0  0  0
   37.3360   33.0890   38.5360 H   0  0  0  0  0  0  0  0  0  0  0  0
   35.7500   31.3580   39.6470 H   0  0  0  0  0  0  0  0  0  0  0  0
   36.9090   28.7450   40.3930 S   0  0  0  0  0  0  0  0  0  0  0  0
   36.8380   28.2070   42.0640 C   0  0  0  0  0  0  0  0  0  0  0  0
   36.5730   27.3200   43.0770 C   0  0  0  0  0  0  0  0  0  0  0  0
   36.2240   26.4030   42.6420 H   0  0  0  0  0  0  0  0  0  0  0  0
   36.8400   27.8470   44.3220 C   0  0  0  0  0  0  0  0  0  0  0  0
   36.6650   27.2270   45.1890 H   0  0  0  0  0  0  0  0  0  0  0  0
   37.2800   29.0870   44.0550 N   0  0  0  0  0  0  0  0  0  0  0  0
   37.5230   29.5990   44.9600 H   0  0  0  0  0  0  0  0  0  0  0  0
   37.2850   29.3150   42.7380 N   0  0  0  0  0  0  0  0  0  0  0  0
   41.0250   29.5510   40.7250 C   0  0  0  0  0  0  0  0  0  0  0  0
   41.8960   29.2440   40.1020 H   0  0  0  0  0  0  0  0  0  0  0  0
   41.3330   30.3790   41.3930 H   0  0  0  0  0  0  0  0  0  0  0  0
   40.6600   28.3810   41.5470 C   0  0  0  0  0  0  0  0  0  0  0  0
   40.8150   28.4050   42.9130 C   0  0  0  0  0  0  0  0  0  0  0  0
   40.4720   27.2720   43.6290 C   0  0  0  0  0  0  0  0  0  0  0  0
   39.9980   26.1890   42.9480 N   0  0  0  0  0  0  0  0  0  0  0  0
   39.8590   26.2000   41.6250 C   0  0  0  0  0  0  0  0  0  0  0  0
   40.1970   27.3030   40.9550 N   0  0  0  0  0  0  0  0  0  0  0  0
   41.1470   29.1470   43.6190 H   0  0  0  0  0  0  0  0  0  0  0  0
   40.5290   27.1080   44.7120 H   0  0  0  0  0  0  0  0  0  0  0  0
   39.3140   25.0070   40.9820 C   0  0  0  0  0  0  0  0  0  0  0  0
   38.2580   24.3100   41.5650 C   0  0  0  0  0  0  0  0  0  0  0  0
   37.7580   23.1930   40.9560 C   0  0  0  0  0  0  0  0  0  0  0  0
   38.3730   22.8540   39.7790 C   0  0  0  0  0  0  0  0  0  0  0  0
   39.4230   23.5040   39.1530 C   0  0  0  0  0  0  0  0  0  0  0  0
   39.8650   24.6030   39.8170 N   0  0  0  0  0  0  0  0  0  0  0  0
   37.8320   24.6530   42.5020 H   0  0  0  0  0  0  0  0  0  0  0  0
   36.9440   22.6000   41.3420 H   0  0  0  0  0  0  0  0  0  0  0  0
   38.0070   21.9600   39.2480 H   0  0  0  0  0  0  0  0  0  0  0  0
   39.8470   23.1640   38.2240 H   0  0  0  0  0  0  0  0  0  0  0  0
  1  4  1  0  0  0  0
  1 26  1  0  0  0  0
  2  1  1  0  0  0  0
  3  1  1  0  0  0  0
  4  5  1  0  0  0  0
  5 10  1  0  0  0  0
  5 11  1  0  0  0  0
  6 12  1  0  0  0  0
  6  5  1  0  0  0  0
  7  8  1  0  0  0  0
  7  6  1  0  0  0  0
  7 14  1  0  0  0  0
  8  9  2  0  0  0  0
  9  4  1  0  0  0  0
  9 17  1  0  0  0  0
 13  6  1  0  0  0  0
 15  7  1  0  0  0  0
 16  8  1  0  0  0  0
 17 18  1  0  0  0  0
 18 25  2  0  0  0  0
 18 19  1  0  0  0  0
 19 21  2  0  0  0  0
 20 19  1  0  0  0  0
 21 22  1  0  0  0  0
 23 21  1  0  0  0  0
 23 24  1  0  0  0  0
 25 23  1  0  0  0  0
 26 28  1  0  0  0  0
 26 29  1  0  0  0  0
 27 26  1  0  0  0  0
 29 30  1  0  0  0  0
 30 35  1  0  0  0  0
 30 31  2  0  0  0  0
 31 36  1  0  0  0  0
 32 31  1  0  0  0  0
 33 32  2  0  0  0  0
 34 29  2  0  0  0  0
 34 33  1  0  0  0  0
 37 38  1  0  0  0  0
 37 33  1  0  0  0  0
 38 43  1  0  0  0  0
 39 44  1  0  0  0  0
 39 38  2  0  0  0  0
 40 39  1  0  0  0  0
 41 40  2  0  0  0  0
 41 42  1  0  0  0  0
 42 37  2  0  0  0  0
 45 40  1  0  0  0  0
 46 41  1  0  0  0  0
M  END
>  <minimizedAffinity>
-5.65424109

$$$$

 OpenBabel03252507053D

 46 49  0  0  0  0  0  0  0  0999 V2000
   37.8360   30.4200   38.7550 C   0  0  0  0  0  0  0  0  0  0  0  0
   38.0580   30.1120   39.8320 H   0  0  0  0  0  0  0  0  0  0  0  0
   38.8490   30.5560   38.3160 H   0  0  0  0  0  0  0  0  0  0  0  0
   37.0940   29.5320   38.0850 N   0  0  0  0  0  0  0  0  0  0  0  0
   36.9280   29.4250   36.6690 C   0  0  0  0  0  0  0  0  0  0  0  0
   37.8010   28.1890   36.4310 C   0  0  0  0  0  0  0  0  0  0  0  0
   37.3390   27.0070   37.1360 C   0  0  0  0  0  0  0  0  0  0  0  0
   36.5590   27.1670   38.3420 C   0  0  0  0  0  0  0  0  0  0  0  0
   36.4030   28.5410   38.9420 C   0  0  0  0  0  0  0  0  0  0  0  0
   37.5000   30.2530   36.1700 H   0  0  0  0  0  0  0  0  0  0  0  0
   35.9320   29.3510   36.2670 H   0  0  0  0  0  0  0  0  0  0  0  0
   37.9110   27.9870   35.3470 H   0  0  0  0  0  0  0  0  0  0  0  0
   38.8160   28.4710   36.8070 H   0  0  0  0  0  0  0  0  0  0  0  0
   36.7420   26.3650   36.4320 H   0  0  0  0  0  0  0  0  0  0  0  0
   38.2250   26.3600   37.3870 H   0  0  0  0  0  0  0  0  0  0  0  0
   36.0970   26.3910   38.8760 H   0  0  0  0  0  0  0  0  0  0  0  0
   35.5520   28.8600   40.4060 S   0  0  0  0  0  0  0  0  0  0  0  0
   36.4120   28.3400   41.8460 C   0  0  0  0  0  0  0  0  0  0  0  0
   36.7910   27.4460   42.8170 C   0  0  0  0  0  0  0  0  0  0  0  0
   36.3420   26.4960   42.5970 H   0  0  0  0  0  0  0  0  0  0  0  0
   37.6270   28.0110   43.7550 C   0  0  0  0  0  0  0  0  0  0  0  0
   37.9830   27.3890   44.5630 H   0  0  0  0  0  0  0  0  0  0  0  0
   37.7580   29.2810   43.3410 N   0  0  0  0  0  0  0  0  0  0  0  0
   38.3970   29.8250   44.0030 H   0  0  0  0  0  0  0  0  0  0  0  0
   37.0540   29.4910   42.2260 N   0  0  0  0  0  0  0  0  0  0  0  0
   37.2050   31.7580   38.8760 C   0  0  0  0  0  0  0  0  0  0  0  0
   36.8070   32.0720   37.8840 H   0  0  0  0  0  0  0  0  0  0  0  0
   36.3920   31.8130   39.6260 H   0  0  0  0  0  0  0  0  0  0  0  0
   38.2560   32.7300   39.2350 C   0  0  0  0  0  0  0  0  0  0  0  0
   37.9700   33.8100   40.0370 C   0  0  0  0  0  0  0  0  0  0  0  0
   38.9920   34.6970   40.3250 C   0  0  0  0  0  0  0  0  0  0  0  0
   40.2300   34.4580   39.8030 N   0  0  0  0  0  0  0  0  0  0  0  0
   40.4720   33.4020   39.0310 C   0  0  0  0  0  0  0  0  0  0  0  0
   39.4710   32.5610   38.7660 N   0  0  0  0  0  0  0  0  0  0  0  0
   37.0880   34.1550   40.5470 H   0  0  0  0  0  0  0  0  0  0  0  0
   38.9530   35.6060   40.9380 H   0  0  0  0  0  0  0  0  0  0  0  0
   41.8340   33.2080   38.5410 C   0  0  0  0  0  0  0  0  0  0  0  0
   42.1150   32.2100   37.6110 C   0  0  0  0  0  0  0  0  0  0  0  0
   43.3950   32.0360   37.1620 C   0  0  0  0  0  0  0  0  0  0  0  0
   44.3160   32.9000   37.6940 C   0  0  0  0  0  0  0  0  0  0  0  0
   44.0970   33.9070   38.6190 C   0  0  0  0  0  0  0  0  0  0  0  0
   42.8040   34.0180   39.0170 N   0  0  0  0  0  0  0  0  0  0  0  0
   41.3200   31.5700   37.2440 H   0  0  0  0  0  0  0  0  0  0  0  0
   43.6930   31.2870   36.4440 H   0  0  0  0  0  0  0  0  0  0  0  0
   45.3620   32.8010   37.3650 H   0  0  0  0  0  0  0  0  0  0  0  0
   44.8860   34.5420   38.9840 H   0  0  0  0  0  0  0  0  0  0  0  0
  1 26  1  0  0  0  0
  1  2  1  0  0  0  0
  3  1  1  0  0  0  0
  4  1  1  0  0  0  0
  4  9  1  0  0  0  0
  5  4  1  0  0  0  0
  6  5  1  0  0  0  0
  6 13  1  0  0  0  0
  6  7  1  0  0  0  0
  7 15  1  0  0  0  0
  7  8  1  0  0  0  0
  8 16  1  0  0  0  0
  8  9  2  0  0  0  0
  9 17  1  0  0  0  0
 10  5  1  0  0  0  0
 11  5  1  0  0  0  0
 12  6  1  0  0  0  0
 14  7  1  0  0  0  0
 17 18  1  0  0  0  0
 18 25  2  0  0  0  0
 18 19  1  0  0  0  0
 19 21  2  0  0  0  0
 20 19  1  0  0  0  0
 21 22  1  0  0  0  0
 23 21  1  0  0  0  0
 23 24  1  0  0  0  0
 25 23  1  0  0  0  0
 26 29  1  0  0  0  0
 26 28  1  0  0  0  0
 27 26  1  0  0  0  0
 29 30  1  0  0  0  0
 30 31  2  0  0  0  0
 30 35  1  0  0  0  0
 31 36  1  0  0  0  0
 32 31  1  0  0  0  0
 33 32  2  0  0  0  0
 34 33  1  0  0  0  0
 34 29  2  0  0  0  0
 37 42  1  0  0  0  0
 37 33  1  0  0  0  0
 38 37  2  0  0  0  0
 39 38  1  0  0  0  0
 39 40  2  0  0  0  0
 40 41  1  0  0  0  0
 41 46  1  0  0  0  0
 41 42  2  0  0  0  0
 43 38  1  0  0  0  0
 44 39  1  0  0  0  0
 45 40  1  0  0  0  0
M  END
>  <minimizedAffinity>
-5.58184242

$$$$

 OpenBabel03252507053D

 46 49  0  0  0  0  0  0  0  0999 V2000
   36.7060   31.0600   40.5880 C   0  0  0  0  0  0  0  0  0  0  0  0
   35.9470   31.8160   40.1920 H   0  0  0  0  0  0  0  0  0  0  0  0
   37.0310   31.5080   41.5520 H   0  0  0  0  0  0  0  0  0  0  0  0
   36.2110   29.8260   40.7290 N   0  0  0  0  0  0  0  0  0  0  0  0
   34.9570   29.3290   40.2550 C   0  0  0  0  0  0  0  0  0  0  0  0
   35.4740   28.4940   39.0800 C   0  0  0  0  0  0  0  0  0  0  0  0
   36.3790   27.4310   39.4760 C   0  0  0  0  0  0  0  0  0  0  0  0
   37.1340   27.5690   40.7000 C   0  0  0  0  0  0  0  0  0  0  0  0
   37.1080   28.8830   41.4380 C   0  0  0  0  0  0  0  0  0  0  0  0
   34.3960   30.1660   39.7590 H   0  0  0  0  0  0  0  0  0  0  0  0
   34.3200   28.7920   40.9370 H   0  0  0  0  0  0  0  0  0  0  0  0
   34.6320   28.0960   38.4790 H   0  0  0  0  0  0  0  0  0  0  0  0
   36.0180   29.2180   38.4230 H   0  0  0  0  0  0  0  0  0  0  0  0
   35.8100   26.4640   39.5380 H   0  0  0  0  0  0  0  0  0  0  0  0
   37.1140   27.2440   38.6430 H   0  0  0  0  0  0  0  0  0  0  0  0
   37.7410   26.8280   41.1290 H   0  0  0  0  0  0  0  0  0  0  0  0
   38.0090   29.1980   42.8720 S   0  0  0  0  0  0  0  0  0  0  0  0
   39.6780   29.6530   42.5690 C   0  0  0  0  0  0  0  0  0  0  0  0
   40.9860   29.4290   42.2190 C   0  0  0  0  0  0  0  0  0  0  0  0
   41.0920   28.3970   41.9430 H   0  0  0  0  0  0  0  0  0  0  0  0
   41.7570   30.5670   42.3060 C   0  0  0  0  0  0  0  0  0  0  0  0
   42.8040   30.4980   42.0510 H   0  0  0  0  0  0  0  0  0  0  0  0
   40.8910   31.5070   42.7200 N   0  0  0  0  0  0  0  0  0  0  0  0
   41.3840   32.4480   42.8240 H   0  0  0  0  0  0  0  0  0  0  0  0
   39.6700   30.9890   42.8790 N   0  0  0  0  0  0  0  0  0  0  0  0
   37.8420   31.1440   39.6370 C   0  0  0  0  0  0  0  0  0  0  0  0
   38.6160   30.3920   39.9140 H   0  0  0  0  0  0  0  0  0  0  0  0
   37.5620   30.9990   38.5750 H   0  0  0  0  0  0  0  0  0  0  0  0
   38.4720   32.4710   39.7900 C   0  0  0  0  0  0  0  0  0  0  0  0
   37.7020   33.6070   39.8850 C   0  0  0  0  0  0  0  0  0  0  0  0
   38.3490   34.8240   40.0100 C   0  0  0  0  0  0  0  0  0  0  0  0
   39.7130   34.8380   40.0340 N   0  0  0  0  0  0  0  0  0  0  0  0
   40.4270   33.7190   39.9410 C   0  0  0  0  0  0  0  0  0  0  0  0
   39.7810   32.5570   39.8200 N   0  0  0  0  0  0  0  0  0  0  0  0
   36.6440   33.7990   39.9040 H   0  0  0  0  0  0  0  0  0  0  0  0
   37.9070   35.8240   40.0950 H   0  0  0  0  0  0  0  0  0  0  0  0
   41.8820   33.8250   40.0070 C   0  0  0  0  0  0  0  0  0  0  0  0
   42.6430   33.8310   38.8410 C   0  0  0  0  0  0  0  0  0  0  0  0
   44.0050   33.9290   38.9150 C   0  0  0  0  0  0  0  0  0  0  0  0
   44.5090   34.0160   40.1860 C   0  0  0  0  0  0  0  0  0  0  0  0
   43.8050   34.0140   41.3790 C   0  0  0  0  0  0  0  0  0  0  0  0
   42.4600   33.9140   41.2240 N   0  0  0  0  0  0  0  0  0  0  0  0
   42.1570   33.7580   37.8740 H   0  0  0  0  0  0  0  0  0  0  0  0
   44.6640   33.9400   38.0600 H   0  0  0  0  0  0  0  0  0  0  0  0
   45.6020   34.0960   40.3000 H   0  0  0  0  0  0  0  0  0  0  0  0
   44.2870   34.0860   42.3390 H   0  0  0  0  0  0  0  0  0  0  0  0
  1  4  1  0  0  0  0
  1  3  1  0  0  0  0
  2  1  1  0  0  0  0
  4  9  1  0  0  0  0
  5  4  1  0  0  0  0
  5 11  1  0  0  0  0
  6  7  1  0  0  0  0
  6  5  1  0  0  0  0
  7 14  1  0  0  0  0
  7  8  1  0  0  0  0
  8 16  1  0  0  0  0
  8  9  2  0  0  0  0
  9 17  1  0  0  0  0
 10  5  1  0  0  0  0
 12  6  1  0  0  0  0
 13  6  1  0  0  0  0
 15  7  1  0  0  0  0
 18 17  1  0  0  0  0
 18 25  2  0  0  0  0
 19 21  2  0  0  0  0
 19 18  1  0  0  0  0
 20 19  1  0  0  0  0
 21 23  1  0  0  0  0
 22 21  1  0  0  0  0
 23 24  1  0  0  0  0
 23 25  1  0  0  0  0
 26 29  1  0  0  0  0
 26 27  1  0  0  0  0
 26  1  1  0  0  0  0
 28 26  1  0  0  0  0
 29 34  2  0  0  0  0
 29 30  1  0  0  0  0
 30 35  1  0  0  0  0
 30 31  2  0  0  0  0
 31 32  1  0  0  0  0
 31 36  1  0  0  0  0
 33 37  1  0  0  0  0
 33 32  2  0  0  0  0
 34 33  1  0  0  0  0
 37 42  1  0  0  0  0
 38 39  1  0  0  0  0
 38 37  2  0  0  0  0
 39 40  2  0  0  0  0
 40 45  1  0  0  0  0
 40 41  1  0  0  0  0
 41 46  1  0  0  0  0
 42 41  2  0  0  0  0
 43 38  1  0  0  0  0
 44 39  1  0  0  0  0
M  END
>  <minimizedAffinity>
-5.55028963

$$$$
