
 OpenBabel03252507553D

 43 46  0  0  1  0  0  0  0  0999 V2000
   47.0160   34.8030   42.0060 C   0  0  2  0  0  0  0  0  0  0  0  0
   46.1980   34.2380   40.8400 C   0  0  0  0  0  0  0  0  0  0  0  0
   47.3630   34.0820   39.8360 C   0  0  0  0  0  0  0  0  0  0  0  0
   48.5270   33.6440   40.6690 C   0  0  1  0  0  0  0  0  0  0  0  0
   48.0740   33.7380   42.0940 C   0  0  0  0  0  0  0  0  0  0  0  0
   47.3590   35.7980   41.7000 H   0  0  0  0  0  0  0  0  0  0  0  0
   45.4620   34.9570   40.4720 H   0  0  0  0  0  0  0  0  0  0  0  0
   45.8170   33.2390   41.0890 H   0  0  0  0  0  0  0  0  0  0  0  0
   47.5340   35.1160   39.4200 H   0  0  0  0  0  0  0  0  0  0  0  0
   47.1190   33.3680   39.0400 H   0  0  0  0  0  0  0  0  0  0  0  0
   49.3940   34.3540   40.5590 H   0  0  0  0  0  0  0  0  0  0  0  0
   47.5930   32.8070   42.3850 H   0  0  0  0  0  0  0  0  0  0  0  0
   48.8950   34.0500   42.7720 H   0  0  0  0  0  0  0  0  0  0  0  0
   44.5390   35.8410   44.6480 C   0  0  0  0  0  0  0  0  0  0  0  0
   45.2310   35.8640   43.4420 C   0  0  0  0  0  0  0  0  0  0  0  0
   46.1870   34.8740   43.2450 C   0  0  0  0  0  0  0  0  0  0  0  0
   46.4240   33.9100   44.2320 N   0  0  0  0  0  0  0  0  0  0  0  0
   45.7160   33.9400   45.3920 C   0  0  0  0  0  0  0  0  0  0  0  0
   44.7770   34.9020   45.5970 N   0  0  0  0  0  0  0  0  0  0  0  0
   43.7870   36.5980   44.8320 H   0  0  0  0  0  0  0  0  0  0  0  0
   45.0630   36.5990   42.6670 H   0  0  0  0  0  0  0  0  0  0  0  0
   45.9020   33.1940   46.1520 H   0  0  0  0  0  0  0  0  0  0  0  0
   48.9750   32.2210   40.4300 C   0  0  2  0  0  0  0  0  0  0  0  0
   49.6920   31.5820   41.5220 C   0  0  0  0  0  0  0  0  0  0  0  0
   50.3830   31.8820   40.2290 C   0  0  1  0  0  0  0  0  0  0  0  0
   48.2350   31.6230   39.8670 H   0  0  0  0  0  0  0  0  0  0  0  0
   50.0460   32.2290   42.3750 H   0  0  0  0  0  0  0  0  0  0  0  0
   49.5760   30.5260   41.8360 H   0  0  0  0  0  0  0  0  0  0  0  0
   51.0330   32.7310   40.0330 H   0  0  0  0  0  0  0  0  0  0  0  0
   50.6750   30.7760   39.3920 O   0  0  0  0  0  0  0  0  0  0  0  0
   52.5190   29.8790   37.7830 O   0  0  0  0  0  0  0  0  0  0  0  0
   52.1930   31.0190   38.7130 P   0  0  1  0  0  0  0  0  0  0  0  0
   52.1930   32.4590   37.7810 O   0  0  0  0  0  0  0  0  0  0  0  0
   52.5280   33.2080   38.3160 H   0  0  0  0  0  0  0  0  0  0  0  0
   53.4270   31.1670   39.8180 O   0  0  0  0  0  0  0  0  0  0  0  0
   53.7330   30.2140   40.7750 C   0  0  0  0  0  0  0  0  0  0  0  0
   53.0430   29.7110   41.8810 C   0  0  0  0  0  0  0  0  0  0  0  0
   52.0590   30.0780   42.1220 H   0  0  0  0  0  0  0  0  0  0  0  0
   53.8300   28.7660   42.4920 C   0  0  0  0  0  0  0  0  0  0  0  0
   53.5460   28.2070   43.3780 H   0  0  0  0  0  0  0  0  0  0  0  0
   54.9660   28.7000   41.7710 N   0  0  0  0  0  0  0  0  0  0  0  0
   55.7380   28.0480   42.0290 H   0  0  0  0  0  0  0  0  0  0  0  0
   54.9240   29.5510   40.7530 N   0  0  0  0  0  0  0  0  0  0  0  0
  1  6  1  6  0  0  0
  1  5  1  0  0  0  0
  1 16  1  0  0  0  0
  2  8  1  0  0  0  0
  2  1  1  0  0  0  0
  3  4  1  0  0  0  0
  3  2  1  0  0  0  0
  4 11  1  6  0  0  0
  4  5  1  0  0  0  0
  5 12  1  0  0  0  0
  5 13  1  0  0  0  0
  7  2  1  0  0  0  0
  9  3  1  0  0  0  0
 10  3  1  0  0  0  0
 14 20  1  0  0  0  0
 14 19  1  0  0  0  0
 15 14  2  0  0  0  0
 16 15  1  0  0  0  0
 16 17  2  0  0  0  0
 17 18  1  0  0  0  0
 18 19  2  0  0  0  0
 18 22  1  0  0  0  0
 21 15  1  0  0  0  0
 23 26  1  6  0  0  0
 23  4  1  0  0  0  0
 23 24  1  0  0  0  0
 24 28  1  0  0  0  0
 24 27  1  0  0  0  0
 25 29  1  6  0  0  0
 25 23  1  0  0  0  0
 25 24  1  0  0  0  0
 30 25  1  0  0  0  0
 32 31  2  6  0  0  0
 32 30  1  0  0  0  0
 32 35  1  0  0  0  0
 33 34  1  0  0  0  0
 33 32  1  0  0  0  0
 35 36  1  0  0  0  0
 36 37  1  0  0  0  0
 37 38  1  0  0  0  0
 37 39  2  0  0  0  0
 39 40  1  0  0  0  0
 41 42  1  0  0  0  0
 41 39  1  0  0  0  0
 43 36  2  0  0  0  0
 43 41  1  0  0  0  0
M  END
>  <minimizedAffinity>
-5.14265347

>  <minimizedRMSD>
0.978325307

$$$$
