
 OpenBabel03252505523D

 24 25  0  0  0  0  0  0  0  0999 V2000
   38.7960   27.0120   41.6200 C   0  0  0  0  0  0  0  0  0  0  0  0
   37.6470   26.5250   42.2530 C   0  0  0  0  0  0  0  0  0  0  0  0
   36.9570   27.3950   43.0880 C   0  0  0  0  0  0  0  0  0  0  0  0
   37.4060   28.6570   43.2620 N   0  0  0  0  0  0  0  0  0  0  0  0
   38.5260   29.0840   42.6280 C   0  0  0  0  0  0  0  0  0  0  0  0
   39.2190   28.2890   41.8190 N   0  0  0  0  0  0  0  0  0  0  0  0
   39.3960   26.4000   40.9510 H   0  0  0  0  0  0  0  0  0  0  0  0
   36.0860   27.0020   43.5580 H   0  0  0  0  0  0  0  0  0  0  0  0
   37.2680   25.1030   41.9670 C   0  0  0  0  0  0  0  0  0  0  0  0
   36.2210   24.8150   42.8050 F   0  0  0  0  0  0  0  0  0  0  0  0
   38.3660   24.3260   42.2950 F   0  0  0  0  0  0  0  0  0  0  0  0
   36.9530   25.0100   40.6350 F   0  0  0  0  0  0  0  0  0  0  0  0
   39.0110   30.3720   42.7860 O   0  0  0  0  0  0  0  0  0  0  0  0
   39.6600   31.0840   41.7640 C   0  0  0  0  0  0  0  0  0  0  0  0
   40.0970   30.3860   41.0460 H   0  0  0  0  0  0  0  0  0  0  0  0
   40.4900   31.6530   42.2300 H   0  0  0  0  0  0  0  0  0  0  0  0
   38.7270   32.0270   41.0790 C   0  0  0  0  0  0  0  0  0  0  0  0
   39.0680   33.2920   40.6570 C   0  0  0  0  0  0  0  0  0  0  0  0
   40.0570   33.7340   40.7800 H   0  0  0  0  0  0  0  0  0  0  0  0
   38.0140   33.9370   40.0600 C   0  0  0  0  0  0  0  0  0  0  0  0
   38.0350   34.9360   39.6490 H   0  0  0  0  0  0  0  0  0  0  0  0
   37.0190   33.0190   40.1340 N   0  0  0  0  0  0  0  0  0  0  0  0
   36.0390   33.1890   39.7590 H   0  0  0  0  0  0  0  0  0  0  0  0
   37.4400   31.9140   40.7270 N   0  0  0  0  0  0  0  0  0  0  0  0
  1  6  2  0  0  0  0
  1  2  1  0  0  0  0
  2  3  2  0  0  0  0
  3  4  1  0  0  0  0
  3  8  1  0  0  0  0
  5 13  1  0  0  0  0
  5  4  2  0  0  0  0
  6  5  1  0  0  0  0
  7  1  1  0  0  0  0
  9  2  1  0  0  0  0
  9 11  1  0  0  0  0
  9 10  1  0  0  0  0
 12  9  1  0  0  0  0
 14 16  1  0  0  0  0
 14 13  1  0  0  0  0
 15 14  1  0  0  0  0
 17 14  1  0  0  0  0
 18 19  1  0  0  0  0
 18 17  1  0  0  0  0
 20 22  1  0  0  0  0
 20 18  2  0  0  0  0
 21 20  1  0  0  0  0
 22 24  1  0  0  0  0
 23 22  1  0  0  0  0
 24 17  2  0  0  0  0
M  END
>  <minimizedAffinity>
-4.85792589

$$$$

 OpenBabel03252505523D

 24 25  0  0  0  0  0  0  0  0999 V2000
   36.9400   26.9970   40.8040 C   0  0  0  0  0  0  0  0  0  0  0  0
   37.4000   26.5170   42.0350 C   0  0  0  0  0  0  0  0  0  0  0  0
   37.4980   27.4250   43.0820 C   0  0  0  0  0  0  0  0  0  0  0  0
   37.1550   28.7160   42.8850 N   0  0  0  0  0  0  0  0  0  0  0  0
   36.7140   29.1350   41.6740 C   0  0  0  0  0  0  0  0  0  0  0  0
   36.6020   28.3040   40.6420 N   0  0  0  0  0  0  0  0  0  0  0  0
   36.8320   26.3550   39.9330 H   0  0  0  0  0  0  0  0  0  0  0  0
   37.8510   27.0360   44.0080 H   0  0  0  0  0  0  0  0  0  0  0  0
   37.7460   25.0590   42.1070 C   0  0  0  0  0  0  0  0  0  0  0  0
   38.0570   24.6800   40.8260 F   0  0  0  0  0  0  0  0  0  0  0  0
   36.6040   24.4010   42.5320 F   0  0  0  0  0  0  0  0  0  0  0  0
   38.7820   24.9150   42.9940 F   0  0  0  0  0  0  0  0  0  0  0  0
   36.3540   30.4520   41.4410 O   0  0  0  0  0  0  0  0  0  0  0  0
   36.6660   31.1410   40.2570 C   0  0  0  0  0  0  0  0  0  0  0  0
   35.7670   31.6120   39.8540 H   0  0  0  0  0  0  0  0  0  0  0  0
   37.0160   30.3920   39.5180 H   0  0  0  0  0  0  0  0  0  0  0  0
   37.7350   32.1600   40.4850 C   0  0  0  0  0  0  0  0  0  0  0  0
   37.7080   33.4430   39.9880 C   0  0  0  0  0  0  0  0  0  0  0  0
   36.9020   33.8460   39.3760 H   0  0  0  0  0  0  0  0  0  0  0  0
   38.8200   34.1600   40.3530 C   0  0  0  0  0  0  0  0  0  0  0  0
   39.0270   35.1860   40.0860 H   0  0  0  0  0  0  0  0  0  0  0  0
   39.5250   33.2660   41.0910 N   0  0  0  0  0  0  0  0  0  0  0  0
   40.4610   33.4910   41.5410 H   0  0  0  0  0  0  0  0  0  0  0  0
   38.8890   32.1080   41.1630 N   0  0  0  0  0  0  0  0  0  0  0  0
  1  2  1  0  0  0  0
  2  9  1  0  0  0  0
  2  3  2  0  0  0  0
  3  8  1  0  0  0  0
  4  3  1  0  0  0  0
  5  4  2  0  0  0  0
  6  1  2  0  0  0  0
  6  5  1  0  0  0  0
  7  1  1  0  0  0  0
  9 11  1  0  0  0  0
  9 12  1  0  0  0  0
 10  9  1  0  0  0  0
 13  5  1  0  0  0  0
 14 17  1  0  0  0  0
 14 13  1  0  0  0  0
 15 14  1  0  0  0  0
 16 14  1  0  0  0  0
 17 24  2  0  0  0  0
 18 20  2  0  0  0  0
 18 17  1  0  0  0  0
 19 18  1  0  0  0  0
 20 22  1  0  0  0  0
 21 20  1  0  0  0  0
 22 24  1  0  0  0  0
 22 23  1  0  0  0  0
M  END
>  <minimizedAffinity>
-4.80687237

$$$$

 OpenBabel03252505523D

 24 25  0  0  0  0  0  0  0  0999 V2000
   36.5400   28.7160   41.2640 C   0  0  0  0  0  0  0  0  0  0  0  0
   37.4080   28.3290   42.2910 C   0  0  0  0  0  0  0  0  0  0  0  0
   38.3980   29.2290   42.6660 C   0  0  0  0  0  0  0  0  0  0  0  0
   38.4920   30.4230   42.0440 N   0  0  0  0  0  0  0  0  0  0  0  0
   37.6280   30.7540   41.0530 C   0  0  0  0  0  0  0  0  0  0  0  0
   36.6640   29.9270   40.6590 N   0  0  0  0  0  0  0  0  0  0  0  0
   35.7380   28.0740   40.9080 H   0  0  0  0  0  0  0  0  0  0  0  0
   39.0470   28.9120   43.4500 H   0  0  0  0  0  0  0  0  0  0  0  0
   37.1860   26.9720   42.8900 C   0  0  0  0  0  0  0  0  0  0  0  0
   36.0700   27.0860   43.6800 F   0  0  0  0  0  0  0  0  0  0  0  0
   38.2940   26.6980   43.6740 F   0  0  0  0  0  0  0  0  0  0  0  0
   37.0490   26.0740   41.8630 F   0  0  0  0  0  0  0  0  0  0  0  0
   37.6980   31.9710   40.3960 O   0  0  0  0  0  0  0  0  0  0  0  0
   38.8600   32.7580   40.3490 C   0  0  0  0  0  0  0  0  0  0  0  0
   39.5300   32.4790   41.1660 H   0  0  0  0  0  0  0  0  0  0  0  0
   38.5540   33.8130   40.5080 H   0  0  0  0  0  0  0  0  0  0  0  0
   39.5540   32.6300   39.0330 C   0  0  0  0  0  0  0  0  0  0  0  0
   40.8590   33.0010   38.8000 C   0  0  0  0  0  0  0  0  0  0  0  0
   41.5190   33.4260   39.5550 H   0  0  0  0  0  0  0  0  0  0  0  0
   41.2350   32.7710   37.5000 C   0  0  0  0  0  0  0  0  0  0  0  0
   42.2070   32.9780   37.0770 H   0  0  0  0  0  0  0  0  0  0  0  0
   40.1110   32.2470   36.9500 N   0  0  0  0  0  0  0  0  0  0  0  0
   40.0440   31.9480   35.9330 H   0  0  0  0  0  0  0  0  0  0  0  0
   39.1400   32.1680   37.8460 N   0  0  0  0  0  0  0  0  0  0  0  0
  1  2  1  0  0  0  0
  2  3  2  0  0  0  0
  2  9  1  0  0  0  0
  3  8  1  0  0  0  0
  4  3  1  0  0  0  0
  5  4  2  0  0  0  0
  6  5  1  0  0  0  0
  6  1  2  0  0  0  0
  7  1  1  0  0  0  0
  9 11  1  0  0  0  0
  9 10  1  0  0  0  0
 12  9  1  0  0  0  0
 13  5  1  0  0  0  0
 14 13  1  0  0  0  0
 14 16  1  0  0  0  0
 14 15  1  0  0  0  0
 17 14  1  0  0  0  0
 18 17  1  0  0  0  0
 18 19  1  0  0  0  0
 20 18  2  0  0  0  0
 21 20  1  0  0  0  0
 22 20  1  0  0  0  0
 22 24  1  0  0  0  0
 23 22  1  0  0  0  0
 24 17  2  0  0  0  0
M  END
>  <minimizedAffinity>
-4.79911137

$$$$

 OpenBabel03252505523D

 24 25  0  0  0  0  0  0  0  0999 V2000
   38.9200   31.4030   41.3520 C   0  0  0  0  0  0  0  0  0  0  0  0
   37.8320   31.9280   40.6470 C   0  0  0  0  0  0  0  0  0  0  0  0
   36.6320   31.2280   40.7030 C   0  0  0  0  0  0  0  0  0  0  0  0
   36.5540   30.0870   41.4200 N   0  0  0  0  0  0  0  0  0  0  0  0
   37.6360   29.6160   42.0870 C   0  0  0  0  0  0  0  0  0  0  0  0
   38.8050   30.2500   42.0640 N   0  0  0  0  0  0  0  0  0  0  0  0
   39.8940   31.8850   41.3620 H   0  0  0  0  0  0  0  0  0  0  0  0
   35.8190   31.6470   40.1580 H   0  0  0  0  0  0  0  0  0  0  0  0
   38.0650   33.2030   39.8930 C   0  0  0  0  0  0  0  0  0  0  0  0
   39.0430   32.9250   38.9730 F   0  0  0  0  0  0  0  0  0  0  0  0
   38.5290   34.1290   40.8120 F   0  0  0  0  0  0  0  0  0  0  0  0
   36.8730   33.5870   39.3340 F   0  0  0  0  0  0  0  0  0  0  0  0
   37.5880   28.4490   42.8320 O   0  0  0  0  0  0  0  0  0  0  0  0
   38.7000   27.6160   43.0370 C   0  0  0  0  0  0  0  0  0  0  0  0
   39.0440   27.7050   44.0700 H   0  0  0  0  0  0  0  0  0  0  0  0
   39.5140   27.9790   42.3770 H   0  0  0  0  0  0  0  0  0  0  0  0
   38.3840   26.1940   42.7090 C   0  0  0  0  0  0  0  0  0  0  0  0
   37.1740   25.7570   42.2180 C   0  0  0  0  0  0  0  0  0  0  0  0
   36.3230   26.4070   42.0180 H   0  0  0  0  0  0  0  0  0  0  0  0
   37.1640   24.4010   42.0070 C   0  0  0  0  0  0  0  0  0  0  0  0
   36.3320   23.8260   41.6270 H   0  0  0  0  0  0  0  0  0  0  0  0
   38.4110   24.0280   42.3890 N   0  0  0  0  0  0  0  0  0  0  0  0
   38.7540   23.0230   42.3570 H   0  0  0  0  0  0  0  0  0  0  0  0
   39.1130   25.0730   42.7950 N   0  0  0  0  0  0  0  0  0  0  0  0
  1  7  1  0  0  0  0
  1  6  1  0  0  0  0
  2  3  1  0  0  0  0
  2  1  2  0  0  0  0
  3  4  2  0  0  0  0
  4  5  1  0  0  0  0
  5 13  1  0  0  0  0
  6  5  2  0  0  0  0
  8  3  1  0  0  0  0
  9  2  1  0  0  0  0
  9 11  1  0  0  0  0
 10  9  1  0  0  0  0
 12  9  1  0  0  0  0
 13 14  1  0  0  0  0
 14 15  1  0  0  0  0
 16 14  1  0  0  0  0
 17 24  2  0  0  0  0
 17 14  1  0  0  0  0
 18 17  1  0  0  0  0
 19 18  1  0  0  0  0
 20 18  2  0  0  0  0
 20 22  1  0  0  0  0
 21 20  1  0  0  0  0
 22 24  1  0  0  0  0
 23 22  1  0  0  0  0
M  END
>  <minimizedAffinity>
-4.79739714

$$$$

 OpenBabel03252505523D

 24 25  0  0  0  0  0  0  0  0999 V2000
   36.8520   26.6820   40.7410 C   0  0  0  0  0  0  0  0  0  0  0  0
   37.4130   25.9500   41.7940 C   0  0  0  0  0  0  0  0  0  0  0  0
   37.8910   26.6620   42.8870 C   0  0  0  0  0  0  0  0  0  0  0  0
   37.8040   28.0100   42.9000 N   0  0  0  0  0  0  0  0  0  0  0  0
   37.2530   28.6760   41.8560 C   0  0  0  0  0  0  0  0  0  0  0  0
   36.7810   28.0390   40.7890 N   0  0  0  0  0  0  0  0  0  0  0  0
   36.4540   26.2050   39.8480 H   0  0  0  0  0  0  0  0  0  0  0  0
   38.3140   26.0840   43.6750 H   0  0  0  0  0  0  0  0  0  0  0  0
   37.4440   24.4580   41.6410 C   0  0  0  0  0  0  0  0  0  0  0  0
   38.1330   23.9810   42.7260 F   0  0  0  0  0  0  0  0  0  0  0  0
   38.1480   24.1930   40.4790 F   0  0  0  0  0  0  0  0  0  0  0  0
   36.1480   24.0150   41.5690 F   0  0  0  0  0  0  0  0  0  0  0  0
   37.1490   30.0570   41.8410 O   0  0  0  0  0  0  0  0  0  0  0  0
   36.1900   30.7510   41.0860 C   0  0  0  0  0  0  0  0  0  0  0  0
   35.6290   31.4300   41.7330 H   0  0  0  0  0  0  0  0  0  0  0  0
   35.4770   30.0030   40.6820 H   0  0  0  0  0  0  0  0  0  0  0  0
   36.8210   31.5010   39.9590 C   0  0  0  0  0  0  0  0  0  0  0  0
   36.9820   31.0050   38.6850 C   0  0  0  0  0  0  0  0  0  0  0  0
   36.6630   30.0110   38.3690 H   0  0  0  0  0  0  0  0  0  0  0  0
   37.5930   31.9090   37.8540 C   0  0  0  0  0  0  0  0  0  0  0  0
   37.8270   31.7520   36.8110 H   0  0  0  0  0  0  0  0  0  0  0  0
   37.7990   32.9750   38.6670 N   0  0  0  0  0  0  0  0  0  0  0  0
   38.2620   33.8740   38.3440 H   0  0  0  0  0  0  0  0  0  0  0  0
   37.3480   32.7300   39.8870 N   0  0  0  0  0  0  0  0  0  0  0  0
  1  6  2  0  0  0  0
  1  2  1  0  0  0  0
  2  3  2  0  0  0  0
  3  4  1  0  0  0  0
  3  8  1  0  0  0  0
  5  4  2  0  0  0  0
  6  5  1  0  0  0  0
  7  1  1  0  0  0  0
  9  2  1  0  0  0  0
  9 10  1  0  0  0  0
 11  9  1  0  0  0  0
 12  9  1  0  0  0  0
 13  5  1  0  0  0  0
 14 15  1  0  0  0  0
 14 13  1  0  0  0  0
 16 14  1  0  0  0  0
 17 14  1  0  0  0  0
 18 17  1  0  0  0  0
 19 18  1  0  0  0  0
 20 22  1  0  0  0  0
 20 18  2  0  0  0  0
 21 20  1  0  0  0  0
 22 24  1  0  0  0  0
 23 22  1  0  0  0  0
 24 17  2  0  0  0  0
M  END
>  <minimizedAffinity>
-4.69353485

$$$$

 OpenBabel03252505523D

 24 25  0  0  0  0  0  0  0  0999 V2000
   36.6820   27.4820   40.7370 C   0  0  0  0  0  0  0  0  0  0  0  0
   37.3430   27.0730   41.9000 C   0  0  0  0  0  0  0  0  0  0  0  0
   37.7950   28.0640   42.7630 C   0  0  0  0  0  0  0  0  0  0  0  0
   37.5860   29.3640   42.4610 N   0  0  0  0  0  0  0  0  0  0  0  0
   36.9400   29.7120   41.3210 C   0  0  0  0  0  0  0  0  0  0  0  0
   36.4900   28.8000   40.4650 N   0  0  0  0  0  0  0  0  0  0  0  0
   36.2970   26.7730   40.0080 H   0  0  0  0  0  0  0  0  0  0  0  0
   38.2950   27.7290   43.6420 H   0  0  0  0  0  0  0  0  0  0  0  0
   37.5040   25.5960   42.1050 C   0  0  0  0  0  0  0  0  0  0  0  0
   36.3630   25.1770   42.7410 F   0  0  0  0  0  0  0  0  0  0  0  0
   38.5980   25.4270   42.9360 F   0  0  0  0  0  0  0  0  0  0  0  0
   37.6970   25.0180   40.8770 F   0  0  0  0  0  0  0  0  0  0  0  0
   36.7110   31.0350   40.9840 O   0  0  0  0  0  0  0  0  0  0  0  0
   37.7380   31.9420   40.6720 C   0  0  0  0  0  0  0  0  0  0  0  0
   38.6220   31.7240   41.2760 H   0  0  0  0  0  0  0  0  0  0  0  0
   37.3820   32.9560   40.9480 H   0  0  0  0  0  0  0  0  0  0  0  0
   38.0730   31.9070   39.2170 C   0  0  0  0  0  0  0  0  0  0  0  0
   37.1850   31.5710   38.2200 C   0  0  0  0  0  0  0  0  0  0  0  0
   36.1450   31.2960   38.3930 H   0  0  0  0  0  0  0  0  0  0  0  0
   37.7640   31.6220   36.9770 C   0  0  0  0  0  0  0  0  0  0  0  0
   37.2720   31.4020   36.0410 H   0  0  0  0  0  0  0  0  0  0  0  0
   39.0360   32.0010   37.2530 N   0  0  0  0  0  0  0  0  0  0  0  0
   39.7780   32.1420   36.5060 H   0  0  0  0  0  0  0  0  0  0  0  0
   39.2080   32.1650   38.5550 N   0  0  0  0  0  0  0  0  0  0  0  0
  1  2  1  0  0  0  0
  2  9  1  0  0  0  0
  2  3  2  0  0  0  0
  3  8  1  0  0  0  0
  4  3  1  0  0  0  0
  5  4  2  0  0  0  0
  6  1  2  0  0  0  0
  6  5  1  0  0  0  0
  7  1  1  0  0  0  0
  9 10  1  0  0  0  0
  9 11  1  0  0  0  0
 12  9  1  0  0  0  0
 13  5  1  0  0  0  0
 14 16  1  0  0  0  0
 14 13  1  0  0  0  0
 14 15  1  0  0  0  0
 17 14  1  0  0  0  0
 18 19  1  0  0  0  0
 18 17  1  0  0  0  0
 20 22  1  0  0  0  0
 20 18  2  0  0  0  0
 21 20  1  0  0  0  0
 22 24  1  0  0  0  0
 23 22  1  0  0  0  0
 24 17  2  0  0  0  0
M  END
>  <minimizedAffinity>
-4.49363184

$$$$

 OpenBabel03252505523D

 24 25  0  0  0  0  0  0  0  0999 V2000
   36.4020   30.3500   39.2730 C   0  0  0  0  0  0  0  0  0  0  0  0
   37.2850   31.3300   39.7400 C   0  0  0  0  0  0  0  0  0  0  0  0
   37.8070   31.1670   41.0180 C   0  0  0  0  0  0  0  0  0  0  0  0
   37.4550   30.0920   41.7550 N   0  0  0  0  0  0  0  0  0  0  0  0
   36.5950   29.1680   41.2600 C   0  0  0  0  0  0  0  0  0  0  0  0
   36.0700   29.2800   40.0430 N   0  0  0  0  0  0  0  0  0  0  0  0
   35.9480   30.3990   38.2860 H   0  0  0  0  0  0  0  0  0  0  0  0
   38.4750   31.9260   41.3510 H   0  0  0  0  0  0  0  0  0  0  0  0
   37.5850   32.4700   38.8120 C   0  0  0  0  0  0  0  0  0  0  0  0
   38.9140   32.7590   38.9860 F   0  0  0  0  0  0  0  0  0  0  0  0
   36.8080   33.5370   39.2300 F   0  0  0  0  0  0  0  0  0  0  0  0
   37.2670   32.0710   37.5390 F   0  0  0  0  0  0  0  0  0  0  0  0
   36.2150   28.0550   41.9910 O   0  0  0  0  0  0  0  0  0  0  0  0
   36.7880   27.7090   43.2260 C   0  0  0  0  0  0  0  0  0  0  0  0
   36.0290   27.2660   43.8760 H   0  0  0  0  0  0  0  0  0  0  0  0
   37.1380   28.6460   43.7050 H   0  0  0  0  0  0  0  0  0  0  0  0
   37.9400   26.7740   43.0500 C   0  0  0  0  0  0  0  0  0  0  0  0
   39.1560   26.9090   43.6790 C   0  0  0  0  0  0  0  0  0  0  0  0
   39.4030   27.7140   44.3720 H   0  0  0  0  0  0  0  0  0  0  0  0
   40.0290   25.9080   43.3320 C   0  0  0  0  0  0  0  0  0  0  0  0
   41.0410   25.7980   43.6940 H   0  0  0  0  0  0  0  0  0  0  0  0
   39.2990   25.1590   42.4690 N   0  0  0  0  0  0  0  0  0  0  0  0
   39.6730   24.2850   41.9960 H   0  0  0  0  0  0  0  0  0  0  0  0
   38.0880   25.6680   42.3100 N   0  0  0  0  0  0  0  0  0  0  0  0
  1  2  2  0  0  0  0
  1  6  1  0  0  0  0
  2  3  1  0  0  0  0
  3  8  1  0  0  0  0
  3  4  2  0  0  0  0
  5  4  1  0  0  0  0
  5 13  1  0  0  0  0
  6  5  2  0  0  0  0
  7  1  1  0  0  0  0
  9 10  1  0  0  0  0
  9 11  1  0  0  0  0
  9  2  1  0  0  0  0
 12  9  1  0  0  0  0
 13 14  1  0  0  0  0
 14 16  1  0  0  0  0
 14 15  1  0  0  0  0
 17 14  1  0  0  0  0
 17 18  1  0  0  0  0
 18 19  1  0  0  0  0
 20 18  2  0  0  0  0
 20 21  1  0  0  0  0
 22 20  1  0  0  0  0
 23 22  1  0  0  0  0
 24 22  1  0  0  0  0
 24 17  2  0  0  0  0
M  END
>  <minimizedAffinity>
-4.37426805

$$$$

 OpenBabel03252505523D

 24 25  0  0  0  0  0  0  0  0999 V2000
   38.7060   26.4000   41.7480 C   0  0  0  0  0  0  0  0  0  0  0  0
   37.4450   26.0690   41.2400 C   0  0  0  0  0  0  0  0  0  0  0  0
   36.7590   27.0510   40.5350 C   0  0  0  0  0  0  0  0  0  0  0  0
   37.3180   28.2680   40.3640 N   0  0  0  0  0  0  0  0  0  0  0  0
   38.5440   28.5430   40.8740 C   0  0  0  0  0  0  0  0  0  0  0  0
   39.2380   27.6360   41.5560 N   0  0  0  0  0  0  0  0  0  0  0  0
   39.3100   25.6920   42.3110 H   0  0  0  0  0  0  0  0  0  0  0  0
   35.8020   26.7760   40.1590 H   0  0  0  0  0  0  0  0  0  0  0  0
   36.9500   24.6790   41.5080 C   0  0  0  0  0  0  0  0  0  0  0  0
   36.3350   24.7260   42.7330 F   0  0  0  0  0  0  0  0  0  0  0  0
   38.0680   23.8650   41.5710 F   0  0  0  0  0  0  0  0  0  0  0  0
   36.1130   24.3240   40.4820 F   0  0  0  0  0  0  0  0  0  0  0  0
   39.1430   29.7810   40.7160 O   0  0  0  0  0  0  0  0  0  0  0  0
   38.9690   30.8450   41.6160 C   0  0  0  0  0  0  0  0  0  0  0  0
   39.9120   31.0580   42.1250 H   0  0  0  0  0  0  0  0  0  0  0  0
   38.2380   30.5170   42.3820 H   0  0  0  0  0  0  0  0  0  0  0  0
   38.4580   32.0660   40.9240 C   0  0  0  0  0  0  0  0  0  0  0  0
   37.4510   32.0670   39.9860 C   0  0  0  0  0  0  0  0  0  0  0  0
   36.9220   31.1740   39.6530 H   0  0  0  0  0  0  0  0  0  0  0  0
   37.1860   33.3290   39.5160 C   0  0  0  0  0  0  0  0  0  0  0  0
   36.4410   33.5850   38.7780 H   0  0  0  0  0  0  0  0  0  0  0  0
   38.0690   34.0970   40.2020 N   0  0  0  0  0  0  0  0  0  0  0  0
   38.1420   35.1500   40.0830 H   0  0  0  0  0  0  0  0  0  0  0  0
   38.8040   33.3570   41.0170 N   0  0  0  0  0  0  0  0  0  0  0  0
  1  7  1  0  0  0  0
  2  9  1  0  0  0  0
  2  1  2  0  0  0  0
  3  2  1  0  0  0  0
  4  3  2  0  0  0  0
  4  5  1  0  0  0  0
  5  6  2  0  0  0  0
  6  1  1  0  0  0  0
  8  3  1  0  0  0  0
  9 11  1  0  0  0  0
  9 10  1  0  0  0  0
 12  9  1  0  0  0  0
 13  5  1  0  0  0  0
 13 14  1  0  0  0  0
 14 15  1  0  0  0  0
 14 16  1  0  0  0  0
 17 24  2  0  0  0  0
 17 14  1  0  0  0  0
 18 17  1  0  0  0  0
 19 18  1  0  0  0  0
 20 18  2  0  0  0  0
 20 22  1  0  0  0  0
 21 20  1  0  0  0  0
 22 24  1  0  0  0  0
 23 22  1  0  0  0  0
M  END
>  <minimizedAffinity>
-4.32730055

$$$$

 OpenBabel03252505523D

 24 25  0  0  0  0  0  0  0  0999 V2000
   36.7910   26.5820   39.6900 C   0  0  0  0  0  0  0  0  0  0  0  0
   36.9670   26.4970   41.0760 C   0  0  0  0  0  0  0  0  0  0  0  0
   36.8930   27.6770   41.8060 C   0  0  0  0  0  0  0  0  0  0  0  0
   36.6580   28.8450   41.1710 N   0  0  0  0  0  0  0  0  0  0  0  0
   36.4950   28.8790   39.8260 C   0  0  0  0  0  0  0  0  0  0  0  0
   36.5570   27.7770   39.0850 N   0  0  0  0  0  0  0  0  0  0  0  0
   36.8330   25.7090   39.0430 H   0  0  0  0  0  0  0  0  0  0  0  0
   37.0300   27.5860   42.8580 H   0  0  0  0  0  0  0  0  0  0  0  0
   37.2210   25.1320   41.6430 C   0  0  0  0  0  0  0  0  0  0  0  0
   36.3540   24.9930   42.6970 F   0  0  0  0  0  0  0  0  0  0  0  0
   38.5270   25.1290   42.1010 F   0  0  0  0  0  0  0  0  0  0  0  0
   37.0260   24.2160   40.6410 F   0  0  0  0  0  0  0  0  0  0  0  0
   36.2530   30.0620   39.1470 O   0  0  0  0  0  0  0  0  0  0  0  0
   36.8800   31.2780   39.4650 C   0  0  0  0  0  0  0  0  0  0  0  0
   37.2920   31.2300   40.4760 H   0  0  0  0  0  0  0  0  0  0  0  0
   36.1010   32.0670   39.4550 H   0  0  0  0  0  0  0  0  0  0  0  0
   37.9490   31.6140   38.4770 C   0  0  0  0  0  0  0  0  0  0  0  0
   39.2790   31.7750   38.7930 C   0  0  0  0  0  0  0  0  0  0  0  0
   39.6880   31.6710   39.7980 H   0  0  0  0  0  0  0  0  0  0  0  0
   40.0360   32.0810   37.6900 C   0  0  0  0  0  0  0  0  0  0  0  0
   41.1030   32.2530   37.6830 H   0  0  0  0  0  0  0  0  0  0  0  0
   39.1190   32.1020   36.6920 N   0  0  0  0  0  0  0  0  0  0  0  0
   39.3630   32.3120   35.6790 H   0  0  0  0  0  0  0  0  0  0  0  0
   37.9100   31.8310   37.1560 N   0  0  0  0  0  0  0  0  0  0  0  0
  1  2  1  0  0  0  0
  2  9  1  0  0  0  0
  2  3  2  0  0  0  0
  3  8  1  0  0  0  0
  4  3  1  0  0  0  0
  5  4  2  0  0  0  0
  6  1  2  0  0  0  0
  6  5  1  0  0  0  0
  7  1  1  0  0  0  0
  9 11  1  0  0  0  0
  9 10  1  0  0  0  0
 12  9  1  0  0  0  0
 13 14  1  0  0  0  0
 13  5  1  0  0  0  0
 14 15  1  0  0  0  0
 16 14  1  0  0  0  0
 17 18  1  0  0  0  0
 17 14  1  0  0  0  0
 18 19  1  0  0  0  0
 20 18  2  0  0  0  0
 21 20  1  0  0  0  0
 22 24  1  0  0  0  0
 22 20  1  0  0  0  0
 23 22  1  0  0  0  0
 24 17  2  0  0  0  0
M  END
>  <minimizedAffinity>
-4.25555944

$$$$
