
     RDKit          3D

 33 35  0  0  0  0  0  0  0  0999 V2000
   43.8636   33.6000   40.6164 C   0  0  0  0  0  0  0  0  0  0  0  0
   40.3791   34.7925   41.4686 C   0  0  0  0  0  0  0  0  0  0  0  0
   41.7504   34.8349   41.0886 C   0  0  0  0  0  0  0  0  0  0  0  0
   42.4262   33.6276   41.0116 C   0  0  0  0  0  0  0  0  0  0  0  0
   41.7147   32.4903   41.3091 N   0  0  0  0  0  0  0  0  0  0  0  0
   40.4379   32.4799   41.6604 C   0  0  0  0  0  0  0  0  0  0  0  0
   39.7604   33.6276   41.7430 N   0  0  0  0  0  0  0  0  0  0  0  0
   44.6812   34.0500   41.8447 C   0  0  0  0  0  0  0  0  0  0  0  0
   46.0504   34.3936   41.4788 C   0  0  0  0  0  0  0  0  0  0  0  0
   46.6303   34.0454   40.2621 C   0  0  0  0  0  0  0  0  0  0  0  0
   47.9224   34.3612   39.8563 C   0  0  0  0  0  0  0  0  0  0  0  0
   48.6555   35.0864   40.7778 C   0  0  0  0  0  0  0  0  0  0  0  0
   48.1074   35.4415   41.9831 C   0  0  0  0  0  0  0  0  0  0  0  0
   46.8175   35.1182   42.3735 C   0  0  0  0  0  0  0  0  0  0  0  0
   44.0184   34.3875   39.8700 H   0  0  0  0  0  0  0  0  0  0  0  0
   44.1822   32.6103   40.2955 H   0  0  0  0  0  0  0  0  0  0  0  0
   39.8738   35.7496   41.5212 H   0  0  0  0  0  0  0  0  0  0  0  0
   42.2275   35.7790   40.8729 H   0  0  0  0  0  0  0  0  0  0  0  0
   39.9174   31.5616   41.8858 H   0  0  0  0  0  0  0  0  0  0  0  0
   44.1799   34.9975   42.1400 H   0  0  0  0  0  0  0  0  0  0  0  0
   44.6094   33.2849   42.6334 H   0  0  0  0  0  0  0  0  0  0  0  0
   45.9822   33.4749   39.5955 H   0  0  0  0  0  0  0  0  0  0  0  0
   48.2107   34.0141   38.8849 H   0  0  0  0  0  0  0  0  0  0  0  0
   49.6584   35.3354   40.4713 H   0  0  0  0  0  0  0  0  0  0  0  0
   48.8169   36.0039   42.5817 H   0  0  0  0  0  0  0  0  0  0  0  0
   46.4536   35.6036   43.6927 C   0  0  0  0  0  0  0  0  0  0  0  0
   46.2048   35.0175   44.9041 C   0  0  0  0  0  0  0  0  0  0  0  0
   46.2313   33.9679   45.1171 H   0  0  0  0  0  0  0  0  0  0  0  0
   45.9183   35.9003   45.8877 C   0  0  0  0  0  0  0  0  0  0  0  0
   45.6849   35.7390   46.9205 H   0  0  0  0  0  0  0  0  0  0  0  0
   45.9930   37.0804   45.2619 N   0  0  0  0  0  0  0  0  0  0  0  0
   45.8456   38.0594   45.6314 H   0  0  0  0  0  0  0  0  0  0  0  0
   46.3018   36.8841   44.0032 N   0  0  0  0  0  0  0  0  0  0  0  0
  1  4  1  0
  1  8  1  0
  2  7  2  0
  3  2  1  0
  4  3  2  0
  4  5  1  0
  5  6  2  0
  6  7  1  0
  9  8  1  0
  9 14  1  0
 10  9  2  0
 11 10  1  0
 11 12  2  0
 12 13  1  0
 13 14  2  0
  1 15  1  0
  1 16  1  0
  2 17  1  0
  3 18  1  0
  6 19  1  0
  8 20  1  0
  8 21  1  0
 10 22  1  0
 11 23  1  0
 12 24  1  0
 13 25  1  0
 26 27  1  0
 27 28  1  0
 27 29  2  0
 29 30  1  0
 29 31  1  0
 31 32  1  0
 31 33  1  0
 33 26  2  0
 14 26  1  0
M  ISO  8  15   8  16   8  17  14  18  14  19  14  20   8  21   8  22  14
M  ISO  6  23  14  24  14  25  14  28  15  30  16  32   5
M  END
>  <DihAtoms>  (1) 
8,13,25,26

>  <DihDeg>  (1) 
9.539258066411541

$$$$
