
 OpenBabel03252503403D

 20 21  0  0  0  0  0  0  0  0999 V2000
   44.9680   34.8970   45.0830 C   0  0  0  0  0  0  0  0  0  0  0  0
   45.8130   34.6270   43.9980 C   0  0  0  0  0  0  0  0  0  0  0  0
   46.7400   33.6050   44.1240 C   0  0  0  0  0  0  0  0  0  0  0  0
   46.7700   32.9250   45.3060 N   0  0  0  0  0  0  0  0  0  0  0  0
   45.9480   33.2070   46.3270 C   0  0  0  0  0  0  0  0  0  0  0  0
   45.0250   34.2020   46.2400 N   0  0  0  0  0  0  0  0  0  0  0  0
   44.2200   35.6780   45.0560 H   0  0  0  0  0  0  0  0  0  0  0  0
   47.3540   33.4440   43.2740 H   0  0  0  0  0  0  0  0  0  0  0  0
   46.0250   32.4450   47.5710 C   0  0  0  0  0  0  0  0  0  0  0  0
   44.9770   31.8480   48.2410 C   0  0  0  0  0  0  0  0  0  0  0  0
   43.9260   31.8580   47.9360 H   0  0  0  0  0  0  0  0  0  0  0  0
   45.5310   31.2580   49.3400 C   0  0  0  0  0  0  0  0  0  0  0  0
   44.9180   30.7030   50.0610 H   0  0  0  0  0  0  0  0  0  0  0  0
   46.8590   31.4850   49.3390 N   0  0  0  0  0  0  0  0  0  0  0  0
   47.5300   31.1370   50.0810 H   0  0  0  0  0  0  0  0  0  0  0  0
   47.1770   32.2100   48.2630 N   0  0  0  0  0  0  0  0  0  0  0  0
   45.5960   35.5010   42.8110 C   0  0  0  0  0  0  0  0  0  0  0  0
   46.2390   35.2110   41.9760 H   0  0  0  0  0  0  0  0  0  0  0  0
   45.6740   36.5840   43.0590 H   0  0  0  0  0  0  0  0  0  0  0  0
   44.5490   35.3410   42.4790 H   0  0  0  0  0  0  0  0  0  0  0  0
  1  6  1  0  0  0  0
  2  3  1  0  0  0  0
  2  1  2  0  0  0  0
  3  4  2  0  0  0  0
  4  5  1  0  0  0  0
  5  9  1  0  0  0  0
  6  5  2  0  0  0  0
  7  1  1  0  0  0  0
  8  3  1  0  0  0  0
  9 10  1  0  0  0  0
  9 16  2  0  0  0  0
 10 12  2  0  0  0  0
 11 10  1  0  0  0  0
 12 13  1  0  0  0  0
 14 12  1  0  0  0  0
 14 15  1  0  0  0  0
 16 14  1  0  0  0  0
 17 19  1  0  0  0  0
 17  2  1  0  0  0  0
 18 17  1  0  0  0  0
 20 17  1  0  0  0  0
M  END
>  <minimizedAffinity>
-4.54397774

>  <minimizedRMSD>
1.4759481

$$$$
