
 OpenBabel03252504403D

 44 47  0  0  0  0  0  0  0  0999 V2000
   45.9730   32.3070   48.2590 C   0  0  0  0  0  0  0  0  0  0  0  0
   45.5790   31.4890   49.2740 C   0  0  0  0  0  0  0  0  0  0  0  0
   46.6560   30.7920   49.6360 N   0  0  0  0  0  0  0  0  0  0  0  0
   47.7160   31.1300   48.8980 C   0  0  0  0  0  0  0  0  0  0  0  0
   47.2830   32.0830   48.0320 N   0  0  0  0  0  0  0  0  0  0  0  0
   49.0700   30.6660   48.9120 N   0  0  0  0  0  0  0  0  0  0  0  0
   50.0270   31.3610   49.7920 C   0  0  0  0  0  0  0  0  0  0  0  0
   50.2190   30.4220   50.9790 C   0  0  0  0  0  0  0  0  0  0  0  0
   50.4710   29.0060   50.4830 C   0  0  0  0  0  0  0  0  0  0  0  0
   50.8700   29.0530   49.0130 C   0  0  0  0  0  0  0  0  0  0  0  0
   49.7250   29.6070   48.2080 C   0  0  0  0  0  0  0  0  0  0  0  0
   44.5850   31.4090   49.7120 H   0  0  0  0  0  0  0  0  0  0  0  0
   46.6950   30.0720   50.3920 H   0  0  0  0  0  0  0  0  0  0  0  0
   49.5620   32.2980   50.2090 H   0  0  0  0  0  0  0  0  0  0  0  0
   50.9770   31.5780   49.2920 H   0  0  0  0  0  0  0  0  0  0  0  0
   49.3460   30.4820   51.6530 H   0  0  0  0  0  0  0  0  0  0  0  0
   51.1080   30.7920   51.5350 H   0  0  0  0  0  0  0  0  0  0  0  0
   51.3310   28.5500   51.0280 H   0  0  0  0  0  0  0  0  0  0  0  0
   49.5300   28.4550   50.5840 H   0  0  0  0  0  0  0  0  0  0  0  0
   51.7900   29.6780   48.8980 H   0  0  0  0  0  0  0  0  0  0  0  0
   51.1350   28.0100   48.7450 H   0  0  0  0  0  0  0  0  0  0  0  0
   50.1080   30.0560   47.2500 H   0  0  0  0  0  0  0  0  0  0  0  0
   49.0310   28.7740   47.9710 H   0  0  0  0  0  0  0  0  0  0  0  0
   45.1160   33.2860   47.5180 C   0  0  0  0  0  0  0  0  0  0  0  0
   44.0400   32.9670   47.4930 H   0  0  0  0  0  0  0  0  0  0  0  0
   45.1860   34.2500   48.0520 H   0  0  0  0  0  0  0  0  0  0  0  0
   45.1500   34.4120   45.3230 C   0  0  0  0  0  0  0  0  0  0  0  0
   45.6290   33.4930   46.1430 C   0  0  0  0  0  0  0  0  0  0  0  0
   45.7500   34.5110   43.9850 C   0  0  0  0  0  0  0  0  0  0  0  0
   45.0140   35.0110   42.8820 C   0  0  0  0  0  0  0  0  0  0  0  0
   45.6730   35.0650   41.6600 C   0  0  0  0  0  0  0  0  0  0  0  0
   46.9430   34.6540   41.5670 N   0  0  0  0  0  0  0  0  0  0  0  0
   47.6260   34.1810   42.6340 C   0  0  0  0  0  0  0  0  0  0  0  0
   47.0430   34.1110   43.8180 N   0  0  0  0  0  0  0  0  0  0  0  0
   43.9890   35.3210   43.0500 H   0  0  0  0  0  0  0  0  0  0  0  0
   45.1010   35.4480   40.8240 H   0  0  0  0  0  0  0  0  0  0  0  0
   49.0120   33.7550   42.4410 C   0  0  0  0  0  0  0  0  0  0  0  0
   49.4370   32.4910   42.0420 C   0  0  0  0  0  0  0  0  0  0  0  0
   48.7930   31.6500   41.8190 H   0  0  0  0  0  0  0  0  0  0  0  0
   50.8140   32.5730   42.0020 C   0  0  0  0  0  0  0  0  0  0  0  0
   51.4200   31.7020   41.7120 H   0  0  0  0  0  0  0  0  0  0  0  0
   51.2010   33.8260   42.3610 N   0  0  0  0  0  0  0  0  0  0  0  0
   52.2230   34.0290   42.3740 H   0  0  0  0  0  0  0  0  0  0  0  0
   50.0940   34.5340   42.6250 N   0  0  0  0  0  0  0  0  0  0  0  0
  1  2  2  0  0  0  0
  2  3  1  0  0  0  0
  2 12  1  0  0  0  0
  3 13  1  0  0  0  0
  4  6  1  0  0  0  0
  4  3  1  0  0  0  0
  5  1  1  0  0  0  0
  5  4  2  0  0  0  0
  6  7  1  0  0  0  0
  7 14  1  0  0  0  0
  7  8  1  0  0  0  0
  8 17  1  0  0  0  0
  8 16  1  0  0  0  0
  9 19  1  0  0  0  0
  9  8  1  0  0  0  0
  9 18  1  0  0  0  0
 10  9  1  0  0  0  0
 11  6  1  0  0  0  0
 11 10  1  0  0  0  0
 15  7  1  0  0  0  0
 20 10  1  0  0  0  0
 21 10  1  0  0  0  0
 22 11  1  0  0  0  0
 23 11  1  0  0  0  0
 24 26  1  0  0  0  0
 24  1  1  0  0  0  0
 25 24  1  0  0  0  0
 27 28  2  0  0  0  0
 28 24  1  0  0  0  0
 29 27  1  0  0  0  0
 30 35  1  0  0  0  0
 30 29  2  0  0  0  0
 31 30  1  0  0  0  0
 32 31  2  0  0  0  0
 32 33  1  0  0  0  0
 33 34  2  0  0  0  0
 34 29  1  0  0  0  0
 36 31  1  0  0  0  0
 37 44  2  0  0  0  0
 37 33  1  0  0  0  0
 38 37  1  0  0  0  0
 39 38  1  0  0  0  0
 40 38  2  0  0  0  0
 40 42  1  0  0  0  0
 41 40  1  0  0  0  0
 42 43  1  0  0  0  0
 42 44  1  0  0  0  0
M  END
>  <minimizedAffinity>
-6.99449921

>  <minimizedRMSD>
1.43929863

$$$$
