
 OpenBabel03252507553D

 43 46  0  0  1  0  0  0  0  0999 V2000
   46.9870   34.7820   41.9310 C   0  0  2  0  0  0  0  0  0  0  0  0
   46.1510   34.2380   40.7680 C   0  0  0  0  0  0  0  0  0  0  0  0
   47.3130   34.0040   39.7780 C   0  0  0  0  0  0  0  0  0  0  0  0
   48.4470   33.5220   40.6290 C   0  0  1  0  0  0  0  0  0  0  0  0
   47.9890   33.6660   42.0480 C   0  0  0  0  0  0  0  0  0  0  0  0
   47.3830   35.7520   41.6100 H   0  0  0  0  0  0  0  0  0  0  0  0
   45.4550   34.9860   40.3810 H   0  0  0  0  0  0  0  0  0  0  0  0
   45.7160   33.2650   41.0330 H   0  0  0  0  0  0  0  0  0  0  0  0
   47.5410   35.0200   39.3440 H   0  0  0  0  0  0  0  0  0  0  0  0
   47.0400   33.2880   38.9930 H   0  0  0  0  0  0  0  0  0  0  0  0
   49.3500   34.1850   40.5140 H   0  0  0  0  0  0  0  0  0  0  0  0
   47.4580   32.7670   42.3520 H   0  0  0  0  0  0  0  0  0  0  0  0
   48.8190   33.9490   42.7270 H   0  0  0  0  0  0  0  0  0  0  0  0
   44.5410   35.9910   44.5280 C   0  0  0  0  0  0  0  0  0  0  0  0
   45.2430   35.9560   43.3280 C   0  0  0  0  0  0  0  0  0  0  0  0
   46.1530   34.9190   43.1610 C   0  0  0  0  0  0  0  0  0  0  0  0
   46.3380   33.9680   44.1710 N   0  0  0  0  0  0  0  0  0  0  0  0
   45.6230   34.0560   45.3240 C   0  0  0  0  0  0  0  0  0  0  0  0
   44.7280   35.0640   45.5000 N   0  0  0  0  0  0  0  0  0  0  0  0
   43.8230   36.7870   44.6890 H   0  0  0  0  0  0  0  0  0  0  0  0
   45.1140   36.6800   42.5360 H   0  0  0  0  0  0  0  0  0  0  0  0
   45.7680   33.3190   46.1020 H   0  0  0  0  0  0  0  0  0  0  0  0
   48.8230   32.0740   40.4210 C   0  0  2  0  0  0  0  0  0  0  0  0
   47.7810   31.0960   40.6870 C   0  0  0  0  0  0  0  0  0  0  0  0
   49.0050   31.1580   41.5460 C   0  0  1  0  0  0  0  0  0  0  0  0
   49.4770   31.9180   39.5430 H   0  0  0  0  0  0  0  0  0  0  0  0
   46.8490   31.4440   41.2170 H   0  0  0  0  0  0  0  0  0  0  0  0
   47.5900   30.1820   40.0910 H   0  0  0  0  0  0  0  0  0  0  0  0
   49.0810   31.6380   42.5180 H   0  0  0  0  0  0  0  0  0  0  0  0
   49.9460   30.1100   41.3890 O   0  0  0  0  0  0  0  0  0  0  0  0
   51.2790   31.9760   42.6280 O   0  0  0  0  0  0  0  0  0  0  0  0
   51.3350   30.5200   42.2420 P   0  0  1  0  0  0  0  0  0  0  0  0
   51.4220   29.6080   43.6920 O   0  0  0  0  0  0  0  0  0  0  0  0
   51.9760   28.8120   43.5570 H   0  0  0  0  0  0  0  0  0  0  0  0
   52.7540   30.2470   41.4210 O   0  0  0  0  0  0  0  0  0  0  0  0
   53.0030   30.6810   40.1300 C   0  0  0  0  0  0  0  0  0  0  0  0
   52.2800   31.4650   39.2270 C   0  0  0  0  0  0  0  0  0  0  0  0
   51.3160   31.8610   39.5000 H   0  0  0  0  0  0  0  0  0  0  0  0
   53.0110   31.5830   38.0710 C   0  0  0  0  0  0  0  0  0  0  0  0
   52.6920   32.1400   37.1940 H   0  0  0  0  0  0  0  0  0  0  0  0
   54.1470   30.8880   38.2720 N   0  0  0  0  0  0  0  0  0  0  0  0
   54.8810   30.8210   37.5350 H   0  0  0  0  0  0  0  0  0  0  0  0
   54.1580   30.3480   39.4850 N   0  0  0  0  0  0  0  0  0  0  0  0
  1  6  1  6  0  0  0
  1  5  1  0  0  0  0
  1 16  1  0  0  0  0
  2  8  1  0  0  0  0
  2  1  1  0  0  0  0
  3  4  1  0  0  0  0
  3  2  1  0  0  0  0
  4 11  1  6  0  0  0
  4  5  1  0  0  0  0
  5 12  1  0  0  0  0
  5 13  1  0  0  0  0
  7  2  1  0  0  0  0
  9  3  1  0  0  0  0
 10  3  1  0  0  0  0
 14 20  1  0  0  0  0
 14 19  1  0  0  0  0
 15 14  2  0  0  0  0
 16 15  1  0  0  0  0
 16 17  2  0  0  0  0
 17 18  1  0  0  0  0
 18 19  2  0  0  0  0
 18 22  1  0  0  0  0
 21 15  1  0  0  0  0
 23 26  1  6  0  0  0
 23  4  1  0  0  0  0
 23 24  1  0  0  0  0
 23 25  1  0  0  0  0
 24 27  1  0  0  0  0
 24 25  1  0  0  0  0
 25 29  1  1  0  0  0
 28 24  1  0  0  0  0
 30 25  1  0  0  0  0
 30 32  1  0  0  0  0
 32 31  2  1  0  0  0
 32 33  1  0  0  0  0
 34 33  1  0  0  0  0
 35 32  1  0  0  0  0
 36 35  1  0  0  0  0
 37 38  1  0  0  0  0
 37 36  1  0  0  0  0
 39 41  1  0  0  0  0
 39 37  2  0  0  0  0
 40 39  1  0  0  0  0
 41 43  1  0  0  0  0
 42 41  1  0  0  0  0
 43 36  2  0  0  0  0
M  END
>  <minimizedAffinity>
-4.69845438

>  <minimizedRMSD>
2.57013702

$$$$
