
 OpenBabel03252507563D

 43 46  0  0  1  0  0  0  0  0999 V2000
   36.6980   28.6010   41.9190 C   0  0  2  0  0  0  0  0  0  0  0  0
   36.0710   28.2140   40.5760 C   0  0  0  0  0  0  0  0  0  0  0  0
   35.2980   29.5300   40.3290 C   0  0  0  0  0  0  0  0  0  0  0  0
   36.2040   30.6050   40.8450 C   0  0  1  0  0  0  0  0  0  0  0  0
   37.3410   29.9000   41.5180 C   0  0  0  0  0  0  0  0  0  0  0  0
   35.8770   28.6730   42.6420 H   0  0  0  0  0  0  0  0  0  0  0  0
   35.3820   27.3710   40.6740 H   0  0  0  0  0  0  0  0  0  0  0  0
   36.8480   28.1160   39.8060 H   0  0  0  0  0  0  0  0  0  0  0  0
   34.3690   29.4500   40.9630 H   0  0  0  0  0  0  0  0  0  0  0  0
   35.0470   29.6600   39.2700 H   0  0  0  0  0  0  0  0  0  0  0  0
   35.6930   31.2200   41.6370 H   0  0  0  0  0  0  0  0  0  0  0  0
   38.1170   29.6810   40.7870 H   0  0  0  0  0  0  0  0  0  0  0  0
   37.7060   30.4530   42.4080 H   0  0  0  0  0  0  0  0  0  0  0  0
   38.5790   25.3850   42.4740 C   0  0  0  0  0  0  0  0  0  0  0  0
   37.5930   26.2420   41.9990 C   0  0  0  0  0  0  0  0  0  0  0  0
   37.7040   27.5830   42.3440 C   0  0  0  0  0  0  0  0  0  0  0  0
   38.7690   28.0260   43.1360 N   0  0  0  0  0  0  0  0  0  0  0  0
   39.7030   27.1400   43.5730 C   0  0  0  0  0  0  0  0  0  0  0  0
   39.6070   25.8250   43.2410 N   0  0  0  0  0  0  0  0  0  0  0  0
   38.5220   24.3330   42.2220 H   0  0  0  0  0  0  0  0  0  0  0  0
   36.7630   25.9200   41.3860 H   0  0  0  0  0  0  0  0  0  0  0  0
   40.5250   27.4860   44.1840 H   0  0  0  0  0  0  0  0  0  0  0  0
   36.7940   31.4990   39.7790 C   0  0  2  0  0  0  0  0  0  0  0  0
   37.4240   30.8270   38.6540 C   0  0  0  0  0  0  0  0  0  0  0  0
   38.2400   31.6410   39.6090 C   0  0  1  0  0  0  0  0  0  0  0  0
   36.1800   32.3960   39.5780 H   0  0  0  0  0  0  0  0  0  0  0  0
   37.6170   29.7190   38.7380 H   0  0  0  0  0  0  0  0  0  0  0  0
   37.3590   31.1480   37.5960 H   0  0  0  0  0  0  0  0  0  0  0  0
   38.8360   31.2540   40.4320 H   0  0  0  0  0  0  0  0  0  0  0  0
   38.7220   32.8850   39.1340 O   0  0  0  0  0  0  0  0  0  0  0  0
   38.7070   34.8490   40.8470 O   0  0  0  0  0  0  0  0  0  0  0  0
   39.5140   33.6580   40.3980 P   0  0  1  0  0  0  0  0  0  0  0  0
   39.6530   32.5960   41.7380 O   0  0  0  0  0  0  0  0  0  0  0  0
   40.5230   32.1490   41.7250 H   0  0  0  0  0  0  0  0  0  0  0  0
   41.0530   34.1720   40.0350 O   0  0  0  0  0  0  0  0  0  0  0  0
   41.7080   33.8940   38.8470 C   0  0  0  0  0  0  0  0  0  0  0  0
   42.1060   32.7050   38.2280 C   0  0  0  0  0  0  0  0  0  0  0  0
   41.9070   31.7560   38.6960 H   0  0  0  0  0  0  0  0  0  0  0  0
   42.7250   33.0180   37.0430 C   0  0  0  0  0  0  0  0  0  0  0  0
   43.1370   32.2890   36.3530 H   0  0  0  0  0  0  0  0  0  0  0  0
   42.7020   34.3620   36.9510 N   0  0  0  0  0  0  0  0  0  0  0  0
   43.1150   34.8580   36.1330 H   0  0  0  0  0  0  0  0  0  0  0  0
   42.1030   34.8940   38.0100 N   0  0  0  0  0  0  0  0  0  0  0  0
  1 16  1  0  0  0  0
  1  6  1  1  0  0  0
  2  7  1  0  0  0  0
  2  1  1  0  0  0  0
  3  2  1  0  0  0  0
  3  4  1  0  0  0  0
  3  9  1  0  0  0  0
  4  5  1  0  0  0  0
  4 11  1  1  0  0  0
  5  1  1  0  0  0  0
  5 13  1  0  0  0  0
  8  2  1  0  0  0  0
 10  3  1  0  0  0  0
 12  5  1  0  0  0  0
 14 19  1  0  0  0  0
 15 16  1  0  0  0  0
 15 14  2  0  0  0  0
 16 17  2  0  0  0  0
 17 18  1  0  0  0  0
 18 22  1  0  0  0  0
 19 18  2  0  0  0  0
 20 14  1  0  0  0  0
 21 15  1  0  0  0  0
 23 26  1  6  0  0  0
 23  4  1  0  0  0  0
 24 27  1  0  0  0  0
 24 25  1  0  0  0  0
 24 23  1  0  0  0  0
 25 23  1  0  0  0  0
 25 29  1  1  0  0  0
 28 24  1  0  0  0  0
 30 25  1  0  0  0  0
 30 32  1  0  0  0  0
 32 31  2  1  0  0  0
 32 33  1  0  0  0  0
 34 33  1  0  0  0  0
 35 32  1  0  0  0  0
 36 35  1  0  0  0  0
 37 38  1  0  0  0  0
 37 36  1  0  0  0  0
 39 37  2  0  0  0  0
 40 39  1  0  0  0  0
 41 39  1  0  0  0  0
 41 43  1  0  0  0  0
 42 41  1  0  0  0  0
 43 36  2  0  0  0  0
M  END
>  <minimizedAffinity>
-6.31107807

$$$$

 OpenBabel03252507563D

 43 46  0  0  1  0  0  0  0  0999 V2000
   36.7200   27.6760   41.7630 C   0  0  2  0  0  0  0  0  0  0  0  0
   36.6810   27.3420   40.2690 C   0  0  0  0  0  0  0  0  0  0  0  0
   35.6150   28.3840   39.8590 C   0  0  0  0  0  0  0  0  0  0  0  0
   35.9110   29.5840   40.7050 C   0  0  1  0  0  0  0  0  0  0  0  0
   36.9720   29.1560   41.6710 C   0  0  0  0  0  0  0  0  0  0  0  0
   35.7520   27.3770   42.1800 H   0  0  0  0  0  0  0  0  0  0  0  0
   36.3220   26.3260   40.0860 H   0  0  0  0  0  0  0  0  0  0  0  0
   37.6330   27.6110   39.7920 H   0  0  0  0  0  0  0  0  0  0  0  0
   34.6270   27.9240   40.1470 H   0  0  0  0  0  0  0  0  0  0  0  0
   35.6540   28.6030   38.7850 H   0  0  0  0  0  0  0  0  0  0  0  0
   35.0140   29.8760   41.3200 H   0  0  0  0  0  0  0  0  0  0  0  0
   37.9530   29.3040   41.2250 H   0  0  0  0  0  0  0  0  0  0  0  0
   36.8520   29.6400   42.6620 H   0  0  0  0  0  0  0  0  0  0  0  0
   39.7010   26.8090   43.8980 C   0  0  0  0  0  0  0  0  0  0  0  0
   38.6740   27.5770   43.3580 C   0  0  0  0  0  0  0  0  0  0  0  0
   37.8420   26.9560   42.4350 C   0  0  0  0  0  0  0  0  0  0  0  0
   38.0490   25.6180   42.0800 N   0  0  0  0  0  0  0  0  0  0  0  0
   39.0710   24.9190   42.6410 C   0  0  0  0  0  0  0  0  0  0  0  0
   39.8920   25.5140   43.5470 N   0  0  0  0  0  0  0  0  0  0  0  0
   40.3670   27.2640   44.6220 H   0  0  0  0  0  0  0  0  0  0  0  0
   38.4970   28.6110   43.6190 H   0  0  0  0  0  0  0  0  0  0  0  0
   39.2280   23.8860   42.3650 H   0  0  0  0  0  0  0  0  0  0  0  0
   36.4450   30.7760   39.9460 C   0  0  2  0  0  0  0  0  0  0  0  0
   36.5930   30.6070   38.5090 C   0  0  0  0  0  0  0  0  0  0  0  0
   37.7950   30.7870   39.3830 C   0  0  1  0  0  0  0  0  0  0  0  0
   36.0570   31.7390   40.3240 H   0  0  0  0  0  0  0  0  0  0  0  0
   36.5040   29.5670   38.0840 H   0  0  0  0  0  0  0  0  0  0  0  0
   36.3660   31.3770   37.7450 H   0  0  0  0  0  0  0  0  0  0  0  0
   38.4460   29.9950   39.7450 H   0  0  0  0  0  0  0  0  0  0  0  0
   38.4580   32.0360   39.3040 O   0  0  0  0  0  0  0  0  0  0  0  0
   40.2620   30.3360   38.4980 O   0  0  0  0  0  0  0  0  0  0  0  0
   39.9200   31.8030   38.5080 P   0  0  1  0  0  0  0  0  0  0  0  0
   39.7840   32.3110   36.8750 O   0  0  0  0  0  0  0  0  0  0  0  0
   40.1020   33.2310   36.7800 H   0  0  0  0  0  0  0  0  0  0  0  0
   41.2010   32.6390   39.1610 O   0  0  0  0  0  0  0  0  0  0  0  0
   42.2890   33.0900   38.4340 C   0  0  0  0  0  0  0  0  0  0  0  0
   43.6400   32.7310   38.4090 C   0  0  0  0  0  0  0  0  0  0  0  0
   44.0070   31.9500   39.0540 H   0  0  0  0  0  0  0  0  0  0  0  0
   44.2820   33.5160   37.4840 C   0  0  0  0  0  0  0  0  0  0  0  0
   45.3400   33.4560   37.2530 H   0  0  0  0  0  0  0  0  0  0  0  0
   43.3420   34.3290   36.9650 N   0  0  0  0  0  0  0  0  0  0  0  0
   43.5750   35.0320   36.2310 H   0  0  0  0  0  0  0  0  0  0  0  0
   42.1580   34.0890   37.5170 N   0  0  0  0  0  0  0  0  0  0  0  0
  1  6  1  1  0  0  0
  1 16  1  0  0  0  0
  2  1  1  0  0  0  0
  3  9  1  0  0  0  0
  3  2  1  0  0  0  0
  3  4  1  0  0  0  0
  4 11  1  1  0  0  0
  4  5  1  0  0  0  0
  5  1  1  0  0  0  0
  5 13  1  0  0  0  0
  7  2  1  0  0  0  0
  8  2  1  0  0  0  0
 10  3  1  0  0  0  0
 12  5  1  0  0  0  0
 14 20  1  0  0  0  0
 15 21  1  0  0  0  0
 15 14  2  0  0  0  0
 16 15  1  0  0  0  0
 17 16  2  0  0  0  0
 17 18  1  0  0  0  0
 18 19  2  0  0  0  0
 19 14  1  0  0  0  0
 22 18  1  0  0  0  0
 23 26  1  1  0  0  0
 23  4  1  0  0  0  0
 24 25  1  0  0  0  0
 24 23  1  0  0  0  0
 25 29  1  1  0  0  0
 25 23  1  0  0  0  0
 27 24  1  0  0  0  0
 28 24  1  0  0  0  0
 30 25  1  0  0  0  0
 32 31  2  1  0  0  0
 32 35  1  0  0  0  0
 32 30  1  0  0  0  0
 33 32  1  0  0  0  0
 34 33  1  0  0  0  0
 36 35  1  0  0  0  0
 37 36  1  0  0  0  0
 37 38  1  0  0  0  0
 39 37  2  0  0  0  0
 40 39  1  0  0  0  0
 41 39  1  0  0  0  0
 41 43  1  0  0  0  0
 42 41  1  0  0  0  0
 43 36  2  0  0  0  0
M  END
>  <minimizedAffinity>
-6.23485184

$$$$

 OpenBabel03252507563D

 43 46  0  0  1  0  0  0  0  0999 V2000
   37.4210   28.8190   42.3860 C   0  0  2  0  0  0  0  0  0  0  0  0
   36.6180   27.8070   41.5610 C   0  0  0  0  0  0  0  0  0  0  0  0
   35.5330   28.7810   41.0490 C   0  0  0  0  0  0  0  0  0  0  0  0
   36.2620   30.0640   40.7980 C   0  0  1  0  0  0  0  0  0  0  0  0
   37.6490   29.8620   41.3270 C   0  0  0  0  0  0  0  0  0  0  0  0
   36.7840   29.1170   43.2270 H   0  0  0  0  0  0  0  0  0  0  0  0
   36.1780   27.0280   42.1880 H   0  0  0  0  0  0  0  0  0  0  0  0
   37.2090   27.4600   40.7030 H   0  0  0  0  0  0  0  0  0  0  0  0
   34.8090   28.8920   41.9060 H   0  0  0  0  0  0  0  0  0  0  0  0
   35.0330   28.3950   40.1530 H   0  0  0  0  0  0  0  0  0  0  0  0
   35.8110   30.9090   41.3910 H   0  0  0  0  0  0  0  0  0  0  0  0
   38.2740   29.4260   40.5520 H   0  0  0  0  0  0  0  0  0  0  0  0
   38.0650   30.7910   41.7690 H   0  0  0  0  0  0  0  0  0  0  0  0
   39.9800   26.6120   44.0500 C   0  0  0  0  0  0  0  0  0  0  0  0
   38.7300   27.0660   43.6460 C   0  0  0  0  0  0  0  0  0  0  0  0
   38.6990   28.2140   42.8640 C   0  0  0  0  0  0  0  0  0  0  0  0
   39.8870   28.8660   42.5140 N   0  0  0  0  0  0  0  0  0  0  0  0
   41.0800   28.3750   42.9410 C   0  0  0  0  0  0  0  0  0  0  0  0
   41.1250   27.2510   43.7050 N   0  0  0  0  0  0  0  0  0  0  0  0
   40.0380   25.7180   44.6600 H   0  0  0  0  0  0  0  0  0  0  0  0
   37.8010   26.5770   43.9040 H   0  0  0  0  0  0  0  0  0  0  0  0
   41.9960   28.8810   42.6690 H   0  0  0  0  0  0  0  0  0  0  0  0
   36.3860   30.4460   39.3420 C   0  0  2  0  0  0  0  0  0  0  0  0
   36.0580   29.4090   38.3770 C   0  0  0  0  0  0  0  0  0  0  0  0
   37.4590   29.9210   38.4980 C   0  0  1  0  0  0  0  0  0  0  0  0
   36.0520   31.4790   39.1350 H   0  0  0  0  0  0  0  0  0  0  0  0
   35.9380   28.3530   38.7520 H   0  0  0  0  0  0  0  0  0  0  0  0
   35.5110   29.5650   37.4260 H   0  0  0  0  0  0  0  0  0  0  0  0
   38.2710   29.4420   39.0390 H   0  0  0  0  0  0  0  0  0  0  0  0
   37.9270   30.7490   37.4470 O   0  0  0  0  0  0  0  0  0  0  0  0
   40.4250   30.0140   37.5740 O   0  0  0  0  0  0  0  0  0  0  0  0
   39.5110   31.1920   37.7950 P   0  0  1  0  0  0  0  0  0  0  0  0
   40.0150   32.4410   36.7320 O   0  0  0  0  0  0  0  0  0  0  0  0
   39.8850   33.3150   37.1530 H   0  0  0  0  0  0  0  0  0  0  0  0
   39.7440   31.7580   39.3410 O   0  0  0  0  0  0  0  0  0  0  0  0
   39.3870   33.0250   39.7690 C   0  0  0  0  0  0  0  0  0  0  0  0
   40.0700   34.0300   40.4610 C   0  0  0  0  0  0  0  0  0  0  0  0
   41.0910   33.8810   40.7670 H   0  0  0  0  0  0  0  0  0  0  0  0
   39.2230   35.0990   40.6220 C   0  0  0  0  0  0  0  0  0  0  0  0
   39.4880   36.0230   41.1260 H   0  0  0  0  0  0  0  0  0  0  0  0
   38.0590   34.7460   40.0430 N   0  0  0  0  0  0  0  0  0  0  0  0
   37.2410   35.3920   40.0300 H   0  0  0  0  0  0  0  0  0  0  0  0
   38.1400   33.5230   39.5350 N   0  0  0  0  0  0  0  0  0  0  0  0
  1 16  1  0  0  0  0
  1  6  1  1  0  0  0
  2  7  1  0  0  0  0
  2  1  1  0  0  0  0
  3  2  1  0  0  0  0
  3  9  1  0  0  0  0
  4  3  1  0  0  0  0
  4  5  1  0  0  0  0
  4 11  1  1  0  0  0
  5 13  1  0  0  0  0
  5  1  1  0  0  0  0
  8  2  1  0  0  0  0
 10  3  1  0  0  0  0
 12  5  1  0  0  0  0
 14 20  1  0  0  0  0
 15 21  1  0  0  0  0
 15 14  2  0  0  0  0
 16 15  1  0  0  0  0
 17 16  2  0  0  0  0
 17 18  1  0  0  0  0
 18 19  2  0  0  0  0
 19 14  1  0  0  0  0
 22 18  1  0  0  0  0
 23 26  1  6  0  0  0
 23  4  1  0  0  0  0
 24 25  1  0  0  0  0
 24 27  1  0  0  0  0
 24 23  1  0  0  0  0
 25 29  1  1  0  0  0
 25 23  1  0  0  0  0
 28 24  1  0  0  0  0
 30 32  1  0  0  0  0
 30 25  1  0  0  0  0
 32 31  2  6  0  0  0
 32 35  1  0  0  0  0
 33 34  1  0  0  0  0
 33 32  1  0  0  0  0
 35 36  1  0  0  0  0
 36 37  1  0  0  0  0
 37 39  2  0  0  0  0
 37 38  1  0  0  0  0
 39 40  1  0  0  0  0
 41 39  1  0  0  0  0
 42 41  1  0  0  0  0
 43 36  2  0  0  0  0
 43 41  1  0  0  0  0
M  END
>  <minimizedAffinity>
-6.04718876

$$$$

 OpenBabel03252507563D

 43 46  0  0  1  0  0  0  0  0999 V2000
   36.7360   28.4670   41.9840 C   0  0  2  0  0  0  0  0  0  0  0  0
   36.1830   27.9820   40.6400 C   0  0  0  0  0  0  0  0  0  0  0  0
   35.2710   29.1960   40.3490 C   0  0  0  0  0  0  0  0  0  0  0  0
   36.0400   30.3780   40.8540 C   0  0  1  0  0  0  0  0  0  0  0  0
   37.2360   29.8210   41.5620 C   0  0  0  0  0  0  0  0  0  0  0  0
   35.8990   28.4610   42.6910 H   0  0  0  0  0  0  0  0  0  0  0  0
   35.5930   27.0690   40.7460 H   0  0  0  0  0  0  0  0  0  0  0  0
   36.9810   27.9570   39.8860 H   0  0  0  0  0  0  0  0  0  0  0  0
   34.3460   29.0250   40.9700 H   0  0  0  0  0  0  0  0  0  0  0  0
   35.0270   29.2740   39.2830 H   0  0  0  0  0  0  0  0  0  0  0  0
   35.4470   30.9480   41.6230 H   0  0  0  0  0  0  0  0  0  0  0  0
   38.0460   29.6760   40.8500 H   0  0  0  0  0  0  0  0  0  0  0  0
   37.5190   30.4320   42.4450 H   0  0  0  0  0  0  0  0  0  0  0  0
   39.8690   27.1300   43.5940 C   0  0  0  0  0  0  0  0  0  0  0  0
   38.8830   28.0460   43.2450 C   0  0  0  0  0  0  0  0  0  0  0  0
   37.8430   27.5800   42.4490 C   0  0  0  0  0  0  0  0  0  0  0  0
   37.8130   26.2440   42.0310 N   0  0  0  0  0  0  0  0  0  0  0  0
   38.8080   25.3960   42.4040 C   0  0  0  0  0  0  0  0  0  0  0  0
   39.8300   25.8380   43.1830 N   0  0  0  0  0  0  0  0  0  0  0  0
   40.6930   27.4620   44.2140 H   0  0  0  0  0  0  0  0  0  0  0  0
   38.8870   29.0810   43.5570 H   0  0  0  0  0  0  0  0  0  0  0  0
   38.7810   24.3650   42.0790 H   0  0  0  0  0  0  0  0  0  0  0  0
   36.5450   31.3100   39.7780 C   0  0  2  0  0  0  0  0  0  0  0  0
   36.8790   30.6960   38.5030 C   0  0  0  0  0  0  0  0  0  0  0  0
   37.9450   31.3090   39.3560 C   0  0  1  0  0  0  0  0  0  0  0  0
   36.0240   32.2860   39.7700 H   0  0  0  0  0  0  0  0  0  0  0  0
   36.9400   29.5710   38.4550 H   0  0  0  0  0  0  0  0  0  0  0  0
   36.6730   31.1330   37.5060 H   0  0  0  0  0  0  0  0  0  0  0  0
   38.6200   30.7740   40.0180 H   0  0  0  0  0  0  0  0  0  0  0  0
   38.4920   32.5370   38.9060 O   0  0  0  0  0  0  0  0  0  0  0  0
   40.4000   34.2230   39.4630 O   0  0  0  0  0  0  0  0  0  0  0  0
   39.6790   33.0120   39.9970 P   0  0  1  0  0  0  0  0  0  0  0  0
   38.9580   33.4590   41.4880 O   0  0  0  0  0  0  0  0  0  0  0  0
   38.9680   32.7010   42.1080 H   0  0  0  0  0  0  0  0  0  0  0  0
   40.8050   31.8390   40.3440 O   0  0  0  0  0  0  0  0  0  0  0  0
   41.5390   31.7850   41.5170 C   0  0  0  0  0  0  0  0  0  0  0  0
   41.5870   30.8740   42.5750 C   0  0  0  0  0  0  0  0  0  0  0  0
   40.9600   29.9980   42.5680 H   0  0  0  0  0  0  0  0  0  0  0  0
   42.5080   31.3190   43.4910 C   0  0  0  0  0  0  0  0  0  0  0  0
   42.7540   30.8080   44.4160 H   0  0  0  0  0  0  0  0  0  0  0  0
   43.0020   32.4710   42.9970 N   0  0  0  0  0  0  0  0  0  0  0  0
   43.7270   33.0160   43.5100 H   0  0  0  0  0  0  0  0  0  0  0  0
   42.4380   32.7600   41.8300 N   0  0  0  0  0  0  0  0  0  0  0  0
  1 16  1  0  0  0  0
  1  6  1  1  0  0  0
  2  7  1  0  0  0  0
  2  1  1  0  0  0  0
  3  2  1  0  0  0  0
  3  4  1  0  0  0  0
  3  9  1  0  0  0  0
  4  5  1  0  0  0  0
  4 11  1  1  0  0  0
  5  1  1  0  0  0  0
  5 13  1  0  0  0  0
  8  2  1  0  0  0  0
 10  3  1  0  0  0  0
 12  5  1  0  0  0  0
 14 20  1  0  0  0  0
 15 21  1  0  0  0  0
 15 14  1  0  0  0  0
 16 15  2  0  0  0  0
 17 18  2  0  0  0  0
 17 16  1  0  0  0  0
 18 19  1  0  0  0  0
 19 14  2  0  0  0  0
 22 18  1  0  0  0  0
 23 26  1  6  0  0  0
 23  4  1  0  0  0  0
 24 25  1  0  0  0  0
 24 23  1  0  0  0  0
 25 23  1  0  0  0  0
 25 29  1  1  0  0  0
 27 24  1  0  0  0  0
 28 24  1  0  0  0  0
 30 25  1  0  0  0  0
 30 32  1  0  0  0  0
 32 31  2  6  0  0  0
 32 35  1  0  0  0  0
 32 33  1  0  0  0  0
 33 34  1  0  0  0  0
 35 36  1  0  0  0  0
 36 43  2  0  0  0  0
 36 37  1  0  0  0  0
 37 39  2  0  0  0  0
 38 37  1  0  0  0  0
 39 40  1  0  0  0  0
 41 39  1  0  0  0  0
 41 42  1  0  0  0  0
 43 41  1  0  0  0  0
M  END
>  <minimizedAffinity>
-5.79484224

$$$$

 OpenBabel03252507563D

 43 46  0  0  1  0  0  0  0  0999 V2000
   38.3160   27.1540   42.2710 C   0  0  2  0  0  0  0  0  0  0  0  0
   37.0120   27.6080   42.9350 C   0  0  0  0  0  0  0  0  0  0  0  0
   37.4390   29.0600   43.2450 C   0  0  0  0  0  0  0  0  0  0  0  0
   38.2680   29.4720   42.0680 C   0  0  1  0  0  0  0  0  0  0  0  0
   38.4460   28.2390   41.2370 C   0  0  0  0  0  0  0  0  0  0  0  0
   39.0820   27.1410   43.0540 H   0  0  0  0  0  0  0  0  0  0  0  0
   36.8100   27.0570   43.8570 H   0  0  0  0  0  0  0  0  0  0  0  0
   36.1970   27.6330   42.2000 H   0  0  0  0  0  0  0  0  0  0  0  0
   38.0720   28.9890   44.1760 H   0  0  0  0  0  0  0  0  0  0  0  0
   36.5730   29.7130   43.4020 H   0  0  0  0  0  0  0  0  0  0  0  0
   39.2980   29.7940   42.3910 H   0  0  0  0  0  0  0  0  0  0  0  0
   37.6150   28.1450   40.5420 H   0  0  0  0  0  0  0  0  0  0  0  0
   39.4430   28.2040   40.7510 H   0  0  0  0  0  0  0  0  0  0  0  0
   36.9400   23.8310   41.1500 C   0  0  0  0  0  0  0  0  0  0  0  0
   36.9650   25.0870   41.7450 C   0  0  0  0  0  0  0  0  0  0  0  0
   38.1510   25.8060   41.6530 C   0  0  0  0  0  0  0  0  0  0  0  0
   39.2560   25.2670   40.9850 N   0  0  0  0  0  0  0  0  0  0  0  0
   39.1720   24.0310   40.4230 C   0  0  0  0  0  0  0  0  0  0  0  0
   38.0180   23.3180   40.5060 N   0  0  0  0  0  0  0  0  0  0  0  0
   36.0300   23.2460   41.2040 H   0  0  0  0  0  0  0  0  0  0  0  0
   36.1220   25.5220   42.2650 H   0  0  0  0  0  0  0  0  0  0  0  0
   40.0290   23.6180   39.9090 H   0  0  0  0  0  0  0  0  0  0  0  0
   37.6360   30.5230   41.1870 C   0  0  2  0  0  0  0  0  0  0  0  0
   36.2170   30.3600   40.9110 C   0  0  0  0  0  0  0  0  0  0  0  0
   37.2270   30.2300   39.8130 C   0  0  1  0  0  0  0  0  0  0  0  0
   38.0180   31.5410   41.3840 H   0  0  0  0  0  0  0  0  0  0  0  0
   35.7320   29.3810   41.1860 H   0  0  0  0  0  0  0  0  0  0  0  0
   35.4740   31.1810   40.8610 H   0  0  0  0  0  0  0  0  0  0  0  0
   37.6160   29.2990   39.4110 H   0  0  0  0  0  0  0  0  0  0  0  0
   37.2860   31.2900   38.8750 O   0  0  0  0  0  0  0  0  0  0  0  0
   39.2480   29.8980   37.8700 O   0  0  0  0  0  0  0  0  0  0  0  0
   38.8250   31.3070   38.2010 P   0  0  1  0  0  0  0  0  0  0  0  0
   38.8120   32.1970   36.7340 O   0  0  0  0  0  0  0  0  0  0  0  0
   39.0860   33.1220   36.8980 H   0  0  0  0  0  0  0  0  0  0  0  0
   39.9920   31.9950   39.1650 O   0  0  0  0  0  0  0  0  0  0  0  0
   39.8420   33.2000   39.8310 C   0  0  0  0  0  0  0  0  0  0  0  0
   38.7320   33.9890   40.1450 C   0  0  0  0  0  0  0  0  0  0  0  0
   37.7430   33.6790   39.8500 H   0  0  0  0  0  0  0  0  0  0  0  0
   39.1660   35.0980   40.8280 C   0  0  0  0  0  0  0  0  0  0  0  0
   38.5180   35.8860   41.1970 H   0  0  0  0  0  0  0  0  0  0  0  0
   40.5040   34.9810   40.9220 N   0  0  0  0  0  0  0  0  0  0  0  0
   41.0810   35.7040   41.4020 H   0  0  0  0  0  0  0  0  0  0  0  0
   40.9190   33.8640   40.3370 N   0  0  0  0  0  0  0  0  0  0  0  0
  1  2  1  0  0  0  0
  1  6  1  1  0  0  0
  2  3  1  0  0  0  0
  2  7  1  0  0  0  0
  3 10  1  0  0  0  0
  3  9  1  0  0  0  0
  4 11  1  1  0  0  0
  4  3  1  0  0  0  0
  5  4  1  0  0  0  0
  5  1  1  0  0  0  0
  8  2  1  0  0  0  0
 12  5  1  0  0  0  0
 13  5  1  0  0  0  0
 14 20  1  0  0  0  0
 14 15  1  0  0  0  0
 15 21  1  0  0  0  0
 16 15  2  0  0  0  0
 16  1  1  0  0  0  0
 17 16  1  0  0  0  0
 18 19  1  0  0  0  0
 18 17  2  0  0  0  0
 19 14  2  0  0  0  0
 22 18  1  0  0  0  0
 23 26  1  1  0  0  0
 23  4  1  0  0  0  0
 24 27  1  0  0  0  0
 24 23  1  0  0  0  0
 25 29  1  6  0  0  0
 25 24  1  0  0  0  0
 25 23  1  0  0  0  0
 28 24  1  0  0  0  0
 30 25  1  0  0  0  0
 32 31  2  6  0  0  0
 32 30  1  0  0  0  0
 32 35  1  0  0  0  0
 33 34  1  0  0  0  0
 33 32  1  0  0  0  0
 35 36  1  0  0  0  0
 36 37  1  0  0  0  0
 36 43  2  0  0  0  0
 37 39  2  0  0  0  0
 38 37  1  0  0  0  0
 39 41  1  0  0  0  0
 39 40  1  0  0  0  0
 41 42  1  0  0  0  0
 43 41  1  0  0  0  0
M  END
>  <minimizedAffinity>
-5.77609825

$$$$

 OpenBabel03252507563D

 43 46  0  0  1  0  0  0  0  0999 V2000
   40.1050   25.8060   41.8720 C   0  0  2  0  0  0  0  0  0  0  0  0
   39.5280   25.5250   43.2630 C   0  0  0  0  0  0  0  0  0  0  0  0
   39.9220   26.8680   43.9180 C   0  0  0  0  0  0  0  0  0  0  0  0
   39.7290   27.8890   42.8390 C   0  0  1  0  0  0  0  0  0  0  0  0
   39.4250   27.1180   41.5910 C   0  0  0  0  0  0  0  0  0  0  0  0
   41.1950   25.8430   41.9830 H   0  0  0  0  0  0  0  0  0  0  0  0
   40.0340   24.6900   43.7540 H   0  0  0  0  0  0  0  0  0  0  0  0
   38.4330   25.4670   43.2180 H   0  0  0  0  0  0  0  0  0  0  0  0
   41.0140   26.7610   44.1780 H   0  0  0  0  0  0  0  0  0  0  0  0
   39.3190   27.0760   44.8100 H   0  0  0  0  0  0  0  0  0  0  0  0
   40.6810   28.4560   42.6430 H   0  0  0  0  0  0  0  0  0  0  0  0
   38.3540   26.9360   41.5270 H   0  0  0  0  0  0  0  0  0  0  0  0
   39.8530   27.6010   40.6890 H   0  0  0  0  0  0  0  0  0  0  0  0
   39.7100   23.6700   38.7940 C   0  0  0  0  0  0  0  0  0  0  0  0
   40.1850   24.6930   39.6070 C   0  0  0  0  0  0  0  0  0  0  0  0
   39.6960   24.7430   40.9070 C   0  0  0  0  0  0  0  0  0  0  0  0
   38.7680   23.7950   41.3530 N   0  0  0  0  0  0  0  0  0  0  0  0
   38.3390   22.8180   40.5100 C   0  0  0  0  0  0  0  0  0  0  0  0
   38.8110   22.7570   39.2360 N   0  0  0  0  0  0  0  0  0  0  0  0
   40.0730   23.6030   37.7750 H   0  0  0  0  0  0  0  0  0  0  0  0
   40.9020   25.4340   39.2830 H   0  0  0  0  0  0  0  0  0  0  0  0
   37.6220   22.0880   40.8580 H   0  0  0  0  0  0  0  0  0  0  0  0
   38.5820   28.8440   43.0700 C   0  0  2  0  0  0  0  0  0  0  0  0
   37.3070   28.2410   43.4250 C   0  0  0  0  0  0  0  0  0  0  0  0
   37.4740   28.9580   42.1220 C   0  0  1  0  0  0  0  0  0  0  0  0
   38.8870   29.7700   43.5910 H   0  0  0  0  0  0  0  0  0  0  0  0
   37.1950   27.1250   43.3070 H   0  0  0  0  0  0  0  0  0  0  0  0
   36.5920   28.6430   44.1700 H   0  0  0  0  0  0  0  0  0  0  0  0
   37.6510   28.4950   41.1560 H   0  0  0  0  0  0  0  0  0  0  0  0
   36.8430   30.2220   42.0060 O   0  0  0  0  0  0  0  0  0  0  0  0
   36.1110   30.2530   39.5040 O   0  0  0  0  0  0  0  0  0  0  0  0
   37.1340   30.8120   40.4600 P   0  0  1  0  0  0  0  0  0  0  0  0
   36.9710   32.5200   40.4460 O   0  0  0  0  0  0  0  0  0  0  0  0
   37.8470   32.9430   40.5610 H   0  0  0  0  0  0  0  0  0  0  0  0
   38.6500   30.4730   39.8670 O   0  0  0  0  0  0  0  0  0  0  0  0
   39.2560   31.1670   38.8340 C   0  0  0  0  0  0  0  0  0  0  0  0
   40.5840   31.5060   38.5580 C   0  0  0  0  0  0  0  0  0  0  0  0
   41.3720   31.2100   39.2310 H   0  0  0  0  0  0  0  0  0  0  0  0
   40.6170   32.2110   37.3800 C   0  0  0  0  0  0  0  0  0  0  0  0
   41.5200   32.6020   36.9220 H   0  0  0  0  0  0  0  0  0  0  0  0
   39.3410   32.2950   36.9570 N   0  0  0  0  0  0  0  0  0  0  0  0
   39.0920   32.7880   36.0730 H   0  0  0  0  0  0  0  0  0  0  0  0
   38.5250   31.6820   37.8060 N   0  0  0  0  0  0  0  0  0  0  0  0
  1  6  1  1  0  0  0
  1  2  1  0  0  0  0
  2  7  1  0  0  0  0
  2  3  1  0  0  0  0
  3  9  1  0  0  0  0
  3 10  1  0  0  0  0
  4 11  1  6  0  0  0
  4 23  1  0  0  0  0
  4  3  1  0  0  0  0
  5  1  1  0  0  0  0
  5  4  1  0  0  0  0
  8  2  1  0  0  0  0
 12  5  1  0  0  0  0
 13  5  1  0  0  0  0
 14 19  2  0  0  0  0
 14 15  1  0  0  0  0
 15 16  2  0  0  0  0
 16 17  1  0  0  0  0
 16  1  1  0  0  0  0
 18 22  1  0  0  0  0
 18 17  2  0  0  0  0
 19 18  1  0  0  0  0
 20 14  1  0  0  0  0
 21 15  1  0  0  0  0
 23 24  1  0  0  0  0
 23 26  1  1  0  0  0
 24 28  1  0  0  0  0
 25 29  1  6  0  0  0
 25 23  1  0  0  0  0
 25 24  1  0  0  0  0
 27 24  1  0  0  0  0
 30 25  1  0  0  0  0
 32 31  2  6  0  0  0
 32 30  1  0  0  0  0
 33 32  1  0  0  0  0
 33 34  1  0  0  0  0
 35 32  1  0  0  0  0
 36 35  1  0  0  0  0
 37 36  1  0  0  0  0
 37 38  1  0  0  0  0
 39 37  2  0  0  0  0
 40 39  1  0  0  0  0
 41 39  1  0  0  0  0
 41 43  1  0  0  0  0
 42 41  1  0  0  0  0
 43 36  2  0  0  0  0
M  END
>  <minimizedAffinity>
-5.76145172

$$$$

 OpenBabel03252507563D

 43 46  0  0  1  0  0  0  0  0999 V2000
   37.9310   26.5310   42.2770 C   0  0  2  0  0  0  0  0  0  0  0  0
   36.6970   26.9660   43.0740 C   0  0  0  0  0  0  0  0  0  0  0  0
   37.2920   28.2590   43.6750 C   0  0  0  0  0  0  0  0  0  0  0  0
   38.1470   28.8280   42.5840 C   0  0  1  0  0  0  0  0  0  0  0  0
   38.1710   27.7960   41.4990 C   0  0  0  0  0  0  0  0  0  0  0  0
   38.7020   26.2620   43.0080 H   0  0  0  0  0  0  0  0  0  0  0  0
   36.4460   26.2510   43.8610 H   0  0  0  0  0  0  0  0  0  0  0  0
   35.8810   27.2420   42.3930 H   0  0  0  0  0  0  0  0  0  0  0  0
   37.9260   27.9170   44.5430 H   0  0  0  0  0  0  0  0  0  0  0  0
   36.5080   28.9520   44.0040 H   0  0  0  0  0  0  0  0  0  0  0  0
   39.2100   28.9570   42.9290 H   0  0  0  0  0  0  0  0  0  0  0  0
   37.3250   27.9480   40.8330 H   0  0  0  0  0  0  0  0  0  0  0  0
   39.1510   27.7620   40.9790 H   0  0  0  0  0  0  0  0  0  0  0  0
   36.4770   24.3400   39.5790 C   0  0  0  0  0  0  0  0  0  0  0  0
   36.7200   25.4910   40.3210 C   0  0  0  0  0  0  0  0  0  0  0  0
   37.6050   25.3780   41.3870 C   0  0  0  0  0  0  0  0  0  0  0  0
   38.2100   24.1510   41.6800 N   0  0  0  0  0  0  0  0  0  0  0  0
   37.9320   23.0590   40.9180 C   0  0  0  0  0  0  0  0  0  0  0  0
   37.0690   23.1560   39.8720 N   0  0  0  0  0  0  0  0  0  0  0  0
   35.7920   24.3950   38.7420 H   0  0  0  0  0  0  0  0  0  0  0  0
   36.2630   26.4480   40.1120 H   0  0  0  0  0  0  0  0  0  0  0  0
   38.4010   22.1130   41.1470 H   0  0  0  0  0  0  0  0  0  0  0  0
   37.6260   30.1100   41.9780 C   0  0  2  0  0  0  0  0  0  0  0  0
   36.9010   29.9780   40.7240 C   0  0  0  0  0  0  0  0  0  0  0  0
   38.2200   30.6850   40.7710 C   0  0  1  0  0  0  0  0  0  0  0  0
   37.2450   30.8230   42.7320 H   0  0  0  0  0  0  0  0  0  0  0  0
   36.9470   28.9890   40.1860 H   0  0  0  0  0  0  0  0  0  0  0  0
   35.9960   30.5510   40.4430 H   0  0  0  0  0  0  0  0  0  0  0  0
   39.1810   30.2640   40.4900 H   0  0  0  0  0  0  0  0  0  0  0  0
   38.1910   32.0960   40.6380 O   0  0  0  0  0  0  0  0  0  0  0  0
   39.7790   34.1620   40.6380 O   0  0  0  0  0  0  0  0  0  0  0  0
   39.7750   32.6550   40.6430 P   0  0  1  0  0  0  0  0  0  0  0  0
   40.5720   32.1440   42.0740 O   0  0  0  0  0  0  0  0  0  0  0  0
   41.0700   31.3180   41.9060 H   0  0  0  0  0  0  0  0  0  0  0  0
   40.6980   32.1220   39.3670 O   0  0  0  0  0  0  0  0  0  0  0  0
   41.5710   32.9210   38.6490 C   0  0  0  0  0  0  0  0  0  0  0  0
   42.7170   33.6410   38.9970 C   0  0  0  0  0  0  0  0  0  0  0  0
   43.0750   33.6350   40.0130 H   0  0  0  0  0  0  0  0  0  0  0  0
   43.1970   34.2650   37.8720 C   0  0  0  0  0  0  0  0  0  0  0  0
   44.0810   34.8950   37.8480 H   0  0  0  0  0  0  0  0  0  0  0  0
   42.3610   33.9310   36.8710 N   0  0  0  0  0  0  0  0  0  0  0  0
   42.5070   34.2810   35.9010 H   0  0  0  0  0  0  0  0  0  0  0  0
   41.3940   33.1360   37.3150 N   0  0  0  0  0  0  0  0  0  0  0  0
  1  6  1  1  0  0  0
  1  2  1  0  0  0  0
  2  3  1  0  0  0  0
  2  7  1  0  0  0  0
  3 10  1  0  0  0  0
  3  9  1  0  0  0  0
  4 11  1  1  0  0  0
  4  3  1  0  0  0  0
  5  1  1  0  0  0  0
  5  4  1  0  0  0  0
  8  2  1  0  0  0  0
 12  5  1  0  0  0  0
 13  5  1  0  0  0  0
 14 19  2  0  0  0  0
 14 15  1  0  0  0  0
 15 16  2  0  0  0  0
 16 17  1  0  0  0  0
 16  1  1  0  0  0  0
 18 22  1  0  0  0  0
 18 17  2  0  0  0  0
 19 18  1  0  0  0  0
 20 14  1  0  0  0  0
 21 15  1  0  0  0  0
 23  4  1  0  0  0  0
 23 26  1  1  0  0  0
 24 25  1  0  0  0  0
 24 23  1  0  0  0  0
 25 29  1  6  0  0  0
 25 23  1  0  0  0  0
 27 24  1  0  0  0  0
 28 24  1  0  0  0  0
 30 32  1  0  0  0  0
 30 25  1  0  0  0  0
 32 31  2  6  0  0  0
 32 33  1  0  0  0  0
 34 33  1  0  0  0  0
 35 32  1  0  0  0  0
 36 37  1  0  0  0  0
 36 35  1  0  0  0  0
 37 38  1  0  0  0  0
 39 37  2  0  0  0  0
 40 39  1  0  0  0  0
 41 43  1  0  0  0  0
 41 39  1  0  0  0  0
 42 41  1  0  0  0  0
 43 36  2  0  0  0  0
M  END
>  <minimizedAffinity>
-5.70651913

$$$$

 OpenBabel03252507563D

 43 46  0  0  1  0  0  0  0  0999 V2000
   37.1120   25.9010   38.7390 C   0  0  2  0  0  0  0  0  0  0  0  0
   38.2430   26.5440   37.9300 C   0  0  0  0  0  0  0  0  0  0  0  0
   37.3690   27.1470   36.8080 C   0  0  0  0  0  0  0  0  0  0  0  0
   36.1220   27.6040   37.5000 C   0  0  1  0  0  0  0  0  0  0  0  0
   36.2250   27.1040   38.9080 C   0  0  0  0  0  0  0  0  0  0  0  0
   36.7080   25.0870   38.1260 H   0  0  0  0  0  0  0  0  0  0  0  0
   38.9330   25.7990   37.5280 H   0  0  0  0  0  0  0  0  0  0  0  0
   38.6980   27.3670   38.4980 H   0  0  0  0  0  0  0  0  0  0  0  0
   37.1490   26.2880   36.1110 H   0  0  0  0  0  0  0  0  0  0  0  0
   37.8850   27.9610   36.2850 H   0  0  0  0  0  0  0  0  0  0  0  0
   35.2100   27.1200   37.0520 H   0  0  0  0  0  0  0  0  0  0  0  0
   36.7570   27.8320   39.5160 H   0  0  0  0  0  0  0  0  0  0  0  0
   35.2370   26.8120   39.3200 H   0  0  0  0  0  0  0  0  0  0  0  0
   37.3920   24.3110   42.1430 C   0  0  0  0  0  0  0  0  0  0  0  0
   36.8080   24.7170   40.9480 C   0  0  0  0  0  0  0  0  0  0  0  0
   37.6220   25.3910   40.0450 C   0  0  0  0  0  0  0  0  0  0  0  0
   38.9660   25.6390   40.3500 N   0  0  0  0  0  0  0  0  0  0  0  0
   39.4790   25.2190   41.5370 C   0  0  0  0  0  0  0  0  0  0  0  0
   38.6940   24.5570   42.4280 N   0  0  0  0  0  0  0  0  0  0  0  0
   36.7840   23.7830   42.8670 H   0  0  0  0  0  0  0  0  0  0  0  0
   35.7730   24.5350   40.6930 H   0  0  0  0  0  0  0  0  0  0  0  0
   40.5180   25.4120   41.7690 H   0  0  0  0  0  0  0  0  0  0  0  0
   35.9480   29.1030   37.5650 C   0  0  2  0  0  0  0  0  0  0  0  0
   36.7520   29.8830   36.6370 C   0  0  0  0  0  0  0  0  0  0  0  0
   36.9880   29.9740   38.1120 C   0  0  1  0  0  0  0  0  0  0  0  0
   34.9010   29.4110   37.7390 H   0  0  0  0  0  0  0  0  0  0  0  0
   37.5840   29.3590   36.0860 H   0  0  0  0  0  0  0  0  0  0  0  0
   36.4100   30.7850   36.0920 H   0  0  0  0  0  0  0  0  0  0  0  0
   37.7680   29.4600   38.6680 H   0  0  0  0  0  0  0  0  0  0  0  0
   36.5700   31.1680   38.7510 O   0  0  0  0  0  0  0  0  0  0  0  0
   37.7870   32.2860   40.7660 O   0  0  0  0  0  0  0  0  0  0  0  0
   36.9890   31.0680   40.3750 P   0  0  1  0  0  0  0  0  0  0  0  0
   35.5740   31.0470   41.3440 O   0  0  0  0  0  0  0  0  0  0  0  0
   35.3230   30.1250   41.5540 H   0  0  0  0  0  0  0  0  0  0  0  0
   37.8640   29.7130   40.7780 O   0  0  0  0  0  0  0  0  0  0  0  0
   37.6120   28.9240   41.8880 C   0  0  0  0  0  0  0  0  0  0  0  0
   38.3980   28.5100   42.9670 C   0  0  0  0  0  0  0  0  0  0  0  0
   39.4280   28.8160   43.0390 H   0  0  0  0  0  0  0  0  0  0  0  0
   37.6270   27.7270   43.7900 C   0  0  0  0  0  0  0  0  0  0  0  0
   37.9790   27.2660   44.7080 H   0  0  0  0  0  0  0  0  0  0  0  0
   36.4080   27.6700   43.2210 N   0  0  0  0  0  0  0  0  0  0  0  0
   35.6300   27.1290   43.6560 H   0  0  0  0  0  0  0  0  0  0  0  0
   36.3830   28.3730   42.0960 N   0  0  0  0  0  0  0  0  0  0  0  0
  1  6  1  6  0  0  0
  1  5  1  0  0  0  0
  1 16  1  0  0  0  0
  2  8  1  0  0  0  0
  2  1  1  0  0  0  0
  3  4  1  0  0  0  0
  3  2  1  0  0  0  0
  4 11  1  6  0  0  0
  4 23  1  0  0  0  0
  4  5  1  0  0  0  0
  5 13  1  0  0  0  0
  5 12  1  0  0  0  0
  7  2  1  0  0  0  0
  9  3  1  0  0  0  0
 10  3  1  0  0  0  0
 14 19  1  0  0  0  0
 14 20  1  0  0  0  0
 15 14  2  0  0  0  0
 16 17  2  0  0  0  0
 16 15  1  0  0  0  0
 17 18  1  0  0  0  0
 18 22  1  0  0  0  0
 18 19  2  0  0  0  0
 21 15  1  0  0  0  0
 23 26  1  1  0  0  0
 23 25  1  0  0  0  0
 24 23  1  0  0  0  0
 24 25  1  0  0  0  0
 25 29  1  1  0  0  0
 25 30  1  0  0  0  0
 27 24  1  0  0  0  0
 28 24  1  0  0  0  0
 30 32  1  0  0  0  0
 32 31  2  1  0  0  0
 32 35  1  0  0  0  0
 32 33  1  0  0  0  0
 33 34  1  0  0  0  0
 35 36  1  0  0  0  0
 36 43  2  0  0  0  0
 36 37  1  0  0  0  0
 37 38  1  0  0  0  0
 37 39  2  0  0  0  0
 39 40  1  0  0  0  0
 41 42  1  0  0  0  0
 41 39  1  0  0  0  0
 43 41  1  0  0  0  0
M  END
>  <minimizedAffinity>
-5.54615593

$$$$

 OpenBabel03252507563D

 43 46  0  0  1  0  0  0  0  0999 V2000
   37.3530   24.5920   40.2830 C   0  0  2  0  0  0  0  0  0  0  0  0
   36.9270   24.3880   41.7400 C   0  0  0  0  0  0  0  0  0  0  0  0
   38.2530   24.8280   42.4010 C   0  0  0  0  0  0  0  0  0  0  0  0
   38.7430   25.9600   41.5520 C   0  0  1  0  0  0  0  0  0  0  0  0
   37.8260   26.0170   40.3690 C   0  0  0  0  0  0  0  0  0  0  0  0
   38.1230   23.8410   40.0710 H   0  0  0  0  0  0  0  0  0  0  0  0
   36.7120   23.3390   41.9600 H   0  0  0  0  0  0  0  0  0  0  0  0
   36.1450   25.1090   42.0140 H   0  0  0  0  0  0  0  0  0  0  0  0
   38.9370   23.9360   42.3120 H   0  0  0  0  0  0  0  0  0  0  0  0
   38.1080   25.1160   43.4490 H   0  0  0  0  0  0  0  0  0  0  0  0
   39.7730   25.7490   41.1500 H   0  0  0  0  0  0  0  0  0  0  0  0
   36.9680   26.6430   40.6030 H   0  0  0  0  0  0  0  0  0  0  0  0
   38.3590   26.3140   39.4430 H   0  0  0  0  0  0  0  0  0  0  0  0
   34.3060   23.2960   38.4860 C   0  0  0  0  0  0  0  0  0  0  0  0
   35.3470   23.3340   39.4080 C   0  0  0  0  0  0  0  0  0  0  0  0
   36.1850   24.4420   39.3660 C   0  0  0  0  0  0  0  0  0  0  0  0
   35.9710   25.4590   38.4280 N   0  0  0  0  0  0  0  0  0  0  0  0
   34.9370   25.3640   37.5510 C   0  0  0  0  0  0  0  0  0  0  0  0
   34.1080   24.2860   37.5820 N   0  0  0  0  0  0  0  0  0  0  0  0
   33.6350   22.4460   38.4930 H   0  0  0  0  0  0  0  0  0  0  0  0
   35.5290   22.5600   40.1400 H   0  0  0  0  0  0  0  0  0  0  0  0
   34.7740   26.1520   36.8280 H   0  0  0  0  0  0  0  0  0  0  0  0
   38.7020   27.3140   42.2200 C   0  0  2  0  0  0  0  0  0  0  0  0
   38.3560   27.3220   43.6320 C   0  0  0  0  0  0  0  0  0  0  0  0
   37.4400   27.9370   42.6200 C   0  0  1  0  0  0  0  0  0  0  0  0
   39.5030   27.9930   41.8730 H   0  0  0  0  0  0  0  0  0  0  0  0
   37.9450   26.3740   44.0840 H   0  0  0  0  0  0  0  0  0  0  0  0
   38.8150   27.9720   44.4030 H   0  0  0  0  0  0  0  0  0  0  0  0
   36.5510   27.4750   42.1980 H   0  0  0  0  0  0  0  0  0  0  0  0
   37.3750   29.3520   42.5970 O   0  0  0  0  0  0  0  0  0  0  0  0
   35.8590   28.6910   40.5820 O   0  0  0  0  0  0  0  0  0  0  0  0
   36.6880   29.8210   41.1370 P   0  0  1  0  0  0  0  0  0  0  0  0
   35.6370   31.1550   41.3870 O   0  0  0  0  0  0  0  0  0  0  0  0
   36.1100   31.9940   41.2100 H   0  0  0  0  0  0  0  0  0  0  0  0
   37.7850   30.2890   39.9780 O   0  0  0  0  0  0  0  0  0  0  0  0
   38.6500   31.3620   40.1120 C   0  0  0  0  0  0  0  0  0  0  0  0
   39.7160   31.8340   39.3420 C   0  0  0  0  0  0  0  0  0  0  0  0
   40.0010   31.3240   38.4370 H   0  0  0  0  0  0  0  0  0  0  0  0
   40.2290   32.9530   39.9490 C   0  0  0  0  0  0  0  0  0  0  0  0
   41.0670   33.5300   39.5700 H   0  0  0  0  0  0  0  0  0  0  0  0
   39.4910   33.1500   41.0580 N   0  0  0  0  0  0  0  0  0  0  0  0
   39.6810   33.9470   41.7030 H   0  0  0  0  0  0  0  0  0  0  0  0
   38.5530   32.2170   41.1680 N   0  0  0  0  0  0  0  0  0  0  0  0
  1  6  1  6  0  0  0
  1  5  1  0  0  0  0
  1  2  1  0  0  0  0
  2  7  1  0  0  0  0
  2  8  1  0  0  0  0
  2  3  1  0  0  0  0
  3 10  1  0  0  0  0
  4 11  1  6  0  0  0
  4 23  1  0  0  0  0
  4  3  1  0  0  0  0
  5 12  1  0  0  0  0
  5  4  1  0  0  0  0
  9  3  1  0  0  0  0
 13  5  1  0  0  0  0
 14 20  1  0  0  0  0
 14 15  1  0  0  0  0
 15 21  1  0  0  0  0
 16 15  2  0  0  0  0
 16  1  1  0  0  0  0
 17 16  1  0  0  0  0
 18 19  1  0  0  0  0
 18 17  2  0  0  0  0
 19 14  2  0  0  0  0
 22 18  1  0  0  0  0
 23 26  1  6  0  0  0
 23 25  1  0  0  0  0
 23 24  1  0  0  0  0
 24 27  1  0  0  0  0
 24 28  1  0  0  0  0
 25 29  1  6  0  0  0
 25 24  1  0  0  0  0
 30 25  1  0  0  0  0
 32 31  2  6  0  0  0
 32 33  1  0  0  0  0
 32 30  1  0  0  0  0
 34 33  1  0  0  0  0
 35 36  1  0  0  0  0
 35 32  1  0  0  0  0
 36 43  2  0  0  0  0
 37 39  2  0  0  0  0
 37 36  1  0  0  0  0
 38 37  1  0  0  0  0
 39 41  1  0  0  0  0
 40 39  1  0  0  0  0
 41 43  1  0  0  0  0
 41 42  1  0  0  0  0
M  END
>  <minimizedAffinity>
-5.51057386

$$$$
