
 OpenBabel03252507523D

 30 32  0  0  1  0  0  0  0  0999 V2000
   36.6850   29.0510   41.6880 C   0  0  2  0  0  0  0  0  0  0  0  0
   37.6790   29.1860   42.7980 C   0  0  0  0  0  0  0  0  0  0  0  0
   37.3430   27.9270   43.6030 C   0  0  0  0  0  0  0  0  0  0  0  0
   36.8620   26.9190   42.5940 C   0  0  1  0  0  0  0  0  0  0  0  0
   36.9760   27.6120   41.2350 C   0  0  0  0  0  0  0  0  0  0  0  0
   35.6600   29.0620   42.1060 H   0  0  0  0  0  0  0  0  0  0  0  0
   37.4610   30.0870   43.3860 H   0  0  0  0  0  0  0  0  0  0  0  0
   38.7160   29.1670   42.4530 H   0  0  0  0  0  0  0  0  0  0  0  0
   36.5840   28.1720   44.3620 H   0  0  0  0  0  0  0  0  0  0  0  0
   38.3030   27.5980   44.0650 H   0  0  0  0  0  0  0  0  0  0  0  0
   35.8200   26.6590   42.8140 H   0  0  0  0  0  0  0  0  0  0  0  0
   36.1390   27.3060   40.5990 H   0  0  0  0  0  0  0  0  0  0  0  0
   37.9750   27.5320   40.8020 H   0  0  0  0  0  0  0  0  0  0  0  0
   36.8150   30.7380   38.3160 C   0  0  0  0  0  0  0  0  0  0  0  0
   36.6720   29.6990   39.2530 C   0  0  0  0  0  0  0  0  0  0  0  0
   36.8190   30.0130   40.5960 C   0  0  0  0  0  0  0  0  0  0  0  0
   37.0950   31.3110   40.9210 N   0  0  0  0  0  0  0  0  0  0  0  0
   37.2280   32.2870   40.0040 C   0  0  0  0  0  0  0  0  0  0  0  0
   37.0890   32.0090   38.7040 N   0  0  0  0  0  0  0  0  0  0  0  0
   36.6800   30.3880   37.2930 H   0  0  0  0  0  0  0  0  0  0  0  0
   36.4530   28.6770   38.9750 H   0  0  0  0  0  0  0  0  0  0  0  0
   37.4440   33.3030   40.2700 H   0  0  0  0  0  0  0  0  0  0  0  0
   37.7490   25.7250   42.5350 C   0  0  0  0  0  0  0  0  0  0  0  0
   39.1090   25.7020   42.8480 C   0  0  0  0  0  0  0  0  0  0  0  0
   39.7060   26.5440   43.1750 H   0  0  0  0  0  0  0  0  0  0  0  0
   39.4680   24.3800   42.6380 C   0  0  0  0  0  0  0  0  0  0  0  0
   40.4380   23.9670   42.7720 H   0  0  0  0  0  0  0  0  0  0  0  0
   38.3560   23.7070   42.2270 N   0  0  0  0  0  0  0  0  0  0  0  0
   38.3360   22.6800   41.9940 H   0  0  0  0  0  0  0  0  0  0  0  0
   37.3080   24.5100   42.1620 N   0  0  0  0  0  0  0  0  0  0  0  0
  1  6  1  1  0  0  0
  1  2  1  0  0  0  0
  2  7  1  0  0  0  0
  2  3  1  0  0  0  0
  3 10  1  0  0  0  0
  3  9  1  0  0  0  0
  4 11  1  1  0  0  0
  4  3  1  0  0  0  0
  5  1  1  0  0  0  0
  5  4  1  0  0  0  0
  8  2  1  0  0  0  0
 12  5  1  0  0  0  0
 13  5  1  0  0  0  0
 14 19  2  0  0  0  0
 14 15  1  0  0  0  0
 15 16  2  0  0  0  0
 16 17  1  0  0  0  0
 16  1  1  0  0  0  0
 18 22  1  0  0  0  0
 18 17  2  0  0  0  0
 19 18  1  0  0  0  0
 20 14  1  0  0  0  0
 21 15  1  0  0  0  0
 23  4  1  0  0  0  0
 23 24  1  0  0  0  0
 24 25  1  0  0  0  0
 26 27  1  0  0  0  0
 26 24  2  0  0  0  0
 28 26  1  0  0  0  0
 29 28  1  0  0  0  0
 30 28  1  0  0  0  0
 30 23  2  0  0  0  0
M  END
>  <minimizedAffinity>
-5.18463421

$$$$

 OpenBabel03252507523D

 30 32  0  0  1  0  0  0  0  0999 V2000
   36.9960   29.0670   42.0470 C   0  0  2  0  0  0  0  0  0  0  0  0
   37.3760   28.8540   43.4790 C   0  0  0  0  0  0  0  0  0  0  0  0
   36.8490   27.4290   43.6800 C   0  0  0  0  0  0  0  0  0  0  0  0
   36.9710   26.7610   42.3360 C   0  0  1  0  0  0  0  0  0  0  0  0
   37.6030   27.8060   41.4140 C   0  0  0  0  0  0  0  0  0  0  0  0
   35.8960   28.9890   41.9410 H   0  0  0  0  0  0  0  0  0  0  0  0
   36.8280   29.5590   44.1180 H   0  0  0  0  0  0  0  0  0  0  0  0
   38.4540   28.9020   43.6510 H   0  0  0  0  0  0  0  0  0  0  0  0
   35.8110   27.4730   44.0460 H   0  0  0  0  0  0  0  0  0  0  0  0
   37.5330   26.9560   44.4220 H   0  0  0  0  0  0  0  0  0  0  0  0
   35.9720   26.4810   41.9820 H   0  0  0  0  0  0  0  0  0  0  0  0
   37.1710   27.7160   40.4120 H   0  0  0  0  0  0  0  0  0  0  0  0
   38.6930   27.8210   41.4780 H   0  0  0  0  0  0  0  0  0  0  0  0
   37.3530   32.3150   40.1630 C   0  0  0  0  0  0  0  0  0  0  0  0
   36.7290   31.1650   40.6780 C   0  0  0  0  0  0  0  0  0  0  0  0
   37.4990   30.2930   41.4330 C   0  0  0  0  0  0  0  0  0  0  0  0
   38.8160   30.6060   41.6240 N   0  0  0  0  0  0  0  0  0  0  0  0
   39.3890   31.7150   41.1180 C   0  0  0  0  0  0  0  0  0  0  0  0
   38.6660   32.5700   40.3900 N   0  0  0  0  0  0  0  0  0  0  0  0
   36.6620   32.9320   39.5880 H   0  0  0  0  0  0  0  0  0  0  0  0
   35.6850   30.9340   40.5150 H   0  0  0  0  0  0  0  0  0  0  0  0
   40.4230   31.9510   41.2750 H   0  0  0  0  0  0  0  0  0  0  0  0
   37.9100   25.6070   42.3740 C   0  0  0  0  0  0  0  0  0  0  0  0
   39.2280   25.6420   42.8290 C   0  0  0  0  0  0  0  0  0  0  0  0
   39.7510   26.5070   43.2170 H   0  0  0  0  0  0  0  0  0  0  0  0
   39.6650   24.3370   42.6590 C   0  0  0  0  0  0  0  0  0  0  0  0
   40.6320   23.9650   42.8960 H   0  0  0  0  0  0  0  0  0  0  0  0
   38.6320   23.6180   42.1340 N   0  0  0  0  0  0  0  0  0  0  0  0
   38.6820   22.5920   41.9020 H   0  0  0  0  0  0  0  0  0  0  0  0
   37.5630   24.3750   41.9570 N   0  0  0  0  0  0  0  0  0  0  0  0
  1  6  1  6  0  0  0
  1  2  1  0  0  0  0
  2  8  1  0  0  0  0
  2  3  1  0  0  0  0
  2  7  1  0  0  0  0
  3  9  1  0  0  0  0
  3 10  1  0  0  0  0
  4 11  1  6  0  0  0
  4 23  1  0  0  0  0
  4  3  1  0  0  0  0
  5 13  1  0  0  0  0
  5  1  1  0  0  0  0
  5  4  1  0  0  0  0
 12  5  1  0  0  0  0
 14 19  2  0  0  0  0
 14 15  1  0  0  0  0
 15 16  2  0  0  0  0
 16 17  1  0  0  0  0
 16  1  1  0  0  0  0
 18 22  1  0  0  0  0
 18 17  2  0  0  0  0
 19 18  1  0  0  0  0
 20 14  1  0  0  0  0
 21 15  1  0  0  0  0
 23 24  1  0  0  0  0
 24 25  1  0  0  0  0
 26 24  2  0  0  0  0
 26 27  1  0  0  0  0
 28 26  1  0  0  0  0
 29 28  1  0  0  0  0
 30 28  1  0  0  0  0
 30 23  2  0  0  0  0
M  END
>  <minimizedAffinity>
-5.15357876

$$$$

 OpenBabel03252507523D

 30 32  0  0  1  0  0  0  0  0999 V2000
   36.7970   28.3900   41.9330 C   0  0  2  0  0  0  0  0  0  0  0  0
   36.1810   28.2710   40.5750 C   0  0  0  0  0  0  0  0  0  0  0  0
   35.5720   29.6700   40.4400 C   0  0  0  0  0  0  0  0  0  0  0  0
   36.4760   30.5810   41.2270 C   0  0  1  0  0  0  0  0  0  0  0  0
   37.6010   29.6880   41.7550 C   0  0  0  0  0  0  0  0  0  0  0  0
   36.0060   28.5960   42.6810 H   0  0  0  0  0  0  0  0  0  0  0  0
   35.3920   27.5080   40.5900 H   0  0  0  0  0  0  0  0  0  0  0  0
   36.9130   28.0840   39.7850 H   0  0  0  0  0  0  0  0  0  0  0  0
   34.5390   29.6560   40.8210 H   0  0  0  0  0  0  0  0  0  0  0  0
   35.6120   29.9140   39.3530 H   0  0  0  0  0  0  0  0  0  0  0  0
   35.9080   31.0240   42.0550 H   0  0  0  0  0  0  0  0  0  0  0  0
   37.8900   30.0200   42.7570 H   0  0  0  0  0  0  0  0  0  0  0  0
   38.4070   29.5530   41.0320 H   0  0  0  0  0  0  0  0  0  0  0  0
   38.3850   24.9980   42.3840 C   0  0  0  0  0  0  0  0  0  0  0  0
   37.4860   25.9670   41.9030 C   0  0  0  0  0  0  0  0  0  0  0  0
   37.6380   27.2710   42.3500 C   0  0  0  0  0  0  0  0  0  0  0  0
   38.6520   27.5300   43.2300 N   0  0  0  0  0  0  0  0  0  0  0  0
   39.4990   26.5830   43.6750 C   0  0  0  0  0  0  0  0  0  0  0  0
   39.3720   25.3200   43.2570 N   0  0  0  0  0  0  0  0  0  0  0  0
   38.1800   24.0100   41.9720 H   0  0  0  0  0  0  0  0  0  0  0  0
   36.6900   25.7420   41.2070 H   0  0  0  0  0  0  0  0  0  0  0  0
   40.2910   26.7970   44.3650 H   0  0  0  0  0  0  0  0  0  0  0  0
   37.1210   31.6070   40.3620 C   0  0  0  0  0  0  0  0  0  0  0  0
   38.1700   32.4460   40.7360 C   0  0  0  0  0  0  0  0  0  0  0  0
   38.6610   32.4700   41.7010 H   0  0  0  0  0  0  0  0  0  0  0  0
   38.4030   33.2010   39.5970 C   0  0  0  0  0  0  0  0  0  0  0  0
   39.1380   33.9610   39.4900 H   0  0  0  0  0  0  0  0  0  0  0  0
   37.5210   32.7950   38.6410 N   0  0  0  0  0  0  0  0  0  0  0  0
   37.4700   33.1990   37.6700 H   0  0  0  0  0  0  0  0  0  0  0  0
   36.7380   31.8290   39.0910 N   0  0  0  0  0  0  0  0  0  0  0  0
  1 16  1  0  0  0  0
  1  6  1  1  0  0  0
  2  7  1  0  0  0  0
  2  1  1  0  0  0  0
  3  2  1  0  0  0  0
  3  9  1  0  0  0  0
  3  4  1  0  0  0  0
  4  5  1  0  0  0  0
  4 11  1  1  0  0  0
  5  1  1  0  0  0  0
  5 12  1  0  0  0  0
  8  2  1  0  0  0  0
 10  3  1  0  0  0  0
 13  5  1  0  0  0  0
 14 19  1  0  0  0  0
 15 16  1  0  0  0  0
 15 14  2  0  0  0  0
 16 17  2  0  0  0  0
 17 18  1  0  0  0  0
 18 22  1  0  0  0  0
 19 18  2  0  0  0  0
 20 14  1  0  0  0  0
 21 15  1  0  0  0  0
 23 24  1  0  0  0  0
 23  4  1  0  0  0  0
 24 25  1  0  0  0  0
 26 24  2  0  0  0  0
 27 26  1  0  0  0  0
 28 30  1  0  0  0  0
 28 26  1  0  0  0  0
 29 28  1  0  0  0  0
 30 23  2  0  0  0  0
M  END
>  <minimizedAffinity>
-4.92100286

$$$$

 OpenBabel03252507523D

 30 32  0  0  1  0  0  0  0  0999 V2000
   38.3100   26.6990   42.2690 C   0  0  2  0  0  0  0  0  0  0  0  0
   37.0310   27.0160   42.9790 C   0  0  0  0  0  0  0  0  0  0  0  0
   37.3220   28.4580   43.4090 C   0  0  0  0  0  0  0  0  0  0  0  0
   38.2290   29.0200   42.3470 C   0  0  1  0  0  0  0  0  0  0  0  0
   38.3990   27.9010   41.3170 C   0  0  0  0  0  0  0  0  0  0  0  0
   39.1560   26.7800   42.9780 H   0  0  0  0  0  0  0  0  0  0  0  0
   36.9230   26.3680   43.8580 H   0  0  0  0  0  0  0  0  0  0  0  0
   36.1540   26.9700   42.3280 H   0  0  0  0  0  0  0  0  0  0  0  0
   37.7820   28.4530   44.4090 H   0  0  0  0  0  0  0  0  0  0  0  0
   36.3370   28.9790   43.4050 H   0  0  0  0  0  0  0  0  0  0  0  0
   39.1930   29.2830   42.8000 H   0  0  0  0  0  0  0  0  0  0  0  0
   39.4210   27.9190   40.9250 H   0  0  0  0  0  0  0  0  0  0  0  0
   37.5930   27.8800   40.5810 H   0  0  0  0  0  0  0  0  0  0  0  0
   37.5740   23.2360   40.9650 C   0  0  0  0  0  0  0  0  0  0  0  0
   37.4220   24.4010   41.7380 C   0  0  0  0  0  0  0  0  0  0  0  0
   38.3400   25.4250   41.5550 C   0  0  0  0  0  0  0  0  0  0  0  0
   39.3340   25.2340   40.6360 N   0  0  0  0  0  0  0  0  0  0  0  0
   39.4570   24.1070   39.9090 C   0  0  0  0  0  0  0  0  0  0  0  0
   38.5830   23.1080   40.0680 N   0  0  0  0  0  0  0  0  0  0  0  0
   36.8030   22.4970   41.1840 H   0  0  0  0  0  0  0  0  0  0  0  0
   36.6290   24.5330   42.4610 H   0  0  0  0  0  0  0  0  0  0  0  0
   40.2400   23.9680   39.1900 H   0  0  0  0  0  0  0  0  0  0  0  0
   37.6020   30.1640   41.6300 C   0  0  0  0  0  0  0  0  0  0  0  0
   38.2850   31.2000   40.9930 C   0  0  0  0  0  0  0  0  0  0  0  0
   39.3600   31.3170   40.9290 H   0  0  0  0  0  0  0  0  0  0  0  0
   37.2690   31.9960   40.4880 C   0  0  0  0  0  0  0  0  0  0  0  0
   37.3950   32.8930   39.9320 H   0  0  0  0  0  0  0  0  0  0  0  0
   36.0810   31.4240   40.8340 N   0  0  0  0  0  0  0  0  0  0  0  0
   35.1370   31.8170   40.5810 H   0  0  0  0  0  0  0  0  0  0  0  0
   36.2690   30.3130   41.5250 N   0  0  0  0  0  0  0  0  0  0  0  0
  1  6  1  1  0  0  0
  1  2  1  0  0  0  0
  2  3  1  0  0  0  0
  2  7  1  0  0  0  0
  3  9  1  0  0  0  0
  4 11  1  1  0  0  0
  4  3  1  0  0  0  0
  5  1  1  0  0  0  0
  5  4  1  0  0  0  0
  8  2  1  0  0  0  0
 10  3  1  0  0  0  0
 12  5  1  0  0  0  0
 13  5  1  0  0  0  0
 14 20  1  0  0  0  0
 14 15  1  0  0  0  0
 15 21  1  0  0  0  0
 16 15  2  0  0  0  0
 16  1  1  0  0  0  0
 17 16  1  0  0  0  0
 18 19  1  0  0  0  0
 18 17  2  0  0  0  0
 19 14  2  0  0  0  0
 22 18  1  0  0  0  0
 23  4  1  0  0  0  0
 24 23  1  0  0  0  0
 25 24  1  0  0  0  0
 26 28  1  0  0  0  0
 26 24  2  0  0  0  0
 27 26  1  0  0  0  0
 28 30  1  0  0  0  0
 29 28  1  0  0  0  0
 30 23  2  0  0  0  0
M  END
>  <minimizedAffinity>
-4.91047668

$$$$

 OpenBabel03252507523D

 30 32  0  0  1  0  0  0  0  0999 V2000
   38.3640   31.1430   38.9400 C   0  0  2  0  0  0  0  0  0  0  0  0
   37.0940   31.7330   39.4660 C   0  0  0  0  0  0  0  0  0  0  0  0
   36.3020   30.4490   39.7350 C   0  0  0  0  0  0  0  0  0  0  0  0
   37.3300   29.4080   40.0880 C   0  0  1  0  0  0  0  0  0  0  0  0
   38.6770   30.1320   40.0530 C   0  0  0  0  0  0  0  0  0  0  0  0
   38.1500   30.5620   38.0210 H   0  0  0  0  0  0  0  0  0  0  0  0
   36.6070   32.3270   38.6820 H   0  0  0  0  0  0  0  0  0  0  0  0
   37.2340   32.3080   40.3850 H   0  0  0  0  0  0  0  0  0  0  0  0
   35.7150   30.1890   38.8400 H   0  0  0  0  0  0  0  0  0  0  0  0
   35.6490   30.6750   40.6100 H   0  0  0  0  0  0  0  0  0  0  0  0
   37.2990   28.6050   39.3410 H   0  0  0  0  0  0  0  0  0  0  0  0
   39.4440   29.4560   39.6600 H   0  0  0  0  0  0  0  0  0  0  0  0
   38.9070   30.6400   40.9910 H   0  0  0  0  0  0  0  0  0  0  0  0
   40.8360   33.9800   39.2150 C   0  0  0  0  0  0  0  0  0  0  0  0
   39.7350   33.1690   39.5440 C   0  0  0  0  0  0  0  0  0  0  0  0
   39.4600   32.0850   38.7240 C   0  0  0  0  0  0  0  0  0  0  0  0
   40.2760   31.8750   37.6480 N   0  0  0  0  0  0  0  0  0  0  0  0
   41.3250   32.6680   37.3550 C   0  0  0  0  0  0  0  0  0  0  0  0
   41.6090   33.7170   38.1310 N   0  0  0  0  0  0  0  0  0  0  0  0
   40.9650   34.8000   39.9200 H   0  0  0  0  0  0  0  0  0  0  0  0
   39.1000   33.3510   40.4000 H   0  0  0  0  0  0  0  0  0  0  0  0
   41.9590   32.4940   36.5080 H   0  0  0  0  0  0  0  0  0  0  0  0
   37.1550   28.9040   41.4770 C   0  0  0  0  0  0  0  0  0  0  0  0
   36.6930   27.6370   41.8330 C   0  0  0  0  0  0  0  0  0  0  0  0
   36.3980   26.8460   41.1550 H   0  0  0  0  0  0  0  0  0  0  0  0
   36.7130   27.6620   43.2190 C   0  0  0  0  0  0  0  0  0  0  0  0
   36.4260   26.8670   43.8630 H   0  0  0  0  0  0  0  0  0  0  0  0
   37.1650   28.8880   43.6070 N   0  0  0  0  0  0  0  0  0  0  0  0
   37.2830   29.1870   44.6090 H   0  0  0  0  0  0  0  0  0  0  0  0
   37.4380   29.6500   42.5610 N   0  0  0  0  0  0  0  0  0  0  0  0
  1  6  1  6  0  0  0
  1  2  1  0  0  0  0
  1  5  1  0  0  0  0
  2  3  1  0  0  0  0
  2  8  1  0  0  0  0
  3  4  1  0  0  0  0
  3 10  1  0  0  0  0
  4 11  1  6  0  0  0
  4 23  1  0  0  0  0
  5  4  1  0  0  0  0
  5 13  1  0  0  0  0
  7  2  1  0  0  0  0
  9  3  1  0  0  0  0
 12  5  1  0  0  0  0
 14 15  1  0  0  0  0
 14 20  1  0  0  0  0
 15 21  1  0  0  0  0
 16  1  1  0  0  0  0
 16 15  2  0  0  0  0
 17 16  1  0  0  0  0
 18 17  2  0  0  0  0
 18 19  1  0  0  0  0
 19 14  2  0  0  0  0
 22 18  1  0  0  0  0
 23 24  1  0  0  0  0
 23 30  2  0  0  0  0
 24 26  2  0  0  0  0
 25 24  1  0  0  0  0
 26 28  1  0  0  0  0
 26 27  1  0  0  0  0
 28 29  1  0  0  0  0
 30 28  1  0  0  0  0
M  END
>  <minimizedAffinity>
-4.76013803

$$$$

 OpenBabel03252507523D

 30 32  0  0  1  0  0  0  0  0999 V2000
   36.3970   28.8760   39.9950 C   0  0  2  0  0  0  0  0  0  0  0  0
   37.0900   29.2180   38.7130 C   0  0  0  0  0  0  0  0  0  0  0  0
   36.7170   30.6990   38.6010 C   0  0  0  0  0  0  0  0  0  0  0  0
   36.5920   31.1920   40.0180 C   0  0  1  0  0  0  0  0  0  0  0  0
   36.9380   29.9920   40.9020 C   0  0  0  0  0  0  0  0  0  0  0  0
   35.3080   29.0450   39.8830 H   0  0  0  0  0  0  0  0  0  0  0  0
   36.6460   28.6470   37.8870 H   0  0  0  0  0  0  0  0  0  0  0  0
   38.1740   29.0880   38.7610 H   0  0  0  0  0  0  0  0  0  0  0  0
   35.7820   30.7970   38.0280 H   0  0  0  0  0  0  0  0  0  0  0  0
   37.5750   31.1890   38.0860 H   0  0  0  0  0  0  0  0  0  0  0  0
   35.5610   31.5220   40.1940 H   0  0  0  0  0  0  0  0  0  0  0  0
   36.3070   30.0050   41.7970 H   0  0  0  0  0  0  0  0  0  0  0  0
   38.0120   29.8810   41.0620 H   0  0  0  0  0  0  0  0  0  0  0  0
   37.1630   25.9380   42.2340 C   0  0  0  0  0  0  0  0  0  0  0  0
   36.9310   27.2760   41.8660 C   0  0  0  0  0  0  0  0  0  0  0  0
   36.6710   27.5460   40.5300 C   0  0  0  0  0  0  0  0  0  0  0  0
   36.6600   26.4940   39.6580 N   0  0  0  0  0  0  0  0  0  0  0  0
   36.8860   25.2210   40.0360 C   0  0  0  0  0  0  0  0  0  0  0  0
   37.1370   24.9380   41.3180 N   0  0  0  0  0  0  0  0  0  0  0  0
   37.3550   25.8350   43.3010 H   0  0  0  0  0  0  0  0  0  0  0  0
   36.9440   28.0950   42.5720 H   0  0  0  0  0  0  0  0  0  0  0  0
   36.8740   24.4030   39.3430 H   0  0  0  0  0  0  0  0  0  0  0  0
   37.5930   32.2490   40.3290 C   0  0  0  0  0  0  0  0  0  0  0  0
   37.6490   33.5150   39.7470 C   0  0  0  0  0  0  0  0  0  0  0  0
   36.9770   33.9060   38.9940 H   0  0  0  0  0  0  0  0  0  0  0  0
   38.7400   34.1080   40.3640 C   0  0  0  0  0  0  0  0  0  0  0  0
   39.1060   35.0890   40.1810 H   0  0  0  0  0  0  0  0  0  0  0  0
   39.2610   33.2060   41.2440 N   0  0  0  0  0  0  0  0  0  0  0  0
   40.1000   33.3880   41.8530 H   0  0  0  0  0  0  0  0  0  0  0  0
   38.5750   32.0760   41.2330 N   0  0  0  0  0  0  0  0  0  0  0  0
  1  6  1  6  0  0  0
  1 16  1  0  0  0  0
  1  5  1  0  0  0  0
  2  8  1  0  0  0  0
  2  1  1  0  0  0  0
  3  2  1  0  0  0  0
  3  4  1  0  0  0  0
  4 11  1  1  0  0  0
  4 23  1  0  0  0  0
  4  5  1  0  0  0  0
  5 13  1  0  0  0  0
  5 12  1  0  0  0  0
  7  2  1  0  0  0  0
  9  3  1  0  0  0  0
 10  3  1  0  0  0  0
 14 20  1  0  0  0  0
 15 14  1  0  0  0  0
 15 21  1  0  0  0  0
 16 15  2  0  0  0  0
 17 18  2  0  0  0  0
 17 16  1  0  0  0  0
 18 19  1  0  0  0  0
 19 14  2  0  0  0  0
 22 18  1  0  0  0  0
 23 30  2  0  0  0  0
 24 23  1  0  0  0  0
 24 26  2  0  0  0  0
 25 24  1  0  0  0  0
 26 28  1  0  0  0  0
 27 26  1  0  0  0  0
 28 29  1  0  0  0  0
 30 28  1  0  0  0  0
M  END
>  <minimizedAffinity>
-4.72427893

$$$$

 OpenBabel03252507523D

 30 32  0  0  1  0  0  0  0  0999 V2000
   38.2290   25.5400   41.6590 C   0  0  2  0  0  0  0  0  0  0  0  0
   36.8940   25.5010   42.3350 C   0  0  0  0  0  0  0  0  0  0  0  0
   36.9150   26.8650   43.0320 C   0  0  0  0  0  0  0  0  0  0  0  0
   37.7390   27.7590   42.1440 C   0  0  1  0  0  0  0  0  0  0  0  0
   38.1330   26.8960   40.9440 C   0  0  0  0  0  0  0  0  0  0  0  0
   39.0270   25.6290   42.4220 H   0  0  0  0  0  0  0  0  0  0  0  0
   36.8760   24.6920   43.0770 H   0  0  0  0  0  0  0  0  0  0  0  0
   36.0590   25.4300   41.6340 H   0  0  0  0  0  0  0  0  0  0  0  0
   37.3390   26.7520   44.0420 H   0  0  0  0  0  0  0  0  0  0  0  0
   35.8530   27.2050   43.0610 H   0  0  0  0  0  0  0  0  0  0  0  0
   38.6280   28.0910   42.6950 H   0  0  0  0  0  0  0  0  0  0  0  0
   39.1470   27.1570   40.6240 H   0  0  0  0  0  0  0  0  0  0  0  0
   37.3650   26.8760   40.1680 H   0  0  0  0  0  0  0  0  0  0  0  0
   39.5380   23.3840   38.8540 C   0  0  0  0  0  0  0  0  0  0  0  0
   39.3630   24.5320   39.6470 C   0  0  0  0  0  0  0  0  0  0  0  0
   38.5040   24.4440   40.7340 C   0  0  0  0  0  0  0  0  0  0  0  0
   37.8830   23.2480   40.9610 N   0  0  0  0  0  0  0  0  0  0  0  0
   38.0690   22.1630   40.1850 C   0  0  0  0  0  0  0  0  0  0  0  0
   38.8920   22.2240   39.1340 N   0  0  0  0  0  0  0  0  0  0  0  0
   40.2300   23.5580   38.0300 H   0  0  0  0  0  0  0  0  0  0  0  0
   39.8630   25.4700   39.4510 H   0  0  0  0  0  0  0  0  0  0  0  0
   37.5760   21.2300   40.3720 H   0  0  0  0  0  0  0  0  0  0  0  0
   36.9420   28.8950   41.6050 C   0  0  0  0  0  0  0  0  0  0  0  0
   37.3740   30.2170   41.5000 C   0  0  0  0  0  0  0  0  0  0  0  0
   38.3430   30.6010   41.7920 H   0  0  0  0  0  0  0  0  0  0  0  0
   36.2840   30.8710   40.9480 C   0  0  0  0  0  0  0  0  0  0  0  0
   36.2280   31.9070   40.7140 H   0  0  0  0  0  0  0  0  0  0  0  0
   35.2970   29.9500   40.7590 N   0  0  0  0  0  0  0  0  0  0  0  0
   34.3510   30.1690   40.3510 H   0  0  0  0  0  0  0  0  0  0  0  0
   35.6830   28.7480   41.1520 N   0  0  0  0  0  0  0  0  0  0  0  0
  1  2  1  0  0  0  0
  1  6  1  1  0  0  0
  2  3  1  0  0  0  0
  2  7  1  0  0  0  0
  3 10  1  0  0  0  0
  3  9  1  0  0  0  0
  4 11  1  1  0  0  0
  4  3  1  0  0  0  0
  5  1  1  0  0  0  0
  5  4  1  0  0  0  0
  8  2  1  0  0  0  0
 12  5  1  0  0  0  0
 13  5  1  0  0  0  0
 14 19  2  0  0  0  0
 14 15  1  0  0  0  0
 15 16  2  0  0  0  0
 16 17  1  0  0  0  0
 16  1  1  0  0  0  0
 18 22  1  0  0  0  0
 18 17  2  0  0  0  0
 19 18  1  0  0  0  0
 20 14  1  0  0  0  0
 21 15  1  0  0  0  0
 23  4  1  0  0  0  0
 24 23  1  0  0  0  0
 24 25  1  0  0  0  0
 26 24  2  0  0  0  0
 27 26  1  0  0  0  0
 28 26  1  0  0  0  0
 28 30  1  0  0  0  0
 29 28  1  0  0  0  0
 30 23  2  0  0  0  0
M  END
>  <minimizedAffinity>
-4.66440868

$$$$

 OpenBabel03252507523D

 30 32  0  0  1  0  0  0  0  0999 V2000
   36.4290   26.9390   39.9810 C   0  0  2  0  0  0  0  0  0  0  0  0
   36.7960   27.2930   38.5740 C   0  0  0  0  0  0  0  0  0  0  0  0
   35.8900   28.5110   38.3680 C   0  0  0  0  0  0  0  0  0  0  0  0
   35.7540   29.1470   39.7250 C   0  0  1  0  0  0  0  0  0  0  0  0
   36.6180   28.3020   40.6630 C   0  0  0  0  0  0  0  0  0  0  0  0
   35.3500   26.6940   40.0320 H   0  0  0  0  0  0  0  0  0  0  0  0
   36.5040   26.4790   37.8970 H   0  0  0  0  0  0  0  0  0  0  0  0
   37.8480   27.5620   38.4570 H   0  0  0  0  0  0  0  0  0  0  0  0
   34.9260   28.1820   37.9480 H   0  0  0  0  0  0  0  0  0  0  0  0
   36.4410   29.1820   37.6690 H   0  0  0  0  0  0  0  0  0  0  0  0
   34.7010   29.1180   40.0320 H   0  0  0  0  0  0  0  0  0  0  0  0
   36.1340   28.2350   41.6430 H   0  0  0  0  0  0  0  0  0  0  0  0
   37.6670   28.6030   40.6550 H   0  0  0  0  0  0  0  0  0  0  0  0
   37.7210   23.6800   41.3770 C   0  0  0  0  0  0  0  0  0  0  0  0
   36.8240   24.5790   40.7730 C   0  0  0  0  0  0  0  0  0  0  0  0
   37.2370   25.8920   40.6030 C   0  0  0  0  0  0  0  0  0  0  0  0
   38.4890   26.2280   41.0360 N   0  0  0  0  0  0  0  0  0  0  0  0
   39.3290   25.3470   41.6120 C   0  0  0  0  0  0  0  0  0  0  0  0
   38.9530   24.0770   41.7840 N   0  0  0  0  0  0  0  0  0  0  0  0
   37.3010   22.6780   41.4620 H   0  0  0  0  0  0  0  0  0  0  0  0
   35.8360   24.2940   40.4370 H   0  0  0  0  0  0  0  0  0  0  0  0
   40.3100   25.6210   41.9470 H   0  0  0  0  0  0  0  0  0  0  0  0
   36.3200   30.5240   39.7530 C   0  0  0  0  0  0  0  0  0  0  0  0
   36.8970   31.1900   38.6710 C   0  0  0  0  0  0  0  0  0  0  0  0
   37.0120   30.8040   37.6670 H   0  0  0  0  0  0  0  0  0  0  0  0
   37.2610   32.4170   39.2040 C   0  0  0  0  0  0  0  0  0  0  0  0
   37.7370   33.2100   38.6800 H   0  0  0  0  0  0  0  0  0  0  0  0
   36.9010   32.4240   40.5190 N   0  0  0  0  0  0  0  0  0  0  0  0
   37.0590   33.2340   41.1730 H   0  0  0  0  0  0  0  0  0  0  0  0
   36.3300   31.2830   40.8640 N   0  0  0  0  0  0  0  0  0  0  0  0
  1  6  1  1  0  0  0
  1 16  1  0  0  0  0
  1  5  1  0  0  0  0
  2  1  1  0  0  0  0
  3  2  1  0  0  0  0
  3  4  1  0  0  0  0
  4 23  1  0  0  0  0
  4 11  1  1  0  0  0
  4  5  1  0  0  0  0
  5 12  1  0  0  0  0
  7  2  1  0  0  0  0
  8  2  1  0  0  0  0
  9  3  1  0  0  0  0
 10  3  1  0  0  0  0
 13  5  1  0  0  0  0
 14 20  1  0  0  0  0
 14 19  1  0  0  0  0
 15 14  2  0  0  0  0
 16 15  1  0  0  0  0
 16 17  2  0  0  0  0
 17 18  1  0  0  0  0
 18 19  2  0  0  0  0
 18 22  1  0  0  0  0
 21 15  1  0  0  0  0
 23 30  2  0  0  0  0
 24 26  2  0  0  0  0
 24 23  1  0  0  0  0
 25 24  1  0  0  0  0
 26 28  1  0  0  0  0
 27 26  1  0  0  0  0
 28 30  1  0  0  0  0
 28 29  1  0  0  0  0
M  END
>  <minimizedAffinity>
-4.64092731

$$$$

 OpenBabel03252507523D

 30 32  0  0  1  0  0  0  0  0999 V2000
   36.4570   27.8390   40.6420 C   0  0  2  0  0  0  0  0  0  0  0  0
   36.8120   28.5440   41.9140 C   0  0  0  0  0  0  0  0  0  0  0  0
   36.7370   27.3680   42.8930 C   0  0  0  0  0  0  0  0  0  0  0  0
   37.1260   26.1530   42.0940 C   0  0  1  0  0  0  0  0  0  0  0  0
   37.4520   26.6700   40.6910 C   0  0  0  0  0  0  0  0  0  0  0  0
   35.4410   27.4080   40.7290 H   0  0  0  0  0  0  0  0  0  0  0  0
   36.0430   29.2910   42.1520 H   0  0  0  0  0  0  0  0  0  0  0  0
   37.8130   28.9810   41.8990 H   0  0  0  0  0  0  0  0  0  0  0  0
   35.7190   27.3030   43.3080 H   0  0  0  0  0  0  0  0  0  0  0  0
   37.4960   27.5830   43.6810 H   0  0  0  0  0  0  0  0  0  0  0  0
   36.2790   25.4560   42.0650 H   0  0  0  0  0  0  0  0  0  0  0  0
   37.1190   25.9400   39.9470 H   0  0  0  0  0  0  0  0  0  0  0  0
   38.4800   27.0260   40.6020 H   0  0  0  0  0  0  0  0  0  0  0  0
   37.6910   30.0900   37.8770 C   0  0  0  0  0  0  0  0  0  0  0  0
   37.7020   29.3950   39.0990 C   0  0  0  0  0  0  0  0  0  0  0  0
   36.5910   28.6290   39.4200 C   0  0  0  0  0  0  0  0  0  0  0  0
   35.5570   28.6000   38.5270 N   0  0  0  0  0  0  0  0  0  0  0  0
   35.5710   29.2750   37.3620 C   0  0  0  0  0  0  0  0  0  0  0  0
   36.6310   30.0190   37.0320 N   0  0  0  0  0  0  0  0  0  0  0  0
   38.6070   30.6590   37.7210 H   0  0  0  0  0  0  0  0  0  0  0  0
   38.5300   29.4310   39.7930 H   0  0  0  0  0  0  0  0  0  0  0  0
   34.7550   29.2450   36.6680 H   0  0  0  0  0  0  0  0  0  0  0  0
   38.3700   25.5210   42.6130 C   0  0  0  0  0  0  0  0  0  0  0  0
   39.4280   26.1900   43.2280 C   0  0  0  0  0  0  0  0  0  0  0  0
   39.4940   27.2540   43.4150 H   0  0  0  0  0  0  0  0  0  0  0  0
   40.3260   25.1750   43.5220 C   0  0  0  0  0  0  0  0  0  0  0  0
   41.2680   25.2920   44.0000 H   0  0  0  0  0  0  0  0  0  0  0  0
   39.7850   24.0020   43.0860 N   0  0  0  0  0  0  0  0  0  0  0  0
   40.2510   23.0630   43.1790 H   0  0  0  0  0  0  0  0  0  0  0  0
   38.6000   24.1980   42.5340 N   0  0  0  0  0  0  0  0  0  0  0  0
  1  5  1  0  0  0  0
  1  6  1  1  0  0  0
  1  2  1  0  0  0  0
  2  7  1  0  0  0  0
  2  3  1  0  0  0  0
  3  9  1  0  0  0  0
  3 10  1  0  0  0  0
  4 11  1  6  0  0  0
  4 23  1  0  0  0  0
  4  3  1  0  0  0  0
  5  4  1  0  0  0  0
  8  2  1  0  0  0  0
 12  5  1  0  0  0  0
 13  5  1  0  0  0  0
 14 15  1  0  0  0  0
 15 16  2  0  0  0  0
 15 21  1  0  0  0  0
 16  1  1  0  0  0  0
 17 16  1  0  0  0  0
 18 17  2  0  0  0  0
 19 18  1  0  0  0  0
 19 14  2  0  0  0  0
 20 14  1  0  0  0  0
 22 18  1  0  0  0  0
 23 24  1  0  0  0  0
 24 25  1  0  0  0  0
 24 26  2  0  0  0  0
 26 27  1  0  0  0  0
 28 29  1  0  0  0  0
 28 26  1  0  0  0  0
 30 23  2  0  0  0  0
 30 28  1  0  0  0  0
M  END
>  <minimizedAffinity>
-4.56338215

$$$$
