
 OpenBabel03242521193D

 25 27  0  0  0  0  0  0  0  0999 V2000
   45.6570   34.0520   45.3790 C   0  0  0  0  0  0  0  0  0  0  0  0
   44.7540   35.0550   45.6010 C   0  0  0  0  0  0  0  0  0  0  0  0
   44.4400   36.0040   44.6680 C   0  0  0  0  0  0  0  0  0  0  0  0
   45.0890   35.9060   43.4620 N   0  0  0  0  0  0  0  0  0  0  0  0
   45.9690   34.9220   43.2560 C   0  0  0  0  0  0  0  0  0  0  0  0
   46.2950   33.9730   44.1630 N   0  0  0  0  0  0  0  0  0  0  0  0
   44.2490   35.1240   46.5540 H   0  0  0  0  0  0  0  0  0  0  0  0
   43.7210   36.7900   44.8660 H   0  0  0  0  0  0  0  0  0  0  0  0
   45.4830   32.0830   48.4600 C   0  0  0  0  0  0  0  0  0  0  0  0
   46.5550   31.1980   48.2910 C   0  0  0  0  0  0  0  0  0  0  0  0
   47.3480   31.2610   47.1280 C   0  0  0  0  0  0  0  0  0  0  0  0
   47.0160   32.2110   46.2030 N   0  0  0  0  0  0  0  0  0  0  0  0
   45.9730   33.0510   46.3960 C   0  0  0  0  0  0  0  0  0  0  0  0
   45.2180   32.9900   47.5070 N   0  0  0  0  0  0  0  0  0  0  0  0
   44.8550   32.0670   49.3330 H   0  0  0  0  0  0  0  0  0  0  0  0
   46.7600   30.4800   49.0510 H   0  0  0  0  0  0  0  0  0  0  0  0
   48.1820   30.5890   46.9730 H   0  0  0  0  0  0  0  0  0  0  0  0
   46.6910   34.7690   41.9860 C   0  0  0  0  0  0  0  0  0  0  0  0
   47.9980   35.1750   41.8110 C   0  0  0  0  0  0  0  0  0  0  0  0
   48.6880   35.6420   42.5000 H   0  0  0  0  0  0  0  0  0  0  0  0
   48.3600   34.8820   40.5050 C   0  0  0  0  0  0  0  0  0  0  0  0
   49.2730   35.0190   39.9310 H   0  0  0  0  0  0  0  0  0  0  0  0
   47.2680   34.3080   39.9260 N   0  0  0  0  0  0  0  0  0  0  0  0
   47.1990   33.9600   38.9290 H   0  0  0  0  0  0  0  0  0  0  0  0
   46.2720   34.2440   40.8240 N   0  0  0  0  0  0  0  0  0  0  0  0
  1  2  1  0  0  0  0
  1 13  1  0  0  0  0
  2  7  1  0  0  0  0
  3  8  1  0  0  0  0
  3  2  2  0  0  0  0
  4  3  1  0  0  0  0
  5  4  2  0  0  0  0
  5  6  1  0  0  0  0
  6  1  2  0  0  0  0
  9 15  1  0  0  0  0
 10  9  1  0  0  0  0
 10 16  1  0  0  0  0
 11 10  2  0  0  0  0
 12 13  2  0  0  0  0
 12 11  1  0  0  0  0
 13 14  1  0  0  0  0
 14  9  2  0  0  0  0
 17 11  1  0  0  0  0
 18  5  1  0  0  0  0
 19 18  1  0  0  0  0
 19 20  1  0  0  0  0
 21 19  2  0  0  0  0
 22 21  1  0  0  0  0
 23 21  1  0  0  0  0
 23 25  1  0  0  0  0
 24 23  1  0  0  0  0
 25 18  2  0  0  0  0
M  END
>  <minimizedAffinity>
-5.68506002

>  <minimizedRMSD>
7.07204723

$$$$
