
 OpenBabel03252507223D

 46 49  0  0  1  0  0  0  0  0999 V2000
   47.3330   33.7150   42.8360 C   0  0  0  0  0  0  0  0  0  0  0  0
   48.4540   33.5360   43.4290 O   0  0  0  0  0  0  0  0  0  0  0  0
   47.0390   33.1930   41.5470 N   0  0  0  0  0  0  0  0  0  0  0  0
   45.8280   32.5260   41.0490 C   0  0  0  0  0  0  0  0  0  0  0  0
   45.3760   33.1960   39.7600 C   0  0  0  0  0  0  0  0  0  0  0  0
   46.4170   33.0700   38.6880 C   0  0  0  0  0  0  0  0  0  0  0  0
   47.7120   32.5740   39.3040 C   0  0  0  0  0  0  0  0  0  0  0  0
   48.0590   33.3140   40.5440 C   0  0  2  0  0  0  0  0  0  0  0  0
   45.9780   31.4490   40.9260 H   0  0  0  0  0  0  0  0  0  0  0  0
   45.0120   32.7370   41.7940 H   0  0  0  0  0  0  0  0  0  0  0  0
   45.1180   34.2430   40.0190 H   0  0  0  0  0  0  0  0  0  0  0  0
   44.4520   32.6460   39.4480 H   0  0  0  0  0  0  0  0  0  0  0  0
   46.1340   32.4400   37.8410 H   0  0  0  0  0  0  0  0  0  0  0  0
   46.5800   34.1060   38.2680 H   0  0  0  0  0  0  0  0  0  0  0  0
   48.5420   32.6360   38.5770 H   0  0  0  0  0  0  0  0  0  0  0  0
   47.5610   31.4780   39.4760 H   0  0  0  0  0  0  0  0  0  0  0  0
   48.1030   34.3970   40.2770 H   0  0  0  0  0  0  0  0  0  0  0  0
   45.9410   35.7240   42.9560 C   0  0  0  0  0  0  0  0  0  0  0  0
   46.3250   34.4910   43.5230 C   0  0  0  0  0  0  0  0  0  0  0  0
   45.7450   34.0500   44.6990 C   0  0  0  0  0  0  0  0  0  0  0  0
   44.8110   34.8430   45.2700 N   0  0  0  0  0  0  0  0  0  0  0  0
   44.4250   36.0380   44.7400 C   0  0  0  0  0  0  0  0  0  0  0  0
   45.0040   36.4570   43.5850 N   0  0  0  0  0  0  0  0  0  0  0  0
   46.3980   36.0590   42.0390 H   0  0  0  0  0  0  0  0  0  0  0  0
   43.6870   36.6570   45.1970 H   0  0  0  0  0  0  0  0  0  0  0  0
   46.1600   32.7870   45.2500 C   0  0  0  0  0  0  0  0  0  0  0  0
   45.8040   31.6210   44.6590 C   0  0  0  0  0  0  0  0  0  0  0  0
   46.2190   30.4280   45.2130 C   0  0  0  0  0  0  0  0  0  0  0  0
   46.9960   30.3640   46.3690 C   0  0  0  0  0  0  0  0  0  0  0  0
   47.3360   31.5960   46.9410 C   0  0  0  0  0  0  0  0  0  0  0  0
   46.9150   32.7240   46.3720 N   0  0  0  0  0  0  0  0  0  0  0  0
   45.2050   31.5440   43.7610 H   0  0  0  0  0  0  0  0  0  0  0  0
   45.9700   29.4520   44.7910 H   0  0  0  0  0  0  0  0  0  0  0  0
   47.3520   29.4890   46.8540 H   0  0  0  0  0  0  0  0  0  0  0  0
   47.9360   31.7330   47.8430 H   0  0  0  0  0  0  0  0  0  0  0  0
   49.4370   32.9530   41.0050 C   0  0  0  0  0  0  0  0  0  0  0  0
   49.7880   33.4390   41.9140 H   0  0  0  0  0  0  0  0  0  0  0  0
   50.1000   33.3920   40.2080 H   0  0  0  0  0  0  0  0  0  0  0  0
   49.7110   31.4920   40.9490 C   0  0  0  0  0  0  0  0  0  0  0  0
   50.7450   31.0450   40.1510 C   0  0  0  0  0  0  0  0  0  0  0  0
   51.4780   31.5280   39.4930 H   0  0  0  0  0  0  0  0  0  0  0  0
   50.7710   29.6550   40.2920 C   0  0  0  0  0  0  0  0  0  0  0  0
   51.4260   28.9140   39.8400 H   0  0  0  0  0  0  0  0  0  0  0  0
   49.7690   29.3120   41.1530 N   0  0  0  0  0  0  0  0  0  0  0  0
   49.5510   28.3300   41.4480 H   0  0  0  0  0  0  0  0  0  0  0  0
   49.1570   30.4340   41.5270 N   0  0  0  0  0  0  0  0  0  0  0  0
  1  2  2  0  0  0  0
  1 19  1  0  0  0  0
  3  1  1  0  0  0  0
  4  3  1  0  0  0  0
  4 10  1  0  0  0  0
  5 11  1  0  0  0  0
  5  4  1  0  0  0  0
  6  7  1  0  0  0  0
  6  5  1  0  0  0  0
  7 16  1  0  0  0  0
  7  8  1  0  0  0  0
  8 17  1  6  0  0  0
  8 36  1  0  0  0  0
  8  3  1  0  0  0  0
  9  4  1  0  0  0  0
 12  5  1  0  0  0  0
 13  6  1  0  0  0  0
 14  6  1  0  0  0  0
 15  7  1  0  0  0  0
 18 19  2  0  0  0  0
 18 23  1  0  0  0  0
 19 20  1  0  0  0  0
 20 26  1  0  0  0  0
 20 21  2  0  0  0  0
 22 25  1  0  0  0  0
 22 21  1  0  0  0  0
 23 22  2  0  0  0  0
 24 18  1  0  0  0  0
 26 31  1  0  0  0  0
 27 28  1  0  0  0  0
 27 26  2  0  0  0  0
 28 29  2  0  0  0  0
 29 34  1  0  0  0  0
 29 30  1  0  0  0  0
 30 35  1  0  0  0  0
 31 30  2  0  0  0  0
 32 27  1  0  0  0  0
 33 28  1  0  0  0  0
 36 37  1  0  0  0  0
 38 36  1  0  0  0  0
 39 36  1  0  0  0  0
 39 46  2  0  0  0  0
 40 42  2  0  0  0  0
 40 39  1  0  0  0  0
 41 40  1  0  0  0  0
 42 44  1  0  0  0  0
 43 42  1  0  0  0  0
 44 45  1  0  0  0  0
 44 46  1  0  0  0  0
M  END
>  <minimizedAffinity>
-4.8702035

>  <minimizedRMSD>
0.710647464

$$$$
