
 OpenBabel03252507223D

 46 49  0  0  1  0  0  0  0  0999 V2000
   47.3350   33.7140   42.8350 C   0  0  0  0  0  0  0  0  0  0  0  0
   48.4550   33.5340   43.4290 O   0  0  0  0  0  0  0  0  0  0  0  0
   47.0410   33.1920   41.5460 N   0  0  0  0  0  0  0  0  0  0  0  0
   45.8300   32.5260   41.0460 C   0  0  0  0  0  0  0  0  0  0  0  0
   45.3800   33.1960   39.7580 C   0  0  0  0  0  0  0  0  0  0  0  0
   46.4210   33.0710   38.6860 C   0  0  0  0  0  0  0  0  0  0  0  0
   47.7150   32.5730   39.3030 C   0  0  0  0  0  0  0  0  0  0  0  0
   48.0620   33.3130   40.5430 C   0  0  2  0  0  0  0  0  0  0  0  0
   45.9810   31.4480   40.9230 H   0  0  0  0  0  0  0  0  0  0  0  0
   45.0140   32.7370   41.7910 H   0  0  0  0  0  0  0  0  0  0  0  0
   45.1220   34.2440   40.0160 H   0  0  0  0  0  0  0  0  0  0  0  0
   44.4560   32.6470   39.4440 H   0  0  0  0  0  0  0  0  0  0  0  0
   46.1390   32.4410   37.8380 H   0  0  0  0  0  0  0  0  0  0  0  0
   46.5850   34.1060   38.2670 H   0  0  0  0  0  0  0  0  0  0  0  0
   48.5460   32.6350   38.5770 H   0  0  0  0  0  0  0  0  0  0  0  0
   47.5640   31.4780   39.4750 H   0  0  0  0  0  0  0  0  0  0  0  0
   48.1070   34.3960   40.2770 H   0  0  0  0  0  0  0  0  0  0  0  0
   45.9430   35.7230   42.9540 C   0  0  0  0  0  0  0  0  0  0  0  0
   46.3260   34.4910   43.5210 C   0  0  0  0  0  0  0  0  0  0  0  0
   45.7460   34.0490   44.6970 C   0  0  0  0  0  0  0  0  0  0  0  0
   44.8120   34.8420   45.2670 N   0  0  0  0  0  0  0  0  0  0  0  0
   44.4260   36.0380   44.7370 C   0  0  0  0  0  0  0  0  0  0  0  0
   45.0050   36.4560   43.5830 N   0  0  0  0  0  0  0  0  0  0  0  0
   46.4010   36.0580   42.0370 H   0  0  0  0  0  0  0  0  0  0  0  0
   43.6880   36.6570   45.1940 H   0  0  0  0  0  0  0  0  0  0  0  0
   46.1600   32.7860   45.2490 C   0  0  0  0  0  0  0  0  0  0  0  0
   45.8040   31.6210   44.6570 C   0  0  0  0  0  0  0  0  0  0  0  0
   46.2180   30.4270   45.2120 C   0  0  0  0  0  0  0  0  0  0  0  0
   46.9960   30.3630   46.3680 C   0  0  0  0  0  0  0  0  0  0  0  0
   47.3360   31.5950   46.9390 C   0  0  0  0  0  0  0  0  0  0  0  0
   46.9150   32.7230   46.3700 N   0  0  0  0  0  0  0  0  0  0  0  0
   45.2050   31.5440   43.7600 H   0  0  0  0  0  0  0  0  0  0  0  0
   45.9680   29.4520   44.7910 H   0  0  0  0  0  0  0  0  0  0  0  0
   47.3510   29.4880   46.8530 H   0  0  0  0  0  0  0  0  0  0  0  0
   47.9370   31.7320   47.8410 H   0  0  0  0  0  0  0  0  0  0  0  0
   49.4390   32.9510   41.0050 C   0  0  0  0  0  0  0  0  0  0  0  0
   49.7900   33.4370   41.9150 H   0  0  0  0  0  0  0  0  0  0  0  0
   50.1030   33.3900   40.2080 H   0  0  0  0  0  0  0  0  0  0  0  0
   49.7130   31.4900   40.9490 C   0  0  0  0  0  0  0  0  0  0  0  0
   50.7480   31.0440   40.1510 C   0  0  0  0  0  0  0  0  0  0  0  0
   51.4800   31.5280   39.4930 H   0  0  0  0  0  0  0  0  0  0  0  0
   50.7730   29.6550   40.2910 C   0  0  0  0  0  0  0  0  0  0  0  0
   51.4280   28.9120   39.8390 H   0  0  0  0  0  0  0  0  0  0  0  0
   49.7730   29.3100   41.1530 N   0  0  0  0  0  0  0  0  0  0  0  0
   49.5530   28.3290   41.4460 H   0  0  0  0  0  0  0  0  0  0  0  0
   49.1600   30.4320   41.5270 N   0  0  0  0  0  0  0  0  0  0  0  0
  1  2  2  0  0  0  0
  1 19  1  0  0  0  0
  3  1  1  0  0  0  0
  4  3  1  0  0  0  0
  4 10  1  0  0  0  0
  5 11  1  0  0  0  0
  5  4  1  0  0  0  0
  6  7  1  0  0  0  0
  6  5  1  0  0  0  0
  7 16  1  0  0  0  0
  7  8  1  0  0  0  0
  8 17  1  6  0  0  0
  8 36  1  0  0  0  0
  8  3  1  0  0  0  0
  9  4  1  0  0  0  0
 12  5  1  0  0  0  0
 13  6  1  0  0  0  0
 14  6  1  0  0  0  0
 15  7  1  0  0  0  0
 18 19  2  0  0  0  0
 18 23  1  0  0  0  0
 19 20  1  0  0  0  0
 20 26  1  0  0  0  0
 20 21  2  0  0  0  0
 22 25  1  0  0  0  0
 22 21  1  0  0  0  0
 23 22  2  0  0  0  0
 24 18  1  0  0  0  0
 26 31  1  0  0  0  0
 27 28  1  0  0  0  0
 27 26  2  0  0  0  0
 28 29  2  0  0  0  0
 29 34  1  0  0  0  0
 29 30  1  0  0  0  0
 30 35  1  0  0  0  0
 31 30  2  0  0  0  0
 32 27  1  0  0  0  0
 33 28  1  0  0  0  0
 36 37  1  0  0  0  0
 38 36  1  0  0  0  0
 39 36  1  0  0  0  0
 39 46  2  0  0  0  0
 40 42  2  0  0  0  0
 40 39  1  0  0  0  0
 41 40  1  0  0  0  0
 42 44  1  0  0  0  0
 43 42  1  0  0  0  0
 44 45  1  0  0  0  0
 44 46  1  0  0  0  0
M  END
>  <minimizedAffinity>
-4.87071085

>  <minimizedRMSD>
0.510378063

$$$$
