
 OpenBabel03252507223D

 46 49  0  0  1  0  0  0  0  0999 V2000
   47.3780   33.7300   42.8090 C   0  0  0  0  0  0  0  0  0  0  0  0
   48.4930   33.5580   43.4150 O   0  0  0  0  0  0  0  0  0  0  0  0
   47.1030   33.2100   41.5150 N   0  0  0  0  0  0  0  0  0  0  0  0
   45.9040   32.5350   40.9990 C   0  0  0  0  0  0  0  0  0  0  0  0
   45.4630   33.2060   39.7080 C   0  0  0  0  0  0  0  0  0  0  0  0
   46.5170   33.0930   38.6480 C   0  0  0  0  0  0  0  0  0  0  0  0
   47.8090   32.6050   39.2780 C   0  0  0  0  0  0  0  0  0  0  0  0
   48.1350   33.3440   40.5240 C   0  0  2  0  0  0  0  0  0  0  0  0
   46.0660   31.4590   40.8740 H   0  0  0  0  0  0  0  0  0  0  0  0
   45.0780   32.7360   41.7360 H   0  0  0  0  0  0  0  0  0  0  0  0
   45.1920   34.2500   39.9670 H   0  0  0  0  0  0  0  0  0  0  0  0
   44.5470   32.6490   39.3820 H   0  0  0  0  0  0  0  0  0  0  0  0
   46.2500   32.4640   37.7950 H   0  0  0  0  0  0  0  0  0  0  0  0
   46.6760   34.1310   38.2340 H   0  0  0  0  0  0  0  0  0  0  0  0
   48.6470   32.6770   38.5610 H   0  0  0  0  0  0  0  0  0  0  0  0
   47.6650   31.5080   39.4440 H   0  0  0  0  0  0  0  0  0  0  0  0
   48.1730   34.4280   40.2620 H   0  0  0  0  0  0  0  0  0  0  0  0
   45.9710   35.7290   42.9220 C   0  0  0  0  0  0  0  0  0  0  0  0
   46.3540   34.4950   43.4860 C   0  0  0  0  0  0  0  0  0  0  0  0
   45.7610   34.0410   44.6510 C   0  0  0  0  0  0  0  0  0  0  0  0
   44.8140   34.8240   45.2140 N   0  0  0  0  0  0  0  0  0  0  0  0
   44.4270   36.0210   44.6860 C   0  0  0  0  0  0  0  0  0  0  0  0
   45.0200   36.4510   43.5430 N   0  0  0  0  0  0  0  0  0  0  0  0
   46.4390   36.0730   42.0140 H   0  0  0  0  0  0  0  0  0  0  0  0
   43.6780   36.6320   45.1370 H   0  0  0  0  0  0  0  0  0  0  0  0
   46.1760   32.7780   45.2000 C   0  0  0  0  0  0  0  0  0  0  0  0
   45.8360   31.6140   44.5950 C   0  0  0  0  0  0  0  0  0  0  0  0
   46.2510   30.4190   45.1480 C   0  0  0  0  0  0  0  0  0  0  0  0
   47.0120   30.3530   46.3140 C   0  0  0  0  0  0  0  0  0  0  0  0
   47.3360   31.5830   46.8980 C   0  0  0  0  0  0  0  0  0  0  0  0
   46.9150   32.7120   46.3320 N   0  0  0  0  0  0  0  0  0  0  0  0
   45.2500   31.5390   43.6890 H   0  0  0  0  0  0  0  0  0  0  0  0
   46.0130   29.4450   44.7160 H   0  0  0  0  0  0  0  0  0  0  0  0
   47.3670   29.4770   46.7980 H   0  0  0  0  0  0  0  0  0  0  0  0
   47.9230   31.7170   47.8100 H   0  0  0  0  0  0  0  0  0  0  0  0
   49.5100   32.9930   41.0010 C   0  0  0  0  0  0  0  0  0  0  0  0
   49.8020   33.3860   41.9730 H   0  0  0  0  0  0  0  0  0  0  0  0
   50.1800   33.5490   40.2870 H   0  0  0  0  0  0  0  0  0  0  0  0
   49.8570   31.5610   40.7910 C   0  0  0  0  0  0  0  0  0  0  0  0
   49.4110   30.6330   41.7090 C   0  0  0  0  0  0  0  0  0  0  0  0
   48.8160   30.6800   42.6300 H   0  0  0  0  0  0  0  0  0  0  0  0
   49.8780   29.3940   41.2650 C   0  0  0  0  0  0  0  0  0  0  0  0
   49.7550   28.4000   41.6910 H   0  0  0  0  0  0  0  0  0  0  0  0
   50.5790   29.6080   40.1150 N   0  0  0  0  0  0  0  0  0  0  0  0
   51.0480   28.8550   39.5560 H   0  0  0  0  0  0  0  0  0  0  0  0
   50.5480   30.9150   39.8610 N   0  0  0  0  0  0  0  0  0  0  0  0
  1  2  2  0  0  0  0
  1 19  1  0  0  0  0
  3  1  1  0  0  0  0
  4  3  1  0  0  0  0
  4 10  1  0  0  0  0
  5 11  1  0  0  0  0
  5  4  1  0  0  0  0
  6  7  1  0  0  0  0
  6  5  1  0  0  0  0
  7 16  1  0  0  0  0
  7  8  1  0  0  0  0
  8 17  1  6  0  0  0
  8 36  1  0  0  0  0
  8  3  1  0  0  0  0
  9  4  1  0  0  0  0
 12  5  1  0  0  0  0
 13  6  1  0  0  0  0
 14  6  1  0  0  0  0
 15  7  1  0  0  0  0
 18 19  2  0  0  0  0
 18 23  1  0  0  0  0
 19 20  1  0  0  0  0
 20 26  1  0  0  0  0
 20 21  2  0  0  0  0
 22 25  1  0  0  0  0
 22 21  1  0  0  0  0
 23 22  2  0  0  0  0
 24 18  1  0  0  0  0
 26 31  1  0  0  0  0
 27 28  1  0  0  0  0
 27 26  2  0  0  0  0
 28 29  2  0  0  0  0
 29 34  1  0  0  0  0
 29 30  1  0  0  0  0
 30 35  1  0  0  0  0
 31 30  2  0  0  0  0
 32 27  1  0  0  0  0
 33 28  1  0  0  0  0
 36 37  1  0  0  0  0
 38 36  1  0  0  0  0
 39 36  1  0  0  0  0
 39 40  1  0  0  0  0
 40 41  1  0  0  0  0
 42 43  1  0  0  0  0
 42 40  2  0  0  0  0
 44 42  1  0  0  0  0
 45 44  1  0  0  0  0
 46 44  1  0  0  0  0
 46 39  2  0  0  0  0
M  END
>  <minimizedAffinity>
-4.87055159

>  <minimizedRMSD>
0.709662318

$$$$
