
 OpenBabel03252507223D

 46 49  0  0  1  0  0  0  0  0999 V2000
   47.3310   33.7160   42.8370 C   0  0  0  0  0  0  0  0  0  0  0  0
   48.4530   33.5370   43.4290 O   0  0  0  0  0  0  0  0  0  0  0  0
   47.0350   33.1930   41.5480 N   0  0  0  0  0  0  0  0  0  0  0  0
   45.8240   32.5260   41.0510 C   0  0  0  0  0  0  0  0  0  0  0  0
   45.3710   33.1950   39.7630 C   0  0  0  0  0  0  0  0  0  0  0  0
   46.4100   33.0690   38.6900 C   0  0  0  0  0  0  0  0  0  0  0  0
   47.7060   32.5730   39.3050 C   0  0  0  0  0  0  0  0  0  0  0  0
   48.0550   33.3140   40.5440 C   0  0  2  0  0  0  0  0  0  0  0  0
   45.9750   31.4480   40.9290 H   0  0  0  0  0  0  0  0  0  0  0  0
   45.0090   32.7360   41.7980 H   0  0  0  0  0  0  0  0  0  0  0  0
   45.1130   34.2420   40.0220 H   0  0  0  0  0  0  0  0  0  0  0  0
   44.4460   32.6440   39.4520 H   0  0  0  0  0  0  0  0  0  0  0  0
   46.1270   32.4390   37.8430 H   0  0  0  0  0  0  0  0  0  0  0  0
   46.5720   34.1040   38.2700 H   0  0  0  0  0  0  0  0  0  0  0  0
   48.5350   32.6350   38.5770 H   0  0  0  0  0  0  0  0  0  0  0  0
   47.5550   31.4770   39.4770 H   0  0  0  0  0  0  0  0  0  0  0  0
   48.0980   34.3960   40.2760 H   0  0  0  0  0  0  0  0  0  0  0  0
   45.9390   35.7250   42.9580 C   0  0  0  0  0  0  0  0  0  0  0  0
   46.3230   34.4920   43.5240 C   0  0  0  0  0  0  0  0  0  0  0  0
   45.7450   34.0500   44.7010 C   0  0  0  0  0  0  0  0  0  0  0  0
   44.8110   34.8430   45.2720 N   0  0  0  0  0  0  0  0  0  0  0  0
   44.4250   36.0390   44.7430 C   0  0  0  0  0  0  0  0  0  0  0  0
   45.0020   36.4570   43.5880 N   0  0  0  0  0  0  0  0  0  0  0  0
   46.3960   36.0600   42.0400 H   0  0  0  0  0  0  0  0  0  0  0  0
   43.6870   36.6580   45.2010 H   0  0  0  0  0  0  0  0  0  0  0  0
   46.1600   32.7870   45.2520 C   0  0  0  0  0  0  0  0  0  0  0  0
   45.8040   31.6220   44.6600 C   0  0  0  0  0  0  0  0  0  0  0  0
   46.2190   30.4280   45.2140 C   0  0  0  0  0  0  0  0  0  0  0  0
   46.9970   30.3650   46.3700 C   0  0  0  0  0  0  0  0  0  0  0  0
   47.3370   31.5960   46.9410 C   0  0  0  0  0  0  0  0  0  0  0  0
   46.9150   32.7240   46.3730 N   0  0  0  0  0  0  0  0  0  0  0  0
   45.2050   31.5450   43.7630 H   0  0  0  0  0  0  0  0  0  0  0  0
   45.9700   29.4530   44.7920 H   0  0  0  0  0  0  0  0  0  0  0  0
   47.3530   29.4890   46.8540 H   0  0  0  0  0  0  0  0  0  0  0  0
   47.9370   31.7330   47.8440 H   0  0  0  0  0  0  0  0  0  0  0  0
   49.4330   32.9530   41.0040 C   0  0  0  0  0  0  0  0  0  0  0  0
   49.7850   33.4400   41.9110 H   0  0  0  0  0  0  0  0  0  0  0  0
   50.0940   33.3910   40.2040 H   0  0  0  0  0  0  0  0  0  0  0  0
   49.7070   31.4920   40.9480 C   0  0  0  0  0  0  0  0  0  0  0  0
   50.7420   31.0460   40.1520 C   0  0  0  0  0  0  0  0  0  0  0  0
   51.4750   31.5290   39.4950 H   0  0  0  0  0  0  0  0  0  0  0  0
   50.7680   29.6560   40.2930 C   0  0  0  0  0  0  0  0  0  0  0  0
   51.4240   28.9140   39.8420 H   0  0  0  0  0  0  0  0  0  0  0  0
   49.7660   29.3120   41.1540 N   0  0  0  0  0  0  0  0  0  0  0  0
   49.5480   28.3310   41.4480 H   0  0  0  0  0  0  0  0  0  0  0  0
   49.1530   30.4340   41.5270 N   0  0  0  0  0  0  0  0  0  0  0  0
  1  2  2  0  0  0  0
  1 19  1  0  0  0  0
  3  1  1  0  0  0  0
  4  3  1  0  0  0  0
  4 10  1  0  0  0  0
  5 11  1  0  0  0  0
  5  4  1  0  0  0  0
  6  7  1  0  0  0  0
  6  5  1  0  0  0  0
  7 16  1  0  0  0  0
  7  8  1  0  0  0  0
  8 17  1  6  0  0  0
  8 36  1  0  0  0  0
  8  3  1  0  0  0  0
  9  4  1  0  0  0  0
 12  5  1  0  0  0  0
 13  6  1  0  0  0  0
 14  6  1  0  0  0  0
 15  7  1  0  0  0  0
 18 19  2  0  0  0  0
 18 23  1  0  0  0  0
 19 20  1  0  0  0  0
 20 26  1  0  0  0  0
 20 21  2  0  0  0  0
 22 25  1  0  0  0  0
 22 21  1  0  0  0  0
 23 22  2  0  0  0  0
 24 18  1  0  0  0  0
 26 31  1  0  0  0  0
 27 28  1  0  0  0  0
 27 26  2  0  0  0  0
 28 29  2  0  0  0  0
 29 34  1  0  0  0  0
 29 30  1  0  0  0  0
 30 35  1  0  0  0  0
 31 30  2  0  0  0  0
 32 27  1  0  0  0  0
 33 28  1  0  0  0  0
 36 37  1  0  0  0  0
 38 36  1  0  0  0  0
 39 36  1  0  0  0  0
 39 46  2  0  0  0  0
 40 42  2  0  0  0  0
 40 39  1  0  0  0  0
 41 40  1  0  0  0  0
 42 44  1  0  0  0  0
 43 42  1  0  0  0  0
 44 45  1  0  0  0  0
 44 46  1  0  0  0  0
M  END
>  <minimizedAffinity>
-4.86973524

>  <minimizedRMSD>
0.530883729

$$$$
