
 OpenBabel03252507223D

 46 49  0  0  1  0  0  0  0  0999 V2000
   47.3770   33.7300   42.8070 C   0  0  0  0  0  0  0  0  0  0  0  0
   48.4920   33.5570   43.4130 O   0  0  0  0  0  0  0  0  0  0  0  0
   47.1020   33.2100   41.5130 N   0  0  0  0  0  0  0  0  0  0  0  0
   45.9020   32.5350   40.9980 C   0  0  0  0  0  0  0  0  0  0  0  0
   45.4610   33.2060   39.7070 C   0  0  0  0  0  0  0  0  0  0  0  0
   46.5140   33.0940   38.6470 C   0  0  0  0  0  0  0  0  0  0  0  0
   47.8060   32.6050   39.2760 C   0  0  0  0  0  0  0  0  0  0  0  0
   48.1330   33.3430   40.5220 C   0  0  2  0  0  0  0  0  0  0  0  0
   46.0640   31.4590   40.8720 H   0  0  0  0  0  0  0  0  0  0  0  0
   45.0770   32.7360   41.7350 H   0  0  0  0  0  0  0  0  0  0  0  0
   45.1910   34.2500   39.9670 H   0  0  0  0  0  0  0  0  0  0  0  0
   44.5450   32.6500   39.3810 H   0  0  0  0  0  0  0  0  0  0  0  0
   46.2470   32.4650   37.7930 H   0  0  0  0  0  0  0  0  0  0  0  0
   46.6730   34.1320   38.2330 H   0  0  0  0  0  0  0  0  0  0  0  0
   48.6440   32.6770   38.5590 H   0  0  0  0  0  0  0  0  0  0  0  0
   47.6630   31.5080   39.4420 H   0  0  0  0  0  0  0  0  0  0  0  0
   48.1710   34.4270   40.2600 H   0  0  0  0  0  0  0  0  0  0  0  0
   45.9710   35.7290   42.9220 C   0  0  0  0  0  0  0  0  0  0  0  0
   46.3540   34.4940   43.4850 C   0  0  0  0  0  0  0  0  0  0  0  0
   45.7610   34.0400   44.6500 C   0  0  0  0  0  0  0  0  0  0  0  0
   44.8140   34.8230   45.2130 N   0  0  0  0  0  0  0  0  0  0  0  0
   44.4280   36.0200   44.6870 C   0  0  0  0  0  0  0  0  0  0  0  0
   45.0200   36.4510   43.5430 N   0  0  0  0  0  0  0  0  0  0  0  0
   46.4390   36.0730   42.0140 H   0  0  0  0  0  0  0  0  0  0  0  0
   43.6800   36.6320   45.1380 H   0  0  0  0  0  0  0  0  0  0  0  0
   46.1770   32.7760   45.1990 C   0  0  0  0  0  0  0  0  0  0  0  0
   45.8350   31.6130   44.5950 C   0  0  0  0  0  0  0  0  0  0  0  0
   46.2500   30.4180   45.1470 C   0  0  0  0  0  0  0  0  0  0  0  0
   47.0130   30.3510   46.3120 C   0  0  0  0  0  0  0  0  0  0  0  0
   47.3380   31.5810   46.8950 C   0  0  0  0  0  0  0  0  0  0  0  0
   46.9170   32.7100   46.3290 N   0  0  0  0  0  0  0  0  0  0  0  0
   45.2480   31.5380   43.6890 H   0  0  0  0  0  0  0  0  0  0  0  0
   46.0110   29.4440   44.7150 H   0  0  0  0  0  0  0  0  0  0  0  0
   47.3680   29.4750   46.7950 H   0  0  0  0  0  0  0  0  0  0  0  0
   47.9260   31.7150   47.8060 H   0  0  0  0  0  0  0  0  0  0  0  0
   49.5080   32.9920   40.9980 C   0  0  0  0  0  0  0  0  0  0  0  0
   49.8010   33.3850   41.9700 H   0  0  0  0  0  0  0  0  0  0  0  0
   50.1790   33.5490   40.2850 H   0  0  0  0  0  0  0  0  0  0  0  0
   49.8550   31.5610   40.7880 C   0  0  0  0  0  0  0  0  0  0  0  0
   49.4100   30.6310   41.7070 C   0  0  0  0  0  0  0  0  0  0  0  0
   48.8170   30.6790   42.6280 H   0  0  0  0  0  0  0  0  0  0  0  0
   49.8780   29.3930   41.2620 C   0  0  0  0  0  0  0  0  0  0  0  0
   49.7550   28.3990   41.6870 H   0  0  0  0  0  0  0  0  0  0  0  0
   50.5770   29.6070   40.1100 N   0  0  0  0  0  0  0  0  0  0  0  0
   51.0450   28.8540   39.5510 H   0  0  0  0  0  0  0  0  0  0  0  0
   50.5440   30.9150   39.8560 N   0  0  0  0  0  0  0  0  0  0  0  0
  1  2  2  0  0  0  0
  1 19  1  0  0  0  0
  3  1  1  0  0  0  0
  4  3  1  0  0  0  0
  4 10  1  0  0  0  0
  5 11  1  0  0  0  0
  5  4  1  0  0  0  0
  6  7  1  0  0  0  0
  6  5  1  0  0  0  0
  7 16  1  0  0  0  0
  7  8  1  0  0  0  0
  8 17  1  6  0  0  0
  8 36  1  0  0  0  0
  8  3  1  0  0  0  0
  9  4  1  0  0  0  0
 12  5  1  0  0  0  0
 13  6  1  0  0  0  0
 14  6  1  0  0  0  0
 15  7  1  0  0  0  0
 18 19  2  0  0  0  0
 18 23  1  0  0  0  0
 19 20  1  0  0  0  0
 20 26  1  0  0  0  0
 20 21  2  0  0  0  0
 22 25  1  0  0  0  0
 22 21  1  0  0  0  0
 23 22  2  0  0  0  0
 24 18  1  0  0  0  0
 26 31  1  0  0  0  0
 27 28  1  0  0  0  0
 27 26  2  0  0  0  0
 28 29  2  0  0  0  0
 29 34  1  0  0  0  0
 29 30  1  0  0  0  0
 30 35  1  0  0  0  0
 31 30  2  0  0  0  0
 32 27  1  0  0  0  0
 33 28  1  0  0  0  0
 36 37  1  0  0  0  0
 38 36  1  0  0  0  0
 39 36  1  0  0  0  0
 39 40  1  0  0  0  0
 40 41  1  0  0  0  0
 42 43  1  0  0  0  0
 42 40  2  0  0  0  0
 44 42  1  0  0  0  0
 45 44  1  0  0  0  0
 46 44  1  0  0  0  0
 46 39  2  0  0  0  0
M  END
>  <minimizedAffinity>
-4.86828279

>  <minimizedRMSD>
0.676148713

$$$$
