
 OpenBabel03242518173D

 22 23  0  0  0  0  0  0  0  0999 V2000
   44.9950   35.0980   44.9840 C   0  0  0  0  0  0  0  0  0  0  0  0
   45.8630   34.5790   44.0160 C   0  0  0  0  0  0  0  0  0  0  0  0
   46.5230   33.4120   44.3420 C   0  0  0  0  0  0  0  0  0  0  0  0
   46.3230   32.8270   45.5320 N   0  0  0  0  0  0  0  0  0  0  0  0
   45.4740   33.3590   46.4500 C   0  0  0  0  0  0  0  0  0  0  0  0
   44.8060   34.5040   46.1700 N   0  0  0  0  0  0  0  0  0  0  0  0
   44.4460   36.0120   44.7950 H   0  0  0  0  0  0  0  0  0  0  0  0
   47.1760   33.0370   43.5900 H   0  0  0  0  0  0  0  0  0  0  0  0
   45.9580   35.3190   42.8130 N   0  0  0  0  0  0  0  0  0  0  0  0
   45.0800   35.3920   42.2270 H   0  0  0  0  0  0  0  0  0  0  0  0
   46.8590   35.7810   42.5020 H   0  0  0  0  0  0  0  0  0  0  0  0
   45.2200   32.7490   47.7800 C   0  0  0  0  0  0  0  0  0  0  0  0
   44.7970   33.5140   48.4640 H   0  0  0  0  0  0  0  0  0  0  0  0
   44.4260   31.9740   47.5910 H   0  0  0  0  0  0  0  0  0  0  0  0
   46.4430   32.1220   48.3410 C   0  0  0  0  0  0  0  0  0  0  0  0
   47.7730   32.4210   48.2370 C   0  0  0  0  0  0  0  0  0  0  0  0
   48.1360   33.2580   47.6580 H   0  0  0  0  0  0  0  0  0  0  0  0
   48.4880   31.4910   48.9740 C   0  0  0  0  0  0  0  0  0  0  0  0
   49.5580   31.4660   49.0830 H   0  0  0  0  0  0  0  0  0  0  0  0
   47.5790   30.6530   49.5070 N   0  0  0  0  0  0  0  0  0  0  0  0
   47.7700   29.8270   50.1240 H   0  0  0  0  0  0  0  0  0  0  0  0
   46.3680   31.0340   49.1260 N   0  0  0  0  0  0  0  0  0  0  0  0
  1  6  1  0  0  0  0
  2  3  1  0  0  0  0
  2  1  2  0  0  0  0
  3  4  2  0  0  0  0
  4  5  1  0  0  0  0
  5 12  1  0  0  0  0
  6  5  2  0  0  0  0
  7  1  1  0  0  0  0
  8  3  1  0  0  0  0
  9  2  1  0  0  0  0
 10  9  1  0  0  0  0
 11  9  1  0  0  0  0
 12 15  1  0  0  0  0
 12 13  1  0  0  0  0
 14 12  1  0  0  0  0
 15 22  2  0  0  0  0
 16 15  1  0  0  0  0
 16 18  2  0  0  0  0
 17 16  1  0  0  0  0
 18 19  1  0  0  0  0
 18 20  1  0  0  0  0
 20 21  1  0  0  0  0
 22 20  1  0  0  0  0
M  END
>  <minimizedAffinity>
-4.44628859

>  <minimizedRMSD>
2.10521913

$$$$
