
 OpenBabel03252505143D

 24 26  0  0  0  0  0  0  0  0999 V2000
   44.8610   35.5300   43.9010 C   0  0  0  0  0  0  0  0  0  0  0  0
   45.8680   35.3530   42.9270 C   0  0  0  0  0  0  0  0  0  0  0  0
   46.8620   34.4420   43.2370 C   0  0  0  0  0  0  0  0  0  0  0  0
   46.8410   33.7640   44.4320 N   0  0  0  0  0  0  0  0  0  0  0  0
   45.8490   33.9630   45.3470 C   0  0  0  0  0  0  0  0  0  0  0  0
   44.8750   34.8450   45.0640 N   0  0  0  0  0  0  0  0  0  0  0  0
   44.1000   36.2500   43.6270 H   0  0  0  0  0  0  0  0  0  0  0  0
   45.8890   35.8730   42.0030 H   0  0  0  0  0  0  0  0  0  0  0  0
   47.9640   34.1580   42.2570 C   0  0  0  0  0  0  0  0  0  0  0  0
   48.4750   35.3970   41.5510 C   0  0  0  0  0  0  0  0  0  0  0  0
   49.3140   34.6000   42.5860 C   0  0  0  0  0  0  0  0  0  0  0  0
   47.7690   33.2750   41.6170 H   0  0  0  0  0  0  0  0  0  0  0  0
   48.8100   35.2440   40.5000 H   0  0  0  0  0  0  0  0  0  0  0  0
   48.1040   36.3860   41.8400 H   0  0  0  0  0  0  0  0  0  0  0  0
   50.1680   34.0180   42.1830 H   0  0  0  0  0  0  0  0  0  0  0  0
   49.5510   35.1830   43.4960 H   0  0  0  0  0  0  0  0  0  0  0  0
   45.8920   33.2080   46.5940 C   0  0  0  0  0  0  0  0  0  0  0  0
   46.9010   32.3590   46.9900 C   0  0  0  0  0  0  0  0  0  0  0  0
   47.8000   32.1380   46.4270 H   0  0  0  0  0  0  0  0  0  0  0  0
   46.5110   31.8720   48.2320 C   0  0  0  0  0  0  0  0  0  0  0  0
   47.0500   31.1820   48.8460 H   0  0  0  0  0  0  0  0  0  0  0  0
   45.3120   32.4160   48.5570 N   0  0  0  0  0  0  0  0  0  0  0  0
   44.7390   32.2730   49.4000 H   0  0  0  0  0  0  0  0  0  0  0  0
   44.9500   33.2260   47.5500 N   0  0  0  0  0  0  0  0  0  0  0  0
  1  6  1  0  0  0  0
  2  3  1  0  0  0  0
  2  1  2  0  0  0  0
  3  4  2  0  0  0  0
  4  5  1  0  0  0  0
  5 17  1  0  0  0  0
  6  5  2  0  0  0  0
  7  1  1  0  0  0  0
  8  2  1  0  0  0  0
  9 11  1  0  0  0  0
  9  3  1  0  0  0  0
 10 14  1  0  0  0  0
 10  9  1  0  0  0  0
 10 11  1  0  0  0  0
 11 16  1  0  0  0  0
 12  9  1  0  0  0  0
 13 10  1  0  0  0  0
 15 11  1  0  0  0  0
 17 18  1  0  0  0  0
 17 24  2  0  0  0  0
 18 20  2  0  0  0  0
 19 18  1  0  0  0  0
 20 22  1  0  0  0  0
 20 21  1  0  0  0  0
 22 23  1  0  0  0  0
 24 22  1  0  0  0  0
M  END
>  <minimizedAffinity>
-5.07111883

>  <minimizedRMSD>
0.853652179

$$$$
