
 OpenBabel03242514003D

 40 44  0  0  0  0  0  0  0  0999 V2000
   40.2080   32.4810   38.9030 C   0  0  0  0  0  0  0  0  0  0  0  0
   40.1790   33.7130   39.5300 C   0  0  0  0  0  0  0  0  0  0  0  0
   39.0040   34.0550   40.2580 C   0  0  0  0  0  0  0  0  0  0  0  0
   38.0020   33.1610   40.2880 N   0  0  0  0  0  0  0  0  0  0  0  0
   38.0530   31.9770   39.6760 C   0  0  0  0  0  0  0  0  0  0  0  0
   39.1850   31.6350   38.9680 N   0  0  0  0  0  0  0  0  0  0  0  0
   41.1020   32.2350   38.3560 H   0  0  0  0  0  0  0  0  0  0  0  0
   38.9520   35.0130   40.7590 H   0  0  0  0  0  0  0  0  0  0  0  0
   37.0060   30.9770   39.6750 C   0  0  0  0  0  0  0  0  0  0  0  0
   36.3260   30.6170   40.8450 C   0  0  0  0  0  0  0  0  0  0  0  0
   35.3880   29.6430   40.5240 C   0  0  0  0  0  0  0  0  0  0  0  0
   35.5210   29.4380   39.1830 N   0  0  0  0  0  0  0  0  0  0  0  0
   36.4840   30.2390   38.7050 N   0  0  0  0  0  0  0  0  0  0  0  0
   36.4020   30.9470   41.8900 H   0  0  0  0  0  0  0  0  0  0  0  0
   34.6910   29.1370   41.1690 H   0  0  0  0  0  0  0  0  0  0  0  0
   34.7990   28.5430   38.3440 C   0  0  0  0  0  0  0  0  0  0  0  0
   34.9890   27.3140   37.7010 C   0  0  0  0  0  0  0  0  0  0  0  0
   35.9710   26.8700   37.8620 H   0  0  0  0  0  0  0  0  0  0  0  0
   33.8220   27.0200   37.0260 C   0  0  0  0  0  0  0  0  0  0  0  0
   33.7750   26.1060   36.4670 H   0  0  0  0  0  0  0  0  0  0  0  0
   32.9560   28.0250   37.2460 N   0  0  0  0  0  0  0  0  0  0  0  0
   31.9940   28.0380   36.8400 H   0  0  0  0  0  0  0  0  0  0  0  0
   33.5360   28.9230   38.0250 N   0  0  0  0  0  0  0  0  0  0  0  0
   41.1960   34.6540   39.5150 O   0  0  0  0  0  0  0  0  0  0  0  0
   41.8440   35.1370   40.6410 C   0  0  0  0  0  0  0  0  0  0  0  0
   41.5050   36.2520   41.3780 C   0  0  0  0  0  0  0  0  0  0  0  0
   42.2550   36.5980   42.4750 C   0  0  0  0  0  0  0  0  0  0  0  0
   43.3600   35.8660   42.8860 C   0  0  0  0  0  0  0  0  0  0  0  0
   44.0400   36.2600   43.9590 N   0  0  0  0  0  0  0  0  0  0  0  0
   45.1160   35.5670   44.3790 C   0  0  0  0  0  0  0  0  0  0  0  0
   45.4930   34.4510   43.6790 C   0  0  0  0  0  0  0  0  0  0  0  0
   44.7770   34.0240   42.5400 C   0  0  0  0  0  0  0  0  0  0  0  0
   43.6780   34.7660   42.1430 C   0  0  0  0  0  0  0  0  0  0  0  0
   42.9500   34.3590   41.0100 C   0  0  0  0  0  0  0  0  0  0  0  0
   40.6400   36.7980   41.0300 H   0  0  0  0  0  0  0  0  0  0  0  0
   41.9480   37.4800   43.0180 H   0  0  0  0  0  0  0  0  0  0  0  0
   45.7080   35.8380   45.2420 H   0  0  0  0  0  0  0  0  0  0  0  0
   46.3330   33.8000   43.9020 H   0  0  0  0  0  0  0  0  0  0  0  0
   45.0590   33.1460   41.9750 H   0  0  0  0  0  0  0  0  0  0  0  0
   43.2970   33.4700   40.5000 H   0  0  0  0  0  0  0  0  0  0  0  0
  1  6  2  0  0  0  0
  1  2  1  0  0  0  0
  2  3  2  0  0  0  0
  3  4  1  0  0  0  0
  3  8  1  0  0  0  0
  5  4  2  0  0  0  0
  6  5  1  0  0  0  0
  7  1  1  0  0  0  0
  9  5  1  0  0  0  0
  9 10  1  0  0  0  0
 10 14  1  0  0  0  0
 11 10  2  0  0  0  0
 11 15  1  0  0  0  0
 12 11  1  0  0  0  0
 13 12  1  0  0  0  0
 13  9  2  0  0  0  0
 16 12  1  0  0  0  0
 17 18  1  0  0  0  0
 17 16  1  0  0  0  0
 19 21  1  0  0  0  0
 19 17  2  0  0  0  0
 20 19  1  0  0  0  0
 21 23  1  0  0  0  0
 22 21  1  0  0  0  0
 23 16  2  0  0  0  0
 24  2  1  0  0  0  0
 24 25  1  0  0  0  0
 25 34  2  0  0  0  0
 25 26  1  0  0  0  0
 26 27  2  0  0  0  0
 27 28  1  0  0  0  0
 27 36  1  0  0  0  0
 28 29  1  0  0  0  0
 29 30  2  0  0  0  0
 30 37  1  0  0  0  0
 31 38  1  0  0  0  0
 31 30  1  0  0  0  0
 32 31  2  0  0  0  0
 33 32  1  0  0  0  0
 33 28  2  0  0  0  0
 34 33  1  0  0  0  0
 35 26  1  0  0  0  0
 39 32  1  0  0  0  0
 40 34  1  0  0  0  0
M  END
>  <minimizedAffinity>
-7.0307579

$$$$

 OpenBabel03242514003D

 40 44  0  0  0  0  0  0  0  0999 V2000
   38.9880   33.0360   40.7950 C   0  0  0  0  0  0  0  0  0  0  0  0
   39.9340   33.2360   39.8060 C   0  0  0  0  0  0  0  0  0  0  0  0
   40.1450   32.1820   38.8730 C   0  0  0  0  0  0  0  0  0  0  0  0
   39.4150   31.0640   39.0130 N   0  0  0  0  0  0  0  0  0  0  0  0
   38.5070   30.8930   39.9750 C   0  0  0  0  0  0  0  0  0  0  0  0
   38.2940   31.9060   40.8840 N   0  0  0  0  0  0  0  0  0  0  0  0
   38.8390   33.8400   41.4940 H   0  0  0  0  0  0  0  0  0  0  0  0
   40.8790   32.3100   38.0870 H   0  0  0  0  0  0  0  0  0  0  0  0
   37.6930   29.7120   40.1730 C   0  0  0  0  0  0  0  0  0  0  0  0
   36.3070   29.7270   39.9730 C   0  0  0  0  0  0  0  0  0  0  0  0
   35.8130   28.4560   40.2390 C   0  0  0  0  0  0  0  0  0  0  0  0
   36.8990   27.7100   40.5900 N   0  0  0  0  0  0  0  0  0  0  0  0
   37.9980   28.4760   40.5430 N   0  0  0  0  0  0  0  0  0  0  0  0
   35.6000   30.5100   39.6660 H   0  0  0  0  0  0  0  0  0  0  0  0
   34.7980   28.1010   40.1910 H   0  0  0  0  0  0  0  0  0  0  0  0
   36.9510   26.3360   40.9610 C   0  0  0  0  0  0  0  0  0  0  0  0
   37.0940   25.5600   42.1160 C   0  0  0  0  0  0  0  0  0  0  0  0
   37.1990   26.1370   43.0350 H   0  0  0  0  0  0  0  0  0  0  0  0
   37.0560   24.2370   41.7290 C   0  0  0  0  0  0  0  0  0  0  0  0
   37.1510   23.4820   42.4850 H   0  0  0  0  0  0  0  0  0  0  0  0
   36.8990   24.2040   40.3940 N   0  0  0  0  0  0  0  0  0  0  0  0
   36.8400   23.3120   39.8550 H   0  0  0  0  0  0  0  0  0  0  0  0
   36.8360   25.4470   39.9430 N   0  0  0  0  0  0  0  0  0  0  0  0
   40.7020   34.3770   39.6380 O   0  0  0  0  0  0  0  0  0  0  0  0
   41.4800   34.9600   40.6270 C   0  0  0  0  0  0  0  0  0  0  0  0
   41.2440   36.1580   41.2680 C   0  0  0  0  0  0  0  0  0  0  0  0
   42.1170   36.5990   42.2320 C   0  0  0  0  0  0  0  0  0  0  0  0
   43.2500   35.8840   42.5980 C   0  0  0  0  0  0  0  0  0  0  0  0
   44.0520   36.3720   43.5390 N   0  0  0  0  0  0  0  0  0  0  0  0
   45.1570   35.6980   43.9130 C   0  0  0  0  0  0  0  0  0  0  0  0
   45.4350   34.5020   43.3030 C   0  0  0  0  0  0  0  0  0  0  0  0
   44.5890   33.9750   42.3040 C   0  0  0  0  0  0  0  0  0  0  0  0
   43.4640   34.7020   41.9500 C   0  0  0  0  0  0  0  0  0  0  0  0
   42.6080   34.1950   40.9560 C   0  0  0  0  0  0  0  0  0  0  0  0
   40.3540   36.6870   40.9590 H   0  0  0  0  0  0  0  0  0  0  0  0
   41.8880   37.5420   42.7040 H   0  0  0  0  0  0  0  0  0  0  0  0
   45.8470   36.0430   44.6710 H   0  0  0  0  0  0  0  0  0  0  0  0
   46.2840   33.8560   43.5040 H   0  0  0  0  0  0  0  0  0  0  0  0
   44.7910   33.0340   41.8120 H   0  0  0  0  0  0  0  0  0  0  0  0
   42.8800   33.2470   40.5120 H   0  0  0  0  0  0  0  0  0  0  0  0
  1  6  1  0  0  0  0
  1  7  1  0  0  0  0
  2  1  2  0  0  0  0
  3  4  2  0  0  0  0
  3  2  1  0  0  0  0
  4  5  1  0  0  0  0
  5  9  1  0  0  0  0
  5  6  2  0  0  0  0
  8  3  1  0  0  0  0
  9 13  2  0  0  0  0
 10  9  1  0  0  0  0
 10 11  2  0  0  0  0
 11 12  1  0  0  0  0
 12 16  1  0  0  0  0
 13 12  1  0  0  0  0
 14 10  1  0  0  0  0
 15 11  1  0  0  0  0
 16 17  1  0  0  0  0
 17 18  1  0  0  0  0
 19 17  2  0  0  0  0
 19 20  1  0  0  0  0
 21 19  1  0  0  0  0
 22 21  1  0  0  0  0
 23 21  1  0  0  0  0
 23 16  2  0  0  0  0
 24  2  1  0  0  0  0
 24 25  1  0  0  0  0
 25 34  2  0  0  0  0
 25 26  1  0  0  0  0
 26 27  2  0  0  0  0
 27 28  1  0  0  0  0
 27 36  1  0  0  0  0
 28 29  1  0  0  0  0
 29 30  2  0  0  0  0
 30 37  1  0  0  0  0
 31 38  1  0  0  0  0
 31 30  1  0  0  0  0
 32 31  2  0  0  0  0
 33 32  1  0  0  0  0
 33 28  2  0  0  0  0
 34 33  1  0  0  0  0
 35 26  1  0  0  0  0
 39 32  1  0  0  0  0
 40 34  1  0  0  0  0
M  END
>  <minimizedAffinity>
-6.75466299

$$$$

 OpenBabel03242514003D

 40 44  0  0  0  0  0  0  0  0999 V2000
   38.5610   30.2200   41.8360 C   0  0  0  0  0  0  0  0  0  0  0  0
   37.3000   30.2480   41.2710 C   0  0  0  0  0  0  0  0  0  0  0  0
   36.9720   31.3630   40.4480 C   0  0  0  0  0  0  0  0  0  0  0  0
   37.9050   32.3120   40.2750 N   0  0  0  0  0  0  0  0  0  0  0  0
   39.1170   32.2630   40.8310 C   0  0  0  0  0  0  0  0  0  0  0  0
   39.4460   31.1890   41.6300 N   0  0  0  0  0  0  0  0  0  0  0  0
   38.7960   29.3720   42.4560 H   0  0  0  0  0  0  0  0  0  0  0  0
   35.9910   31.4120   39.9910 H   0  0  0  0  0  0  0  0  0  0  0  0
   40.1600   33.2560   40.6800 C   0  0  0  0  0  0  0  0  0  0  0  0
   39.9520   34.4460   39.9720 C   0  0  0  0  0  0  0  0  0  0  0  0
   41.1270   35.1850   40.0040 C   0  0  0  0  0  0  0  0  0  0  0  0
   42.0100   34.4340   40.7220 N   0  0  0  0  0  0  0  0  0  0  0  0
   41.4130   33.2980   41.1100 N   0  0  0  0  0  0  0  0  0  0  0  0
   39.0860   34.8600   39.4380 H   0  0  0  0  0  0  0  0  0  0  0  0
   41.3340   36.1470   39.5660 H   0  0  0  0  0  0  0  0  0  0  0  0
   43.3630   34.7290   41.0550 C   0  0  0  0  0  0  0  0  0  0  0  0
   44.6520   34.3510   40.6620 C   0  0  0  0  0  0  0  0  0  0  0  0
   44.6800   33.6110   39.8630 H   0  0  0  0  0  0  0  0  0  0  0  0
   45.5420   35.0620   41.4410 C   0  0  0  0  0  0  0  0  0  0  0  0
   46.5920   34.9060   41.2840 H   0  0  0  0  0  0  0  0  0  0  0  0
   44.8290   35.8400   42.2730 N   0  0  0  0  0  0  0  0  0  0  0  0
   45.2760   36.4790   42.9690 H   0  0  0  0  0  0  0  0  0  0  0  0
   43.5420   35.6410   42.0430 N   0  0  0  0  0  0  0  0  0  0  0  0
   36.3170   29.2840   41.4320 O   0  0  0  0  0  0  0  0  0  0  0  0
   36.5540   27.9230   41.5420 C   0  0  0  0  0  0  0  0  0  0  0  0
   36.7210   27.2020   42.7060 C   0  0  0  0  0  0  0  0  0  0  0  0
   36.9490   25.8500   42.6430 C   0  0  0  0  0  0  0  0  0  0  0  0
   37.0230   25.1590   41.4420 C   0  0  0  0  0  0  0  0  0  0  0  0
   37.2480   23.8480   41.4570 N   0  0  0  0  0  0  0  0  0  0  0  0
   37.3250   23.1540   40.3040 C   0  0  0  0  0  0  0  0  0  0  0  0
   37.1660   23.8270   39.1200 C   0  0  0  0  0  0  0  0  0  0  0  0
   36.9260   25.2170   39.0940 C   0  0  0  0  0  0  0  0  0  0  0  0
   36.8560   25.8910   40.3020 C   0  0  0  0  0  0  0  0  0  0  0  0
   36.6180   27.2780   40.2990 C   0  0  0  0  0  0  0  0  0  0  0  0
   36.6570   27.7720   43.6220 H   0  0  0  0  0  0  0  0  0  0  0  0
   37.0730   25.3310   43.5820 H   0  0  0  0  0  0  0  0  0  0  0  0
   37.5050   22.0890   40.2530 H   0  0  0  0  0  0  0  0  0  0  0  0
   37.2020   23.3980   38.1240 H   0  0  0  0  0  0  0  0  0  0  0  0
   36.7980   25.7650   38.1710 H   0  0  0  0  0  0  0  0  0  0  0  0
   36.5010   27.7520   39.3330 H   0  0  0  0  0  0  0  0  0  0  0  0
  1  7  1  0  0  0  0
  2 24  1  0  0  0  0
  2  1  2  0  0  0  0
  3  2  1  0  0  0  0
  4  3  2  0  0  0  0
  4  5  1  0  0  0  0
  5  6  2  0  0  0  0
  6  1  1  0  0  0  0
  8  3  1  0  0  0  0
  9  5  1  0  0  0  0
  9 13  2  0  0  0  0
 10 11  2  0  0  0  0
 10  9  1  0  0  0  0
 11 12  1  0  0  0  0
 12 16  1  0  0  0  0
 12 13  1  0  0  0  0
 14 10  1  0  0  0  0
 15 11  1  0  0  0  0
 16 23  2  0  0  0  0
 17 16  1  0  0  0  0
 17 19  2  0  0  0  0
 18 17  1  0  0  0  0
 19 21  1  0  0  0  0
 20 19  1  0  0  0  0
 21 22  1  0  0  0  0
 23 21  1  0  0  0  0
 24 25  1  0  0  0  0
 25 26  1  0  0  0  0
 26 35  1  0  0  0  0
 27 26  2  0  0  0  0
 27 36  1  0  0  0  0
 28 29  1  0  0  0  0
 28 27  1  0  0  0  0
 30 29  2  0  0  0  0
 31 30  1  0  0  0  0
 32 31  2  0  0  0  0
 32 33  1  0  0  0  0
 33 28  2  0  0  0  0
 34 33  1  0  0  0  0
 34 25  2  0  0  0  0
 37 30  1  0  0  0  0
 38 31  1  0  0  0  0
 39 32  1  0  0  0  0
 40 34  1  0  0  0  0
M  END
>  <minimizedAffinity>
-6.69240761

$$$$

 OpenBabel03242514003D

 40 44  0  0  0  0  0  0  0  0999 V2000
   38.7540   27.6710   40.9640 C   0  0  0  0  0  0  0  0  0  0  0  0
   37.9690   27.2260   42.0110 C   0  0  0  0  0  0  0  0  0  0  0  0
   37.1640   28.1870   42.6860 C   0  0  0  0  0  0  0  0  0  0  0  0
   37.2200   29.4600   42.2640 N   0  0  0  0  0  0  0  0  0  0  0  0
   37.9860   29.8670   41.2510 C   0  0  0  0  0  0  0  0  0  0  0  0
   38.7700   28.9460   40.5900 N   0  0  0  0  0  0  0  0  0  0  0  0
   39.3580   26.9340   40.4630 H   0  0  0  0  0  0  0  0  0  0  0  0
   36.5380   27.8670   43.5100 H   0  0  0  0  0  0  0  0  0  0  0  0
   38.0860   31.2240   40.7550 C   0  0  0  0  0  0  0  0  0  0  0  0
   37.0450   31.8280   40.0400 C   0  0  0  0  0  0  0  0  0  0  0  0
   37.4360   33.1180   39.7040 C   0  0  0  0  0  0  0  0  0  0  0  0
   38.6920   33.2620   40.2160 N   0  0  0  0  0  0  0  0  0  0  0  0
   39.0520   32.1280   40.8330 N   0  0  0  0  0  0  0  0  0  0  0  0
   36.0510   31.4840   39.7250 H   0  0  0  0  0  0  0  0  0  0  0  0
   36.8930   33.8690   39.1560 H   0  0  0  0  0  0  0  0  0  0  0  0
   39.5520   34.3950   40.1560 C   0  0  0  0  0  0  0  0  0  0  0  0
   40.6940   34.8170   39.4650 C   0  0  0  0  0  0  0  0  0  0  0  0
   41.0760   34.0940   38.7440 H   0  0  0  0  0  0  0  0  0  0  0  0
   41.0080   36.0800   39.9240 C   0  0  0  0  0  0  0  0  0  0  0  0
   41.8630   36.5750   39.5070 H   0  0  0  0  0  0  0  0  0  0  0  0
   40.0980   36.4150   40.8560 N   0  0  0  0  0  0  0  0  0  0  0  0
   40.1170   37.3310   41.3580 H   0  0  0  0  0  0  0  0  0  0  0  0
   39.2390   35.4180   40.9900 N   0  0  0  0  0  0  0  0  0  0  0  0
   37.8910   25.9200   42.4680 O   0  0  0  0  0  0  0  0  0  0  0  0
   37.7980   24.8010   41.6550 C   0  0  0  0  0  0  0  0  0  0  0  0
   38.7980   23.8920   41.3790 C   0  0  0  0  0  0  0  0  0  0  0  0
   38.5430   22.8290   40.5480 C   0  0  0  0  0  0  0  0  0  0  0  0
   37.3030   22.6220   39.9590 C   0  0  0  0  0  0  0  0  0  0  0  0
   37.1280   21.5700   39.1640 N   0  0  0  0  0  0  0  0  0  0  0  0
   35.9350   21.3460   38.5800 C   0  0  0  0  0  0  0  0  0  0  0  0
   34.9090   22.2220   38.8230 C   0  0  0  0  0  0  0  0  0  0  0  0
   35.0850   23.3390   39.6670 C   0  0  0  0  0  0  0  0  0  0  0  0
   36.3280   23.5330   40.2450 C   0  0  0  0  0  0  0  0  0  0  0  0
   36.5260   24.6410   41.0890 C   0  0  0  0  0  0  0  0  0  0  0  0
   39.7500   24.0840   41.8540 H   0  0  0  0  0  0  0  0  0  0  0  0
   39.3590   22.1460   40.3630 H   0  0  0  0  0  0  0  0  0  0  0  0
   35.7320   20.5100   37.9240 H   0  0  0  0  0  0  0  0  0  0  0  0
   33.9010   22.1650   38.4240 H   0  0  0  0  0  0  0  0  0  0  0  0
   34.2880   24.0420   39.8710 H   0  0  0  0  0  0  0  0  0  0  0  0
   35.6780   25.2960   41.2420 H   0  0  0  0  0  0  0  0  0  0  0  0
  1  2  1  0  0  0  0
  2 24  1  0  0  0  0
  2  3  2  0  0  0  0
  3  8  1  0  0  0  0
  4  3  1  0  0  0  0
  5  4  2  0  0  0  0
  6  1  2  0  0  0  0
  6  5  1  0  0  0  0
  7  1  1  0  0  0  0
  9 13  2  0  0  0  0
  9  5  1  0  0  0  0
 10  9  1  0  0  0  0
 11 10  2  0  0  0  0
 11 12  1  0  0  0  0
 12 13  1  0  0  0  0
 14 10  1  0  0  0  0
 15 11  1  0  0  0  0
 16 12  1  0  0  0  0
 16 23  2  0  0  0  0
 17 19  2  0  0  0  0
 17 16  1  0  0  0  0
 18 17  1  0  0  0  0
 19 21  1  0  0  0  0
 20 19  1  0  0  0  0
 21 23  1  0  0  0  0
 21 22  1  0  0  0  0
 25 24  1  0  0  0  0
 26 25  1  0  0  0  0
 26 35  1  0  0  0  0
 27 26  2  0  0  0  0
 28 33  1  0  0  0  0
 28 27  1  0  0  0  0
 29 28  2  0  0  0  0
 30 31  2  0  0  0  0
 30 29  1  0  0  0  0
 31 32  1  0  0  0  0
 32 39  1  0  0  0  0
 32 33  2  0  0  0  0
 33 34  1  0  0  0  0
 34 40  1  0  0  0  0
 34 25  2  0  0  0  0
 36 27  1  0  0  0  0
 37 30  1  0  0  0  0
 38 31  1  0  0  0  0
M  END
>  <minimizedAffinity>
-6.67739773

$$$$

 OpenBabel03242514003D

 40 44  0  0  0  0  0  0  0  0999 V2000
   38.4530   30.5160   41.5050 C   0  0  0  0  0  0  0  0  0  0  0  0
   37.2260   30.6000   40.8740 C   0  0  0  0  0  0  0  0  0  0  0  0
   36.9500   31.7800   40.1260 C   0  0  0  0  0  0  0  0  0  0  0  0
   37.8960   32.7320   40.0820 N   0  0  0  0  0  0  0  0  0  0  0  0
   39.0730   32.6280   40.7000 C   0  0  0  0  0  0  0  0  0  0  0  0
   39.3520   31.4910   41.4270 N   0  0  0  0  0  0  0  0  0  0  0  0
   38.6490   29.6190   42.0680 H   0  0  0  0  0  0  0  0  0  0  0  0
   35.9970   31.8740   39.6200 H   0  0  0  0  0  0  0  0  0  0  0  0
   40.1280   33.6210   40.6880 C   0  0  0  0  0  0  0  0  0  0  0  0
   40.0200   34.8050   39.9480 C   0  0  0  0  0  0  0  0  0  0  0  0
   41.1800   35.5460   40.1370 C   0  0  0  0  0  0  0  0  0  0  0  0
   41.9530   34.8020   40.9790 N   0  0  0  0  0  0  0  0  0  0  0  0
   41.3080   33.6690   41.2890 N   0  0  0  0  0  0  0  0  0  0  0  0
   39.2380   35.2140   39.2940 H   0  0  0  0  0  0  0  0  0  0  0  0
   41.4450   36.5040   39.7250 H   0  0  0  0  0  0  0  0  0  0  0  0
   43.2460   35.1010   41.4950 C   0  0  0  0  0  0  0  0  0  0  0  0
   44.5780   34.7210   41.2910 C   0  0  0  0  0  0  0  0  0  0  0  0
   44.7170   33.9750   40.5090 H   0  0  0  0  0  0  0  0  0  0  0  0
   45.3500   35.4400   42.1800 C   0  0  0  0  0  0  0  0  0  0  0  0
   46.4110   35.2840   42.1730 H   0  0  0  0  0  0  0  0  0  0  0  0
   44.5270   36.2240   42.8980 N   0  0  0  0  0  0  0  0  0  0  0  0
   44.8720   36.8690   43.6430 H   0  0  0  0  0  0  0  0  0  0  0  0
   43.2850   36.0210   42.4910 N   0  0  0  0  0  0  0  0  0  0  0  0
   36.2320   29.6350   40.9010 O   0  0  0  0  0  0  0  0  0  0  0  0
   36.3880   28.3260   40.4720 C   0  0  0  0  0  0  0  0  0  0  0  0
   36.2090   27.8480   39.1910 C   0  0  0  0  0  0  0  0  0  0  0  0
   36.4040   26.5140   38.9280 C   0  0  0  0  0  0  0  0  0  0  0  0
   36.7790   25.6060   39.9090 C   0  0  0  0  0  0  0  0  0  0  0  0
   36.9500   24.3280   39.5820 N   0  0  0  0  0  0  0  0  0  0  0  0
   37.3140   23.4270   40.5150 C   0  0  0  0  0  0  0  0  0  0  0  0
   37.5030   23.8540   41.8030 C   0  0  0  0  0  0  0  0  0  0  0  0
   37.3250   25.2080   42.1590 C   0  0  0  0  0  0  0  0  0  0  0  0
   36.9500   26.1010   41.1690 C   0  0  0  0  0  0  0  0  0  0  0  0
   36.7660   27.4550   41.5030 C   0  0  0  0  0  0  0  0  0  0  0  0
   35.9180   28.5820   38.4530 H   0  0  0  0  0  0  0  0  0  0  0  0
   36.2520   26.1890   37.9100 H   0  0  0  0  0  0  0  0  0  0  0  0
   37.4680   22.3760   40.3100 H   0  0  0  0  0  0  0  0  0  0  0  0
   37.7950   23.2420   42.6510 H   0  0  0  0  0  0  0  0  0  0  0  0
   37.4690   25.5640   43.1700 H   0  0  0  0  0  0  0  0  0  0  0  0
   36.9310   27.7310   42.5360 H   0  0  0  0  0  0  0  0  0  0  0  0
  1  7  1  0  0  0  0
  2 24  1  0  0  0  0
  2  1  2  0  0  0  0
  3  2  1  0  0  0  0
  4  3  2  0  0  0  0
  4  5  1  0  0  0  0
  5  6  2  0  0  0  0
  6  1  1  0  0  0  0
  8  3  1  0  0  0  0
  9  5  1  0  0  0  0
  9 13  2  0  0  0  0
 10 11  2  0  0  0  0
 10  9  1  0  0  0  0
 11 12  1  0  0  0  0
 12 13  1  0  0  0  0
 12 16  1  0  0  0  0
 14 10  1  0  0  0  0
 15 11  1  0  0  0  0
 16 23  2  0  0  0  0
 17 16  1  0  0  0  0
 17 19  2  0  0  0  0
 18 17  1  0  0  0  0
 19 21  1  0  0  0  0
 20 19  1  0  0  0  0
 21 22  1  0  0  0  0
 23 21  1  0  0  0  0
 25 24  1  0  0  0  0
 25 34  1  0  0  0  0
 26 25  2  0  0  0  0
 27 26  1  0  0  0  0
 27 28  2  0  0  0  0
 28 33  1  0  0  0  0
 29 28  1  0  0  0  0
 29 30  2  0  0  0  0
 30 31  1  0  0  0  0
 31 32  2  0  0  0  0
 31 38  1  0  0  0  0
 32 39  1  0  0  0  0
 33 34  2  0  0  0  0
 33 32  1  0  0  0  0
 34 40  1  0  0  0  0
 35 26  1  0  0  0  0
 36 27  1  0  0  0  0
 37 30  1  0  0  0  0
M  END
>  <minimizedAffinity>
-6.6493926

$$$$

 OpenBabel03242514003D

 40 44  0  0  0  0  0  0  0  0999 V2000
   38.7370   31.1670   38.7850 C   0  0  0  0  0  0  0  0  0  0  0  0
   37.4000   31.1970   39.1320 C   0  0  0  0  0  0  0  0  0  0  0  0
   36.9490   32.2910   39.9240 C   0  0  0  0  0  0  0  0  0  0  0  0
   37.8510   33.2200   40.2820 N   0  0  0  0  0  0  0  0  0  0  0  0
   39.1380   33.1700   39.9350 C   0  0  0  0  0  0  0  0  0  0  0  0
   39.5850   32.1150   39.1680 N   0  0  0  0  0  0  0  0  0  0  0  0
   39.0650   30.3340   38.1860 H   0  0  0  0  0  0  0  0  0  0  0  0
   35.9060   32.3430   40.2120 H   0  0  0  0  0  0  0  0  0  0  0  0
   40.1510   34.1400   40.2910 C   0  0  0  0  0  0  0  0  0  0  0  0
   40.0340   35.4930   39.9480 C   0  0  0  0  0  0  0  0  0  0  0  0
   41.1520   36.1640   40.4250 C   0  0  0  0  0  0  0  0  0  0  0  0
   41.9130   35.2130   41.0390 N   0  0  0  0  0  0  0  0  0  0  0  0
   41.2980   34.0250   40.9470 N   0  0  0  0  0  0  0  0  0  0  0  0
   39.2690   36.0670   39.4070 H   0  0  0  0  0  0  0  0  0  0  0  0
   41.4000   37.2080   40.3440 H   0  0  0  0  0  0  0  0  0  0  0  0
   43.1660   35.3660   41.6980 C   0  0  0  0  0  0  0  0  0  0  0  0
   44.5190   35.0980   41.4650 C   0  0  0  0  0  0  0  0  0  0  0  0
   44.7270   34.6340   40.5010 H   0  0  0  0  0  0  0  0  0  0  0  0
   45.2180   35.5230   42.5770 C   0  0  0  0  0  0  0  0  0  0  0  0
   46.2830   35.4000   42.5850 H   0  0  0  0  0  0  0  0  0  0  0  0
   44.3300   36.0270   43.4520 N   0  0  0  0  0  0  0  0  0  0  0  0
   44.6120   36.4170   44.3790 H   0  0  0  0  0  0  0  0  0  0  0  0
   43.1190   35.9330   42.9300 N   0  0  0  0  0  0  0  0  0  0  0  0
   36.4480   30.2540   38.7780 O   0  0  0  0  0  0  0  0  0  0  0  0
   36.5290   28.9010   39.0680 C   0  0  0  0  0  0  0  0  0  0  0  0
   36.4640   27.8560   38.1700 C   0  0  0  0  0  0  0  0  0  0  0  0
   36.5620   26.5630   38.6200 C   0  0  0  0  0  0  0  0  0  0  0  0
   36.7250   26.2490   39.9630 C   0  0  0  0  0  0  0  0  0  0  0  0
   36.8120   24.9730   40.3280 N   0  0  0  0  0  0  0  0  0  0  0  0
   36.9700   24.6420   41.6240 C   0  0  0  0  0  0  0  0  0  0  0  0
   37.0390   25.6460   42.5550 C   0  0  0  0  0  0  0  0  0  0  0  0
   36.9500   27.0020   42.1770 C   0  0  0  0  0  0  0  0  0  0  0  0
   36.7860   27.2980   40.8340 C   0  0  0  0  0  0  0  0  0  0  0  0
   36.6940   28.6440   40.4360 C   0  0  0  0  0  0  0  0  0  0  0  0
   36.3370   28.1360   37.1340 H   0  0  0  0  0  0  0  0  0  0  0  0
   36.5050   25.7810   37.8780 H   0  0  0  0  0  0  0  0  0  0  0  0
   37.0460   23.6240   41.9810 H   0  0  0  0  0  0  0  0  0  0  0  0
   37.1660   25.5260   43.6260 H   0  0  0  0  0  0  0  0  0  0  0  0
   37.0020   27.8080   42.8970 H   0  0  0  0  0  0  0  0  0  0  0  0
   36.7560   29.3900   41.2170 H   0  0  0  0  0  0  0  0  0  0  0  0
  1  2  2  0  0  0  0
  1  6  1  0  0  0  0
  2  3  1  0  0  0  0
  3  8  1  0  0  0  0
  3  4  2  0  0  0  0
  5  4  1  0  0  0  0
  5  9  1  0  0  0  0
  6  5  2  0  0  0  0
  7  1  1  0  0  0  0
  9 13  2  0  0  0  0
 10  9  1  0  0  0  0
 10 11  2  0  0  0  0
 11 12  1  0  0  0  0
 12 16  1  0  0  0  0
 13 12  1  0  0  0  0
 14 10  1  0  0  0  0
 15 11  1  0  0  0  0
 16 23  2  0  0  0  0
 17 16  1  0  0  0  0
 17 19  2  0  0  0  0
 18 17  1  0  0  0  0
 19 20  1  0  0  0  0
 19 21  1  0  0  0  0
 21 22  1  0  0  0  0
 23 21  1  0  0  0  0
 24 25  1  0  0  0  0
 24  2  1  0  0  0  0
 25 34  1  0  0  0  0
 26 27  1  0  0  0  0
 26 25  2  0  0  0  0
 27 28  2  0  0  0  0
 28 29  1  0  0  0  0
 28 33  1  0  0  0  0
 29 30  2  0  0  0  0
 30 37  1  0  0  0  0
 30 31  1  0  0  0  0
 31 38  1  0  0  0  0
 32 31  2  0  0  0  0
 32 39  1  0  0  0  0
 33 32  1  0  0  0  0
 34 33  2  0  0  0  0
 34 40  1  0  0  0  0
 35 26  1  0  0  0  0
 36 27  1  0  0  0  0
M  END
>  <minimizedAffinity>
-6.58751917

$$$$

 OpenBabel03242514003D

 40 44  0  0  0  0  0  0  0  0999 V2000
   38.5120   30.1360   41.2690 C   0  0  0  0  0  0  0  0  0  0  0  0
   37.1940   30.3070   40.8890 C   0  0  0  0  0  0  0  0  0  0  0  0
   36.8110   31.5860   40.3950 C   0  0  0  0  0  0  0  0  0  0  0  0
   37.7520   32.5410   40.3310 N   0  0  0  0  0  0  0  0  0  0  0  0
   39.0190   32.3530   40.7030 C   0  0  0  0  0  0  0  0  0  0  0  0
   39.4020   31.1190   41.1830 N   0  0  0  0  0  0  0  0  0  0  0  0
   38.7880   29.1640   41.6420 H   0  0  0  0  0  0  0  0  0  0  0  0
   35.7850   31.7500   40.0900 H   0  0  0  0  0  0  0  0  0  0  0  0
   40.0730   33.3450   40.6560 C   0  0  0  0  0  0  0  0  0  0  0  0
   39.8970   34.5820   40.0240 C   0  0  0  0  0  0  0  0  0  0  0  0
   41.0750   35.3080   40.1460 C   0  0  0  0  0  0  0  0  0  0  0  0
   41.9280   34.5020   40.8420 N   0  0  0  0  0  0  0  0  0  0  0  0
   41.3110   33.3470   41.1310 N   0  0  0  0  0  0  0  0  0  0  0  0
   39.0530   35.0390   39.4900 H   0  0  0  0  0  0  0  0  0  0  0  0
   41.3030   36.2940   39.7830 H   0  0  0  0  0  0  0  0  0  0  0  0
   43.2700   34.7610   41.2400 C   0  0  0  0  0  0  0  0  0  0  0  0
   44.5700   34.4000   40.8670 C   0  0  0  0  0  0  0  0  0  0  0  0
   44.6210   33.7160   40.0210 H   0  0  0  0  0  0  0  0  0  0  0  0
   45.4370   35.0480   41.7220 C   0  0  0  0  0  0  0  0  0  0  0  0
   46.4900   34.8950   41.5920 H   0  0  0  0  0  0  0  0  0  0  0  0
   44.6990   35.7740   42.5810 N   0  0  0  0  0  0  0  0  0  0  0  0
   45.1260   36.3610   43.3330 H   0  0  0  0  0  0  0  0  0  0  0  0
   43.4200   35.6030   42.2940 N   0  0  0  0  0  0  0  0  0  0  0  0
   36.2020   29.3410   40.9450 O   0  0  0  0  0  0  0  0  0  0  0  0
   35.7780   28.5780   39.8680 C   0  0  0  0  0  0  0  0  0  0  0  0
   36.3190   27.3850   39.4340 C   0  0  0  0  0  0  0  0  0  0  0  0
   35.7800   26.7500   38.3430 C   0  0  0  0  0  0  0  0  0  0  0  0
   34.6960   27.2590   37.6410 C   0  0  0  0  0  0  0  0  0  0  0  0
   34.2260   26.5890   36.5930 N   0  0  0  0  0  0  0  0  0  0  0  0
   33.1750   27.0620   35.8950 C   0  0  0  0  0  0  0  0  0  0  0  0
   32.6040   28.2440   36.2870 C   0  0  0  0  0  0  0  0  0  0  0  0
   33.0940   28.9610   37.3990 C   0  0  0  0  0  0  0  0  0  0  0  0
   34.1770   28.4400   38.0880 C   0  0  0  0  0  0  0  0  0  0  0  0
   34.6830   29.1390   39.1980 C   0  0  0  0  0  0  0  0  0  0  0  0
   37.1610   27.0180   40.0040 H   0  0  0  0  0  0  0  0  0  0  0  0
   36.2390   25.8190   38.0430 H   0  0  0  0  0  0  0  0  0  0  0  0
   32.7490   26.5630   35.0350 H   0  0  0  0  0  0  0  0  0  0  0  0
   31.7570   28.7390   35.8220 H   0  0  0  0  0  0  0  0  0  0  0  0
   32.6570   29.8960   37.7240 H   0  0  0  0  0  0  0  0  0  0  0  0
   34.1890   30.0660   39.4590 H   0  0  0  0  0  0  0  0  0  0  0  0
  1  7  1  0  0  0  0
  2 24  1  0  0  0  0
  2  1  2  0  0  0  0
  3  2  1  0  0  0  0
  4  3  2  0  0  0  0
  4  5  1  0  0  0  0
  5  6  2  0  0  0  0
  6  1  1  0  0  0  0
  8  3  1  0  0  0  0
  9  5  1  0  0  0  0
  9 13  2  0  0  0  0
 10 11  2  0  0  0  0
 10  9  1  0  0  0  0
 11 12  1  0  0  0  0
 12 13  1  0  0  0  0
 12 16  1  0  0  0  0
 14 10  1  0  0  0  0
 15 11  1  0  0  0  0
 16 23  2  0  0  0  0
 17 16  1  0  0  0  0
 17 19  2  0  0  0  0
 18 17  1  0  0  0  0
 19 21  1  0  0  0  0
 20 19  1  0  0  0  0
 21 22  1  0  0  0  0
 23 21  1  0  0  0  0
 25 24  1  0  0  0  0
 26 25  1  0  0  0  0
 26 35  1  0  0  0  0
 27 26  2  0  0  0  0
 28 33  1  0  0  0  0
 28 27  1  0  0  0  0
 29 28  2  0  0  0  0
 30 31  2  0  0  0  0
 30 29  1  0  0  0  0
 31 32  1  0  0  0  0
 32 39  1  0  0  0  0
 32 33  2  0  0  0  0
 33 34  1  0  0  0  0
 34 40  1  0  0  0  0
 34 25  2  0  0  0  0
 36 27  1  0  0  0  0
 37 30  1  0  0  0  0
 38 31  1  0  0  0  0
M  END
>  <minimizedAffinity>
-6.22751284

$$$$

 OpenBabel03242514003D

 40 44  0  0  0  0  0  0  0  0999 V2000
   38.3230   27.0860   40.2630 C   0  0  0  0  0  0  0  0  0  0  0  0
   37.5300   26.5890   41.2810 C   0  0  0  0  0  0  0  0  0  0  0  0
   36.7820   27.5250   42.0500 C   0  0  0  0  0  0  0  0  0  0  0  0
   36.8960   28.8270   41.7380 N   0  0  0  0  0  0  0  0  0  0  0  0
   37.6680   29.2830   40.7500 C   0  0  0  0  0  0  0  0  0  0  0  0
   38.3970   28.3860   39.9990 N   0  0  0  0  0  0  0  0  0  0  0  0
   38.8840   26.3670   39.6900 H   0  0  0  0  0  0  0  0  0  0  0  0
   36.1520   27.1660   42.8530 H   0  0  0  0  0  0  0  0  0  0  0  0
   37.8280   30.6710   40.3710 C   0  0  0  0  0  0  0  0  0  0  0  0
   36.8570   31.3500   39.6240 C   0  0  0  0  0  0  0  0  0  0  0  0
   37.2940   32.6530   39.4220 C   0  0  0  0  0  0  0  0  0  0  0  0
   38.5060   32.7320   40.0430 N   0  0  0  0  0  0  0  0  0  0  0  0
   38.7980   31.5460   40.5970 N   0  0  0  0  0  0  0  0  0  0  0  0
   35.8870   31.0520   39.2040 H   0  0  0  0  0  0  0  0  0  0  0  0
   36.8090   33.4550   38.8930 H   0  0  0  0  0  0  0  0  0  0  0  0
   39.3850   33.8480   40.1400 C   0  0  0  0  0  0  0  0  0  0  0  0
   40.5850   34.2970   39.5780 C   0  0  0  0  0  0  0  0  0  0  0  0
   41.0140   33.6240   38.8370 H   0  0  0  0  0  0  0  0  0  0  0  0
   40.8780   35.5140   40.1580 C   0  0  0  0  0  0  0  0  0  0  0  0
   41.7720   36.0210   39.8510 H   0  0  0  0  0  0  0  0  0  0  0  0
   39.9010   35.7970   41.0370 N   0  0  0  0  0  0  0  0  0  0  0  0
   39.8920   36.6710   41.6090 H   0  0  0  0  0  0  0  0  0  0  0  0
   39.0190   34.8100   41.0240 N   0  0  0  0  0  0  0  0  0  0  0  0
   37.3940   25.2540   41.6250 O   0  0  0  0  0  0  0  0  0  0  0  0
   37.0460   24.2410   40.7450 C   0  0  0  0  0  0  0  0  0  0  0  0
   36.0010   24.2480   39.8450 C   0  0  0  0  0  0  0  0  0  0  0  0
   35.7890   23.1580   39.0380 C   0  0  0  0  0  0  0  0  0  0  0  0
   36.5910   22.0260   39.0850 C   0  0  0  0  0  0  0  0  0  0  0  0
   36.3260   21.0070   38.2730 N   0  0  0  0  0  0  0  0  0  0  0  0
   37.0890   19.8960   38.2990 C   0  0  0  0  0  0  0  0  0  0  0  0
   38.1400   19.8410   39.1770 C   0  0  0  0  0  0  0  0  0  0  0  0
   38.4300   20.9180   40.0410 C   0  0  0  0  0  0  0  0  0  0  0  0
   37.6190   22.0400   39.9820 C   0  0  0  0  0  0  0  0  0  0  0  0
   37.8900   23.1250   40.8360 C   0  0  0  0  0  0  0  0  0  0  0  0
   35.3980   25.1450   39.8360 H   0  0  0  0  0  0  0  0  0  0  0  0
   34.9580   23.2130   38.3510 H   0  0  0  0  0  0  0  0  0  0  0  0
   36.9240   19.0360   37.6640 H   0  0  0  0  0  0  0  0  0  0  0  0
   38.8340   19.0160   39.3040 H   0  0  0  0  0  0  0  0  0  0  0  0
   39.2540   20.8940   40.7410 H   0  0  0  0  0  0  0  0  0  0  0  0
   38.7330   23.0220   41.5060 H   0  0  0  0  0  0  0  0  0  0  0  0
  1  2  1  0  0  0  0
  2 24  1  0  0  0  0
  2  3  2  0  0  0  0
  3  8  1  0  0  0  0
  4  3  1  0  0  0  0
  5  4  2  0  0  0  0
  6  1  2  0  0  0  0
  6  5  1  0  0  0  0
  7  1  1  0  0  0  0
  9 13  2  0  0  0  0
  9  5  1  0  0  0  0
 10  9  1  0  0  0  0
 11 10  2  0  0  0  0
 11 12  1  0  0  0  0
 12 16  1  0  0  0  0
 12 13  1  0  0  0  0
 14 10  1  0  0  0  0
 15 11  1  0  0  0  0
 16 23  2  0  0  0  0
 17 16  1  0  0  0  0
 17 19  2  0  0  0  0
 18 17  1  0  0  0  0
 19 21  1  0  0  0  0
 20 19  1  0  0  0  0
 21 22  1  0  0  0  0
 23 21  1  0  0  0  0
 25 34  1  0  0  0  0
 25 24  1  0  0  0  0
 26 25  2  0  0  0  0
 27 28  2  0  0  0  0
 27 26  1  0  0  0  0
 28 33  1  0  0  0  0
 29 30  2  0  0  0  0
 29 28  1  0  0  0  0
 30 31  1  0  0  0  0
 31 38  1  0  0  0  0
 31 32  2  0  0  0  0
 32 39  1  0  0  0  0
 33 32  1  0  0  0  0
 33 34  2  0  0  0  0
 34 40  1  0  0  0  0
 35 26  1  0  0  0  0
 36 27  1  0  0  0  0
 37 30  1  0  0  0  0
M  END
>  <minimizedAffinity>
-6.17497015

$$$$

 OpenBabel03242514003D

 40 44  0  0  0  0  0  0  0  0999 V2000
   38.6570   30.5120   38.9850 C   0  0  0  0  0  0  0  0  0  0  0  0
   38.0910   31.6210   39.5850 C   0  0  0  0  0  0  0  0  0  0  0  0
   37.2620   31.4050   40.7220 C   0  0  0  0  0  0  0  0  0  0  0  0
   37.0840   30.1400   41.1370 N   0  0  0  0  0  0  0  0  0  0  0  0
   37.6410   29.0840   40.5420 C   0  0  0  0  0  0  0  0  0  0  0  0
   38.4450   29.2810   39.4400 N   0  0  0  0  0  0  0  0  0  0  0  0
   39.2810   30.6900   38.1260 H   0  0  0  0  0  0  0  0  0  0  0  0
   36.8050   32.2550   41.2140 H   0  0  0  0  0  0  0  0  0  0  0  0
   37.4840   27.7030   40.9460 C   0  0  0  0  0  0  0  0  0  0  0  0
   36.9810   27.3520   42.2050 C   0  0  0  0  0  0  0  0  0  0  0  0
   36.9490   25.9660   42.2930 C   0  0  0  0  0  0  0  0  0  0  0  0
   37.4280   25.5150   41.0980 N   0  0  0  0  0  0  0  0  0  0  0  0
   37.7360   26.5620   40.3200 N   0  0  0  0  0  0  0  0  0  0  0  0
   36.6370   27.9400   43.0660 H   0  0  0  0  0  0  0  0  0  0  0  0
   36.6250   25.3480   43.1120 H   0  0  0  0  0  0  0  0  0  0  0  0
   37.6040   24.1710   40.6620 C   0  0  0  0  0  0  0  0  0  0  0  0
   38.6420   23.2520   40.4710 C   0  0  0  0  0  0  0  0  0  0  0  0
   39.6330   23.6340   40.7170 H   0  0  0  0  0  0  0  0  0  0  0  0
   38.0750   22.0840   40.0060 C   0  0  0  0  0  0  0  0  0  0  0  0
   38.7190   21.2520   39.7990 H   0  0  0  0  0  0  0  0  0  0  0  0
   36.7470   22.2790   39.9160 N   0  0  0  0  0  0  0  0  0  0  0  0
   36.0900   21.5380   39.5870 H   0  0  0  0  0  0  0  0  0  0  0  0
   36.4730   23.5140   40.3050 N   0  0  0  0  0  0  0  0  0  0  0  0
   38.2560   32.9360   39.1790 O   0  0  0  0  0  0  0  0  0  0  0  0
   39.0910   33.8560   39.7950 C   0  0  0  0  0  0  0  0  0  0  0  0
   38.8120   35.1810   40.0580 C   0  0  0  0  0  0  0  0  0  0  0  0
   39.7520   35.9640   40.6800 C   0  0  0  0  0  0  0  0  0  0  0  0
   40.9950   35.4780   41.0640 C   0  0  0  0  0  0  0  0  0  0  0  0
   41.8570   36.2950   41.6630 N   0  0  0  0  0  0  0  0  0  0  0  0
   43.0690   35.8490   42.0450 C   0  0  0  0  0  0  0  0  0  0  0  0
   43.3930   34.5380   41.8050 C   0  0  0  0  0  0  0  0  0  0  0  0
   42.4840   33.6640   41.1720 C   0  0  0  0  0  0  0  0  0  0  0  0
   41.2500   34.1650   40.7940 C   0  0  0  0  0  0  0  0  0  0  0  0
   40.3290   33.3100   40.1610 C   0  0  0  0  0  0  0  0  0  0  0  0
   37.8360   35.5250   39.7460 H   0  0  0  0  0  0  0  0  0  0  0  0
   39.4860   36.9940   40.8640 H   0  0  0  0  0  0  0  0  0  0  0  0
   43.8110   36.4640   42.5350 H   0  0  0  0  0  0  0  0  0  0  0  0
   44.3270   34.0460   42.0580 H   0  0  0  0  0  0  0  0  0  0  0  0
   42.7210   32.6270   40.9740 H   0  0  0  0  0  0  0  0  0  0  0  0
   40.6420   32.2870   39.9990 H   0  0  0  0  0  0  0  0  0  0  0  0
  1  6  2  0  0  0  0
  1  2  1  0  0  0  0
  2  3  2  0  0  0  0
  3  4  1  0  0  0  0
  3  8  1  0  0  0  0
  5  9  1  0  0  0  0
  5  4  2  0  0  0  0
  6  5  1  0  0  0  0
  7  1  1  0  0  0  0
  9 10  1  0  0  0  0
 10 11  2  0  0  0  0
 10 14  1  0  0  0  0
 11 15  1  0  0  0  0
 12 11  1  0  0  0  0
 13  9  2  0  0  0  0
 13 12  1  0  0  0  0
 16 12  1  0  0  0  0
 17 16  1  0  0  0  0
 17 18  1  0  0  0  0
 19 17  2  0  0  0  0
 20 19  1  0  0  0  0
 21 19  1  0  0  0  0
 21 23  1  0  0  0  0
 22 21  1  0  0  0  0
 23 16  2  0  0  0  0
 24  2  1  0  0  0  0
 24 25  1  0  0  0  0
 25 26  2  0  0  0  0
 25 34  1  0  0  0  0
 26 27  1  0  0  0  0
 27 36  1  0  0  0  0
 27 28  2  0  0  0  0
 28 29  1  0  0  0  0
 29 30  2  0  0  0  0
 30 37  1  0  0  0  0
 31 30  1  0  0  0  0
 31 38  1  0  0  0  0
 32 31  2  0  0  0  0
 33 28  1  0  0  0  0
 33 32  1  0  0  0  0
 34 33  2  0  0  0  0
 35 26  1  0  0  0  0
 39 32  1  0  0  0  0
 40 34  1  0  0  0  0
M  END
>  <minimizedAffinity>
-6.13675833

$$$$
