
 OpenBabel03252501593D

 35 37  0  0  0  0  0  0  0  0999 V2000
   44.3980   36.3270   45.1970 C   0  0  0  0  0  0  0  0  0  0  0  0
   45.1490   36.2290   44.0210 C   0  0  0  0  0  0  0  0  0  0  0  0
   45.9020   35.1150   43.7990 C   0  0  0  0  0  0  0  0  0  0  0  0
   45.8970   34.1190   44.7440 N   0  0  0  0  0  0  0  0  0  0  0  0
   45.1640   34.2260   45.8820 C   0  0  0  0  0  0  0  0  0  0  0  0
   44.4160   35.3220   46.1130 N   0  0  0  0  0  0  0  0  0  0  0  0
   43.7250   37.0240   45.5980 H   0  0  0  0  0  0  0  0  0  0  0  0
   45.3070   33.3320   46.4800 H   0  0  0  0  0  0  0  0  0  0  0  0
   46.6540   35.0110   42.5850 C   0  0  0  0  0  0  0  0  0  0  0  0
   47.9060   35.4730   42.3110 C   0  0  0  0  0  0  0  0  0  0  0  0
   48.4630   35.2670   41.0610 C   0  0  0  0  0  0  0  0  0  0  0  0
   47.7670   34.6000   40.0830 C   0  0  0  0  0  0  0  0  0  0  0  0
   46.5130   34.1280   40.3280 C   0  0  0  0  0  0  0  0  0  0  0  0
   45.9770   34.3440   41.5820 C   0  0  0  0  0  0  0  0  0  0  0  0
   48.3940   35.9900   43.1300 H   0  0  0  0  0  0  0  0  0  0  0  0
   49.4620   35.6680   40.9290 H   0  0  0  0  0  0  0  0  0  0  0  0
   48.3200   34.5130   39.1600 H   0  0  0  0  0  0  0  0  0  0  0  0
   45.9950   33.6080   39.5350 H   0  0  0  0  0  0  0  0  0  0  0  0
   44.9640   33.9260   41.6820 H   0  0  0  0  0  0  0  0  0  0  0  0
   45.0260   37.3590   43.0760 C   0  0  0  0  0  0  0  0  0  0  0  0
   44.0250   37.4580   42.6180 H   0  0  0  0  0  0  0  0  0  0  0  0
   45.7360   37.1260   42.2480 H   0  0  0  0  0  0  0  0  0  0  0  0
   45.4350   38.5460   43.7950 N   0  0  0  0  0  0  0  0  0  0  0  0
   45.1010   39.4330   44.8510 C   0  0  0  0  0  0  0  0  0  0  0  0
   44.6450   40.7580   44.7730 C   0  0  0  0  0  0  0  0  0  0  0  0
   44.4940   41.3170   43.8600 H   0  0  0  0  0  0  0  0  0  0  0  0
   44.4650   41.1020   46.0610 N   0  0  0  0  0  0  0  0  0  0  0  0
   44.1150   42.0710   46.3190 H   0  0  0  0  0  0  0  0  0  0  0  0
   44.7680   40.1120   46.9160 C   0  0  0  0  0  0  0  0  0  0  0  0
   44.6790   40.2190   47.9990 H   0  0  0  0  0  0  0  0  0  0  0  0
   45.1660   39.0660   46.1730 N   0  0  0  0  0  0  0  0  0  0  0  0
   46.6770   39.0960   43.2420 C   0  0  0  0  0  0  0  0  0  0  0  0
   47.4760   38.1720   42.6840 F   0  0  0  0  0  0  0  0  0  0  0  0
   47.4220   39.7250   44.2370 F   0  0  0  0  0  0  0  0  0  0  0  0
   46.3470   40.0510   42.3190 F   0  0  0  0  0  0  0  0  0  0  0  0
  1  7  1  0  0  0  0
  1  6  1  0  0  0  0
  2  1  2  0  0  0  0
  3  2  1  0  0  0  0
  3  4  2  0  0  0  0
  4  5  1  0  0  0  0
  5  6  2  0  0  0  0
  5  8  1  0  0  0  0
  9  3  1  0  0  0  0
 10  9  1  0  0  0  0
 10 15  1  0  0  0  0
 11 10  2  0  0  0  0
 12 13  2  0  0  0  0
 12 11  1  0  0  0  0
 13 14  1  0  0  0  0
 14 19  1  0  0  0  0
 14  9  2  0  0  0  0
 16 11  1  0  0  0  0
 17 12  1  0  0  0  0
 18 13  1  0  0  0  0
 20 23  1  0  0  0  0
 20  2  1  0  0  0  0
 21 20  1  0  0  0  0
 22 20  1  0  0  0  0
 23 24  1  0  0  0  0
 24 31  1  0  0  0  0
 25 24  2  0  0  0  0
 25 27  1  0  0  0  0
 26 25  1  0  0  0  0
 27 28  1  0  0  0  0
 27 29  1  0  0  0  0
 29 30  1  0  0  0  0
 31 29  2  0  0  0  0
 32 23  1  0  0  0  0
 32 34  1  0  0  0  0
 33 32  1  0  0  0  0
 35 32  1  0  0  0  0
M  END
>  <minimizedAffinity>
0.343670189

>  <minimizedRMSD>
1.34098458

$$$$
