
 OpenBabel03252508073D

 43 46  0  0  0  0  0  0  0  0999 V2000
   45.2180   35.8240   42.9570 C   0  0  0  0  0  0  0  0  0  0  0  0
   45.5030   34.4680   42.9930 C   0  0  0  0  0  0  0  0  0  0  0  0
   45.3290   33.7600   44.1580 C   0  0  0  0  0  0  0  0  0  0  0  0
   44.8630   34.4630   45.2530 N   0  0  0  0  0  0  0  0  0  0  0  0
   44.5910   35.7640   45.2110 C   0  0  0  0  0  0  0  0  0  0  0  0
   44.7730   36.4360   44.0530 N   0  0  0  0  0  0  0  0  0  0  0  0
   45.3450   36.4130   42.0600 H   0  0  0  0  0  0  0  0  0  0  0  0
   44.2270   36.2980   46.0790 H   0  0  0  0  0  0  0  0  0  0  0  0
   45.5740   32.3820   44.3570 C   0  0  0  0  0  0  0  0  0  0  0  0
   45.1500   31.3780   43.4830 C   0  0  0  0  0  0  0  0  0  0  0  0
   45.3260   30.0370   43.7070 C   0  0  0  0  0  0  0  0  0  0  0  0
   45.9570   29.6150   44.8540 C   0  0  0  0  0  0  0  0  0  0  0  0
   46.3980   30.6200   45.7580 C   0  0  0  0  0  0  0  0  0  0  0  0
   47.0270   30.2140   46.9050 C   0  0  0  0  0  0  0  0  0  0  0  0
   47.4810   31.1390   47.8250 C   0  0  0  0  0  0  0  0  0  0  0  0
   47.2960   32.5060   47.5710 C   0  0  0  0  0  0  0  0  0  0  0  0
   46.6450   32.8770   46.3800 C   0  0  0  0  0  0  0  0  0  0  0  0
   46.2020   31.9370   45.4920 C   0  0  0  0  0  0  0  0  0  0  0  0
   44.6510   31.7150   42.5770 H   0  0  0  0  0  0  0  0  0  0  0  0
   44.9840   29.2910   43.0070 H   0  0  0  0  0  0  0  0  0  0  0  0
   46.1430   28.5960   45.1240 H   0  0  0  0  0  0  0  0  0  0  0  0
   47.1820   29.1520   47.1230 H   0  0  0  0  0  0  0  0  0  0  0  0
   47.9720   30.7590   48.7210 H   0  0  0  0  0  0  0  0  0  0  0  0
   47.6830   33.1550   48.3410 H   0  0  0  0  0  0  0  0  0  0  0  0
   46.6220   33.9460   46.3600 H   0  0  0  0  0  0  0  0  0  0  0  0
   45.9520   33.8940   41.8390 O   0  0  0  0  0  0  0  0  0  0  0  0
   48.0290   32.3900   41.3020 O   0  0  0  0  0  0  0  0  0  0  0  0
   47.5780   33.8030   41.3780 P   0  0  1  0  0  0  0  0  0  0  0  0
   47.8150   34.4790   39.8430 O   0  0  0  0  0  0  0  0  0  0  0  0
   47.8130   33.7540   38.6610 C   0  0  0  0  0  0  0  0  0  0  0  0
   46.5990   33.2400   38.2790 C   0  0  0  0  0  0  0  0  0  0  0  0
   45.5870   33.2660   38.7020 H   0  0  0  0  0  0  0  0  0  0  0  0
   46.7750   32.5680   37.1180 N   0  0  0  0  0  0  0  0  0  0  0  0
   46.1020   32.0430   36.5150 H   0  0  0  0  0  0  0  0  0  0  0  0
   48.0780   32.6850   36.8200 C   0  0  0  0  0  0  0  0  0  0  0  0
   48.6850   32.3110   35.9830 H   0  0  0  0  0  0  0  0  0  0  0  0
   48.7470   33.4130   37.7570 N   0  0  0  0  0  0  0  0  0  0  0  0
   48.4920   34.6630   42.4890 O   0  0  0  0  0  0  0  0  0  0  0  0
   49.7070   35.2900   42.2600 C   0  0  0  0  0  0  0  0  0  0  0  0
   49.4110   36.3730   41.7320 O   0  0  0  0  0  0  0  0  0  0  0  0
   50.8030   34.4620   42.7120 N   0  0  0  0  0  0  0  0  0  0  0  0
   51.5820   33.9930   42.1910 H   0  0  0  0  0  0  0  0  0  0  0  0
   50.8590   34.2760   43.7570 H   0  0  0  0  0  0  0  0  0  0  0  0
  1  2  2  0  0  0  0
  1  6  1  0  0  0  0
  2  3  1  0  0  0  0
  3  9  1  0  0  0  0
  3  4  2  0  0  0  0
  5  4  1  0  0  0  0
  5  8  1  0  0  0  0
  6  5  2  0  0  0  0
  7  1  1  0  0  0  0
  9 18  1  0  0  0  0
 10 11  1  0  0  0  0
 10  9  2  0  0  0  0
 11 12  2  0  0  0  0
 12 21  1  0  0  0  0
 12 13  1  0  0  0  0
 13 14  1  0  0  0  0
 14 22  1  0  0  0  0
 14 15  2  0  0  0  0
 15 23  1  0  0  0  0
 16 15  1  0  0  0  0
 16 24  1  0  0  0  0
 17 16  2  0  0  0  0
 18 13  2  0  0  0  0
 18 17  1  0  0  0  0
 19 10  1  0  0  0  0
 20 11  1  0  0  0  0
 25 17  1  0  0  0  0
 26  2  1  0  0  0  0
 28 27  2  6  0  0  0
 28 26  1  0  0  0  0
 28 38  1  0  0  0  0
 29 28  1  0  0  0  0
 30 29  1  0  0  0  0
 31 30  2  0  0  0  0
 31 32  1  0  0  0  0
 33 31  1  0  0  0  0
 34 33  1  0  0  0  0
 35 33  1  0  0  0  0
 35 37  2  0  0  0  0
 36 35  1  0  0  0  0
 37 30  1  0  0  0  0
 39 38  1  0  0  0  0
 39 41  1  0  0  0  0
 40 39  2  0  0  0  0
 41 43  1  0  0  0  0
 42 41  1  0  0  0  0
M  END
>  <minimizedAffinity>
-6.00008774

>  <minimizedRMSD>
0.378442407

$$$$
