
     RDKit          3D

 24 25  0  0  0  0  0  0  0  0999 V2000
   45.6468   34.7577   44.3669 C   0  0  0  0  0  0  0  0  0  0  0  0
   45.2747   34.3859   45.6343 C   0  0  0  0  0  0  0  0  0  0  0  0
   45.9453   33.2880   46.1660 C   0  0  0  0  0  0  0  0  0  0  0  0
   46.8799   32.6953   45.4140 N   0  0  0  0  0  0  0  0  0  0  0  0
   47.2178   33.0877   44.1758 C   0  0  0  0  0  0  0  0  0  0  0  0
   46.5865   34.1519   43.6263 N   0  0  0  0  0  0  0  0  0  0  0  0
   44.1643   35.3507   42.6536 C   0  0  0  0  0  0  0  0  0  0  0  0
   44.1046   34.0761   42.6622 O   0  0  0  0  0  0  0  0  0  0  0  0
   45.0714   35.8733   43.6274 N   0  0  0  0  0  0  0  0  0  0  0  0
   43.4414   36.2092   41.8013 O   0  0  0  0  0  0  0  0  0  0  0  0
   44.2654   35.1382   46.2642 N   0  0  0  0  0  0  0  0  0  0  0  0
   45.6549   32.9930   47.1630 H   0  0  0  0  0  0  0  0  0  0  0  0
   47.9900   32.5361   43.6529 H   0  0  0  0  0  0  0  0  0  0  0  0
   45.2261   36.8827   43.7160 H   0  0  0  0  0  0  0  0  0  0  0  0
   43.2902   34.9110   45.9238 H   0  0  0  0  0  0  0  0  0  0  0  0
   44.8449   35.7294   46.9203 H   0  0  0  0  0  0  0  0  0  0  0  0
   42.5764   35.6317   40.8759 C   0  0  0  0  0  0  0  0  0  0  0  0
   41.2461   35.6118   40.5236 C   0  0  0  0  0  0  0  0  0  0  0  0
   40.6161   36.2383   41.1409 H   0  0  0  0  0  0  0  0  0  0  0  0
   41.1328   34.7801   39.4700 N   0  0  0  0  0  0  0  0  0  0  0  0
   40.1594   34.6479   39.0670 H   0  0  0  0  0  0  0  0  0  0  0  0
   42.3349   34.2781   39.1469 C   0  0  0  0  0  0  0  0  0  0  0  0
   42.4720   33.5855   38.3264 H   0  0  0  0  0  0  0  0  0  0  0  0
   43.2262   34.7997   40.0099 N   0  0  0  0  0  0  0  0  0  0  0  0
  1  2  2  0
  2  3  1  0
  2 11  1  0
  4  3  2  0
  5  4  1  0
  6  5  2  0
  6  1  1  0
  7  8  2  0
  7  9  1  0
  9  1  1  0
 10  7  1  0
  3 12  1  0
  5 13  1  0
  9 14  1  0
 11 15  1  0
 11 16  1  0
 17 18  2  0
 18 19  1  0
 18 20  1  0
 20 21  1  0
 20 22  1  0
 22 23  1  0
 22 24  2  0
 24 17  1  0
 10 17  1  0
M  ISO  5  12  14  13  14  19  15  21   5  23  14
M  END
>  <DihAtoms>  (1) 
6,9,16,17

>  <DihDeg>  (1) 
90.00134382107679

$$$$
