
 OpenBabel03252500303D

 27 29  0  0  1  0  0  0  0  0999 V2000
   37.0990   26.7520   42.5660 C   0  0  1  0  0  0  0  0  0  0  0  0
   36.6910   27.5880   43.6750 C   0  0  0  0  0  0  0  0  0  0  0  0
   36.9320   28.2600   42.3800 C   0  0  1  0  0  0  0  0  0  0  0  0
   36.4050   26.2210   41.8610 H   0  0  0  0  0  0  0  0  0  0  0  0
   35.6470   27.4370   44.0460 H   0  0  0  0  0  0  0  0  0  0  0  0
   37.4320   27.7490   44.4810 H   0  0  0  0  0  0  0  0  0  0  0  0
   35.9820   28.6330   41.8980 H   0  0  0  0  0  0  0  0  0  0  0  0
   39.3240   26.1840   43.6110 C   0  0  0  0  0  0  0  0  0  0  0  0
   38.4730   26.1910   42.4700 C   0  0  0  0  0  0  0  0  0  0  0  0
   38.9530   25.6740   41.2810 C   0  0  0  0  0  0  0  0  0  0  0  0
   40.2230   25.1820   41.2650 N   0  0  0  0  0  0  0  0  0  0  0  0
   41.0220   25.1840   42.3730 C   0  0  0  0  0  0  0  0  0  0  0  0
   40.5800   25.6890   43.5640 N   0  0  0  0  0  0  0  0  0  0  0  0
   38.9940   26.5780   44.5610 H   0  0  0  0  0  0  0  0  0  0  0  0
   38.3500   25.6550   40.3830 H   0  0  0  0  0  0  0  0  0  0  0  0
   41.9840   24.7440   42.1210 H   0  0  0  0  0  0  0  0  0  0  0  0
   38.1300   29.0880   42.1360 C   0  0  0  0  0  0  0  0  0  0  0  0
   38.8890   28.6150   41.4530 H   0  0  0  0  0  0  0  0  0  0  0  0
   38.6910   29.3720   43.0520 H   0  0  0  0  0  0  0  0  0  0  0  0
   37.6840   30.3560   41.4750 C   0  0  0  0  0  0  0  0  0  0  0  0
   36.4050   30.7840   41.1810 C   0  0  0  0  0  0  0  0  0  0  0  0
   35.5390   30.1850   41.4270 H   0  0  0  0  0  0  0  0  0  0  0  0
   36.4780   32.0020   40.5770 N   0  0  0  0  0  0  0  0  0  0  0  0
   35.6410   32.5390   40.2570 H   0  0  0  0  0  0  0  0  0  0  0  0
   37.7940   32.3470   40.4870 C   0  0  0  0  0  0  0  0  0  0  0  0
   38.1290   33.2750   40.0430 H   0  0  0  0  0  0  0  0  0  0  0  0
   38.5070   31.3450   41.0320 N   0  0  0  0  0  0  0  0  0  0  0  0
  1  4  1  6  0  0  0
  1  2  1  0  0  0  0
  2  5  1  0  0  0  0
  2  6  1  0  0  0  0
  3  7  1  6  0  0  0
  3  1  1  0  0  0  0
  3  2  1  0  0  0  0
  8 14  1  0  0  0  0
  9  1  1  0  0  0  0
  9  8  2  0  0  0  0
 10  9  1  0  0  0  0
 11 10  2  0  0  0  0
 11 12  1  0  0  0  0
 12 13  2  0  0  0  0
 13  8  1  0  0  0  0
 15 10  1  0  0  0  0
 16 12  1  0  0  0  0
 17  3  1  0  0  0  0
 17 19  1  0  0  0  0
 18 17  1  0  0  0  0
 20 17  1  0  0  0  0
 21 22  1  0  0  0  0
 21 20  2  0  0  0  0
 23 21  1  0  0  0  0
 24 23  1  0  0  0  0
 25 23  1  0  0  0  0
 25 27  2  0  0  0  0
 26 25  1  0  0  0  0
 27 20  1  0  0  0  0
M  END
>  <minimizedAffinity>
-4.62464476

$$$$

 OpenBabel03252500303D

 27 29  0  0  1  0  0  0  0  0999 V2000
   36.2440   30.5050   41.0030 C   0  0  1  0  0  0  0  0  0  0  0  0
   36.8830   31.7270   40.5670 C   0  0  0  0  0  0  0  0  0  0  0  0
   36.5990   30.7120   39.5310 C   0  0  1  0  0  0  0  0  0  0  0  0
   35.1350   30.3440   41.0880 H   0  0  0  0  0  0  0  0  0  0  0  0
   36.2640   32.6560   40.6320 H   0  0  0  0  0  0  0  0  0  0  0  0
   37.9400   31.8740   40.8640 H   0  0  0  0  0  0  0  0  0  0  0  0
   35.7770   31.0260   38.8250 H   0  0  0  0  0  0  0  0  0  0  0  0
   36.4620   28.1330   41.8350 C   0  0  0  0  0  0  0  0  0  0  0  0
   36.9840   29.4550   41.7520 C   0  0  0  0  0  0  0  0  0  0  0  0
   38.1820   29.7370   42.3830 C   0  0  0  0  0  0  0  0  0  0  0  0
   38.8020   28.7270   43.0550 N   0  0  0  0  0  0  0  0  0  0  0  0
   38.2830   27.4650   43.1210 C   0  0  0  0  0  0  0  0  0  0  0  0
   37.1020   27.1530   42.5090 N   0  0  0  0  0  0  0  0  0  0  0  0
   35.5300   27.8660   41.3580 H   0  0  0  0  0  0  0  0  0  0  0  0
   38.6240   30.7230   42.3530 H   0  0  0  0  0  0  0  0  0  0  0  0
   38.9480   26.8340   43.7060 H   0  0  0  0  0  0  0  0  0  0  0  0
   37.6650   29.8860   38.9280 C   0  0  0  0  0  0  0  0  0  0  0  0
   37.2960   29.1180   38.1930 H   0  0  0  0  0  0  0  0  0  0  0  0
   38.2840   29.3230   39.6590 H   0  0  0  0  0  0  0  0  0  0  0  0
   38.5830   30.7990   38.1760 C   0  0  0  0  0  0  0  0  0  0  0  0
   38.2960   31.6650   37.1400 C   0  0  0  0  0  0  0  0  0  0  0  0
   37.2920   31.7670   36.7520 H   0  0  0  0  0  0  0  0  0  0  0  0
   39.4440   32.2940   36.7640 N   0  0  0  0  0  0  0  0  0  0  0  0
   39.4890   33.0020   35.9970 H   0  0  0  0  0  0  0  0  0  0  0  0
   40.4530   31.8320   37.5540 C   0  0  0  0  0  0  0  0  0  0  0  0
   41.4760   32.1730   37.4600 H   0  0  0  0  0  0  0  0  0  0  0  0
   39.9190   30.9310   38.3990 N   0  0  0  0  0  0  0  0  0  0  0  0
  1  4  1  1  0  0  0
  1  9  1  0  0  0  0
  2  5  1  0  0  0  0
  2  6  1  0  0  0  0
  2  1  1  0  0  0  0
  3  7  1  6  0  0  0
  3  2  1  0  0  0  0
  3  1  1  0  0  0  0
  8 13  1  0  0  0  0
  9  8  2  0  0  0  0
  9 10  1  0  0  0  0
 10 11  2  0  0  0  0
 11 12  1  0  0  0  0
 12 16  1  0  0  0  0
 13 12  2  0  0  0  0
 14  8  1  0  0  0  0
 15 10  1  0  0  0  0
 17  3  1  0  0  0  0
 17 19  1  0  0  0  0
 18 17  1  0  0  0  0
 20 27  1  0  0  0  0
 20 17  1  0  0  0  0
 21 20  2  0  0  0  0
 22 21  1  0  0  0  0
 23 21  1  0  0  0  0
 23 25  1  0  0  0  0
 24 23  1  0  0  0  0
 25 27  2  0  0  0  0
 26 25  1  0  0  0  0
M  END
>  <minimizedAffinity>
-4.54540062

$$$$

 OpenBabel03252500303D

 27 29  0  0  1  0  0  0  0  0999 V2000
   36.8000   26.9740   43.1480 C   0  0  1  0  0  0  0  0  0  0  0  0
   37.4320   28.2020   43.5820 C   0  0  0  0  0  0  0  0  0  0  0  0
   36.5640   28.2780   42.3870 C   0  0  1  0  0  0  0  0  0  0  0  0
   35.8120   26.5850   43.5150 H   0  0  0  0  0  0  0  0  0  0  0  0
   37.0830   28.6160   44.5600 H   0  0  0  0  0  0  0  0  0  0  0  0
   38.5250   28.2850   43.4270 H   0  0  0  0  0  0  0  0  0  0  0  0
   35.6040   28.8390   42.5800 H   0  0  0  0  0  0  0  0  0  0  0  0
   38.9860   25.8980   42.4920 C   0  0  0  0  0  0  0  0  0  0  0  0
   37.5630   25.9000   42.4590 C   0  0  0  0  0  0  0  0  0  0  0  0
   36.9140   24.8900   41.7720 C   0  0  0  0  0  0  0  0  0  0  0  0
   37.6770   23.9410   41.1610 N   0  0  0  0  0  0  0  0  0  0  0  0
   39.0430   23.9590   41.2060 C   0  0  0  0  0  0  0  0  0  0  0  0
   39.7150   24.9430   41.8750 N   0  0  0  0  0  0  0  0  0  0  0  0
   39.5370   26.6670   43.0150 H   0  0  0  0  0  0  0  0  0  0  0  0
   35.8350   24.8420   41.7140 H   0  0  0  0  0  0  0  0  0  0  0  0
   39.4300   23.1090   40.6510 H   0  0  0  0  0  0  0  0  0  0  0  0
   37.1150   28.4220   41.0250 C   0  0  0  0  0  0  0  0  0  0  0  0
   36.5340   27.8760   40.2310 H   0  0  0  0  0  0  0  0  0  0  0  0
   38.1650   28.0800   40.9110 H   0  0  0  0  0  0  0  0  0  0  0  0
   37.0770   29.8760   40.6660 C   0  0  0  0  0  0  0  0  0  0  0  0
   36.2690   30.8770   41.1650 C   0  0  0  0  0  0  0  0  0  0  0  0
   35.5290   30.6770   41.9270 H   0  0  0  0  0  0  0  0  0  0  0  0
   36.5870   32.0470   40.5440 N   0  0  0  0  0  0  0  0  0  0  0  0
   36.1140   32.9560   40.7490 H   0  0  0  0  0  0  0  0  0  0  0  0
   37.5890   31.7910   39.6570 C   0  0  0  0  0  0  0  0  0  0  0  0
   38.0280   32.5570   39.0290 H   0  0  0  0  0  0  0  0  0  0  0  0
   37.8730   30.4790   39.7410 N   0  0  0  0  0  0  0  0  0  0  0  0
  1  4  1  1  0  0  0
  1  2  1  0  0  0  0
  2  5  1  0  0  0  0
  3  7  1  1  0  0  0
  3  1  1  0  0  0  0
  3  2  1  0  0  0  0
  6  2  1  0  0  0  0
  8 14  1  0  0  0  0
  9  8  1  0  0  0  0
  9  1  1  0  0  0  0
 10  9  2  0  0  0  0
 11 12  2  0  0  0  0
 11 10  1  0  0  0  0
 12 13  1  0  0  0  0
 13  8  2  0  0  0  0
 15 10  1  0  0  0  0
 16 12  1  0  0  0  0
 17  3  1  0  0  0  0
 18 17  1  0  0  0  0
 19 17  1  0  0  0  0
 20 17  1  0  0  0  0
 20 21  2  0  0  0  0
 21 22  1  0  0  0  0
 23 24  1  0  0  0  0
 23 21  1  0  0  0  0
 25 27  2  0  0  0  0
 25 23  1  0  0  0  0
 26 25  1  0  0  0  0
 27 20  1  0  0  0  0
M  END
>  <minimizedAffinity>
-4.51666164

$$$$

 OpenBabel03252500303D

 27 29  0  0  1  0  0  0  0  0999 V2000
   36.6990   26.8400   43.0200 C   0  0  1  0  0  0  0  0  0  0  0  0
   37.3040   27.9770   43.6800 C   0  0  0  0  0  0  0  0  0  0  0  0
   36.6230   28.2310   42.3920 C   0  0  1  0  0  0  0  0  0  0  0  0
   35.6540   26.4650   43.1960 H   0  0  0  0  0  0  0  0  0  0  0  0
   36.8310   28.2970   44.6410 H   0  0  0  0  0  0  0  0  0  0  0  0
   38.4100   28.0190   43.6910 H   0  0  0  0  0  0  0  0  0  0  0  0
   35.6660   28.8160   42.5120 H   0  0  0  0  0  0  0  0  0  0  0  0
   36.9020   24.9160   41.4010 C   0  0  0  0  0  0  0  0  0  0  0  0
   37.5150   25.8100   42.3240 C   0  0  0  0  0  0  0  0  0  0  0  0
   38.8720   25.6950   42.5570 C   0  0  0  0  0  0  0  0  0  0  0  0
   39.5550   24.7250   41.8870 N   0  0  0  0  0  0  0  0  0  0  0  0
   38.9460   23.8770   41.0050 C   0  0  0  0  0  0  0  0  0  0  0  0
   37.6060   23.9640   40.7520 N   0  0  0  0  0  0  0  0  0  0  0  0
   35.8440   24.9680   41.1870 H   0  0  0  0  0  0  0  0  0  0  0  0
   39.3900   26.3470   43.2480 H   0  0  0  0  0  0  0  0  0  0  0  0
   39.6860   23.1950   40.5960 H   0  0  0  0  0  0  0  0  0  0  0  0
   37.3720   28.4960   41.1470 C   0  0  0  0  0  0  0  0  0  0  0  0
   36.9660   27.9670   40.2410 H   0  0  0  0  0  0  0  0  0  0  0  0
   38.4490   28.2300   41.1890 H   0  0  0  0  0  0  0  0  0  0  0  0
   37.2860   29.9650   40.8650 C   0  0  0  0  0  0  0  0  0  0  0  0
   36.2160   30.8220   41.0190 C   0  0  0  0  0  0  0  0  0  0  0  0
   35.2630   30.4730   41.3920 H   0  0  0  0  0  0  0  0  0  0  0  0
   36.5960   32.0720   40.6360 N   0  0  0  0  0  0  0  0  0  0  0  0
   35.9620   32.9020   40.6600 H   0  0  0  0  0  0  0  0  0  0  0  0
   37.8990   32.0110   40.2400 C   0  0  0  0  0  0  0  0  0  0  0  0
   38.4470   32.8740   39.8860 H   0  0  0  0  0  0  0  0  0  0  0  0
   38.3000   30.7340   40.3840 N   0  0  0  0  0  0  0  0  0  0  0  0
  1  4  1  1  0  0  0
  1  2  1  0  0  0  0
  2  6  1  0  0  0  0
  2  5  1  0  0  0  0
  3  7  1  1  0  0  0
  3  1  1  0  0  0  0
  3  2  1  0  0  0  0
  8  9  1  0  0  0  0
  9 10  2  0  0  0  0
  9  1  1  0  0  0  0
 10 15  1  0  0  0  0
 11 10  1  0  0  0  0
 12 11  2  0  0  0  0
 13 12  1  0  0  0  0
 13  8  2  0  0  0  0
 14  8  1  0  0  0  0
 16 12  1  0  0  0  0
 17 19  1  0  0  0  0
 17  3  1  0  0  0  0
 18 17  1  0  0  0  0
 20 21  2  0  0  0  0
 20 17  1  0  0  0  0
 21 22  1  0  0  0  0
 23 24  1  0  0  0  0
 23 21  1  0  0  0  0
 25 27  2  0  0  0  0
 25 23  1  0  0  0  0
 26 25  1  0  0  0  0
 27 20  1  0  0  0  0
M  END
>  <minimizedAffinity>
-4.49644184

$$$$

 OpenBabel03252500303D

 27 29  0  0  1  0  0  0  0  0999 V2000
   37.6920   28.4930   43.6590 C   0  0  1  0  0  0  0  0  0  0  0  0
   36.6230   27.5310   43.5030 C   0  0  0  0  0  0  0  0  0  0  0  0
   38.0010   27.0450   43.2780 C   0  0  1  0  0  0  0  0  0  0  0  0
   38.2170   28.7330   44.6240 H   0  0  0  0  0  0  0  0  0  0  0  0
   36.0710   27.2530   44.4350 H   0  0  0  0  0  0  0  0  0  0  0  0
   35.9700   27.6470   42.6160 H   0  0  0  0  0  0  0  0  0  0  0  0
   38.3560   26.3470   44.0900 H   0  0  0  0  0  0  0  0  0  0  0  0
   36.9470   29.9040   41.7050 C   0  0  0  0  0  0  0  0  0  0  0  0
   37.9560   29.5470   42.6440 C   0  0  0  0  0  0  0  0  0  0  0  0
   39.1760   30.1940   42.5860 C   0  0  0  0  0  0  0  0  0  0  0  0
   39.3490   31.1460   41.6260 N   0  0  0  0  0  0  0  0  0  0  0  0
   38.3660   31.4740   40.7360 C   0  0  0  0  0  0  0  0  0  0  0  0
   37.1480   30.8530   40.7650 N   0  0  0  0  0  0  0  0  0  0  0  0
   35.9780   29.4250   41.7120 H   0  0  0  0  0  0  0  0  0  0  0  0
   39.9780   29.9630   43.2740 H   0  0  0  0  0  0  0  0  0  0  0  0
   38.7300   32.2530   40.0710 H   0  0  0  0  0  0  0  0  0  0  0  0
   38.5210   26.7570   41.9270 C   0  0  0  0  0  0  0  0  0  0  0  0
   39.6410   26.8130   41.8400 H   0  0  0  0  0  0  0  0  0  0  0  0
   38.1280   27.4200   41.1270 H   0  0  0  0  0  0  0  0  0  0  0  0
   38.1300   25.3540   41.5740 C   0  0  0  0  0  0  0  0  0  0  0  0
   38.7370   24.1650   41.9240 C   0  0  0  0  0  0  0  0  0  0  0  0
   39.6270   24.1460   42.5380 H   0  0  0  0  0  0  0  0  0  0  0  0
   38.0330   23.1360   41.3770 N   0  0  0  0  0  0  0  0  0  0  0  0
   38.2920   22.1310   41.4980 H   0  0  0  0  0  0  0  0  0  0  0  0
   36.9860   23.6660   40.6850 C   0  0  0  0  0  0  0  0  0  0  0  0
   36.2660   23.0590   40.1510 H   0  0  0  0  0  0  0  0  0  0  0  0
   37.0580   25.0040   40.8130 N   0  0  0  0  0  0  0  0  0  0  0  0
  1  4  1  1  0  0  0
  2  1  1  0  0  0  0
  2  5  1  0  0  0  0
  3  2  1  0  0  0  0
  3  1  1  0  0  0  0
  3  7  1  1  0  0  0
  6  2  1  0  0  0  0
  8 14  1  0  0  0  0
  8  9  1  0  0  0  0
  9  1  1  0  0  0  0
 10  9  2  0  0  0  0
 10 15  1  0  0  0  0
 11 10  1  0  0  0  0
 12 13  1  0  0  0  0
 12 11  2  0  0  0  0
 13  8  2  0  0  0  0
 16 12  1  0  0  0  0
 17  3  1  0  0  0  0
 18 17  1  0  0  0  0
 19 17  1  0  0  0  0
 20 21  2  0  0  0  0
 20 17  1  0  0  0  0
 21 22  1  0  0  0  0
 23 24  1  0  0  0  0
 23 21  1  0  0  0  0
 25 27  2  0  0  0  0
 25 23  1  0  0  0  0
 26 25  1  0  0  0  0
 27 20  1  0  0  0  0
M  END
>  <minimizedAffinity>
-4.49158907

$$$$

 OpenBabel03252500303D

 27 29  0  0  1  0  0  0  0  0999 V2000
   36.4140   28.6490   40.0530 C   0  0  1  0  0  0  0  0  0  0  0  0
   35.0360   29.0830   40.1340 C   0  0  0  0  0  0  0  0  0  0  0  0
   36.0610   30.1320   39.9420 C   0  0  1  0  0  0  0  0  0  0  0  0
   36.9430   28.3320   39.1140 H   0  0  0  0  0  0  0  0  0  0  0  0
   34.3740   28.7790   39.2850 H   0  0  0  0  0  0  0  0  0  0  0  0
   34.5470   29.0200   41.1250 H   0  0  0  0  0  0  0  0  0  0  0  0
   36.0260   30.5930   38.9130 H   0  0  0  0  0  0  0  0  0  0  0  0
   38.5930   28.1940   41.2400 C   0  0  0  0  0  0  0  0  0  0  0  0
   37.1700   28.2060   41.2550 C   0  0  0  0  0  0  0  0  0  0  0  0
   36.5140   27.7950   42.4010 C   0  0  0  0  0  0  0  0  0  0  0  0
   37.2710   27.3980   43.4610 N   0  0  0  0  0  0  0  0  0  0  0  0
   38.6370   27.3960   43.4260 C   0  0  0  0  0  0  0  0  0  0  0  0
   39.3160   27.7950   42.3090 N   0  0  0  0  0  0  0  0  0  0  0  0
   39.1490   28.5060   40.3670 H   0  0  0  0  0  0  0  0  0  0  0  0
   35.4340   27.7840   42.4670 H   0  0  0  0  0  0  0  0  0  0  0  0
   39.0190   27.0430   44.3800 H   0  0  0  0  0  0  0  0  0  0  0  0
   36.4610   31.0470   41.0290 C   0  0  0  0  0  0  0  0  0  0  0  0
   37.0330   30.5530   41.8630 H   0  0  0  0  0  0  0  0  0  0  0  0
   35.6180   31.5770   41.5220 H   0  0  0  0  0  0  0  0  0  0  0  0
   37.3630   32.0890   40.4440 C   0  0  0  0  0  0  0  0  0  0  0  0
   37.2040   32.8330   39.2920 C   0  0  0  0  0  0  0  0  0  0  0  0
   36.3350   32.7150   38.6600 H   0  0  0  0  0  0  0  0  0  0  0  0
   38.2770   33.6600   39.1530 N   0  0  0  0  0  0  0  0  0  0  0  0
   38.3920   34.3270   38.3570 H   0  0  0  0  0  0  0  0  0  0  0  0
   39.1120   33.4440   40.2080 C   0  0  0  0  0  0  0  0  0  0  0  0
   40.0450   33.9770   40.3370 H   0  0  0  0  0  0  0  0  0  0  0  0
   38.5480   32.4940   40.9760 N   0  0  0  0  0  0  0  0  0  0  0  0
  1  4  1  6  0  0  0
  1  2  1  0  0  0  0
  1  9  1  0  0  0  0
  2  6  1  0  0  0  0
  3  7  1  6  0  0  0
  3  1  1  0  0  0  0
  3  2  1  0  0  0  0
  3 17  1  0  0  0  0
  5  2  1  0  0  0  0
  8  9  2  0  0  0  0
  8 13  1  0  0  0  0
  9 10  1  0  0  0  0
 10 15  1  0  0  0  0
 10 11  2  0  0  0  0
 12 11  1  0  0  0  0
 12 16  1  0  0  0  0
 13 12  2  0  0  0  0
 14  8  1  0  0  0  0
 17 19  1  0  0  0  0
 17 18  1  0  0  0  0
 20 27  1  0  0  0  0
 20 17  1  0  0  0  0
 21 20  2  0  0  0  0
 22 21  1  0  0  0  0
 23 21  1  0  0  0  0
 23 25  1  0  0  0  0
 24 23  1  0  0  0  0
 25 26  1  0  0  0  0
 25 27  2  0  0  0  0
M  END
>  <minimizedAffinity>
-4.42499352

$$$$

 OpenBabel03252500303D

 27 29  0  0  1  0  0  0  0  0999 V2000
   37.7200   28.4430   43.6650 C   0  0  1  0  0  0  0  0  0  0  0  0
   36.7930   27.3800   43.3440 C   0  0  0  0  0  0  0  0  0  0  0  0
   38.2320   27.0370   43.3540 C   0  0  1  0  0  0  0  0  0  0  0  0
   38.0520   28.7290   44.7000 H   0  0  0  0  0  0  0  0  0  0  0  0
   36.1270   27.0400   44.1760 H   0  0  0  0  0  0  0  0  0  0  0  0
   36.2860   27.4350   42.3610 H   0  0  0  0  0  0  0  0  0  0  0  0
   38.5160   26.3730   44.2200 H   0  0  0  0  0  0  0  0  0  0  0  0
   37.1000   29.8840   41.6890 C   0  0  0  0  0  0  0  0  0  0  0  0
   38.0390   29.5260   42.6970 C   0  0  0  0  0  0  0  0  0  0  0  0
   39.2460   30.1990   42.7490 C   0  0  0  0  0  0  0  0  0  0  0  0
   39.4720   31.1760   41.8270 N   0  0  0  0  0  0  0  0  0  0  0  0
   38.5550   31.5040   40.8680 C   0  0  0  0  0  0  0  0  0  0  0  0
   37.3540   30.8570   40.7880 N   0  0  0  0  0  0  0  0  0  0  0  0
   36.1450   29.3850   41.6080 H   0  0  0  0  0  0  0  0  0  0  0  0
   39.9960   29.9690   43.4930 H   0  0  0  0  0  0  0  0  0  0  0  0
   38.9540   32.3050   40.2510 H   0  0  0  0  0  0  0  0  0  0  0  0
   38.9930   26.8120   42.1090 C   0  0  0  0  0  0  0  0  0  0  0  0
   39.2210   27.7490   41.5300 H   0  0  0  0  0  0  0  0  0  0  0  0
   38.5040   26.1270   41.3850 H   0  0  0  0  0  0  0  0  0  0  0  0
   40.3100   26.2020   42.4810 C   0  0  0  0  0  0  0  0  0  0  0  0
   40.6230   24.8780   42.7140 C   0  0  0  0  0  0  0  0  0  0  0  0
   39.8760   24.1000   42.6400 H   0  0  0  0  0  0  0  0  0  0  0  0
   41.9460   24.7890   43.0240 N   0  0  0  0  0  0  0  0  0  0  0  0
   42.4280   23.8880   43.2430 H   0  0  0  0  0  0  0  0  0  0  0  0
   42.4700   26.0460   42.9890 C   0  0  0  0  0  0  0  0  0  0  0  0
   43.5120   26.2540   43.1990 H   0  0  0  0  0  0  0  0  0  0  0  0
   41.4720   26.8860   42.6610 N   0  0  0  0  0  0  0  0  0  0  0  0
  1  4  1  1  0  0  0
  2  3  1  0  0  0  0
  2  1  1  0  0  0  0
  2  5  1  0  0  0  0
  3  1  1  0  0  0  0
  3  7  1  1  0  0  0
  6  2  1  0  0  0  0
  8  9  1  0  0  0  0
  9 10  2  0  0  0  0
  9  1  1  0  0  0  0
 10 15  1  0  0  0  0
 11 10  1  0  0  0  0
 12 11  2  0  0  0  0
 13 12  1  0  0  0  0
 13  8  2  0  0  0  0
 14  8  1  0  0  0  0
 16 12  1  0  0  0  0
 17 20  1  0  0  0  0
 17  3  1  0  0  0  0
 18 17  1  0  0  0  0
 19 17  1  0  0  0  0
 20 27  1  0  0  0  0
 20 21  2  0  0  0  0
 21 23  1  0  0  0  0
 22 21  1  0  0  0  0
 23 24  1  0  0  0  0
 25 23  1  0  0  0  0
 25 26  1  0  0  0  0
 27 25  2  0  0  0  0
M  END
>  <minimizedAffinity>
-4.36026955

$$$$

 OpenBabel03252500303D

 27 29  0  0  1  0  0  0  0  0999 V2000
   39.4470   30.6280   42.6080 C   0  0  1  0  0  0  0  0  0  0  0  0
   40.8520   30.6900   42.2660 C   0  0  0  0  0  0  0  0  0  0  0  0
   39.8890   31.1270   41.2320 C   0  0  1  0  0  0  0  0  0  0  0  0
   38.8640   31.4430   43.1180 H   0  0  0  0  0  0  0  0  0  0  0  0
   41.4610   31.4430   42.8240 H   0  0  0  0  0  0  0  0  0  0  0  0
   41.3720   29.7250   42.1070 H   0  0  0  0  0  0  0  0  0  0  0  0
   39.9150   32.2400   41.0550 H   0  0  0  0  0  0  0  0  0  0  0  0
   39.4110   28.1260   42.9250 C   0  0  0  0  0  0  0  0  0  0  0  0
   38.7100   29.3390   42.6730 C   0  0  0  0  0  0  0  0  0  0  0  0
   37.3410   29.2870   42.4850 C   0  0  0  0  0  0  0  0  0  0  0  0
   36.7320   28.0700   42.5540 N   0  0  0  0  0  0  0  0  0  0  0  0
   37.4250   26.9180   42.7980 C   0  0  0  0  0  0  0  0  0  0  0  0
   38.7790   26.9340   42.9870 N   0  0  0  0  0  0  0  0  0  0  0  0
   40.4800   28.1160   43.0770 H   0  0  0  0  0  0  0  0  0  0  0  0
   36.7580   30.1770   42.2900 H   0  0  0  0  0  0  0  0  0  0  0  0
   36.7340   26.0800   42.8070 H   0  0  0  0  0  0  0  0  0  0  0  0
   39.5880   30.3050   40.0430 C   0  0  0  0  0  0  0  0  0  0  0  0
   38.5100   29.9920   39.9570 H   0  0  0  0  0  0  0  0  0  0  0  0
   40.1760   29.3660   39.9670 H   0  0  0  0  0  0  0  0  0  0  0  0
   39.8980   31.1250   38.8280 C   0  0  0  0  0  0  0  0  0  0  0  0
   39.0480   31.5760   37.8400 C   0  0  0  0  0  0  0  0  0  0  0  0
   37.9890   31.3550   37.8620 H   0  0  0  0  0  0  0  0  0  0  0  0
   39.7700   32.2860   36.9300 N   0  0  0  0  0  0  0  0  0  0  0  0
   39.3520   32.7340   36.0830 H   0  0  0  0  0  0  0  0  0  0  0  0
   41.0710   32.2870   37.3370 C   0  0  0  0  0  0  0  0  0  0  0  0
   41.8580   32.7850   36.7860 H   0  0  0  0  0  0  0  0  0  0  0  0
   41.1320   31.5830   38.4820 N   0  0  0  0  0  0  0  0  0  0  0  0
  1  9  1  0  0  0  0
  1  4  1  1  0  0  0
  2  1  1  0  0  0  0
  2  5  1  0  0  0  0
  3  7  1  6  0  0  0
  3  2  1  0  0  0  0
  3  1  1  0  0  0  0
  6  2  1  0  0  0  0
  8 13  1  0  0  0  0
  8 14  1  0  0  0  0
  9  8  2  0  0  0  0
 10 11  2  0  0  0  0
 10  9  1  0  0  0  0
 11 12  1  0  0  0  0
 12 16  1  0  0  0  0
 12 13  2  0  0  0  0
 15 10  1  0  0  0  0
 17  3  1  0  0  0  0
 18 17  1  0  0  0  0
 19 17  1  0  0  0  0
 20 17  1  0  0  0  0
 21 22  1  0  0  0  0
 21 20  2  0  0  0  0
 23 25  1  0  0  0  0
 23 21  1  0  0  0  0
 24 23  1  0  0  0  0
 25 27  2  0  0  0  0
 26 25  1  0  0  0  0
 27 20  1  0  0  0  0
M  END
>  <minimizedAffinity>
-4.24194479

$$$$

 OpenBabel03252500303D

 27 29  0  0  1  0  0  0  0  0999 V2000
   36.1490   30.5000   40.5540 C   0  0  1  0  0  0  0  0  0  0  0  0
   36.8710   31.6010   39.9530 C   0  0  0  0  0  0  0  0  0  0  0  0
   36.5550   30.4500   39.0810 C   0  0  1  0  0  0  0  0  0  0  0  0
   35.0300   30.4160   40.6240 H   0  0  0  0  0  0  0  0  0  0  0  0
   36.3060   32.5600   39.8480 H   0  0  0  0  0  0  0  0  0  0  0  0
   37.9260   31.7360   40.2620 H   0  0  0  0  0  0  0  0  0  0  0  0
   35.7720   30.6910   38.3060 H   0  0  0  0  0  0  0  0  0  0  0  0
   37.9910   29.9220   42.1780 C   0  0  0  0  0  0  0  0  0  0  0  0
   36.8050   29.5450   41.4860 C   0  0  0  0  0  0  0  0  0  0  0  0
   36.2870   28.2800   41.6950 C   0  0  0  0  0  0  0  0  0  0  0  0
   36.9430   27.4570   42.5600 N   0  0  0  0  0  0  0  0  0  0  0  0
   38.0800   27.8400   43.2140 C   0  0  0  0  0  0  0  0  0  0  0  0
   38.6190   29.0820   43.0290 N   0  0  0  0  0  0  0  0  0  0  0  0
   38.4320   30.8990   42.0460 H   0  0  0  0  0  0  0  0  0  0  0  0
   35.3890   27.9420   41.1960 H   0  0  0  0  0  0  0  0  0  0  0  0
   38.4220   27.0240   43.8450 H   0  0  0  0  0  0  0  0  0  0  0  0
   37.5850   29.4810   38.6560 C   0  0  0  0  0  0  0  0  0  0  0  0
   37.5240   28.4830   39.1730 H   0  0  0  0  0  0  0  0  0  0  0  0
   38.6320   29.8250   38.7990 H   0  0  0  0  0  0  0  0  0  0  0  0
   37.3970   29.2230   37.1930 C   0  0  0  0  0  0  0  0  0  0  0  0
   38.1050   28.3850   36.3560 C   0  0  0  0  0  0  0  0  0  0  0  0
   38.9310   27.7890   36.7220 H   0  0  0  0  0  0  0  0  0  0  0  0
   37.5810   28.4710   35.1020 N   0  0  0  0  0  0  0  0  0  0  0  0
   37.9450   27.9290   34.2860 H   0  0  0  0  0  0  0  0  0  0  0  0
   36.5470   29.3580   35.1410 C   0  0  0  0  0  0  0  0  0  0  0  0
   35.9570   29.6100   34.2690 H   0  0  0  0  0  0  0  0  0  0  0  0
   36.4490   29.8030   36.4070 N   0  0  0  0  0  0  0  0  0  0  0  0
  1  4  1  1  0  0  0
  1  9  1  0  0  0  0
  2  6  1  0  0  0  0
  2  1  1  0  0  0  0
  3  7  1  6  0  0  0
  3  2  1  0  0  0  0
  3  1  1  0  0  0  0
  5  2  1  0  0  0  0
  8 13  1  0  0  0  0
  9 10  1  0  0  0  0
  9  8  2  0  0  0  0
 10 11  2  0  0  0  0
 11 12  1  0  0  0  0
 12 16  1  0  0  0  0
 13 12  2  0  0  0  0
 14  8  1  0  0  0  0
 15 10  1  0  0  0  0
 17 19  1  0  0  0  0
 17  3  1  0  0  0  0
 17 18  1  0  0  0  0
 20 17  1  0  0  0  0
 21 22  1  0  0  0  0
 21 20  2  0  0  0  0
 23 25  1  0  0  0  0
 23 21  1  0  0  0  0
 24 23  1  0  0  0  0
 25 27  2  0  0  0  0
 26 25  1  0  0  0  0
 27 20  1  0  0  0  0
M  END
>  <minimizedAffinity>
-4.22054386

$$$$
