
     RDKit          3D

 24 26  0  0  0  0  0  0  0  0999 V2000
   44.6221   35.9457   44.3382 C   0  0  0  0  0  0  0  0  0  0  0  0
   45.3512   35.9255   43.1359 C   0  0  0  0  0  0  0  0  0  0  0  0
   46.2724   34.8971   43.0090 C   0  0  0  0  0  0  0  0  0  0  0  0
   46.4369   33.9741   44.0126 N   0  0  0  0  0  0  0  0  0  0  0  0
   45.7034   34.0371   45.1614 C   0  0  0  0  0  0  0  0  0  0  0  0
   44.8019   35.0248   45.3120 N   0  0  0  0  0  0  0  0  0  0  0  0
   47.0938   34.7494   41.7623 C   0  0  0  0  0  0  0  0  0  0  0  0
   48.4026   35.5051   41.8170 C   0  0  0  0  0  0  0  0  0  0  0  0
   48.3128   33.9552   41.8096 C   0  0  0  0  0  0  0  0  0  0  0  0
   43.8852   36.7117   44.5194 H   0  0  0  0  0  0  0  0  0  0  0  0
   45.2079   36.6482   42.3742 H   0  0  0  0  0  0  0  0  0  0  0  0
   46.4991   34.8571   40.8424 H   0  0  0  0  0  0  0  0  0  0  0  0
   48.7176   36.0095   42.7273 H   0  0  0  0  0  0  0  0  0  0  0  0
   48.6800   36.0038   40.8761 H   0  0  0  0  0  0  0  0  0  0  0  0
   48.7506   33.5198   42.7065 H   0  0  0  0  0  0  0  0  0  0  0  0
   48.6974   33.5185   40.8480 H   0  0  0  0  0  0  0  0  0  0  0  0
   46.0101   32.9759   46.1150 C   0  0  0  0  0  0  0  0  0  0  0  0
   45.2490   32.8506   47.2804 C   0  0  0  0  0  0  0  0  0  0  0  0
   44.4014   33.4698   47.6069 H   0  0  0  0  0  0  0  0  0  0  0  0
   45.7252   31.8083   47.9860 N   0  0  0  0  0  0  0  0  0  0  0  0
   45.3305   31.4998   48.9023 H   0  0  0  0  0  0  0  0  0  0  0  0
   46.7679   31.2846   47.2797 C   0  0  0  0  0  0  0  0  0  0  0  0
   47.2829   30.4373   47.6845 H   0  0  0  0  0  0  0  0  0  0  0  0
   46.9403   32.0030   46.1321 N   0  0  0  0  0  0  0  0  0  0  0  0
  1  6  2  0
  2  1  1  0
  3  2  2  0
  3  4  1  0
  4  5  2  0
  5  6  1  0
  7  8  1  0
  7  9  1  0
  7  3  1  0
  8  9  1  0
  1 10  1  0
  2 11  1  0
  7 12  1  0
  8 13  1  0
  8 14  1  0
  9 15  1  0
  9 16  1  0
 17 18  2  0
 18 19  1  0
 18 20  1  0
 20 21  1  0
 20 22  1  0
 22 23  1  0
 22 24  2  0
 24 17  1  0
  5 17  1  0
M  ISO  8  10  14  11  14  12  13  13  13  14  13  15  13  16  13  19  15
M  ISO  2  21   5  23  14
M  END
>  <DihAtoms>  (1) 
3,4,16,17

>  <DihDeg>  (1) 
-129.26998249042066

$$$$
