
 OpenBabel03252504463D

 26 27  0  0  0  0  0  0  0  0999 V2000
   45.3210   33.3020   47.0620 O   0  0  0  0  0  0  0  0  0  0  0  0
   45.4700   35.0960   43.9370 C   0  0  0  0  0  0  0  0  0  0  0  0
   46.5130   34.4310   43.2970 C   0  0  0  0  0  0  0  0  0  0  0  0
   47.1350   33.3720   43.9820 C   0  0  0  0  0  0  0  0  0  0  0  0
   46.6880   33.0620   45.2110 N   0  0  0  0  0  0  0  0  0  0  0  0
   45.6600   33.7450   45.7960 C   0  0  0  0  0  0  0  0  0  0  0  0
   45.0480   34.7670   45.1540 N   0  0  0  0  0  0  0  0  0  0  0  0
   46.8160   34.7450   42.2980 H   0  0  0  0  0  0  0  0  0  0  0  0
   47.9500   32.8480   43.4920 H   0  0  0  0  0  0  0  0  0  0  0  0
   44.8270   36.2210   43.1780 C   0  0  0  0  0  0  0  0  0  0  0  0
   43.8800   36.5080   43.6800 H   0  0  0  0  0  0  0  0  0  0  0  0
   44.6300   35.8400   42.1730 H   0  0  0  0  0  0  0  0  0  0  0  0
   45.5480   37.0650   43.1840 H   0  0  0  0  0  0  0  0  0  0  0  0
   45.4120   31.9290   49.2450 O   0  0  0  0  0  0  0  0  0  0  0  0
   45.7750   31.8310   47.7520 P   0  0  1  0  0  0  0  0  0  0  0  0
   44.9260   30.5180   47.1340 O   0  0  0  0  0  0  0  0  0  0  0  0
   44.4760   30.6960   46.2730 H   0  0  0  0  0  0  0  0  0  0  0  0
   47.4170   31.5690   47.5560 O   0  0  0  0  0  0  0  0  0  0  0  0
   48.2480   30.9600   48.4830 C   0  0  0  0  0  0  0  0  0  0  0  0
   48.4660   29.5920   48.2870 C   0  0  0  0  0  0  0  0  0  0  0  0
   48.1130   28.8760   47.5390 H   0  0  0  0  0  0  0  0  0  0  0  0
   49.2910   29.1810   49.2770 N   0  0  0  0  0  0  0  0  0  0  0  0
   49.7260   28.2630   49.5450 H   0  0  0  0  0  0  0  0  0  0  0  0
   49.5900   30.2310   50.0710 C   0  0  0  0  0  0  0  0  0  0  0  0
   50.1790   30.4260   50.9570 H   0  0  0  0  0  0  0  0  0  0  0  0
   48.9500   31.3060   49.5780 N   0  0  0  0  0  0  0  0  0  0  0  0
  1 15  1  0  0  0  0
  2  7  1  0  0  0  0
  3  2  2  0  0  0  0
  3  4  1  0  0  0  0
  4  5  2  0  0  0  0
  5  6  1  0  0  0  0
  6  1  1  0  0  0  0
  7  6  2  0  0  0  0
  8  3  1  0  0  0  0
  9  4  1  0  0  0  0
 10 13  1  0  0  0  0
 10 11  1  0  0  0  0
 10  2  1  0  0  0  0
 12 10  1  0  0  0  0
 15 14  2  1  0  0  0
 16 15  1  0  0  0  0
 17 16  1  0  0  0  0
 18 15  1  0  0  0  0
 18 19  1  0  0  0  0
 19 26  1  0  0  0  0
 20 19  2  0  0  0  0
 20 22  1  0  0  0  0
 21 20  1  0  0  0  0
 22 23  1  0  0  0  0
 22 24  1  0  0  0  0
 24 25  1  0  0  0  0
 26 24  2  0  0  0  0
M  END
>  <minimizedAffinity>
-4.88426733

>  <minimizedRMSD>
1.58762872

$$$$
