
 OpenBabel03252505153D

 24 26  0  0  0  0  0  0  0  0999 V2000
   44.5680   35.9380   44.3390 C   0  0  0  0  0  0  0  0  0  0  0  0
   45.2940   35.8870   43.1360 C   0  0  0  0  0  0  0  0  0  0  0  0
   46.2480   34.8850   43.0510 C   0  0  0  0  0  0  0  0  0  0  0  0
   46.4460   34.0140   44.0950 N   0  0  0  0  0  0  0  0  0  0  0  0
   45.7140   34.1040   45.2420 C   0  0  0  0  0  0  0  0  0  0  0  0
   44.7810   35.0670   45.3530 N   0  0  0  0  0  0  0  0  0  0  0  0
   43.8070   36.6860   44.4890 H   0  0  0  0  0  0  0  0  0  0  0  0
   45.1250   36.5700   42.3440 H   0  0  0  0  0  0  0  0  0  0  0  0
   47.0710   34.7090   41.8090 C   0  0  0  0  0  0  0  0  0  0  0  0
   48.3570   35.5050   41.8270 C   0  0  0  0  0  0  0  0  0  0  0  0
   48.3130   33.9540   41.8860 C   0  0  0  0  0  0  0  0  0  0  0  0
   46.4710   34.7600   40.8870 H   0  0  0  0  0  0  0  0  0  0  0  0
   48.6590   36.0580   42.7140 H   0  0  0  0  0  0  0  0  0  0  0  0
   48.6170   35.9720   40.8650 H   0  0  0  0  0  0  0  0  0  0  0  0
   48.7660   33.5710   42.7980 H   0  0  0  0  0  0  0  0  0  0  0  0
   48.7080   33.4900   40.9420 H   0  0  0  0  0  0  0  0  0  0  0  0
   46.0580   33.0970   46.2410 C   0  0  0  0  0  0  0  0  0  0  0  0
   45.2860   32.9780   47.3990 C   0  0  0  0  0  0  0  0  0  0  0  0
   44.4030   33.5650   47.6890 H   0  0  0  0  0  0  0  0  0  0  0  0
   45.8020   31.9880   48.1520 N   0  0  0  0  0  0  0  0  0  0  0  0
   45.4090   31.6960   49.0730 H   0  0  0  0  0  0  0  0  0  0  0  0
   46.8810   31.4920   47.4810 C   0  0  0  0  0  0  0  0  0  0  0  0
   47.4320   30.6880   47.9250 H   0  0  0  0  0  0  0  0  0  0  0  0
   47.0350   32.1740   46.3090 N   0  0  0  0  0  0  0  0  0  0  0  0
  1  7  1  0  0  0  0
  1  6  1  0  0  0  0
  2  1  2  0  0  0  0
  3  2  1  0  0  0  0
  3  4  2  0  0  0  0
  4  5  1  0  0  0  0
  5  6  2  0  0  0  0
  5 17  1  0  0  0  0
  8  2  1  0  0  0  0
  9 10  1  0  0  0  0
  9 11  1  0  0  0  0
  9  3  1  0  0  0  0
 10 11  1  0  0  0  0
 10 13  1  0  0  0  0
 11 15  1  0  0  0  0
 12  9  1  0  0  0  0
 14 10  1  0  0  0  0
 16 11  1  0  0  0  0
 17 24  1  0  0  0  0
 17 18  2  0  0  0  0
 18 19  1  0  0  0  0
 18 20  1  0  0  0  0
 20 21  1  0  0  0  0
 22 23  1  0  0  0  0
 22 20  1  0  0  0  0
 24 22  2  0  0  0  0
M  END
>  <minimizedAffinity>
-4.8029089

>  <minimizedRMSD>
0.156250715

$$$$
