
 OpenBabel03252506123D

 35 37  0  0  0  0  0  0  0  0999 V2000
   45.1770   33.4050   41.1840 F   0  0  0  0  0  0  0  0  0  0  0  0
   46.3510   34.0280   41.0540 C   0  0  0  0  0  0  0  0  0  0  0  0
   46.8330   34.7860   42.0990 C   0  0  0  0  0  0  0  0  0  0  0  0
   48.0520   35.4680   42.0470 C   0  0  0  0  0  0  0  0  0  0  0  0
   48.8240   35.3840   40.8880 C   0  0  0  0  0  0  0  0  0  0  0  0
   48.3050   34.6130   39.8620 C   0  0  0  0  0  0  0  0  0  0  0  0
   47.1230   33.9460   39.9000 C   0  0  0  0  0  0  0  0  0  0  0  0
   48.3620   36.0430   42.9080 H   0  0  0  0  0  0  0  0  0  0  0  0
   49.7520   35.9250   40.8930 H   0  0  0  0  0  0  0  0  0  0  0  0
   49.0050   34.6280   39.0320 H   0  0  0  0  0  0  0  0  0  0  0  0
   45.4600   34.0140   45.4130 C   0  0  0  0  0  0  0  0  0  0  0  0
   44.6160   35.1280   45.6440 C   0  0  0  0  0  0  0  0  0  0  0  0
   44.5270   36.1380   44.6550 C   0  0  0  0  0  0  0  0  0  0  0  0
   45.2760   35.9630   43.5260 N   0  0  0  0  0  0  0  0  0  0  0  0
   46.0600   34.9000   43.3400 C   0  0  0  0  0  0  0  0  0  0  0  0
   46.1480   33.9390   44.2750 N   0  0  0  0  0  0  0  0  0  0  0  0
   44.0440   35.2310   46.5410 H   0  0  0  0  0  0  0  0  0  0  0  0
   43.8920   37.0010   44.8010 H   0  0  0  0  0  0  0  0  0  0  0  0
   45.5380   33.0130   46.4100 N   0  0  0  0  0  0  0  0  0  0  0  0
   45.4940   31.9600   46.2660 H   0  0  0  0  0  0  0  0  0  0  0  0
   45.6540   33.3140   47.4240 H   0  0  0  0  0  0  0  0  0  0  0  0
   46.7050   33.2120   38.8260 O   0  0  0  0  0  0  0  0  0  0  0  0
   48.0590   34.6250   37.0410 O   0  0  0  0  0  0  0  0  0  0  0  0
   47.2250   33.3850   37.2370 P   0  0  2  0  0  0  0  0  0  0  0  0
   45.8320   33.4470   36.2360 O   0  0  0  0  0  0  0  0  0  0  0  0
   45.5240   32.5130   36.0460 H   0  0  0  0  0  0  0  0  0  0  0  0
   48.0940   32.0560   36.6620 O   0  0  0  0  0  0  0  0  0  0  0  0
   49.2150   31.5200   37.2820 C   0  0  0  0  0  0  0  0  0  0  0  0
   49.5940   30.2230   36.9980 C   0  0  0  0  0  0  0  0  0  0  0  0
   49.2050   29.4380   36.3550 H   0  0  0  0  0  0  0  0  0  0  0  0
   50.7080   29.9630   37.7340 N   0  0  0  0  0  0  0  0  0  0  0  0
   51.3390   29.1170   37.8430 H   0  0  0  0  0  0  0  0  0  0  0  0
   51.0250   31.0490   38.4560 C   0  0  0  0  0  0  0  0  0  0  0  0
   51.7690   31.3760   39.1680 H   0  0  0  0  0  0  0  0  0  0  0  0
   50.1090   32.0210   38.1850 N   0  0  0  0  0  0  0  0  0  0  0  0
  2  1  1  0  0  0  0
  2  3  1  0  0  0  0
  3 15  1  0  0  0  0
  4  3  2  0  0  0  0
  4  8  1  0  0  0  0
  5  9  1  0  0  0  0
  5  4  1  0  0  0  0
  6  7  1  0  0  0  0
  6  5  2  0  0  0  0
  7  2  2  0  0  0  0
 10  6  1  0  0  0  0
 11 12  1  0  0  0  0
 11 19  1  0  0  0  0
 12 17  1  0  0  0  0
 13 18  1  0  0  0  0
 13 12  2  0  0  0  0
 14 13  1  0  0  0  0
 15 14  2  0  0  0  0
 15 16  1  0  0  0  0
 16 11  2  0  0  0  0
 19 21  1  0  0  0  0
 20 19  1  0  0  0  0
 22  7  1  0  0  0  0
 24 23  2  6  0  0  0
 24 22  1  0  0  0  0
 25 24  1  0  0  0  0
 26 25  1  0  0  0  0
 27 24  1  0  0  0  0
 27 28  1  0  0  0  0
 28 35  1  0  0  0  0
 29 28  2  0  0  0  0
 29 31  1  0  0  0  0
 30 29  1  0  0  0  0
 31 32  1  0  0  0  0
 31 33  1  0  0  0  0
 33 34  1  0  0  0  0
 35 33  2  0  0  0  0
M  END
>  <minimizedAffinity>
-5.99871778

>  <minimizedRMSD>
0.535721421

$$$$
