
 OpenBabel03242518293D

 20 21  0  0  0  0  0  0  0  0999 V2000
   37.0420   27.1090   42.7550 C   0  0  0  0  0  0  0  0  0  0  0  0
   36.1960   27.3860   43.6510 O   0  0  0  0  0  0  0  0  0  0  0  0
   38.2590   26.3910   42.9100 C   0  0  0  0  0  0  0  0  0  0  0  0
   39.2720   27.1250   43.4900 C   0  0  0  0  0  0  0  0  0  0  0  0
   40.5090   26.4920   43.6800 C   0  0  0  0  0  0  0  0  0  0  0  0
   40.6390   25.1910   43.2820 N   0  0  0  0  0  0  0  0  0  0  0  0
   39.6160   24.5180   42.7190 C   0  0  0  0  0  0  0  0  0  0  0  0
   38.4230   25.1160   42.5310 N   0  0  0  0  0  0  0  0  0  0  0  0
   39.2270   28.1500   43.8230 H   0  0  0  0  0  0  0  0  0  0  0  0
   41.3600   26.9690   44.1200 H   0  0  0  0  0  0  0  0  0  0  0  0
   39.7280   23.4740   42.4010 H   0  0  0  0  0  0  0  0  0  0  0  0
   36.7700   27.5510   41.4510 O   0  0  0  0  0  0  0  0  0  0  0  0
   36.5370   28.9100   41.1920 C   0  0  0  0  0  0  0  0  0  0  0  0
   35.4660   29.5880   40.7020 C   0  0  0  0  0  0  0  0  0  0  0  0
   34.5680   29.0330   40.4320 H   0  0  0  0  0  0  0  0  0  0  0  0
   35.7620   30.9060   40.6490 N   0  0  0  0  0  0  0  0  0  0  0  0
   35.0250   31.5720   40.2860 H   0  0  0  0  0  0  0  0  0  0  0  0
   37.0250   31.0710   41.1060 C   0  0  0  0  0  0  0  0  0  0  0  0
   37.4710   32.0440   41.1520 H   0  0  0  0  0  0  0  0  0  0  0  0
   37.4940   29.8530   41.4360 N   0  0  0  0  0  0  0  0  0  0  0  0
  1  3  1  0  0  0  0
  1  2  2  0  0  0  0
  3  4  1  0  0  0  0
  4  5  2  0  0  0  0
  4  9  1  0  0  0  0
  5 10  1  0  0  0  0
  6  5  1  0  0  0  0
  7  6  2  0  0  0  0
  8  7  1  0  0  0  0
  8  3  2  0  0  0  0
 11  7  1  0  0  0  0
 12  1  1  0  0  0  0
 13 20  1  0  0  0  0
 13 12  1  0  0  0  0
 14 13  2  0  0  0  0
 15 14  1  0  0  0  0
 16 14  1  0  0  0  0
 16 18  1  0  0  0  0
 17 16  1  0  0  0  0
 18 19  1  0  0  0  0
 18 20  2  0  0  0  0
M  END
>  <minimizedAffinity>
-4.16313028

$$$$

 OpenBabel03242518293D

 20 21  0  0  0  0  0  0  0  0999 V2000
   35.9760   29.8050   40.8960 C   0  0  0  0  0  0  0  0  0  0  0  0
   35.1060   29.4450   40.0550 O   0  0  0  0  0  0  0  0  0  0  0  0
   36.7710   28.9690   41.7270 C   0  0  0  0  0  0  0  0  0  0  0  0
   36.5700   27.6200   41.5200 C   0  0  0  0  0  0  0  0  0  0  0  0
   37.3160   26.7240   42.2990 C   0  0  0  0  0  0  0  0  0  0  0  0
   38.1940   27.2350   43.2130 N   0  0  0  0  0  0  0  0  0  0  0  0
   38.3530   28.5630   43.3760 C   0  0  0  0  0  0  0  0  0  0  0  0
   37.6420   29.4340   42.6340 N   0  0  0  0  0  0  0  0  0  0  0  0
   35.8930   27.1620   40.8160 H   0  0  0  0  0  0  0  0  0  0  0  0
   37.2370   25.6600   42.2190 H   0  0  0  0  0  0  0  0  0  0  0  0
   39.0600   28.9650   44.1120 H   0  0  0  0  0  0  0  0  0  0  0  0
   36.2000   31.1830   41.0450 O   0  0  0  0  0  0  0  0  0  0  0  0
   37.0970   31.8560   40.2010 C   0  0  0  0  0  0  0  0  0  0  0  0
   37.1380   32.0440   38.8570 C   0  0  0  0  0  0  0  0  0  0  0  0
   36.3490   31.6160   38.2390 H   0  0  0  0  0  0  0  0  0  0  0  0
   38.2300   32.7780   38.5460 N   0  0  0  0  0  0  0  0  0  0  0  0
   38.4050   33.0120   37.5280 H   0  0  0  0  0  0  0  0  0  0  0  0
   38.8880   33.0590   39.6940 C   0  0  0  0  0  0  0  0  0  0  0  0
   39.7910   33.6360   39.6830 H   0  0  0  0  0  0  0  0  0  0  0  0
   38.1950   32.4960   40.7010 N   0  0  0  0  0  0  0  0  0  0  0  0
  1 12  1  0  0  0  0
  1  3  1  0  0  0  0
  2  1  2  0  0  0  0
  3  8  1  0  0  0  0
  4  3  2  0  0  0  0
  4  5  1  0  0  0  0
  5  6  2  0  0  0  0
  6  7  1  0  0  0  0
  7 11  1  0  0  0  0
  8  7  2  0  0  0  0
  9  4  1  0  0  0  0
 10  5  1  0  0  0  0
 13 20  1  0  0  0  0
 13 12  1  0  0  0  0
 14 13  2  0  0  0  0
 15 14  1  0  0  0  0
 16 14  1  0  0  0  0
 16 18  1  0  0  0  0
 17 16  1  0  0  0  0
 18 20  2  0  0  0  0
 19 18  1  0  0  0  0
M  END
>  <minimizedAffinity>
-4.15520382

$$$$

 OpenBabel03242518293D

 20 21  0  0  0  0  0  0  0  0999 V2000
   39.2060   30.1270   42.0460 C   0  0  0  0  0  0  0  0  0  0  0  0
   39.8750   30.7390   42.9250 O   0  0  0  0  0  0  0  0  0  0  0  0
   38.4390   28.9420   42.2150 C   0  0  0  0  0  0  0  0  0  0  0  0
   37.7850   28.8670   43.4280 C   0  0  0  0  0  0  0  0  0  0  0  0
   37.0050   27.7290   43.6770 C   0  0  0  0  0  0  0  0  0  0  0  0
   36.9360   26.7660   42.7090 N   0  0  0  0  0  0  0  0  0  0  0  0
   37.5950   26.8890   41.5400 C   0  0  0  0  0  0  0  0  0  0  0  0
   38.3480   27.9770   41.2900 N   0  0  0  0  0  0  0  0  0  0  0  0
   37.8030   29.5940   44.2250 H   0  0  0  0  0  0  0  0  0  0  0  0
   36.4570   27.5700   44.5820 H   0  0  0  0  0  0  0  0  0  0  0  0
   37.5340   26.1110   40.7690 H   0  0  0  0  0  0  0  0  0  0  0  0
   39.2070   30.6590   40.7470 O   0  0  0  0  0  0  0  0  0  0  0  0
   38.4960   31.8340   40.4560 C   0  0  0  0  0  0  0  0  0  0  0  0
   37.1890   32.0800   40.1840 C   0  0  0  0  0  0  0  0  0  0  0  0
   36.4860   31.2470   40.1700 H   0  0  0  0  0  0  0  0  0  0  0  0
   37.0220   33.4040   39.9720 N   0  0  0  0  0  0  0  0  0  0  0  0
   36.0510   33.7590   39.7470 H   0  0  0  0  0  0  0  0  0  0  0  0
   38.2260   34.0060   40.1090 C   0  0  0  0  0  0  0  0  0  0  0  0
   38.3290   35.0650   39.9830 H   0  0  0  0  0  0  0  0  0  0  0  0
   39.1230   33.0460   40.4040 N   0  0  0  0  0  0  0  0  0  0  0  0
  1  3  1  0  0  0  0
  1  2  2  0  0  0  0
  3  4  1  0  0  0  0
  4  5  2  0  0  0  0
  4  9  1  0  0  0  0
  5 10  1  0  0  0  0
  6  5  1  0  0  0  0
  7  6  2  0  0  0  0
  8  7  1  0  0  0  0
  8  3  2  0  0  0  0
 11  7  1  0  0  0  0
 12  1  1  0  0  0  0
 13 12  1  0  0  0  0
 14 13  2  0  0  0  0
 15 14  1  0  0  0  0
 16 18  1  0  0  0  0
 16 14  1  0  0  0  0
 17 16  1  0  0  0  0
 18 20  2  0  0  0  0
 19 18  1  0  0  0  0
 20 13  1  0  0  0  0
M  END
>  <minimizedAffinity>
-4.14992237

$$$$

 OpenBabel03242518293D

 20 21  0  0  0  0  0  0  0  0999 V2000
   36.9370   27.5970   41.3670 C   0  0  0  0  0  0  0  0  0  0  0  0
   36.3140   27.5600   40.2690 O   0  0  0  0  0  0  0  0  0  0  0  0
   37.7570   26.5810   41.9290 C   0  0  0  0  0  0  0  0  0  0  0  0
   37.3130   25.2990   41.6750 C   0  0  0  0  0  0  0  0  0  0  0  0
   38.0650   24.2350   42.1940 C   0  0  0  0  0  0  0  0  0  0  0  0
   39.1870   24.5270   42.9170 N   0  0  0  0  0  0  0  0  0  0  0  0
   39.5780   25.7980   43.1370 C   0  0  0  0  0  0  0  0  0  0  0  0
   38.8630   26.8280   42.6440 N   0  0  0  0  0  0  0  0  0  0  0  0
   36.4380   25.0110   41.1130 H   0  0  0  0  0  0  0  0  0  0  0  0
   37.8100   23.2050   42.0560 H   0  0  0  0  0  0  0  0  0  0  0  0
   40.4800   26.0230   43.7180 H   0  0  0  0  0  0  0  0  0  0  0  0
   36.8200   28.7650   42.1370 O   0  0  0  0  0  0  0  0  0  0  0  0
   36.9980   30.0270   41.5510 C   0  0  0  0  0  0  0  0  0  0  0  0
   36.1300   30.9550   41.0710 C   0  0  0  0  0  0  0  0  0  0  0  0
   35.0610   30.7490   41.1140 H   0  0  0  0  0  0  0  0  0  0  0  0
   36.8270   32.0160   40.6060 N   0  0  0  0  0  0  0  0  0  0  0  0
   36.2890   32.8300   40.1960 H   0  0  0  0  0  0  0  0  0  0  0  0
   38.1440   31.7660   40.7900 C   0  0  0  0  0  0  0  0  0  0  0  0
   38.8860   32.4780   40.4920 H   0  0  0  0  0  0  0  0  0  0  0  0
   38.2450   30.5530   41.3660 N   0  0  0  0  0  0  0  0  0  0  0  0
  1  3  1  0  0  0  0
  1 12  1  0  0  0  0
  2  1  2  0  0  0  0
  3  8  1  0  0  0  0
  4  3  2  0  0  0  0
  4  5  1  0  0  0  0
  5  6  2  0  0  0  0
  6  7  1  0  0  0  0
  7 11  1  0  0  0  0
  8  7  2  0  0  0  0
  9  4  1  0  0  0  0
 10  5  1  0  0  0  0
 13 12  1  0  0  0  0
 14 15  1  0  0  0  0
 14 13  2  0  0  0  0
 16 18  1  0  0  0  0
 16 14  1  0  0  0  0
 17 16  1  0  0  0  0
 18 20  2  0  0  0  0
 19 18  1  0  0  0  0
 20 13  1  0  0  0  0
M  END
>  <minimizedAffinity>
-3.98997879

$$$$

 OpenBabel03242518293D

 20 21  0  0  0  0  0  0  0  0999 V2000
   36.9380   28.0350   42.4960 C   0  0  0  0  0  0  0  0  0  0  0  0
   36.5770   27.7850   43.6800 O   0  0  0  0  0  0  0  0  0  0  0  0
   37.3660   29.2840   41.9690 C   0  0  0  0  0  0  0  0  0  0  0  0
   38.6670   29.6110   42.2910 C   0  0  0  0  0  0  0  0  0  0  0  0
   39.1700   30.8280   41.8110 C   0  0  0  0  0  0  0  0  0  0  0  0
   38.3490   31.6160   41.0550 N   0  0  0  0  0  0  0  0  0  0  0  0
   37.0840   31.2500   40.7690 C   0  0  0  0  0  0  0  0  0  0  0  0
   36.5890   30.0830   41.2250 N   0  0  0  0  0  0  0  0  0  0  0  0
   39.3580   29.0300   42.8810 H   0  0  0  0  0  0  0  0  0  0  0  0
   40.1640   31.1770   42.0020 H   0  0  0  0  0  0  0  0  0  0  0  0
   36.4300   31.8880   40.1610 H   0  0  0  0  0  0  0  0  0  0  0  0
   36.9210   26.9730   41.5780 O   0  0  0  0  0  0  0  0  0  0  0  0
   37.5530   25.7570   41.8810 C   0  0  0  0  0  0  0  0  0  0  0  0
   37.1410   24.4640   41.8350 C   0  0  0  0  0  0  0  0  0  0  0  0
   36.1250   24.2450   41.5080 H   0  0  0  0  0  0  0  0  0  0  0  0
   38.1520   23.6620   42.2360 N   0  0  0  0  0  0  0  0  0  0  0  0
   37.9880   22.6170   42.2560 H   0  0  0  0  0  0  0  0  0  0  0  0
   39.2140   24.4450   42.5380 C   0  0  0  0  0  0  0  0  0  0  0  0
   40.1340   24.0160   42.8810 H   0  0  0  0  0  0  0  0  0  0  0  0
   38.8460   25.7210   42.3200 N   0  0  0  0  0  0  0  0  0  0  0  0
  1  2  2  0  0  0  0
  3  4  1  0  0  0  0
  3  1  1  0  0  0  0
  4  9  1  0  0  0  0
  5 10  1  0  0  0  0
  5  4  2  0  0  0  0
  6  5  1  0  0  0  0
  7  6  2  0  0  0  0
  7  8  1  0  0  0  0
  8  3  2  0  0  0  0
 11  7  1  0  0  0  0
 12 13  1  0  0  0  0
 12  1  1  0  0  0  0
 13 20  1  0  0  0  0
 14 13  2  0  0  0  0
 14 16  1  0  0  0  0
 15 14  1  0  0  0  0
 16 17  1  0  0  0  0
 16 18  1  0  0  0  0
 18 19  1  0  0  0  0
 20 18  2  0  0  0  0
M  END
>  <minimizedAffinity>
-3.91292524

$$$$

 OpenBabel03242518293D

 20 21  0  0  0  0  0  0  0  0999 V2000
   39.0530   30.8630   41.0500 C   0  0  0  0  0  0  0  0  0  0  0  0
   39.1260   32.0930   41.3240 O   0  0  0  0  0  0  0  0  0  0  0  0
   38.2740   29.8750   41.7120 C   0  0  0  0  0  0  0  0  0  0  0  0
   37.3390   29.2640   40.9010 C   0  0  0  0  0  0  0  0  0  0  0  0
   36.5260   28.2760   41.4750 C   0  0  0  0  0  0  0  0  0  0  0  0
   36.7050   27.9760   42.7960 N   0  0  0  0  0  0  0  0  0  0  0  0
   37.6340   28.6040   43.5450 C   0  0  0  0  0  0  0  0  0  0  0  0
   38.4200   29.5560   43.0050 N   0  0  0  0  0  0  0  0  0  0  0  0
   37.1550   29.4590   39.8560 H   0  0  0  0  0  0  0  0  0  0  0  0
   35.7720   27.7410   40.9360 H   0  0  0  0  0  0  0  0  0  0  0  0
   37.7710   28.3580   44.6050 H   0  0  0  0  0  0  0  0  0  0  0  0
   39.8220   30.3950   39.9730 O   0  0  0  0  0  0  0  0  0  0  0  0
   39.9880   31.1770   38.8200 C   0  0  0  0  0  0  0  0  0  0  0  0
   39.1460   31.5310   37.8140 C   0  0  0  0  0  0  0  0  0  0  0  0
   38.1170   31.1740   37.8360 H   0  0  0  0  0  0  0  0  0  0  0  0
   39.8120   32.3100   36.9330 N   0  0  0  0  0  0  0  0  0  0  0  0
   39.2900   32.6710   36.0860 H   0  0  0  0  0  0  0  0  0  0  0  0
   41.0830   32.4550   37.3760 C   0  0  0  0  0  0  0  0  0  0  0  0
   41.7940   33.0380   36.8280 H   0  0  0  0  0  0  0  0  0  0  0  0
   41.1860   31.7630   38.5270 N   0  0  0  0  0  0  0  0  0  0  0  0
  1  2  2  0  0  0  0
  1  3  1  0  0  0  0
  3  8  1  0  0  0  0
  4  5  1  0  0  0  0
  4  3  2  0  0  0  0
  5  6  2  0  0  0  0
  6  7  1  0  0  0  0
  7 11  1  0  0  0  0
  8  7  2  0  0  0  0
  9  4  1  0  0  0  0
 10  5  1  0  0  0  0
 12  1  1  0  0  0  0
 13 12  1  0  0  0  0
 14 15  1  0  0  0  0
 14 13  2  0  0  0  0
 16 18  1  0  0  0  0
 16 14  1  0  0  0  0
 17 16  1  0  0  0  0
 18 20  2  0  0  0  0
 19 18  1  0  0  0  0
 20 13  1  0  0  0  0
M  END
>  <minimizedAffinity>
-3.872051

$$$$

 OpenBabel03242518293D

 20 21  0  0  0  0  0  0  0  0999 V2000
   38.6760   29.4560   40.1770 C   0  0  0  0  0  0  0  0  0  0  0  0
   38.5620   29.0920   38.9730 O   0  0  0  0  0  0  0  0  0  0  0  0
   38.2520   28.7500   41.3360 C   0  0  0  0  0  0  0  0  0  0  0  0
   39.2820   28.3970   42.1830 C   0  0  0  0  0  0  0  0  0  0  0  0
   38.9520   27.6970   43.3520 C   0  0  0  0  0  0  0  0  0  0  0  0
   37.6370   27.4060   43.5840 N   0  0  0  0  0  0  0  0  0  0  0  0
   36.6680   27.7740   42.7220 C   0  0  0  0  0  0  0  0  0  0  0  0
   36.9730   28.4470   41.5960 N   0  0  0  0  0  0  0  0  0  0  0  0
   40.3340   28.6000   42.0520 H   0  0  0  0  0  0  0  0  0  0  0  0
   39.6720   27.3760   44.0760 H   0  0  0  0  0  0  0  0  0  0  0  0
   35.6150   27.5360   42.9160 H   0  0  0  0  0  0  0  0  0  0  0  0
   39.2860   30.6960   40.4220 O   0  0  0  0  0  0  0  0  0  0  0  0
   38.5630   31.8890   40.2750 C   0  0  0  0  0  0  0  0  0  0  0  0
   37.2380   32.1570   40.1440 C   0  0  0  0  0  0  0  0  0  0  0  0
   36.5300   31.3300   40.1410 H   0  0  0  0  0  0  0  0  0  0  0  0
   37.0650   33.4940   40.0350 N   0  0  0  0  0  0  0  0  0  0  0  0
   36.0800   33.8660   39.9250 H   0  0  0  0  0  0  0  0  0  0  0  0
   38.2830   34.0810   40.0980 C   0  0  0  0  0  0  0  0  0  0  0  0
   38.3840   35.1450   40.0320 H   0  0  0  0  0  0  0  0  0  0  0  0
   39.1930   33.1010   40.2450 N   0  0  0  0  0  0  0  0  0  0  0  0
  1 12  1  0  0  0  0
  1  3  1  0  0  0  0
  2  1  2  0  0  0  0
  3  8  2  0  0  0  0
  3  4  1  0  0  0  0
  4  5  2  0  0  0  0
  5  6  1  0  0  0  0
  5 10  1  0  0  0  0
  7 11  1  0  0  0  0
  7  6  2  0  0  0  0
  8  7  1  0  0  0  0
  9  4  1  0  0  0  0
 13 12  1  0  0  0  0
 14 13  2  0  0  0  0
 15 14  1  0  0  0  0
 16 18  1  0  0  0  0
 16 14  1  0  0  0  0
 17 16  1  0  0  0  0
 18 20  2  0  0  0  0
 19 18  1  0  0  0  0
 20 13  1  0  0  0  0
M  END
>  <minimizedAffinity>
-3.83866501

$$$$

 OpenBabel03242518293D

 20 21  0  0  0  0  0  0  0  0999 V2000
   37.2630   26.7760   42.4700 C   0  0  0  0  0  0  0  0  0  0  0  0
   36.4820   26.8620   43.4590 O   0  0  0  0  0  0  0  0  0  0  0  0
   37.7250   25.5910   41.8350 C   0  0  0  0  0  0  0  0  0  0  0  0
   39.0150   25.6800   41.3550 C   0  0  0  0  0  0  0  0  0  0  0  0
   39.5490   24.5530   40.7120 C   0  0  0  0  0  0  0  0  0  0  0  0
   38.7660   23.4390   40.6000 N   0  0  0  0  0  0  0  0  0  0  0  0
   37.5100   23.4050   41.0870 C   0  0  0  0  0  0  0  0  0  0  0  0
   36.9860   24.4810   41.7050 N   0  0  0  0  0  0  0  0  0  0  0  0
   39.6770   26.5300   41.4150 H   0  0  0  0  0  0  0  0  0  0  0  0
   40.5380   24.5150   40.3050 H   0  0  0  0  0  0  0  0  0  0  0  0
   36.8880   22.5060   40.9930 H   0  0  0  0  0  0  0  0  0  0  0  0
   37.7430   27.9750   41.9200 O   0  0  0  0  0  0  0  0  0  0  0  0
   36.8530   28.9480   41.4410 C   0  0  0  0  0  0  0  0  0  0  0  0
   36.7400   30.2840   41.6570 C   0  0  0  0  0  0  0  0  0  0  0  0
   37.4470   30.7730   42.3260 H   0  0  0  0  0  0  0  0  0  0  0  0
   35.6960   30.7620   40.9430 N   0  0  0  0  0  0  0  0  0  0  0  0
   35.4750   31.7950   41.0050 H   0  0  0  0  0  0  0  0  0  0  0  0
   35.1400   29.7280   40.2690 C   0  0  0  0  0  0  0  0  0  0  0  0
   34.2910   29.8780   39.6350 H   0  0  0  0  0  0  0  0  0  0  0  0
   35.8480   28.6240   40.5750 N   0  0  0  0  0  0  0  0  0  0  0  0
  1  2  2  0  0  0  0
  3  1  1  0  0  0  0
  4  9  1  0  0  0  0
  4  3  2  0  0  0  0
  5  4  1  0  0  0  0
  6  5  2  0  0  0  0
  6  7  1  0  0  0  0
  7  8  2  0  0  0  0
  8  3  1  0  0  0  0
 10  5  1  0  0  0  0
 11  7  1  0  0  0  0
 12  1  1  0  0  0  0
 13 14  2  0  0  0  0
 13 12  1  0  0  0  0
 14 15  1  0  0  0  0
 16 17  1  0  0  0  0
 16 14  1  0  0  0  0
 18 20  2  0  0  0  0
 18 16  1  0  0  0  0
 19 18  1  0  0  0  0
 20 13  1  0  0  0  0
M  END
>  <minimizedAffinity>
-3.82912874

$$$$

 OpenBabel03242518293D

 20 21  0  0  0  0  0  0  0  0999 V2000
   37.1730   30.4300   41.4070 C   0  0  0  0  0  0  0  0  0  0  0  0
   36.0980   31.0390   41.1440 O   0  0  0  0  0  0  0  0  0  0  0  0
   37.3180   29.0860   41.8440 C   0  0  0  0  0  0  0  0  0  0  0  0
   37.8580   28.9640   43.1080 C   0  0  0  0  0  0  0  0  0  0  0  0
   38.0360   27.6690   43.6180 C   0  0  0  0  0  0  0  0  0  0  0  0
   37.6670   26.6090   42.8380 N   0  0  0  0  0  0  0  0  0  0  0  0
   37.1450   26.7840   41.6080 C   0  0  0  0  0  0  0  0  0  0  0  0
   36.9690   28.0220   41.1080 N   0  0  0  0  0  0  0  0  0  0  0  0
   38.1650   29.7620   43.7660 H   0  0  0  0  0  0  0  0  0  0  0  0
   38.4440   27.4630   44.5850 H   0  0  0  0  0  0  0  0  0  0  0  0
   36.8520   25.9270   40.9880 H   0  0  0  0  0  0  0  0  0  0  0  0
   38.3730   31.1440   41.2580 O   0  0  0  0  0  0  0  0  0  0  0  0
   38.7920   31.5790   39.9920 C   0  0  0  0  0  0  0  0  0  0  0  0
   39.3160   32.7490   39.5430 C   0  0  0  0  0  0  0  0  0  0  0  0
   39.4710   33.5640   40.2500 H   0  0  0  0  0  0  0  0  0  0  0  0
   39.5510   32.6490   38.2150 N   0  0  0  0  0  0  0  0  0  0  0  0
   39.9620   33.4850   37.7130 H   0  0  0  0  0  0  0  0  0  0  0  0
   39.1770   31.4120   37.8150 C   0  0  0  0  0  0  0  0  0  0  0  0
   39.2760   31.1120   36.7920 H   0  0  0  0  0  0  0  0  0  0  0  0
   38.7150   30.7620   38.9000 N   0  0  0  0  0  0  0  0  0  0  0  0
  1  3  1  0  0  0  0
  2  1  2  0  0  0  0
  3  4  1  0  0  0  0
  4  5  2  0  0  0  0
  4  9  1  0  0  0  0
  5 10  1  0  0  0  0
  6  5  1  0  0  0  0
  7  6  2  0  0  0  0
  8  7  1  0  0  0  0
  8  3  2  0  0  0  0
 11  7  1  0  0  0  0
 12  1  1  0  0  0  0
 13 12  1  0  0  0  0
 14 13  2  0  0  0  0
 14 15  1  0  0  0  0
 16 14  1  0  0  0  0
 17 16  1  0  0  0  0
 18 16  1  0  0  0  0
 18 20  2  0  0  0  0
 19 18  1  0  0  0  0
 20 13  1  0  0  0  0
M  END
>  <minimizedAffinity>
-3.78071737

$$$$
