
 OpenBabel03252505143D

 24 26  0  0  0  0  0  0  0  0999 V2000
   44.6640   35.7680   44.3120 C   0  0  0  0  0  0  0  0  0  0  0  0
   45.3560   35.8540   43.0910 C   0  0  0  0  0  0  0  0  0  0  0  0
   46.3490   34.9060   42.8950 C   0  0  0  0  0  0  0  0  0  0  0  0
   46.6130   33.9580   43.8520 N   0  0  0  0  0  0  0  0  0  0  0  0
   45.9110   33.9150   45.0210 C   0  0  0  0  0  0  0  0  0  0  0  0
   44.9420   34.8240   45.2390 N   0  0  0  0  0  0  0  0  0  0  0  0
   43.8760   36.4660   44.5460 H   0  0  0  0  0  0  0  0  0  0  0  0
   45.1360   36.5950   42.3660 H   0  0  0  0  0  0  0  0  0  0  0  0
   47.1420   34.8750   41.6210 C   0  0  0  0  0  0  0  0  0  0  0  0
   48.5050   35.5180   41.7510 C   0  0  0  0  0  0  0  0  0  0  0  0
   48.2980   33.9950   41.5310 C   0  0  0  0  0  0  0  0  0  0  0  0
   46.5460   35.1540   40.7390 H   0  0  0  0  0  0  0  0  0  0  0  0
   48.8680   35.8660   42.7150 H   0  0  0  0  0  0  0  0  0  0  0  0
   48.8080   36.1220   40.8830 H   0  0  0  0  0  0  0  0  0  0  0  0
   48.7130   33.4080   42.3480 H   0  0  0  0  0  0  0  0  0  0  0  0
   48.6370   33.6710   40.5100 H   0  0  0  0  0  0  0  0  0  0  0  0
   46.3260   32.8420   45.9190 C   0  0  0  0  0  0  0  0  0  0  0  0
   46.1300   31.5110   45.5430 C   0  0  0  0  0  0  0  0  0  0  0  0
   45.6830   31.1260   44.6150 H   0  0  0  0  0  0  0  0  0  0  0  0
   46.5910   30.7200   46.5300 N   0  0  0  0  0  0  0  0  0  0  0  0
   46.5630   29.6770   46.4990 H   0  0  0  0  0  0  0  0  0  0  0  0
   47.0690   31.5380   47.5120 C   0  0  0  0  0  0  0  0  0  0  0  0
   47.4840   31.0890   48.3910 H   0  0  0  0  0  0  0  0  0  0  0  0
   46.9050   32.8390   47.1330 N   0  0  0  0  0  0  0  0  0  0  0  0
  1  7  1  0  0  0  0
  1  6  1  0  0  0  0
  2  1  2  0  0  0  0
  3  2  1  0  0  0  0
  3  4  2  0  0  0  0
  4  5  1  0  0  0  0
  5  6  2  0  0  0  0
  5 17  1  0  0  0  0
  8  2  1  0  0  0  0
  9 10  1  0  0  0  0
  9  3  1  0  0  0  0
 10 13  1  0  0  0  0
 11  9  1  0  0  0  0
 11 10  1  0  0  0  0
 11 15  1  0  0  0  0
 12  9  1  0  0  0  0
 14 10  1  0  0  0  0
 16 11  1  0  0  0  0
 17 24  1  0  0  0  0
 18 17  2  0  0  0  0
 18 20  1  0  0  0  0
 19 18  1  0  0  0  0
 20 22  1  0  0  0  0
 21 20  1  0  0  0  0
 22 23  1  0  0  0  0
 24 22  2  0  0  0  0
M  END
>  <minimizedAffinity>
-4.66521692

>  <minimizedRMSD>
0.41001609

$$$$
