
 OpenBabel03252502573D

 36 38  0  0  0  0  0  0  0  0999 V2000
   35.4620   29.0710   40.6540 Br  0  0  0  0  0  0  0  0  0  0  0  0
   37.1540   29.3560   41.5180 C   0  0  0  0  0  0  0  0  0  0  0  0
   37.5860   28.3300   42.3260 C   0  0  0  0  0  0  0  0  0  0  0  0
   38.8250   28.5670   42.9420 C   0  0  0  0  0  0  0  0  0  0  0  0
   39.5540   29.7230   42.7630 C   0  0  0  0  0  0  0  0  0  0  0  0
   39.0490   30.6950   41.9410 C   0  0  0  0  0  0  0  0  0  0  0  0
   37.8450   30.5300   41.3060 C   0  0  0  0  0  0  0  0  0  0  0  0
   39.2300   27.7950   43.5990 H   0  0  0  0  0  0  0  0  0  0  0  0
   40.5050   29.8060   43.2910 H   0  0  0  0  0  0  0  0  0  0  0  0
   39.6680   31.5780   41.8410 H   0  0  0  0  0  0  0  0  0  0  0  0
   36.9100   27.0640   42.5960 C   0  0  0  0  0  0  0  0  0  0  0  0
   36.9170   26.8950   43.6920 H   0  0  0  0  0  0  0  0  0  0  0  0
   35.8450   27.1540   42.3030 H   0  0  0  0  0  0  0  0  0  0  0  0
   38.8340   23.9880   41.7000 C   0  0  0  0  0  0  0  0  0  0  0  0
   38.4930   23.8310   40.3600 C   0  0  0  0  0  0  0  0  0  0  0  0
   37.6250   24.7580   39.7800 C   0  0  0  0  0  0  0  0  0  0  0  0
   37.1590   25.7600   40.5450 N   0  0  0  0  0  0  0  0  0  0  0  0
   37.4980   25.9070   41.8580 C   0  0  0  0  0  0  0  0  0  0  0  0
   38.3380   24.9970   42.3920 N   0  0  0  0  0  0  0  0  0  0  0  0
   39.5130   23.2570   42.1430 H   0  0  0  0  0  0  0  0  0  0  0  0
   38.9080   22.9990   39.8060 H   0  0  0  0  0  0  0  0  0  0  0  0
   37.3580   24.6390   38.7380 H   0  0  0  0  0  0  0  0  0  0  0  0
   37.3530   31.5280   40.4770 O   0  0  0  0  0  0  0  0  0  0  0  0
   38.8020   33.6260   41.0190 O   0  0  0  0  0  0  0  0  0  0  0  0
   38.3320   32.7630   39.8390 P   0  0  2  0  0  0  0  0  0  0  0  0
   37.3950   33.6870   38.8120 O   0  0  0  0  0  0  0  0  0  0  0  0
   37.1620   33.1510   38.0190 H   0  0  0  0  0  0  0  0  0  0  0  0
   39.7120   32.1790   39.0890 O   0  0  0  0  0  0  0  0  0  0  0  0
   40.6980   32.9380   38.4970 C   0  0  0  0  0  0  0  0  0  0  0  0
   41.2340   32.4850   37.3090 C   0  0  0  0  0  0  0  0  0  0  0  0
   41.0520   31.6060   36.6820 H   0  0  0  0  0  0  0  0  0  0  0  0
   42.1760   33.3850   36.9150 N   0  0  0  0  0  0  0  0  0  0  0  0
   42.8060   33.3970   36.0640 H   0  0  0  0  0  0  0  0  0  0  0  0
   42.2110   34.3720   37.8520 C   0  0  0  0  0  0  0  0  0  0  0  0
   42.8620   35.2520   37.8380 H   0  0  0  0  0  0  0  0  0  0  0  0
   41.3050   34.0790   38.8020 N   0  0  0  0  0  0  0  0  0  0  0  0
  1  2  1  0  0  0  0
  2  3  1  0  0  0  0
  3 11  1  0  0  0  0
  3  4  2  0  0  0  0
  4  8  1  0  0  0  0
  5  4  1  0  0  0  0
  5  9  1  0  0  0  0
  6  5  2  0  0  0  0
  7  2  2  0  0  0  0
  7  6  1  0  0  0  0
 10  6  1  0  0  0  0
 11 12  1  0  0  0  0
 13 11  1  0  0  0  0
 14 20  1  0  0  0  0
 14 19  1  0  0  0  0
 15 14  2  0  0  0  0
 16 15  1  0  0  0  0
 16 17  2  0  0  0  0
 17 18  1  0  0  0  0
 18 19  2  0  0  0  0
 18 11  1  0  0  0  0
 21 15  1  0  0  0  0
 22 16  1  0  0  0  0
 23  7  1  0  0  0  0
 25 23  1  0  0  0  0
 25 24  2  1  0  0  0
 26 25  1  0  0  0  0
 27 26  1  0  0  0  0
 28 25  1  0  0  0  0
 29 36  1  0  0  0  0
 29 28  1  0  0  0  0
 30 29  2  0  0  0  0
 31 30  1  0  0  0  0
 32 30  1  0  0  0  0
 32 34  1  0  0  0  0
 33 32  1  0  0  0  0
 34 36  2  0  0  0  0
 35 34  1  0  0  0  0
M  END
>  <minimizedAffinity>
-5.88142252

$$$$

 OpenBabel03252502573D

 36 38  0  0  0  0  0  0  0  0999 V2000
   39.0790   29.5410   42.9510 Br  0  0  0  0  0  0  0  0  0  0  0  0
   37.5420   29.5800   41.8000 C   0  0  0  0  0  0  0  0  0  0  0  0
   36.7460   28.4590   41.8360 C   0  0  0  0  0  0  0  0  0  0  0  0
   35.6310   28.5190   40.9850 C   0  0  0  0  0  0  0  0  0  0  0  0
   35.3470   29.6000   40.1780 C   0  0  0  0  0  0  0  0  0  0  0  0
   36.1930   30.6770   40.2050 C   0  0  0  0  0  0  0  0  0  0  0  0
   37.3010   30.6870   41.0130 C   0  0  0  0  0  0  0  0  0  0  0  0
   34.9550   27.6620   40.9610 H   0  0  0  0  0  0  0  0  0  0  0  0
   34.4540   29.5420   39.5540 H   0  0  0  0  0  0  0  0  0  0  0  0
   35.9170   31.4930   39.5500 H   0  0  0  0  0  0  0  0  0  0  0  0
   36.9380   27.2570   42.6410 C   0  0  0  0  0  0  0  0  0  0  0  0
   37.5510   27.5260   43.5250 H   0  0  0  0  0  0  0  0  0  0  0  0
   35.9560   26.9250   43.0350 H   0  0  0  0  0  0  0  0  0  0  0  0
   39.1010   25.1890   40.4030 C   0  0  0  0  0  0  0  0  0  0  0  0
   38.5280   23.9290   40.5520 C   0  0  0  0  0  0  0  0  0  0  0  0
   37.4260   23.7960   41.4000 C   0  0  0  0  0  0  0  0  0  0  0  0
   36.9720   24.8910   42.0330 N   0  0  0  0  0  0  0  0  0  0  0  0
   37.5400   26.1210   41.8810 C   0  0  0  0  0  0  0  0  0  0  0  0
   38.6020   26.2220   41.0560 N   0  0  0  0  0  0  0  0  0  0  0  0
   39.9620   25.2820   39.7370 H   0  0  0  0  0  0  0  0  0  0  0  0
   38.9490   23.0930   40.0090 H   0  0  0  0  0  0  0  0  0  0  0  0
   36.9770   22.8180   41.5190 H   0  0  0  0  0  0  0  0  0  0  0  0
   38.1440   31.7880   41.0220 O   0  0  0  0  0  0  0  0  0  0  0  0
   39.4240   33.8180   40.0060 O   0  0  0  0  0  0  0  0  0  0  0  0
   38.2170   32.9060   39.7430 P   0  0  2  0  0  0  0  0  0  0  0  0
   36.8180   33.8140   39.7700 O   0  0  0  0  0  0  0  0  0  0  0  0
   36.0560   33.2390   39.5240 H   0  0  0  0  0  0  0  0  0  0  0  0
   38.4770   32.1780   38.2560 O   0  0  0  0  0  0  0  0  0  0  0  0
   39.6780   31.6910   37.7890 C   0  0  0  0  0  0  0  0  0  0  0  0
   39.8600   30.3230   37.7860 C   0  0  0  0  0  0  0  0  0  0  0  0
   39.2370   29.4750   38.0850 H   0  0  0  0  0  0  0  0  0  0  0  0
   41.1040   30.0770   37.2890 N   0  0  0  0  0  0  0  0  0  0  0  0
   41.6150   29.1640   37.1280 H   0  0  0  0  0  0  0  0  0  0  0  0
   41.6690   31.2800   36.9950 C   0  0  0  0  0  0  0  0  0  0  0  0
   42.6680   31.4400   36.5770 H   0  0  0  0  0  0  0  0  0  0  0  0
   40.7840   32.2450   37.3070 N   0  0  0  0  0  0  0  0  0  0  0  0
  2  3  1  0  0  0  0
  2  1  1  0  0  0  0
  3 11  1  0  0  0  0
  4  3  2  0  0  0  0
  5  6  2  0  0  0  0
  5  4  1  0  0  0  0
  6  7  1  0  0  0  0
  7 23  1  0  0  0  0
  7  2  2  0  0  0  0
  8  4  1  0  0  0  0
  9  5  1  0  0  0  0
 10  6  1  0  0  0  0
 11 13  1  0  0  0  0
 11 12  1  0  0  0  0
 14 15  2  0  0  0  0
 14 19  1  0  0  0  0
 15 16  1  0  0  0  0
 16 22  1  0  0  0  0
 16 17  2  0  0  0  0
 18 17  1  0  0  0  0
 18 11  1  0  0  0  0
 19 18  2  0  0  0  0
 20 14  1  0  0  0  0
 21 15  1  0  0  0  0
 25 26  1  0  0  0  0
 25 24  2  1  0  0  0
 25 23  1  0  0  0  0
 27 26  1  0  0  0  0
 28 25  1  0  0  0  0
 29 28  1  0  0  0  0
 30 29  2  0  0  0  0
 30 31  1  0  0  0  0
 32 30  1  0  0  0  0
 33 32  1  0  0  0  0
 34 32  1  0  0  0  0
 34 36  2  0  0  0  0
 35 34  1  0  0  0  0
 36 29  1  0  0  0  0
M  END
>  <minimizedAffinity>
-5.80179358

$$$$

 OpenBabel03252502573D

 36 38  0  0  0  0  0  0  0  0999 V2000
   36.4370   27.9460   41.7680 Br  0  0  0  0  0  0  0  0  0  0  0  0
   37.9920   27.1240   42.5380 C   0  0  0  0  0  0  0  0  0  0  0  0
   38.0510   25.7540   42.4340 C   0  0  0  0  0  0  0  0  0  0  0  0
   39.1990   25.1830   43.0060 C   0  0  0  0  0  0  0  0  0  0  0  0
   40.1890   25.9190   43.6210 C   0  0  0  0  0  0  0  0  0  0  0  0
   40.0500   27.2810   43.6810 C   0  0  0  0  0  0  0  0  0  0  0  0
   38.9550   27.9060   43.1420 C   0  0  0  0  0  0  0  0  0  0  0  0
   39.3120   24.0980   42.9600 H   0  0  0  0  0  0  0  0  0  0  0  0
   41.0390   25.3750   44.0330 H   0  0  0  0  0  0  0  0  0  0  0  0
   40.8600   27.8020   44.1760 H   0  0  0  0  0  0  0  0  0  0  0  0
   37.0740   24.8660   41.8110 C   0  0  0  0  0  0  0  0  0  0  0  0
   36.7070   24.1580   42.5820 H   0  0  0  0  0  0  0  0  0  0  0  0
   36.1940   25.4620   41.4950 H   0  0  0  0  0  0  0  0  0  0  0  0
   38.3630   24.0580   38.3980 C   0  0  0  0  0  0  0  0  0  0  0  0
   38.5640   22.6840   38.4970 C   0  0  0  0  0  0  0  0  0  0  0  0
   38.2620   22.0530   39.7060 C   0  0  0  0  0  0  0  0  0  0  0  0
   37.7940   22.8030   40.7180 N   0  0  0  0  0  0  0  0  0  0  0  0
   37.6010   24.1490   40.6120 C   0  0  0  0  0  0  0  0  0  0  0  0
   37.8990   24.7320   39.4330 N   0  0  0  0  0  0  0  0  0  0  0  0
   38.6020   24.5400   37.4480 H   0  0  0  0  0  0  0  0  0  0  0  0
   38.9440   22.1450   37.6400 H   0  0  0  0  0  0  0  0  0  0  0  0
   38.4170   20.9840   39.7880 H   0  0  0  0  0  0  0  0  0  0  0  0
   38.8360   29.2860   43.2150 O   0  0  0  0  0  0  0  0  0  0  0  0
   40.5690   29.5100   41.2810 O   0  0  0  0  0  0  0  0  0  0  0  0
   39.5520   30.3340   42.0840 P   0  0  2  0  0  0  0  0  0  0  0  0
   40.3480   31.5360   42.9240 O   0  0  0  0  0  0  0  0  0  0  0  0
   39.6840   32.1080   43.3730 H   0  0  0  0  0  0  0  0  0  0  0  0
   38.4520   30.9500   40.9790 O   0  0  0  0  0  0  0  0  0  0  0  0
   38.3160   32.2740   40.6210 C   0  0  0  0  0  0  0  0  0  0  0  0
   37.2050   32.6310   39.8850 C   0  0  0  0  0  0  0  0  0  0  0  0
   36.3480   32.0770   39.4900 H   0  0  0  0  0  0  0  0  0  0  0  0
   37.2820   33.9700   39.6520 N   0  0  0  0  0  0  0  0  0  0  0  0
   36.6290   34.6180   39.1270 H   0  0  0  0  0  0  0  0  0  0  0  0
   38.4250   34.4190   40.2390 C   0  0  0  0  0  0  0  0  0  0  0  0
   38.7880   35.4520   40.2390 H   0  0  0  0  0  0  0  0  0  0  0  0
   39.0360   33.3720   40.8210 N   0  0  0  0  0  0  0  0  0  0  0  0
  1  2  1  0  0  0  0
  2  7  1  0  0  0  0
  3  2  2  0  0  0  0
  3  4  1  0  0  0  0
  4  5  2  0  0  0  0
  5  6  1  0  0  0  0
  5  9  1  0  0  0  0
  6 10  1  0  0  0  0
  7 23  1  0  0  0  0
  7  6  2  0  0  0  0
  8  4  1  0  0  0  0
 11  3  1  0  0  0  0
 11 12  1  0  0  0  0
 13 11  1  0  0  0  0
 14 15  2  0  0  0  0
 14 19  1  0  0  0  0
 15 16  1  0  0  0  0
 16 22  1  0  0  0  0
 16 17  2  0  0  0  0
 18 17  1  0  0  0  0
 18 11  1  0  0  0  0
 19 18  2  0  0  0  0
 20 14  1  0  0  0  0
 21 15  1  0  0  0  0
 25 24  2  6  0  0  0
 25 26  1  0  0  0  0
 25 23  1  0  0  0  0
 26 27  1  0  0  0  0
 28 25  1  0  0  0  0
 29 36  1  0  0  0  0
 29 28  1  0  0  0  0
 30 29  2  0  0  0  0
 31 30  1  0  0  0  0
 32 30  1  0  0  0  0
 32 34  1  0  0  0  0
 33 32  1  0  0  0  0
 34 36  2  0  0  0  0
 35 34  1  0  0  0  0
M  END
>  <minimizedAffinity>
-5.71870756

$$$$

 OpenBabel03252502573D

 36 38  0  0  0  0  0  0  0  0999 V2000
   35.8590   29.0090   40.7480 Br  0  0  0  0  0  0  0  0  0  0  0  0
   37.4670   29.9100   41.2870 C   0  0  0  0  0  0  0  0  0  0  0  0
   38.0140   29.4850   42.4760 C   0  0  0  0  0  0  0  0  0  0  0  0
   39.1870   30.1620   42.8430 C   0  0  0  0  0  0  0  0  0  0  0  0
   39.7530   31.1670   42.0880 C   0  0  0  0  0  0  0  0  0  0  0  0
   39.1430   31.5290   40.9160 C   0  0  0  0  0  0  0  0  0  0  0  0
   37.9940   30.9100   40.4960 C   0  0  0  0  0  0  0  0  0  0  0  0
   39.6760   29.8770   43.7760 H   0  0  0  0  0  0  0  0  0  0  0  0
   40.6670   31.6280   42.4660 H   0  0  0  0  0  0  0  0  0  0  0  0
   39.6350   32.3230   40.3700 H   0  0  0  0  0  0  0  0  0  0  0  0
   37.5130   28.4380   43.3610 C   0  0  0  0  0  0  0  0  0  0  0  0
   37.6100   28.7930   44.4070 H   0  0  0  0  0  0  0  0  0  0  0  0
   36.4280   28.3000   43.1800 H   0  0  0  0  0  0  0  0  0  0  0  0
   38.3800   24.9960   42.1940 C   0  0  0  0  0  0  0  0  0  0  0  0
   39.5440   24.7450   42.9150 C   0  0  0  0  0  0  0  0  0  0  0  0
   40.0170   25.7340   43.7800 C   0  0  0  0  0  0  0  0  0  0  0  0
   39.3260   26.8830   43.8750 N   0  0  0  0  0  0  0  0  0  0  0  0
   38.1870   27.1200   43.1640 C   0  0  0  0  0  0  0  0  0  0  0  0
   37.7510   26.1470   42.3370 N   0  0  0  0  0  0  0  0  0  0  0  0
   38.0190   24.2150   41.5220 H   0  0  0  0  0  0  0  0  0  0  0  0
   40.0470   23.7950   42.7880 H   0  0  0  0  0  0  0  0  0  0  0  0
   40.9230   25.5430   44.3430 H   0  0  0  0  0  0  0  0  0  0  0  0
   37.3930   31.2930   39.3060 O   0  0  0  0  0  0  0  0  0  0  0  0
   39.1030   29.7930   38.0330 O   0  0  0  0  0  0  0  0  0  0  0  0
   37.9050   30.7230   37.7890 P   0  0  2  0  0  0  0  0  0  0  0  0
   38.3970   32.0360   36.8830 O   0  0  0  0  0  0  0  0  0  0  0  0
   37.6100   32.5880   36.6630 H   0  0  0  0  0  0  0  0  0  0  0  0
   36.7380   29.8100   37.0060 O   0  0  0  0  0  0  0  0  0  0  0  0
   36.6090   29.6520   35.6440 C   0  0  0  0  0  0  0  0  0  0  0  0
   36.6320   28.3690   35.1390 C   0  0  0  0  0  0  0  0  0  0  0  0
   36.7360   27.3780   35.5920 H   0  0  0  0  0  0  0  0  0  0  0  0
   36.4900   28.4570   33.7880 N   0  0  0  0  0  0  0  0  0  0  0  0
   36.4590   27.7020   33.0460 H   0  0  0  0  0  0  0  0  0  0  0  0
   36.3820   29.7780   33.4770 C   0  0  0  0  0  0  0  0  0  0  0  0
   36.2560   30.1970   32.4730 H   0  0  0  0  0  0  0  0  0  0  0  0
   36.4560   30.4840   34.6200 N   0  0  0  0  0  0  0  0  0  0  0  0
  1  2  1  0  0  0  0
  2  3  1  0  0  0  0
  3  4  2  0  0  0  0
  3 11  1  0  0  0  0
  4  8  1  0  0  0  0
  5  9  1  0  0  0  0
  5  4  1  0  0  0  0
  6  5  2  0  0  0  0
  7  6  1  0  0  0  0
  7  2  2  0  0  0  0
 10  6  1  0  0  0  0
 11 12  1  0  0  0  0
 13 11  1  0  0  0  0
 14 19  2  0  0  0  0
 14 15  1  0  0  0  0
 15 16  2  0  0  0  0
 16 17  1  0  0  0  0
 16 22  1  0  0  0  0
 18 11  1  0  0  0  0
 18 17  2  0  0  0  0
 19 18  1  0  0  0  0
 20 14  1  0  0  0  0
 21 15  1  0  0  0  0
 23  7  1  0  0  0  0
 25 24  2  1  0  0  0
 25 23  1  0  0  0  0
 26 25  1  0  0  0  0
 27 26  1  0  0  0  0
 28 25  1  0  0  0  0
 29 28  1  0  0  0  0
 30 31  1  0  0  0  0
 30 29  2  0  0  0  0
 32 30  1  0  0  0  0
 33 32  1  0  0  0  0
 34 32  1  0  0  0  0
 34 36  2  0  0  0  0
 35 34  1  0  0  0  0
 36 29  1  0  0  0  0
M  END
>  <minimizedAffinity>
-5.68371868

$$$$

 OpenBabel03252502573D

 36 38  0  0  0  0  0  0  0  0999 V2000
   40.2910   26.1870   41.3560 Br  0  0  0  0  0  0  0  0  0  0  0  0
   38.7930   26.8600   42.3510 C   0  0  0  0  0  0  0  0  0  0  0  0
   37.6750   26.0580   42.3550 C   0  0  0  0  0  0  0  0  0  0  0  0
   36.5990   26.5770   43.0910 C   0  0  0  0  0  0  0  0  0  0  0  0
   36.6430   27.7840   43.7560 C   0  0  0  0  0  0  0  0  0  0  0  0
   37.7970   28.5200   43.7000 C   0  0  0  0  0  0  0  0  0  0  0  0
   38.8880   28.0740   43.0000 C   0  0  0  0  0  0  0  0  0  0  0  0
   35.6770   25.9930   43.1370 H   0  0  0  0  0  0  0  0  0  0  0  0
   35.7490   28.0940   44.2970 H   0  0  0  0  0  0  0  0  0  0  0  0
   37.7690   29.4570   44.2410 H   0  0  0  0  0  0  0  0  0  0  0  0
   37.5040   24.7680   41.6940 C   0  0  0  0  0  0  0  0  0  0  0  0
   38.5060   24.3150   41.5530 H   0  0  0  0  0  0  0  0  0  0  0  0
   36.9500   24.0860   42.3710 H   0  0  0  0  0  0  0  0  0  0  0  0
   36.0950   25.9420   38.4390 C   0  0  0  0  0  0  0  0  0  0  0  0
   35.3100   24.8540   38.0690 C   0  0  0  0  0  0  0  0  0  0  0  0
   35.2670   23.7460   38.9180 C   0  0  0  0  0  0  0  0  0  0  0  0
   35.9870   23.7820   40.0520 N   0  0  0  0  0  0  0  0  0  0  0  0
   36.7530   24.8530   40.4060 C   0  0  0  0  0  0  0  0  0  0  0  0
   36.7760   25.9100   39.5690 N   0  0  0  0  0  0  0  0  0  0  0  0
   36.1200   26.8040   37.7680 H   0  0  0  0  0  0  0  0  0  0  0  0
   34.7570   24.8960   37.1400 H   0  0  0  0  0  0  0  0  0  0  0  0
   34.6580   22.8960   38.6340 H   0  0  0  0  0  0  0  0  0  0  0  0
   40.0460   28.8360   42.9570 O   0  0  0  0  0  0  0  0  0  0  0  0
   41.2650   29.9140   40.9210 O   0  0  0  0  0  0  0  0  0  0  0  0
   40.2020   30.2230   41.9850 P   0  0  2  0  0  0  0  0  0  0  0  0
   40.7300   31.4760   42.9520 O   0  0  0  0  0  0  0  0  0  0  0  0
   40.0120   31.7210   43.5810 H   0  0  0  0  0  0  0  0  0  0  0  0
   38.7920   30.6030   41.1620 O   0  0  0  0  0  0  0  0  0  0  0  0
   38.4060   31.8610   40.7520 C   0  0  0  0  0  0  0  0  0  0  0  0
   37.1170   32.0190   40.2860 C   0  0  0  0  0  0  0  0  0  0  0  0
   36.2700   31.3380   40.1540 H   0  0  0  0  0  0  0  0  0  0  0  0
   36.9630   33.3270   39.9430 N   0  0  0  0  0  0  0  0  0  0  0  0
   36.1270   33.8430   39.5480 H   0  0  0  0  0  0  0  0  0  0  0  0
   38.1430   33.9550   40.1970 C   0  0  0  0  0  0  0  0  0  0  0  0
   38.3590   35.0150   40.0330 H   0  0  0  0  0  0  0  0  0  0  0  0
   39.0040   33.0450   40.6880 N   0  0  0  0  0  0  0  0  0  0  0  0
  1  2  1  0  0  0  0
  2  3  2  0  0  0  0
  2  7  1  0  0  0  0
  3  4  1  0  0  0  0
  4  8  1  0  0  0  0
  4  5  2  0  0  0  0
  5  9  1  0  0  0  0
  6  5  1  0  0  0  0
  6 10  1  0  0  0  0
  7  6  2  0  0  0  0
 11  3  1  0  0  0  0
 11 13  1  0  0  0  0
 12 11  1  0  0  0  0
 14 19  1  0  0  0  0
 15 14  2  0  0  0  0
 15 16  1  0  0  0  0
 16 17  2  0  0  0  0
 17 18  1  0  0  0  0
 18 11  1  0  0  0  0
 19 18  2  0  0  0  0
 20 14  1  0  0  0  0
 21 15  1  0  0  0  0
 22 16  1  0  0  0  0
 23  7  1  0  0  0  0
 25 24  2  6  0  0  0
 25 26  1  0  0  0  0
 25 23  1  0  0  0  0
 26 27  1  0  0  0  0
 28 25  1  0  0  0  0
 29 28  1  0  0  0  0
 30 29  2  0  0  0  0
 31 30  1  0  0  0  0
 32 34  1  0  0  0  0
 32 30  1  0  0  0  0
 33 32  1  0  0  0  0
 34 36  2  0  0  0  0
 35 34  1  0  0  0  0
 36 29  1  0  0  0  0
M  END
>  <minimizedAffinity>
-5.66272497

$$$$

 OpenBabel03252502573D

 36 38  0  0  0  0  0  0  0  0999 V2000
   39.5940   27.8280   39.9130 Br  0  0  0  0  0  0  0  0  0  0  0  0
   38.4920   27.8640   41.4850 C   0  0  0  0  0  0  0  0  0  0  0  0
   38.5370   29.0310   42.2140 C   0  0  0  0  0  0  0  0  0  0  0  0
   37.7210   29.0260   43.3550 C   0  0  0  0  0  0  0  0  0  0  0  0
   36.9380   27.9540   43.7270 C   0  0  0  0  0  0  0  0  0  0  0  0
   36.9520   26.8310   42.9440 C   0  0  0  0  0  0  0  0  0  0  0  0
   37.7260   26.7650   41.8130 C   0  0  0  0  0  0  0  0  0  0  0  0
   37.7070   29.9200   43.9820 H   0  0  0  0  0  0  0  0  0  0  0  0
   36.3410   28.0560   44.6340 H   0  0  0  0  0  0  0  0  0  0  0  0
   36.3170   26.0240   43.2870 H   0  0  0  0  0  0  0  0  0  0  0  0
   39.3210   30.2280   41.9280 C   0  0  0  0  0  0  0  0  0  0  0  0
   39.6430   30.6700   42.8920 H   0  0  0  0  0  0  0  0  0  0  0  0
   40.2480   29.9350   41.3960 H   0  0  0  0  0  0  0  0  0  0  0  0
   36.9280   31.8590   39.5660 C   0  0  0  0  0  0  0  0  0  0  0  0
   37.3790   33.1750   39.5800 C   0  0  0  0  0  0  0  0  0  0  0  0
   38.4780   33.4930   40.3820 C   0  0  0  0  0  0  0  0  0  0  0  0
   39.0480   32.5110   41.1020 N   0  0  0  0  0  0  0  0  0  0  0  0
   38.5980   31.2240   41.0810 C   0  0  0  0  0  0  0  0  0  0  0  0
   37.5360   30.9450   40.2980 N   0  0  0  0  0  0  0  0  0  0  0  0
   36.0680   31.6220   38.9350 H   0  0  0  0  0  0  0  0  0  0  0  0
   36.8700   33.9120   38.9740 H   0  0  0  0  0  0  0  0  0  0  0  0
   38.8320   34.5160   40.3960 H   0  0  0  0  0  0  0  0  0  0  0  0
   37.7250   25.6170   41.0350 O   0  0  0  0  0  0  0  0  0  0  0  0
   39.8150   24.2460   40.2980 O   0  0  0  0  0  0  0  0  0  0  0  0
   38.7150   24.2760   41.3690 P   0  0  2  0  0  0  0  0  0  0  0  0
   37.7810   22.8990   41.2450 O   0  0  0  0  0  0  0  0  0  0  0  0
   37.1270   22.8860   41.9820 H   0  0  0  0  0  0  0  0  0  0  0  0
   39.4880   24.3890   42.8520 O   0  0  0  0  0  0  0  0  0  0  0  0
   40.6540   25.0780   43.1090 C   0  0  0  0  0  0  0  0  0  0  0  0
   40.5850   26.1710   43.9480 C   0  0  0  0  0  0  0  0  0  0  0  0
   39.7710   26.6550   44.4960 H   0  0  0  0  0  0  0  0  0  0  0  0
   41.8400   26.6850   44.0540 N   0  0  0  0  0  0  0  0  0  0  0  0
   42.2020   27.5180   44.6000 H   0  0  0  0  0  0  0  0  0  0  0  0
   42.6610   25.9150   43.2890 C   0  0  0  0  0  0  0  0  0  0  0  0
   43.7380   26.0560   43.1530 H   0  0  0  0  0  0  0  0  0  0  0  0
   41.9180   24.9450   42.7250 N   0  0  0  0  0  0  0  0  0  0  0  0
  1  2  1  0  0  0  0
  2  7  2  0  0  0  0
  2  3  1  0  0  0  0
  3  4  2  0  0  0  0
  4  5  1  0  0  0  0
  4  8  1  0  0  0  0
  5  9  1  0  0  0  0
  6 10  1  0  0  0  0
  6  5  2  0  0  0  0
  7  6  1  0  0  0  0
 11  3  1  0  0  0  0
 11 12  1  0  0  0  0
 13 11  1  0  0  0  0
 14 15  2  0  0  0  0
 14 19  1  0  0  0  0
 15 16  1  0  0  0  0
 16 22  1  0  0  0  0
 16 17  2  0  0  0  0
 18 17  1  0  0  0  0
 18 11  1  0  0  0  0
 19 18  2  0  0  0  0
 20 14  1  0  0  0  0
 21 15  1  0  0  0  0
 23 25  1  0  0  0  0
 23  7  1  0  0  0  0
 25 24  2  6  0  0  0
 25 28  1  0  0  0  0
 26 25  1  0  0  0  0
 26 27  1  0  0  0  0
 28 29  1  0  0  0  0
 29 30  2  0  0  0  0
 30 32  1  0  0  0  0
 30 31  1  0  0  0  0
 32 33  1  0  0  0  0
 34 32  1  0  0  0  0
 35 34  1  0  0  0  0
 36 29  1  0  0  0  0
 36 34  2  0  0  0  0
M  END
>  <minimizedAffinity>
-5.60930586

$$$$

 OpenBabel03252502573D

 36 38  0  0  0  0  0  0  0  0999 V2000
   35.7970   28.1750   39.6410 Br  0  0  0  0  0  0  0  0  0  0  0  0
   36.8180   27.9340   41.2500 C   0  0  0  0  0  0  0  0  0  0  0  0
   37.1640   26.6350   41.5430 C   0  0  0  0  0  0  0  0  0  0  0  0
   37.9090   26.4930   42.7240 C   0  0  0  0  0  0  0  0  0  0  0  0
   38.2690   27.5520   43.5300 C   0  0  0  0  0  0  0  0  0  0  0  0
   37.8820   28.8140   43.1630 C   0  0  0  0  0  0  0  0  0  0  0  0
   37.1530   29.0270   42.0210 C   0  0  0  0  0  0  0  0  0  0  0  0
   38.2190   25.4890   43.0200 H   0  0  0  0  0  0  0  0  0  0  0  0
   38.8490   27.3300   44.4270 H   0  0  0  0  0  0  0  0  0  0  0  0
   38.1950   29.6030   43.8350 H   0  0  0  0  0  0  0  0  0  0  0  0
   36.8460   25.4350   40.7770 C   0  0  0  0  0  0  0  0  0  0  0  0
   36.4650   24.6660   41.4790 H   0  0  0  0  0  0  0  0  0  0  0  0
   36.0110   25.6610   40.0820 H   0  0  0  0  0  0  0  0  0  0  0  0
   39.3150   23.2110   39.0680 C   0  0  0  0  0  0  0  0  0  0  0  0
   40.1460   24.1420   38.4540 C   0  0  0  0  0  0  0  0  0  0  0  0
   39.8650   25.4990   38.6230 C   0  0  0  0  0  0  0  0  0  0  0  0
   38.8030   25.8420   39.3720 N   0  0  0  0  0  0  0  0  0  0  0  0
   37.9930   24.9220   39.9700 C   0  0  0  0  0  0  0  0  0  0  0  0
   38.2890   23.6180   39.7910 N   0  0  0  0  0  0  0  0  0  0  0  0
   39.5450   22.1520   38.9290 H   0  0  0  0  0  0  0  0  0  0  0  0
   40.9840   23.7920   37.8650 H   0  0  0  0  0  0  0  0  0  0  0  0
   40.5090   26.2280   38.1460 H   0  0  0  0  0  0  0  0  0  0  0  0
   36.7720   30.3140   41.6700 O   0  0  0  0  0  0  0  0  0  0  0  0
   38.9460   31.7510   41.6170 O   0  0  0  0  0  0  0  0  0  0  0  0
   37.7530   31.3450   40.7390 P   0  0  2  0  0  0  0  0  0  0  0  0
   36.8600   32.7000   40.3540 O   0  0  0  0  0  0  0  0  0  0  0  0
   36.1420   32.4450   39.7280 H   0  0  0  0  0  0  0  0  0  0  0  0
   38.3870   30.5920   39.3830 O   0  0  0  0  0  0  0  0  0  0  0  0
   39.3430   31.1120   38.5380 C   0  0  0  0  0  0  0  0  0  0  0  0
   38.9190   31.9220   37.5040 C   0  0  0  0  0  0  0  0  0  0  0  0
   37.9380   32.2730   37.1720 H   0  0  0  0  0  0  0  0  0  0  0  0
   40.0230   32.3140   36.8120 N   0  0  0  0  0  0  0  0  0  0  0  0
   40.1190   32.9330   35.9580 H   0  0  0  0  0  0  0  0  0  0  0  0
   41.1040   31.7500   37.4170 C   0  0  0  0  0  0  0  0  0  0  0  0
   42.1480   31.8630   37.1100 H   0  0  0  0  0  0  0  0  0  0  0  0
   40.6660   31.0250   38.4620 N   0  0  0  0  0  0  0  0  0  0  0  0
  1  2  1  0  0  0  0
  2  3  2  0  0  0  0
  2  7  1  0  0  0  0
  3  4  1  0  0  0  0
  4  8  1  0  0  0  0
  4  5  2  0  0  0  0
  5  9  1  0  0  0  0
  6  5  1  0  0  0  0
  6 10  1  0  0  0  0
  7  6  2  0  0  0  0
 11 12  1  0  0  0  0
 11  3  1  0  0  0  0
 13 11  1  0  0  0  0
 14 19  1  0  0  0  0
 15 16  1  0  0  0  0
 15 14  2  0  0  0  0
 16 17  2  0  0  0  0
 17 18  1  0  0  0  0
 18 11  1  0  0  0  0
 19 18  2  0  0  0  0
 20 14  1  0  0  0  0
 21 15  1  0  0  0  0
 22 16  1  0  0  0  0
 23  7  1  0  0  0  0
 25 24  2  1  0  0  0
 25 23  1  0  0  0  0
 26 25  1  0  0  0  0
 27 26  1  0  0  0  0
 28 25  1  0  0  0  0
 29 28  1  0  0  0  0
 30 29  2  0  0  0  0
 31 30  1  0  0  0  0
 32 34  1  0  0  0  0
 32 30  1  0  0  0  0
 33 32  1  0  0  0  0
 34 36  2  0  0  0  0
 35 34  1  0  0  0  0
 36 29  1  0  0  0  0
M  END
>  <minimizedAffinity>
-5.54284763

$$$$

 OpenBabel03252502573D

 36 38  0  0  0  0  0  0  0  0999 V2000
   41.7890   28.9920   42.5660 Br  0  0  0  0  0  0  0  0  0  0  0  0
   39.9280   28.6900   42.9300 C   0  0  0  0  0  0  0  0  0  0  0  0
   39.0840   29.7250   42.5990 C   0  0  0  0  0  0  0  0  0  0  0  0
   37.7310   29.4740   42.8760 C   0  0  0  0  0  0  0  0  0  0  0  0
   37.2740   28.2980   43.4320 C   0  0  0  0  0  0  0  0  0  0  0  0
   38.1830   27.3180   43.7320 C   0  0  0  0  0  0  0  0  0  0  0  0
   39.5210   27.4950   43.4870 C   0  0  0  0  0  0  0  0  0  0  0  0
   37.0030   30.2520   42.6390 H   0  0  0  0  0  0  0  0  0  0  0  0
   36.2010   28.2060   43.6070 H   0  0  0  0  0  0  0  0  0  0  0  0
   37.7630   26.4200   44.1660 H   0  0  0  0  0  0  0  0  0  0  0  0
   39.4420   31.0110   42.0080 C   0  0  0  0  0  0  0  0  0  0  0  0
   39.2720   31.8000   42.7680 H   0  0  0  0  0  0  0  0  0  0  0  0
   40.5290   31.0180   41.7920 H   0  0  0  0  0  0  0  0  0  0  0  0
   38.0410   30.8050   38.5500 C   0  0  0  0  0  0  0  0  0  0  0  0
   37.3250   31.9960   38.4710 C   0  0  0  0  0  0  0  0  0  0  0  0
   37.3240   32.8470   39.5790 C   0  0  0  0  0  0  0  0  0  0  0  0
   38.0160   32.4750   40.6690 N   0  0  0  0  0  0  0  0  0  0  0  0
   38.7140   31.3060   40.7380 C   0  0  0  0  0  0  0  0  0  0  0  0
   38.6990   30.5040   39.6530 N   0  0  0  0  0  0  0  0  0  0  0  0
   38.0350   30.1480   37.6780 H   0  0  0  0  0  0  0  0  0  0  0  0
   36.7910   32.2290   37.5590 H   0  0  0  0  0  0  0  0  0  0  0  0
   36.7680   33.7740   39.5220 H   0  0  0  0  0  0  0  0  0  0  0  0
   40.4240   26.4900   43.7990 O   0  0  0  0  0  0  0  0  0  0  0  0
   39.6870   24.0540   43.2360 O   0  0  0  0  0  0  0  0  0  0  0  0
   40.6820   25.1390   42.7990 P   0  0  2  0  0  0  0  0  0  0  0  0
   42.2400   24.5990   43.0510 O   0  0  0  0  0  0  0  0  0  0  0  0
   42.8740   25.2660   42.6970 H   0  0  0  0  0  0  0  0  0  0  0  0
   40.3710   25.4560   41.1830 O   0  0  0  0  0  0  0  0  0  0  0  0
   39.1760   25.8940   40.6560 C   0  0  0  0  0  0  0  0  0  0  0  0
   39.1990   27.0100   39.8460 C   0  0  0  0  0  0  0  0  0  0  0  0
   39.9940   27.6770   39.4980 H   0  0  0  0  0  0  0  0  0  0  0  0
   37.9200   27.2530   39.4480 N   0  0  0  0  0  0  0  0  0  0  0  0
   37.5240   28.0130   38.8260 H   0  0  0  0  0  0  0  0  0  0  0  0
   37.1310   26.2970   40.0080 C   0  0  0  0  0  0  0  0  0  0  0  0
   36.0470   26.2030   39.8900 H   0  0  0  0  0  0  0  0  0  0  0  0
   37.9160   25.4830   40.7380 N   0  0  0  0  0  0  0  0  0  0  0  0
  1  2  1  0  0  0  0
  2  7  1  0  0  0  0
  3  4  1  0  0  0  0
  3  2  2  0  0  0  0
  4  5  2  0  0  0  0
  5  9  1  0  0  0  0
  5  6  1  0  0  0  0
  6 10  1  0  0  0  0
  7  6  2  0  0  0  0
  7 23  1  0  0  0  0
  8  4  1  0  0  0  0
 11  3  1  0  0  0  0
 11 12  1  0  0  0  0
 13 11  1  0  0  0  0
 14 19  1  0  0  0  0
 15 14  2  0  0  0  0
 15 16  1  0  0  0  0
 16 17  2  0  0  0  0
 17 18  1  0  0  0  0
 18 11  1  0  0  0  0
 19 18  2  0  0  0  0
 20 14  1  0  0  0  0
 21 15  1  0  0  0  0
 22 16  1  0  0  0  0
 25 26  1  0  0  0  0
 25 24  2  1  0  0  0
 25 23  1  0  0  0  0
 27 26  1  0  0  0  0
 28 25  1  0  0  0  0
 29 36  1  0  0  0  0
 29 28  1  0  0  0  0
 30 29  2  0  0  0  0
 31 30  1  0  0  0  0
 32 30  1  0  0  0  0
 32 34  1  0  0  0  0
 33 32  1  0  0  0  0
 34 36  2  0  0  0  0
 35 34  1  0  0  0  0
M  END
>  <minimizedAffinity>
-5.48050261

$$$$

 OpenBabel03252502573D

 36 38  0  0  0  0  0  0  0  0999 V2000
   36.2550   29.3200   40.7430 Br  0  0  0  0  0  0  0  0  0  0  0  0
   37.8830   30.1040   41.3920 C   0  0  0  0  0  0  0  0  0  0  0  0
   38.3380   29.6150   42.5940 C   0  0  0  0  0  0  0  0  0  0  0  0
   39.5300   30.2070   43.0410 C   0  0  0  0  0  0  0  0  0  0  0  0
   40.1960   31.1940   42.3470 C   0  0  0  0  0  0  0  0  0  0  0  0
   39.6730   31.6240   41.1560 C   0  0  0  0  0  0  0  0  0  0  0  0
   38.5120   31.0890   40.6590 C   0  0  0  0  0  0  0  0  0  0  0  0
   39.9500   29.8670   43.9900 H   0  0  0  0  0  0  0  0  0  0  0  0
   41.1150   31.5870   42.7850 H   0  0  0  0  0  0  0  0  0  0  0  0
   40.2410   32.4000   40.6590 H   0  0  0  0  0  0  0  0  0  0  0  0
   37.7280   28.5780   43.4210 C   0  0  0  0  0  0  0  0  0  0  0  0
   37.7460   28.9210   44.4760 H   0  0  0  0  0  0  0  0  0  0  0  0
   36.6590   28.4790   43.1460 H   0  0  0  0  0  0  0  0  0  0  0  0
   40.0260   25.6490   43.7410 C   0  0  0  0  0  0  0  0  0  0  0  0
   39.4310   24.7360   42.8750 C   0  0  0  0  0  0  0  0  0  0  0  0
   38.2710   25.1190   42.1990 C   0  0  0  0  0  0  0  0  0  0  0  0
   37.7820   26.3520   42.4170 N   0  0  0  0  0  0  0  0  0  0  0  0
   38.3720   27.2390   43.2680 C   0  0  0  0  0  0  0  0  0  0  0  0
   39.4920   26.8440   43.9070 N   0  0  0  0  0  0  0  0  0  0  0  0
   40.9330   25.3390   44.2630 H   0  0  0  0  0  0  0  0  0  0  0  0
   39.8820   23.7600   42.7490 H   0  0  0  0  0  0  0  0  0  0  0  0
   37.8040   24.4110   41.5240 H   0  0  0  0  0  0  0  0  0  0  0  0
   38.0000   31.5400   39.4510 O   0  0  0  0  0  0  0  0  0  0  0  0
   37.6240   31.2600   36.8870 O   0  0  0  0  0  0  0  0  0  0  0  0
   38.7270   31.1920   37.9540 P   0  0  2  0  0  0  0  0  0  0  0  0
   39.3380   29.6410   38.0230 O   0  0  0  0  0  0  0  0  0  0  0  0
   40.0970   29.6230   38.6520 H   0  0  0  0  0  0  0  0  0  0  0  0
   39.8900   32.3170   37.5170 O   0  0  0  0  0  0  0  0  0  0  0  0
   41.2070   32.0470   37.2130 C   0  0  0  0  0  0  0  0  0  0  0  0
   42.1130   33.0840   37.2990 C   0  0  0  0  0  0  0  0  0  0  0  0
   42.0310   34.1410   37.5680 H   0  0  0  0  0  0  0  0  0  0  0  0
   43.3340   32.5880   36.9590 N   0  0  0  0  0  0  0  0  0  0  0  0
   44.2800   33.0620   36.9010 H   0  0  0  0  0  0  0  0  0  0  0  0
   43.1710   31.2680   36.6700 C   0  0  0  0  0  0  0  0  0  0  0  0
   43.9580   30.5730   36.3600 H   0  0  0  0  0  0  0  0  0  0  0  0
   41.8710   30.9620   36.8320 N   0  0  0  0  0  0  0  0  0  0  0  0
  1  2  1  0  0  0  0
  2  3  1  0  0  0  0
  3  4  2  0  0  0  0
  3 11  1  0  0  0  0
  4  8  1  0  0  0  0
  5  9  1  0  0  0  0
  5  4  1  0  0  0  0
  6  5  2  0  0  0  0
  7  6  1  0  0  0  0
  7  2  2  0  0  0  0
 10  6  1  0  0  0  0
 11 12  1  0  0  0  0
 13 11  1  0  0  0  0
 14 19  1  0  0  0  0
 14 20  1  0  0  0  0
 15 14  2  0  0  0  0
 16 17  2  0  0  0  0
 16 15  1  0  0  0  0
 17 18  1  0  0  0  0
 18 11  1  0  0  0  0
 18 19  2  0  0  0  0
 21 15  1  0  0  0  0
 22 16  1  0  0  0  0
 23  7  1  0  0  0  0
 25 24  2  6  0  0  0
 25 26  1  0  0  0  0
 25 23  1  0  0  0  0
 26 27  1  0  0  0  0
 28 25  1  0  0  0  0
 29 30  2  0  0  0  0
 29 28  1  0  0  0  0
 30 31  1  0  0  0  0
 32 30  1  0  0  0  0
 33 32  1  0  0  0  0
 34 36  2  0  0  0  0
 34 32  1  0  0  0  0
 35 34  1  0  0  0  0
 36 29  1  0  0  0  0
M  END
>  <minimizedAffinity>
-5.45789623

$$$$
