REMARK  Name = 
REMARK  4 active torsions:
REMARK  status: ('A' for Active; 'I' for Inactive)
REMARK    1  A    between atoms: C_1  and  N_9
REMARK    2  A    between atoms: C_2  and  N_11
REMARK    3  A    between atoms: C_7  and  O_10
REMARK    4  A    between atoms: O_10  and  C_17
REMARK                            x       y       z     vdW  Elec       q    Type
REMARK                         _______ _______ _______ _____ _____    ______ ____
ROOT
ATOM      1  C   UNL     1      44.164  35.351  42.654  0.00  0.00    +0.000 C 
ATOM      2  O   UNL     1      44.105  34.076  42.662  0.00  0.00    +0.000 OA
ATOM      3  N   UNL     1      45.071  35.873  43.627  0.00  0.00    +0.000 N 
ATOM      4  H   UNL     1      45.226  36.883  43.716  0.00  0.00    +0.000 HD
ENDROOT
BRANCH   3   5
ATOM      5  C   UNL     1      45.647  34.758  44.367  0.00  0.00    +0.000 A 
ATOM      6  C   UNL     1      45.275  34.386  45.634  0.00  0.00    +0.000 A 
ATOM      7  C   UNL     1      45.945  33.288  46.166  0.00  0.00    +0.000 A 
ATOM      8  N   UNL     1      46.880  32.695  45.414  0.00  0.00    +0.000 NA
ATOM      9  C   UNL     1      47.218  33.088  44.176  0.00  0.00    +0.000 A 
ATOM     10  N   UNL     1      46.587  34.152  43.626  0.00  0.00    +0.000 NA
ATOM     11  H   UNL     1      45.655  32.993  47.163  0.00  0.00    +0.000 HD
ATOM     12  H   UNL     1      47.990  32.536  43.653  0.00  0.00    +0.000 HD
BRANCH   6  13
ATOM     13  N   UNL     1      44.265  35.138  46.264  0.00  0.00    +0.000 N 
ATOM     14  H   UNL     1      43.290  34.911  45.924  0.00  0.00    +0.000 HD
ATOM     15  H   UNL     1      44.845  35.729  46.920  0.00  0.00    +0.000 HD
ENDBRANCH   6  13
ENDBRANCH   3   5
BRANCH   1  16
ATOM     16  O   UNL     1      43.441  36.209  41.801  0.00  0.00    +0.000 OA
BRANCH  16  17
ATOM     17  C   UNL     1      42.576  35.632  40.876  0.00  0.00    +0.000 A 
ATOM     18  C   UNL     1      42.590  34.951  39.680  0.00  0.00    +0.000 A 
ATOM     19  H   UNL     1      43.581  34.781  39.279  0.00  0.00    +0.000 HD
ATOM     20  N   UNL     1      41.306  34.695  39.361  0.00  0.00    +0.000 N 
ATOM     21  H   UNL     1      41.134  34.169  38.455  0.00  0.00    +0.000 HD
ATOM     22  C   UNL     1      40.489  35.185  40.306  0.00  0.00    +0.000 A 
ATOM     23  H   UNL     1      39.413  35.089  40.248  0.00  0.00    +0.000 HD
ATOM     24  N   UNL     1      41.267  35.763  41.240  0.00  0.00    +0.000 NA
ENDBRANCH  16  17
ENDBRANCH   1  16
TORSDOF 4
