
 OpenBabel03252501593D

 35 37  0  0  0  0  0  0  0  0999 V2000
   44.4790   35.8440   45.1910 C   0  0  0  0  0  0  0  0  0  0  0  0
   45.2470   35.8940   44.0230 C   0  0  0  0  0  0  0  0  0  0  0  0
   46.1440   34.8990   43.7680 C   0  0  0  0  0  0  0  0  0  0  0  0
   46.2640   33.8750   44.6750 N   0  0  0  0  0  0  0  0  0  0  0  0
   45.5130   33.8380   45.8060 C   0  0  0  0  0  0  0  0  0  0  0  0
   44.6230   34.8150   46.0690 N   0  0  0  0  0  0  0  0  0  0  0  0
   43.7150   36.4290   45.6090 H   0  0  0  0  0  0  0  0  0  0  0  0
   45.7700   32.9490   46.3720 H   0  0  0  0  0  0  0  0  0  0  0  0
   46.9130   34.9440   42.5620 C   0  0  0  0  0  0  0  0  0  0  0  0
   48.0820   35.5990   42.3160 C   0  0  0  0  0  0  0  0  0  0  0  0
   48.6750   35.5150   41.0690 C   0  0  0  0  0  0  0  0  0  0  0  0
   48.0980   34.7770   40.0650 C   0  0  0  0  0  0  0  0  0  0  0  0
   46.9290   34.1110   40.2820 C   0  0  0  0  0  0  0  0  0  0  0  0
   46.3550   34.2090   41.5340 C   0  0  0  0  0  0  0  0  0  0  0  0
   48.4780   36.1620   43.1540 H   0  0  0  0  0  0  0  0  0  0  0  0
   49.6020   36.0660   40.9600 H   0  0  0  0  0  0  0  0  0  0  0  0
   48.6650   34.8000   39.1480 H   0  0  0  0  0  0  0  0  0  0  0  0
   46.5030   33.5400   39.4700 H   0  0  0  0  0  0  0  0  0  0  0  0
   45.4170   33.6390   41.6110 H   0  0  0  0  0  0  0  0  0  0  0  0
   44.9810   37.0330   43.1190 C   0  0  0  0  0  0  0  0  0  0  0  0
   44.0100   36.9780   42.5960 H   0  0  0  0  0  0  0  0  0  0  0  0
   45.7730   36.9750   42.3350 H   0  0  0  0  0  0  0  0  0  0  0  0
   45.1240   38.2330   43.9150 N   0  0  0  0  0  0  0  0  0  0  0  0
   44.9260   38.8010   45.2000 C   0  0  0  0  0  0  0  0  0  0  0  0
   44.3570   38.2140   46.3410 C   0  0  0  0  0  0  0  0  0  0  0  0
   43.9590   37.2110   46.3970 H   0  0  0  0  0  0  0  0  0  0  0  0
   44.4460   39.1840   47.2680 N   0  0  0  0  0  0  0  0  0  0  0  0
   44.0860   39.0260   48.2540 H   0  0  0  0  0  0  0  0  0  0  0  0
   45.0140   40.3080   46.8010 C   0  0  0  0  0  0  0  0  0  0  0  0
   45.1650   41.1950   47.4180 H   0  0  0  0  0  0  0  0  0  0  0  0
   45.3190   40.0810   45.5120 N   0  0  0  0  0  0  0  0  0  0  0  0
   45.6800   39.3320   43.1180 C   0  0  0  0  0  0  0  0  0  0  0  0
   47.0170   39.2880   42.9960 F   0  0  0  0  0  0  0  0  0  0  0  0
   45.3680   40.5630   43.6920 F   0  0  0  0  0  0  0  0  0  0  0  0
   45.0940   39.3010   41.8830 F   0  0  0  0  0  0  0  0  0  0  0  0
  1  7  1  0  0  0  0
  1  6  1  0  0  0  0
  2  1  2  0  0  0  0
  3  2  1  0  0  0  0
  3  4  2  0  0  0  0
  4  5  1  0  0  0  0
  5  6  2  0  0  0  0
  5  8  1  0  0  0  0
  9  3  1  0  0  0  0
 10  9  1  0  0  0  0
 10 15  1  0  0  0  0
 11 10  2  0  0  0  0
 12 13  2  0  0  0  0
 12 11  1  0  0  0  0
 13 14  1  0  0  0  0
 14 19  1  0  0  0  0
 14  9  2  0  0  0  0
 16 11  1  0  0  0  0
 17 12  1  0  0  0  0
 18 13  1  0  0  0  0
 20 23  1  0  0  0  0
 20  2  1  0  0  0  0
 21 20  1  0  0  0  0
 22 20  1  0  0  0  0
 23 24  1  0  0  0  0
 24 31  1  0  0  0  0
 24 25  2  0  0  0  0
 25 26  1  0  0  0  0
 25 27  1  0  0  0  0
 27 28  1  0  0  0  0
 29 27  1  0  0  0  0
 29 30  1  0  0  0  0
 31 29  2  0  0  0  0
 32 34  1  0  0  0  0
 32 23  1  0  0  0  0
 33 32  1  0  0  0  0
 35 32  1  0  0  0  0
M  END
>  <minimizedAffinity>
-0.479087412

>  <minimizedRMSD>
0.616646886

$$$$
