
 OpenBabel03242513423D

 39 42  0  0  0  0  0  0  0  0999 V2000
   39.9790   30.3050   40.0450 C   0  0  0  0  0  0  0  0  0  0  0  0
   38.7630   29.9020   40.5640 C   0  0  0  0  0  0  0  0  0  0  0  0
   37.8000   30.8620   40.7290 C   0  0  0  0  0  0  0  0  0  0  0  0
   37.9930   32.1860   40.4040 C   0  0  0  0  0  0  0  0  0  0  0  0
   37.2770   33.3360   40.4420 N   0  0  0  0  0  0  0  0  0  0  0  0
   38.0200   34.3670   39.9750 C   0  0  0  0  0  0  0  0  0  0  0  0
   39.2160   33.8490   39.6400 N   0  0  0  0  0  0  0  0  0  0  0  0
   39.2270   32.5240   39.8910 C   0  0  0  0  0  0  0  0  0  0  0  0
   40.2250   31.6280   39.7020 C   0  0  0  0  0  0  0  0  0  0  0  0
   40.7580   29.5480   39.9080 H   0  0  0  0  0  0  0  0  0  0  0  0
   36.8380   30.5820   41.1320 H   0  0  0  0  0  0  0  0  0  0  0  0
   36.2760   33.3770   40.7980 H   0  0  0  0  0  0  0  0  0  0  0  0
   37.7020   35.4110   39.8900 H   0  0  0  0  0  0  0  0  0  0  0  0
   37.6530   26.9190   42.3530 C   0  0  0  0  0  0  0  0  0  0  0  0
   38.1100   25.8740   41.5420 C   0  0  0  0  0  0  0  0  0  0  0  0
   38.8010   26.2390   40.3790 C   0  0  0  0  0  0  0  0  0  0  0  0
   38.9940   27.5480   40.0940 N   0  0  0  0  0  0  0  0  0  0  0  0
   38.5290   28.5130   40.9160 C   0  0  0  0  0  0  0  0  0  0  0  0
   37.8670   28.2200   42.0340 N   0  0  0  0  0  0  0  0  0  0  0  0
   37.0970   26.7880   43.2940 H   0  0  0  0  0  0  0  0  0  0  0  0
   39.1420   25.4370   39.7710 H   0  0  0  0  0  0  0  0  0  0  0  0
   37.8220   24.4910   41.9840 C   0  0  0  0  0  0  0  0  0  0  0  0
   38.7390   24.2150   42.9630 F   0  0  0  0  0  0  0  0  0  0  0  0
   37.9770   23.6590   40.9100 F   0  0  0  0  0  0  0  0  0  0  0  0
   36.4960   24.4770   42.4490 F   0  0  0  0  0  0  0  0  0  0  0  0
   41.4410   32.0320   39.1820 O   0  0  0  0  0  0  0  0  0  0  0  0
   41.9090   34.1370   37.7430 O   0  0  0  0  0  0  0  0  0  0  0  0
   41.6890   32.6310   37.6260 P   0  0  2  0  0  0  0  0  0  0  0  0
   40.2320   32.4180   36.7650 O   0  0  0  0  0  0  0  0  0  0  0  0
   40.3890   32.3260   35.7890 H   0  0  0  0  0  0  0  0  0  0  0  0
   42.9600   31.9160   36.8230 O   0  0  0  0  0  0  0  0  0  0  0  0
   42.8850   30.5820   36.4420 C   0  0  0  0  0  0  0  0  0  0  0  0
   43.6670   29.9860   35.4960 C   0  0  0  0  0  0  0  0  0  0  0  0
   44.4400   30.4560   34.9210 H   0  0  0  0  0  0  0  0  0  0  0  0
   43.3650   28.7000   35.3490 N   0  0  0  0  0  0  0  0  0  0  0  0
   43.7260   27.9150   34.7380 H   0  0  0  0  0  0  0  0  0  0  0  0
   42.3600   28.4590   36.2220 C   0  0  0  0  0  0  0  0  0  0  0  0
   41.7670   27.5760   36.4840 H   0  0  0  0  0  0  0  0  0  0  0  0
   42.0690   29.5930   36.8830 N   0  0  0  0  0  0  0  0  0  0  0  0
  1  2  1  0  0  0  0
  2  3  2  0  0  0  0
  2 18  1  0  0  0  0
  3 11  1  0  0  0  0
  4  5  1  0  0  0  0
  4  3  1  0  0  0  0
  5 12  1  0  0  0  0
  6  5  1  0  0  0  0
  7  8  1  0  0  0  0
  7  6  2  0  0  0  0
  8  4  2  0  0  0  0
  9  8  1  0  0  0  0
  9  1  2  0  0  0  0
 10  1  1  0  0  0  0
 13  6  1  0  0  0  0
 14 20  1  0  0  0  0
 15 22  1  0  0  0  0
 15 14  2  0  0  0  0
 16 15  1  0  0  0  0
 17 16  2  0  0  0  0
 17 18  1  0  0  0  0
 18 19  2  0  0  0  0
 19 14  1  0  0  0  0
 21 16  1  0  0  0  0
 22 25  1  0  0  0  0
 22 23  1  0  0  0  0
 24 22  1  0  0  0  0
 26  9  1  0  0  0  0
 28 27  2  1  0  0  0
 28 26  1  0  0  0  0
 29 28  1  0  0  0  0
 30 29  1  0  0  0  0
 31 28  1  0  0  0  0
 32 31  1  0  0  0  0
 32 39  1  0  0  0  0
 33 32  2  0  0  0  0
 34 33  1  0  0  0  0
 35 33  1  0  0  0  0
 35 37  1  0  0  0  0
 36 35  1  0  0  0  0
 37 38  1  0  0  0  0
 37 39  2  0  0  0  0
M  END
>  <minimizedAffinity>
-6.61735296

$$$$

 OpenBabel03242513423D

 39 42  0  0  0  0  0  0  0  0999 V2000
   39.9700   30.5120   40.5370 C   0  0  0  0  0  0  0  0  0  0  0  0
   38.6610   30.1350   40.7660 C   0  0  0  0  0  0  0  0  0  0  0  0
   37.7030   31.1120   40.6900 C   0  0  0  0  0  0  0  0  0  0  0  0
   37.9900   32.4270   40.4010 C   0  0  0  0  0  0  0  0  0  0  0  0
   37.3060   33.5880   40.2560 N   0  0  0  0  0  0  0  0  0  0  0  0
   38.1550   34.5990   39.9590 C   0  0  0  0  0  0  0  0  0  0  0  0
   39.3860   34.0580   39.9170 N   0  0  0  0  0  0  0  0  0  0  0  0
   39.3150   32.7380   40.1820 C   0  0  0  0  0  0  0  0  0  0  0  0
   40.3130   31.8250   40.2410 C   0  0  0  0  0  0  0  0  0  0  0  0
   40.7470   29.7410   40.5940 H   0  0  0  0  0  0  0  0  0  0  0  0
   36.6700   30.8530   40.8640 H   0  0  0  0  0  0  0  0  0  0  0  0
   36.2500   33.6490   40.3700 H   0  0  0  0  0  0  0  0  0  0  0  0
   37.8830   35.6460   39.7880 H   0  0  0  0  0  0  0  0  0  0  0  0
   38.6890   26.4840   40.7890 C   0  0  0  0  0  0  0  0  0  0  0  0
   37.6600   26.1650   41.6830 C   0  0  0  0  0  0  0  0  0  0  0  0
   36.9750   27.2410   42.2610 C   0  0  0  0  0  0  0  0  0  0  0  0
   37.3240   28.5100   41.9430 N   0  0  0  0  0  0  0  0  0  0  0  0
   38.3270   28.7570   41.0730 C   0  0  0  0  0  0  0  0  0  0  0  0
   39.0100   27.7690   40.4950 N   0  0  0  0  0  0  0  0  0  0  0  0
   39.3130   25.7480   40.2590 H   0  0  0  0  0  0  0  0  0  0  0  0
   36.1970   26.9870   42.9380 H   0  0  0  0  0  0  0  0  0  0  0  0
   37.3940   24.7300   41.9320 C   0  0  0  0  0  0  0  0  0  0  0  0
   38.5240   24.2410   42.5290 F   0  0  0  0  0  0  0  0  0  0  0  0
   37.1650   24.1230   40.7280 F   0  0  0  0  0  0  0  0  0  0  0  0
   36.2580   24.6610   42.7570 F   0  0  0  0  0  0  0  0  0  0  0  0
   41.6230   32.2020   40.0110 O   0  0  0  0  0  0  0  0  0  0  0  0
   42.6330   32.0730   42.3960 O   0  0  0  0  0  0  0  0  0  0  0  0
   42.6410   32.9370   41.1370 P   0  0  2  0  0  0  0  0  0  0  0  0
   41.9290   34.4250   41.5650 O   0  0  0  0  0  0  0  0  0  0  0  0
   42.6070   35.0920   41.8530 H   0  0  0  0  0  0  0  0  0  0  0  0
   44.1980   33.1610   40.5920 O   0  0  0  0  0  0  0  0  0  0  0  0
   44.4760   33.1170   39.2310 C   0  0  0  0  0  0  0  0  0  0  0  0
   44.1520   34.0870   38.3280 C   0  0  0  0  0  0  0  0  0  0  0  0
   43.6450   35.0080   38.5380 H   0  0  0  0  0  0  0  0  0  0  0  0
   44.5480   33.7660   37.1010 N   0  0  0  0  0  0  0  0  0  0  0  0
   44.4880   34.2330   36.1530 H   0  0  0  0  0  0  0  0  0  0  0  0
   45.1410   32.5560   37.2130 C   0  0  0  0  0  0  0  0  0  0  0  0
   45.6210   31.8690   36.5080 H   0  0  0  0  0  0  0  0  0  0  0  0
   45.0990   32.1620   38.4980 N   0  0  0  0  0  0  0  0  0  0  0  0
  1 10  1  0  0  0  0
  1  2  1  0  0  0  0
  2 18  1  0  0  0  0
  3  2  2  0  0  0  0
  3 11  1  0  0  0  0
  4  3  1  0  0  0  0
  5 12  1  0  0  0  0
  5  4  1  0  0  0  0
  6  5  1  0  0  0  0
  7  6  2  0  0  0  0
  7  8  1  0  0  0  0
  8  9  1  0  0  0  0
  8  4  2  0  0  0  0
  9  1  2  0  0  0  0
 13  6  1  0  0  0  0
 14 15  1  0  0  0  0
 15 22  1  0  0  0  0
 15 16  2  0  0  0  0
 16 21  1  0  0  0  0
 17 16  1  0  0  0  0
 18 17  2  0  0  0  0
 19 14  2  0  0  0  0
 19 18  1  0  0  0  0
 20 14  1  0  0  0  0
 22 23  1  0  0  0  0
 22 25  1  0  0  0  0
 24 22  1  0  0  0  0
 26  9  1  0  0  0  0
 26 28  1  0  0  0  0
 28 29  1  0  0  0  0
 28 27  2  1  0  0  0
 29 30  1  0  0  0  0
 31 28  1  0  0  0  0
 32 31  1  0  0  0  0
 33 34  1  0  0  0  0
 33 32  2  0  0  0  0
 35 37  1  0  0  0  0
 35 33  1  0  0  0  0
 36 35  1  0  0  0  0
 37 39  2  0  0  0  0
 38 37  1  0  0  0  0
 39 32  1  0  0  0  0
M  END
>  <minimizedAffinity>
-6.29837942

$$$$

 OpenBabel03242513423D

 39 42  0  0  0  0  0  0  0  0999 V2000
   39.8780   30.7170   41.4930 C   0  0  0  0  0  0  0  0  0  0  0  0
   38.5930   30.2960   41.2110 C   0  0  0  0  0  0  0  0  0  0  0  0
   37.7110   31.2340   40.7420 C   0  0  0  0  0  0  0  0  0  0  0  0
   38.0510   32.5540   40.5460 C   0  0  0  0  0  0  0  0  0  0  0  0
   37.4440   33.6850   40.1130 N   0  0  0  0  0  0  0  0  0  0  0  0
   38.3130   34.7230   40.1350 C   0  0  0  0  0  0  0  0  0  0  0  0
   39.4790   34.2280   40.5870 N   0  0  0  0  0  0  0  0  0  0  0  0
   39.3480   32.9100   40.8450 C   0  0  0  0  0  0  0  0  0  0  0  0
   40.2720   32.0370   41.3120 C   0  0  0  0  0  0  0  0  0  0  0  0
   40.5940   29.9770   41.8680 H   0  0  0  0  0  0  0  0  0  0  0  0
   36.6990   30.9400   40.5120 H   0  0  0  0  0  0  0  0  0  0  0  0
   36.4250   33.7090   39.8100 H   0  0  0  0  0  0  0  0  0  0  0  0
   38.0990   35.7550   39.8410 H   0  0  0  0  0  0  0  0  0  0  0  0
   37.4710   27.2010   42.7920 C   0  0  0  0  0  0  0  0  0  0  0  0
   37.4800   26.2840   41.7340 C   0  0  0  0  0  0  0  0  0  0  0  0
   37.8810   26.7720   40.4840 C   0  0  0  0  0  0  0  0  0  0  0  0
   38.2340   28.0720   40.3500 N   0  0  0  0  0  0  0  0  0  0  0  0
   38.2050   28.9110   41.4080 C   0  0  0  0  0  0  0  0  0  0  0  0
   37.8320   28.4970   42.6180 N   0  0  0  0  0  0  0  0  0  0  0  0
   37.1800   26.9650   43.8270 H   0  0  0  0  0  0  0  0  0  0  0  0
   37.8840   26.0660   39.6890 H   0  0  0  0  0  0  0  0  0  0  0  0
   37.0680   24.8940   42.0340 C   0  0  0  0  0  0  0  0  0  0  0  0
   36.5060   24.4160   40.8810 F   0  0  0  0  0  0  0  0  0  0  0  0
   36.1560   24.9300   43.0530 F   0  0  0  0  0  0  0  0  0  0  0  0
   38.2260   24.1960   42.4160 F   0  0  0  0  0  0  0  0  0  0  0  0
   41.5580   32.4580   41.5930 O   0  0  0  0  0  0  0  0  0  0  0  0
   44.0970   32.7360   41.1440 O   0  0  0  0  0  0  0  0  0  0  0  0
   42.7410   32.8200   40.4470 P   0  0  2  0  0  0  0  0  0  0  0  0
   42.5260   34.4510   39.9970 O   0  0  0  0  0  0  0  0  0  0  0  0
   42.8500   34.6270   39.0750 H   0  0  0  0  0  0  0  0  0  0  0  0
   42.7090   31.8280   39.1100 O   0  0  0  0  0  0  0  0  0  0  0  0
   41.5520   31.7180   38.3490 C   0  0  0  0  0  0  0  0  0  0  0  0
   41.0390   32.6950   37.5460 C   0  0  0  0  0  0  0  0  0  0  0  0
   41.4510   33.6740   37.3930 H   0  0  0  0  0  0  0  0  0  0  0  0
   39.9240   32.2980   36.9420 N   0  0  0  0  0  0  0  0  0  0  0  0
   39.2450   32.7440   36.2640 H   0  0  0  0  0  0  0  0  0  0  0  0
   39.7100   31.0320   37.3650 C   0  0  0  0  0  0  0  0  0  0  0  0
   38.9420   30.2770   37.1690 H   0  0  0  0  0  0  0  0  0  0  0  0
   40.6920   30.6790   38.2140 N   0  0  0  0  0  0  0  0  0  0  0  0
  1 10  1  0  0  0  0
  2 18  1  0  0  0  0
  2  1  2  0  0  0  0
  3  2  1  0  0  0  0
  4  3  2  0  0  0  0
  4  8  1  0  0  0  0
  5  6  1  0  0  0  0
  5  4  1  0  0  0  0
  6  7  2  0  0  0  0
  7  8  1  0  0  0  0
  8  9  2  0  0  0  0
  9  1  1  0  0  0  0
  9 26  1  0  0  0  0
 11  3  1  0  0  0  0
 12  5  1  0  0  0  0
 13  6  1  0  0  0  0
 14 20  1  0  0  0  0
 15 22  1  0  0  0  0
 15 14  2  0  0  0  0
 16 15  1  0  0  0  0
 17 16  2  0  0  0  0
 17 18  1  0  0  0  0
 18 19  2  0  0  0  0
 19 14  1  0  0  0  0
 21 16  1  0  0  0  0
 22 25  1  0  0  0  0
 22 24  1  0  0  0  0
 23 22  1  0  0  0  0
 28 27  2  1  0  0  0
 28 26  1  0  0  0  0
 29 28  1  0  0  0  0
 30 29  1  0  0  0  0
 31 28  1  0  0  0  0
 32 31  1  0  0  0  0
 33 32  2  0  0  0  0
 34 33  1  0  0  0  0
 35 37  1  0  0  0  0
 35 33  1  0  0  0  0
 36 35  1  0  0  0  0
 37 39  2  0  0  0  0
 38 37  1  0  0  0  0
 39 32  1  0  0  0  0
M  END
>  <minimizedAffinity>
-6.24673367

$$$$

 OpenBabel03242513423D

 39 42  0  0  0  0  0  0  0  0999 V2000
   40.9190   31.7580   40.5000 C   0  0  0  0  0  0  0  0  0  0  0  0
   40.9320   31.0250   41.6710 C   0  0  0  0  0  0  0  0  0  0  0  0
   41.8670   31.3620   42.6140 C   0  0  0  0  0  0  0  0  0  0  0  0
   42.7760   32.3830   42.4420 C   0  0  0  0  0  0  0  0  0  0  0  0
   43.7850   32.9480   43.1470 N   0  0  0  0  0  0  0  0  0  0  0  0
   44.3440   33.9580   42.4400 C   0  0  0  0  0  0  0  0  0  0  0  0
   43.6700   34.0230   41.2780 N   0  0  0  0  0  0  0  0  0  0  0  0
   42.7100   33.0760   41.2530 C   0  0  0  0  0  0  0  0  0  0  0  0
   41.8130   32.7970   40.2770 C   0  0  0  0  0  0  0  0  0  0  0  0
   40.1760   31.4990   39.7370 H   0  0  0  0  0  0  0  0  0  0  0  0
   41.9070   30.8110   43.5410 H   0  0  0  0  0  0  0  0  0  0  0  0
   44.0660   32.6120   44.1160 H   0  0  0  0  0  0  0  0  0  0  0  0
   45.1780   34.5910   42.7610 H   0  0  0  0  0  0  0  0  0  0  0  0
   39.2960   27.7660   41.4840 C   0  0  0  0  0  0  0  0  0  0  0  0
   38.1750   27.9260   42.3080 C   0  0  0  0  0  0  0  0  0  0  0  0
   38.0170   29.1790   42.9150 C   0  0  0  0  0  0  0  0  0  0  0  0
   38.9250   30.1560   42.6880 N   0  0  0  0  0  0  0  0  0  0  0  0
   39.9880   29.9430   41.8820 C   0  0  0  0  0  0  0  0  0  0  0  0
   40.1850   28.7710   41.2800 N   0  0  0  0  0  0  0  0  0  0  0  0
   39.5520   26.8430   40.9430 H   0  0  0  0  0  0  0  0  0  0  0  0
   37.1640   29.2880   43.5380 H   0  0  0  0  0  0  0  0  0  0  0  0
   37.2700   26.7650   42.4610 C   0  0  0  0  0  0  0  0  0  0  0  0
   36.6250   26.6350   41.2610 F   0  0  0  0  0  0  0  0  0  0  0  0
   36.3900   27.0410   43.4710 F   0  0  0  0  0  0  0  0  0  0  0  0
   38.0750   25.6570   42.7790 F   0  0  0  0  0  0  0  0  0  0  0  0
   41.7990   33.5310   39.1050 O   0  0  0  0  0  0  0  0  0  0  0  0
   43.9540   32.6330   37.9760 O   0  0  0  0  0  0  0  0  0  0  0  0
   42.5260   33.0710   37.6550 P   0  0  2  0  0  0  0  0  0  0  0  0
   42.6520   34.4690   36.6880 O   0  0  0  0  0  0  0  0  0  0  0  0
   42.6500   34.2510   35.7190 H   0  0  0  0  0  0  0  0  0  0  0  0
   41.7130   31.8630   36.8470 O   0  0  0  0  0  0  0  0  0  0  0  0
   42.2100   30.5660   36.8460 C   0  0  0  0  0  0  0  0  0  0  0  0
   42.9390   30.0000   35.8410 C   0  0  0  0  0  0  0  0  0  0  0  0
   43.2290   30.4710   34.9220 H   0  0  0  0  0  0  0  0  0  0  0  0
   43.2750   28.7460   36.1250 N   0  0  0  0  0  0  0  0  0  0  0  0
   43.8200   27.9890   35.6240 H   0  0  0  0  0  0  0  0  0  0  0  0
   42.7480   28.4940   37.3450 C   0  0  0  0  0  0  0  0  0  0  0  0
   42.7390   27.6250   38.0110 H   0  0  0  0  0  0  0  0  0  0  0  0
   42.1050   29.5910   37.7820 N   0  0  0  0  0  0  0  0  0  0  0  0
  1  2  1  0  0  0  0
  2 18  1  0  0  0  0
  2  3  2  0  0  0  0
  3 11  1  0  0  0  0
  4  3  1  0  0  0  0
  4  5  1  0  0  0  0
  5 12  1  0  0  0  0
  6 13  1  0  0  0  0
  6  5  1  0  0  0  0
  7  6  2  0  0  0  0
  8  7  1  0  0  0  0
  8  4  2  0  0  0  0
  9  1  2  0  0  0  0
  9  8  1  0  0  0  0
 10  1  1  0  0  0  0
 14 15  1  0  0  0  0
 15 22  1  0  0  0  0
 15 16  2  0  0  0  0
 16 21  1  0  0  0  0
 17 16  1  0  0  0  0
 18 17  2  0  0  0  0
 19 14  2  0  0  0  0
 19 18  1  0  0  0  0
 20 14  1  0  0  0  0
 22 25  1  0  0  0  0
 22 24  1  0  0  0  0
 23 22  1  0  0  0  0
 26  9  1  0  0  0  0
 28 27  2  1  0  0  0
 28 26  1  0  0  0  0
 29 28  1  0  0  0  0
 30 29  1  0  0  0  0
 31 28  1  0  0  0  0
 32 31  1  0  0  0  0
 32 39  1  0  0  0  0
 33 35  1  0  0  0  0
 33 32  2  0  0  0  0
 34 33  1  0  0  0  0
 35 37  1  0  0  0  0
 36 35  1  0  0  0  0
 37 39  2  0  0  0  0
 37 38  1  0  0  0  0
M  END
>  <minimizedAffinity>
-6.19932461

$$$$

 OpenBabel03242513423D

 39 42  0  0  0  0  0  0  0  0999 V2000
   40.8370   31.8440   40.6680 C   0  0  0  0  0  0  0  0  0  0  0  0
   40.9180   31.0620   41.8040 C   0  0  0  0  0  0  0  0  0  0  0  0
   41.9080   31.3590   42.7040 C   0  0  0  0  0  0  0  0  0  0  0  0
   42.8080   32.3860   42.5210 C   0  0  0  0  0  0  0  0  0  0  0  0
   43.8590   32.9210   43.1880 N   0  0  0  0  0  0  0  0  0  0  0  0
   44.3770   33.9600   42.4930 C   0  0  0  0  0  0  0  0  0  0  0  0
   43.6350   34.0740   41.3770 N   0  0  0  0  0  0  0  0  0  0  0  0
   42.6730   33.1290   41.3680 C   0  0  0  0  0  0  0  0  0  0  0  0
   41.7190   32.8920   40.4360 C   0  0  0  0  0  0  0  0  0  0  0  0
   40.0500   31.6180   39.9410 H   0  0  0  0  0  0  0  0  0  0  0  0
   42.0020   30.7690   43.6020 H   0  0  0  0  0  0  0  0  0  0  0  0
   44.1950   32.5440   44.1240 H   0  0  0  0  0  0  0  0  0  0  0  0
   45.2300   34.5790   42.7900 H   0  0  0  0  0  0  0  0  0  0  0  0
   39.2100   27.8480   41.5120 C   0  0  0  0  0  0  0  0  0  0  0  0
   38.1990   27.9380   42.4750 C   0  0  0  0  0  0  0  0  0  0  0  0
   38.1370   29.1280   43.2110 C   0  0  0  0  0  0  0  0  0  0  0  0
   39.0300   30.1160   42.9690 N   0  0  0  0  0  0  0  0  0  0  0  0
   39.9850   29.9720   42.0250 C   0  0  0  0  0  0  0  0  0  0  0  0
   40.0870   28.8610   41.2970 N   0  0  0  0  0  0  0  0  0  0  0  0
   39.3830   26.9780   40.8590 H   0  0  0  0  0  0  0  0  0  0  0  0
   37.3660   29.1840   43.9400 H   0  0  0  0  0  0  0  0  0  0  0  0
   37.2960   26.7740   42.6270 C   0  0  0  0  0  0  0  0  0  0  0  0
   36.6550   26.6410   41.4250 F   0  0  0  0  0  0  0  0  0  0  0  0
   36.4130   27.0480   43.6340 F   0  0  0  0  0  0  0  0  0  0  0  0
   38.1030   25.6690   42.9480 F   0  0  0  0  0  0  0  0  0  0  0  0
   41.6370   33.6750   39.3000 O   0  0  0  0  0  0  0  0  0  0  0  0
   43.1800   32.1690   37.8580 O   0  0  0  0  0  0  0  0  0  0  0  0
   42.0380   33.1770   37.7400 P   0  0  2  0  0  0  0  0  0  0  0  0
   42.6710   34.5340   36.9240 O   0  0  0  0  0  0  0  0  0  0  0  0
   42.5300   34.4760   35.9430 H   0  0  0  0  0  0  0  0  0  0  0  0
   40.7640   32.5190   36.8940 O   0  0  0  0  0  0  0  0  0  0  0  0
   39.9670   31.5430   37.4780 C   0  0  0  0  0  0  0  0  0  0  0  0
   40.3360   30.2470   37.6930 C   0  0  0  0  0  0  0  0  0  0  0  0
   41.2810   29.8050   37.4450 H   0  0  0  0  0  0  0  0  0  0  0  0
   39.3630   29.5500   38.2710 N   0  0  0  0  0  0  0  0  0  0  0  0
   39.2550   28.5470   38.5920 H   0  0  0  0  0  0  0  0  0  0  0  0
   38.3380   30.4170   38.4330 C   0  0  0  0  0  0  0  0  0  0  0  0
   37.3290   30.3420   38.8500 H   0  0  0  0  0  0  0  0  0  0  0  0
   38.7000   31.6210   37.9550 N   0  0  0  0  0  0  0  0  0  0  0  0
  1  2  1  0  0  0  0
  2 18  1  0  0  0  0
  2  3  2  0  0  0  0
  3 11  1  0  0  0  0
  4  3  1  0  0  0  0
  4  5  1  0  0  0  0
  5 12  1  0  0  0  0
  6 13  1  0  0  0  0
  6  5  1  0  0  0  0
  7  6  2  0  0  0  0
  8  7  1  0  0  0  0
  8  4  2  0  0  0  0
  9  1  2  0  0  0  0
  9  8  1  0  0  0  0
 10  1  1  0  0  0  0
 14 15  1  0  0  0  0
 15 22  1  0  0  0  0
 15 16  2  0  0  0  0
 16 21  1  0  0  0  0
 17 16  1  0  0  0  0
 18 17  2  0  0  0  0
 19 14  2  0  0  0  0
 19 18  1  0  0  0  0
 20 14  1  0  0  0  0
 22 25  1  0  0  0  0
 22 24  1  0  0  0  0
 23 22  1  0  0  0  0
 26  9  1  0  0  0  0
 28 27  2  1  0  0  0
 28 26  1  0  0  0  0
 29 28  1  0  0  0  0
 30 29  1  0  0  0  0
 31 32  1  0  0  0  0
 31 28  1  0  0  0  0
 32 33  2  0  0  0  0
 32 39  1  0  0  0  0
 33 35  1  0  0  0  0
 34 33  1  0  0  0  0
 35 37  1  0  0  0  0
 35 36  1  0  0  0  0
 37 38  1  0  0  0  0
 39 37  2  0  0  0  0
M  END
>  <minimizedAffinity>
-6.11033964

$$$$

 OpenBabel03242513423D

 39 42  0  0  0  0  0  0  0  0999 V2000
   36.5960   30.3680   39.7280 C   0  0  0  0  0  0  0  0  0  0  0  0
   35.7620   29.2800   39.5620 C   0  0  0  0  0  0  0  0  0  0  0  0
   35.7540   28.3360   40.5550 C   0  0  0  0  0  0  0  0  0  0  0  0
   36.5310   28.4300   41.6890 C   0  0  0  0  0  0  0  0  0  0  0  0
   36.7480   27.7010   42.8110 N   0  0  0  0  0  0  0  0  0  0  0  0
   37.6580   28.3170   43.6010 C   0  0  0  0  0  0  0  0  0  0  0  0
   38.0110   29.4460   42.9610 N   0  0  0  0  0  0  0  0  0  0  0  0
   37.3400   29.5400   41.7940 C   0  0  0  0  0  0  0  0  0  0  0  0
   37.3990   30.5110   40.8530 C   0  0  0  0  0  0  0  0  0  0  0  0
   36.6120   31.1310   38.9420 H   0  0  0  0  0  0  0  0  0  0  0  0
   35.1150   27.4720   40.4580 H   0  0  0  0  0  0  0  0  0  0  0  0
   36.2510   26.7810   43.0020 H   0  0  0  0  0  0  0  0  0  0  0  0
   38.0260   27.9590   44.5680 H   0  0  0  0  0  0  0  0  0  0  0  0
   32.8430   28.9320   37.3960 C   0  0  0  0  0  0  0  0  0  0  0  0
   33.4010   28.9120   36.1120 C   0  0  0  0  0  0  0  0  0  0  0  0
   34.7950   29.0220   36.0330 C   0  0  0  0  0  0  0  0  0  0  0  0
   35.5270   29.1400   37.1660 N   0  0  0  0  0  0  0  0  0  0  0  0
   34.9320   29.1530   38.3780 C   0  0  0  0  0  0  0  0  0  0  0  0
   33.6100   29.0500   38.5090 N   0  0  0  0  0  0  0  0  0  0  0  0
   31.7670   28.8550   37.6160 H   0  0  0  0  0  0  0  0  0  0  0  0
   35.2070   29.0070   35.0540 H   0  0  0  0  0  0  0  0  0  0  0  0
   32.4720   28.7800   34.9670 C   0  0  0  0  0  0  0  0  0  0  0  0
   31.2830   28.3610   35.4990 F   0  0  0  0  0  0  0  0  0  0  0  0
   32.9870   27.8490   34.1070 F   0  0  0  0  0  0  0  0  0  0  0  0
   32.3910   30.0440   34.3570 F   0  0  0  0  0  0  0  0  0  0  0  0
   38.2330   31.6010   41.0190 O   0  0  0  0  0  0  0  0  0  0  0  0
   39.6560   33.6670   40.3630 O   0  0  0  0  0  0  0  0  0  0  0  0
   38.4660   32.8340   39.8920 P   0  0  2  0  0  0  0  0  0  0  0  0
   37.1000   33.8510   39.9670 O   0  0  0  0  0  0  0  0  0  0  0  0
   36.9340   34.3130   39.1040 H   0  0  0  0  0  0  0  0  0  0  0  0
   38.7140   32.2890   38.3390 O   0  0  0  0  0  0  0  0  0  0  0  0
   39.9510   31.7790   37.9660 C   0  0  0  0  0  0  0  0  0  0  0  0
   40.4420   30.5570   38.3250 C   0  0  0  0  0  0  0  0  0  0  0  0
   39.9490   29.8290   38.9380 H   0  0  0  0  0  0  0  0  0  0  0  0
   41.6520   30.3460   37.8160 N   0  0  0  0  0  0  0  0  0  0  0  0
   42.3490   29.5510   37.8590 H   0  0  0  0  0  0  0  0  0  0  0  0
   41.9500   31.4600   37.1100 C   0  0  0  0  0  0  0  0  0  0  0  0
   42.8100   31.7830   36.5140 H   0  0  0  0  0  0  0  0  0  0  0  0
   40.9260   32.3260   37.1980 N   0  0  0  0  0  0  0  0  0  0  0  0
  1  9  1  0  0  0  0
  2  1  2  0  0  0  0
  2  3  1  0  0  0  0
  3  4  2  0  0  0  0
  4  8  1  0  0  0  0
  4  5  1  0  0  0  0
  5 12  1  0  0  0  0
  5  6  1  0  0  0  0
  6 13  1  0  0  0  0
  7  6  2  0  0  0  0
  8  7  1  0  0  0  0
  9 26  1  0  0  0  0
  9  8  2  0  0  0  0
 10  1  1  0  0  0  0
 11  3  1  0  0  0  0
 14 20  1  0  0  0  0
 14 19  1  0  0  0  0
 15 14  2  0  0  0  0
 16 15  1  0  0  0  0
 16 17  2  0  0  0  0
 17 18  1  0  0  0  0
 18 19  2  0  0  0  0
 18  2  1  0  0  0  0
 21 16  1  0  0  0  0
 22 23  1  0  0  0  0
 22 15  1  0  0  0  0
 24 22  1  0  0  0  0
 25 22  1  0  0  0  0
 28 29  1  0  0  0  0
 28 27  2  1  0  0  0
 28 26  1  0  0  0  0
 30 29  1  0  0  0  0
 31 28  1  0  0  0  0
 32 33  2  0  0  0  0
 32 31  1  0  0  0  0
 33 34  1  0  0  0  0
 35 36  1  0  0  0  0
 35 33  1  0  0  0  0
 37 39  2  0  0  0  0
 37 35  1  0  0  0  0
 38 37  1  0  0  0  0
 39 32  1  0  0  0  0
M  END
>  <minimizedAffinity>
-5.82971048

$$$$

 OpenBabel03242513423D

 39 42  0  0  0  0  0  0  0  0999 V2000
   37.5100   28.9180   39.2400 C   0  0  0  0  0  0  0  0  0  0  0  0
   36.1480   28.7780   39.4230 C   0  0  0  0  0  0  0  0  0  0  0  0
   35.7050   28.5430   40.6980 C   0  0  0  0  0  0  0  0  0  0  0  0
   36.5500   28.4420   41.7810 C   0  0  0  0  0  0  0  0  0  0  0  0
   36.4380   28.2260   43.1140 N   0  0  0  0  0  0  0  0  0  0  0  0
   37.6610   28.2340   43.6950 C   0  0  0  0  0  0  0  0  0  0  0  0
   38.5460   28.4610   42.7070 N   0  0  0  0  0  0  0  0  0  0  0  0
   37.8960   28.5920   41.5320 C   0  0  0  0  0  0  0  0  0  0  0  0
   38.4040   28.8260   40.2990 C   0  0  0  0  0  0  0  0  0  0  0  0
   37.8780   29.1070   38.2250 H   0  0  0  0  0  0  0  0  0  0  0  0
   34.6470   28.4280   40.8780 H   0  0  0  0  0  0  0  0  0  0  0  0
   35.5020   28.0740   43.5940 H   0  0  0  0  0  0  0  0  0  0  0  0
   37.8760   28.0860   44.7580 H   0  0  0  0  0  0  0  0  0  0  0  0
   34.8520   29.0370   36.0190 C   0  0  0  0  0  0  0  0  0  0  0  0
   33.4650   29.0710   36.2100 C   0  0  0  0  0  0  0  0  0  0  0  0
   33.0120   29.0020   37.5330 C   0  0  0  0  0  0  0  0  0  0  0  0
   33.9050   28.9080   38.5460 N   0  0  0  0  0  0  0  0  0  0  0  0
   35.2330   28.8790   38.3010 C   0  0  0  0  0  0  0  0  0  0  0  0
   35.7160   28.9430   37.0610 N   0  0  0  0  0  0  0  0  0  0  0  0
   35.3530   29.0830   35.0410 H   0  0  0  0  0  0  0  0  0  0  0  0
   31.9580   29.0270   37.6650 H   0  0  0  0  0  0  0  0  0  0  0  0
   32.6130   29.1750   35.0030 C   0  0  0  0  0  0  0  0  0  0  0  0
   32.9500   30.3620   34.4110 F   0  0  0  0  0  0  0  0  0  0  0  0
   31.3060   29.1720   35.4030 F   0  0  0  0  0  0  0  0  0  0  0  0
   32.9010   28.0570   34.2020 F   0  0  0  0  0  0  0  0  0  0  0  0
   39.7670   28.9660   40.1150 O   0  0  0  0  0  0  0  0  0  0  0  0
   40.5570   30.9810   38.6870 O   0  0  0  0  0  0  0  0  0  0  0  0
   40.6070   30.4290   40.1100 P   0  0  2  0  0  0  0  0  0  0  0  0
   42.2420   30.0730   40.4360 O   0  0  0  0  0  0  0  0  0  0  0  0
   42.7080   30.8350   40.8690 H   0  0  0  0  0  0  0  0  0  0  0  0
   40.0180   31.5480   41.1920 O   0  0  0  0  0  0  0  0  0  0  0  0
   39.1680   32.5580   40.7590 C   0  0  0  0  0  0  0  0  0  0  0  0
   37.8330   32.4160   40.5140 C   0  0  0  0  0  0  0  0  0  0  0  0
   37.2590   31.5170   40.6190 H   0  0  0  0  0  0  0  0  0  0  0  0
   37.2840   33.5580   40.1130 N   0  0  0  0  0  0  0  0  0  0  0  0
   36.3080   33.8570   39.8320 H   0  0  0  0  0  0  0  0  0  0  0  0
   38.2900   34.4620   40.0970 C   0  0  0  0  0  0  0  0  0  0  0  0
   38.3620   35.5250   39.8450 H   0  0  0  0  0  0  0  0  0  0  0  0
   39.4280   33.8610   40.4870 N   0  0  0  0  0  0  0  0  0  0  0  0
  1  2  2  0  0  0  0
  1  9  1  0  0  0  0
  2  3  1  0  0  0  0
  3 11  1  0  0  0  0
  3  4  2  0  0  0  0
  4  5  1  0  0  0  0
  5 12  1  0  0  0  0
  5  6  1  0  0  0  0
  6 13  1  0  0  0  0
  7  6  2  0  0  0  0
  8  4  1  0  0  0  0
  8  7  1  0  0  0  0
  9  8  2  0  0  0  0
 10  1  1  0  0  0  0
 14 15  2  0  0  0  0
 14 19  1  0  0  0  0
 15 16  1  0  0  0  0
 16 21  1  0  0  0  0
 16 17  2  0  0  0  0
 18 17  1  0  0  0  0
 18  2  1  0  0  0  0
 19 18  2  0  0  0  0
 20 14  1  0  0  0  0
 22 24  1  0  0  0  0
 22 15  1  0  0  0  0
 23 22  1  0  0  0  0
 25 22  1  0  0  0  0
 26  9  1  0  0  0  0
 28 27  2  6  0  0  0
 28 26  1  0  0  0  0
 28 29  1  0  0  0  0
 28 31  1  0  0  0  0
 29 30  1  0  0  0  0
 32 31  1  0  0  0  0
 33 34  1  0  0  0  0
 33 32  2  0  0  0  0
 35 33  1  0  0  0  0
 36 35  1  0  0  0  0
 37 35  1  0  0  0  0
 37 39  2  0  0  0  0
 38 37  1  0  0  0  0
 39 32  1  0  0  0  0
M  END
>  <minimizedAffinity>
-5.81194258

$$$$

 OpenBabel03242513423D

 39 42  0  0  0  0  0  0  0  0999 V2000
   38.0250   29.1630   41.2990 C   0  0  0  0  0  0  0  0  0  0  0  0
   37.2610   28.0870   40.8910 C   0  0  0  0  0  0  0  0  0  0  0  0
   37.5570   26.8640   41.4330 C   0  0  0  0  0  0  0  0  0  0  0  0
   38.5680   26.6710   42.3490 C   0  0  0  0  0  0  0  0  0  0  0  0
   39.0950   25.6360   43.0460 N   0  0  0  0  0  0  0  0  0  0  0  0
   40.1160   26.0670   43.8250 C   0  0  0  0  0  0  0  0  0  0  0  0
   40.2220   27.3900   43.6090 N   0  0  0  0  0  0  0  0  0  0  0  0
   39.2920   27.7840   42.7150 C   0  0  0  0  0  0  0  0  0  0  0  0
   39.0560   29.0220   42.2210 C   0  0  0  0  0  0  0  0  0  0  0  0
   37.7990   30.1470   40.8750 H   0  0  0  0  0  0  0  0  0  0  0  0
   36.9810   26.0010   41.1360 H   0  0  0  0  0  0  0  0  0  0  0  0
   38.7290   24.6410   42.9620 H   0  0  0  0  0  0  0  0  0  0  0  0
   40.7260   25.4520   44.4950 H   0  0  0  0  0  0  0  0  0  0  0  0
   34.1490   29.1810   39.3260 C   0  0  0  0  0  0  0  0  0  0  0  0
   34.1860   28.5530   38.0750 C   0  0  0  0  0  0  0  0  0  0  0  0
   35.3060   27.7560   37.8060 C   0  0  0  0  0  0  0  0  0  0  0  0
   36.2800   27.6280   38.7370 N   0  0  0  0  0  0  0  0  0  0  0  0
   36.1900   28.2580   39.9280 C   0  0  0  0  0  0  0  0  0  0  0  0
   35.1460   29.0270   40.2340 N   0  0  0  0  0  0  0  0  0  0  0  0
   33.3370   29.8350   39.6780 H   0  0  0  0  0  0  0  0  0  0  0  0
   35.3230   27.2860   36.8530 H   0  0  0  0  0  0  0  0  0  0  0  0
   33.0460   28.7900   37.1600 C   0  0  0  0  0  0  0  0  0  0  0  0
   33.5350   29.5760   36.1520 F   0  0  0  0  0  0  0  0  0  0  0  0
   32.0640   29.4330   37.8610 F   0  0  0  0  0  0  0  0  0  0  0  0
   32.6100   27.5290   36.7160 F   0  0  0  0  0  0  0  0  0  0  0  0
   39.8200   30.0990   42.6290 O   0  0  0  0  0  0  0  0  0  0  0  0
   41.7700   31.7740   42.2860 O   0  0  0  0  0  0  0  0  0  0  0  0
   40.5030   31.2560   41.6090 P   0  0  2  0  0  0  0  0  0  0  0  0
   39.4180   32.5690   41.5380 O   0  0  0  0  0  0  0  0  0  0  0  0
   39.4980   33.0700   40.6840 H   0  0  0  0  0  0  0  0  0  0  0  0
   40.8470   30.6890   40.0820 O   0  0  0  0  0  0  0  0  0  0  0  0
   40.1900   31.2150   38.9770 C   0  0  0  0  0  0  0  0  0  0  0  0
   40.7950   31.8200   37.9130 C   0  0  0  0  0  0  0  0  0  0  0  0
   41.8480   31.9720   37.7830 H   0  0  0  0  0  0  0  0  0  0  0  0
   39.9080   32.2210   37.0090 N   0  0  0  0  0  0  0  0  0  0  0  0
   39.9690   32.7150   36.0740 H   0  0  0  0  0  0  0  0  0  0  0  0
   38.6990   31.8670   37.5000 C   0  0  0  0  0  0  0  0  0  0  0  0
   37.6680   31.9710   37.1470 H   0  0  0  0  0  0  0  0  0  0  0  0
   38.8660   31.2600   38.6880 N   0  0  0  0  0  0  0  0  0  0  0  0
  1  9  1  0  0  0  0
  2  1  2  0  0  0  0
  2  3  1  0  0  0  0
  3  4  2  0  0  0  0
  4  8  1  0  0  0  0
  4  5  1  0  0  0  0
  5  6  1  0  0  0  0
  6 13  1  0  0  0  0
  7  6  2  0  0  0  0
  8  7  1  0  0  0  0
  9 26  1  0  0  0  0
  9  8  2  0  0  0  0
 10  1  1  0  0  0  0
 11  3  1  0  0  0  0
 12  5  1  0  0  0  0
 14 20  1  0  0  0  0
 14 19  1  0  0  0  0
 15 14  2  0  0  0  0
 16 15  1  0  0  0  0
 16 17  2  0  0  0  0
 17 18  1  0  0  0  0
 18 19  2  0  0  0  0
 18  2  1  0  0  0  0
 21 16  1  0  0  0  0
 22 24  1  0  0  0  0
 22 15  1  0  0  0  0
 23 22  1  0  0  0  0
 25 22  1  0  0  0  0
 28 27  2  1  0  0  0
 28 26  1  0  0  0  0
 29 28  1  0  0  0  0
 30 29  1  0  0  0  0
 31 28  1  0  0  0  0
 32 31  1  0  0  0  0
 33 32  2  0  0  0  0
 34 33  1  0  0  0  0
 35 37  1  0  0  0  0
 35 33  1  0  0  0  0
 36 35  1  0  0  0  0
 37 39  2  0  0  0  0
 38 37  1  0  0  0  0
 39 32  1  0  0  0  0
M  END
>  <minimizedAffinity>
-5.8013978

$$$$

 OpenBabel03242513423D

 39 42  0  0  0  0  0  0  0  0999 V2000
   36.2320   29.8100   39.2760 C   0  0  0  0  0  0  0  0  0  0  0  0
   36.3560   30.0000   37.9130 C   0  0  0  0  0  0  0  0  0  0  0  0
   37.3300   30.8640   37.4850 C   0  0  0  0  0  0  0  0  0  0  0  0
   38.1710   31.5360   38.3440 C   0  0  0  0  0  0  0  0  0  0  0  0
   39.1930   32.4200   38.2490 N   0  0  0  0  0  0  0  0  0  0  0  0
   39.6530   32.7410   39.4810 C   0  0  0  0  0  0  0  0  0  0  0  0
   38.9050   32.0440   40.3560 N   0  0  0  0  0  0  0  0  0  0  0  0
   37.9960   31.3020   39.6910 C   0  0  0  0  0  0  0  0  0  0  0  0
   37.0550   30.4630   40.1850 C   0  0  0  0  0  0  0  0  0  0  0  0
   35.4570   29.1220   39.6320 H   0  0  0  0  0  0  0  0  0  0  0  0
   37.4550   31.0370   36.4270 H   0  0  0  0  0  0  0  0  0  0  0  0
   39.5510   32.7850   37.3160 H   0  0  0  0  0  0  0  0  0  0  0  0
   40.4710   33.4310   39.7100 H   0  0  0  0  0  0  0  0  0  0  0  0
   33.4790   28.2430   36.5110 C   0  0  0  0  0  0  0  0  0  0  0  0
   33.8700   27.9980   35.1890 C   0  0  0  0  0  0  0  0  0  0  0  0
   35.1400   28.4570   34.8160 C   0  0  0  0  0  0  0  0  0  0  0  0
   35.9160   29.0990   35.7200 N   0  0  0  0  0  0  0  0  0  0  0  0
   35.4850   29.3070   36.9830 C   0  0  0  0  0  0  0  0  0  0  0  0
   34.2860   28.8900   37.3890 N   0  0  0  0  0  0  0  0  0  0  0  0
   32.5140   27.9430   36.9470 H   0  0  0  0  0  0  0  0  0  0  0  0
   35.4260   28.2660   33.8100 H   0  0  0  0  0  0  0  0  0  0  0  0
   32.9120   27.2840   34.3160 C   0  0  0  0  0  0  0  0  0  0  0  0
   32.4200   26.2520   35.0690 F   0  0  0  0  0  0  0  0  0  0  0  0
   33.5940   26.8210   33.2240 F   0  0  0  0  0  0  0  0  0  0  0  0
   31.9270   28.2140   33.9410 F   0  0  0  0  0  0  0  0  0  0  0  0
   36.9300   30.2720   41.5480 O   0  0  0  0  0  0  0  0  0  0  0  0
   36.4060   27.7760   42.0210 O   0  0  0  0  0  0  0  0  0  0  0  0
   37.3920   28.8840   42.3870 P   0  0  2  0  0  0  0  0  0  0  0  0
   37.1720   29.2010   44.0470 O   0  0  0  0  0  0  0  0  0  0  0  0
   37.7880   28.6640   44.6120 H   0  0  0  0  0  0  0  0  0  0  0  0
   38.9550   28.3990   42.0790 O   0  0  0  0  0  0  0  0  0  0  0  0
   39.4140   27.1770   42.5540 C   0  0  0  0  0  0  0  0  0  0  0  0
   39.7600   26.9120   43.8470 C   0  0  0  0  0  0  0  0  0  0  0  0
   39.7260   27.6010   44.6680 H   0  0  0  0  0  0  0  0  0  0  0  0
   40.1610   25.6550   43.9990 N   0  0  0  0  0  0  0  0  0  0  0  0
   40.5020   25.0750   44.8170 H   0  0  0  0  0  0  0  0  0  0  0  0
   40.0740   25.0920   42.7720 C   0  0  0  0  0  0  0  0  0  0  0  0
   40.2860   24.0970   42.3680 H   0  0  0  0  0  0  0  0  0  0  0  0
   39.6240   26.0090   41.8980 N   0  0  0  0  0  0  0  0  0  0  0  0
  1 10  1  0  0  0  0
  1  9  1  0  0  0  0
  2  1  2  0  0  0  0
  3  2  1  0  0  0  0
  3  4  2  0  0  0  0
  4  8  1  0  0  0  0
  5  4  1  0  0  0  0
  5  6  1  0  0  0  0
  6 13  1  0  0  0  0
  6  7  2  0  0  0  0
  8  9  2  0  0  0  0
  8  7  1  0  0  0  0
  9 26  1  0  0  0  0
 11  3  1  0  0  0  0
 12  5  1  0  0  0  0
 14 20  1  0  0  0  0
 14 19  1  0  0  0  0
 15 14  2  0  0  0  0
 16 15  1  0  0  0  0
 16 17  2  0  0  0  0
 17 18  1  0  0  0  0
 18 19  2  0  0  0  0
 18  2  1  0  0  0  0
 21 16  1  0  0  0  0
 22 23  1  0  0  0  0
 22 15  1  0  0  0  0
 24 22  1  0  0  0  0
 25 22  1  0  0  0  0
 26 28  1  0  0  0  0
 28 27  2  6  0  0  0
 28 29  1  0  0  0  0
 29 30  1  0  0  0  0
 31 28  1  0  0  0  0
 31 32  1  0  0  0  0
 32 33  2  0  0  0  0
 33 35  1  0  0  0  0
 33 34  1  0  0  0  0
 35 36  1  0  0  0  0
 37 35  1  0  0  0  0
 38 37  1  0  0  0  0
 39 32  1  0  0  0  0
 39 37  2  0  0  0  0
M  END
>  <minimizedAffinity>
-5.66658688

$$$$
