
 OpenBabel03252500443D

 33 35  0  0  1  0  0  0  0  0999 V2000
   47.5840   35.2320   41.7780 C   0  0  1  0  0  0  0  0  0  0  0  0
   49.0700   35.5190   41.5980 C   0  0  0  0  0  0  0  0  0  0  0  0
   48.2470   34.9500   40.4640 C   0  0  1  0  0  0  0  0  0  0  0  0
   46.9990   36.1810   41.7720 H   0  0  0  0  0  0  0  0  0  0  0  0
   49.7980   34.8250   42.0830 H   0  0  0  0  0  0  0  0  0  0  0  0
   49.4210   36.5480   41.4170 H   0  0  0  0  0  0  0  0  0  0  0  0
   48.0470   35.5920   39.5790 H   0  0  0  0  0  0  0  0  0  0  0  0
   47.2230   34.0470   42.5740 C   0  0  0  0  0  0  0  0  0  0  0  0
   46.7870   33.2430   41.9260 H   0  0  0  0  0  0  0  0  0  0  0  0
   48.1530   33.5650   42.9960 H   0  0  0  0  0  0  0  0  0  0  0  0
   46.3510   34.3090   43.7220 C   0  0  0  0  0  0  0  0  0  0  0  0
   45.5150   35.3770   43.5350 C   0  0  0  0  0  0  0  0  0  0  0  0
   44.6170   35.7650   44.5550 C   0  0  0  0  0  0  0  0  0  0  0  0
   44.6650   34.9990   45.7000 N   0  0  0  0  0  0  0  0  0  0  0  0
   45.4990   33.9510   45.8560 C   0  0  0  0  0  0  0  0  0  0  0  0
   46.3240   33.6250   44.8720 N   0  0  0  0  0  0  0  0  0  0  0  0
   45.3190   36.0820   42.7380 H   0  0  0  0  0  0  0  0  0  0  0  0
   43.9060   36.5550   44.5890 H   0  0  0  0  0  0  0  0  0  0  0  0
   45.4740   33.4010   46.7840 H   0  0  0  0  0  0  0  0  0  0  0  0
   48.4590   33.6370   40.1350 O   0  0  0  0  0  0  0  0  0  0  0  0
   48.2990   34.6530   37.6690 O   0  0  0  0  0  0  0  0  0  0  0  0
   48.3690   33.3750   38.4610 P   0  0  1  0  0  0  0  0  0  0  0  0
   49.8310   32.5970   38.0060 O   0  0  0  0  0  0  0  0  0  0  0  0
   50.4950   33.3100   37.8740 H   0  0  0  0  0  0  0  0  0  0  0  0
   47.0830   32.3450   38.1130 O   0  0  0  0  0  0  0  0  0  0  0  0
   46.5210   32.4390   36.8340 C   0  0  0  0  0  0  0  0  0  0  0  0
   45.3800   33.1520   36.5390 C   0  0  0  0  0  0  0  0  0  0  0  0
   44.7300   33.7380   37.1740 H   0  0  0  0  0  0  0  0  0  0  0  0
   45.1240   33.0280   35.2170 N   0  0  0  0  0  0  0  0  0  0  0  0
   44.3780   33.3920   34.5810 H   0  0  0  0  0  0  0  0  0  0  0  0
   46.0800   32.2520   34.6760 C   0  0  0  0  0  0  0  0  0  0  0  0
   46.3240   31.8640   33.6980 H   0  0  0  0  0  0  0  0  0  0  0  0
   46.9120   31.9110   35.6800 N   0  0  0  0  0  0  0  0  0  0  0  0
  1  4  1  1  0  0  0
  1  8  1  0  0  0  0
  2  1  1  0  0  0  0
  2  5  1  0  0  0  0
  3  7  1  6  0  0  0
  3  2  1  0  0  0  0
  3  1  1  0  0  0  0
  6  2  1  0  0  0  0
  8 10  1  0  0  0  0
  8 11  1  0  0  0  0
  9  8  1  0  0  0  0
 11 16  1  0  0  0  0
 12 11  2  0  0  0  0
 12 13  1  0  0  0  0
 13 18  1  0  0  0  0
 13 14  2  0  0  0  0
 14 15  1  0  0  0  0
 15 19  1  0  0  0  0
 16 15  2  0  0  0  0
 17 12  1  0  0  0  0
 20  3  1  0  0  0  0
 22 21  2  6  0  0  0
 22 20  1  0  0  0  0
 23 22  1  0  0  0  0
 24 23  1  0  0  0  0
 25 22  1  0  0  0  0
 26 25  1  0  0  0  0
 27 26  2  0  0  0  0
 27 28  1  0  0  0  0
 29 27  1  0  0  0  0
 30 29  1  0  0  0  0
 31 29  1  0  0  0  0
 31 33  2  0  0  0  0
 32 31  1  0  0  0  0
 33 26  1  0  0  0  0
M  END
>  <minimizedAffinity>
-5.37704849

>  <minimizedRMSD>
1.29455388

$$$$
