REMARK  Name = 
REMARK  2 active torsions:
REMARK  status: ('A' for Active; 'I' for Inactive)
REMARK    1  A    between atoms: C_3  and  C_7
REMARK    2  A    between atoms: C_5  and  C_17
REMARK                            x       y       z     vdW  Elec       q    Type
REMARK                         _______ _______ _______ _____ _____    ______ ____
ROOT
ATOM      1  C   UNL     1      44.622  35.946  44.338  0.00  0.00    +0.000 A 
ATOM      2  C   UNL     1      45.351  35.925  43.136  0.00  0.00    +0.000 A 
ATOM      3  C   UNL     1      46.272  34.897  43.009  0.00  0.00    +0.000 A 
ATOM      4  N   UNL     1      46.437  33.974  44.013  0.00  0.00    +0.000 NA
ATOM      5  C   UNL     1      45.703  34.037  45.161  0.00  0.00    +0.000 A 
ATOM      6  N   UNL     1      44.802  35.025  45.312  0.00  0.00    +0.000 NA
ATOM      7  H   UNL     1      43.885  36.712  44.519  0.00  0.00    +0.000 HD
ATOM      8  H   UNL     1      45.208  36.648  42.374  0.00  0.00    +0.000 HD
ENDROOT
BRANCH   3   9
ATOM      9  C   UNL     1      47.094  34.749  41.762  0.00  0.00    +0.000 C 
ATOM     10  C   UNL     1      48.403  35.505  41.817  0.00  0.00    +0.000 C 
ATOM     11  C   UNL     1      48.313  33.955  41.810  0.00  0.00    +0.000 C 
ATOM     12  H   UNL     1      46.499  34.857  40.842  0.00  0.00    +0.000 HD
ATOM     13  H   UNL     1      48.718  36.010  42.727  0.00  0.00    +0.000 HD
ATOM     14  H   UNL     1      48.680  36.004  40.876  0.00  0.00    +0.000 HD
ATOM     15  H   UNL     1      48.751  33.520  42.706  0.00  0.00    +0.000 HD
ATOM     16  H   UNL     1      48.697  33.519  40.848  0.00  0.00    +0.000 HD
ENDBRANCH   3   9
BRANCH   5  17
ATOM     17  C   UNL     1      46.010  32.976  46.115  0.00  0.00    +0.000 A 
ATOM     18  C   UNL     1      46.660  33.287  47.312  0.00  0.00    +0.000 A 
ATOM     19  H   UNL     1      46.997  34.272  47.665  0.00  0.00    +0.000 HD
ATOM     20  N   UNL     1      46.827  32.149  48.011  0.00  0.00    +0.000 N 
ATOM     21  H   UNL     1      47.289  32.105  48.946  0.00  0.00    +0.000 HD
ATOM     22  C   UNL     1      46.292  31.137  47.269  0.00  0.00    +0.000 A 
ATOM     23  H   UNL     1      46.329  30.142  47.663  0.00  0.00    +0.000 HD
ATOM     24  N   UNL     1      45.791  31.648  46.106  0.00  0.00    +0.000 NA
ENDBRANCH   5  17
TORSDOF 2
