
 OpenBabel03242523403D

 36 40  0  0  1  0  0  0  0  0999 V2000
   38.1930   28.1370   42.9230 C   0  0  2  0  0  0  0  0  0  0  0  0
   39.1660   27.5830   43.5360 N   0  0  2  0  0  4  0  0  0  0  0  0
   40.3580   27.1930   43.5820 C   0  0  0  0  0  0  0  0  0  0  0  0
   39.8220   25.9400   43.7270 N   0  0  0  0  0  0  0  0  0  0  0  0
   38.8230   25.7090   42.8110 C   0  0  2  0  0  3  0  0  0  0  0  0
   38.7030   24.3590   42.3670 C   0  0  0  0  0  0  0  0  0  0  0  0
   37.7750   24.1160   41.4300 C   0  0  0  0  0  0  0  0  0  0  0  0
   36.9620   25.0560   40.8880 C   0  0  0  0  0  0  0  0  0  0  0  0
   37.1890   26.3250   41.4160 C   0  0  0  0  0  0  0  0  0  0  0  0
   38.0700   26.8210   42.3750 C   0  0  1  0  0  0  0  0  0  0  0  0
   37.2960   28.0370   43.7270 H   0  0  0  0  0  0  0  0  0  0  0  0
   39.1820   28.1500   44.4910 H   0  0  0  0  0  0  0  0  0  0  0  0
   41.1230   27.3710   44.4040 H   0  0  0  0  0  0  0  0  0  0  0  0
   40.9940   27.2830   42.6750 H   0  0  0  0  0  0  0  0  0  0  0  0
   40.1540   25.2360   44.4650 H   0  0  0  0  0  0  0  0  0  0  0  0
   39.3070   23.5630   42.7520 H   0  0  0  0  0  0  0  0  0  0  0  0
   37.6930   23.0650   41.0950 H   0  0  0  0  0  0  0  0  0  0  0  0
   36.2660   24.7830   40.1590 H   0  0  0  0  0  0  0  0  0  0  0  0
   36.4730   26.9560   40.8930 H   0  0  0  0  0  0  0  0  0  0  0  0
   35.8070   29.9200   40.7260 C   0  0  0  0  0  0  0  0  0  0  0  0
   36.6320   31.0330   40.4720 C   0  0  0  0  0  0  0  0  0  0  0  0
   37.8870   31.0350   41.0520 C   0  0  0  0  0  0  0  0  0  0  0  0
   38.2120   29.9660   41.8140 N   0  0  0  0  0  0  0  0  0  0  0  0
   37.4000   28.8970   42.0510 C   0  0  0  0  0  0  0  0  0  0  0  0
   36.2780   28.9780   41.4840 N   0  0  0  0  0  0  0  0  0  0  0  0
   34.8120   29.8280   40.3170 H   0  0  0  0  0  0  0  0  0  0  0  0
   36.2430   31.8150   39.8450 H   0  0  0  0  0  0  0  0  0  0  0  0
   38.9270   32.4210   40.7370 S   0  0  0  0  0  0  0  0  0  0  0  0
   39.4830   32.3320   39.0410 C   0  0  0  0  0  0  0  0  0  0  0  0
   39.0520   31.8840   37.7880 C   0  0  0  0  0  0  0  0  0  0  0  0
   38.0630   31.4480   37.8380 H   0  0  0  0  0  0  0  0  0  0  0  0
   40.0280   32.1510   36.9230 N   0  0  0  0  0  0  0  0  0  0  0  0
   39.8510   31.8720   35.9330 H   0  0  0  0  0  0  0  0  0  0  0  0
   41.0630   32.7440   37.5460 C   0  0  0  0  0  0  0  0  0  0  0  0
   41.9650   33.0460   37.0230 H   0  0  0  0  0  0  0  0  0  0  0  0
   40.7300   32.8600   38.8640 N   0  0  0  0  0  0  0  0  0  0  0  0
  1  2  1  0  0  0  0
  1 11  1  1  0  0  0
  2  3  1  0  0  0  0
  2 12  1  1  0  0  0
  3  4  1  0  0  0  0
  3 13  1  0  0  0  0
  4 15  1  0  0  0  0
  5  6  1  6  0  0  0
  5  4  1  0  0  0  0
  6 16  1  0  0  0  0
  7  6  2  0  0  0  0
  8  9  2  0  0  0  0
  8  7  1  0  0  0  0
 10  9  1  6  0  0  0
 10  5  1  0  0  0  0
 10  1  1  0  0  0  0
 10  2  1  0  0  0  0
 14  3  1  0  0  0  0
 17  7  1  0  0  0  0
 18  8  1  0  0  0  0
 19  9  1  0  0  0  0
 20 25  1  0  0  0  0
 21 20  2  0  0  0  0
 21 22  1  0  0  0  0
 22 23  2  0  0  0  0
 23 24  1  0  0  0  0
 24  1  1  0  0  0  0
 25 24  2  0  0  0  0
 26 20  1  0  0  0  0
 27 21  1  0  0  0  0
 28 22  1  0  0  0  0
 29 28  1  0  0  0  0
 30 31  1  0  0  0  0
 30 29  2  0  0  0  0
 32 34  1  0  0  0  0
 32 30  1  0  0  0  0
 33 32  1  0  0  0  0
 34 36  2  0  0  0  0
 35 34  1  0  0  0  0
 36 29  1  0  0  0  0
M  END
>  <minimizedAffinity>
-6.38017893

$$$$

 OpenBabel03242523403D

 36 40  0  0  1  0  0  0  0  0999 V2000
   36.9240   29.9440   41.7790 C   0  0  2  0  0  0  0  0  0  0  0  0
   36.9970   29.2830   42.8690 N   0  0  2  0  0  4  0  0  0  0  0  0
   37.6610   28.6840   43.7500 C   0  0  0  0  0  0  0  0  0  0  0  0
   36.9520   27.5760   43.3670 N   0  0  0  0  0  0  0  0  0  0  0  0
   36.9250   27.4410   41.9980 C   0  0  2  0  0  3  0  0  0  0  0  0
   36.8980   26.0990   41.5170 C   0  0  0  0  0  0  0  0  0  0  0  0
   36.9310   25.9390   40.1860 C   0  0  0  0  0  0  0  0  0  0  0  0
   36.9880   26.9530   39.2880 C   0  0  0  0  0  0  0  0  0  0  0  0
   37.0060   28.2050   39.8990 C   0  0  0  0  0  0  0  0  0  0  0  0
   36.9780   28.6240   41.2280 C   0  0  1  0  0  0  0  0  0  0  0  0
   35.7320   30.0970   41.6540 H   0  0  0  0  0  0  0  0  0  0  0  0
   36.4240   29.9330   43.5640 H   0  0  0  0  0  0  0  0  0  0  0  0
   37.5940   28.8000   44.8790 H   0  0  0  0  0  0  0  0  0  0  0  0
   38.7570   28.5580   43.6130 H   0  0  0  0  0  0  0  0  0  0  0  0
   36.4860   26.9020   44.0590 H   0  0  0  0  0  0  0  0  0  0  0  0
   36.8490   25.2490   42.1650 H   0  0  0  0  0  0  0  0  0  0  0  0
   36.9090   24.8930   39.8270 H   0  0  0  0  0  0  0  0  0  0  0  0
   37.0120   26.7420   38.2660 H   0  0  0  0  0  0  0  0  0  0  0  0
   37.0500   28.9010   39.0640 H   0  0  0  0  0  0  0  0  0  0  0  0
   37.2780   32.1290   38.8130 C   0  0  0  0  0  0  0  0  0  0  0  0
   38.6770   32.2680   38.8890 C   0  0  0  0  0  0  0  0  0  0  0  0
   39.3250   31.5970   39.9090 C   0  0  0  0  0  0  0  0  0  0  0  0
   38.5550   30.8660   40.7470 N   0  0  0  0  0  0  0  0  0  0  0  0
   37.2000   30.7430   40.6600 C   0  0  0  0  0  0  0  0  0  0  0  0
   36.6940   31.3860   39.7020 N   0  0  0  0  0  0  0  0  0  0  0  0
   36.6860   32.6130   38.0510 H   0  0  0  0  0  0  0  0  0  0  0  0
   39.1620   32.8840   38.1530 H   0  0  0  0  0  0  0  0  0  0  0  0
   41.0760   31.7630   40.0090 S   0  0  0  0  0  0  0  0  0  0  0  0
   41.6240   32.7680   38.6380 C   0  0  0  0  0  0  0  0  0  0  0  0
   41.8370   32.6840   37.2580 C   0  0  0  0  0  0  0  0  0  0  0  0
   41.5970   31.7010   36.8760 H   0  0  0  0  0  0  0  0  0  0  0  0
   42.2750   33.8770   36.8590 N   0  0  0  0  0  0  0  0  0  0  0  0
   42.4800   33.9710   35.8400 H   0  0  0  0  0  0  0  0  0  0  0  0
   42.3580   34.7230   37.9020 C   0  0  0  0  0  0  0  0  0  0  0  0
   42.6950   35.7490   37.7970 H   0  0  0  0  0  0  0  0  0  0  0  0
   41.9540   34.0390   39.0110 N   0  0  0  0  0  0  0  0  0  0  0  0
  1 11  1  6  0  0  0
  1  2  1  0  0  0  0
  2 12  1  1  0  0  0
  2  3  1  0  0  0  0
  3 13  1  0  0  0  0
  4  3  1  0  0  0  0
  4 15  1  0  0  0  0
  5  6  1  6  0  0  0
  5  4  1  0  0  0  0
  6 16  1  0  0  0  0
  7  6  2  0  0  0  0
  8  9  2  0  0  0  0
  8  7  1  0  0  0  0
 10  9  1  6  0  0  0
 10  1  1  0  0  0  0
 10  5  1  0  0  0  0
 10  2  1  0  0  0  0
 14  3  1  0  0  0  0
 17  7  1  0  0  0  0
 18  8  1  0  0  0  0
 19  9  1  0  0  0  0
 20 21  2  0  0  0  0
 20 25  1  0  0  0  0
 21 22  1  0  0  0  0
 22 28  1  0  0  0  0
 22 23  2  0  0  0  0
 24 23  1  0  0  0  0
 24  1  1  0  0  0  0
 25 24  2  0  0  0  0
 26 20  1  0  0  0  0
 27 21  1  0  0  0  0
 29 36  1  0  0  0  0
 29 28  1  0  0  0  0
 30 29  2  0  0  0  0
 31 30  1  0  0  0  0
 32 30  1  0  0  0  0
 32 34  1  0  0  0  0
 33 32  1  0  0  0  0
 34 36  2  0  0  0  0
 35 34  1  0  0  0  0
M  END
>  <minimizedAffinity>
-6.27548218

$$$$

 OpenBabel03242523403D

 36 40  0  0  1  0  0  0  0  0999 V2000
   36.6030   29.2360   41.3050 C   0  0  2  0  0  0  0  0  0  0  0  0
   36.9060   29.0370   42.5290 N   0  0  2  0  0  4  0  0  0  0  0  0
   37.7550   28.8690   43.4380 C   0  0  0  0  0  0  0  0  0  0  0  0
   37.1680   27.6410   43.5990 N   0  0  0  0  0  0  0  0  0  0  0  0
   36.9870   27.0050   42.3930 C   0  0  2  0  0  3  0  0  0  0  0  0
   37.0910   25.5830   42.4310 C   0  0  0  0  0  0  0  0  0  0  0  0
   36.9770   24.9420   41.2590 C   0  0  0  0  0  0  0  0  0  0  0  0
   36.7750   25.5510   40.0640 C   0  0  0  0  0  0  0  0  0  0  0  0
   36.6920   26.9360   40.1790 C   0  0  0  0  0  0  0  0  0  0  0  0
   36.7730   27.8160   41.2570 C   0  0  1  0  0  0  0  0  0  0  0  0
   35.3940   29.2290   41.3380 H   0  0  0  0  0  0  0  0  0  0  0  0
   36.3390   29.8470   43.0350 H   0  0  0  0  0  0  0  0  0  0  0  0
   37.8160   29.3910   44.4470 H   0  0  0  0  0  0  0  0  0  0  0  0
   38.8310   28.7960   43.1710 H   0  0  0  0  0  0  0  0  0  0  0  0
   36.8940   27.2360   44.5540 H   0  0  0  0  0  0  0  0  0  0  0  0
   37.2450   25.0340   43.3370 H   0  0  0  0  0  0  0  0  0  0  0  0
   37.0590   23.8400   41.3030 H   0  0  0  0  0  0  0  0  0  0  0  0
   36.6990   24.9770   39.1950 H   0  0  0  0  0  0  0  0  0  0  0  0
   36.5300   27.2730   39.1560 H   0  0  0  0  0  0  0  0  0  0  0  0
   36.2670   30.0830   37.7170 C   0  0  0  0  0  0  0  0  0  0  0  0
   37.5250   30.7010   37.5860 C   0  0  0  0  0  0  0  0  0  0  0  0
   38.3330   30.7370   38.7070 C   0  0  0  0  0  0  0  0  0  0  0  0
   37.8400   30.1750   39.8350 N   0  0  0  0  0  0  0  0  0  0  0  0
   36.6180   29.5820   39.9460 C   0  0  0  0  0  0  0  0  0  0  0  0
   35.9510   29.5940   38.8770 N   0  0  0  0  0  0  0  0  0  0  0  0
   35.5680   30.0050   36.8980 H   0  0  0  0  0  0  0  0  0  0  0  0
   37.7880   31.1080   36.6260 H   0  0  0  0  0  0  0  0  0  0  0  0
   39.9100   31.5050   38.5500 S   0  0  0  0  0  0  0  0  0  0  0  0
   39.9550   32.9220   39.6390 C   0  0  0  0  0  0  0  0  0  0  0  0
   40.8460   33.6210   40.4590 C   0  0  0  0  0  0  0  0  0  0  0  0
   41.8330   33.1800   40.4450 H   0  0  0  0  0  0  0  0  0  0  0  0
   40.1650   34.6290   41.0020 N   0  0  0  0  0  0  0  0  0  0  0  0
   40.7020   35.2500   41.6470 H   0  0  0  0  0  0  0  0  0  0  0  0
   38.8860   34.6180   40.5790 C   0  0  0  0  0  0  0  0  0  0  0  0
   38.1580   35.3540   40.9010 H   0  0  0  0  0  0  0  0  0  0  0  0
   38.7500   33.5590   39.7300 N   0  0  0  0  0  0  0  0  0  0  0  0
  1 11  1  1  0  0  0
  1  2  1  0  0  0  0
  2 12  1  1  0  0  0
  2  3  1  0  0  0  0
  3  4  1  0  0  0  0
  3 13  1  0  0  0  0
  4 15  1  0  0  0  0
  5  6  1  6  0  0  0
  5  4  1  0  0  0  0
  6 16  1  0  0  0  0
  7 17  1  0  0  0  0
  7  6  2  0  0  0  0
  8  9  2  0  0  0  0
  8  7  1  0  0  0  0
 10  9  1  6  0  0  0
 10  1  1  0  0  0  0
 10  5  1  0  0  0  0
 10  2  1  0  0  0  0
 14  3  1  0  0  0  0
 18  8  1  0  0  0  0
 19  9  1  0  0  0  0
 20 25  1  0  0  0  0
 21 20  2  0  0  0  0
 21 22  1  0  0  0  0
 22 23  2  0  0  0  0
 23 24  1  0  0  0  0
 24  1  1  0  0  0  0
 25 24  2  0  0  0  0
 26 20  1  0  0  0  0
 27 21  1  0  0  0  0
 28 22  1  0  0  0  0
 28 29  1  0  0  0  0
 29 36  1  0  0  0  0
 29 30  2  0  0  0  0
 30 32  1  0  0  0  0
 31 30  1  0  0  0  0
 32 33  1  0  0  0  0
 34 35  1  0  0  0  0
 34 32  1  0  0  0  0
 36 34  2  0  0  0  0
M  END
>  <minimizedAffinity>
-6.12547684

$$$$

 OpenBabel03242523403D

 36 40  0  0  1  0  0  0  0  0999 V2000
   37.7820   29.3530   42.3320 C   0  0  2  0  0  0  0  0  0  0  0  0
   36.5800   29.4650   41.9160 N   0  0  2  0  0  4  0  0  0  0  0  0
   35.6910   29.2590   41.0550 C   0  0  0  0  0  0  0  0  0  0  0  0
   35.6360   30.6240   40.9520 N   0  0  0  0  0  0  0  0  0  0  0  0
   36.8920   31.1740   40.8490 C   0  0  2  0  0  3  0  0  0  0  0  0
   36.9780   32.3560   40.0560 C   0  0  0  0  0  0  0  0  0  0  0  0
   38.2010   32.8800   39.8910 C   0  0  0  0  0  0  0  0  0  0  0  0
   39.3380   32.3650   40.4200 C   0  0  0  0  0  0  0  0  0  0  0  0
   39.1030   31.2150   41.1700 C   0  0  0  0  0  0  0  0  0  0  0  0
   37.9540   30.4940   41.4850 C   0  0  1  0  0  0  0  0  0  0  0  0
   37.7480   29.9600   43.3770 H   0  0  0  0  0  0  0  0  0  0  0  0
   36.0050   29.0820   42.7850 H   0  0  0  0  0  0  0  0  0  0  0  0
   34.6410   28.8510   41.2140 H   0  0  0  0  0  0  0  0  0  0  0  0
   35.9660   28.7690   40.0960 H   0  0  0  0  0  0  0  0  0  0  0  0
   34.7190   31.1800   40.9480 H   0  0  0  0  0  0  0  0  0  0  0  0
   36.1230   32.8220   39.6110 H   0  0  0  0  0  0  0  0  0  0  0  0
   38.2520   33.7970   39.2750 H   0  0  0  0  0  0  0  0  0  0  0  0
   40.2530   32.8350   40.2410 H   0  0  0  0  0  0  0  0  0  0  0  0
   40.0920   30.9280   41.5220 H   0  0  0  0  0  0  0  0  0  0  0  0
   41.3580   28.6420   42.9730 C   0  0  0  0  0  0  0  0  0  0  0  0
   41.2160   27.2480   43.1140 C   0  0  0  0  0  0  0  0  0  0  0  0
   39.9470   26.7220   42.9550 C   0  0  0  0  0  0  0  0  0  0  0  0
   38.9520   27.5960   42.6810 N   0  0  0  0  0  0  0  0  0  0  0  0
   39.1060   28.9440   42.5500 C   0  0  0  0  0  0  0  0  0  0  0  0
   40.2930   29.3360   42.7090 N   0  0  0  0  0  0  0  0  0  0  0  0
   42.3080   29.1440   43.0780 H   0  0  0  0  0  0  0  0  0  0  0  0
   42.0970   26.6730   43.3340 H   0  0  0  0  0  0  0  0  0  0  0  0
   39.7620   24.9790   43.1250 S   0  0  0  0  0  0  0  0  0  0  0  0
   38.3540   24.4670   42.1510 C   0  0  0  0  0  0  0  0  0  0  0  0
   36.9730   24.6720   42.0650 C   0  0  0  0  0  0  0  0  0  0  0  0
   36.6220   25.3600   42.8220 H   0  0  0  0  0  0  0  0  0  0  0  0
   36.5340   23.9310   41.0480 N   0  0  0  0  0  0  0  0  0  0  0  0
   35.5090   23.9800   40.8560 H   0  0  0  0  0  0  0  0  0  0  0  0
   37.5520   23.2610   40.4760 C   0  0  0  0  0  0  0  0  0  0  0  0
   37.4130   22.5980   39.6300 H   0  0  0  0  0  0  0  0  0  0  0  0
   38.6870   23.5910   41.1580 N   0  0  0  0  0  0  0  0  0  0  0  0
  1 24  1  0  0  0  0
  1 11  1  1  0  0  0
  2  1  1  0  0  0  0
  2 12  1  1  0  0  0
  3 13  1  0  0  0  0
  3  2  1  0  0  0  0
  4  3  1  0  0  0  0
  5  6  1  6  0  0  0
  5  4  1  0  0  0  0
  5 10  1  0  0  0  0
  7  6  2  0  0  0  0
  7  8  1  0  0  0  0
  8  9  2  0  0  0  0
  9 19  1  0  0  0  0
 10  9  1  6  0  0  0
 10  2  1  0  0  0  0
 10  1  1  0  0  0  0
 14  3  1  0  0  0  0
 15  4  1  0  0  0  0
 16  6  1  0  0  0  0
 17  7  1  0  0  0  0
 18  8  1  0  0  0  0
 20 26  1  0  0  0  0
 20 21  1  0  0  0  0
 21 27  1  0  0  0  0
 22 21  2  0  0  0  0
 22 28  1  0  0  0  0
 23 22  1  0  0  0  0
 24 23  2  0  0  0  0
 24 25  1  0  0  0  0
 25 20  2  0  0  0  0
 29 28  1  0  0  0  0
 30 29  2  0  0  0  0
 30 31  1  0  0  0  0
 32 30  1  0  0  0  0
 33 32  1  0  0  0  0
 34 32  1  0  0  0  0
 34 36  2  0  0  0  0
 35 34  1  0  0  0  0
 36 29  1  0  0  0  0
M  END
>  <minimizedAffinity>
-6.09350872

$$$$

 OpenBabel03242523403D

 36 40  0  0  1  0  0  0  0  0999 V2000
   38.6710   30.5970   41.2110 C   0  0  2  0  0  0  0  0  0  0  0  0
   37.4310   30.6150   40.9080 N   0  0  2  0  0  4  0  0  0  0  0  0
   36.2410   30.9270   41.1590 C   0  0  0  0  0  0  0  0  0  0  0  0
   36.0090   29.5770   41.1630 N   0  0  0  0  0  0  0  0  0  0  0  0
   36.9510   28.9040   41.9070 C   0  0  2  0  0  3  0  0  0  0  0  0
   36.4800   27.7350   42.5740 C   0  0  0  0  0  0  0  0  0  0  0  0
   37.3620   27.0930   43.3520 C   0  0  0  0  0  0  0  0  0  0  0  0
   38.6480   27.4800   43.5420 C   0  0  0  0  0  0  0  0  0  0  0  0
   38.9680   28.6330   42.8290 C   0  0  0  0  0  0  0  0  0  0  0  0
   38.2470   29.4610   41.9710 C   0  0  1  0  0  0  0  0  0  0  0  0
   39.1490   29.9760   40.2910 H   0  0  0  0  0  0  0  0  0  0  0  0
   37.4570   31.0370   39.8810 H   0  0  0  0  0  0  0  0  0  0  0  0
   35.4900   31.4360   40.4740 H   0  0  0  0  0  0  0  0  0  0  0  0
   35.9990   31.4050   42.1330 H   0  0  0  0  0  0  0  0  0  0  0  0
   35.1880   29.1160   40.6500 H   0  0  0  0  0  0  0  0  0  0  0  0
   35.4800   27.3670   42.4690 H   0  0  0  0  0  0  0  0  0  0  0  0
   36.9840   26.1870   43.8630 H   0  0  0  0  0  0  0  0  0  0  0  0
   39.2710   26.9230   44.1680 H   0  0  0  0  0  0  0  0  0  0  0  0
   40.0120   28.8110   43.0780 H   0  0  0  0  0  0  0  0  0  0  0  0
   41.8480   31.2410   42.9980 C   0  0  0  0  0  0  0  0  0  0  0  0
   42.6810   31.1660   41.8650 C   0  0  0  0  0  0  0  0  0  0  0  0
   42.0720   30.9310   40.6470 C   0  0  0  0  0  0  0  0  0  0  0  0
   40.7260   30.7910   40.6510 N   0  0  0  0  0  0  0  0  0  0  0  0
   39.9340   30.8640   41.7580 C   0  0  0  0  0  0  0  0  0  0  0  0
   40.5720   31.0820   42.8230 N   0  0  0  0  0  0  0  0  0  0  0  0
   42.2310   31.4220   43.9910 H   0  0  0  0  0  0  0  0  0  0  0  0
   43.7380   31.2960   42.0090 H   0  0  0  0  0  0  0  0  0  0  0  0
   43.1050   30.8390   39.2240 S   0  0  0  0  0  0  0  0  0  0  0  0
   42.7790   32.2670   38.2010 C   0  0  0  0  0  0  0  0  0  0  0  0
   42.0500   32.6340   37.0650 C   0  0  0  0  0  0  0  0  0  0  0  0
   41.4950   31.7980   36.6580 H   0  0  0  0  0  0  0  0  0  0  0  0
   42.2840   33.9280   36.8530 N   0  0  0  0  0  0  0  0  0  0  0  0
   41.8020   34.3520   36.0300 H   0  0  0  0  0  0  0  0  0  0  0  0
   43.1230   34.4150   37.7870 C   0  0  0  0  0  0  0  0  0  0  0  0
   43.4460   35.4510   37.7990 H   0  0  0  0  0  0  0  0  0  0  0  0
   43.4340   33.3870   38.6270 N   0  0  0  0  0  0  0  0  0  0  0  0
  1 11  1  6  0  0  0
  1 24  1  0  0  0  0
  1 10  1  0  0  0  0
  2 12  1  6  0  0  0
  2  3  1  0  0  0  0
  2  1  1  0  0  0  0
  2 10  1  0  0  0  0
  3  4  1  0  0  0  0
  3 14  1  0  0  0  0
  4  5  1  0  0  0  0
  5 10  1  0  0  0  0
  5  6  1  1  0  0  0
  6  7  2  0  0  0  0
  7  8  1  0  0  0  0
  7 17  1  0  0  0  0
  8 18  1  0  0  0  0
  9 19  1  0  0  0  0
  9  8  2  0  0  0  0
 10  9  1  1  0  0  0
 13  3  1  0  0  0  0
 15  4  1  0  0  0  0
 16  6  1  0  0  0  0
 20 26  1  0  0  0  0
 21 27  1  0  0  0  0
 21 20  2  0  0  0  0
 22 23  2  0  0  0  0
 22 21  1  0  0  0  0
 23 24  1  0  0  0  0
 24 25  2  0  0  0  0
 25 20  1  0  0  0  0
 28 22  1  0  0  0  0
 29 36  1  0  0  0  0
 29 28  1  0  0  0  0
 30 29  2  0  0  0  0
 31 30  1  0  0  0  0
 32 30  1  0  0  0  0
 32 34  1  0  0  0  0
 33 32  1  0  0  0  0
 34 35  1  0  0  0  0
 34 36  2  0  0  0  0
M  END
>  <minimizedAffinity>
-5.88418007

$$$$

 OpenBabel03242523403D

 36 40  0  0  1  0  0  0  0  0999 V2000
   35.1140   29.1360   39.9340 C   0  0  2  0  0  0  0  0  0  0  0  0
   35.4740   30.0260   40.7770 N   0  0  2  0  0  4  0  0  0  0  0  0
   36.2530   30.9360   41.1500 C   0  0  0  0  0  0  0  0  0  0  0  0
   36.5170   30.1150   42.2150 N   0  0  0  0  0  0  0  0  0  0  0  0
   36.7550   28.8220   41.8100 C   0  0  2  0  0  3  0  0  0  0  0  0
   37.6880   28.0950   42.6050 C   0  0  0  0  0  0  0  0  0  0  0  0
   37.9830   26.8520   42.1990 C   0  0  0  0  0  0  0  0  0  0  0  0
   37.4590   26.2560   41.0990 C   0  0  0  0  0  0  0  0  0  0  0  0
   36.5640   27.0810   40.4220 C   0  0  0  0  0  0  0  0  0  0  0  0
   36.1010   28.3770   40.6400 C   0  0  1  0  0  0  0  0  0  0  0  0
   34.1500   28.6480   40.4760 H   0  0  0  0  0  0  0  0  0  0  0  0
   34.5340   30.6020   40.9100 H   0  0  0  0  0  0  0  0  0  0  0  0
   35.9880   31.9730   41.5330 H   0  0  0  0  0  0  0  0  0  0  0  0
   37.1590   31.1570   40.5460 H   0  0  0  0  0  0  0  0  0  0  0  0
   36.5380   30.4530   43.2320 H   0  0  0  0  0  0  0  0  0  0  0  0
   38.1390   28.4980   43.4890 H   0  0  0  0  0  0  0  0  0  0  0  0
   38.7080   26.2990   42.8250 H   0  0  0  0  0  0  0  0  0  0  0  0
   37.7440   25.2830   40.8500 H   0  0  0  0  0  0  0  0  0  0  0  0
   36.2340   26.4730   39.5820 H   0  0  0  0  0  0  0  0  0  0  0  0
   34.8030   26.8330   37.0540 C   0  0  0  0  0  0  0  0  0  0  0  0
   33.7900   27.5510   36.3900 C   0  0  0  0  0  0  0  0  0  0  0  0
   33.3550   28.7230   36.9800 C   0  0  0  0  0  0  0  0  0  0  0  0
   33.9420   29.0760   38.1460 N   0  0  0  0  0  0  0  0  0  0  0  0
   34.9210   28.3680   38.7770 C   0  0  0  0  0  0  0  0  0  0  0  0
   35.2560   27.3160   38.1700 N   0  0  0  0  0  0  0  0  0  0  0  0
   35.2080   25.9080   36.6710 H   0  0  0  0  0  0  0  0  0  0  0  0
   33.4120   27.1510   35.4660 H   0  0  0  0  0  0  0  0  0  0  0  0
   32.0900   29.6290   36.1540 S   0  0  0  0  0  0  0  0  0  0  0  0
   30.6000   29.5340   37.1350 C   0  0  0  0  0  0  0  0  0  0  0  0
   29.2900   29.0480   37.0600 C   0  0  0  0  0  0  0  0  0  0  0  0
   29.0950   28.5710   36.1090 H   0  0  0  0  0  0  0  0  0  0  0  0
   28.7000   29.3410   38.2180 N   0  0  0  0  0  0  0  0  0  0  0  0
   27.7060   29.0380   38.3140 H   0  0  0  0  0  0  0  0  0  0  0  0
   29.5540   29.9880   39.0330 C   0  0  0  0  0  0  0  0  0  0  0  0
   29.2740   30.3190   40.0280 H   0  0  0  0  0  0  0  0  0  0  0  0
   30.7370   30.1100   38.3650 N   0  0  0  0  0  0  0  0  0  0  0  0
  1 11  1  1  0  0  0
  1 10  1  0  0  0  0
  1  2  1  0  0  0  0
  2 12  1  1  0  0  0
  2  3  1  0  0  0  0
  3 13  1  0  0  0  0
  3  4  1  0  0  0  0
  4 15  1  0  0  0  0
  5  4  1  0  0  0  0
  5  6  1  6  0  0  0
  6 16  1  0  0  0  0
  7  6  2  0  0  0  0
  7 17  1  0  0  0  0
  8  7  1  0  0  0  0
  9  8  2  0  0  0  0
 10  9  1  6  0  0  0
 10  2  1  0  0  0  0
 10  5  1  0  0  0  0
 14  3  1  0  0  0  0
 18  8  1  0  0  0  0
 19  9  1  0  0  0  0
 20 25  1  0  0  0  0
 21 22  1  0  0  0  0
 21 20  2  0  0  0  0
 22 23  2  0  0  0  0
 23 24  1  0  0  0  0
 24  1  1  0  0  0  0
 25 24  2  0  0  0  0
 26 20  1  0  0  0  0
 27 21  1  0  0  0  0
 28 22  1  0  0  0  0
 28 29  1  0  0  0  0
 29 36  1  0  0  0  0
 30 29  2  0  0  0  0
 30 32  1  0  0  0  0
 31 30  1  0  0  0  0
 32 33  1  0  0  0  0
 32 34  1  0  0  0  0
 34 35  1  0  0  0  0
 36 34  2  0  0  0  0
M  END
>  <minimizedAffinity>
-5.87727404

$$$$

 OpenBabel03242523403D

 36 40  0  0  1  0  0  0  0  0999 V2000
   37.0890   31.8890   40.4720 C   0  0  2  0  0  0  0  0  0  0  0  0
   37.2840   33.1310   40.2500 N   0  0  2  0  0  4  0  0  0  0  0  0
   37.2300   34.1370   39.5010 C   0  0  0  0  0  0  0  0  0  0  0  0
   38.5950   34.1540   39.6170 N   0  0  0  0  0  0  0  0  0  0  0  0
   39.1350   32.9040   39.4260 C   0  0  2  0  0  3  0  0  0  0  0  0
   40.4260   32.8820   38.8210 C   0  0  0  0  0  0  0  0  0  0  0  0
   40.9510   31.6740   38.5690 C   0  0  0  0  0  0  0  0  0  0  0  0
   40.3410   30.4960   38.8480 C   0  0  0  0  0  0  0  0  0  0  0  0
   39.0900   30.6690   39.4370 C   0  0  0  0  0  0  0  0  0  0  0  0
   38.3470   31.7920   39.7950 C   0  0  1  0  0  0  0  0  0  0  0  0
   37.5240   31.7590   41.5920 H   0  0  0  0  0  0  0  0  0  0  0  0
   36.7780   33.5970   41.1220 H   0  0  0  0  0  0  0  0  0  0  0  0
   36.8190   35.1700   39.7400 H   0  0  0  0  0  0  0  0  0  0  0  0
   36.8930   34.0130   38.4490 H   0  0  0  0  0  0  0  0  0  0  0  0
   39.1600   35.0410   39.8270 H   0  0  0  0  0  0  0  0  0  0  0  0
   40.9700   33.7720   38.5760 H   0  0  0  0  0  0  0  0  0  0  0  0
   41.9520   31.6730   38.1000 H   0  0  0  0  0  0  0  0  0  0  0  0
   40.8180   29.5960   38.6170 H   0  0  0  0  0  0  0  0  0  0  0  0
   38.7360   29.6530   39.5990 H   0  0  0  0  0  0  0  0  0  0  0  0
   35.8160   28.4450   40.0070 C   0  0  0  0  0  0  0  0  0  0  0  0
   36.2840   27.9400   41.2360 C   0  0  0  0  0  0  0  0  0  0  0  0
   36.9460   28.8210   42.0710 C   0  0  0  0  0  0  0  0  0  0  0  0
   37.0880   30.0920   41.6310 N   0  0  0  0  0  0  0  0  0  0  0  0
   36.6310   30.5640   40.4370 C   0  0  0  0  0  0  0  0  0  0  0  0
   36.0400   29.6950   39.7420 N   0  0  0  0  0  0  0  0  0  0  0  0
   35.2880   27.8340   39.2910 H   0  0  0  0  0  0  0  0  0  0  0  0
   36.1000   26.9040   41.4570 H   0  0  0  0  0  0  0  0  0  0  0  0
   37.5310   28.1990   43.6110 S   0  0  0  0  0  0  0  0  0  0  0  0
   38.6180   26.8190   43.2830 C   0  0  0  0  0  0  0  0  0  0  0  0
   38.6540   25.6270   42.5510 C   0  0  0  0  0  0  0  0  0  0  0  0
   37.7400   25.4710   41.9950 H   0  0  0  0  0  0  0  0  0  0  0  0
   39.8380   25.0630   42.7860 N   0  0  0  0  0  0  0  0  0  0  0  0
   40.0170   24.1560   42.3030 H   0  0  0  0  0  0  0  0  0  0  0  0
   40.5650   25.8220   43.6280 C   0  0  0  0  0  0  0  0  0  0  0  0
   41.5620   25.5440   43.9530 H   0  0  0  0  0  0  0  0  0  0  0  0
   39.8100   26.9150   43.9410 N   0  0  0  0  0  0  0  0  0  0  0  0
  1 11  1  1  0  0  0
  2  1  1  0  0  0  0
  2 12  1  1  0  0  0
  3  4  1  0  0  0  0
  3 13  1  0  0  0  0
  3  2  1  0  0  0  0
  4 15  1  0  0  0  0
  5  6  1  6  0  0  0
  5  4  1  0  0  0  0
  5 10  1  0  0  0  0
  7  6  2  0  0  0  0
  7  8  1  0  0  0  0
  8  9  2  0  0  0  0
  9 19  1  0  0  0  0
 10  9  1  6  0  0  0
 10  2  1  0  0  0  0
 10  1  1  0  0  0  0
 14  3  1  0  0  0  0
 16  6  1  0  0  0  0
 17  7  1  0  0  0  0
 18  8  1  0  0  0  0
 20 21  1  0  0  0  0
 21 27  1  0  0  0  0
 21 22  2  0  0  0  0
 22 28  1  0  0  0  0
 23 22  1  0  0  0  0
 24  1  1  0  0  0  0
 24 23  2  0  0  0  0
 25 20  2  0  0  0  0
 25 24  1  0  0  0  0
 26 20  1  0  0  0  0
 29 28  1  0  0  0  0
 29 36  1  0  0  0  0
 30 32  1  0  0  0  0
 30 29  2  0  0  0  0
 31 30  1  0  0  0  0
 32 34  1  0  0  0  0
 33 32  1  0  0  0  0
 34 36  2  0  0  0  0
 34 35  1  0  0  0  0
M  END
>  <minimizedAffinity>
-5.82870674

$$$$

 OpenBabel03242523403D

 36 40  0  0  1  0  0  0  0  0999 V2000
   36.8650   28.2810   42.4230 C   0  0  2  0  0  0  0  0  0  0  0  0
   35.8930   28.7570   41.7460 N   0  0  2  0  0  4  0  0  0  0  0  0
   35.2830   28.9170   40.6610 C   0  0  0  0  0  0  0  0  0  0  0  0
   35.5330   30.2510   40.8500 N   0  0  0  0  0  0  0  0  0  0  0  0
   36.8450   30.4750   41.2000 C   0  0  2  0  0  3  0  0  0  0  0  0
   37.3980   31.7040   40.7360 C   0  0  0  0  0  0  0  0  0  0  0  0
   38.6920   31.9210   41.0130 C   0  0  0  0  0  0  0  0  0  0  0  0
   39.4910   31.0600   41.6910 C   0  0  0  0  0  0  0  0  0  0  0  0
   38.8170   29.9050   42.0820 C   0  0  0  0  0  0  0  0  0  0  0  0
   37.5070   29.4580   41.9230 C   0  0  1  0  0  0  0  0  0  0  0  0
   36.6370   28.7090   43.5310 H   0  0  0  0  0  0  0  0  0  0  0  0
   35.0180   28.4020   42.3310 H   0  0  0  0  0  0  0  0  0  0  0  0
   34.1760   28.7690   40.4500 H   0  0  0  0  0  0  0  0  0  0  0  0
   35.7330   28.5280   39.7220 H   0  0  0  0  0  0  0  0  0  0  0  0
   34.7900   31.0150   40.7320 H   0  0  0  0  0  0  0  0  0  0  0  0
   36.8280   32.4340   40.1990 H   0  0  0  0  0  0  0  0  0  0  0  0
   39.1080   32.8790   40.6480 H   0  0  0  0  0  0  0  0  0  0  0  0
   40.4910   31.3050   41.8630 H   0  0  0  0  0  0  0  0  0  0  0  0
   39.5760   29.3270   42.6060 H   0  0  0  0  0  0  0  0  0  0  0  0
   39.7530   26.5210   43.9270 C   0  0  0  0  0  0  0  0  0  0  0  0
   39.6490   25.3550   43.1440 C   0  0  0  0  0  0  0  0  0  0  0  0
   38.6400   25.3160   42.2000 C   0  0  0  0  0  0  0  0  0  0  0  0
   37.8390   26.4030   42.1130 N   0  0  0  0  0  0  0  0  0  0  0  0
   37.9530   27.5230   42.8810 C   0  0  0  0  0  0  0  0  0  0  0  0
   38.8980   27.4730   43.7120 N   0  0  0  0  0  0  0  0  0  0  0  0
   40.5090   26.6450   44.6880 H   0  0  0  0  0  0  0  0  0  0  0  0
   40.3560   24.5650   43.3210 H   0  0  0  0  0  0  0  0  0  0  0  0
   38.5040   23.8630   41.2140 S   0  0  0  0  0  0  0  0  0  0  0  0
   37.5670   24.2660   39.7470 C   0  0  0  0  0  0  0  0  0  0  0  0
   37.7460   24.8030   38.4680 C   0  0  0  0  0  0  0  0  0  0  0  0
   38.7800   25.0650   38.2860 H   0  0  0  0  0  0  0  0  0  0  0  0
   36.5520   24.8130   37.8790 N   0  0  0  0  0  0  0  0  0  0  0  0
   36.5240   25.1900   36.9070 H   0  0  0  0  0  0  0  0  0  0  0  0
   35.6130   24.3140   38.7060 C   0  0  0  0  0  0  0  0  0  0  0  0
   34.5690   24.2330   38.4230 H   0  0  0  0  0  0  0  0  0  0  0  0
   36.2390   23.9720   39.8690 N   0  0  0  0  0  0  0  0  0  0  0  0
  1 24  1  0  0  0  0
  1 11  1  1  0  0  0
  2 10  1  0  0  0  0
  2 12  1  1  0  0  0
  2  1  1  0  0  0  0
  3  4  1  0  0  0  0
  3  2  1  0  0  0  0
  4  5  1  0  0  0  0
  5  6  1  6  0  0  0
  5 10  1  0  0  0  0
  6  7  2  0  0  0  0
  7  8  1  0  0  0  0
  8 18  1  0  0  0  0
  8  9  2  0  0  0  0
  9 19  1  0  0  0  0
 10  9  1  6  0  0  0
 10  1  1  0  0  0  0
 13  3  1  0  0  0  0
 14  3  1  0  0  0  0
 15  4  1  0  0  0  0
 16  6  1  0  0  0  0
 17  7  1  0  0  0  0
 20 26  1  0  0  0  0
 21 27  1  0  0  0  0
 21 20  2  0  0  0  0
 22 21  1  0  0  0  0
 23 22  2  0  0  0  0
 23 24  1  0  0  0  0
 24 25  2  0  0  0  0
 25 20  1  0  0  0  0
 28 22  1  0  0  0  0
 29 36  1  0  0  0  0
 29 28  1  0  0  0  0
 30 29  2  0  0  0  0
 31 30  1  0  0  0  0
 32 30  1  0  0  0  0
 32 34  1  0  0  0  0
 33 32  1  0  0  0  0
 34 36  2  0  0  0  0
 35 34  1  0  0  0  0
M  END
>  <minimizedAffinity>
-5.78744698

$$$$

 OpenBabel03242523403D

 36 40  0  0  1  0  0  0  0  0999 V2000
   36.6860   27.5300   39.8310 C   0  0  2  0  0  0  0  0  0  0  0  0
   36.1090   27.2930   38.7170 N   0  0  2  0  0  4  0  0  0  0  0  0
   35.0800   27.0510   38.0400 C   0  0  0  0  0  0  0  0  0  0  0  0
   35.6990   25.8670   37.7360 N   0  0  0  0  0  0  0  0  0  0  0  0
   36.2150   25.2620   38.8590 C   0  0  2  0  0  3  0  0  0  0  0  0
   36.2110   23.8370   38.8400 C   0  0  0  0  0  0  0  0  0  0  0  0
   36.6530   23.2210   39.9460 C   0  0  0  0  0  0  0  0  0  0  0  0
   37.0940   23.8580   41.0590 C   0  0  0  0  0  0  0  0  0  0  0  0
   37.0430   25.2450   40.9340 C   0  0  0  0  0  0  0  0  0  0  0  0
   36.6380   26.1020   39.9130 C   0  0  1  0  0  0  0  0  0  0  0  0
   37.8470   27.6100   39.5050 H   0  0  0  0  0  0  0  0  0  0  0  0
   36.4750   28.1360   38.0920 H   0  0  0  0  0  0  0  0  0  0  0  0
   34.7370   27.5540   37.0800 H   0  0  0  0  0  0  0  0  0  0  0  0
   34.1100   26.9030   38.5620 H   0  0  0  0  0  0  0  0  0  0  0  0
   35.7620   25.4710   36.7410 H   0  0  0  0  0  0  0  0  0  0  0  0
   35.8810   23.2660   37.9960 H   0  0  0  0  0  0  0  0  0  0  0  0
   36.6450   22.1150   39.9180 H   0  0  0  0  0  0  0  0  0  0  0  0
   37.4210   23.3030   41.8800 H   0  0  0  0  0  0  0  0  0  0  0  0
   37.4240   25.6060   41.8880 H   0  0  0  0  0  0  0  0  0  0  0  0
   37.3110   28.1450   43.4270 C   0  0  0  0  0  0  0  0  0  0  0  0
   38.1600   29.2550   43.2490 C   0  0  0  0  0  0  0  0  0  0  0  0
   38.3970   29.6680   41.9510 C   0  0  0  0  0  0  0  0  0  0  0  0
   37.7930   28.9660   40.9650 N   0  0  0  0  0  0  0  0  0  0  0  0
   36.9760   27.8920   41.1550 C   0  0  0  0  0  0  0  0  0  0  0  0
   36.8150   27.5860   42.3660 N   0  0  0  0  0  0  0  0  0  0  0  0
   37.0660   27.7510   44.4020 H   0  0  0  0  0  0  0  0  0  0  0  0
   38.5730   29.7190   44.1270 H   0  0  0  0  0  0  0  0  0  0  0  0
   39.4540   31.0580   41.7190 S   0  0  0  0  0  0  0  0  0  0  0  0
   38.5300   32.3300   40.8710 C   0  0  0  0  0  0  0  0  0  0  0  0
   37.3150   32.5140   40.2020 C   0  0  0  0  0  0  0  0  0  0  0  0
   36.7280   31.6050   40.1810 H   0  0  0  0  0  0  0  0  0  0  0  0
   37.2800   33.7840   39.8020 N   0  0  0  0  0  0  0  0  0  0  0  0
   36.4230   34.0770   39.2820 H   0  0  0  0  0  0  0  0  0  0  0  0
   38.4030   34.4280   40.1730 C   0  0  0  0  0  0  0  0  0  0  0  0
   38.5790   35.4740   39.9460 H   0  0  0  0  0  0  0  0  0  0  0  0
   39.1830   33.5280   40.8380 N   0  0  0  0  0  0  0  0  0  0  0  0
  1 11  1  6  0  0  0
  1 10  1  0  0  0  0
  1 24  1  0  0  0  0
  2 12  1  6  0  0  0
  2  1  1  0  0  0  0
  2 10  1  0  0  0  0
  3 14  1  0  0  0  0
  3  2  1  0  0  0  0
  4  3  1  0  0  0  0
  4  5  1  0  0  0  0
  5  6  1  1  0  0  0
  5 10  1  0  0  0  0
  6  7  2  0  0  0  0
  7  8  1  0  0  0  0
  8 18  1  0  0  0  0
  9  8  2  0  0  0  0
  9 19  1  0  0  0  0
 10  9  1  1  0  0  0
 13  3  1  0  0  0  0
 15  4  1  0  0  0  0
 16  6  1  0  0  0  0
 17  7  1  0  0  0  0
 20 26  1  0  0  0  0
 21 20  1  0  0  0  0
 21 27  1  0  0  0  0
 22 21  2  0  0  0  0
 23 24  2  0  0  0  0
 23 22  1  0  0  0  0
 24 25  1  0  0  0  0
 25 20  2  0  0  0  0
 28 22  1  0  0  0  0
 29 28  1  0  0  0  0
 30 29  2  0  0  0  0
 31 30  1  0  0  0  0
 32 34  1  0  0  0  0
 32 30  1  0  0  0  0
 33 32  1  0  0  0  0
 34 36  2  0  0  0  0
 35 34  1  0  0  0  0
 36 29  1  0  0  0  0
M  END
>  <minimizedAffinity>
-5.75296259

$$$$
