
 OpenBabel03242511433D

 33 35  0  0  0  0  0  0  0  0999 V2000
   36.3420   30.3120   39.1940 C   0  0  0  0  0  0  0  0  0  0  0  0
   35.9690   29.5650   38.0690 C   0  0  0  0  0  0  0  0  0  0  0  0
   36.4530   29.7750   36.8070 C   0  0  0  0  0  0  0  0  0  0  0  0
   37.3540   30.7790   36.6270 C   0  0  0  0  0  0  0  0  0  0  0  0
   37.7120   31.5010   37.7330 C   0  0  0  0  0  0  0  0  0  0  0  0
   37.2430   31.3120   39.0510 C   0  0  0  0  0  0  0  0  0  0  0  0
   35.2420   28.8020   38.3720 H   0  0  0  0  0  0  0  0  0  0  0  0
   36.0200   29.0780   36.1240 H   0  0  0  0  0  0  0  0  0  0  0  0
   37.6720   30.8700   35.5990 H   0  0  0  0  0  0  0  0  0  0  0  0
   38.4400   32.2520   37.3660 H   0  0  0  0  0  0  0  0  0  0  0  0
   38.0060   32.2770   39.8470 C   0  0  0  0  0  0  0  0  0  0  0  0
   39.1010   32.0530   40.6570 C   0  0  0  0  0  0  0  0  0  0  0  0
   39.5300   31.0500   40.8480 H   0  0  0  0  0  0  0  0  0  0  0  0
   39.5880   33.1720   41.1870 N   0  0  0  0  0  0  0  0  0  0  0  0
   40.4100   33.1900   41.8190 H   0  0  0  0  0  0  0  0  0  0  0  0
   38.8330   34.1600   40.7440 C   0  0  0  0  0  0  0  0  0  0  0  0
   38.9190   35.2160   40.9570 H   0  0  0  0  0  0  0  0  0  0  0  0
   37.9280   33.6050   39.9710 N   0  0  0  0  0  0  0  0  0  0  0  0
   35.8120   30.2020   40.5560 C   0  0  0  0  0  0  0  0  0  0  0  0
   36.5340   30.6830   41.2160 H   0  0  0  0  0  0  0  0  0  0  0  0
   34.8670   30.7850   40.6000 H   0  0  0  0  0  0  0  0  0  0  0  0
   35.4840   28.7900   40.9210 C   0  0  0  0  0  0  0  0  0  0  0  0
   35.5840   28.1490   40.0380 H   0  0  0  0  0  0  0  0  0  0  0  0
   34.5720   28.7020   41.5350 H   0  0  0  0  0  0  0  0  0  0  0  0
   38.0140   26.6740   42.6020 C   0  0  0  0  0  0  0  0  0  0  0  0
   38.7150   27.6300   43.3700 C   0  0  0  0  0  0  0  0  0  0  0  0
   38.3050   28.9440   43.2820 C   0  0  0  0  0  0  0  0  0  0  0  0
   37.2800   29.2480   42.4870 N   0  0  0  0  0  0  0  0  0  0  0  0
   36.6340   28.2900   41.7650 C   0  0  0  0  0  0  0  0  0  0  0  0
   36.9870   27.0300   41.8150 N   0  0  0  0  0  0  0  0  0  0  0  0
   38.3980   25.6710   42.7290 H   0  0  0  0  0  0  0  0  0  0  0  0
   39.5430   27.3550   44.0070 H   0  0  0  0  0  0  0  0  0  0  0  0
   38.8480   29.6680   43.8740 H   0  0  0  0  0  0  0  0  0  0  0  0
  1 19  1  0  0  0  0
  2  7  1  0  0  0  0
  2  1  2  0  0  0  0
  3  2  1  0  0  0  0
  4  3  2  0  0  0  0
  4  5  1  0  0  0  0
  5  6  2  0  0  0  0
  6  1  1  0  0  0  0
  6 11  1  0  0  0  0
  8  3  1  0  0  0  0
  9  4  1  0  0  0  0
 10  5  1  0  0  0  0
 11 18  1  0  0  0  0
 11 12  2  0  0  0  0
 12 13  1  0  0  0  0
 12 14  1  0  0  0  0
 14 15  1  0  0  0  0
 16 17  1  0  0  0  0
 16 14  1  0  0  0  0
 18 16  2  0  0  0  0
 19 21  1  0  0  0  0
 19 22  1  0  0  0  0
 19 20  1  0  0  0  0
 22 24  1  0  0  0  0
 22 29  1  0  0  0  0
 23 22  1  0  0  0  0
 25 31  1  0  0  0  0
 25 26  1  0  0  0  0
 26 32  1  0  0  0  0
 27 26  2  0  0  0  0
 27 33  1  0  0  0  0
 28 27  1  0  0  0  0
 29 30  1  0  0  0  0
 29 28  2  0  0  0  0
 30 25  2  0  0  0  0
M  END
>  <minimizedAffinity>
-5.48842525

$$$$

 OpenBabel03242511433D

 33 35  0  0  0  0  0  0  0  0999 V2000
   36.7520   26.3590   39.7050 C   0  0  0  0  0  0  0  0  0  0  0  0
   36.3830   25.0700   39.2970 C   0  0  0  0  0  0  0  0  0  0  0  0
   36.3480   23.9790   40.1210 C   0  0  0  0  0  0  0  0  0  0  0  0
   36.6980   24.1520   41.4240 C   0  0  0  0  0  0  0  0  0  0  0  0
   37.0550   25.4160   41.8120 C   0  0  0  0  0  0  0  0  0  0  0  0
   37.0970   26.5670   40.9970 C   0  0  0  0  0  0  0  0  0  0  0  0
   36.1320   25.0910   38.2300 H   0  0  0  0  0  0  0  0  0  0  0  0
   36.0340   23.1160   39.5780 H   0  0  0  0  0  0  0  0  0  0  0  0
   36.6440   23.2350   41.9930 H   0  0  0  0  0  0  0  0  0  0  0  0
   37.2980   25.3310   42.8900 H   0  0  0  0  0  0  0  0  0  0  0  0
   37.4480   27.6490   41.9200 C   0  0  0  0  0  0  0  0  0  0  0  0
   36.7560   28.0970   43.0270 C   0  0  0  0  0  0  0  0  0  0  0  0
   35.7720   27.6960   43.3410 H   0  0  0  0  0  0  0  0  0  0  0  0
   37.3960   29.0640   43.6790 N   0  0  0  0  0  0  0  0  0  0  0  0
   37.0220   29.5160   44.5350 H   0  0  0  0  0  0  0  0  0  0  0  0
   38.5220   29.2800   43.0240 C   0  0  0  0  0  0  0  0  0  0  0  0
   39.3020   29.9920   43.2520 H   0  0  0  0  0  0  0  0  0  0  0  0
   38.5180   28.4430   42.0120 N   0  0  0  0  0  0  0  0  0  0  0  0
   36.8910   27.5550   38.8690 C   0  0  0  0  0  0  0  0  0  0  0  0
   37.8460   28.0120   39.1290 H   0  0  0  0  0  0  0  0  0  0  0  0
   36.9480   27.2240   37.8100 H   0  0  0  0  0  0  0  0  0  0  0  0
   35.7140   28.4690   38.9900 C   0  0  0  0  0  0  0  0  0  0  0  0
   35.2640   28.3580   39.9830 H   0  0  0  0  0  0  0  0  0  0  0  0
   35.0550   28.4440   38.1070 H   0  0  0  0  0  0  0  0  0  0  0  0
   37.2940   31.7330   38.2490 C   0  0  0  0  0  0  0  0  0  0  0  0
   37.2270   32.3710   39.5080 C   0  0  0  0  0  0  0  0  0  0  0  0
   36.6490   31.6720   40.5470 C   0  0  0  0  0  0  0  0  0  0  0  0
   36.1850   30.4440   40.3190 N   0  0  0  0  0  0  0  0  0  0  0  0
   36.2720   29.8710   39.0860 C   0  0  0  0  0  0  0  0  0  0  0  0
   36.8120   30.4940   38.0690 N   0  0  0  0  0  0  0  0  0  0  0  0
   37.7610   32.3490   37.4920 H   0  0  0  0  0  0  0  0  0  0  0  0
   37.6120   33.3680   39.6640 H   0  0  0  0  0  0  0  0  0  0  0  0
   36.6020   32.1690   41.5060 H   0  0  0  0  0  0  0  0  0  0  0  0
  1  6  1  0  0  0  0
  2  1  2  0  0  0  0
  2  3  1  0  0  0  0
  3  4  2  0  0  0  0
  4  5  1  0  0  0  0
  4  9  1  0  0  0  0
  5 10  1  0  0  0  0
  6  5  2  0  0  0  0
  6 11  1  0  0  0  0
  7  2  1  0  0  0  0
  8  3  1  0  0  0  0
 11 18  1  0  0  0  0
 11 12  2  0  0  0  0
 12 13  1  0  0  0  0
 12 14  1  0  0  0  0
 14 15  1  0  0  0  0
 16 17  1  0  0  0  0
 16 14  1  0  0  0  0
 18 16  2  0  0  0  0
 19 22  1  0  0  0  0
 19 20  1  0  0  0  0
 19  1  1  0  0  0  0
 21 19  1  0  0  0  0
 22 29  1  0  0  0  0
 22 23  1  0  0  0  0
 24 22  1  0  0  0  0
 25 26  1  0  0  0  0
 26 32  1  0  0  0  0
 26 27  2  0  0  0  0
 27 33  1  0  0  0  0
 28 27  1  0  0  0  0
 29 28  2  0  0  0  0
 30 25  2  0  0  0  0
 30 29  1  0  0  0  0
 31 25  1  0  0  0  0
M  END
>  <minimizedAffinity>
-5.27314234

$$$$

 OpenBabel03242511433D

 33 35  0  0  0  0  0  0  0  0999 V2000
   36.0920   29.9650   38.9950 C   0  0  0  0  0  0  0  0  0  0  0  0
   35.7860   29.1310   37.9100 C   0  0  0  0  0  0  0  0  0  0  0  0
   36.2720   29.3030   36.6430 C   0  0  0  0  0  0  0  0  0  0  0  0
   37.1050   30.3530   36.4160 C   0  0  0  0  0  0  0  0  0  0  0  0
   37.3990   31.1590   37.4820 C   0  0  0  0  0  0  0  0  0  0  0  0
   36.9250   31.0140   38.8040 C   0  0  0  0  0  0  0  0  0  0  0  0
   35.1080   28.3390   38.2490 H   0  0  0  0  0  0  0  0  0  0  0  0
   35.8960   28.5400   35.9980 H   0  0  0  0  0  0  0  0  0  0  0  0
   37.4310   30.4080   35.3870 H   0  0  0  0  0  0  0  0  0  0  0  0
   38.0790   31.9360   37.0800 H   0  0  0  0  0  0  0  0  0  0  0  0
   37.6110   32.0720   39.5510 C   0  0  0  0  0  0  0  0  0  0  0  0
   37.3140   33.4190   39.6060 C   0  0  0  0  0  0  0  0  0  0  0  0
   36.5010   33.8940   39.0230 H   0  0  0  0  0  0  0  0  0  0  0  0
   38.1090   34.0880   40.4360 N   0  0  0  0  0  0  0  0  0  0  0  0
   38.0270   35.1090   40.6020 H   0  0  0  0  0  0  0  0  0  0  0  0
   38.9480   33.2070   40.9490 C   0  0  0  0  0  0  0  0  0  0  0  0
   39.7420   33.3750   41.6620 H   0  0  0  0  0  0  0  0  0  0  0  0
   38.6300   32.0510   40.4130 N   0  0  0  0  0  0  0  0  0  0  0  0
   35.5510   29.8950   40.3550 C   0  0  0  0  0  0  0  0  0  0  0  0
   36.0030   30.7140   40.9160 H   0  0  0  0  0  0  0  0  0  0  0  0
   34.4580   30.0840   40.2960 H   0  0  0  0  0  0  0  0  0  0  0  0
   35.7400   28.5450   40.9700 C   0  0  0  0  0  0  0  0  0  0  0  0
   35.9420   27.8090   40.1840 H   0  0  0  0  0  0  0  0  0  0  0  0
   34.9800   28.3070   41.7320 H   0  0  0  0  0  0  0  0  0  0  0  0
   38.6430   29.5050   43.0550 C   0  0  0  0  0  0  0  0  0  0  0  0
   39.5370   28.4400   42.8020 C   0  0  0  0  0  0  0  0  0  0  0  0
   39.1170   27.4470   41.9420 C   0  0  0  0  0  0  0  0  0  0  0  0
   37.9040   27.5340   41.3980 N   0  0  0  0  0  0  0  0  0  0  0  0
   37.0770   28.5810   41.6740 C   0  0  0  0  0  0  0  0  0  0  0  0
   37.4300   29.5480   42.4830 N   0  0  0  0  0  0  0  0  0  0  0  0
   39.0500   30.2380   43.7380 H   0  0  0  0  0  0  0  0  0  0  0  0
   40.5160   28.3950   43.2570 H   0  0  0  0  0  0  0  0  0  0  0  0
   39.8080   26.6360   41.7540 H   0  0  0  0  0  0  0  0  0  0  0  0
  1 19  1  0  0  0  0
  2  7  1  0  0  0  0
  2  1  2  0  0  0  0
  3  2  1  0  0  0  0
  4  3  2  0  0  0  0
  4  5  1  0  0  0  0
  5  6  2  0  0  0  0
  6  1  1  0  0  0  0
  6 11  1  0  0  0  0
  8  3  1  0  0  0  0
  9  4  1  0  0  0  0
 10  5  1  0  0  0  0
 11 12  2  0  0  0  0
 11 18  1  0  0  0  0
 12 14  1  0  0  0  0
 13 12  1  0  0  0  0
 14 15  1  0  0  0  0
 14 16  1  0  0  0  0
 16 17  1  0  0  0  0
 18 16  2  0  0  0  0
 19 20  1  0  0  0  0
 19 22  1  0  0  0  0
 21 19  1  0  0  0  0
 22 29  1  0  0  0  0
 22 24  1  0  0  0  0
 23 22  1  0  0  0  0
 25 31  1  0  0  0  0
 26 25  1  0  0  0  0
 26 32  1  0  0  0  0
 27 26  2  0  0  0  0
 28 29  2  0  0  0  0
 28 27  1  0  0  0  0
 29 30  1  0  0  0  0
 30 25  2  0  0  0  0
 33 27  1  0  0  0  0
M  END
>  <minimizedAffinity>
-5.24120378

$$$$

 OpenBabel03242511433D

 33 35  0  0  0  0  0  0  0  0999 V2000
   38.6530   26.6720   42.5500 C   0  0  0  0  0  0  0  0  0  0  0  0
   37.3140   26.2920   42.3880 C   0  0  0  0  0  0  0  0  0  0  0  0
   36.8980   25.0120   42.1420 C   0  0  0  0  0  0  0  0  0  0  0  0
   37.8460   24.0410   42.0430 C   0  0  0  0  0  0  0  0  0  0  0  0
   39.1500   24.4240   42.2050 C   0  0  0  0  0  0  0  0  0  0  0  0
   39.6190   25.7290   42.4660 C   0  0  0  0  0  0  0  0  0  0  0  0
   36.6760   27.1770   42.4930 H   0  0  0  0  0  0  0  0  0  0  0  0
   35.8340   24.9780   42.0610 H   0  0  0  0  0  0  0  0  0  0  0  0
   37.4220   23.0680   41.8430 H   0  0  0  0  0  0  0  0  0  0  0  0
   39.7420   23.4940   42.0860 H   0  0  0  0  0  0  0  0  0  0  0  0
   41.0650   25.5640   42.6380 C   0  0  0  0  0  0  0  0  0  0  0  0
   42.0110   25.2150   41.6940 C   0  0  0  0  0  0  0  0  0  0  0  0
   41.7680   24.9590   40.6450 H   0  0  0  0  0  0  0  0  0  0  0  0
   43.2500   25.2180   42.1810 N   0  0  0  0  0  0  0  0  0  0  0  0
   44.0840   24.9810   41.6120 H   0  0  0  0  0  0  0  0  0  0  0  0
   43.1560   25.5670   43.4510 C   0  0  0  0  0  0  0  0  0  0  0  0
   43.9500   25.6780   44.1750 H   0  0  0  0  0  0  0  0  0  0  0  0
   41.8770   25.7600   43.6800 N   0  0  0  0  0  0  0  0  0  0  0  0
   39.1800   28.0270   42.7350 C   0  0  0  0  0  0  0  0  0  0  0  0
   40.0800   27.9340   43.3450 H   0  0  0  0  0  0  0  0  0  0  0  0
   39.4810   28.4120   41.7380 H   0  0  0  0  0  0  0  0  0  0  0  0
   38.1530   28.9630   43.2850 C   0  0  0  0  0  0  0  0  0  0  0  0
   38.6110   29.6050   44.0450 H   0  0  0  0  0  0  0  0  0  0  0  0
   37.1970   28.4660   43.5220 H   0  0  0  0  0  0  0  0  0  0  0  0
   38.4260   31.6790   40.7860 C   0  0  0  0  0  0  0  0  0  0  0  0
   37.1180   31.7070   40.2550 C   0  0  0  0  0  0  0  0  0  0  0  0
   36.2050   30.8060   40.7620 C   0  0  0  0  0  0  0  0  0  0  0  0
   36.5940   29.9610   41.7160 N   0  0  0  0  0  0  0  0  0  0  0  0
   37.8690   29.9720   42.1960 C   0  0  0  0  0  0  0  0  0  0  0  0
   38.7700   30.8070   41.7470 N   0  0  0  0  0  0  0  0  0  0  0  0
   39.0760   32.4160   40.3340 H   0  0  0  0  0  0  0  0  0  0  0  0
   36.8290   32.4040   39.4810 H   0  0  0  0  0  0  0  0  0  0  0  0
   35.2050   30.8350   40.3500 H   0  0  0  0  0  0  0  0  0  0  0  0
  1 19  1  0  0  0  0
  2  7  1  0  0  0  0
  2  1  2  0  0  0  0
  3  2  1  0  0  0  0
  4  3  2  0  0  0  0
  4  5  1  0  0  0  0
  5  6  2  0  0  0  0
  6  1  1  0  0  0  0
  6 11  1  0  0  0  0
  8  3  1  0  0  0  0
  9  4  1  0  0  0  0
 10  5  1  0  0  0  0
 11 18  1  0  0  0  0
 12 14  1  0  0  0  0
 12 11  2  0  0  0  0
 13 12  1  0  0  0  0
 14 16  1  0  0  0  0
 15 14  1  0  0  0  0
 16 18  2  0  0  0  0
 16 17  1  0  0  0  0
 19 22  1  0  0  0  0
 19 20  1  0  0  0  0
 21 19  1  0  0  0  0
 22 24  1  0  0  0  0
 22 23  1  0  0  0  0
 25 30  1  0  0  0  0
 26 27  1  0  0  0  0
 26 25  2  0  0  0  0
 27 28  2  0  0  0  0
 28 29  1  0  0  0  0
 29 22  1  0  0  0  0
 30 29  2  0  0  0  0
 31 25  1  0  0  0  0
 32 26  1  0  0  0  0
 33 27  1  0  0  0  0
M  END
>  <minimizedAffinity>
-5.18597364

$$$$

 OpenBabel03242511433D

 33 35  0  0  0  0  0  0  0  0999 V2000
   36.2870   30.1010   39.4380 C   0  0  0  0  0  0  0  0  0  0  0  0
   36.4520   31.0970   40.4110 C   0  0  0  0  0  0  0  0  0  0  0  0
   37.1390   32.2630   40.2140 C   0  0  0  0  0  0  0  0  0  0  0  0
   37.7040   32.4730   38.9950 C   0  0  0  0  0  0  0  0  0  0  0  0
   37.5360   31.4960   38.0520 C   0  0  0  0  0  0  0  0  0  0  0  0
   36.8300   30.2840   38.2120 C   0  0  0  0  0  0  0  0  0  0  0  0
   35.9450   30.7830   41.3310 H   0  0  0  0  0  0  0  0  0  0  0  0
   37.1200   32.8560   41.1020 H   0  0  0  0  0  0  0  0  0  0  0  0
   38.2280   33.4170   38.9390 H   0  0  0  0  0  0  0  0  0  0  0  0
   38.0680   31.8650   37.1530 H   0  0  0  0  0  0  0  0  0  0  0  0
   36.8820   29.6600   36.8870 C   0  0  0  0  0  0  0  0  0  0  0  0
   37.8610   28.8460   36.3540 C   0  0  0  0  0  0  0  0  0  0  0  0
   38.8000   28.5880   36.8810 H   0  0  0  0  0  0  0  0  0  0  0  0
   37.5560   28.4010   35.1380 N   0  0  0  0  0  0  0  0  0  0  0  0
   38.1770   27.7760   34.5900 H   0  0  0  0  0  0  0  0  0  0  0  0
   36.3750   28.9070   34.8350 C   0  0  0  0  0  0  0  0  0  0  0  0
   35.8000   28.7700   33.9310 H   0  0  0  0  0  0  0  0  0  0  0  0
   36.0150   29.6300   35.8710 N   0  0  0  0  0  0  0  0  0  0  0  0
   35.6390   28.7970   39.5950 C   0  0  0  0  0  0  0  0  0  0  0  0
   34.9630   28.8810   40.4470 H   0  0  0  0  0  0  0  0  0  0  0  0
   35.0240   28.6120   38.6890 H   0  0  0  0  0  0  0  0  0  0  0  0
   36.6300   27.6820   39.6990 C   0  0  0  0  0  0  0  0  0  0  0  0
   37.5430   27.9510   39.1570 H   0  0  0  0  0  0  0  0  0  0  0  0
   36.1840   26.6890   39.5220 H   0  0  0  0  0  0  0  0  0  0  0  0
   36.8710   27.7460   43.3920 C   0  0  0  0  0  0  0  0  0  0  0  0
   38.2710   27.7290   43.5840 C   0  0  0  0  0  0  0  0  0  0  0  0
   39.0670   27.6940   42.4580 C   0  0  0  0  0  0  0  0  0  0  0  0
   38.4890   27.6750   41.2580 N   0  0  0  0  0  0  0  0  0  0  0  0
   37.1330   27.6920   41.1250 C   0  0  0  0  0  0  0  0  0  0  0  0
   36.3360   27.7260   42.1620 N   0  0  0  0  0  0  0  0  0  0  0  0
   36.3220   27.7740   44.3240 H   0  0  0  0  0  0  0  0  0  0  0  0
   38.7130   27.7450   44.5690 H   0  0  0  0  0  0  0  0  0  0  0  0
   40.1380   27.6810   42.6150 H   0  0  0  0  0  0  0  0  0  0  0  0
  1 19  1  0  0  0  0
  1  2  1  0  0  0  0
  2  7  1  0  0  0  0
  3  2  2  0  0  0  0
  3  8  1  0  0  0  0
  4  3  1  0  0  0  0
  5  6  1  0  0  0  0
  5  4  2  0  0  0  0
  6  1  2  0  0  0  0
  9  4  1  0  0  0  0
 10  5  1  0  0  0  0
 11  6  1  0  0  0  0
 12 13  1  0  0  0  0
 12 11  2  0  0  0  0
 14 12  1  0  0  0  0
 15 14  1  0  0  0  0
 16 14  1  0  0  0  0
 16 18  2  0  0  0  0
 17 16  1  0  0  0  0
 18 11  1  0  0  0  0
 19 22  1  0  0  0  0
 19 20  1  0  0  0  0
 21 19  1  0  0  0  0
 22 29  1  0  0  0  0
 23 22  1  0  0  0  0
 24 22  1  0  0  0  0
 25 26  1  0  0  0  0
 25 31  1  0  0  0  0
 26 32  1  0  0  0  0
 27 33  1  0  0  0  0
 27 26  2  0  0  0  0
 28 27  1  0  0  0  0
 29 28  2  0  0  0  0
 29 30  1  0  0  0  0
 30 25  2  0  0  0  0
M  END
>  <minimizedAffinity>
-5.1554904

$$$$

 OpenBabel03242511433D

 33 35  0  0  0  0  0  0  0  0999 V2000
   36.4740   27.9240   41.6210 C   0  0  0  0  0  0  0  0  0  0  0  0
   35.7700   28.9710   41.0110 C   0  0  0  0  0  0  0  0  0  0  0  0
   35.4270   29.0040   39.6870 C   0  0  0  0  0  0  0  0  0  0  0  0
   35.7950   27.9520   38.9070 C   0  0  0  0  0  0  0  0  0  0  0  0
   36.4790   26.9340   39.5140 C   0  0  0  0  0  0  0  0  0  0  0  0
   36.8460   26.8590   40.8740 C   0  0  0  0  0  0  0  0  0  0  0  0
   35.5490   29.7380   41.7630 H   0  0  0  0  0  0  0  0  0  0  0  0
   34.8950   29.9030   39.4660 H   0  0  0  0  0  0  0  0  0  0  0  0
   35.4840   28.0710   37.8790 H   0  0  0  0  0  0  0  0  0  0  0  0
   36.6760   26.1960   38.7100 H   0  0  0  0  0  0  0  0  0  0  0  0
   37.4690   25.5390   41.0070 C   0  0  0  0  0  0  0  0  0  0  0  0
   36.9760   24.4120   41.6350 C   0  0  0  0  0  0  0  0  0  0  0  0
   36.0140   24.3840   42.1830 H   0  0  0  0  0  0  0  0  0  0  0  0
   37.7810   23.3600   41.5120 N   0  0  0  0  0  0  0  0  0  0  0  0
   37.5670   22.4300   41.9200 H   0  0  0  0  0  0  0  0  0  0  0  0
   38.8210   23.7600   40.8040 C   0  0  0  0  0  0  0  0  0  0  0  0
   39.6840   23.1870   40.4990 H   0  0  0  0  0  0  0  0  0  0  0  0
   38.6060   25.0260   40.5300 N   0  0  0  0  0  0  0  0  0  0  0  0
   36.9460   27.8530   43.0070 C   0  0  0  0  0  0  0  0  0  0  0  0
   36.0710   27.9790   43.6450 H   0  0  0  0  0  0  0  0  0  0  0  0
   37.3490   26.8320   43.1760 H   0  0  0  0  0  0  0  0  0  0  0  0
   38.0540   28.8210   43.2760 C   0  0  0  0  0  0  0  0  0  0  0  0
   38.0090   29.1480   44.3210 H   0  0  0  0  0  0  0  0  0  0  0  0
   38.1610   29.5850   42.4880 H   0  0  0  0  0  0  0  0  0  0  0  0
   41.5780   27.7260   42.9950 C   0  0  0  0  0  0  0  0  0  0  0  0
   41.4790   26.3630   43.3540 C   0  0  0  0  0  0  0  0  0  0  0  0
   40.2290   25.8780   43.6790 C   0  0  0  0  0  0  0  0  0  0  0  0
   39.1860   26.7060   43.6400 N   0  0  0  0  0  0  0  0  0  0  0  0
   39.3320   28.0140   43.2870 C   0  0  0  0  0  0  0  0  0  0  0  0
   40.4970   28.5200   42.9710 N   0  0  0  0  0  0  0  0  0  0  0  0
   42.5900   28.0230   42.7560 H   0  0  0  0  0  0  0  0  0  0  0  0
   42.3430   25.7140   43.3770 H   0  0  0  0  0  0  0  0  0  0  0  0
   40.1640   24.8340   43.9530 H   0  0  0  0  0  0  0  0  0  0  0  0
  1 19  1  0  0  0  0
  2  1  1  0  0  0  0
  2  7  1  0  0  0  0
  3  2  2  0  0  0  0
  4  5  2  0  0  0  0
  4  3  1  0  0  0  0
  5  6  1  0  0  0  0
  6 11  1  0  0  0  0
  6  1  2  0  0  0  0
  8  3  1  0  0  0  0
  9  4  1  0  0  0  0
 10  5  1  0  0  0  0
 11 12  2  0  0  0  0
 12 13  1  0  0  0  0
 14 12  1  0  0  0  0
 14 15  1  0  0  0  0
 16 14  1  0  0  0  0
 17 16  1  0  0  0  0
 18 16  2  0  0  0  0
 18 11  1  0  0  0  0
 19 21  1  0  0  0  0
 19 22  1  0  0  0  0
 19 20  1  0  0  0  0
 22 29  1  0  0  0  0
 22 23  1  0  0  0  0
 24 22  1  0  0  0  0
 25 26  1  0  0  0  0
 26 32  1  0  0  0  0
 26 27  2  0  0  0  0
 27 33  1  0  0  0  0
 28 27  1  0  0  0  0
 29 28  2  0  0  0  0
 30 25  2  0  0  0  0
 30 29  1  0  0  0  0
 31 25  1  0  0  0  0
M  END
>  <minimizedAffinity>
-5.08339071

$$$$

 OpenBabel03242511433D

 33 35  0  0  0  0  0  0  0  0999 V2000
   36.9840   28.0190   40.9580 C   0  0  0  0  0  0  0  0  0  0  0  0
   36.9220   26.9420   41.8530 C   0  0  0  0  0  0  0  0  0  0  0  0
   37.2150   27.0280   43.1860 C   0  0  0  0  0  0  0  0  0  0  0  0
   37.5960   28.2370   43.6790 C   0  0  0  0  0  0  0  0  0  0  0  0
   37.6510   29.2820   42.7970 C   0  0  0  0  0  0  0  0  0  0  0  0
   37.3510   29.2370   41.4190 C   0  0  0  0  0  0  0  0  0  0  0  0
   36.6040   26.0440   41.3090 H   0  0  0  0  0  0  0  0  0  0  0  0
   37.0900   26.0760   43.6530 H   0  0  0  0  0  0  0  0  0  0  0  0
   37.8100   28.2030   44.7380 H   0  0  0  0  0  0  0  0  0  0  0  0
   37.9780   30.1530   43.3990 H   0  0  0  0  0  0  0  0  0  0  0  0
   37.4810   30.6280   40.9770 C   0  0  0  0  0  0  0  0  0  0  0  0
   36.4830   31.5320   40.6690 C   0  0  0  0  0  0  0  0  0  0  0  0
   35.4040   31.2840   40.6790 H   0  0  0  0  0  0  0  0  0  0  0  0
   36.9570   32.7360   40.3600 N   0  0  0  0  0  0  0  0  0  0  0  0
   36.3490   33.5370   40.1050 H   0  0  0  0  0  0  0  0  0  0  0  0
   38.2720   32.6610   40.4530 C   0  0  0  0  0  0  0  0  0  0  0  0
   39.0010   33.4380   40.2770 H   0  0  0  0  0  0  0  0  0  0  0  0
   38.5390   31.4270   40.8130 N   0  0  0  0  0  0  0  0  0  0  0  0
   36.7650   27.9900   39.5090 C   0  0  0  0  0  0  0  0  0  0  0  0
   37.5620   28.5820   39.0580 H   0  0  0  0  0  0  0  0  0  0  0  0
   36.8860   26.9390   39.1690 H   0  0  0  0  0  0  0  0  0  0  0  0
   35.3840   28.4250   39.1380 C   0  0  0  0  0  0  0  0  0  0  0  0
   35.1640   29.3900   39.6080 H   0  0  0  0  0  0  0  0  0  0  0  0
   34.6390   27.6160   39.2210 H   0  0  0  0  0  0  0  0  0  0  0  0
   34.6330   28.9230   35.5470 C   0  0  0  0  0  0  0  0  0  0  0  0
   35.7780   29.6280   35.1150 C   0  0  0  0  0  0  0  0  0  0  0  0
   36.7490   29.9060   36.0560 C   0  0  0  0  0  0  0  0  0  0  0  0
   36.5640   29.5030   37.3120 N   0  0  0  0  0  0  0  0  0  0  0  0
   35.4410   28.8260   37.6810 C   0  0  0  0  0  0  0  0  0  0  0  0
   34.4930   28.5390   36.8260 N   0  0  0  0  0  0  0  0  0  0  0  0
   33.9250   28.7470   34.7500 H   0  0  0  0  0  0  0  0  0  0  0  0
   35.9030   29.9430   34.0890 H   0  0  0  0  0  0  0  0  0  0  0  0
   37.6220   30.4460   35.7150 H   0  0  0  0  0  0  0  0  0  0  0  0
  1  6  2  0  0  0  0
  1  2  1  0  0  0  0
  2  3  2  0  0  0  0
  3  8  1  0  0  0  0
  3  4  1  0  0  0  0
  4  9  1  0  0  0  0
  5 10  1  0  0  0  0
  5  4  2  0  0  0  0
  6  5  1  0  0  0  0
  7  2  1  0  0  0  0
 11  6  1  0  0  0  0
 12 13  1  0  0  0  0
 12 11  2  0  0  0  0
 14 16  1  0  0  0  0
 14 12  1  0  0  0  0
 15 14  1  0  0  0  0
 16 18  2  0  0  0  0
 17 16  1  0  0  0  0
 18 11  1  0  0  0  0
 19  1  1  0  0  0  0
 20 19  1  0  0  0  0
 21 19  1  0  0  0  0
 22 24  1  0  0  0  0
 22 19  1  0  0  0  0
 22 23  1  0  0  0  0
 25 30  1  0  0  0  0
 26 25  2  0  0  0  0
 26 27  1  0  0  0  0
 27 28  2  0  0  0  0
 28 29  1  0  0  0  0
 29 22  1  0  0  0  0
 30 29  2  0  0  0  0
 31 25  1  0  0  0  0
 32 26  1  0  0  0  0
 33 27  1  0  0  0  0
M  END
>  <minimizedAffinity>
-5.04864311

$$$$

 OpenBabel03242511433D

 33 35  0  0  0  0  0  0  0  0999 V2000
   37.2190   29.4520   38.6780 C   0  0  0  0  0  0  0  0  0  0  0  0
   36.4610   29.5720   37.5060 C   0  0  0  0  0  0  0  0  0  0  0  0
   35.1250   29.2920   37.4170 C   0  0  0  0  0  0  0  0  0  0  0  0
   34.4860   28.8650   38.5390 C   0  0  0  0  0  0  0  0  0  0  0  0
   35.2360   28.7530   39.6790 C   0  0  0  0  0  0  0  0  0  0  0  0
   36.6110   29.0370   39.8140 C   0  0  0  0  0  0  0  0  0  0  0  0
   37.1110   29.9220   36.6950 H   0  0  0  0  0  0  0  0  0  0  0  0
   34.7770   29.4640   36.4220 H   0  0  0  0  0  0  0  0  0  0  0  0
   33.4380   28.6660   38.3690 H   0  0  0  0  0  0  0  0  0  0  0  0
   34.5300   28.3960   40.4560 H   0  0  0  0  0  0  0  0  0  0  0  0
   36.8810   28.8410   41.2410 C   0  0  0  0  0  0  0  0  0  0  0  0
   37.3030   29.7670   42.1750 C   0  0  0  0  0  0  0  0  0  0  0  0
   37.5440   30.8200   41.9310 H   0  0  0  0  0  0  0  0  0  0  0  0
   37.3900   29.2590   43.4010 N   0  0  0  0  0  0  0  0  0  0  0  0
   37.6890   29.8140   44.2250 H   0  0  0  0  0  0  0  0  0  0  0  0
   37.0300   27.9920   43.3120 C   0  0  0  0  0  0  0  0  0  0  0  0
   36.9750   27.2550   44.1000 H   0  0  0  0  0  0  0  0  0  0  0  0
   36.7430   27.7860   42.0480 N   0  0  0  0  0  0  0  0  0  0  0  0
   38.6620   29.6530   38.8340 C   0  0  0  0  0  0  0  0  0  0  0  0
   38.8560   29.7300   39.9040 H   0  0  0  0  0  0  0  0  0  0  0  0
   39.1740   28.7420   38.4580 H   0  0  0  0  0  0  0  0  0  0  0  0
   39.1600   30.8100   38.0290 C   0  0  0  0  0  0  0  0  0  0  0  0
   38.3980   31.1070   37.3000 H   0  0  0  0  0  0  0  0  0  0  0  0
   40.1990   30.6800   37.6810 H   0  0  0  0  0  0  0  0  0  0  0  0
   40.1110   33.4900   40.3990 C   0  0  0  0  0  0  0  0  0  0  0  0
   38.8810   34.1610   40.5740 C   0  0  0  0  0  0  0  0  0  0  0  0
   37.7880   33.6800   39.8820 C   0  0  0  0  0  0  0  0  0  0  0  0
   37.9420   32.6210   39.0900 N   0  0  0  0  0  0  0  0  0  0  0  0
   39.1500   32.0070   38.9520 C   0  0  0  0  0  0  0  0  0  0  0  0
   40.2150   32.4260   39.5880 N   0  0  0  0  0  0  0  0  0  0  0  0
   40.9130   33.9290   40.9760 H   0  0  0  0  0  0  0  0  0  0  0  0
   38.7850   35.0190   41.2240 H   0  0  0  0  0  0  0  0  0  0  0  0
   36.8500   34.2010   40.0230 H   0  0  0  0  0  0  0  0  0  0  0  0
  1 19  1  0  0  0  0
  1  6  1  0  0  0  0
  2  1  2  0  0  0  0
  3  2  1  0  0  0  0
  3  4  2  0  0  0  0
  4  5  1  0  0  0  0
  5  6  2  0  0  0  0
  5 10  1  0  0  0  0
  6 11  1  0  0  0  0
  7  2  1  0  0  0  0
  8  3  1  0  0  0  0
  9  4  1  0  0  0  0
 11 18  1  0  0  0  0
 11 12  2  0  0  0  0
 12 14  1  0  0  0  0
 13 12  1  0  0  0  0
 14 15  1  0  0  0  0
 16 14  1  0  0  0  0
 16 17  1  0  0  0  0
 18 16  2  0  0  0  0
 19 20  1  0  0  0  0
 21 19  1  0  0  0  0
 22 19  1  0  0  0  0
 22 29  1  0  0  0  0
 23 22  1  0  0  0  0
 24 22  1  0  0  0  0
 25 26  1  0  0  0  0
 25 31  1  0  0  0  0
 26 32  1  0  0  0  0
 27 33  1  0  0  0  0
 27 26  2  0  0  0  0
 28 27  1  0  0  0  0
 29 28  2  0  0  0  0
 29 30  1  0  0  0  0
 30 25  2  0  0  0  0
M  END
>  <minimizedAffinity>
-4.97802305

$$$$

 OpenBabel03242511433D

 33 35  0  0  0  0  0  0  0  0999 V2000
   33.9940   29.0280   37.9350 C   0  0  0  0  0  0  0  0  0  0  0  0
   33.9130   29.0960   39.3330 C   0  0  0  0  0  0  0  0  0  0  0  0
   34.9910   29.2360   40.1630 C   0  0  0  0  0  0  0  0  0  0  0  0
   36.2260   29.3100   39.5990 C   0  0  0  0  0  0  0  0  0  0  0  0
   36.2930   29.2450   38.2330 C   0  0  0  0  0  0  0  0  0  0  0  0
   35.2080   29.1080   37.3420 C   0  0  0  0  0  0  0  0  0  0  0  0
   32.8610   29.0210   39.6330 H   0  0  0  0  0  0  0  0  0  0  0  0
   34.6710   29.2640   41.1810 H   0  0  0  0  0  0  0  0  0  0  0  0
   37.0110   29.4140   40.3340 H   0  0  0  0  0  0  0  0  0  0  0  0
   37.3720   29.3230   37.9920 H   0  0  0  0  0  0  0  0  0  0  0  0
   35.8210   29.1840   36.0130 C   0  0  0  0  0  0  0  0  0  0  0  0
   37.0210   28.6520   35.5860 C   0  0  0  0  0  0  0  0  0  0  0  0
   37.7250   28.1110   36.2480 H   0  0  0  0  0  0  0  0  0  0  0  0
   37.2440   28.8590   34.2900 N   0  0  0  0  0  0  0  0  0  0  0  0
   38.0960   28.5260   33.8010 H   0  0  0  0  0  0  0  0  0  0  0  0
   36.2040   29.5290   33.8300 C   0  0  0  0  0  0  0  0  0  0  0  0
   36.0240   29.8770   32.8230 H   0  0  0  0  0  0  0  0  0  0  0  0
   35.4010   29.6990   34.8550 N   0  0  0  0  0  0  0  0  0  0  0  0
   32.9000   28.7990   36.9870 C   0  0  0  0  0  0  0  0  0  0  0  0
   33.2610   29.1140   36.0080 H   0  0  0  0  0  0  0  0  0  0  0  0
   32.7110   27.7050   36.9460 H   0  0  0  0  0  0  0  0  0  0  0  0
   31.6300   29.4580   37.4210 C   0  0  0  0  0  0  0  0  0  0  0  0
   31.8240   30.0920   38.2930 H   0  0  0  0  0  0  0  0  0  0  0  0
   30.7730   28.7640   37.4530 H   0  0  0  0  0  0  0  0  0  0  0  0
   30.3320   32.4240   35.6270 C   0  0  0  0  0  0  0  0  0  0  0  0
   30.8660   32.2270   34.3340 C   0  0  0  0  0  0  0  0  0  0  0  0
   31.6420   31.1050   34.1280 C   0  0  0  0  0  0  0  0  0  0  0  0
   31.8510   30.2700   35.1450 N   0  0  0  0  0  0  0  0  0  0  0  0
   31.3140   30.5030   36.3750 C   0  0  0  0  0  0  0  0  0  0  0  0
   30.5720   31.5530   36.6190 N   0  0  0  0  0  0  0  0  0  0  0  0
   29.7370   33.3240   35.7010 H   0  0  0  0  0  0  0  0  0  0  0  0
   30.6800   32.9210   33.5270 H   0  0  0  0  0  0  0  0  0  0  0  0
   32.0460   30.9640   33.1350 H   0  0  0  0  0  0  0  0  0  0  0  0
  1  2  1  0  0  0  0
  2  7  1  0  0  0  0
  2  3  2  0  0  0  0
  3  8  1  0  0  0  0
  4  3  1  0  0  0  0
  4  9  1  0  0  0  0
  5  4  2  0  0  0  0
  6  1  2  0  0  0  0
  6  5  1  0  0  0  0
 10  5  1  0  0  0  0
 11  6  1  0  0  0  0
 12 11  2  0  0  0  0
 12 13  1  0  0  0  0
 14 12  1  0  0  0  0
 15 14  1  0  0  0  0
 16 14  1  0  0  0  0
 16 18  2  0  0  0  0
 17 16  1  0  0  0  0
 18 11  1  0  0  0  0
 19 22  1  0  0  0  0
 19  1  1  0  0  0  0
 20 19  1  0  0  0  0
 21 19  1  0  0  0  0
 22 24  1  0  0  0  0
 22 23  1  0  0  0  0
 25 31  1  0  0  0  0
 25 30  1  0  0  0  0
 26 25  2  0  0  0  0
 27 26  1  0  0  0  0
 27 28  2  0  0  0  0
 28 29  1  0  0  0  0
 29 30  2  0  0  0  0
 29 22  1  0  0  0  0
 32 26  1  0  0  0  0
 33 27  1  0  0  0  0
M  END
>  <minimizedAffinity>
-4.87644911

$$$$
