
 OpenBabel03242516323D

 30 32  0  0  1  0  0  0  0  0999 V2000
   37.2260   28.8410   42.0340 C   0  0  2  0  0  0  0  0  0  0  0  0
   38.1890   27.8020   41.4470 C   0  0  1  0  0  0  0  0  0  0  0  0
   39.0350   27.6540   42.5310 O   0  0  0  0  0  0  0  0  0  0  0  0
   39.4010   28.9550   42.8590 C   0  0  0  0  0  0  0  0  0  0  0  0
   38.3120   29.8850   42.3550 C   0  0  1  0  0  0  0  0  0  0  0  0
   36.5030   29.2000   41.3020 H   0  0  0  0  0  0  0  0  0  0  0  0
   38.6250   28.2690   40.5600 H   0  0  0  0  0  0  0  0  0  0  0  0
   39.3680   29.0170   43.9790 H   0  0  0  0  0  0  0  0  0  0  0  0
   40.4020   29.2450   42.5390 H   0  0  0  0  0  0  0  0  0  0  0  0
   37.9810   30.6050   43.1150 H   0  0  0  0  0  0  0  0  0  0  0  0
   36.3890   24.9860   39.6420 C   0  0  0  0  0  0  0  0  0  0  0  0
   36.9760   26.2470   39.7980 C   0  0  0  0  0  0  0  0  0  0  0  0
   37.5130   26.5720   41.0360 C   0  0  0  0  0  0  0  0  0  0  0  0
   37.4390   25.6390   42.0390 N   0  0  0  0  0  0  0  0  0  0  0  0
   36.8660   24.4290   41.8570 C   0  0  0  0  0  0  0  0  0  0  0  0
   36.3430   24.1060   40.6620 N   0  0  0  0  0  0  0  0  0  0  0  0
   35.9920   24.7910   38.6630 H   0  0  0  0  0  0  0  0  0  0  0  0
   37.0680   27.0170   39.0660 H   0  0  0  0  0  0  0  0  0  0  0  0
   36.8260   23.7170   42.6740 H   0  0  0  0  0  0  0  0  0  0  0  0
   36.7410   28.4250   43.2400 O   0  0  0  0  0  0  0  0  0  0  0  0
   36.1480   29.1490   43.5810 H   0  0  0  0  0  0  0  0  0  0  0  0
   38.6540   30.4720   41.1310 O   0  0  0  0  0  0  0  0  0  0  0  0
   38.1170   31.6740   40.6830 C   0  0  0  0  0  0  0  0  0  0  0  0
   36.9620   32.1760   40.1140 C   0  0  0  0  0  0  0  0  0  0  0  0
   36.1920   31.4390   39.9410 H   0  0  0  0  0  0  0  0  0  0  0  0
   37.1230   33.5000   39.9270 N   0  0  0  0  0  0  0  0  0  0  0  0
   36.3380   34.0450   39.5020 H   0  0  0  0  0  0  0  0  0  0  0  0
   38.3480   33.8430   40.3630 C   0  0  0  0  0  0  0  0  0  0  0  0
   38.6780   34.8700   40.3010 H   0  0  0  0  0  0  0  0  0  0  0  0
   38.9690   32.7280   40.8290 N   0  0  0  0  0  0  0  0  0  0  0  0
  1  6  1  6  0  0  0
  1  5  1  0  0  0  0
  1 20  1  0  0  0  0
  2  7  1  6  0  0  0
  2  1  1  0  0  0  0
  2  3  1  0  0  0  0
  3  4  1  0  0  0  0
  4  8  1  0  0  0  0
  5  4  1  0  0  0  0
  5 10  1  1  0  0  0
  9  4  1  0  0  0  0
 11 12  2  0  0  0  0
 11 16  1  0  0  0  0
 12 13  1  0  0  0  0
 13  2  1  0  0  0  0
 13 14  2  0  0  0  0
 15 14  1  0  0  0  0
 15 19  1  0  0  0  0
 16 15  2  0  0  0  0
 17 11  1  0  0  0  0
 18 12  1  0  0  0  0
 20 21  1  0  0  0  0
 22  5  1  0  0  0  0
 23 30  1  0  0  0  0
 23 22  1  0  0  0  0
 24 23  2  0  0  0  0
 25 24  1  0  0  0  0
 26 24  1  0  0  0  0
 26 28  1  0  0  0  0
 27 26  1  0  0  0  0
 28 30  2  0  0  0  0
 29 28  1  0  0  0  0
M  END
>  <minimizedAffinity>
-5.03636646

$$$$

 OpenBabel03242516323D

 30 32  0  0  1  0  0  0  0  0999 V2000
   36.5440   29.6020   41.6090 C   0  0  2  0  0  0  0  0  0  0  0  0
   37.6880   29.8720   40.6250 C   0  0  1  0  0  0  0  0  0  0  0  0
   37.1250   29.3310   39.4840 O   0  0  0  0  0  0  0  0  0  0  0  0
   36.7190   28.0590   39.8730 C   0  0  0  0  0  0  0  0  0  0  0  0
   36.5040   28.0800   41.3760 C   0  0  1  0  0  0  0  0  0  0  0  0
   36.8050   29.8620   42.6350 H   0  0  0  0  0  0  0  0  0  0  0  0
   38.5560   29.3430   41.0270 H   0  0  0  0  0  0  0  0  0  0  0  0
   35.7060   27.9000   39.4170 H   0  0  0  0  0  0  0  0  0  0  0  0
   37.3650   27.2480   39.5390 H   0  0  0  0  0  0  0  0  0  0  0  0
   35.5430   27.6410   41.6750 H   0  0  0  0  0  0  0  0  0  0  0  0
   39.2150   33.3460   40.8000 C   0  0  0  0  0  0  0  0  0  0  0  0
   39.1020   31.9750   41.0590 C   0  0  0  0  0  0  0  0  0  0  0  0
   38.0210   31.2930   40.5200 C   0  0  0  0  0  0  0  0  0  0  0  0
   37.1210   32.0000   39.7630 N   0  0  0  0  0  0  0  0  0  0  0  0
   37.2580   33.3240   39.5320 C   0  0  0  0  0  0  0  0  0  0  0  0
   38.3010   33.9930   40.0500 N   0  0  0  0  0  0  0  0  0  0  0  0
   40.0720   33.8190   41.2440 H   0  0  0  0  0  0  0  0  0  0  0  0
   39.7600   31.3650   41.6340 H   0  0  0  0  0  0  0  0  0  0  0  0
   36.5250   33.8500   38.9280 H   0  0  0  0  0  0  0  0  0  0  0  0
   35.3630   30.0840   41.1230 O   0  0  0  0  0  0  0  0  0  0  0  0
   34.6590   29.8550   41.7900 H   0  0  0  0  0  0  0  0  0  0  0  0
   37.6040   27.5570   42.0660 O   0  0  0  0  0  0  0  0  0  0  0  0
   37.8490   26.1930   42.1950 C   0  0  0  0  0  0  0  0  0  0  0  0
   37.1980   24.9800   42.0780 C   0  0  0  0  0  0  0  0  0  0  0  0
   36.1580   25.0570   41.7960 H   0  0  0  0  0  0  0  0  0  0  0  0
   38.0760   24.0000   42.3590 N   0  0  0  0  0  0  0  0  0  0  0  0
   37.7490   23.0060   42.3180 H   0  0  0  0  0  0  0  0  0  0  0  0
   39.2620   24.5640   42.6490 C   0  0  0  0  0  0  0  0  0  0  0  0
   40.1100   23.9440   42.9050 H   0  0  0  0  0  0  0  0  0  0  0  0
   39.1340   25.9130   42.5520 N   0  0  0  0  0  0  0  0  0  0  0  0
  1  6  1  1  0  0  0
  2  7  1  1  0  0  0
  2  1  1  0  0  0  0
  3  4  1  0  0  0  0
  3  2  1  0  0  0  0
  4  5  1  0  0  0  0
  5  1  1  0  0  0  0
  5 10  1  1  0  0  0
  5 22  1  0  0  0  0
  8  4  1  0  0  0  0
  9  4  1  0  0  0  0
 11 12  1  0  0  0  0
 11 17  1  0  0  0  0
 12 18  1  0  0  0  0
 13  2  1  0  0  0  0
 13 12  2  0  0  0  0
 14 13  1  0  0  0  0
 15 14  2  0  0  0  0
 15 16  1  0  0  0  0
 16 11  2  0  0  0  0
 19 15  1  0  0  0  0
 20  1  1  0  0  0  0
 20 21  1  0  0  0  0
 22 23  1  0  0  0  0
 23 30  1  0  0  0  0
 24 23  2  0  0  0  0
 24 26  1  0  0  0  0
 25 24  1  0  0  0  0
 26 28  1  0  0  0  0
 27 26  1  0  0  0  0
 28 29  1  0  0  0  0
 30 28  2  0  0  0  0
M  END
>  <minimizedAffinity>
-4.9620285

$$$$

 OpenBabel03242516323D

 30 32  0  0  1  0  0  0  0  0999 V2000
   38.5640   28.8190   42.6480 C   0  0  2  0  0  0  0  0  0  0  0  0
   37.8350   29.0490   41.3190 C   0  0  1  0  0  0  0  0  0  0  0  0
   36.5800   28.5900   41.6770 O   0  0  0  0  0  0  0  0  0  0  0  0
   36.8200   27.3340   42.2260 C   0  0  0  0  0  0  0  0  0  0  0  0
   38.2520   27.3130   42.7290 C   0  0  1  0  0  0  0  0  0  0  0  0
   39.6320   29.0220   42.5770 H   0  0  0  0  0  0  0  0  0  0  0  0
   38.3700   28.4480   40.5780 H   0  0  0  0  0  0  0  0  0  0  0  0
   36.1690   27.2610   43.1370 H   0  0  0  0  0  0  0  0  0  0  0  0
   36.5770   26.4940   41.5750 H   0  0  0  0  0  0  0  0  0  0  0  0
   38.3370   26.9290   43.7540 H   0  0  0  0  0  0  0  0  0  0  0  0
   37.2060   32.4840   39.8250 C   0  0  0  0  0  0  0  0  0  0  0  0
   36.9680   31.1290   40.0820 C   0  0  0  0  0  0  0  0  0  0  0  0
   37.8660   30.4470   40.8890 C   0  0  0  0  0  0  0  0  0  0  0  0
   38.9400   31.1380   41.3920 N   0  0  0  0  0  0  0  0  0  0  0  0
   39.1420   32.4470   41.1250 C   0  0  0  0  0  0  0  0  0  0  0  0
   38.2780   33.1150   40.3450 N   0  0  0  0  0  0  0  0  0  0  0  0
   36.4770   32.9590   39.1940 H   0  0  0  0  0  0  0  0  0  0  0  0
   36.1590   30.5320   39.7270 H   0  0  0  0  0  0  0  0  0  0  0  0
   40.0030   32.9600   41.5410 H   0  0  0  0  0  0  0  0  0  0  0  0
   37.8840   29.3970   43.6800 O   0  0  0  0  0  0  0  0  0  0  0  0
   38.3890   29.1910   44.5130 H   0  0  0  0  0  0  0  0  0  0  0  0
   39.1150   26.6910   41.8190 O   0  0  0  0  0  0  0  0  0  0  0  0
   40.2510   25.9860   42.2010 C   0  0  0  0  0  0  0  0  0  0  0  0
   40.6660   25.0700   43.1480 C   0  0  0  0  0  0  0  0  0  0  0  0
   39.8970   24.7680   43.8440 H   0  0  0  0  0  0  0  0  0  0  0  0
   41.9660   24.7960   42.9320 N   0  0  0  0  0  0  0  0  0  0  0  0
   42.4470   24.1140   43.5640 H   0  0  0  0  0  0  0  0  0  0  0  0
   42.3790   25.5160   41.8740 C   0  0  0  0  0  0  0  0  0  0  0  0
   43.4020   25.4400   41.5320 H   0  0  0  0  0  0  0  0  0  0  0  0
   41.3330   26.2520   41.4160 N   0  0  0  0  0  0  0  0  0  0  0  0
  1  6  1  6  0  0  0
  1  5  1  0  0  0  0
  1 20  1  0  0  0  0
  2  7  1  6  0  0  0
  2  3  1  0  0  0  0
  2  1  1  0  0  0  0
  3  4  1  0  0  0  0
  4  5  1  0  0  0  0
  4  8  1  0  0  0  0
  5 10  1  1  0  0  0
  9  4  1  0  0  0  0
 11 12  2  0  0  0  0
 11 16  1  0  0  0  0
 12 13  1  0  0  0  0
 13  2  1  0  0  0  0
 13 14  2  0  0  0  0
 15 14  1  0  0  0  0
 15 19  1  0  0  0  0
 16 15  2  0  0  0  0
 17 11  1  0  0  0  0
 18 12  1  0  0  0  0
 20 21  1  0  0  0  0
 22 23  1  0  0  0  0
 22  5  1  0  0  0  0
 23 24  2  0  0  0  0
 24 25  1  0  0  0  0
 26 24  1  0  0  0  0
 26 27  1  0  0  0  0
 28 26  1  0  0  0  0
 29 28  1  0  0  0  0
 30 28  2  0  0  0  0
 30 23  1  0  0  0  0
M  END
>  <minimizedAffinity>
-4.74115658

$$$$

 OpenBabel03242516323D

 30 32  0  0  1  0  0  0  0  0999 V2000
   40.5840   31.7920   37.3940 C   0  0  2  0  0  0  0  0  0  0  0  0
   40.6980   32.0790   38.8960 C   0  0  1  0  0  0  0  0  0  0  0  0
   40.7540   33.4600   38.8500 O   0  0  0  0  0  0  0  0  0  0  0  0
   41.7600   33.7300   37.9280 C   0  0  0  0  0  0  0  0  0  0  0  0
   41.8770   32.5320   37.0040 C   0  0  1  0  0  0  0  0  0  0  0  0
   40.6260   30.7260   37.1690 H   0  0  0  0  0  0  0  0  0  0  0  0
   41.6100   31.5740   39.2270 H   0  0  0  0  0  0  0  0  0  0  0  0
   41.3850   34.5750   37.2940 H   0  0  0  0  0  0  0  0  0  0  0  0
   42.7110   34.0360   38.3630 H   0  0  0  0  0  0  0  0  0  0  0  0
   41.8880   32.8110   35.9420 H   0  0  0  0  0  0  0  0  0  0  0  0
   38.2990   30.0760   41.0560 C   0  0  0  0  0  0  0  0  0  0  0  0
   39.4930   30.3630   40.3830 C   0  0  0  0  0  0  0  0  0  0  0  0
   39.5710   31.5450   39.6620 C   0  0  0  0  0  0  0  0  0  0  0  0
   38.4740   32.3690   39.6470 N   0  0  0  0  0  0  0  0  0  0  0  0
   37.3360   32.0640   40.3070 C   0  0  0  0  0  0  0  0  0  0  0  0
   37.2500   30.9210   41.0080 N   0  0  0  0  0  0  0  0  0  0  0  0
   38.2980   29.1470   41.5970 H   0  0  0  0  0  0  0  0  0  0  0  0
   40.3800   29.7720   40.3510 H   0  0  0  0  0  0  0  0  0  0  0  0
   36.4880   32.7410   40.2730 H   0  0  0  0  0  0  0  0  0  0  0  0
   39.5630   32.5090   36.8410 O   0  0  0  0  0  0  0  0  0  0  0  0
   39.5580   32.3020   35.8660 H   0  0  0  0  0  0  0  0  0  0  0  0
   42.9300   31.6870   37.3760 O   0  0  0  0  0  0  0  0  0  0  0  0
   43.7760   31.0680   36.4610 C   0  0  0  0  0  0  0  0  0  0  0  0
   43.7530   30.0910   35.4850 C   0  0  0  0  0  0  0  0  0  0  0  0
   42.7910   29.6220   35.3440 H   0  0  0  0  0  0  0  0  0  0  0  0
   44.9880   29.9910   34.9590 N   0  0  0  0  0  0  0  0  0  0  0  0
   45.1530   29.2910   34.1980 H   0  0  0  0  0  0  0  0  0  0  0  0
   45.7860   30.8790   35.5780 C   0  0  0  0  0  0  0  0  0  0  0  0
   46.8270   30.9590   35.3000 H   0  0  0  0  0  0  0  0  0  0  0  0
   45.0510   31.5470   36.5050 N   0  0  0  0  0  0  0  0  0  0  0  0
  1  6  1  6  0  0  0
  1  2  1  0  0  0  0
  2  7  1  1  0  0  0
  2 13  1  0  0  0  0
  3  2  1  0  0  0  0
  4  9  1  0  0  0  0
  4  3  1  0  0  0  0
  5 10  1  6  0  0  0
  5 22  1  0  0  0  0
  5  1  1  0  0  0  0
  5  4  1  0  0  0  0
  8  4  1  0  0  0  0
 11 17  1  0  0  0  0
 12 11  2  0  0  0  0
 13 12  1  0  0  0  0
 14 13  2  0  0  0  0
 14 15  1  0  0  0  0
 15 16  2  0  0  0  0
 16 11  1  0  0  0  0
 18 12  1  0  0  0  0
 19 15  1  0  0  0  0
 20  1  1  0  0  0  0
 21 20  1  0  0  0  0
 23 30  1  0  0  0  0
 23 22  1  0  0  0  0
 24 23  2  0  0  0  0
 25 24  1  0  0  0  0
 26 24  1  0  0  0  0
 26 28  1  0  0  0  0
 27 26  1  0  0  0  0
 28 30  2  0  0  0  0
 29 28  1  0  0  0  0
M  END
>  <minimizedAffinity>
-4.63744926

$$$$

 OpenBabel03242516323D

 30 32  0  0  1  0  0  0  0  0999 V2000
   39.0970   33.4920   40.1140 C   0  0  2  0  0  0  0  0  0  0  0  0
   39.3400   31.9800   40.0350 C   0  0  1  0  0  0  0  0  0  0  0  0
   40.3030   31.8630   41.0200 O   0  0  0  0  0  0  0  0  0  0  0  0
   41.2530   32.8220   40.6840 C   0  0  0  0  0  0  0  0  0  0  0  0
   40.5620   33.8910   39.8570 C   0  0  1  0  0  0  0  0  0  0  0  0
   38.4230   33.8470   39.3340 H   0  0  0  0  0  0  0  0  0  0  0  0
   39.6760   31.7860   39.0120 H   0  0  0  0  0  0  0  0  0  0  0  0
   41.5510   33.3180   41.6450 H   0  0  0  0  0  0  0  0  0  0  0  0
   42.1570   32.4290   40.2180 H   0  0  0  0  0  0  0  0  0  0  0  0
   40.7800   34.9080   40.2080 H   0  0  0  0  0  0  0  0  0  0  0  0
   35.9900   30.1940   39.9030 C   0  0  0  0  0  0  0  0  0  0  0  0
   37.0310   31.0120   39.4490 C   0  0  0  0  0  0  0  0  0  0  0  0
   38.1280   31.1980   40.2780 C   0  0  0  0  0  0  0  0  0  0  0  0
   38.1310   30.5690   41.4980 N   0  0  0  0  0  0  0  0  0  0  0  0
   37.1090   29.7860   41.9070 C   0  0  0  0  0  0  0  0  0  0  0  0
   36.0440   29.6010   41.1110 N   0  0  0  0  0  0  0  0  0  0  0  0
   35.1680   30.0890   39.2170 H   0  0  0  0  0  0  0  0  0  0  0  0
   37.0950   31.5280   38.5180 H   0  0  0  0  0  0  0  0  0  0  0  0
   37.1480   29.3050   42.8790 H   0  0  0  0  0  0  0  0  0  0  0  0
   38.8260   33.8720   41.3960 O   0  0  0  0  0  0  0  0  0  0  0  0
   38.7060   34.8610   41.3870 H   0  0  0  0  0  0  0  0  0  0  0  0
   40.7760   33.7070   38.4860 O   0  0  0  0  0  0  0  0  0  0  0  0
   42.0220   33.4210   37.9370 C   0  0  0  0  0  0  0  0  0  0  0  0
   43.2520   34.0120   37.7250 C   0  0  0  0  0  0  0  0  0  0  0  0
   43.3270   35.0290   38.0830 H   0  0  0  0  0  0  0  0  0  0  0  0
   44.0490   33.1220   37.1060 N   0  0  0  0  0  0  0  0  0  0  0  0
   45.0280   33.4050   36.8670 H   0  0  0  0  0  0  0  0  0  0  0  0
   43.3530   31.9860   36.9240 C   0  0  0  0  0  0  0  0  0  0  0  0
   43.8160   31.1370   36.4400 H   0  0  0  0  0  0  0  0  0  0  0  0
   42.1040   32.1580   37.4300 N   0  0  0  0  0  0  0  0  0  0  0  0
  1  6  1  6  0  0  0
  1 20  1  0  0  0  0
  2  7  1  6  0  0  0
  2  1  1  0  0  0  0
  2 13  1  0  0  0  0
  2  3  1  0  0  0  0
  4  3  1  0  0  0  0
  4  8  1  0  0  0  0
  5  1  1  0  0  0  0
  5 10  1  1  0  0  0
  5  4  1  0  0  0  0
  9  4  1  0  0  0  0
 11 16  1  0  0  0  0
 12 11  2  0  0  0  0
 12 13  1  0  0  0  0
 13 14  2  0  0  0  0
 14 15  1  0  0  0  0
 15 19  1  0  0  0  0
 16 15  2  0  0  0  0
 17 11  1  0  0  0  0
 18 12  1  0  0  0  0
 21 20  1  0  0  0  0
 22  5  1  0  0  0  0
 23 22  1  0  0  0  0
 24 23  2  0  0  0  0
 24 25  1  0  0  0  0
 26 24  1  0  0  0  0
 27 26  1  0  0  0  0
 28 26  1  0  0  0  0
 28 30  2  0  0  0  0
 29 28  1  0  0  0  0
 30 23  1  0  0  0  0
M  END
>  <minimizedAffinity>
-4.58538723

$$$$

 OpenBabel03242516323D

 30 32  0  0  1  0  0  0  0  0999 V2000
   39.0800   29.1920   42.6180 C   0  0  2  0  0  0  0  0  0  0  0  0
   38.5370   28.8150   41.2340 C   0  0  1  0  0  0  0  0  0  0  0  0
   37.5680   27.9070   41.6220 O   0  0  0  0  0  0  0  0  0  0  0  0
   38.2420   27.0250   42.4600 C   0  0  0  0  0  0  0  0  0  0  0  0
   39.4450   27.7530   43.0310 C   0  0  1  0  0  0  0  0  0  0  0  0
   39.9510   29.8450   42.5600 H   0  0  0  0  0  0  0  0  0  0  0  0
   39.3870   28.4010   40.6840 H   0  0  0  0  0  0  0  0  0  0  0  0
   37.5570   26.8300   43.3260 H   0  0  0  0  0  0  0  0  0  0  0  0
   38.4910   26.0640   42.0100 H   0  0  0  0  0  0  0  0  0  0  0  0
   39.5300   27.6460   44.1200 H   0  0  0  0  0  0  0  0  0  0  0  0
   36.8790   31.2290   38.8160 C   0  0  0  0  0  0  0  0  0  0  0  0
   37.2710   29.9870   39.3290 C   0  0  0  0  0  0  0  0  0  0  0  0
   38.0240   29.9670   40.4940 C   0  0  0  0  0  0  0  0  0  0  0  0
   38.3440   31.1660   41.0790 N   0  0  0  0  0  0  0  0  0  0  0  0
   37.9500   32.3490   40.5580 C   0  0  0  0  0  0  0  0  0  0  0  0
   37.2200   32.3780   39.4300 N   0  0  0  0  0  0  0  0  0  0  0  0
   36.2980   31.1800   37.9120 H   0  0  0  0  0  0  0  0  0  0  0  0
   37.0590   29.0210   38.9290 H   0  0  0  0  0  0  0  0  0  0  0  0
   38.2220   33.2780   41.0500 H   0  0  0  0  0  0  0  0  0  0  0  0
   38.0670   29.5720   43.4490 O   0  0  0  0  0  0  0  0  0  0  0  0
   38.4770   29.7770   44.3330 H   0  0  0  0  0  0  0  0  0  0  0  0
   40.6200   27.4410   42.3380 O   0  0  0  0  0  0  0  0  0  0  0  0
   41.5410   26.4950   42.7790 C   0  0  0  0  0  0  0  0  0  0  0  0
   41.6830   25.1270   42.9040 C   0  0  0  0  0  0  0  0  0  0  0  0
   40.8310   24.5570   42.5620 H   0  0  0  0  0  0  0  0  0  0  0  0
   42.8920   24.8740   43.4390 N   0  0  0  0  0  0  0  0  0  0  0  0
   43.1680   23.8780   43.6040 H   0  0  0  0  0  0  0  0  0  0  0  0
   43.5140   26.0470   43.6530 C   0  0  0  0  0  0  0  0  0  0  0  0
   44.5060   26.0640   44.0810 H   0  0  0  0  0  0  0  0  0  0  0  0
   42.6920   27.0520   43.2520 N   0  0  0  0  0  0  0  0  0  0  0  0
  1  6  1  6  0  0  0
  1  5  1  0  0  0  0
  1 20  1  0  0  0  0
  2  7  1  6  0  0  0
  2  3  1  0  0  0  0
  2  1  1  0  0  0  0
  3  4  1  0  0  0  0
  4  5  1  0  0  0  0
  4  8  1  0  0  0  0
  5 10  1  1  0  0  0
  9  4  1  0  0  0  0
 11 12  2  0  0  0  0
 11 16  1  0  0  0  0
 12 13  1  0  0  0  0
 13 14  2  0  0  0  0
 13  2  1  0  0  0  0
 15 19  1  0  0  0  0
 15 14  1  0  0  0  0
 16 15  2  0  0  0  0
 17 11  1  0  0  0  0
 18 12  1  0  0  0  0
 20 21  1  0  0  0  0
 22 23  1  0  0  0  0
 22  5  1  0  0  0  0
 23 24  2  0  0  0  0
 23 30  1  0  0  0  0
 24 26  1  0  0  0  0
 25 24  1  0  0  0  0
 26 27  1  0  0  0  0
 26 28  1  0  0  0  0
 28 29  1  0  0  0  0
 30 28  2  0  0  0  0
M  END
>  <minimizedAffinity>
-4.58350134

$$$$

 OpenBabel03242516323D

 30 32  0  0  1  0  0  0  0  0999 V2000
   37.6770   28.4410   39.9880 C   0  0  2  0  0  0  0  0  0  0  0  0
   37.4200   28.1730   41.4750 C   0  0  1  0  0  0  0  0  0  0  0  0
   36.0380   28.2290   41.4700 O   0  0  0  0  0  0  0  0  0  0  0  0
   35.7470   29.4320   40.8350 C   0  0  0  0  0  0  0  0  0  0  0  0
   36.9270   29.7850   39.9480 C   0  0  1  0  0  0  0  0  0  0  0  0
   38.7370   28.5450   39.7600 H   0  0  0  0  0  0  0  0  0  0  0  0
   37.9280   28.9770   42.0140 H   0  0  0  0  0  0  0  0  0  0  0  0
   34.8900   29.2220   40.1430 H   0  0  0  0  0  0  0  0  0  0  0  0
   35.4470   30.2420   41.5000 H   0  0  0  0  0  0  0  0  0  0  0  0
   36.6260   30.0600   38.9280 H   0  0  0  0  0  0  0  0  0  0  0  0
   39.4570   25.3260   42.9490 C   0  0  0  0  0  0  0  0  0  0  0  0
   39.1520   26.6490   42.6090 C   0  0  0  0  0  0  0  0  0  0  0  0
   37.9710   26.8940   41.9240 C   0  0  0  0  0  0  0  0  0  0  0  0
   37.1660   25.8260   41.6180 N   0  0  0  0  0  0  0  0  0  0  0  0
   37.4890   24.5600   41.9600 C   0  0  0  0  0  0  0  0  0  0  0  0
   38.6310   24.3130   42.6230 N   0  0  0  0  0  0  0  0  0  0  0  0
   40.3840   25.1990   43.4780 H   0  0  0  0  0  0  0  0  0  0  0  0
   39.7270   27.5230   42.8150 H   0  0  0  0  0  0  0  0  0  0  0  0
   36.8270   23.7400   41.7000 H   0  0  0  0  0  0  0  0  0  0  0  0
   36.9520   27.5860   39.2090 O   0  0  0  0  0  0  0  0  0  0  0  0
   37.1390   27.8260   38.2610 H   0  0  0  0  0  0  0  0  0  0  0  0
   37.7760   30.7170   40.5560 O   0  0  0  0  0  0  0  0  0  0  0  0
   37.8220   32.0600   40.1960 C   0  0  0  0  0  0  0  0  0  0  0  0
   37.2370   32.9440   39.3100 C   0  0  0  0  0  0  0  0  0  0  0  0
   36.4940   32.5020   38.6630 H   0  0  0  0  0  0  0  0  0  0  0  0
   37.7780   34.1610   39.5080 N   0  0  0  0  0  0  0  0  0  0  0  0
   37.4470   34.9590   38.9170 H   0  0  0  0  0  0  0  0  0  0  0  0
   38.6870   34.0660   40.4950 C   0  0  0  0  0  0  0  0  0  0  0  0
   39.2390   34.9390   40.8100 H   0  0  0  0  0  0  0  0  0  0  0  0
   38.7230   32.7770   40.9250 N   0  0  0  0  0  0  0  0  0  0  0  0
  1  6  1  6  0  0  0
  1  2  1  0  0  0  0
  2 13  1  0  0  0  0
  2  7  1  1  0  0  0
  3  2  1  0  0  0  0
  4  3  1  0  0  0  0
  4  9  1  0  0  0  0
  5 10  1  6  0  0  0
  5  1  1  0  0  0  0
  5 22  1  0  0  0  0
  5  4  1  0  0  0  0
  8  4  1  0  0  0  0
 11 17  1  0  0  0  0
 12 18  1  0  0  0  0
 12 11  2  0  0  0  0
 13 12  1  0  0  0  0
 14 13  2  0  0  0  0
 14 15  1  0  0  0  0
 15 16  2  0  0  0  0
 16 11  1  0  0  0  0
 19 15  1  0  0  0  0
 20  1  1  0  0  0  0
 21 20  1  0  0  0  0
 23 22  1  0  0  0  0
 23 30  1  0  0  0  0
 24 26  1  0  0  0  0
 24 23  2  0  0  0  0
 25 24  1  0  0  0  0
 26 28  1  0  0  0  0
 27 26  1  0  0  0  0
 28 29  1  0  0  0  0
 28 30  2  0  0  0  0
M  END
>  <minimizedAffinity>
-4.57462883

$$$$

 OpenBabel03242516323D

 30 32  0  0  1  0  0  0  0  0999 V2000
   35.8720   29.6020   40.3790 C   0  0  2  0  0  0  0  0  0  0  0  0
   36.7540   28.3640   40.1810 C   0  0  1  0  0  0  0  0  0  0  0  0
   36.7580   27.8900   41.4800 O   0  0  0  0  0  0  0  0  0  0  0  0
   37.1250   28.9920   42.2450 C   0  0  0  0  0  0  0  0  0  0  0  0
   36.7560   30.2420   41.4660 C   0  0  1  0  0  0  0  0  0  0  0  0
   35.8050   30.2150   39.4800 H   0  0  0  0  0  0  0  0  0  0  0  0
   37.7110   28.7380   39.8060 H   0  0  0  0  0  0  0  0  0  0  0  0
   36.4600   28.9820   43.1480 H   0  0  0  0  0  0  0  0  0  0  0  0
   38.1580   28.9860   42.5920 H   0  0  0  0  0  0  0  0  0  0  0  0
   36.2030   30.9730   42.0700 H   0  0  0  0  0  0  0  0  0  0  0  0
   35.8160   25.3880   38.0150 C   0  0  0  0  0  0  0  0  0  0  0  0
   36.4910   26.0830   39.0260 C   0  0  0  0  0  0  0  0  0  0  0  0
   36.2060   27.4290   39.1980 C   0  0  0  0  0  0  0  0  0  0  0  0
   35.2790   28.0070   38.3670 N   0  0  0  0  0  0  0  0  0  0  0  0
   34.6440   27.3080   37.4010 C   0  0  0  0  0  0  0  0  0  0  0  0
   34.9130   26.0040   37.2270 N   0  0  0  0  0  0  0  0  0  0  0  0
   36.0780   24.3490   37.9310 H   0  0  0  0  0  0  0  0  0  0  0  0
   37.2190   25.7000   39.7040 H   0  0  0  0  0  0  0  0  0  0  0  0
   33.9160   27.7990   36.7640 H   0  0  0  0  0  0  0  0  0  0  0  0
   34.7030   29.2700   40.9980 O   0  0  0  0  0  0  0  0  0  0  0  0
   34.1880   30.1140   41.1230 H   0  0  0  0  0  0  0  0  0  0  0  0
   37.8600   30.7820   40.7950 O   0  0  0  0  0  0  0  0  0  0  0  0
   37.9200   32.1020   40.3590 C   0  0  0  0  0  0  0  0  0  0  0  0
   37.3300   32.9450   39.4370 C   0  0  0  0  0  0  0  0  0  0  0  0
   36.5660   32.4800   38.8320 H   0  0  0  0  0  0  0  0  0  0  0  0
   37.8940   34.1610   39.5540 N   0  0  0  0  0  0  0  0  0  0  0  0
   37.5630   34.9300   38.9260 H   0  0  0  0  0  0  0  0  0  0  0  0
   38.8230   34.1050   40.5250 C   0  0  0  0  0  0  0  0  0  0  0  0
   39.3960   34.9850   40.7790 H   0  0  0  0  0  0  0  0  0  0  0  0
   38.8490   32.8430   41.0270 N   0  0  0  0  0  0  0  0  0  0  0  0
  1  6  1  6  0  0  0
  1 20  1  0  0  0  0
  1  5  1  0  0  0  0
  2  7  1  6  0  0  0
  2  1  1  0  0  0  0
  2  3  1  0  0  0  0
  3  4  1  0  0  0  0
  4  9  1  0  0  0  0
  4  8  1  0  0  0  0
  5 10  1  1  0  0  0
  5  4  1  0  0  0  0
 11 12  1  0  0  0  0
 12 13  2  0  0  0  0
 12 18  1  0  0  0  0
 13  2  1  0  0  0  0
 14 13  1  0  0  0  0
 15 14  2  0  0  0  0
 16 15  1  0  0  0  0
 16 11  2  0  0  0  0
 17 11  1  0  0  0  0
 19 15  1  0  0  0  0
 20 21  1  0  0  0  0
 22  5  1  0  0  0  0
 23 22  1  0  0  0  0
 23 30  1  0  0  0  0
 24 26  1  0  0  0  0
 24 23  2  0  0  0  0
 25 24  1  0  0  0  0
 26 28  1  0  0  0  0
 27 26  1  0  0  0  0
 28 29  1  0  0  0  0
 28 30  2  0  0  0  0
M  END
>  <minimizedAffinity>
-4.56371593

$$$$

 OpenBabel03242516323D

 30 32  0  0  1  0  0  0  0  0999 V2000
   39.6210   31.9700   37.7980 C   0  0  2  0  0  0  0  0  0  0  0  0
   40.1120   30.5230   37.9170 C   0  0  1  0  0  0  0  0  0  0  0  0
   39.0510   29.8820   37.3030 O   0  0  0  0  0  0  0  0  0  0  0  0
   37.9280   30.3780   37.9570 C   0  0  0  0  0  0  0  0  0  0  0  0
   38.2880   31.7350   38.5340 C   0  0  1  0  0  0  0  0  0  0  0  0
   40.2690   32.6750   38.3190 H   0  0  0  0  0  0  0  0  0  0  0  0
   40.2280   30.3360   38.9880 H   0  0  0  0  0  0  0  0  0  0  0  0
   37.1630   30.5730   37.1600 H   0  0  0  0  0  0  0  0  0  0  0  0
   37.4850   29.7010   38.6860 H   0  0  0  0  0  0  0  0  0  0  0  0
   37.5450   32.5090   38.3000 H   0  0  0  0  0  0  0  0  0  0  0  0
   43.1630   29.2140   36.0710 C   0  0  0  0  0  0  0  0  0  0  0  0
   41.8850   29.1680   36.6420 C   0  0  0  0  0  0  0  0  0  0  0  0
   41.4050   30.3090   37.2680 C   0  0  0  0  0  0  0  0  0  0  0  0
   42.2100   31.4200   37.2940 N   0  0  0  0  0  0  0  0  0  0  0  0
   43.4390   31.4320   36.7340 C   0  0  0  0  0  0  0  0  0  0  0  0
   43.9120   30.3320   36.1260 N   0  0  0  0  0  0  0  0  0  0  0  0
   43.4800   28.3000   35.6010 H   0  0  0  0  0  0  0  0  0  0  0  0
   41.2090   28.3430   36.6580 H   0  0  0  0  0  0  0  0  0  0  0  0
   44.0470   32.3310   36.7740 H   0  0  0  0  0  0  0  0  0  0  0  0
   39.2870   32.2640   36.5080 O   0  0  0  0  0  0  0  0  0  0  0  0
   38.9510   33.2020   36.5000 H   0  0  0  0  0  0  0  0  0  0  0  0
   38.6100   31.6540   39.8940 O   0  0  0  0  0  0  0  0  0  0  0  0
   37.8480   30.9470   40.8200 C   0  0  0  0  0  0  0  0  0  0  0  0
   36.5390   30.8170   41.2420 C   0  0  0  0  0  0  0  0  0  0  0  0
   35.8360   31.4450   40.7150 H   0  0  0  0  0  0  0  0  0  0  0  0
   36.5030   29.9070   42.2330 N   0  0  0  0  0  0  0  0  0  0  0  0
   35.5810   29.6820   42.6740 H   0  0  0  0  0  0  0  0  0  0  0  0
   37.7540   29.4610   42.4450 C   0  0  0  0  0  0  0  0  0  0  0  0
   37.9430   28.7180   43.2060 H   0  0  0  0  0  0  0  0  0  0  0  0
   38.5900   30.0950   41.5820 N   0  0  0  0  0  0  0  0  0  0  0  0
  1  2  1  0  0  0  0
  1  6  1  1  0  0  0
  1  5  1  0  0  0  0
  2  7  1  1  0  0  0
  3  2  1  0  0  0  0
  3  4  1  0  0  0  0
  4  5  1  0  0  0  0
  4  9  1  0  0  0  0
  5 10  1  6  0  0  0
  5 22  1  0  0  0  0
  8  4  1  0  0  0  0
 11 16  2  0  0  0  0
 11 12  1  0  0  0  0
 12 18  1  0  0  0  0
 12 13  2  0  0  0  0
 13 14  1  0  0  0  0
 13  2  1  0  0  0  0
 15 19  1  0  0  0  0
 15 14  2  0  0  0  0
 16 15  1  0  0  0  0
 17 11  1  0  0  0  0
 20  1  1  0  0  0  0
 21 20  1  0  0  0  0
 22 23  1  0  0  0  0
 23 24  2  0  0  0  0
 23 30  1  0  0  0  0
 24 26  1  0  0  0  0
 25 24  1  0  0  0  0
 26 28  1  0  0  0  0
 26 27  1  0  0  0  0
 28 29  1  0  0  0  0
 30 28  2  0  0  0  0
M  END
>  <minimizedAffinity>
-4.54571772

$$$$
