
 OpenBabel03242513413D

 39 42  0  0  0  0  0  0  0  0999 V2000
   47.7520   31.0310   45.9880 C   0  0  0  0  0  0  0  0  0  0  0  0
   46.9940   32.0610   45.4640 C   0  0  0  0  0  0  0  0  0  0  0  0
   45.9450   32.5160   46.2180 C   0  0  0  0  0  0  0  0  0  0  0  0
   45.6230   31.9960   47.4530 C   0  0  0  0  0  0  0  0  0  0  0  0
   44.6910   32.2120   48.4120 N   0  0  0  0  0  0  0  0  0  0  0  0
   44.8790   31.3610   49.4490 C   0  0  0  0  0  0  0  0  0  0  0  0
   45.9460   30.6060   49.1280 N   0  0  0  0  0  0  0  0  0  0  0  0
   46.4190   30.9720   47.9190 C   0  0  0  0  0  0  0  0  0  0  0  0
   47.4710   30.4720   47.2280 C   0  0  0  0  0  0  0  0  0  0  0  0
   48.5950   30.6570   45.3960 H   0  0  0  0  0  0  0  0  0  0  0  0
   45.3310   33.3190   45.8400 H   0  0  0  0  0  0  0  0  0  0  0  0
   43.9360   32.9540   48.3220 H   0  0  0  0  0  0  0  0  0  0  0  0
   44.2780   31.3070   50.3620 H   0  0  0  0  0  0  0  0  0  0  0  0
   47.2620   34.4100   42.6820 C   0  0  0  0  0  0  0  0  0  0  0  0
   47.9190   33.6610   41.6970 C   0  0  0  0  0  0  0  0  0  0  0  0
   48.2560   32.3440   42.0320 C   0  0  0  0  0  0  0  0  0  0  0  0
   47.9430   31.8590   43.2570 N   0  0  0  0  0  0  0  0  0  0  0  0
   47.3080   32.6290   44.1660 C   0  0  0  0  0  0  0  0  0  0  0  0
   46.9640   33.8880   43.8980 N   0  0  0  0  0  0  0  0  0  0  0  0
   46.9360   35.4540   42.5650 H   0  0  0  0  0  0  0  0  0  0  0  0
   48.7560   31.7860   41.2780 H   0  0  0  0  0  0  0  0  0  0  0  0
   48.1950   34.3280   40.4050 C   0  0  0  0  0  0  0  0  0  0  0  0
   48.7560   35.5360   40.7220 F   0  0  0  0  0  0  0  0  0  0  0  0
   47.0080   34.4890   39.7460 F   0  0  0  0  0  0  0  0  0  0  0  0
   49.0630   33.4870   39.6870 F   0  0  0  0  0  0  0  0  0  0  0  0
   48.2290   29.4430   47.7520 O   0  0  0  0  0  0  0  0  0  0  0  0
   49.8200   28.2150   49.3920 O   0  0  0  0  0  0  0  0  0  0  0  0
   49.4450   29.6140   48.9090 P   0  0  2  0  0  0  0  0  0  0  0  0
   48.7600   30.4230   50.2450 O   0  0  0  0  0  0  0  0  0  0  0  0
   49.4390   30.9370   50.7550 H   0  0  0  0  0  0  0  0  0  0  0  0
   50.7920   30.4220   48.3560 O   0  0  0  0  0  0  0  0  0  0  0  0
   51.5960   31.1280   49.2410 C   0  0  0  0  0  0  0  0  0  0  0  0
   52.7350   31.8010   48.9080 C   0  0  0  0  0  0  0  0  0  0  0  0
   53.1650   31.8790   47.9290 H   0  0  0  0  0  0  0  0  0  0  0  0
   53.2890   32.3810   49.9680 N   0  0  0  0  0  0  0  0  0  0  0  0
   54.1520   32.9740   50.1270 H   0  0  0  0  0  0  0  0  0  0  0  0
   52.4880   32.0740   51.0130 C   0  0  0  0  0  0  0  0  0  0  0  0
   52.5030   32.3040   52.0840 H   0  0  0  0  0  0  0  0  0  0  0  0
   51.4650   31.3180   50.5770 N   0  0  0  0  0  0  0  0  0  0  0  0
  1  9  1  0  0  0  0
  2  1  2  0  0  0  0
  2  3  1  0  0  0  0
  3  4  2  0  0  0  0
  4  8  1  0  0  0  0
  4  5  1  0  0  0  0
  5  6  1  0  0  0  0
  6 13  1  0  0  0  0
  7  6  2  0  0  0  0
  8  7  1  0  0  0  0
  9 26  1  0  0  0  0
  9  8  2  0  0  0  0
 10  1  1  0  0  0  0
 11  3  1  0  0  0  0
 12  5  1  0  0  0  0
 14 19  1  0  0  0  0
 15 16  1  0  0  0  0
 15 14  2  0  0  0  0
 16 17  2  0  0  0  0
 17 18  1  0  0  0  0
 18  2  1  0  0  0  0
 19 18  2  0  0  0  0
 20 14  1  0  0  0  0
 21 16  1  0  0  0  0
 22 23  1  0  0  0  0
 22 15  1  0  0  0  0
 24 22  1  0  0  0  0
 25 22  1  0  0  0  0
 26 28  1  0  0  0  0
 28 27  2  1  0  0  0
 28 29  1  0  0  0  0
 29 30  1  0  0  0  0
 31 28  1  0  0  0  0
 31 32  1  0  0  0  0
 32 39  1  0  0  0  0
 33 32  2  0  0  0  0
 33 35  1  0  0  0  0
 34 33  1  0  0  0  0
 35 36  1  0  0  0  0
 35 37  1  0  0  0  0
 37 38  1  0  0  0  0
 39 37  2  0  0  0  0
M  END
>  <minimizedAffinity>
-5.90114164

>  <minimizedRMSD>
1.63913202

$$$$
