
     RDKit          3D

 35 37  0  0  0  0  0  0  0  0999 V2000
   44.6990   35.4867   45.3045 C   0  0  0  0  0  0  0  0  0  0  0  0
   45.4181   35.6092   44.1098 C   0  0  0  0  0  0  0  0  0  0  0  0
   46.2510   34.6007   43.7241 C   0  0  0  0  0  0  0  0  0  0  0  0
   46.3563   33.4919   44.5272 N   0  0  0  0  0  0  0  0  0  0  0  0
   45.6529   33.3850   45.6840 C   0  0  0  0  0  0  0  0  0  0  0  0
   44.8269   34.3747   46.0757 N   0  0  0  0  0  0  0  0  0  0  0  0
   46.9693   34.7225   42.4918 C   0  0  0  0  0  0  0  0  0  0  0  0
   48.1190   35.4063   42.2350 C   0  0  0  0  0  0  0  0  0  0  0  0
   48.6606   35.3979   40.9617 C   0  0  0  0  0  0  0  0  0  0  0  0
   48.0528   34.7059   39.9443 C   0  0  0  0  0  0  0  0  0  0  0  0
   46.9017   34.0128   40.1710 C   0  0  0  0  0  0  0  0  0  0  0  0
   46.3786   34.0345   41.4490 C   0  0  0  0  0  0  0  0  0  0  0  0
   45.1738   36.8390   43.3281 C   0  0  0  0  0  0  0  0  0  0  0  0
   45.0395   37.9175   44.2842 N   0  0  0  0  0  0  0  0  0  0  0  0
   45.4156   39.2022   43.6879 C   0  0  0  0  0  0  0  0  0  0  0  0
   46.7436   39.3889   43.6023 F   0  0  0  0  0  0  0  0  0  0  0  0
   44.9079   40.2615   44.4385 F   0  0  0  0  0  0  0  0  0  0  0  0
   44.8505   39.2779   42.4448 F   0  0  0  0  0  0  0  0  0  0  0  0
   43.9850   36.0662   45.8087 H   0  0  0  0  0  0  0  0  0  0  0  0
   45.8868   32.4359   46.1531 H   0  0  0  0  0  0  0  0  0  0  0  0
   48.5420   35.9292   43.0864 H   0  0  0  0  0  0  0  0  0  0  0  0
   49.5759   35.9675   40.8459 H   0  0  0  0  0  0  0  0  0  0  0  0
   48.5819   34.7868   39.0071 H   0  0  0  0  0  0  0  0  0  0  0  0
   46.4514   33.4800   39.3467 H   0  0  0  0  0  0  0  0  0  0  0  0
   45.4522   33.4480   41.5315 H   0  0  0  0  0  0  0  0  0  0  0  0
   44.3174   36.7712   42.6336 H   0  0  0  0  0  0  0  0  0  0  0  0
   46.0856   36.9717   42.7000 H   0  0  0  0  0  0  0  0  0  0  0  0
   44.6643   38.2465   45.6119 C   0  0  0  0  0  0  0  0  0  0  0  0
   44.1993   37.3975   46.6293 C   0  0  0  0  0  0  0  0  0  0  0  0
   44.0394   36.3333   46.5334 H   0  0  0  0  0  0  0  0  0  0  0  0
   44.0249   38.2279   47.6731 N   0  0  0  0  0  0  0  0  0  0  0  0
   43.6718   37.8605   48.6042 H   0  0  0  0  0  0  0  0  0  0  0  0
   44.3400   39.5029   47.3890 C   0  0  0  0  0  0  0  0  0  0  0  0
   44.2578   40.3086   48.1201 H   0  0  0  0  0  0  0  0  0  0  0  0
   44.7401   39.5265   46.1069 N   0  0  0  0  0  0  0  0  0  0  0  0
  1  6  2  0
  2  1  1  0
  3  2  2  0
  3  4  1  0
  4  5  2  0
  5  6  1  0
  7  3  1  0
  8  7  2  0
  9  8  1  0
 10 11  1  0
 10  9  2  0
 11 12  2  0
 12  7  1  0
 13  2  1  0
 13 14  1  0
 15 14  1  0
 15 17  1  0
 16 15  1  0
 18 15  1  0
  1 19  1  0
  5 20  1  0
  8 21  1  0
  9 22  1  0
 10 23  1  0
 11 24  1  0
 12 25  1  0
 13 26  1  0
 13 27  1  0
 28 29  2  0
 29 30  1  0
 29 31  1  0
 31 32  1  0
 31 33  1  0
 33 34  1  0
 33 35  2  0
 35 28  1  0
 14 28  1  0
M  ISO  8  19  14  20  14  21  14  22  14  23  14  24  14  25  14  26   8
M  ISO  4  27   8  30  15  32   5  34  14
M  END
>  <DihAtoms>  (1) 
12,13,27,28

>  <DihDeg>  (1) 
90.01184152554967

$$$$
