
 OpenBabel03252505143D

 24 26  0  0  0  0  0  0  0  0999 V2000
   44.5140   35.9910   44.4620 C   0  0  0  0  0  0  0  0  0  0  0  0
   45.1800   35.9260   43.2250 C   0  0  0  0  0  0  0  0  0  0  0  0
   46.1040   34.9020   43.0930 C   0  0  0  0  0  0  0  0  0  0  0  0
   46.3310   34.0230   44.1240 N   0  0  0  0  0  0  0  0  0  0  0  0
   45.6570   34.1280   45.3050 C   0  0  0  0  0  0  0  0  0  0  0  0
   44.7550   35.1130   45.4620 N   0  0  0  0  0  0  0  0  0  0  0  0
   43.7790   36.7570   44.6490 H   0  0  0  0  0  0  0  0  0  0  0  0
   44.9900   36.6150   42.4430 H   0  0  0  0  0  0  0  0  0  0  0  0
   46.8620   34.7090   41.8120 C   0  0  0  0  0  0  0  0  0  0  0  0
   48.2100   35.3970   41.8060 C   0  0  0  0  0  0  0  0  0  0  0  0
   48.0400   33.8530   41.8100 C   0  0  0  0  0  0  0  0  0  0  0  0
   46.2340   34.8460   40.9180 H   0  0  0  0  0  0  0  0  0  0  0  0
   48.5900   35.8860   42.7000 H   0  0  0  0  0  0  0  0  0  0  0  0
   48.4700   35.8790   40.8520 H   0  0  0  0  0  0  0  0  0  0  0  0
   48.4940   33.3980   42.6880 H   0  0  0  0  0  0  0  0  0  0  0  0
   48.3580   33.3960   40.8340 H   0  0  0  0  0  0  0  0  0  0  0  0
   46.0250   33.1100   46.2850 C   0  0  0  0  0  0  0  0  0  0  0  0
   45.2640   32.9610   47.4470 C   0  0  0  0  0  0  0  0  0  0  0  0
   44.3740   33.5290   47.7530 H   0  0  0  0  0  0  0  0  0  0  0  0
   45.8010   31.9680   48.1790 N   0  0  0  0  0  0  0  0  0  0  0  0
   45.4190   31.6540   49.1000 H   0  0  0  0  0  0  0  0  0  0  0  0
   46.8820   31.4990   47.4930 C   0  0  0  0  0  0  0  0  0  0  0  0
   47.4480   30.6970   47.9210 H   0  0  0  0  0  0  0  0  0  0  0  0
   47.0170   32.2010   46.3310 N   0  0  0  0  0  0  0  0  0  0  0  0
  1  7  1  0  0  0  0
  1  6  1  0  0  0  0
  2  1  2  0  0  0  0
  3  2  1  0  0  0  0
  3  4  2  0  0  0  0
  4  5  1  0  0  0  0
  5  6  2  0  0  0  0
  5 17  1  0  0  0  0
  8  2  1  0  0  0  0
  9  3  1  0  0  0  0
 10 11  1  0  0  0  0
 10  9  1  0  0  0  0
 10 13  1  0  0  0  0
 11  9  1  0  0  0  0
 11 15  1  0  0  0  0
 12  9  1  0  0  0  0
 14 10  1  0  0  0  0
 16 11  1  0  0  0  0
 17 24  1  0  0  0  0
 17 18  2  0  0  0  0
 18 19  1  0  0  0  0
 18 20  1  0  0  0  0
 20 21  1  0  0  0  0
 22 23  1  0  0  0  0
 22 20  1  0  0  0  0
 24 22  2  0  0  0  0
M  END
>  <minimizedAffinity>
-4.79248428

>  <minimizedRMSD>
0.350525409

$$$$
