
 OpenBabel03252508073D

 43 46  0  0  0  0  0  0  0  0999 V2000
   45.3070   36.1170   42.7010 C   0  0  0  0  0  0  0  0  0  0  0  0
   45.4910   34.7430   42.7000 C   0  0  0  0  0  0  0  0  0  0  0  0
   45.2300   34.0140   43.8340 C   0  0  0  0  0  0  0  0  0  0  0  0
   44.7830   34.7130   44.9390 N   0  0  0  0  0  0  0  0  0  0  0  0
   44.6070   36.0310   44.9340 C   0  0  0  0  0  0  0  0  0  0  0  0
   44.8740   36.7250   43.8050 N   0  0  0  0  0  0  0  0  0  0  0  0
   45.5040   36.7240   41.8290 H   0  0  0  0  0  0  0  0  0  0  0  0
   44.2570   36.5630   45.8090 H   0  0  0  0  0  0  0  0  0  0  0  0
   45.3680   32.6160   43.9930 C   0  0  0  0  0  0  0  0  0  0  0  0
   44.8400   31.6720   43.1080 C   0  0  0  0  0  0  0  0  0  0  0  0
   44.9130   30.3160   43.2950 C   0  0  0  0  0  0  0  0  0  0  0  0
   45.5390   29.8150   44.4130 C   0  0  0  0  0  0  0  0  0  0  0  0
   46.0840   30.7570   45.3270 C   0  0  0  0  0  0  0  0  0  0  0  0
   46.7080   30.2720   46.4460 C   0  0  0  0  0  0  0  0  0  0  0  0
   47.2610   31.1330   47.3740 C   0  0  0  0  0  0  0  0  0  0  0  0
   47.1800   32.5170   47.1580 C   0  0  0  0  0  0  0  0  0  0  0  0
   46.5300   32.9700   45.9950 C   0  0  0  0  0  0  0  0  0  0  0  0
   45.9880   32.0920   45.0980 C   0  0  0  0  0  0  0  0  0  0  0  0
   44.3460   32.0720   42.2250 H   0  0  0  0  0  0  0  0  0  0  0  0
   44.4930   29.6180   42.5870 H   0  0  0  0  0  0  0  0  0  0  0  0
   45.6490   28.7770   44.6530 H   0  0  0  0  0  0  0  0  0  0  0  0
   46.7830   29.1950   46.6330 H   0  0  0  0  0  0  0  0  0  0  0  0
   47.7440   30.6910   48.2460 H   0  0  0  0  0  0  0  0  0  0  0  0
   47.6400   33.1120   47.9310 H   0  0  0  0  0  0  0  0  0  0  0  0
   46.5930   34.0370   46.0020 H   0  0  0  0  0  0  0  0  0  0  0  0
   45.9320   34.1750   41.5400 O   0  0  0  0  0  0  0  0  0  0  0  0
   47.7770   32.3770   41.0600 O   0  0  0  0  0  0  0  0  0  0  0  0
   47.5530   33.8390   41.1870 P   0  0  1  0  0  0  0  0  0  0  0  0
   48.0150   34.5390   39.7160 O   0  0  0  0  0  0  0  0  0  0  0  0
   48.3120   33.8190   38.5680 C   0  0  0  0  0  0  0  0  0  0  0  0
   47.7050   34.2540   37.4180 C   0  0  0  0  0  0  0  0  0  0  0  0
   47.0110   35.0700   37.1770 H   0  0  0  0  0  0  0  0  0  0  0  0
   48.1000   33.4480   36.4040 N   0  0  0  0  0  0  0  0  0  0  0  0
   47.8620   33.4520   35.3880 H   0  0  0  0  0  0  0  0  0  0  0  0
   48.9290   32.5490   36.9540 C   0  0  0  0  0  0  0  0  0  0  0  0
   49.4930   31.7030   36.5320 H   0  0  0  0  0  0  0  0  0  0  0  0
   49.0810   32.7520   38.2920 N   0  0  0  0  0  0  0  0  0  0  0  0
   48.5050   34.4840   42.4080 O   0  0  0  0  0  0  0  0  0  0  0  0
   49.6740   35.2140   42.2560 C   0  0  0  0  0  0  0  0  0  0  0  0
   49.3110   36.2980   41.7730 O   0  0  0  0  0  0  0  0  0  0  0  0
   50.8160   34.4490   42.7040 N   0  0  0  0  0  0  0  0  0  0  0  0
   51.6460   34.0690   42.1890 H   0  0  0  0  0  0  0  0  0  0  0  0
   50.8520   34.2120   43.7400 H   0  0  0  0  0  0  0  0  0  0  0  0
  1  6  1  0  0  0  0
  2  1  2  0  0  0  0
  2  3  1  0  0  0  0
  3  9  1  0  0  0  0
  3  4  2  0  0  0  0
  5  4  1  0  0  0  0
  5  8  1  0  0  0  0
  6  5  2  0  0  0  0
  7  1  1  0  0  0  0
  9 18  1  0  0  0  0
 10 11  1  0  0  0  0
 10  9  2  0  0  0  0
 11 12  2  0  0  0  0
 12 21  1  0  0  0  0
 12 13  1  0  0  0  0
 13 14  1  0  0  0  0
 14 22  1  0  0  0  0
 14 15  2  0  0  0  0
 15 23  1  0  0  0  0
 16 15  1  0  0  0  0
 16 24  1  0  0  0  0
 17 25  1  0  0  0  0
 17 16  2  0  0  0  0
 18 13  2  0  0  0  0
 18 17  1  0  0  0  0
 19 10  1  0  0  0  0
 20 11  1  0  0  0  0
 26  2  1  0  0  0  0
 28 27  2  6  0  0  0
 28 26  1  0  0  0  0
 28 38  1  0  0  0  0
 29 28  1  0  0  0  0
 30 29  1  0  0  0  0
 31 30  2  0  0  0  0
 32 31  1  0  0  0  0
 33 35  1  0  0  0  0
 33 31  1  0  0  0  0
 34 33  1  0  0  0  0
 35 37  2  0  0  0  0
 36 35  1  0  0  0  0
 37 30  1  0  0  0  0
 39 38  1  0  0  0  0
 39 41  1  0  0  0  0
 40 39  2  0  0  0  0
 41 43  1  0  0  0  0
 42 41  1  0  0  0  0
M  END
>  <minimizedAffinity>
-6.07980871

>  <minimizedRMSD>
0.299619466

$$$$
