
 OpenBabel03252504473D

 26 27  0  0  0  0  0  0  0  0999 V2000
   36.6390   30.5200   41.5160 O   0  0  0  0  0  0  0  0  0  0  0  0
   37.1160   26.9470   41.4590 C   0  0  0  0  0  0  0  0  0  0  0  0
   37.6530   26.7280   42.7250 C   0  0  0  0  0  0  0  0  0  0  0  0
   37.8320   27.8440   43.5630 C   0  0  0  0  0  0  0  0  0  0  0  0
   37.4760   29.0530   43.0960 N   0  0  0  0  0  0  0  0  0  0  0  0
   36.9530   29.2140   41.8440 C   0  0  0  0  0  0  0  0  0  0  0  0
   36.7730   28.1550   41.0220 N   0  0  0  0  0  0  0  0  0  0  0  0
   37.9160   25.7150   43.0290 H   0  0  0  0  0  0  0  0  0  0  0  0
   38.2500   27.6840   44.5530 H   0  0  0  0  0  0  0  0  0  0  0  0
   36.9370   25.7360   40.5900 C   0  0  0  0  0  0  0  0  0  0  0  0
   36.2990   25.9990   39.7210 H   0  0  0  0  0  0  0  0  0  0  0  0
   36.4490   24.9810   41.2110 H   0  0  0  0  0  0  0  0  0  0  0  0
   37.9500   25.4270   40.2550 H   0  0  0  0  0  0  0  0  0  0  0  0
   36.3070   30.8700   38.9800 O   0  0  0  0  0  0  0  0  0  0  0  0
   37.1780   31.3580   40.1540 P   0  0  1  0  0  0  0  0  0  0  0  0
   36.9510   33.0200   40.2640 O   0  0  0  0  0  0  0  0  0  0  0  0
   36.7970   33.3480   41.1820 H   0  0  0  0  0  0  0  0  0  0  0  0
   38.7960   31.0380   39.8650 O   0  0  0  0  0  0  0  0  0  0  0  0
   39.6130   31.7510   39.0020 C   0  0  0  0  0  0  0  0  0  0  0  0
   39.2890   31.6450   37.6450 C   0  0  0  0  0  0  0  0  0  0  0  0
   38.5090   31.1070   37.0990 H   0  0  0  0  0  0  0  0  0  0  0  0
   40.1860   32.4010   36.9700 N   0  0  0  0  0  0  0  0  0  0  0  0
   40.3480   32.6290   35.9560 H   0  0  0  0  0  0  0  0  0  0  0  0
   41.0430   32.9640   37.8460 C   0  0  0  0  0  0  0  0  0  0  0  0
   41.9020   33.6220   37.8220 H   0  0  0  0  0  0  0  0  0  0  0  0
   40.6840   32.5620   39.0780 N   0  0  0  0  0  0  0  0  0  0  0  0
  1  6  1  0  0  0  0
  2  3  1  0  0  0  0
  3  8  1  0  0  0  0
  3  4  2  0  0  0  0
  4  9  1  0  0  0  0
  5  4  1  0  0  0  0
  6  5  2  0  0  0  0
  7  2  2  0  0  0  0
  7  6  1  0  0  0  0
 10 12  1  0  0  0  0
 10  2  1  0  0  0  0
 11 10  1  0  0  0  0
 13 10  1  0  0  0  0
 15 14  2  6  0  0  0
 15 16  1  0  0  0  0
 15  1  1  0  0  0  0
 16 17  1  0  0  0  0
 18 15  1  0  0  0  0
 19 26  1  0  0  0  0
 19 18  1  0  0  0  0
 20 19  2  0  0  0  0
 21 20  1  0  0  0  0
 22 20  1  0  0  0  0
 22 24  1  0  0  0  0
 23 22  1  0  0  0  0
 24 26  2  0  0  0  0
 25 24  1  0  0  0  0
M  END
>  <minimizedAffinity>
-5.09102535

$$$$

 OpenBabel03252504473D

 26 27  0  0  0  0  0  0  0  0999 V2000
   37.0110   28.9740   42.6040 O   0  0  0  0  0  0  0  0  0  0  0  0
   38.2680   25.5960   42.4820 C   0  0  0  0  0  0  0  0  0  0  0  0
   39.5240   25.7580   43.0610 C   0  0  0  0  0  0  0  0  0  0  0  0
   39.8940   27.0490   43.4770 C   0  0  0  0  0  0  0  0  0  0  0  0
   39.0160   28.0510   43.2940 N   0  0  0  0  0  0  0  0  0  0  0  0
   37.7940   27.8400   42.7200 C   0  0  0  0  0  0  0  0  0  0  0  0
   37.4190   26.6060   42.3120 N   0  0  0  0  0  0  0  0  0  0  0  0
   40.1780   24.8930   43.1740 H   0  0  0  0  0  0  0  0  0  0  0  0
   40.8720   27.1860   43.9290 H   0  0  0  0  0  0  0  0  0  0  0  0
   37.9040   24.2060   42.0490 C   0  0  0  0  0  0  0  0  0  0  0  0
   36.8170   24.1630   41.8270 H   0  0  0  0  0  0  0  0  0  0  0  0
   38.1510   23.5490   42.8870 H   0  0  0  0  0  0  0  0  0  0  0  0
   38.5000   23.9850   41.1390 H   0  0  0  0  0  0  0  0  0  0  0  0
   36.3000   28.9170   40.1230 O   0  0  0  0  0  0  0  0  0  0  0  0
   36.7980   29.8930   41.2050 P   0  0  1  0  0  0  0  0  0  0  0  0
   35.6180   31.0810   41.3630 O   0  0  0  0  0  0  0  0  0  0  0  0
   35.3830   31.2950   42.2980 H   0  0  0  0  0  0  0  0  0  0  0  0
   38.2410   30.6060   40.7420 O   0  0  0  0  0  0  0  0  0  0  0  0
   38.4730   31.9700   40.6650 C   0  0  0  0  0  0  0  0  0  0  0  0
   39.7270   32.3930   41.1190 C   0  0  0  0  0  0  0  0  0  0  0  0
   40.5910   31.8660   41.5350 H   0  0  0  0  0  0  0  0  0  0  0  0
   39.7650   33.7360   40.9660 N   0  0  0  0  0  0  0  0  0  0  0  0
   40.4780   34.4830   41.1620 H   0  0  0  0  0  0  0  0  0  0  0  0
   38.5960   34.1580   40.4400 C   0  0  0  0  0  0  0  0  0  0  0  0
   38.1400   35.0920   40.1390 H   0  0  0  0  0  0  0  0  0  0  0  0
   37.8190   33.0750   40.2620 N   0  0  0  0  0  0  0  0  0  0  0  0
  1  6  1  0  0  0  0
  2  3  1  0  0  0  0
  3  8  1  0  0  0  0
  3  4  2  0  0  0  0
  4  9  1  0  0  0  0
  5  4  1  0  0  0  0
  6  5  2  0  0  0  0
  7  2  2  0  0  0  0
  7  6  1  0  0  0  0
 10  2  1  0  0  0  0
 10 12  1  0  0  0  0
 11 10  1  0  0  0  0
 13 10  1  0  0  0  0
 15 14  2  6  0  0  0
 15 16  1  0  0  0  0
 15  1  1  0  0  0  0
 16 17  1  0  0  0  0
 18 15  1  0  0  0  0
 19 18  1  0  0  0  0
 19 20  2  0  0  0  0
 20 21  1  0  0  0  0
 22 20  1  0  0  0  0
 22 23  1  0  0  0  0
 24 22  1  0  0  0  0
 25 24  1  0  0  0  0
 26 24  2  0  0  0  0
 26 19  1  0  0  0  0
M  END
>  <minimizedAffinity>
-5.07474089

$$$$

 OpenBabel03252504473D

 26 27  0  0  0  0  0  0  0  0999 V2000
   38.0640   29.7570   40.5380 O   0  0  0  0  0  0  0  0  0  0  0  0
   39.0890   27.4080   43.0750 C   0  0  0  0  0  0  0  0  0  0  0  0
   37.8570   27.0380   43.6100 C   0  0  0  0  0  0  0  0  0  0  0  0
   36.7020   27.6250   43.0640 C   0  0  0  0  0  0  0  0  0  0  0  0
   36.8510   28.5060   42.0600 N   0  0  0  0  0  0  0  0  0  0  0  0
   38.0830   28.8360   41.5700 C   0  0  0  0  0  0  0  0  0  0  0  0
   39.2080   28.2830   42.0810 N   0  0  0  0  0  0  0  0  0  0  0  0
   37.8220   26.3150   44.4240 H   0  0  0  0  0  0  0  0  0  0  0  0
   35.7370   27.3440   43.4740 H   0  0  0  0  0  0  0  0  0  0  0  0
   40.3020   26.7630   43.6790 C   0  0  0  0  0  0  0  0  0  0  0  0
   41.1810   26.9520   43.0280 H   0  0  0  0  0  0  0  0  0  0  0  0
   40.0870   25.6930   43.7320 H   0  0  0  0  0  0  0  0  0  0  0  0
   40.4470   27.2230   44.6790 H   0  0  0  0  0  0  0  0  0  0  0  0
   35.9610   29.8720   39.0460 O   0  0  0  0  0  0  0  0  0  0  0  0
   36.7450   30.7030   40.0780 P   0  0  1  0  0  0  0  0  0  0  0  0
   35.6860   31.0260   41.3430 O   0  0  0  0  0  0  0  0  0  0  0  0
   36.0700   30.8770   42.2410 H   0  0  0  0  0  0  0  0  0  0  0  0
   37.2610   32.1490   39.4070 O   0  0  0  0  0  0  0  0  0  0  0  0
   38.4650   32.7770   39.6840 C   0  0  0  0  0  0  0  0  0  0  0  0
   38.4500   33.6470   40.7800 C   0  0  0  0  0  0  0  0  0  0  0  0
   37.6730   33.9490   41.4880 H   0  0  0  0  0  0  0  0  0  0  0  0
   39.6980   34.1560   40.8910 N   0  0  0  0  0  0  0  0  0  0  0  0
   40.1650   34.8360   41.5430 H   0  0  0  0  0  0  0  0  0  0  0  0
   40.4780   33.6420   39.9160 C   0  0  0  0  0  0  0  0  0  0  0  0
   41.5030   33.7220   39.5810 H   0  0  0  0  0  0  0  0  0  0  0  0
   39.7160   32.8050   39.1900 N   0  0  0  0  0  0  0  0  0  0  0  0
  1  6  1  0  0  0  0
  2  3  1  0  0  0  0
  2 10  1  0  0  0  0
  3  8  1  0  0  0  0
  4  9  1  0  0  0  0
  4  3  2  0  0  0  0
  5  4  1  0  0  0  0
  6  5  2  0  0  0  0
  6  7  1  0  0  0  0
  7  2  2  0  0  0  0
 10 12  1  0  0  0  0
 10 13  1  0  0  0  0
 11 10  1  0  0  0  0
 15 14  2  6  0  0  0
 15  1  1  0  0  0  0
 15 16  1  0  0  0  0
 16 17  1  0  0  0  0
 18 19  1  0  0  0  0
 18 15  1  0  0  0  0
 19 20  2  0  0  0  0
 20 22  1  0  0  0  0
 20 21  1  0  0  0  0
 22 23  1  0  0  0  0
 24 22  1  0  0  0  0
 25 24  1  0  0  0  0
 26 19  1  0  0  0  0
 26 24  2  0  0  0  0
M  END
>  <minimizedAffinity>
-4.81738472

$$$$

 OpenBabel03252504473D

 26 27  0  0  0  0  0  0  0  0999 V2000
   36.1610   28.1430   41.0630 O   0  0  0  0  0  0  0  0  0  0  0  0
   39.0150   26.8600   42.8560 C   0  0  0  0  0  0  0  0  0  0  0  0
   39.6540   28.0430   43.2210 C   0  0  0  0  0  0  0  0  0  0  0  0
   39.0640   29.2570   42.8260 C   0  0  0  0  0  0  0  0  0  0  0  0
   37.9200   29.2080   42.1220 N   0  0  0  0  0  0  0  0  0  0  0  0
   37.3320   28.0200   41.7890 C   0  0  0  0  0  0  0  0  0  0  0  0
   37.8830   26.8410   42.1580 N   0  0  0  0  0  0  0  0  0  0  0  0
   40.5810   27.9970   43.7930 H   0  0  0  0  0  0  0  0  0  0  0  0
   39.5550   30.1840   43.1060 H   0  0  0  0  0  0  0  0  0  0  0  0
   39.6700   25.5830   43.2930 C   0  0  0  0  0  0  0  0  0  0  0  0
   38.9610   24.7400   43.1520 H   0  0  0  0  0  0  0  0  0  0  0  0
   39.9130   25.7080   44.3520 H   0  0  0  0  0  0  0  0  0  0  0  0
   40.5710   25.4490   42.6580 H   0  0  0  0  0  0  0  0  0  0  0  0
   34.1510   29.2530   39.8850 O   0  0  0  0  0  0  0  0  0  0  0  0
   35.6010   29.5470   40.3140 P   0  0  1  0  0  0  0  0  0  0  0  0
   35.5390   30.8720   41.3480 O   0  0  0  0  0  0  0  0  0  0  0  0
   36.0780   30.7700   42.1690 H   0  0  0  0  0  0  0  0  0  0  0  0
   36.5480   29.9250   38.9860 O   0  0  0  0  0  0  0  0  0  0  0  0
   37.4910   30.9400   38.9370 C   0  0  0  0  0  0  0  0  0  0  0  0
   38.0250   31.2030   37.6710 C   0  0  0  0  0  0  0  0  0  0  0  0
   37.8570   30.7700   36.6810 H   0  0  0  0  0  0  0  0  0  0  0  0
   38.9140   32.2110   37.8240 N   0  0  0  0  0  0  0  0  0  0  0  0
   39.5510   32.7400   37.1770 H   0  0  0  0  0  0  0  0  0  0  0  0
   38.9520   32.5790   39.1220 C   0  0  0  0  0  0  0  0  0  0  0  0
   39.4720   33.2990   39.7390 H   0  0  0  0  0  0  0  0  0  0  0  0
   38.0830   31.7990   39.7880 N   0  0  0  0  0  0  0  0  0  0  0  0
  1  6  1  0  0  0  0
  2  3  1  0  0  0  0
  2 10  1  0  0  0  0
  3  8  1  0  0  0  0
  4  9  1  0  0  0  0
  4  3  2  0  0  0  0
  5  4  1  0  0  0  0
  6  5  2  0  0  0  0
  6  7  1  0  0  0  0
  7  2  2  0  0  0  0
 10 12  1  0  0  0  0
 11 10  1  0  0  0  0
 13 10  1  0  0  0  0
 15 14  2  6  0  0  0
 15  1  1  0  0  0  0
 15 16  1  0  0  0  0
 16 17  1  0  0  0  0
 18 15  1  0  0  0  0
 19 18  1  0  0  0  0
 19 26  1  0  0  0  0
 20 22  1  0  0  0  0
 20 19  2  0  0  0  0
 21 20  1  0  0  0  0
 22 24  1  0  0  0  0
 23 22  1  0  0  0  0
 24 25  1  0  0  0  0
 24 26  2  0  0  0  0
M  END
>  <minimizedAffinity>
-4.75749063

$$$$

 OpenBabel03252504473D

 26 27  0  0  0  0  0  0  0  0999 V2000
   38.0460   28.3700   41.0910 O   0  0  0  0  0  0  0  0  0  0  0  0
   37.3710   30.6810   38.4070 C   0  0  0  0  0  0  0  0  0  0  0  0
   37.0150   31.8230   39.1210 C   0  0  0  0  0  0  0  0  0  0  0  0
   37.0230   31.7480   40.5250 C   0  0  0  0  0  0  0  0  0  0  0  0
   37.3720   30.5830   41.0970 N   0  0  0  0  0  0  0  0  0  0  0  0
   37.7130   29.4900   40.3510 C   0  0  0  0  0  0  0  0  0  0  0  0
   37.7120   29.5410   38.9990 N   0  0  0  0  0  0  0  0  0  0  0  0
   36.7440   32.7300   38.5810 H   0  0  0  0  0  0  0  0  0  0  0  0
   36.7470   32.6330   41.0910 H   0  0  0  0  0  0  0  0  0  0  0  0
   37.3530   30.7950   36.9100 C   0  0  0  0  0  0  0  0  0  0  0  0
   37.8690   29.9170   36.4690 H   0  0  0  0  0  0  0  0  0  0  0  0
   37.8850   31.7180   36.6660 H   0  0  0  0  0  0  0  0  0  0  0  0
   36.2860   30.8200   36.6020 H   0  0  0  0  0  0  0  0  0  0  0  0
   39.6880   29.0670   42.9570 O   0  0  0  0  0  0  0  0  0  0  0  0
   38.3500   28.3320   42.7500 P   0  0  1  0  0  0  0  0  0  0  0  0
   37.1990   29.1600   43.6540 O   0  0  0  0  0  0  0  0  0  0  0  0
   36.3540   29.3330   43.1740 H   0  0  0  0  0  0  0  0  0  0  0  0
   38.4500   26.7520   43.2960 O   0  0  0  0  0  0  0  0  0  0  0  0
   38.0850   25.6280   42.5710 C   0  0  0  0  0  0  0  0  0  0  0  0
   39.0230   24.5910   42.5600 C   0  0  0  0  0  0  0  0  0  0  0  0
   40.0120   24.4680   43.0110 H   0  0  0  0  0  0  0  0  0  0  0  0
   38.4950   23.5950   41.8120 N   0  0  0  0  0  0  0  0  0  0  0  0
   38.8170   22.6380   41.5200 H   0  0  0  0  0  0  0  0  0  0  0  0
   37.2780   23.9710   41.3640 C   0  0  0  0  0  0  0  0  0  0  0  0
   36.4830   23.5610   40.7570 H   0  0  0  0  0  0  0  0  0  0  0  0
   37.0410   25.2090   41.8320 N   0  0  0  0  0  0  0  0  0  0  0  0
  1 15  1  0  0  0  0
  2  7  2  0  0  0  0
  2  3  1  0  0  0  0
  3  4  2  0  0  0  0
  4  9  1  0  0  0  0
  4  5  1  0  0  0  0
  6  1  1  0  0  0  0
  6  5  2  0  0  0  0
  7  6  1  0  0  0  0
  8  3  1  0  0  0  0
 10  2  1  0  0  0  0
 11 10  1  0  0  0  0
 12 10  1  0  0  0  0
 13 10  1  0  0  0  0
 15 14  2  1  0  0  0
 15 18  1  0  0  0  0
 15 16  1  0  0  0  0
 17 16  1  0  0  0  0
 19 18  1  0  0  0  0
 20 19  2  0  0  0  0
 20 21  1  0  0  0  0
 22 20  1  0  0  0  0
 23 22  1  0  0  0  0
 24 22  1  0  0  0  0
 24 26  2  0  0  0  0
 25 24  1  0  0  0  0
 26 19  1  0  0  0  0
M  END
>  <minimizedAffinity>
-4.52971792

$$$$

 OpenBabel03252504473D

 26 27  0  0  0  0  0  0  0  0999 V2000
   35.9830   27.4770   39.0840 O   0  0  0  0  0  0  0  0  0  0  0  0
   37.3520   27.0800   42.3970 C   0  0  0  0  0  0  0  0  0  0  0  0
   37.6260   25.7140   42.4110 C   0  0  0  0  0  0  0  0  0  0  0  0
   37.3210   24.9720   41.2560 C   0  0  0  0  0  0  0  0  0  0  0  0
   36.7860   25.6200   40.2070 N   0  0  0  0  0  0  0  0  0  0  0  0
   36.5360   26.9630   40.2440 C   0  0  0  0  0  0  0  0  0  0  0  0
   36.8210   27.6960   41.3450 N   0  0  0  0  0  0  0  0  0  0  0  0
   38.0620   25.2630   43.3020 H   0  0  0  0  0  0  0  0  0  0  0  0
   37.5310   23.9060   41.2570 H   0  0  0  0  0  0  0  0  0  0  0  0
   37.6890   27.8430   43.6440 C   0  0  0  0  0  0  0  0  0  0  0  0
   37.6480   28.9310   43.4310 H   0  0  0  0  0  0  0  0  0  0  0  0
   38.7030   27.5440   43.9230 H   0  0  0  0  0  0  0  0  0  0  0  0
   36.9330   27.5620   44.4080 H   0  0  0  0  0  0  0  0  0  0  0  0
   33.9660   28.7060   38.0440 O   0  0  0  0  0  0  0  0  0  0  0  0
   35.1960   28.9620   38.9340 P   0  0  1  0  0  0  0  0  0  0  0  0
   34.6190   29.5580   40.3970 O   0  0  0  0  0  0  0  0  0  0  0  0
   35.0260   29.1400   41.1930 H   0  0  0  0  0  0  0  0  0  0  0  0
   36.2090   30.0980   38.2360 O   0  0  0  0  0  0  0  0  0  0  0  0
   36.8010   31.1610   38.9000 C   0  0  0  0  0  0  0  0  0  0  0  0
   37.6120   31.9840   38.1130 C   0  0  0  0  0  0  0  0  0  0  0  0
   37.8900   31.9740   37.0550 H   0  0  0  0  0  0  0  0  0  0  0  0
   38.0930   32.9520   38.9270 N   0  0  0  0  0  0  0  0  0  0  0  0
   38.7290   33.7790   38.7980 H   0  0  0  0  0  0  0  0  0  0  0  0
   37.6180   32.7610   40.1760 C   0  0  0  0  0  0  0  0  0  0  0  0
   37.6970   33.2300   41.1470 H   0  0  0  0  0  0  0  0  0  0  0  0
   36.8340   31.6690   40.1460 N   0  0  0  0  0  0  0  0  0  0  0  0
  1  6  1  0  0  0  0
  2  3  1  0  0  0  0
  2 10  1  0  0  0  0
  3  8  1  0  0  0  0
  4  9  1  0  0  0  0
  4  3  2  0  0  0  0
  5  6  2  0  0  0  0
  5  4  1  0  0  0  0
  6  7  1  0  0  0  0
  7  2  2  0  0  0  0
 10 12  1  0  0  0  0
 10 13  1  0  0  0  0
 11 10  1  0  0  0  0
 15 14  2  6  0  0  0
 15  1  1  0  0  0  0
 15 16  1  0  0  0  0
 16 17  1  0  0  0  0
 18 19  1  0  0  0  0
 18 15  1  0  0  0  0
 19 26  1  0  0  0  0
 20 19  2  0  0  0  0
 20 22  1  0  0  0  0
 21 20  1  0  0  0  0
 22 24  1  0  0  0  0
 23 22  1  0  0  0  0
 24 25  1  0  0  0  0
 26 24  2  0  0  0  0
M  END
>  <minimizedAffinity>
-4.5090003

$$$$

 OpenBabel03252504473D

 26 27  0  0  0  0  0  0  0  0999 V2000
   39.8300   30.3440   38.7790 O   0  0  0  0  0  0  0  0  0  0  0  0
   39.4990   29.2080   42.1850 C   0  0  0  0  0  0  0  0  0  0  0  0
   40.8260   29.2380   42.6070 C   0  0  0  0  0  0  0  0  0  0  0  0
   41.7990   29.6560   41.6820 C   0  0  0  0  0  0  0  0  0  0  0  0
   41.3950   30.0030   40.4480 N   0  0  0  0  0  0  0  0  0  0  0  0
   40.0790   29.9560   40.0830 C   0  0  0  0  0  0  0  0  0  0  0  0
   39.1270   29.5560   40.9570 N   0  0  0  0  0  0  0  0  0  0  0  0
   41.0720   28.9400   43.6260 H   0  0  0  0  0  0  0  0  0  0  0  0
   42.8370   29.6830   42.0010 H   0  0  0  0  0  0  0  0  0  0  0  0
   38.4850   28.7570   43.1960 C   0  0  0  0  0  0  0  0  0  0  0  0
   37.4670   28.9960   42.8260 H   0  0  0  0  0  0  0  0  0  0  0  0
   38.7010   29.3090   44.1140 H   0  0  0  0  0  0  0  0  0  0  0  0
   38.6140   27.6600   43.3140 H   0  0  0  0  0  0  0  0  0  0  0  0
   39.8840   32.8820   39.2500 O   0  0  0  0  0  0  0  0  0  0  0  0
   39.2620   31.8540   38.2860 P   0  0  1  0  0  0  0  0  0  0  0  0
   39.7650   32.2800   36.7380 O   0  0  0  0  0  0  0  0  0  0  0  0
   40.0870   31.5210   36.1950 H   0  0  0  0  0  0  0  0  0  0  0  0
   37.5900   31.9090   38.3580 O   0  0  0  0  0  0  0  0  0  0  0  0
   36.8000   31.1730   39.2280 C   0  0  0  0  0  0  0  0  0  0  0  0
   36.6530   31.7150   40.5090 C   0  0  0  0  0  0  0  0  0  0  0  0
   37.0360   32.6200   40.9900 H   0  0  0  0  0  0  0  0  0  0  0  0
   35.8590   30.8670   41.2030 N   0  0  0  0  0  0  0  0  0  0  0  0
   35.4750   30.8460   42.1810 H   0  0  0  0  0  0  0  0  0  0  0  0
   35.5120   29.8320   40.4090 C   0  0  0  0  0  0  0  0  0  0  0  0
   34.9220   28.9280   40.4790 H   0  0  0  0  0  0  0  0  0  0  0  0
   36.0910   30.0300   39.2120 N   0  0  0  0  0  0  0  0  0  0  0  0
  1  6  1  0  0  0  0
  2  3  1  0  0  0  0
  2 10  1  0  0  0  0
  3  8  1  0  0  0  0
  4  9  1  0  0  0  0
  4  3  2  0  0  0  0
  5  4  1  0  0  0  0
  6  5  2  0  0  0  0
  6  7  1  0  0  0  0
  7  2  2  0  0  0  0
 10 13  1  0  0  0  0
 10 12  1  0  0  0  0
 11 10  1  0  0  0  0
 15 18  1  0  0  0  0
 15  1  1  0  0  0  0
 15 14  2  1  0  0  0
 16 15  1  0  0  0  0
 17 16  1  0  0  0  0
 18 19  1  0  0  0  0
 19 20  2  0  0  0  0
 20 21  1  0  0  0  0
 20 22  1  0  0  0  0
 22 23  1  0  0  0  0
 24 25  1  0  0  0  0
 24 22  1  0  0  0  0
 26 19  1  0  0  0  0
 26 24  2  0  0  0  0
M  END
>  <minimizedAffinity>
-4.50661898

$$$$

 OpenBabel03252504473D

 26 27  0  0  0  0  0  0  0  0999 V2000
   37.8940   30.9330   38.9860 O   0  0  0  0  0  0  0  0  0  0  0  0
   35.0740   29.1870   37.5700 C   0  0  0  0  0  0  0  0  0  0  0  0
   35.4110   29.1870   36.2180 C   0  0  0  0  0  0  0  0  0  0  0  0
   36.6200   29.8010   35.8440 C   0  0  0  0  0  0  0  0  0  0  0  0
   37.3790   30.3500   36.8070 N   0  0  0  0  0  0  0  0  0  0  0  0
   37.0030   30.3240   38.1210 C   0  0  0  0  0  0  0  0  0  0  0  0
   35.8440   29.7390   38.5030 N   0  0  0  0  0  0  0  0  0  0  0  0
   34.7400   28.7190   35.4990 H   0  0  0  0  0  0  0  0  0  0  0  0
   36.8910   29.8060   34.7920 H   0  0  0  0  0  0  0  0  0  0  0  0
   33.7790   28.5240   37.9370 C   0  0  0  0  0  0  0  0  0  0  0  0
   33.7370   28.3830   39.0370 H   0  0  0  0  0  0  0  0  0  0  0  0
   33.7720   27.5580   37.4250 H   0  0  0  0  0  0  0  0  0  0  0  0
   32.9640   29.1970   37.5960 H   0  0  0  0  0  0  0  0  0  0  0  0
   38.1390   32.8050   40.7460 O   0  0  0  0  0  0  0  0  0  0  0  0
   37.5780   31.3800   40.5820 P   0  0  1  0  0  0  0  0  0  0  0  0
   35.9360   31.4640   40.9350 O   0  0  0  0  0  0  0  0  0  0  0  0
   35.3580   30.9910   40.2890 H   0  0  0  0  0  0  0  0  0  0  0  0
   38.3200   30.3240   41.6490 O   0  0  0  0  0  0  0  0  0  0  0  0
   37.7340   29.1930   42.1960 C   0  0  0  0  0  0  0  0  0  0  0  0
   38.4080   28.6350   43.2870 C   0  0  0  0  0  0  0  0  0  0  0  0
   39.3240   28.9030   43.8200 H   0  0  0  0  0  0  0  0  0  0  0  0
   37.6920   27.5550   43.6770 N   0  0  0  0  0  0  0  0  0  0  0  0
   37.7960   26.8330   44.4330 H   0  0  0  0  0  0  0  0  0  0  0  0
   36.6120   27.4240   42.8780 C   0  0  0  0  0  0  0  0  0  0  0  0
   35.7660   26.7580   42.7730 H   0  0  0  0  0  0  0  0  0  0  0  0
   36.6490   28.4250   41.9820 N   0  0  0  0  0  0  0  0  0  0  0  0
  1 15  1  0  0  0  0
  2 10  1  0  0  0  0
  2  7  1  0  0  0  0
  3  2  2  0  0  0  0
  4  3  1  0  0  0  0
  4  5  2  0  0  0  0
  5  6  1  0  0  0  0
  6  7  2  0  0  0  0
  6  1  1  0  0  0  0
  8  3  1  0  0  0  0
  9  4  1  0  0  0  0
 10 11  1  0  0  0  0
 12 10  1  0  0  0  0
 13 10  1  0  0  0  0
 15 14  2  1  0  0  0
 15 16  1  0  0  0  0
 15 18  1  0  0  0  0
 17 16  1  0  0  0  0
 18 19  1  0  0  0  0
 19 20  2  0  0  0  0
 20 22  1  0  0  0  0
 20 21  1  0  0  0  0
 22 23  1  0  0  0  0
 24 22  1  0  0  0  0
 25 24  1  0  0  0  0
 26 19  1  0  0  0  0
 26 24  2  0  0  0  0
M  END
>  <minimizedAffinity>
-4.48889112

$$$$

 OpenBabel03252504473D

 26 27  0  0  0  0  0  0  0  0999 V2000
   37.8850   29.9110   39.8000 O   0  0  0  0  0  0  0  0  0  0  0  0
   36.9180   27.4840   42.2850 C   0  0  0  0  0  0  0  0  0  0  0  0
   37.1820   26.2930   41.6130 C   0  0  0  0  0  0  0  0  0  0  0  0
   37.6930   26.3780   40.3050 C   0  0  0  0  0  0  0  0  0  0  0  0
   37.8970   27.5980   39.7800 N   0  0  0  0  0  0  0  0  0  0  0  0
   37.6200   28.7380   40.4820 C   0  0  0  0  0  0  0  0  0  0  0  0
   37.1280   28.6790   41.7410 N   0  0  0  0  0  0  0  0  0  0  0  0
   36.9890   25.3430   42.1090 H   0  0  0  0  0  0  0  0  0  0  0  0
   37.9020   25.4550   39.7720 H   0  0  0  0  0  0  0  0  0  0  0  0
   36.3740   27.3600   43.6780 C   0  0  0  0  0  0  0  0  0  0  0  0
   36.4270   28.3470   44.1830 H   0  0  0  0  0  0  0  0  0  0  0  0
   37.0070   26.6320   44.1910 H   0  0  0  0  0  0  0  0  0  0  0  0
   35.3200   27.0220   43.5840 H   0  0  0  0  0  0  0  0  0  0  0  0
   36.8820   32.0830   38.8310 O   0  0  0  0  0  0  0  0  0  0  0  0
   37.2690   31.4370   40.1740 P   0  0  1  0  0  0  0  0  0  0  0  0
   35.8680   31.3770   41.1020 O   0  0  0  0  0  0  0  0  0  0  0  0
   35.7160   30.5100   41.5510 H   0  0  0  0  0  0  0  0  0  0  0  0
   38.4190   32.3600   40.9680 O   0  0  0  0  0  0  0  0  0  0  0  0
   39.5640   31.8670   41.5730 C   0  0  0  0  0  0  0  0  0  0  0  0
   40.7710   32.2550   40.9800 C   0  0  0  0  0  0  0  0  0  0  0  0
   41.0160   32.8810   40.1170 H   0  0  0  0  0  0  0  0  0  0  0  0
   41.7620   31.6840   41.7030 N   0  0  0  0  0  0  0  0  0  0  0  0
   42.8110   31.6820   41.6470 H   0  0  0  0  0  0  0  0  0  0  0  0
   41.2220   30.9650   42.7090 C   0  0  0  0  0  0  0  0  0  0  0  0
   41.5630   30.3470   43.5290 H   0  0  0  0  0  0  0  0  0  0  0  0
   39.8860   31.0840   42.6190 N   0  0  0  0  0  0  0  0  0  0  0  0
  1 15  1  0  0  0  0
  1  6  1  0  0  0  0
  2 10  1  0  0  0  0
  3  8  1  0  0  0  0
  3  2  2  0  0  0  0
  4  3  1  0  0  0  0
  5  4  2  0  0  0  0
  5  6  1  0  0  0  0
  6  7  2  0  0  0  0
  7  2  1  0  0  0  0
  9  4  1  0  0  0  0
 10 11  1  0  0  0  0
 10 12  1  0  0  0  0
 13 10  1  0  0  0  0
 15 14  2  6  0  0  0
 15 18  1  0  0  0  0
 15 16  1  0  0  0  0
 16 17  1  0  0  0  0
 18 19  1  0  0  0  0
 19 26  1  0  0  0  0
 20 19  2  0  0  0  0
 20 22  1  0  0  0  0
 21 20  1  0  0  0  0
 22 24  1  0  0  0  0
 23 22  1  0  0  0  0
 24 25  1  0  0  0  0
 26 24  2  0  0  0  0
M  END
>  <minimizedAffinity>
-4.4734869

$$$$
