
 OpenBabel03242516363D

 43 46  0  0  1  0  0  0  0  0999 V2000
   37.4910   29.9280   40.9230 O   0  0  0  0  0  0  0  0  0  0  0  0
   37.6110   32.2550   40.4960 C   0  0  2  0  0  0  0  0  0  0  0  0
   38.7210   31.8740   39.4780 C   0  0  1  0  0  0  0  0  0  0  0  0
   37.9450   31.6800   38.3740 O   0  0  0  0  0  0  0  0  0  0  0  0
   36.9350   30.8050   38.8210 C   0  0  0  0  0  0  0  0  0  0  0  0
   36.8260   30.9720   40.3520 C   0  0  1  0  0  0  0  0  0  0  0  0
   38.0320   32.4180   41.5000 H   0  0  0  0  0  0  0  0  0  0  0  0
   39.1230   30.9100   39.8650 H   0  0  0  0  0  0  0  0  0  0  0  0
   35.9870   31.1670   38.4050 H   0  0  0  0  0  0  0  0  0  0  0  0
   37.1340   29.7570   38.5490 H   0  0  0  0  0  0  0  0  0  0  0  0
   35.7870   31.1010   40.6920 H   0  0  0  0  0  0  0  0  0  0  0  0
   41.5650   34.2400   38.5930 C   0  0  0  0  0  0  0  0  0  0  0  0
   40.7750   33.0920   38.4940 C   0  0  0  0  0  0  0  0  0  0  0  0
   39.7170   32.9480   39.3690 C   0  0  0  0  0  0  0  0  0  0  0  0
   39.5120   33.9570   40.2860 N   0  0  0  0  0  0  0  0  0  0  0  0
   40.2910   35.0500   40.3550 C   0  0  0  0  0  0  0  0  0  0  0  0
   41.3230   35.1880   39.5000 N   0  0  0  0  0  0  0  0  0  0  0  0
   42.3850   34.2780   37.8630 H   0  0  0  0  0  0  0  0  0  0  0  0
   40.8700   32.2680   37.8120 H   0  0  0  0  0  0  0  0  0  0  0  0
   40.0900   35.8190   41.0950 H   0  0  0  0  0  0  0  0  0  0  0  0
   36.8240   33.2560   40.0050 O   0  0  0  0  0  0  0  0  0  0  0  0
   35.8860   33.1040   40.2920 H   0  0  0  0  0  0  0  0  0  0  0  0
   37.0540   28.6010   42.8220 C   0  0  1  0  0  0  0  0  0  0  0  0
   37.6600   30.0040   42.3050 C   0  0  1  0  0  0  0  0  0  0  0  0
   38.9490   29.7760   42.6120 O   0  0  0  0  0  0  0  0  0  0  0  0
   39.1790   28.6010   41.8420 C   0  0  0  0  0  0  0  0  0  0  0  0
   38.1480   27.6590   42.4220 C   0  0  1  0  0  0  0  0  0  0  0  0
   36.0850   28.4550   42.3810 H   0  0  0  0  0  0  0  0  0  0  0  0
   36.9970   30.6850   42.8270 H   0  0  0  0  0  0  0  0  0  0  0  0
   39.0090   28.7560   40.7780 H   0  0  0  0  0  0  0  0  0  0  0  0
   40.2130   28.2340   41.9630 H   0  0  0  0  0  0  0  0  0  0  0  0
   37.7520   26.9870   41.6350 H   0  0  0  0  0  0  0  0  0  0  0  0
   37.0840   28.7110   44.2190 O   0  0  0  0  0  0  0  0  0  0  0  0
   38.0110   28.9860   44.4540 H   0  0  0  0  0  0  0  0  0  0  0  0
   38.7040   27.0050   43.5050 O   0  0  0  0  0  0  0  0  0  0  0  0
   39.9690   26.4460   43.5600 C   0  0  0  0  0  0  0  0  0  0  0  0
   40.1700   25.2020   42.9700 C   0  0  0  0  0  0  0  0  0  0  0  0
   39.5130   24.5460   42.4500 H   0  0  0  0  0  0  0  0  0  0  0  0
   41.4780   24.8680   43.1540 N   0  0  0  0  0  0  0  0  0  0  0  0
   41.9570   23.9820   42.8250 H   0  0  0  0  0  0  0  0  0  0  0  0
   42.0790   25.8630   43.8340 C   0  0  0  0  0  0  0  0  0  0  0  0
   43.1170   25.8960   44.1350 H   0  0  0  0  0  0  0  0  0  0  0  0
   41.1650   26.8400   44.0910 N   0  0  0  0  0  0  0  0  0  0  0  0
  1 24  1  0  0  0  0
  2  7  1  1  0  0  0
  3  8  1  1  0  0  0
  3  2  1  0  0  0  0
  4  5  1  0  0  0  0
  4  3  1  0  0  0  0
  5  6  1  0  0  0  0
  6  2  1  0  0  0  0
  6 11  1  1  0  0  0
  6  1  1  0  0  0  0
  9  5  1  0  0  0  0
 10  5  1  0  0  0  0
 12 17  1  0  0  0  0
 13 12  2  0  0  0  0
 13 14  1  0  0  0  0
 14  3  1  0  0  0  0
 14 15  2  0  0  0  0
 15 16  1  0  0  0  0
 16 20  1  0  0  0  0
 17 16  2  0  0  0  0
 18 12  1  0  0  0  0
 19 13  1  0  0  0  0
 21 22  1  0  0  0  0
 21  2  1  0  0  0  0
 23 28  1  6  0  0  0
 23 33  1  0  0  0  0
 24 25  1  0  0  0  0
 24 23  1  0  0  0  0
 24 29  1  1  0  0  0
 26 31  1  0  0  0  0
 26 27  1  0  0  0  0
 26 25  1  0  0  0  0
 27 32  1  6  0  0  0
 27 23  1  0  0  0  0
 27 35  1  0  0  0  0
 30 26  1  0  0  0  0
 33 34  1  0  0  0  0
 35 36  1  0  0  0  0
 36 43  1  0  0  0  0
 37 39  1  0  0  0  0
 37 36  2  0  0  0  0
 38 37  1  0  0  0  0
 39 41  1  0  0  0  0
 40 39  1  0  0  0  0
 41 43  2  0  0  0  0
 41 42  1  0  0  0  0
M  END
>  <minimizedAffinity>
-6.37045288

$$$$

 OpenBabel03242516363D

 43 46  0  0  1  0  0  0  0  0999 V2000
   37.2070   27.9220   40.7590 O   0  0  0  0  0  0  0  0  0  0  0  0
   38.3020   26.0440   41.7000 C   0  0  2  0  0  0  0  0  0  0  0  0
   38.9550   27.0760   42.6610 C   0  0  1  0  0  0  0  0  0  0  0  0
   38.0220   27.0670   43.6540 O   0  0  0  0  0  0  0  0  0  0  0  0
   36.8040   27.2670   42.9740 C   0  0  0  0  0  0  0  0  0  0  0  0
   37.0100   26.8050   41.5150 C   0  0  1  0  0  0  0  0  0  0  0  0
   38.8950   25.9290   40.7790 H   0  0  0  0  0  0  0  0  0  0  0  0
   38.9300   28.0310   42.0890 H   0  0  0  0  0  0  0  0  0  0  0  0
   36.0730   26.5770   43.4130 H   0  0  0  0  0  0  0  0  0  0  0  0
   36.4630   28.3130   43.0150 H   0  0  0  0  0  0  0  0  0  0  0  0
   36.2050   26.1430   41.1620 H   0  0  0  0  0  0  0  0  0  0  0  0
   42.3020   26.3640   44.3230 C   0  0  0  0  0  0  0  0  0  0  0  0
   41.0380   26.9430   44.1820 C   0  0  0  0  0  0  0  0  0  0  0  0
   40.3010   26.6400   43.0540 C   0  0  0  0  0  0  0  0  0  0  0  0
   40.8690   25.7780   42.1400 N   0  0  0  0  0  0  0  0  0  0  0  0
   42.0880   25.2370   42.3060 C   0  0  0  0  0  0  0  0  0  0  0  0
   42.8050   25.5350   43.4060 N   0  0  0  0  0  0  0  0  0  0  0  0
   42.8220   26.6560   45.2450 H   0  0  0  0  0  0  0  0  0  0  0  0
   40.5310   27.6180   44.8450 H   0  0  0  0  0  0  0  0  0  0  0  0
   42.4930   24.5630   41.5570 H   0  0  0  0  0  0  0  0  0  0  0  0
   37.9910   24.8930   42.3620 O   0  0  0  0  0  0  0  0  0  0  0  0
   37.1400   24.5290   42.0030 H   0  0  0  0  0  0  0  0  0  0  0  0
   36.6730   30.1310   41.3880 C   0  0  1  0  0  0  0  0  0  0  0  0
   36.1210   28.7930   40.6750 C   0  0  1  0  0  0  0  0  0  0  0  0
   36.0270   29.2720   39.4220 O   0  0  0  0  0  0  0  0  0  0  0  0
   37.3800   29.6600   39.2070 C   0  0  0  0  0  0  0  0  0  0  0  0
   37.5840   30.6600   40.3220 C   0  0  1  0  0  0  0  0  0  0  0  0
   37.1110   29.8690   42.3330 H   0  0  0  0  0  0  0  0  0  0  0  0
   35.2860   28.5750   41.3330 H   0  0  0  0  0  0  0  0  0  0  0  0
   38.0750   28.8260   39.3000 H   0  0  0  0  0  0  0  0  0  0  0  0
   37.5200   30.0980   38.2040 H   0  0  0  0  0  0  0  0  0  0  0  0
   38.6230   30.6090   40.7030 H   0  0  0  0  0  0  0  0  0  0  0  0
   35.5550   30.9740   41.4410 O   0  0  0  0  0  0  0  0  0  0  0  0
   35.1850   31.0010   40.5180 H   0  0  0  0  0  0  0  0  0  0  0  0
   37.2010   31.9090   39.8730 O   0  0  0  0  0  0  0  0  0  0  0  0
   37.8810   33.0970   40.0820 C   0  0  0  0  0  0  0  0  0  0  0  0
   37.4430   34.2360   39.4140 C   0  0  0  0  0  0  0  0  0  0  0  0
   36.6440   34.3990   38.7320 H   0  0  0  0  0  0  0  0  0  0  0  0
   38.2620   35.2640   39.7780 N   0  0  0  0  0  0  0  0  0  0  0  0
   38.2000   36.2680   39.4480 H   0  0  0  0  0  0  0  0  0  0  0  0
   39.1790   34.7900   40.6420 C   0  0  0  0  0  0  0  0  0  0  0  0
   39.9690   35.3590   41.1120 H   0  0  0  0  0  0  0  0  0  0  0  0
   38.9580   33.4600   40.8390 N   0  0  0  0  0  0  0  0  0  0  0  0
  1  6  1  0  0  0  0
  2  7  1  6  0  0  0
  2 21  1  0  0  0  0
  2  3  1  0  0  0  0
  3  8  1  6  0  0  0
  3 14  1  0  0  0  0
  3  4  1  0  0  0  0
  5 10  1  0  0  0  0
  5  9  1  0  0  0  0
  5  4  1  0  0  0  0
  6 11  1  6  0  0  0
  6  2  1  0  0  0  0
  6  5  1  0  0  0  0
 12 18  1  0  0  0  0
 13 12  1  0  0  0  0
 13 19  1  0  0  0  0
 14 13  2  0  0  0  0
 15 16  2  0  0  0  0
 15 14  1  0  0  0  0
 16 17  1  0  0  0  0
 17 12  2  0  0  0  0
 20 16  1  0  0  0  0
 22 21  1  0  0  0  0
 23 33  1  0  0  0  0
 23 28  1  1  0  0  0
 24  1  1  0  0  0  0
 24 29  1  1  0  0  0
 24 23  1  0  0  0  0
 25 24  1  0  0  0  0
 26 30  1  0  0  0  0
 26 25  1  0  0  0  0
 26 27  1  0  0  0  0
 27 32  1  1  0  0  0
 27 23  1  0  0  0  0
 31 26  1  0  0  0  0
 34 33  1  0  0  0  0
 35 36  1  0  0  0  0
 35 27  1  0  0  0  0
 36 43  1  0  0  0  0
 37 39  1  0  0  0  0
 37 36  2  0  0  0  0
 38 37  1  0  0  0  0
 39 41  1  0  0  0  0
 40 39  1  0  0  0  0
 41 43  2  0  0  0  0
 41 42  1  0  0  0  0
M  END
>  <minimizedAffinity>
-6.20541096

$$$$

 OpenBabel03242516363D

 43 46  0  0  1  0  0  0  0  0999 V2000
   37.8110   30.4630   40.7510 O   0  0  0  0  0  0  0  0  0  0  0  0
   36.6000   28.6590   41.6940 C   0  0  2  0  0  0  0  0  0  0  0  0
   37.7110   27.7670   41.0750 C   0  0  1  0  0  0  0  0  0  0  0  0
   38.5890   27.7610   42.1170 O   0  0  0  0  0  0  0  0  0  0  0  0
   38.7440   29.1250   42.4350 C   0  0  0  0  0  0  0  0  0  0  0  0
   37.4840   29.8610   41.9300 C   0  0  1  0  0  0  0  0  0  0  0  0
   35.7830   28.8320   40.9760 H   0  0  0  0  0  0  0  0  0  0  0  0
   38.0970   28.3690   40.2220 H   0  0  0  0  0  0  0  0  0  0  0  0
   38.7270   29.2050   43.5290 H   0  0  0  0  0  0  0  0  0  0  0  0
   39.6590   29.5590   42.0020 H   0  0  0  0  0  0  0  0  0  0  0  0
   37.0520   30.5310   42.6880 H   0  0  0  0  0  0  0  0  0  0  0  0
   36.2090   24.7010   39.3980 C   0  0  0  0  0  0  0  0  0  0  0  0
   36.6300   26.0300   39.5000 C   0  0  0  0  0  0  0  0  0  0  0  0
   37.1710   26.4540   40.6960 C   0  0  0  0  0  0  0  0  0  0  0  0
   37.2610   25.5290   41.7150 N   0  0  0  0  0  0  0  0  0  0  0  0
   36.8470   24.2570   41.5830 C   0  0  0  0  0  0  0  0  0  0  0  0
   36.3190   23.8450   40.4160 N   0  0  0  0  0  0  0  0  0  0  0  0
   35.7890   24.4430   38.4160 H   0  0  0  0  0  0  0  0  0  0  0  0
   36.5930   26.8040   38.7570 H   0  0  0  0  0  0  0  0  0  0  0  0
   36.9390   23.5640   42.4150 H   0  0  0  0  0  0  0  0  0  0  0  0
   36.2310   28.1940   42.9220 O   0  0  0  0  0  0  0  0  0  0  0  0
   36.0320   28.9640   43.5170 H   0  0  0  0  0  0  0  0  0  0  0  0
   38.8020   32.5800   41.0640 C   0  0  1  0  0  0  0  0  0  0  0  0
   37.4520   31.8060   40.6400 C   0  0  1  0  0  0  0  0  0  0  0  0
   37.4330   32.1590   39.3420 O   0  0  0  0  0  0  0  0  0  0  0  0
   38.6890   31.6310   38.9280 C   0  0  0  0  0  0  0  0  0  0  0  0
   39.6390   32.3750   39.8380 C   0  0  1  0  0  0  0  0  0  0  0  0
   39.1640   32.1700   41.9890 H   0  0  0  0  0  0  0  0  0  0  0  0
   36.7840   32.1830   41.4070 H   0  0  0  0  0  0  0  0  0  0  0  0
   38.7640   30.5560   39.0830 H   0  0  0  0  0  0  0  0  0  0  0  0
   38.8760   31.8260   37.8580 H   0  0  0  0  0  0  0  0  0  0  0  0
   40.4970   31.7300   40.1130 H   0  0  0  0  0  0  0  0  0  0  0  0
   38.4250   33.9290   41.0950 O   0  0  0  0  0  0  0  0  0  0  0  0
   37.9830   34.1120   40.2230 H   0  0  0  0  0  0  0  0  0  0  0  0
   39.9900   33.5670   39.2340 O   0  0  0  0  0  0  0  0  0  0  0  0
   41.1450   33.8060   38.5090 C   0  0  0  0  0  0  0  0  0  0  0  0
   41.7830   35.0330   38.6660 C   0  0  0  0  0  0  0  0  0  0  0  0
   41.5560   35.8820   39.2650 H   0  0  0  0  0  0  0  0  0  0  0  0
   42.8810   35.0290   37.8590 N   0  0  0  0  0  0  0  0  0  0  0  0
   43.5830   35.8140   37.7440 H   0  0  0  0  0  0  0  0  0  0  0  0
   42.9340   33.8460   37.2180 C   0  0  0  0  0  0  0  0  0  0  0  0
   43.6880   33.5360   36.5070 H   0  0  0  0  0  0  0  0  0  0  0  0
   41.8740   33.0840   37.6070 N   0  0  0  0  0  0  0  0  0  0  0  0
  1  6  1  0  0  0  0
  2  7  1  6  0  0  0
  2  6  1  0  0  0  0
  2 21  1  0  0  0  0
  3  8  1  6  0  0  0
  3  2  1  0  0  0  0
  3  4  1  0  0  0  0
  4  5  1  0  0  0  0
  5  9  1  0  0  0  0
  6  5  1  0  0  0  0
  6 11  1  1  0  0  0
 10  5  1  0  0  0  0
 12 13  2  0  0  0  0
 12 17  1  0  0  0  0
 13 14  1  0  0  0  0
 14  3  1  0  0  0  0
 14 15  2  0  0  0  0
 16 15  1  0  0  0  0
 16 20  1  0  0  0  0
 17 16  2  0  0  0  0
 18 12  1  0  0  0  0
 19 13  1  0  0  0  0
 21 22  1  0  0  0  0
 23 33  1  0  0  0  0
 23 28  1  1  0  0  0
 24  1  1  0  0  0  0
 24 23  1  0  0  0  0
 24 29  1  1  0  0  0
 25 24  1  0  0  0  0
 26 30  1  0  0  0  0
 26 25  1  0  0  0  0
 26 27  1  0  0  0  0
 27 32  1  1  0  0  0
 27 23  1  0  0  0  0
 31 26  1  0  0  0  0
 34 33  1  0  0  0  0
 35 27  1  0  0  0  0
 36 37  2  0  0  0  0
 36 35  1  0  0  0  0
 37 38  1  0  0  0  0
 39 37  1  0  0  0  0
 40 39  1  0  0  0  0
 41 43  2  0  0  0  0
 41 39  1  0  0  0  0
 42 41  1  0  0  0  0
 43 36  1  0  0  0  0
M  END
>  <minimizedAffinity>
-6.08800459

$$$$

 OpenBabel03242516363D

 43 46  0  0  1  0  0  0  0  0999 V2000
   37.3710   29.8890   40.1000 O   0  0  0  0  0  0  0  0  0  0  0  0
   37.7350   32.1860   40.5480 C   0  0  2  0  0  0  0  0  0  0  0  0
   38.9750   32.0310   39.6240 C   0  0  1  0  0  0  0  0  0  0  0  0
   38.3910   32.3260   38.4280 O   0  0  0  0  0  0  0  0  0  0  0  0
   37.2570   31.4900   38.3910 C   0  0  0  0  0  0  0  0  0  0  0  0
   36.8950   31.1420   39.8520 C   0  0  1  0  0  0  0  0  0  0  0  0
   37.9850   31.9420   41.5920 H   0  0  0  0  0  0  0  0  0  0  0  0
   39.2300   30.9490   39.6950 H   0  0  0  0  0  0  0  0  0  0  0  0
   36.4250   32.0930   38.0050 H   0  0  0  0  0  0  0  0  0  0  0  0
   37.4210   30.5800   37.7940 H   0  0  0  0  0  0  0  0  0  0  0  0
   35.8250   31.2820   40.0680 H   0  0  0  0  0  0  0  0  0  0  0  0
   42.1240   33.7240   40.9210 C   0  0  0  0  0  0  0  0  0  0  0  0
   41.2590   32.6610   40.6490 C   0  0  0  0  0  0  0  0  0  0  0  0
   40.0510   32.9380   40.0430 C   0  0  0  0  0  0  0  0  0  0  0  0
   39.7810   34.2570   39.7430 N   0  0  0  0  0  0  0  0  0  0  0  0
   40.6360   35.2570   40.0170 C   0  0  0  0  0  0  0  0  0  0  0  0
   41.8140   34.9840   40.6090 N   0  0  0  0  0  0  0  0  0  0  0  0
   43.0620   33.4200   41.4050 H   0  0  0  0  0  0  0  0  0  0  0  0
   41.3980   31.6160   40.8510 H   0  0  0  0  0  0  0  0  0  0  0  0
   40.3790   36.2810   39.7610 H   0  0  0  0  0  0  0  0  0  0  0  0
   37.1230   33.3870   40.3420 O   0  0  0  0  0  0  0  0  0  0  0  0
   36.1410   33.2720   40.4240 H   0  0  0  0  0  0  0  0  0  0  0  0
   36.2160   28.3800   41.4970 C   0  0  1  0  0  0  0  0  0  0  0  0
   37.3760   29.5000   41.4390 C   0  0  1  0  0  0  0  0  0  0  0  0
   38.4270   28.6920   41.6670 O   0  0  0  0  0  0  0  0  0  0  0  0
   38.2840   27.7910   40.5740 C   0  0  0  0  0  0  0  0  0  0  0  0
   36.9040   27.2290   40.8310 C   0  0  1  0  0  0  0  0  0  0  0  0
   35.3300   28.7700   41.0280 H   0  0  0  0  0  0  0  0  0  0  0  0
   36.9660   30.2160   42.1420 H   0  0  0  0  0  0  0  0  0  0  0  0
   38.3250   28.2930   39.6080 H   0  0  0  0  0  0  0  0  0  0  0  0
   39.0720   27.0190   40.5800 H   0  0  0  0  0  0  0  0  0  0  0  0
   36.3840   27.0250   39.8740 H   0  0  0  0  0  0  0  0  0  0  0  0
   36.1060   28.0740   42.8600 O   0  0  0  0  0  0  0  0  0  0  0  0
   37.0290   27.8720   43.1720 H   0  0  0  0  0  0  0  0  0  0  0  0
   37.0210   26.1320   41.6630 O   0  0  0  0  0  0  0  0  0  0  0  0
   37.2950   24.8330   41.2690 C   0  0  0  0  0  0  0  0  0  0  0  0
   38.3420   24.1590   41.8910 C   0  0  0  0  0  0  0  0  0  0  0  0
   39.0210   24.4500   42.6560 H   0  0  0  0  0  0  0  0  0  0  0  0
   38.4130   22.9150   41.3390 N   0  0  0  0  0  0  0  0  0  0  0  0
   39.1020   22.1510   41.5900 H   0  0  0  0  0  0  0  0  0  0  0  0
   37.4480   22.8090   40.4060 C   0  0  0  0  0  0  0  0  0  0  0  0
   37.2450   21.9420   39.7910 H   0  0  0  0  0  0  0  0  0  0  0  0
   36.7530   23.9790   40.3520 N   0  0  0  0  0  0  0  0  0  0  0  0
  1 24  1  0  0  0  0
  2  7  1  1  0  0  0
  3  8  1  1  0  0  0
  3 14  1  0  0  0  0
  3  2  1  0  0  0  0
  4  3  1  0  0  0  0
  5  4  1  0  0  0  0
  5  6  1  0  0  0  0
  6 11  1  1  0  0  0
  6  1  1  0  0  0  0
  6  2  1  0  0  0  0
  9  5  1  0  0  0  0
 10  5  1  0  0  0  0
 12 18  1  0  0  0  0
 13 19  1  0  0  0  0
 13 12  1  0  0  0  0
 14 13  2  0  0  0  0
 15 16  2  0  0  0  0
 15 14  1  0  0  0  0
 16 17  1  0  0  0  0
 17 12  2  0  0  0  0
 20 16  1  0  0  0  0
 21 22  1  0  0  0  0
 21  2  1  0  0  0  0
 23 28  1  6  0  0  0
 23 33  1  0  0  0  0
 24 23  1  0  0  0  0
 24 25  1  0  0  0  0
 24 29  1  1  0  0  0
 26 31  1  0  0  0  0
 26 27  1  0  0  0  0
 26 25  1  0  0  0  0
 27 32  1  6  0  0  0
 27 23  1  0  0  0  0
 27 35  1  0  0  0  0
 30 26  1  0  0  0  0
 33 34  1  0  0  0  0
 36 35  1  0  0  0  0
 36 37  2  0  0  0  0
 37 38  1  0  0  0  0
 39 40  1  0  0  0  0
 39 37  1  0  0  0  0
 41 39  1  0  0  0  0
 42 41  1  0  0  0  0
 43 41  2  0  0  0  0
 43 36  1  0  0  0  0
M  END
>  <minimizedAffinity>
-6.05645943

$$$$

 OpenBabel03242516363D

 43 46  0  0  1  0  0  0  0  0999 V2000
   38.3290   30.4190   39.4610 O   0  0  0  0  0  0  0  0  0  0  0  0
   37.6100   28.3140   40.2760 C   0  0  2  0  0  0  0  0  0  0  0  0
   38.4090   28.6880   41.5560 C   0  0  1  0  0  0  0  0  0  0  0  0
   37.4230   29.3270   42.2470 O   0  0  0  0  0  0  0  0  0  0  0  0
   36.9120   30.2590   41.3230 C   0  0  0  0  0  0  0  0  0  0  0  0
   37.2400   29.7320   39.9090 C   0  0  1  0  0  0  0  0  0  0  0  0
   38.2530   27.8090   39.5400 H   0  0  0  0  0  0  0  0  0  0  0  0
   39.1790   29.4050   41.1920 H   0  0  0  0  0  0  0  0  0  0  0  0
   35.8190   30.2360   41.4120 H   0  0  0  0  0  0  0  0  0  0  0  0
   37.3200   31.2710   41.4740 H   0  0  0  0  0  0  0  0  0  0  0  0
   36.3700   29.7550   39.2360 H   0  0  0  0  0  0  0  0  0  0  0  0
   39.8920   26.0330   43.8410 C   0  0  0  0  0  0  0  0  0  0  0  0
   39.4540   27.3080   43.4720 C   0  0  0  0  0  0  0  0  0  0  0  0
   38.9530   27.4850   42.1980 C   0  0  0  0  0  0  0  0  0  0  0  0
   38.9180   26.3800   41.3720 N   0  0  0  0  0  0  0  0  0  0  0  0
   39.3460   25.1660   41.7590 C   0  0  0  0  0  0  0  0  0  0  0  0
   39.8350   24.9970   43.0030 N   0  0  0  0  0  0  0  0  0  0  0  0
   40.2760   25.9780   44.8690 H   0  0  0  0  0  0  0  0  0  0  0  0
   39.4490   28.2100   44.0530 H   0  0  0  0  0  0  0  0  0  0  0  0
   39.2990   24.3260   41.0730 H   0  0  0  0  0  0  0  0  0  0  0  0
   36.4490   27.6740   40.5980 O   0  0  0  0  0  0  0  0  0  0  0  0
   35.7370   27.9520   39.9650 H   0  0  0  0  0  0  0  0  0  0  0  0
   38.7860   32.0530   37.8240 C   0  0  1  0  0  0  0  0  0  0  0  0
   38.4700   30.4910   38.0760 C   0  0  1  0  0  0  0  0  0  0  0  0
   39.6700   29.9970   37.7210 O   0  0  0  0  0  0  0  0  0  0  0  0
   40.5010   30.6910   38.6460 C   0  0  0  0  0  0  0  0  0  0  0  0
   40.2070   32.1300   38.2900 C   0  0  1  0  0  0  0  0  0  0  0  0
   38.0570   32.6450   38.3460 H   0  0  0  0  0  0  0  0  0  0  0  0
   37.5550   30.4000   37.5010 H   0  0  0  0  0  0  0  0  0  0  0  0
   40.2390   30.4850   39.6830 H   0  0  0  0  0  0  0  0  0  0  0  0
   41.5640   30.4230   38.5140 H   0  0  0  0  0  0  0  0  0  0  0  0
   40.2370   32.7670   39.1960 H   0  0  0  0  0  0  0  0  0  0  0  0
   38.7930   32.1770   36.4280 O   0  0  0  0  0  0  0  0  0  0  0  0
   39.4070   31.4700   36.0920 H   0  0  0  0  0  0  0  0  0  0  0  0
   41.0710   32.5230   37.2860 O   0  0  0  0  0  0  0  0  0  0  0  0
   42.3350   33.0610   37.4590 C   0  0  0  0  0  0  0  0  0  0  0  0
   42.4420   34.4110   37.7810 C   0  0  0  0  0  0  0  0  0  0  0  0
   41.7100   35.1670   37.9320 H   0  0  0  0  0  0  0  0  0  0  0  0
   43.7690   34.6990   37.8980 N   0  0  0  0  0  0  0  0  0  0  0  0
   44.1920   35.6400   38.1360 H   0  0  0  0  0  0  0  0  0  0  0  0
   44.4710   33.5750   37.6600 C   0  0  0  0  0  0  0  0  0  0  0  0
   45.5480   33.4780   37.6770 H   0  0  0  0  0  0  0  0  0  0  0  0
   43.6040   32.5600   37.3890 N   0  0  0  0  0  0  0  0  0  0  0  0
  1  6  1  0  0  0  0
  2  7  1  6  0  0  0
  2 21  1  0  0  0  0
  2  3  1  0  0  0  0
  3  8  1  6  0  0  0
  3 14  1  0  0  0  0
  3  4  1  0  0  0  0
  5  9  1  0  0  0  0
  5 10  1  0  0  0  0
  5  4  1  0  0  0  0
  6 11  1  6  0  0  0
  6  2  1  0  0  0  0
  6  5  1  0  0  0  0
 12 18  1  0  0  0  0
 13 12  1  0  0  0  0
 13 19  1  0  0  0  0
 14 13  2  0  0  0  0
 15 16  2  0  0  0  0
 15 14  1  0  0  0  0
 16 17  1  0  0  0  0
 17 12  2  0  0  0  0
 20 16  1  0  0  0  0
 22 21  1  0  0  0  0
 23 24  1  0  0  0  0
 23 27  1  0  0  0  0
 23 28  1  1  0  0  0
 24 29  1  6  0  0  0
 24  1  1  0  0  0  0
 25 24  1  0  0  0  0
 25 26  1  0  0  0  0
 26 30  1  0  0  0  0
 27 26  1  0  0  0  0
 27 32  1  1  0  0  0
 31 26  1  0  0  0  0
 33 23  1  0  0  0  0
 34 33  1  0  0  0  0
 35 36  1  0  0  0  0
 35 27  1  0  0  0  0
 36 37  2  0  0  0  0
 37 39  1  0  0  0  0
 37 38  1  0  0  0  0
 39 40  1  0  0  0  0
 41 42  1  0  0  0  0
 41 39  1  0  0  0  0
 43 36  1  0  0  0  0
 43 41  2  0  0  0  0
M  END
>  <minimizedAffinity>
-5.79709148

$$$$

 OpenBabel03242516363D

 43 46  0  0  1  0  0  0  0  0999 V2000
   37.3650   30.2610   39.6420 O   0  0  0  0  0  0  0  0  0  0  0  0
   37.0960   27.9080   39.6050 C   0  0  2  0  0  0  0  0  0  0  0  0
   37.2520   28.0010   41.1480 C   0  0  1  0  0  0  0  0  0  0  0  0
   35.9430   28.1760   41.4870 O   0  0  0  0  0  0  0  0  0  0  0  0
   35.5190   29.2350   40.6610 C   0  0  0  0  0  0  0  0  0  0  0  0
   36.4570   29.2660   39.4340 C   0  0  1  0  0  0  0  0  0  0  0  0
   38.0750   27.8040   39.1130 H   0  0  0  0  0  0  0  0  0  0  0  0
   37.8390   28.9340   41.3040 H   0  0  0  0  0  0  0  0  0  0  0  0
   34.5250   28.9690   40.2800 H   0  0  0  0  0  0  0  0  0  0  0  0
   35.5170   30.2040   41.1840 H   0  0  0  0  0  0  0  0  0  0  0  0
   35.9080   29.3310   38.4830 H   0  0  0  0  0  0  0  0  0  0  0  0
   39.4840   25.3390   42.6980 C   0  0  0  0  0  0  0  0  0  0  0  0
   39.1340   26.6140   42.2420 C   0  0  0  0  0  0  0  0  0  0  0  0
   37.8860   26.7880   41.6800 C   0  0  0  0  0  0  0  0  0  0  0  0
   37.0640   25.6840   41.6080 N   0  0  0  0  0  0  0  0  0  0  0  0
   37.4300   24.4710   42.0570 C   0  0  0  0  0  0  0  0  0  0  0  0
   38.6490   24.3030   42.6050 N   0  0  0  0  0  0  0  0  0  0  0  0
   40.4920   25.2850   43.1300 H   0  0  0  0  0  0  0  0  0  0  0  0
   39.7150   27.5160   42.2640 H   0  0  0  0  0  0  0  0  0  0  0  0
   36.7470   23.6300   41.9790 H   0  0  0  0  0  0  0  0  0  0  0  0
   36.1530   26.9820   39.2670 O   0  0  0  0  0  0  0  0  0  0  0  0
   35.6520   27.3010   38.4710 H   0  0  0  0  0  0  0  0  0  0  0  0
   37.6170   32.5070   40.3150 C   0  0  1  0  0  0  0  0  0  0  0  0
   36.9840   31.5270   39.2000 C   0  0  1  0  0  0  0  0  0  0  0  0
   37.7620   31.8930   38.1650 O   0  0  0  0  0  0  0  0  0  0  0  0
   39.0440   31.5870   38.7040 C   0  0  0  0  0  0  0  0  0  0  0  0
   39.0660   32.4630   39.9360 C   0  0  1  0  0  0  0  0  0  0  0  0
   37.3450   32.1470   41.2900 H   0  0  0  0  0  0  0  0  0  0  0  0
   35.9350   31.7760   39.3210 H   0  0  0  0  0  0  0  0  0  0  0  0
   39.1460   30.5370   38.9720 H   0  0  0  0  0  0  0  0  0  0  0  0
   39.8500   31.8280   37.9900 H   0  0  0  0  0  0  0  0  0  0  0  0
   39.6190   31.9640   40.7560 H   0  0  0  0  0  0  0  0  0  0  0  0
   37.1300   33.7750   39.9690 O   0  0  0  0  0  0  0  0  0  0  0  0
   37.3380   33.8960   39.0040 H   0  0  0  0  0  0  0  0  0  0  0  0
   39.5580   33.7060   39.5880 O   0  0  0  0  0  0  0  0  0  0  0  0
   40.8650   33.9990   39.2410 C   0  0  0  0  0  0  0  0  0  0  0  0
   41.7250   34.4620   40.2340 C   0  0  0  0  0  0  0  0  0  0  0  0
   41.5800   34.6510   41.2700 H   0  0  0  0  0  0  0  0  0  0  0  0
   42.9400   34.6780   39.6540 N   0  0  0  0  0  0  0  0  0  0  0  0
   43.8150   35.0320   40.1340 H   0  0  0  0  0  0  0  0  0  0  0  0
   42.8500   34.3630   38.3480 C   0  0  0  0  0  0  0  0  0  0  0  0
   43.6450   34.4260   37.6180 H   0  0  0  0  0  0  0  0  0  0  0  0
   41.5810   33.9440   38.0800 N   0  0  0  0  0  0  0  0  0  0  0  0
  2  7  1  6  0  0  0
  2  3  1  0  0  0  0
  3  8  1  1  0  0  0
  3  4  1  0  0  0  0
  3 14  1  0  0  0  0
  5 10  1  0  0  0  0
  5  4  1  0  0  0  0
  6 11  1  6  0  0  0
  6  2  1  0  0  0  0
  6  1  1  0  0  0  0
  6  5  1  0  0  0  0
  9  5  1  0  0  0  0
 12 18  1  0  0  0  0
 13 19  1  0  0  0  0
 13 12  2  0  0  0  0
 14 13  1  0  0  0  0
 15 14  2  0  0  0  0
 15 16  1  0  0  0  0
 16 17  2  0  0  0  0
 17 12  1  0  0  0  0
 20 16  1  0  0  0  0
 21  2  1  0  0  0  0
 22 21  1  0  0  0  0
 23 28  1  1  0  0  0
 24 29  1  6  0  0  0
 24  1  1  0  0  0  0
 24 23  1  0  0  0  0
 25 26  1  0  0  0  0
 25 24  1  0  0  0  0
 26 30  1  0  0  0  0
 26 27  1  0  0  0  0
 27 23  1  0  0  0  0
 27 32  1  1  0  0  0
 31 26  1  0  0  0  0
 33 23  1  0  0  0  0
 34 33  1  0  0  0  0
 35 27  1  0  0  0  0
 36 35  1  0  0  0  0
 36 37  2  0  0  0  0
 37 38  1  0  0  0  0
 39 40  1  0  0  0  0
 39 37  1  0  0  0  0
 41 39  1  0  0  0  0
 42 41  1  0  0  0  0
 43 41  2  0  0  0  0
 43 36  1  0  0  0  0
M  END
>  <minimizedAffinity>
-5.71944475

$$$$

 OpenBabel03242516363D

 43 46  0  0  1  0  0  0  0  0999 V2000
   37.9450   31.4640   40.5620 O   0  0  0  0  0  0  0  0  0  0  0  0
   36.0070   30.1590   40.1700 C   0  0  2  0  0  0  0  0  0  0  0  0
   36.9960   28.9630   40.0770 C   0  0  1  0  0  0  0  0  0  0  0  0
   37.0150   28.5960   41.3890 O   0  0  0  0  0  0  0  0  0  0  0  0
   37.2780   29.8000   42.0730 C   0  0  0  0  0  0  0  0  0  0  0  0
   36.8270   30.9580   41.1550 C   0  0  1  0  0  0  0  0  0  0  0  0
   35.8790   30.6440   39.1900 H   0  0  0  0  0  0  0  0  0  0  0  0
   37.9590   29.4330   39.7730 H   0  0  0  0  0  0  0  0  0  0  0  0
   36.6150   29.8260   42.9460 H   0  0  0  0  0  0  0  0  0  0  0  0
   38.3370   29.9040   42.3530 H   0  0  0  0  0  0  0  0  0  0  0  0
   36.2060   31.6980   41.6820 H   0  0  0  0  0  0  0  0  0  0  0  0
   36.0270   25.8270   38.1540 C   0  0  0  0  0  0  0  0  0  0  0  0
   36.6340   26.5740   39.1680 C   0  0  0  0  0  0  0  0  0  0  0  0
   36.4950   27.9460   39.1430 C   0  0  0  0  0  0  0  0  0  0  0  0
   35.7600   28.4900   38.1110 N   0  0  0  0  0  0  0  0  0  0  0  0
   35.1880   27.7430   37.1510 C   0  0  0  0  0  0  0  0  0  0  0  0
   35.3250   26.4040   37.1770 N   0  0  0  0  0  0  0  0  0  0  0  0
   36.1850   24.7440   38.2470 H   0  0  0  0  0  0  0  0  0  0  0  0
   37.2180   26.2260   39.9990 H   0  0  0  0  0  0  0  0  0  0  0  0
   34.6170   28.2170   36.3570 H   0  0  0  0  0  0  0  0  0  0  0  0
   34.8620   29.7930   40.8140 O   0  0  0  0  0  0  0  0  0  0  0  0
   34.5410   30.5520   41.3670 H   0  0  0  0  0  0  0  0  0  0  0  0
   38.6920   33.6940   40.3940 C   0  0  1  0  0  0  0  0  0  0  0  0
   37.7410   32.5680   39.7350 C   0  0  1  0  0  0  0  0  0  0  0  0
   38.4190   32.3990   38.5860 O   0  0  0  0  0  0  0  0  0  0  0  0
   39.6870   32.0130   39.1060 C   0  0  0  0  0  0  0  0  0  0  0  0
   40.0400   33.2150   39.9520 C   0  0  1  0  0  0  0  0  0  0  0  0
   38.4990   33.7400   41.4500 H   0  0  0  0  0  0  0  0  0  0  0  0
   36.7830   33.0660   39.8360 H   0  0  0  0  0  0  0  0  0  0  0  0
   39.6350   31.1110   39.7140 H   0  0  0  0  0  0  0  0  0  0  0  0
   40.4160   31.8270   38.2980 H   0  0  0  0  0  0  0  0  0  0  0  0
   40.6040   32.9010   40.8530 H   0  0  0  0  0  0  0  0  0  0  0  0
   38.3990   34.8550   39.6650 O   0  0  0  0  0  0  0  0  0  0  0  0
   38.4870   34.6070   38.7050 H   0  0  0  0  0  0  0  0  0  0  0  0
   40.6950   34.1380   39.1610 O   0  0  0  0  0  0  0  0  0  0  0  0
   42.0250   34.0890   38.7780 C   0  0  0  0  0  0  0  0  0  0  0  0
   42.3260   34.1480   37.4200 C   0  0  0  0  0  0  0  0  0  0  0  0
   41.7100   34.2280   36.5570 H   0  0  0  0  0  0  0  0  0  0  0  0
   43.6820   34.0830   37.2980 N   0  0  0  0  0  0  0  0  0  0  0  0
   44.2370   34.1040   36.3970 H   0  0  0  0  0  0  0  0  0  0  0  0
   44.2150   33.9880   38.5310 C   0  0  0  0  0  0  0  0  0  0  0  0
   45.2680   33.9190   38.7690 H   0  0  0  0  0  0  0  0  0  0  0  0
   43.2100   33.9900   39.4500 N   0  0  0  0  0  0  0  0  0  0  0  0
  1  6  1  0  0  0  0
  2  7  1  6  0  0  0
  2 21  1  0  0  0  0
  2  6  1  0  0  0  0
  3  8  1  6  0  0  0
  3  2  1  0  0  0  0
  3  4  1  0  0  0  0
  4  5  1  0  0  0  0
  5 10  1  0  0  0  0
  5  9  1  0  0  0  0
  6 11  1  1  0  0  0
  6  5  1  0  0  0  0
 12 18  1  0  0  0  0
 12 13  1  0  0  0  0
 13 19  1  0  0  0  0
 14 13  2  0  0  0  0
 14  3  1  0  0  0  0
 15 14  1  0  0  0  0
 16 17  1  0  0  0  0
 16 15  2  0  0  0  0
 17 12  2  0  0  0  0
 20 16  1  0  0  0  0
 21 22  1  0  0  0  0
 23 28  1  1  0  0  0
 24 29  1  6  0  0  0
 24 23  1  0  0  0  0
 24  1  1  0  0  0  0
 25 26  1  0  0  0  0
 25 24  1  0  0  0  0
 26 30  1  0  0  0  0
 26 27  1  0  0  0  0
 27 23  1  0  0  0  0
 27 32  1  1  0  0  0
 31 26  1  0  0  0  0
 33 23  1  0  0  0  0
 34 33  1  0  0  0  0
 35 27  1  0  0  0  0
 36 35  1  0  0  0  0
 36 43  1  0  0  0  0
 37 36  2  0  0  0  0
 38 37  1  0  0  0  0
 39 37  1  0  0  0  0
 39 41  1  0  0  0  0
 40 39  1  0  0  0  0
 41 42  1  0  0  0  0
 41 43  2  0  0  0  0
M  END
>  <minimizedAffinity>
-5.71473932

$$$$

 OpenBabel03242516363D

 43 46  0  0  1  0  0  0  0  0999 V2000
   40.1990   31.9610   38.2470 O   0  0  0  0  0  0  0  0  0  0  0  0
   41.8710   33.5710   37.7740 C   0  0  2  0  0  0  0  0  0  0  0  0
   42.8190   32.6170   38.5520 C   0  0  1  0  0  0  0  0  0  0  0  0
   43.2360   31.8350   37.5160 O   0  0  0  0  0  0  0  0  0  0  0  0
   42.0380   31.4360   36.8900 C   0  0  0  0  0  0  0  0  0  0  0  0
   40.9620   32.4850   37.2470 C   0  0  1  0  0  0  0  0  0  0  0  0
   41.3780   34.2830   38.4540 H   0  0  0  0  0  0  0  0  0  0  0  0
   42.1390   32.0580   39.2340 H   0  0  0  0  0  0  0  0  0  0  0  0
   42.1970   31.5170   35.8080 H   0  0  0  0  0  0  0  0  0  0  0  0
   41.7210   30.4250   37.1890 H   0  0  0  0  0  0  0  0  0  0  0  0
   40.3990   32.8310   36.3670 H   0  0  0  0  0  0  0  0  0  0  0  0
   45.9440   34.4850   39.6550 C   0  0  0  0  0  0  0  0  0  0  0  0
   45.1380   33.7250   38.8030 C   0  0  0  0  0  0  0  0  0  0  0  0
   43.8750   33.3770   39.2340 C   0  0  0  0  0  0  0  0  0  0  0  0
   43.4920   33.8080   40.4870 N   0  0  0  0  0  0  0  0  0  0  0  0
   44.2920   34.5390   41.2830 C   0  0  0  0  0  0  0  0  0  0  0  0
   45.5250   34.8770   40.8600 N   0  0  0  0  0  0  0  0  0  0  0  0
   46.9330   34.7180   39.2380 H   0  0  0  0  0  0  0  0  0  0  0  0
   45.3630   33.3540   37.8210 H   0  0  0  0  0  0  0  0  0  0  0  0
   43.9460   34.8560   42.2630 H   0  0  0  0  0  0  0  0  0  0  0  0
   42.5050   34.1130   36.6950 O   0  0  0  0  0  0  0  0  0  0  0  0
   41.8600   34.1980   35.9450 H   0  0  0  0  0  0  0  0  0  0  0  0
   39.2350   29.9050   38.8820 C   0  0  1  0  0  0  0  0  0  0  0  0
   39.1550   31.1330   37.8380 C   0  0  1  0  0  0  0  0  0  0  0  0
   37.9840   31.6520   38.2490 O   0  0  0  0  0  0  0  0  0  0  0  0
   38.3020   31.9240   39.6100 C   0  0  0  0  0  0  0  0  0  0  0  0
   38.6670   30.5450   40.1120 C   0  0  1  0  0  0  0  0  0  0  0  0
   40.2490   29.5510   38.9280 H   0  0  0  0  0  0  0  0  0  0  0  0
   39.3150   30.5890   36.9140 H   0  0  0  0  0  0  0  0  0  0  0  0
   39.1410   32.6110   39.7160 H   0  0  0  0  0  0  0  0  0  0  0  0
   37.4430   32.3640   40.1460 H   0  0  0  0  0  0  0  0  0  0  0  0
   39.4740   30.6090   40.8690 H   0  0  0  0  0  0  0  0  0  0  0  0
   38.2850   28.9910   38.4070 O   0  0  0  0  0  0  0  0  0  0  0  0
   37.4420   29.5070   38.2870 H   0  0  0  0  0  0  0  0  0  0  0  0
   37.5190   29.9160   40.5520 O   0  0  0  0  0  0  0  0  0  0  0  0
   37.3600   29.2570   41.7590 C   0  0  0  0  0  0  0  0  0  0  0  0
   36.3820   28.2700   41.8510 C   0  0  0  0  0  0  0  0  0  0  0  0
   35.6860   27.8900   41.1430 H   0  0  0  0  0  0  0  0  0  0  0  0
   36.4190   27.7750   43.1200 N   0  0  0  0  0  0  0  0  0  0  0  0
   35.8030   27.0110   43.5180 H   0  0  0  0  0  0  0  0  0  0  0  0
   37.3820   28.4240   43.8010 C   0  0  0  0  0  0  0  0  0  0  0  0
   37.6560   28.2590   44.8350 H   0  0  0  0  0  0  0  0  0  0  0  0
   37.9690   29.3370   42.9790 N   0  0  0  0  0  0  0  0  0  0  0  0
  2  7  1  1  0  0  0
  2  3  1  0  0  0  0
  3 14  1  0  0  0  0
  3  8  1  1  0  0  0
  4  3  1  0  0  0  0
  5 10  1  0  0  0  0
  5  6  1  0  0  0  0
  5  4  1  0  0  0  0
  6 11  1  6  0  0  0
  6  2  1  0  0  0  0
  6  1  1  0  0  0  0
  9  5  1  0  0  0  0
 12 17  1  0  0  0  0
 13 14  1  0  0  0  0
 13 12  2  0  0  0  0
 14 15  2  0  0  0  0
 15 16  1  0  0  0  0
 16 20  1  0  0  0  0
 17 16  2  0  0  0  0
 18 12  1  0  0  0  0
 19 13  1  0  0  0  0
 21  2  1  0  0  0  0
 22 21  1  0  0  0  0
 23 28  1  1  0  0  0
 23 27  1  0  0  0  0
 24 29  1  6  0  0  0
 24  1  1  0  0  0  0
 24 25  1  0  0  0  0
 24 23  1  0  0  0  0
 25 26  1  0  0  0  0
 26 30  1  0  0  0  0
 26 27  1  0  0  0  0
 26 31  1  0  0  0  0
 27 35  1  0  0  0  0
 27 32  1  1  0  0  0
 33 23  1  0  0  0  0
 34 33  1  0  0  0  0
 35 36  1  0  0  0  0
 36 37  2  0  0  0  0
 36 43  1  0  0  0  0
 37 39  1  0  0  0  0
 38 37  1  0  0  0  0
 39 40  1  0  0  0  0
 39 41  1  0  0  0  0
 41 42  1  0  0  0  0
 43 41  2  0  0  0  0
M  END
>  <minimizedAffinity>
-5.65895033

$$$$

 OpenBabel03242516363D

 43 46  0  0  1  0  0  0  0  0999 V2000
   38.0220   30.7650   40.3720 O   0  0  0  0  0  0  0  0  0  0  0  0
   38.8480   32.8690   41.0790 C   0  0  2  0  0  0  0  0  0  0  0  0
   40.1360   32.4710   40.3070 C   0  0  1  0  0  0  0  0  0  0  0  0
   39.8180   32.9740   39.0810 O   0  0  0  0  0  0  0  0  0  0  0  0
   38.5360   32.4480   38.8230 C   0  0  0  0  0  0  0  0  0  0  0  0
   37.8950   32.1090   40.1860 C   0  0  1  0  0  0  0  0  0  0  0  0
   38.8800   32.5080   42.1180 H   0  0  0  0  0  0  0  0  0  0  0  0
   40.1170   31.3580   40.3060 H   0  0  0  0  0  0  0  0  0  0  0  0
   37.9350   33.2590   38.3940 H   0  0  0  0  0  0  0  0  0  0  0  0
   38.5670   31.5640   38.1670 H   0  0  0  0  0  0  0  0  0  0  0  0
   36.8690   32.4950   40.2790 H   0  0  0  0  0  0  0  0  0  0  0  0
   43.3740   33.2540   42.1450 C   0  0  0  0  0  0  0  0  0  0  0  0
   42.3310   32.4550   41.6670 C   0  0  0  0  0  0  0  0  0  0  0  0
   41.3240   33.0580   40.9410 C   0  0  0  0  0  0  0  0  0  0  0  0
   41.4190   34.4180   40.7350 N   0  0  0  0  0  0  0  0  0  0  0  0
   42.4370   35.1580   41.2070 C   0  0  0  0  0  0  0  0  0  0  0  0
   43.4180   34.5680   41.9160 N   0  0  0  0  0  0  0  0  0  0  0  0
   44.1320   32.6990   42.7120 H   0  0  0  0  0  0  0  0  0  0  0  0
   42.1880   31.3980   41.7860 H   0  0  0  0  0  0  0  0  0  0  0  0
   42.4680   36.2270   41.0190 H   0  0  0  0  0  0  0  0  0  0  0  0
   38.5720   34.1950   40.9130 O   0  0  0  0  0  0  0  0  0  0  0  0
   37.5890   34.3200   40.8590 H   0  0  0  0  0  0  0  0  0  0  0  0
   37.1410   28.5810   40.2490 C   0  0  1  0  0  0  0  0  0  0  0  0
   36.8550   30.0930   40.7340 C   0  0  1  0  0  0  0  0  0  0  0  0
   36.8600   29.8690   42.0600 O   0  0  0  0  0  0  0  0  0  0  0  0
   38.1700   29.3330   42.2110 C   0  0  0  0  0  0  0  0  0  0  0  0
   38.1050   28.1270   41.3020 C   0  0  1  0  0  0  0  0  0  0  0  0
   37.4850   28.6000   39.2310 H   0  0  0  0  0  0  0  0  0  0  0  0
   35.9780   30.3080   40.1330 H   0  0  0  0  0  0  0  0  0  0  0  0
   38.9460   30.0240   41.8870 H   0  0  0  0  0  0  0  0  0  0  0  0
   38.3800   29.0680   43.2620 H   0  0  0  0  0  0  0  0  0  0  0  0
   39.0860   27.9550   40.8160 H   0  0  0  0  0  0  0  0  0  0  0  0
   35.9280   27.9160   40.4760 O   0  0  0  0  0  0  0  0  0  0  0  0
   35.6770   28.1130   41.4180 H   0  0  0  0  0  0  0  0  0  0  0  0
   37.6290   27.0510   42.0250 O   0  0  0  0  0  0  0  0  0  0  0  0
   38.3490   25.9250   42.3850 C   0  0  0  0  0  0  0  0  0  0  0  0
   37.8260   24.6750   42.0670 C   0  0  0  0  0  0  0  0  0  0  0  0
   36.9320   24.3820   41.5720 H   0  0  0  0  0  0  0  0  0  0  0  0
   38.7060   23.7370   42.5190 N   0  0  0  0  0  0  0  0  0  0  0  0
   38.6070   22.6860   42.4350 H   0  0  0  0  0  0  0  0  0  0  0  0
   39.7420   24.3710   43.0980 C   0  0  0  0  0  0  0  0  0  0  0  0
   40.6050   23.9030   43.5540 H   0  0  0  0  0  0  0  0  0  0  0  0
   39.5380   25.7150   43.0240 N   0  0  0  0  0  0  0  0  0  0  0  0
  1 24  1  0  0  0  0
  2  7  1  1  0  0  0
  3  8  1  6  0  0  0
  3 14  1  0  0  0  0
  3  2  1  0  0  0  0
  4  3  1  0  0  0  0
  5  4  1  0  0  0  0
  5  6  1  0  0  0  0
  6 11  1  1  0  0  0
  6  1  1  0  0  0  0
  6  2  1  0  0  0  0
  9  5  1  0  0  0  0
 10  5  1  0  0  0  0
 12 18  1  0  0  0  0
 13 19  1  0  0  0  0
 13 12  2  0  0  0  0
 14 13  1  0  0  0  0
 15 14  2  0  0  0  0
 15 16  1  0  0  0  0
 16 17  2  0  0  0  0
 17 12  1  0  0  0  0
 20 16  1  0  0  0  0
 21  2  1  0  0  0  0
 22 21  1  0  0  0  0
 23 28  1  6  0  0  0
 23 33  1  0  0  0  0
 23 24  1  0  0  0  0
 23 27  1  0  0  0  0
 24 29  1  6  0  0  0
 24 25  1  0  0  0  0
 25 26  1  0  0  0  0
 26 31  1  0  0  0  0
 27 32  1  6  0  0  0
 27 35  1  0  0  0  0
 27 26  1  0  0  0  0
 30 26  1  0  0  0  0
 33 34  1  0  0  0  0
 35 36  1  0  0  0  0
 36 43  1  0  0  0  0
 37 36  2  0  0  0  0
 37 39  1  0  0  0  0
 38 37  1  0  0  0  0
 39 41  1  0  0  0  0
 40 39  1  0  0  0  0
 41 42  1  0  0  0  0
 43 41  2  0  0  0  0
M  END
>  <minimizedAffinity>
-5.57566547

$$$$
