
 OpenBabel03252506463D

 41 44  0  0  1  0  0  0  0  0999 V2000
   49.5600   33.4430   41.3890 N   0  0  1  0  0  0  0  0  0  0  0  0
   50.7050   33.0100   42.1480 C   0  0  0  0  0  0  0  0  0  0  0  0
   51.2500   31.6900   41.6780 C   0  0  0  0  0  0  0  0  0  0  0  0
   50.2390   30.6130   42.0210 C   0  0  0  0  0  0  0  0  0  0  0  0
   48.8370   31.1180   41.8070 C   0  0  0  0  0  0  0  0  0  0  0  0
   48.8750   32.3050   40.8800 C   0  0  2  0  0  0  0  0  0  0  0  0
   51.4850   33.7840   42.1220 H   0  0  0  0  0  0  0  0  0  0  0  0
   50.4160   32.8830   43.2300 H   0  0  0  0  0  0  0  0  0  0  0  0
   51.5750   31.6840   40.6420 H   0  0  0  0  0  0  0  0  0  0  0  0
   52.1370   31.4830   42.3070 H   0  0  0  0  0  0  0  0  0  0  0  0
   50.4750   29.7380   41.3770 H   0  0  0  0  0  0  0  0  0  0  0  0
   50.3840   30.3080   43.0780 H   0  0  0  0  0  0  0  0  0  0  0  0
   48.1690   30.3770   41.3590 H   0  0  0  0  0  0  0  0  0  0  0  0
   48.4680   31.4930   42.7900 H   0  0  0  0  0  0  0  0  0  0  0  0
   47.8040   32.6230   40.7380 H   0  0  0  0  0  0  0  0  0  0  0  0
   47.3540   34.6550   41.9590 C   0  0  1  0  0  0  0  0  0  0  0  0
   48.4460   35.6350   41.7300 C   0  0  0  0  0  0  0  0  0  0  0  0
   48.7610   34.2720   42.2320 C   0  0  2  0  0  0  0  0  0  0  0  0
   46.8520   34.2930   41.0240 H   0  0  0  0  0  0  0  0  0  0  0  0
   48.7310   35.8830   40.6720 H   0  0  0  0  0  0  0  0  0  0  0  0
   48.5170   36.5170   42.3950 H   0  0  0  0  0  0  0  0  0  0  0  0
   49.0230   34.2050   43.3180 H   0  0  0  0  0  0  0  0  0  0  0  0
   45.5260   35.9520   43.1000 C   0  0  0  0  0  0  0  0  0  0  0  0
   46.4210   34.8770   43.0690 C   0  0  0  0  0  0  0  0  0  0  0  0
   46.3820   33.9870   44.1580 C   0  0  0  0  0  0  0  0  0  0  0  0
   45.4990   34.2030   45.1670 N   0  0  0  0  0  0  0  0  0  0  0  0
   44.6500   35.2640   45.1490 C   0  0  0  0  0  0  0  0  0  0  0  0
   44.6560   36.1440   44.1160 N   0  0  0  0  0  0  0  0  0  0  0  0
   45.5820   36.6240   42.2400 H   0  0  0  0  0  0  0  0  0  0  0  0
   47.0580   33.1380   44.1840 H   0  0  0  0  0  0  0  0  0  0  0  0
   43.9730   35.3870   45.9820 H   0  0  0  0  0  0  0  0  0  0  0  0
   49.3090   31.8720   39.5630 N   0  0  0  0  0  0  0  0  0  0  0  0
   50.1110   31.3100   39.1350 H   0  0  0  0  0  0  0  0  0  0  0  0
   48.3460   32.3670   38.6040 C   0  0  0  0  0  0  0  0  0  0  0  0
   47.1410   32.0480   38.0180 C   0  0  0  0  0  0  0  0  0  0  0  0
   46.7330   31.1240   38.3430 H   0  0  0  0  0  0  0  0  0  0  0  0
   46.8000   33.0250   37.1640 N   0  0  0  0  0  0  0  0  0  0  0  0
   45.9050   32.9550   36.6210 H   0  0  0  0  0  0  0  0  0  0  0  0
   47.7470   33.9790   37.1740 C   0  0  0  0  0  0  0  0  0  0  0  0
   47.6480   34.8530   36.5500 H   0  0  0  0  0  0  0  0  0  0  0  0
   48.6990   33.5700   38.0630 N   0  0  0  0  0  0  0  0  0  0  0  0
  1  2  1  1  0  0  0
  1 18  1  0  0  0  0
  2  8  1  0  0  0  0
  3  4  1  0  0  0  0
  3  2  1  0  0  0  0
  3 10  1  0  0  0  0
  4 12  1  0  0  0  0
  5  4  1  0  0  0  0
  5 14  1  0  0  0  0
  6 15  1  6  0  0  0
  6  1  1  0  0  0  0
  6  5  1  0  0  0  0
  7  2  1  0  0  0  0
  9  3  1  0  0  0  0
 11  4  1  0  0  0  0
 13  5  1  0  0  0  0
 16 19  1  6  0  0  0
 16 18  1  0  0  0  0
 16 24  1  0  0  0  0
 17 16  1  0  0  0  0
 17 18  1  0  0  0  0
 17 21  1  0  0  0  0
 18 22  1  1  0  0  0
 20 17  1  0  0  0  0
 23 28  1  0  0  0  0
 24 23  2  0  0  0  0
 24 25  1  0  0  0  0
 25 30  1  0  0  0  0
 25 26  2  0  0  0  0
 27 26  1  0  0  0  0
 27 31  1  0  0  0  0
 28 27  2  0  0  0  0
 29 23  1  0  0  0  0
 32  6  1  0  0  0  0
 33 32  1  0  0  0  0
 34 32  1  0  0  0  0
 35 36  1  0  0  0  0
 35 34  2  0  0  0  0
 37 39  1  0  0  0  0
 37 35  1  0  0  0  0
 38 37  1  0  0  0  0
 39 41  2  0  0  0  0
 40 39  1  0  0  0  0
 41 34  1  0  0  0  0
M  END
>  <minimizedAffinity>
-5.02908325

>  <minimizedRMSD>
2.46081591

$$$$
