
 OpenBabel03252505273D

 23 24  0  0  0  0  0  0  0  0999 V2000
   47.2600   32.3230   47.9200 O   0  0  0  0  0  0  0  0  0  0  0  0
   46.1360   32.5430   46.8980 P   0  0  1  0  0  0  0  0  0  0  0  0
   44.8560   33.3880   47.5640 O   0  0  0  0  0  0  0  0  0  0  0  0
   44.0040   33.1430   47.1320 H   0  0  0  0  0  0  0  0  0  0  0  0
   46.8230   33.3910   45.6090 O   0  0  0  0  0  0  0  0  0  0  0  0
   44.4000   35.6940   44.4020 C   0  0  0  0  0  0  0  0  0  0  0  0
   44.7460   35.8910   43.0420 C   0  0  0  0  0  0  0  0  0  0  0  0
   45.8570   35.1830   42.5840 C   0  0  0  0  0  0  0  0  0  0  0  0
   46.5260   34.3720   43.4280 N   0  0  0  0  0  0  0  0  0  0  0  0
   46.1530   34.2180   44.7210 C   0  0  0  0  0  0  0  0  0  0  0  0
   45.0990   34.8740   45.1990 N   0  0  0  0  0  0  0  0  0  0  0  0
   43.5340   36.2630   44.7080 H   0  0  0  0  0  0  0  0  0  0  0  0
   44.2410   36.5210   42.3540 H   0  0  0  0  0  0  0  0  0  0  0  0
   46.2520   35.2270   41.5590 H   0  0  0  0  0  0  0  0  0  0  0  0
   45.6080   31.0160   46.4220 O   0  0  0  0  0  0  0  0  0  0  0  0
   45.3350   30.0080   47.3350 C   0  0  0  0  0  0  0  0  0  0  0  0
   45.0660   29.8460   48.6660 C   0  0  0  0  0  0  0  0  0  0  0  0
   45.0430   30.7590   49.2560 H   0  0  0  0  0  0  0  0  0  0  0  0
   44.8840   28.5560   48.9580 N   0  0  0  0  0  0  0  0  0  0  0  0
   44.6700   28.2460   49.9270 H   0  0  0  0  0  0  0  0  0  0  0  0
   45.0380   27.8930   47.8060 C   0  0  0  0  0  0  0  0  0  0  0  0
   44.9280   26.7970   47.8170 H   0  0  0  0  0  0  0  0  0  0  0  0
   45.3160   28.7590   46.7880 N   0  0  0  0  0  0  0  0  0  0  0  0
  2  3  1  0  0  0  0
  2  1  2  1  0  0  0
  4  3  1  0  0  0  0
  5  2  1  0  0  0  0
  6 12  1  0  0  0  0
  6 11  1  0  0  0  0
  7  6  2  0  0  0  0
  8  7  1  0  0  0  0
  8  9  2  0  0  0  0
  9 10  1  0  0  0  0
 10 11  2  0  0  0  0
 10  5  1  0  0  0  0
 13  7  1  0  0  0  0
 14  8  1  0  0  0  0
 15  2  1  0  0  0  0
 15 16  1  0  0  0  0
 16 17  2  0  0  0  0
 17 19  1  0  0  0  0
 17 18  1  0  0  0  0
 19 20  1  0  0  0  0
 21 22  1  0  0  0  0
 21 19  1  0  0  0  0
 23 16  1  0  0  0  0
 23 21  2  0  0  0  0
M  END
>  <minimizedAffinity>
-4.58222055

>  <minimizedRMSD>
0.47030893

$$$$
