
 OpenBabel03252501593D

 35 37  0  0  0  0  0  0  0  0999 V2000
   44.4150   35.9010   45.2410 C   0  0  0  0  0  0  0  0  0  0  0  0
   45.1720   35.9250   44.0640 C   0  0  0  0  0  0  0  0  0  0  0  0
   46.0780   34.9330   43.8310 C   0  0  0  0  0  0  0  0  0  0  0  0
   46.2170   33.9380   44.7660 N   0  0  0  0  0  0  0  0  0  0  0  0
   45.4770   33.9250   45.9050 C   0  0  0  0  0  0  0  0  0  0  0  0
   44.5780   34.9010   46.1460 N   0  0  0  0  0  0  0  0  0  0  0  0
   43.6480   36.4900   45.6480 H   0  0  0  0  0  0  0  0  0  0  0  0
   45.7480   33.0560   46.4930 H   0  0  0  0  0  0  0  0  0  0  0  0
   46.8350   34.9510   42.6170 C   0  0  0  0  0  0  0  0  0  0  0  0
   48.0200   35.5720   42.3560 C   0  0  0  0  0  0  0  0  0  0  0  0
   48.5970   35.4660   41.1030 C   0  0  0  0  0  0  0  0  0  0  0  0
   47.9910   34.7390   40.1100 C   0  0  0  0  0  0  0  0  0  0  0  0
   46.8060   34.1070   40.3410 C   0  0  0  0  0  0  0  0  0  0  0  0
   46.2480   34.2270   41.5980 C   0  0  0  0  0  0  0  0  0  0  0  0
   48.4400   36.1280   43.1880 H   0  0  0  0  0  0  0  0  0  0  0  0
   49.5380   35.9910   40.9830 H   0  0  0  0  0  0  0  0  0  0  0  0
   48.5490   34.7420   39.1860 H   0  0  0  0  0  0  0  0  0  0  0  0
   46.3570   33.5440   39.5360 H   0  0  0  0  0  0  0  0  0  0  0  0
   45.2950   33.6830   41.6870 H   0  0  0  0  0  0  0  0  0  0  0  0
   44.8860   37.0340   43.1310 C   0  0  0  0  0  0  0  0  0  0  0  0
   43.8740   37.0040   42.6890 H   0  0  0  0  0  0  0  0  0  0  0  0
   45.6070   36.9020   42.2900 H   0  0  0  0  0  0  0  0  0  0  0  0
   45.1470   38.2610   43.8530 N   0  0  0  0  0  0  0  0  0  0  0  0
   45.1020   38.8870   45.1250 C   0  0  0  0  0  0  0  0  0  0  0  0
   45.8080   40.0150   45.5750 C   0  0  0  0  0  0  0  0  0  0  0  0
   46.5280   40.5760   44.9960 H   0  0  0  0  0  0  0  0  0  0  0  0
   45.3640   40.1790   46.8330 N   0  0  0  0  0  0  0  0  0  0  0  0
   45.7290   40.9720   47.4380 H   0  0  0  0  0  0  0  0  0  0  0  0
   44.4540   39.2590   47.1940 C   0  0  0  0  0  0  0  0  0  0  0  0
   43.9880   39.2440   48.1810 H   0  0  0  0  0  0  0  0  0  0  0  0
   44.2820   38.4490   46.1370 N   0  0  0  0  0  0  0  0  0  0  0  0
   45.6480   39.3060   42.9560 C   0  0  0  0  0  0  0  0  0  0  0  0
   46.9820   39.2830   42.7900 F   0  0  0  0  0  0  0  0  0  0  0  0
   45.3250   40.5710   43.4430 F   0  0  0  0  0  0  0  0  0  0  0  0
   45.0230   39.1660   41.7470 F   0  0  0  0  0  0  0  0  0  0  0  0
  1  7  1  0  0  0  0
  1  6  1  0  0  0  0
  2  1  2  0  0  0  0
  3  2  1  0  0  0  0
  3  4  2  0  0  0  0
  4  5  1  0  0  0  0
  5  6  2  0  0  0  0
  5  8  1  0  0  0  0
  9  3  1  0  0  0  0
 10  9  1  0  0  0  0
 10 15  1  0  0  0  0
 11 10  2  0  0  0  0
 12 13  2  0  0  0  0
 12 11  1  0  0  0  0
 13 14  1  0  0  0  0
 14 19  1  0  0  0  0
 14  9  2  0  0  0  0
 16 11  1  0  0  0  0
 17 12  1  0  0  0  0
 18 13  1  0  0  0  0
 20 23  1  0  0  0  0
 20  2  1  0  0  0  0
 21 20  1  0  0  0  0
 22 20  1  0  0  0  0
 23 24  1  0  0  0  0
 24 25  2  0  0  0  0
 24 31  1  0  0  0  0
 25 27  1  0  0  0  0
 26 25  1  0  0  0  0
 27 29  1  0  0  0  0
 27 28  1  0  0  0  0
 29 30  1  0  0  0  0
 31 29  2  0  0  0  0
 32 34  1  0  0  0  0
 32 23  1  0  0  0  0
 33 32  1  0  0  0  0
 35 32  1  0  0  0  0
M  END
>  <minimizedAffinity>
0.650113702

>  <minimizedRMSD>
0.782353401

$$$$
