
 OpenBabel03252504233D

 31 34  0  0  0  0  0  0  0  0999 V2000
   38.8580   33.4560   40.4080 C   0  0  0  0  0  0  0  0  0  0  0  0
   37.6250   33.3400   39.7910 C   0  0  0  0  0  0  0  0  0  0  0  0
   36.9780   32.0800   39.8100 C   0  0  0  0  0  0  0  0  0  0  0  0
   37.6330   31.0660   40.4470 N   0  0  0  0  0  0  0  0  0  0  0  0
   38.8420   31.2280   41.0370 C   0  0  0  0  0  0  0  0  0  0  0  0
   39.4490   32.4150   41.0170 N   0  0  0  0  0  0  0  0  0  0  0  0
   39.4350   30.1030   41.6710 N   0  0  0  0  0  0  0  0  0  0  0  0
   40.7340   29.7250   41.5730 C   0  0  0  0  0  0  0  0  0  0  0  0
   40.9040   28.5980   42.3250 N   0  0  0  0  0  0  0  0  0  0  0  0
   39.7070   28.3100   42.8670 C   0  0  0  0  0  0  0  0  0  0  0  0
   39.2680   27.3160   43.6990 C   0  0  0  0  0  0  0  0  0  0  0  0
   38.0050   27.2450   44.1080 N   0  0  0  0  0  0  0  0  0  0  0  0
   37.0880   28.1510   43.7240 C   0  0  0  0  0  0  0  0  0  0  0  0
   37.5200   29.1240   42.9080 N   0  0  0  0  0  0  0  0  0  0  0  0
   38.7740   29.2410   42.4710 C   0  0  0  0  0  0  0  0  0  0  0  0
   37.1020   34.1320   39.2880 H   0  0  0  0  0  0  0  0  0  0  0  0
   36.0230   31.9610   39.3410 H   0  0  0  0  0  0  0  0  0  0  0  0
   41.4990   30.2380   40.9920 H   0  0  0  0  0  0  0  0  0  0  0  0
   36.0680   28.0720   44.0680 H   0  0  0  0  0  0  0  0  0  0  0  0
   40.1340   26.3030   44.1740 N   0  0  0  0  0  0  0  0  0  0  0  0
   39.9780   25.8080   45.0960 H   0  0  0  0  0  0  0  0  0  0  0  0
   40.9760   26.0190   43.5950 H   0  0  0  0  0  0  0  0  0  0  0  0
   39.6160   35.0990   40.3340 S   0  0  0  0  0  0  0  0  0  0  0  0
   41.3690   34.9100   40.5000 C   0  0  0  0  0  0  0  0  0  0  0  0
   42.0250   34.4690   39.3460 C   0  0  0  0  0  0  0  0  0  0  0  0
   41.7610   34.1980   38.3340 H   0  0  0  0  0  0  0  0  0  0  0  0
   43.3580   34.3690   39.6180 N   0  0  0  0  0  0  0  0  0  0  0  0
   44.1980   34.0890   39.0740 H   0  0  0  0  0  0  0  0  0  0  0  0
   43.5320   34.7360   40.9010 C   0  0  0  0  0  0  0  0  0  0  0  0
   44.4040   34.8170   41.5620 H   0  0  0  0  0  0  0  0  0  0  0  0
   42.3290   35.0620   41.4330 N   0  0  0  0  0  0  0  0  0  0  0  0
  1  6  1  0  0  0  0
  2  3  1  0  0  0  0
  2  1  2  0  0  0  0
  3  4  2  0  0  0  0
  4  5  1  0  0  0  0
  5  7  1  0  0  0  0
  6  5  2  0  0  0  0
  7 15  1  0  0  0  0
  8  7  1  0  0  0  0
  8  9  2  0  0  0  0
  9 10  1  0  0  0  0
 10 11  1  0  0  0  0
 11 12  2  0  0  0  0
 11 20  1  0  0  0  0
 13 19  1  0  0  0  0
 13 12  1  0  0  0  0
 14 13  2  0  0  0  0
 15 10  2  0  0  0  0
 15 14  1  0  0  0  0
 16  2  1  0  0  0  0
 17  3  1  0  0  0  0
 18  8  1  0  0  0  0
 20 21  1  0  0  0  0
 22 20  1  0  0  0  0
 23  1  1  0  0  0  0
 23 24  1  0  0  0  0
 24 31  1  0  0  0  0
 25 27  1  0  0  0  0
 25 24  2  0  0  0  0
 26 25  1  0  0  0  0
 27 29  1  0  0  0  0
 28 27  1  0  0  0  0
 29 31  2  0  0  0  0
 29 30  1  0  0  0  0
M  END
>  <minimizedAffinity>
-5.9808135

$$$$

 OpenBabel03252504233D

 31 34  0  0  0  0  0  0  0  0999 V2000
   37.2990   31.0800   39.6560 C   0  0  0  0  0  0  0  0  0  0  0  0
   36.9070   30.5980   38.4200 C   0  0  0  0  0  0  0  0  0  0  0  0
   37.6850   30.9390   37.2860 C   0  0  0  0  0  0  0  0  0  0  0  0
   38.7760   31.7290   37.5080 N   0  0  0  0  0  0  0  0  0  0  0  0
   39.1200   32.1770   38.7390 C   0  0  0  0  0  0  0  0  0  0  0  0
   38.3870   31.8560   39.8050 N   0  0  0  0  0  0  0  0  0  0  0  0
   40.2770   32.9960   38.8550 N   0  0  0  0  0  0  0  0  0  0  0  0
   40.3800   34.1300   39.5900 C   0  0  0  0  0  0  0  0  0  0  0  0
   41.6460   34.6200   39.4380 N   0  0  0  0  0  0  0  0  0  0  0  0
   42.2900   33.7740   38.6130 C   0  0  0  0  0  0  0  0  0  0  0  0
   43.5610   33.7430   38.1060 C   0  0  0  0  0  0  0  0  0  0  0  0
   43.9720   32.7760   37.2900 N   0  0  0  0  0  0  0  0  0  0  0  0
   43.1560   31.7740   36.9190 C   0  0  0  0  0  0  0  0  0  0  0  0
   41.9110   31.8050   37.4170 N   0  0  0  0  0  0  0  0  0  0  0  0
   41.4510   32.7500   38.2380 C   0  0  0  0  0  0  0  0  0  0  0  0
   36.0510   29.9770   38.2350 H   0  0  0  0  0  0  0  0  0  0  0  0
   37.4050   30.5800   36.3170 H   0  0  0  0  0  0  0  0  0  0  0  0
   39.5850   34.5670   40.1940 H   0  0  0  0  0  0  0  0  0  0  0  0
   43.5120   31.0000   36.2550 H   0  0  0  0  0  0  0  0  0  0  0  0
   44.5150   34.7400   38.4200 N   0  0  0  0  0  0  0  0  0  0  0  0
   45.5560   34.5500   38.4210 H   0  0  0  0  0  0  0  0  0  0  0  0
   44.1890   35.7190   38.6650 H   0  0  0  0  0  0  0  0  0  0  0  0
   36.2490   30.6000   41.0500 S   0  0  0  0  0  0  0  0  0  0  0  0
   37.1380   29.4310   42.0390 C   0  0  0  0  0  0  0  0  0  0  0  0
   36.5960   28.1420   42.0560 C   0  0  0  0  0  0  0  0  0  0  0  0
   35.7510   27.6270   41.6200 H   0  0  0  0  0  0  0  0  0  0  0  0
   37.3750   27.3550   42.8510 N   0  0  0  0  0  0  0  0  0  0  0  0
   37.3530   26.3570   43.1440 H   0  0  0  0  0  0  0  0  0  0  0  0
   38.3750   28.1260   43.3170 C   0  0  0  0  0  0  0  0  0  0  0  0
   39.2340   27.9480   43.9780 H   0  0  0  0  0  0  0  0  0  0  0  0
   38.2300   29.3800   42.8260 N   0  0  0  0  0  0  0  0  0  0  0  0
  1  6  1  0  0  0  0
  1 23  1  0  0  0  0
  2  1  2  0  0  0  0
  3  4  2  0  0  0  0
  3  2  1  0  0  0  0
  4  5  1  0  0  0  0
  5  7  1  0  0  0  0
  5  6  2  0  0  0  0
  7  8  1  0  0  0  0
  8 18  1  0  0  0  0
  9  8  2  0  0  0  0
 10  9  1  0  0  0  0
 11 20  1  0  0  0  0
 11 10  2  0  0  0  0
 12 11  1  0  0  0  0
 13 12  2  0  0  0  0
 13 14  1  0  0  0  0
 14 15  2  0  0  0  0
 15 10  1  0  0  0  0
 15  7  1  0  0  0  0
 16  2  1  0  0  0  0
 17  3  1  0  0  0  0
 19 13  1  0  0  0  0
 20 21  1  0  0  0  0
 20 22  1  0  0  0  0
 23 24  1  0  0  0  0
 24 25  2  0  0  0  0
 24 31  1  0  0  0  0
 25 27  1  0  0  0  0
 26 25  1  0  0  0  0
 27 28  1  0  0  0  0
 27 29  1  0  0  0  0
 29 30  1  0  0  0  0
 31 29  2  0  0  0  0
M  END
>  <minimizedAffinity>
-5.88505936

$$$$

 OpenBabel03252504233D

 31 34  0  0  0  0  0  0  0  0999 V2000
   38.0930   29.0870   41.0630 C   0  0  0  0  0  0  0  0  0  0  0  0
   38.3950   29.3380   42.3900 C   0  0  0  0  0  0  0  0  0  0  0  0
   39.4380   30.2520   42.6810 C   0  0  0  0  0  0  0  0  0  0  0  0
   40.0700   30.8200   41.6140 N   0  0  0  0  0  0  0  0  0  0  0  0
   39.7390   30.5420   40.3300 C   0  0  0  0  0  0  0  0  0  0  0  0
   38.7570   29.6810   40.0580 N   0  0  0  0  0  0  0  0  0  0  0  0
   40.4650   31.1900   39.2940 N   0  0  0  0  0  0  0  0  0  0  0  0
   40.9420   30.6040   38.1680 C   0  0  0  0  0  0  0  0  0  0  0  0
   41.5810   31.5610   37.4320 N   0  0  0  0  0  0  0  0  0  0  0  0
   41.4800   32.7110   38.1230 C   0  0  0  0  0  0  0  0  0  0  0  0
   41.9170   33.9870   37.8890 C   0  0  0  0  0  0  0  0  0  0  0  0
   41.6850   34.9790   38.7440 N   0  0  0  0  0  0  0  0  0  0  0  0
   41.0070   34.7800   39.8880 C   0  0  0  0  0  0  0  0  0  0  0  0
   40.5800   33.5290   40.1150 N   0  0  0  0  0  0  0  0  0  0  0  0
   40.7840   32.5000   39.2910 C   0  0  0  0  0  0  0  0  0  0  0  0
   37.9040   28.8970   43.2360 H   0  0  0  0  0  0  0  0  0  0  0  0
   39.6930   30.4660   43.6990 H   0  0  0  0  0  0  0  0  0  0  0  0
   40.8310   29.5520   37.9070 H   0  0  0  0  0  0  0  0  0  0  0  0
   40.8310   35.6010   40.5670 H   0  0  0  0  0  0  0  0  0  0  0  0
   42.6410   34.3270   36.7220 N   0  0  0  0  0  0  0  0  0  0  0  0
   42.6210   35.2980   36.3030 H   0  0  0  0  0  0  0  0  0  0  0  0
   43.2320   33.5900   36.2400 H   0  0  0  0  0  0  0  0  0  0  0  0
   36.7510   27.9050   40.7790 S   0  0  0  0  0  0  0  0  0  0  0  0
   37.3250   26.2930   41.2340 C   0  0  0  0  0  0  0  0  0  0  0  0
   38.5330   25.9100   40.6410 C   0  0  0  0  0  0  0  0  0  0  0  0
   39.2510   26.3320   39.9520 H   0  0  0  0  0  0  0  0  0  0  0  0
   38.8510   24.6580   41.0760 N   0  0  0  0  0  0  0  0  0  0  0  0
   39.6350   23.9970   40.9030 H   0  0  0  0  0  0  0  0  0  0  0  0
   37.8740   24.2680   41.9170 C   0  0  0  0  0  0  0  0  0  0  0  0
   37.6890   23.3610   42.5060 H   0  0  0  0  0  0  0  0  0  0  0  0
   36.9530   25.2580   42.0110 N   0  0  0  0  0  0  0  0  0  0  0  0
  1  2  1  0  0  0  0
  2  3  2  0  0  0  0
  2 16  1  0  0  0  0
  3 17  1  0  0  0  0
  4  3  1  0  0  0  0
  5  4  2  0  0  0  0
  6  5  1  0  0  0  0
  6  1  2  0  0  0  0
  7  5  1  0  0  0  0
  8  7  1  0  0  0  0
  9 10  1  0  0  0  0
  9  8  2  0  0  0  0
 10 15  1  0  0  0  0
 11 10  2  0  0  0  0
 11 12  1  0  0  0  0
 12 13  2  0  0  0  0
 13 14  1  0  0  0  0
 13 19  1  0  0  0  0
 15  7  1  0  0  0  0
 15 14  2  0  0  0  0
 18  8  1  0  0  0  0
 20 11  1  0  0  0  0
 21 20  1  0  0  0  0
 22 20  1  0  0  0  0
 23  1  1  0  0  0  0
 23 24  1  0  0  0  0
 24 31  1  0  0  0  0
 25 27  1  0  0  0  0
 25 24  2  0  0  0  0
 26 25  1  0  0  0  0
 27 29  1  0  0  0  0
 28 27  1  0  0  0  0
 29 31  2  0  0  0  0
 29 30  1  0  0  0  0
M  END
>  <minimizedAffinity>
-5.74032307

$$$$

 OpenBabel03252504233D

 31 34  0  0  0  0  0  0  0  0999 V2000
   39.4800   27.3170   43.0060 C   0  0  0  0  0  0  0  0  0  0  0  0
   38.2690   27.3170   43.6740 C   0  0  0  0  0  0  0  0  0  0  0  0
   37.5330   28.5260   43.7350 C   0  0  0  0  0  0  0  0  0  0  0  0
   38.0880   29.6110   43.1200 N   0  0  0  0  0  0  0  0  0  0  0  0
   39.2790   29.5620   42.4770 C   0  0  0  0  0  0  0  0  0  0  0  0
   39.9700   28.4230   42.4210 N   0  0  0  0  0  0  0  0  0  0  0  0
   39.7640   30.7530   41.8710 N   0  0  0  0  0  0  0  0  0  0  0  0
   41.0350   31.2200   41.9360 C   0  0  0  0  0  0  0  0  0  0  0  0
   41.0940   32.3870   41.2290 N   0  0  0  0  0  0  0  0  0  0  0  0
   39.8570   32.6090   40.7460 C   0  0  0  0  0  0  0  0  0  0  0  0
   39.3140   33.6020   39.9760 C   0  0  0  0  0  0  0  0  0  0  0  0
   38.0340   33.5960   39.6190 N   0  0  0  0  0  0  0  0  0  0  0  0
   37.2000   32.6110   39.9980 C   0  0  0  0  0  0  0  0  0  0  0  0
   37.7340   31.6390   40.7520 N   0  0  0  0  0  0  0  0  0  0  0  0
   39.0100   31.5960   41.1360 C   0  0  0  0  0  0  0  0  0  0  0  0
   37.8240   26.4690   44.1610 H   0  0  0  0  0  0  0  0  0  0  0  0
   36.5920   28.5550   44.2450 H   0  0  0  0  0  0  0  0  0  0  0  0
   41.8590   30.7410   42.4640 H   0  0  0  0  0  0  0  0  0  0  0  0
   36.1640   32.6290   39.6960 H   0  0  0  0  0  0  0  0  0  0  0  0
   40.0860   34.6940   39.5130 N   0  0  0  0  0  0  0  0  0  0  0  0
   39.8560   35.2140   38.6210 H   0  0  0  0  0  0  0  0  0  0  0  0
   40.9290   35.0140   40.0720 H   0  0  0  0  0  0  0  0  0  0  0  0
   40.3560   25.7330   42.9790 S   0  0  0  0  0  0  0  0  0  0  0  0
   39.5570   24.6760   41.8030 C   0  0  0  0  0  0  0  0  0  0  0  0
   38.4760   23.9460   42.3080 C   0  0  0  0  0  0  0  0  0  0  0  0
   37.9630   23.8340   43.2530 H   0  0  0  0  0  0  0  0  0  0  0  0
   37.9620   23.1820   41.3030 N   0  0  0  0  0  0  0  0  0  0  0  0
   37.1780   22.5040   41.2240 H   0  0  0  0  0  0  0  0  0  0  0  0
   38.6970   23.4260   40.2010 C   0  0  0  0  0  0  0  0  0  0  0  0
   38.6700   23.0590   39.1680 H   0  0  0  0  0  0  0  0  0  0  0  0
   39.6600   24.3290   40.5060 N   0  0  0  0  0  0  0  0  0  0  0  0
  1  2  1  0  0  0  0
  2  3  2  0  0  0  0
  2 16  1  0  0  0  0
  3 17  1  0  0  0  0
  4  3  1  0  0  0  0
  5  4  2  0  0  0  0
  6  5  1  0  0  0  0
  6  1  2  0  0  0  0
  7  8  1  0  0  0  0
  7  5  1  0  0  0  0
  8 18  1  0  0  0  0
  9  8  2  0  0  0  0
 10 15  1  0  0  0  0
 10  9  1  0  0  0  0
 11 10  2  0  0  0  0
 12 11  1  0  0  0  0
 12 13  2  0  0  0  0
 13 14  1  0  0  0  0
 14 15  2  0  0  0  0
 15  7  1  0  0  0  0
 19 13  1  0  0  0  0
 20 11  1  0  0  0  0
 20 22  1  0  0  0  0
 21 20  1  0  0  0  0
 23  1  1  0  0  0  0
 24 25  2  0  0  0  0
 24 23  1  0  0  0  0
 25 26  1  0  0  0  0
 27 25  1  0  0  0  0
 28 27  1  0  0  0  0
 29 31  2  0  0  0  0
 29 27  1  0  0  0  0
 30 29  1  0  0  0  0
 31 24  1  0  0  0  0
M  END
>  <minimizedAffinity>
-5.68448544

$$$$

 OpenBabel03252504233D

 31 34  0  0  0  0  0  0  0  0999 V2000
   38.9710   26.6220   42.5640 C   0  0  0  0  0  0  0  0  0  0  0  0
   38.2830   27.2340   43.5980 C   0  0  0  0  0  0  0  0  0  0  0  0
   38.0110   28.6210   43.4960 C   0  0  0  0  0  0  0  0  0  0  0  0
   38.4550   29.2520   42.3700 N   0  0  0  0  0  0  0  0  0  0  0  0
   39.1240   28.6090   41.3840 C   0  0  0  0  0  0  0  0  0  0  0  0
   39.3810   27.3040   41.4810 N   0  0  0  0  0  0  0  0  0  0  0  0
   39.5420   29.3640   40.2540 N   0  0  0  0  0  0  0  0  0  0  0  0
   40.7560   29.2950   39.6540 C   0  0  0  0  0  0  0  0  0  0  0  0
   40.7630   30.1760   38.6110 N   0  0  0  0  0  0  0  0  0  0  0  0
   39.5520   30.7640   38.5940 C   0  0  0  0  0  0  0  0  0  0  0  0
   38.9810   31.7140   37.7910 C   0  0  0  0  0  0  0  0  0  0  0  0
   37.7370   32.1420   37.9810 N   0  0  0  0  0  0  0  0  0  0  0  0
   36.9710   31.6630   38.9770 C   0  0  0  0  0  0  0  0  0  0  0  0
   37.5320   30.7330   39.7630 N   0  0  0  0  0  0  0  0  0  0  0  0
   38.7740   30.2690   39.6150 C   0  0  0  0  0  0  0  0  0  0  0  0
   37.9300   26.7470   44.4870 H   0  0  0  0  0  0  0  0  0  0  0  0
   37.4800   29.1200   44.2810 H   0  0  0  0  0  0  0  0  0  0  0  0
   41.5770   28.6470   39.9600 H   0  0  0  0  0  0  0  0  0  0  0  0
   35.9630   32.0270   39.1110 H   0  0  0  0  0  0  0  0  0  0  0  0
   39.6820   32.2960   36.7080 N   0  0  0  0  0  0  0  0  0  0  0  0
   39.1910   32.6740   35.8510 H   0  0  0  0  0  0  0  0  0  0  0  0
   40.7400   32.3640   36.7450 H   0  0  0  0  0  0  0  0  0  0  0  0
   39.2800   24.8510   42.7740 S   0  0  0  0  0  0  0  0  0  0  0  0
   38.3250   23.9730   41.5700 C   0  0  0  0  0  0  0  0  0  0  0  0
   36.9950   24.3930   41.4530 C   0  0  0  0  0  0  0  0  0  0  0  0
   36.3510   25.1330   41.9070 H   0  0  0  0  0  0  0  0  0  0  0  0
   36.3840   23.6360   40.4980 N   0  0  0  0  0  0  0  0  0  0  0  0
   35.4280   23.5990   40.0920 H   0  0  0  0  0  0  0  0  0  0  0  0
   37.3010   22.7690   40.0290 C   0  0  0  0  0  0  0  0  0  0  0  0
   37.2870   21.9770   39.2700 H   0  0  0  0  0  0  0  0  0  0  0  0
   38.4730   22.9740   40.6780 N   0  0  0  0  0  0  0  0  0  0  0  0
  1 23  1  0  0  0  0
  1  2  1  0  0  0  0
  2 16  1  0  0  0  0
  3  2  2  0  0  0  0
  3 17  1  0  0  0  0
  4  3  1  0  0  0  0
  5  6  1  0  0  0  0
  5  4  2  0  0  0  0
  6  1  2  0  0  0  0
  7  5  1  0  0  0  0
  8 18  1  0  0  0  0
  8  7  1  0  0  0  0
  9  8  2  0  0  0  0
 10  9  1  0  0  0  0
 10 15  1  0  0  0  0
 11 12  1  0  0  0  0
 11 10  2  0  0  0  0
 12 13  2  0  0  0  0
 13 19  1  0  0  0  0
 13 14  1  0  0  0  0
 15 14  2  0  0  0  0
 15  7  1  0  0  0  0
 20 22  1  0  0  0  0
 20 11  1  0  0  0  0
 21 20  1  0  0  0  0
 24 23  1  0  0  0  0
 25 24  2  0  0  0  0
 25 26  1  0  0  0  0
 27 25  1  0  0  0  0
 28 27  1  0  0  0  0
 29 27  1  0  0  0  0
 29 31  2  0  0  0  0
 30 29  1  0  0  0  0
 31 24  1  0  0  0  0
M  END
>  <minimizedAffinity>
-5.59382153

$$$$

 OpenBabel03252504233D

 31 34  0  0  0  0  0  0  0  0999 V2000
   39.8110   29.0750   42.1300 C   0  0  0  0  0  0  0  0  0  0  0  0
   40.9130   28.3880   42.6110 C   0  0  0  0  0  0  0  0  0  0  0  0
   42.1700   28.6210   42.0020 C   0  0  0  0  0  0  0  0  0  0  0  0
   42.1950   29.5190   40.9740 N   0  0  0  0  0  0  0  0  0  0  0  0
   41.0890   30.1670   40.5380 C   0  0  0  0  0  0  0  0  0  0  0  0
   39.9060   29.9460   41.1120 N   0  0  0  0  0  0  0  0  0  0  0  0
   41.2290   31.0810   39.4580 N   0  0  0  0  0  0  0  0  0  0  0  0
   40.4020   31.1850   38.3890 C   0  0  0  0  0  0  0  0  0  0  0  0
   40.8790   32.1760   37.5790 N   0  0  0  0  0  0  0  0  0  0  0  0
   41.9880   32.6570   38.1700 C   0  0  0  0  0  0  0  0  0  0  0  0
   42.8790   33.6410   37.8350 C   0  0  0  0  0  0  0  0  0  0  0  0
   43.9220   33.9390   38.6040 N   0  0  0  0  0  0  0  0  0  0  0  0
   44.1590   33.2860   39.7550 C   0  0  0  0  0  0  0  0  0  0  0  0
   43.2860   32.3220   40.0820 N   0  0  0  0  0  0  0  0  0  0  0  0
   42.2240   31.9850   39.3480 C   0  0  0  0  0  0  0  0  0  0  0  0
   40.9030   27.6800   43.4180 H   0  0  0  0  0  0  0  0  0  0  0  0
   43.0390   28.1040   42.3540 H   0  0  0  0  0  0  0  0  0  0  0  0
   39.5130   30.5790   38.2160 H   0  0  0  0  0  0  0  0  0  0  0  0
   45.0130   33.5460   40.3620 H   0  0  0  0  0  0  0  0  0  0  0  0
   42.7400   34.4010   36.6490 N   0  0  0  0  0  0  0  0  0  0  0  0
   43.1060   35.3900   36.5630 H   0  0  0  0  0  0  0  0  0  0  0  0
   42.2550   33.9760   35.8080 H   0  0  0  0  0  0  0  0  0  0  0  0
   38.2440   28.7150   42.9610 S   0  0  0  0  0  0  0  0  0  0  0  0
   36.9240   29.0770   41.8380 C   0  0  0  0  0  0  0  0  0  0  0  0
   36.5860   30.4310   41.7440 C   0  0  0  0  0  0  0  0  0  0  0  0
   36.9120   31.3650   42.1790 H   0  0  0  0  0  0  0  0  0  0  0  0
   35.5630   30.5610   40.8520 N   0  0  0  0  0  0  0  0  0  0  0  0
   35.0100   31.3590   40.4810 H   0  0  0  0  0  0  0  0  0  0  0  0
   35.2690   29.3280   40.4000 C   0  0  0  0  0  0  0  0  0  0  0  0
   34.5380   28.9290   39.6850 H   0  0  0  0  0  0  0  0  0  0  0  0
   36.0920   28.4320   40.9970 N   0  0  0  0  0  0  0  0  0  0  0  0
  1  2  1  0  0  0  0
  1 23  1  0  0  0  0
  2 16  1  0  0  0  0
  3 17  1  0  0  0  0
  3  2  2  0  0  0  0
  4  3  1  0  0  0  0
  5  4  2  0  0  0  0
  5  6  1  0  0  0  0
  6  1  2  0  0  0  0
  7  5  1  0  0  0  0
  8  7  1  0  0  0  0
  9 10  1  0  0  0  0
  9  8  2  0  0  0  0
 10 15  1  0  0  0  0
 11 10  2  0  0  0  0
 11 12  1  0  0  0  0
 12 13  2  0  0  0  0
 13 14  1  0  0  0  0
 13 19  1  0  0  0  0
 15  7  1  0  0  0  0
 15 14  2  0  0  0  0
 18  8  1  0  0  0  0
 20 11  1  0  0  0  0
 21 20  1  0  0  0  0
 22 20  1  0  0  0  0
 24 23  1  0  0  0  0
 25 24  2  0  0  0  0
 25 26  1  0  0  0  0
 27 25  1  0  0  0  0
 28 27  1  0  0  0  0
 29 27  1  0  0  0  0
 29 31  2  0  0  0  0
 30 29  1  0  0  0  0
 31 24  1  0  0  0  0
M  END
>  <minimizedAffinity>
-5.58513498

$$$$

 OpenBabel03252504233D

 31 34  0  0  0  0  0  0  0  0999 V2000
   39.1680   26.9440   42.9230 C   0  0  0  0  0  0  0  0  0  0  0  0
   38.0420   27.3260   43.6310 C   0  0  0  0  0  0  0  0  0  0  0  0
   37.4050   28.5410   43.2760 C   0  0  0  0  0  0  0  0  0  0  0  0
   37.9610   29.2470   42.2500 N   0  0  0  0  0  0  0  0  0  0  0  0
   39.0660   28.8320   41.5860 C   0  0  0  0  0  0  0  0  0  0  0  0
   39.6650   27.6890   41.9220 N   0  0  0  0  0  0  0  0  0  0  0  0
   39.5630   29.6470   40.5330 N   0  0  0  0  0  0  0  0  0  0  0  0
   40.8630   29.9650   40.3160 C   0  0  0  0  0  0  0  0  0  0  0  0
   40.9240   30.7650   39.2110 N   0  0  0  0  0  0  0  0  0  0  0  0
   39.6590   30.9200   38.7760 C   0  0  0  0  0  0  0  0  0  0  0  0
   39.1050   31.6020   37.7260 C   0  0  0  0  0  0  0  0  0  0  0  0
   37.7950   31.6000   37.4980 N   0  0  0  0  0  0  0  0  0  0  0  0
   36.9420   30.9260   38.2900 C   0  0  0  0  0  0  0  0  0  0  0  0
   37.4870   30.2590   39.3180 N   0  0  0  0  0  0  0  0  0  0  0  0
   38.7930   30.2270   39.5900 C   0  0  0  0  0  0  0  0  0  0  0  0
   37.5970   26.7770   44.4390 H   0  0  0  0  0  0  0  0  0  0  0  0
   36.5310   28.8610   43.8060 H   0  0  0  0  0  0  0  0  0  0  0  0
   41.7050   29.6340   40.9230 H   0  0  0  0  0  0  0  0  0  0  0  0
   35.8830   30.9400   38.0850 H   0  0  0  0  0  0  0  0  0  0  0  0
   39.8940   32.3490   36.8210 N   0  0  0  0  0  0  0  0  0  0  0  0
   39.6030   32.5160   35.8170 H   0  0  0  0  0  0  0  0  0  0  0  0
   40.8140   32.7640   37.1460 H   0  0  0  0  0  0  0  0  0  0  0  0
   39.9220   25.3820   43.4420 S   0  0  0  0  0  0  0  0  0  0  0  0
   41.6800   25.5900   43.4520 C   0  0  0  0  0  0  0  0  0  0  0  0
   42.1640   26.4660   44.4300 C   0  0  0  0  0  0  0  0  0  0  0  0
   41.7560   27.0820   45.2190 H   0  0  0  0  0  0  0  0  0  0  0  0
   43.5210   26.5300   44.3210 N   0  0  0  0  0  0  0  0  0  0  0  0
   44.2750   27.0390   44.8250 H   0  0  0  0  0  0  0  0  0  0  0  0
   43.8790   25.7200   43.3070 C   0  0  0  0  0  0  0  0  0  0  0  0
   44.8370   25.4440   42.8490 H   0  0  0  0  0  0  0  0  0  0  0  0
   42.7650   25.1530   42.7830 N   0  0  0  0  0  0  0  0  0  0  0  0
  1 23  1  0  0  0  0
  1  2  1  0  0  0  0
  2 16  1  0  0  0  0
  3  2  2  0  0  0  0
  3 17  1  0  0  0  0
  4  3  1  0  0  0  0
  5  6  1  0  0  0  0
  5  4  2  0  0  0  0
  6  1  2  0  0  0  0
  7  5  1  0  0  0  0
  8  7  1  0  0  0  0
  8 18  1  0  0  0  0
  9  8  2  0  0  0  0
 10  9  1  0  0  0  0
 10 15  1  0  0  0  0
 11 10  2  0  0  0  0
 12 11  1  0  0  0  0
 12 13  2  0  0  0  0
 13 14  1  0  0  0  0
 14 15  2  0  0  0  0
 15  7  1  0  0  0  0
 19 13  1  0  0  0  0
 20 22  1  0  0  0  0
 20 11  1  0  0  0  0
 21 20  1  0  0  0  0
 23 24  1  0  0  0  0
 24 25  2  0  0  0  0
 25 26  1  0  0  0  0
 27 25  1  0  0  0  0
 27 28  1  0  0  0  0
 29 27  1  0  0  0  0
 30 29  1  0  0  0  0
 31 29  2  0  0  0  0
 31 24  1  0  0  0  0
M  END
>  <minimizedAffinity>
-5.53715706

$$$$

 OpenBabel03252504233D

 31 34  0  0  0  0  0  0  0  0999 V2000
   37.2620   28.7650   40.9580 C   0  0  0  0  0  0  0  0  0  0  0  0
   36.7860   28.2280   39.7750 C   0  0  0  0  0  0  0  0  0  0  0  0
   37.0610   28.9130   38.5660 C   0  0  0  0  0  0  0  0  0  0  0  0
   37.7860   30.0650   38.6660 N   0  0  0  0  0  0  0  0  0  0  0  0
   38.2300   30.5520   39.8490 C   0  0  0  0  0  0  0  0  0  0  0  0
   37.9700   29.9070   40.9860 N   0  0  0  0  0  0  0  0  0  0  0  0
   38.9760   31.7630   39.8380 N   0  0  0  0  0  0  0  0  0  0  0  0
   38.8190   32.8030   40.6940 C   0  0  0  0  0  0  0  0  0  0  0  0
   39.7190   33.7720   40.3520 N   0  0  0  0  0  0  0  0  0  0  0  0
   40.4070   33.3030   39.2950 C   0  0  0  0  0  0  0  0  0  0  0  0
   41.4210   33.8170   38.5320 C   0  0  0  0  0  0  0  0  0  0  0  0
   41.9500   33.1430   37.5150 N   0  0  0  0  0  0  0  0  0  0  0  0
   41.5140   31.9160   37.1800 C   0  0  0  0  0  0  0  0  0  0  0  0
   40.5210   31.4140   37.9280 N   0  0  0  0  0  0  0  0  0  0  0  0
   39.9570   32.0470   38.9580 C   0  0  0  0  0  0  0  0  0  0  0  0
   36.2160   27.3220   39.6850 H   0  0  0  0  0  0  0  0  0  0  0  0
   36.7060   28.5190   37.6350 H   0  0  0  0  0  0  0  0  0  0  0  0
   38.0970   32.8480   41.5090 H   0  0  0  0  0  0  0  0  0  0  0  0
   41.9590   31.3890   36.3500 H   0  0  0  0  0  0  0  0  0  0  0  0
   41.9670   35.0990   38.7820 N   0  0  0  0  0  0  0  0  0  0  0  0
   42.9650   35.3480   38.5360 H   0  0  0  0  0  0  0  0  0  0  0  0
   41.3650   35.8470   39.2320 H   0  0  0  0  0  0  0  0  0  0  0  0
   36.8630   27.8300   42.4560 S   0  0  0  0  0  0  0  0  0  0  0  0
   38.2470   26.7990   42.8520 C   0  0  0  0  0  0  0  0  0  0  0  0
   39.0060   27.2280   43.9460 C   0  0  0  0  0  0  0  0  0  0  0  0
   38.9930   28.0460   44.6530 H   0  0  0  0  0  0  0  0  0  0  0  0
   40.0300   26.3480   44.1350 N   0  0  0  0  0  0  0  0  0  0  0  0
   40.8180   26.2720   44.8090 H   0  0  0  0  0  0  0  0  0  0  0  0
   39.9160   25.3960   43.1900 C   0  0  0  0  0  0  0  0  0  0  0  0
   40.4910   24.4950   42.9390 H   0  0  0  0  0  0  0  0  0  0  0  0
   38.8390   25.6700   42.4160 N   0  0  0  0  0  0  0  0  0  0  0  0
  1  6  1  0  0  0  0
  1 23  1  0  0  0  0
  2  1  2  0  0  0  0
  3  4  2  0  0  0  0
  3  2  1  0  0  0  0
  4  5  1  0  0  0  0
  5  6  2  0  0  0  0
  7  5  1  0  0  0  0
  7  8  1  0  0  0  0
  8 18  1  0  0  0  0
  9  8  2  0  0  0  0
 10  9  1  0  0  0  0
 11 20  1  0  0  0  0
 11 10  2  0  0  0  0
 12 11  1  0  0  0  0
 13 12  2  0  0  0  0
 13 14  1  0  0  0  0
 14 15  2  0  0  0  0
 15 10  1  0  0  0  0
 15  7  1  0  0  0  0
 16  2  1  0  0  0  0
 17  3  1  0  0  0  0
 19 13  1  0  0  0  0
 20 22  1  0  0  0  0
 21 20  1  0  0  0  0
 23 24  1  0  0  0  0
 24 25  2  0  0  0  0
 25 27  1  0  0  0  0
 25 26  1  0  0  0  0
 27 28  1  0  0  0  0
 29 27  1  0  0  0  0
 30 29  1  0  0  0  0
 31 24  1  0  0  0  0
 31 29  2  0  0  0  0
M  END
>  <minimizedAffinity>
-5.52694082

$$$$

 OpenBabel03252504233D

 31 34  0  0  0  0  0  0  0  0999 V2000
   39.9750   31.9930   41.1430 C   0  0  0  0  0  0  0  0  0  0  0  0
   41.2630   31.8830   41.6400 C   0  0  0  0  0  0  0  0  0  0  0  0
   41.6220   30.6930   42.3190 C   0  0  0  0  0  0  0  0  0  0  0  0
   40.6560   29.7360   42.4310 N   0  0  0  0  0  0  0  0  0  0  0  0
   39.4080   29.8900   41.9270 C   0  0  0  0  0  0  0  0  0  0  0  0
   39.0710   31.0110   41.2890 N   0  0  0  0  0  0  0  0  0  0  0  0
   38.4790   28.8280   42.1020 N   0  0  0  0  0  0  0  0  0  0  0  0
   37.1820   28.9580   42.4770 C   0  0  0  0  0  0  0  0  0  0  0  0
   36.6310   27.7090   42.5320 N   0  0  0  0  0  0  0  0  0  0  0  0
   37.6030   26.8430   42.1890 C   0  0  0  0  0  0  0  0  0  0  0  0
   37.6450   25.4800   42.0670 C   0  0  0  0  0  0  0  0  0  0  0  0
   38.7510   24.8390   41.7020 N   0  0  0  0  0  0  0  0  0  0  0  0
   39.8920   25.4980   41.4340 C   0  0  0  0  0  0  0  0  0  0  0  0
   39.8490   26.8330   41.5550 N   0  0  0  0  0  0  0  0  0  0  0  0
   38.7670   27.5240   41.9160 C   0  0  0  0  0  0  0  0  0  0  0  0
   42.0290   32.6300   41.5570 H   0  0  0  0  0  0  0  0  0  0  0  0
   42.6120   30.5810   42.7130 H   0  0  0  0  0  0  0  0  0  0  0  0
   36.6770   29.8980   42.6950 H   0  0  0  0  0  0  0  0  0  0  0  0
   40.7780   24.9560   41.1410 H   0  0  0  0  0  0  0  0  0  0  0  0
   36.5110   24.6720   42.3210 N   0  0  0  0  0  0  0  0  0  0  0  0
   36.3640   23.7350   41.8510 H   0  0  0  0  0  0  0  0  0  0  0  0
   35.7720   25.0060   43.0050 H   0  0  0  0  0  0  0  0  0  0  0  0
   39.5980   33.5460   40.2930 S   0  0  0  0  0  0  0  0  0  0  0  0
   40.8170   33.8010   39.0340 C   0  0  0  0  0  0  0  0  0  0  0  0
   41.4630   35.0400   39.0830 C   0  0  0  0  0  0  0  0  0  0  0  0
   41.4320   35.9310   39.6950 H   0  0  0  0  0  0  0  0  0  0  0  0
   42.3660   35.0990   38.0630 N   0  0  0  0  0  0  0  0  0  0  0  0
   43.0480   35.8070   37.7260 H   0  0  0  0  0  0  0  0  0  0  0  0
   42.2900   33.9320   37.3970 C   0  0  0  0  0  0  0  0  0  0  0  0
   42.8070   33.5150   36.5230 H   0  0  0  0  0  0  0  0  0  0  0  0
   41.3530   33.1490   37.9840 N   0  0  0  0  0  0  0  0  0  0  0  0
  1  6  2  0  0  0  0
  1  2  1  0  0  0  0
  2  3  2  0  0  0  0
  3  4  1  0  0  0  0
  3 17  1  0  0  0  0
  5  7  1  0  0  0  0
  5  4  2  0  0  0  0
  6  5  1  0  0  0  0
  7  8  1  0  0  0  0
  8  9  2  0  0  0  0
  8 18  1  0  0  0  0
 10  9  1  0  0  0  0
 11 10  1  0  0  0  0
 11 20  1  0  0  0  0
 12 11  2  0  0  0  0
 13 14  2  0  0  0  0
 13 12  1  0  0  0  0
 14 15  1  0  0  0  0
 15  7  1  0  0  0  0
 15 10  2  0  0  0  0
 16  2  1  0  0  0  0
 19 13  1  0  0  0  0
 20 22  1  0  0  0  0
 21 20  1  0  0  0  0
 23  1  1  0  0  0  0
 24 25  2  0  0  0  0
 24 23  1  0  0  0  0
 25 26  1  0  0  0  0
 27 25  1  0  0  0  0
 28 27  1  0  0  0  0
 29 31  2  0  0  0  0
 29 27  1  0  0  0  0
 30 29  1  0  0  0  0
 31 24  1  0  0  0  0
M  END
>  <minimizedAffinity>
-5.45460606

$$$$
