
 OpenBabel03252505133D

 43 46  0  0  1  0  0  0  0  0999 V2000
   36.6900   29.5760   38.4720 C   0  0  0  0  0  0  0  0  0  0  0  0
   37.1840   30.8930   38.5880 C   0  0  0  0  0  0  0  0  0  0  0  0
   38.0390   31.1910   39.6940 C   0  0  0  0  0  0  0  0  0  0  0  0
   38.3280   30.1940   40.5670 N   0  0  0  0  0  0  0  0  0  0  0  0
   37.8430   28.9570   40.4280 C   0  0  0  0  0  0  0  0  0  0  0  0
   37.0190   28.6380   39.3770 N   0  0  0  0  0  0  0  0  0  0  0  0
   36.0390   29.3120   37.6490 H   0  0  0  0  0  0  0  0  0  0  0  0
   36.9200   31.6520   37.8580 H   0  0  0  0  0  0  0  0  0  0  0  0
   38.1910   27.9010   41.4250 C   0  0  2  0  0  0  0  0  0  0  0  0
   38.1580   26.6100   40.6320 C   0  0  0  0  0  0  0  0  0  0  0  0
   37.0010   25.7370   40.8600 C   0  0  0  0  0  0  0  0  0  0  0  0
   36.9780   25.4910   42.3690 C   0  0  0  0  0  0  0  0  0  0  0  0
   36.6830   26.7170   43.1130 C   0  0  0  0  0  0  0  0  0  0  0  0
   37.3400   27.9350   42.5770 C   0  0  0  0  0  0  0  0  0  0  0  0
   39.2430   28.1160   41.7110 H   0  0  0  0  0  0  0  0  0  0  0  0
   39.0730   26.0260   40.9090 H   0  0  0  0  0  0  0  0  0  0  0  0
   38.2640   26.7640   39.5360 H   0  0  0  0  0  0  0  0  0  0  0  0
   37.1830   24.7680   40.3980 H   0  0  0  0  0  0  0  0  0  0  0  0
   36.0330   26.1530   40.5250 H   0  0  0  0  0  0  0  0  0  0  0  0
   36.1400   24.8170   42.5380 H   0  0  0  0  0  0  0  0  0  0  0  0
   37.9490   25.0210   42.6290 H   0  0  0  0  0  0  0  0  0  0  0  0
   36.0900   26.9100   43.9650 H   0  0  0  0  0  0  0  0  0  0  0  0
   37.1350   29.2040   43.2110 N   0  0  0  0  0  0  0  0  0  0  0  0
   36.0950   29.4040   43.1590 H   0  0  0  0  0  0  0  0  0  0  0  0
   38.0140   29.6330   43.5680 H   0  0  0  0  0  0  0  0  0  0  0  0
   38.5640   32.5330   39.8370 C   0  0  0  0  0  0  0  0  0  0  0  0
   37.7010   33.5670   39.9130 C   0  0  0  0  0  0  0  0  0  0  0  0
   38.2690   34.8420   40.0520 C   0  0  0  0  0  0  0  0  0  0  0  0
   39.6500   34.9110   40.0950 C   0  0  0  0  0  0  0  0  0  0  0  0
   40.5130   33.8690   40.0160 C   0  0  0  0  0  0  0  0  0  0  0  0
   39.9150   32.6470   39.8830 N   0  0  0  0  0  0  0  0  0  0  0  0
   36.6260   33.4520   39.8740 H   0  0  0  0  0  0  0  0  0  0  0  0
   37.6110   35.6970   40.1180 H   0  0  0  0  0  0  0  0  0  0  0  0
   39.9980   35.9290   40.2030 H   0  0  0  0  0  0  0  0  0  0  0  0
   41.8840   34.0130   40.0670 O   0  0  0  0  0  0  0  0  0  0  0  0
   42.7340   33.7960   39.0210 C   0  0  0  0  0  0  0  0  0  0  0  0
   42.3760   34.5350   37.8880 C   0  0  0  0  0  0  0  0  0  0  0  0
   41.6050   35.2430   37.5890 H   0  0  0  0  0  0  0  0  0  0  0  0
   43.2700   34.2630   36.8940 N   0  0  0  0  0  0  0  0  0  0  0  0
   43.4390   34.5380   35.9100 H   0  0  0  0  0  0  0  0  0  0  0  0
   44.1440   33.3760   37.4330 C   0  0  0  0  0  0  0  0  0  0  0  0
   45.0260   32.8750   37.0210 H   0  0  0  0  0  0  0  0  0  0  0  0
   43.8340   33.0870   38.7080 N   0  0  0  0  0  0  0  0  0  0  0  0
  1  2  2  0  0  0  0
  1  6  1  0  0  0  0
  2  3  1  0  0  0  0
  3 26  1  0  0  0  0
  3  4  2  0  0  0  0
  5  4  1  0  0  0  0
  5  9  1  0  0  0  0
  6  5  2  0  0  0  0
  7  1  1  0  0  0  0
  8  2  1  0  0  0  0
  9 15  1  1  0  0  0
  9 14  1  0  0  0  0
 10 11  1  0  0  0  0
 10 16  1  0  0  0  0
 10  9  1  0  0  0  0
 11 12  1  0  0  0  0
 12 20  1  0  0  0  0
 12 21  1  0  0  0  0
 12 13  1  0  0  0  0
 13 22  1  0  0  0  0
 14 13  2  0  0  0  0
 14 23  1  0  0  0  0
 17 10  1  0  0  0  0
 18 11  1  0  0  0  0
 19 11  1  0  0  0  0
 23 25  1  0  0  0  0
 24 23  1  0  0  0  0
 26 31  2  0  0  0  0
 26 27  1  0  0  0  0
 27 28  2  0  0  0  0
 28 29  1  0  0  0  0
 28 33  1  0  0  0  0
 29 34  1  0  0  0  0
 30 35  1  0  0  0  0
 30 29  2  0  0  0  0
 31 30  1  0  0  0  0
 32 27  1  0  0  0  0
 36 35  1  0  0  0  0
 37 36  2  0  0  0  0
 38 37  1  0  0  0  0
 39 41  1  0  0  0  0
 39 37  1  0  0  0  0
 40 39  1  0  0  0  0
 41 43  2  0  0  0  0
 42 41  1  0  0  0  0
 43 36  1  0  0  0  0
M  END
>  <minimizedAffinity>
-6.8310957

$$$$

 OpenBabel03252505133D

 43 46  0  0  1  0  0  0  0  0999 V2000
   36.2750   29.8840   38.5040 C   0  0  0  0  0  0  0  0  0  0  0  0
   36.8700   31.1540   38.6650 C   0  0  0  0  0  0  0  0  0  0  0  0
   37.8850   31.2950   39.6620 C   0  0  0  0  0  0  0  0  0  0  0  0
   38.2190   30.2030   40.3940 N   0  0  0  0  0  0  0  0  0  0  0  0
   37.6360   29.0150   40.2160 C   0  0  0  0  0  0  0  0  0  0  0  0
   36.6580   28.8460   39.2680 N   0  0  0  0  0  0  0  0  0  0  0  0
   35.5030   29.7380   37.7610 H   0  0  0  0  0  0  0  0  0  0  0  0
   36.5620   31.9940   38.0500 H   0  0  0  0  0  0  0  0  0  0  0  0
   38.0420   27.8490   41.0570 C   0  0  2  0  0  0  0  0  0  0  0  0
   36.9720   27.7660   42.1270 C   0  0  0  0  0  0  0  0  0  0  0  0
   37.3570   28.2260   43.4660 C   0  0  0  0  0  0  0  0  0  0  0  0
   38.6000   27.4120   43.8260 C   0  0  0  0  0  0  0  0  0  0  0  0
   39.7360   27.7510   42.9670 C   0  0  0  0  0  0  0  0  0  0  0  0
   39.3860   27.9660   41.5410 C   0  0  0  0  0  0  0  0  0  0  0  0
   37.9440   26.9680   40.3860 H   0  0  0  0  0  0  0  0  0  0  0  0
   36.6760   26.6900   42.2180 H   0  0  0  0  0  0  0  0  0  0  0  0
   36.0270   28.2790   41.8440 H   0  0  0  0  0  0  0  0  0  0  0  0
   36.5890   27.9360   44.1810 H   0  0  0  0  0  0  0  0  0  0  0  0
   37.5720   29.3070   43.5420 H   0  0  0  0  0  0  0  0  0  0  0  0
   38.8690   27.7270   44.8330 H   0  0  0  0  0  0  0  0  0  0  0  0
   38.3020   26.3430   43.7900 H   0  0  0  0  0  0  0  0  0  0  0  0
   40.7660   27.8730   43.1600 H   0  0  0  0  0  0  0  0  0  0  0  0
   40.4040   28.3040   40.5910 N   0  0  0  0  0  0  0  0  0  0  0  0
   40.8270   29.2210   40.9140 H   0  0  0  0  0  0  0  0  0  0  0  0
   40.5010   27.6060   39.8240 H   0  0  0  0  0  0  0  0  0  0  0  0
   38.5150   32.5850   39.8480 C   0  0  0  0  0  0  0  0  0  0  0  0
   37.7380   33.6840   39.9520 C   0  0  0  0  0  0  0  0  0  0  0  0
   38.4060   34.9030   40.1320 C   0  0  0  0  0  0  0  0  0  0  0  0
   39.7880   34.8590   40.1820 C   0  0  0  0  0  0  0  0  0  0  0  0
   40.5640   33.7530   40.0760 C   0  0  0  0  0  0  0  0  0  0  0  0
   39.8710   32.5880   39.9030 N   0  0  0  0  0  0  0  0  0  0  0  0
   36.6570   33.6560   39.9050 H   0  0  0  0  0  0  0  0  0  0  0  0
   37.8180   35.8070   40.2210 H   0  0  0  0  0  0  0  0  0  0  0  0
   40.2160   35.8420   40.3230 H   0  0  0  0  0  0  0  0  0  0  0  0
   41.9420   33.7850   40.1360 O   0  0  0  0  0  0  0  0  0  0  0  0
   42.7760   33.6790   39.0610 C   0  0  0  0  0  0  0  0  0  0  0  0
   42.4070   34.5380   38.0200 C   0  0  0  0  0  0  0  0  0  0  0  0
   41.6370   35.2780   37.8110 H   0  0  0  0  0  0  0  0  0  0  0  0
   43.2850   34.3710   36.9900 N   0  0  0  0  0  0  0  0  0  0  0  0
   43.4430   34.7520   36.0400 H   0  0  0  0  0  0  0  0  0  0  0  0
   44.1620   33.4280   37.4160 C   0  0  0  0  0  0  0  0  0  0  0  0
   45.0350   32.9710   36.9400 H   0  0  0  0  0  0  0  0  0  0  0  0
   43.8670   33.0040   38.6580 N   0  0  0  0  0  0  0  0  0  0  0  0
  1  2  2  0  0  0  0
  1  6  1  0  0  0  0
  2  3  1  0  0  0  0
  3 26  1  0  0  0  0
  3  4  2  0  0  0  0
  5  4  1  0  0  0  0
  5  9  1  0  0  0  0
  6  5  2  0  0  0  0
  7  1  1  0  0  0  0
  8  2  1  0  0  0  0
  9 15  1  6  0  0  0
  9 14  1  0  0  0  0
  9 10  1  0  0  0  0
 10 16  1  0  0  0  0
 10 11  1  0  0  0  0
 11 19  1  0  0  0  0
 11 12  1  0  0  0  0
 11 18  1  0  0  0  0
 12 20  1  0  0  0  0
 13 22  1  0  0  0  0
 13 12  1  0  0  0  0
 14 13  2  0  0  0  0
 17 10  1  0  0  0  0
 21 12  1  0  0  0  0
 23 24  1  0  0  0  0
 23 14  1  0  0  0  0
 25 23  1  0  0  0  0
 26 31  2  0  0  0  0
 26 27  1  0  0  0  0
 27 28  2  0  0  0  0
 28 29  1  0  0  0  0
 28 33  1  0  0  0  0
 29 34  1  0  0  0  0
 30 35  1  0  0  0  0
 30 29  2  0  0  0  0
 31 30  1  0  0  0  0
 32 27  1  0  0  0  0
 36 35  1  0  0  0  0
 37 36  2  0  0  0  0
 38 37  1  0  0  0  0
 39 41  1  0  0  0  0
 39 37  1  0  0  0  0
 40 39  1  0  0  0  0
 41 43  2  0  0  0  0
 42 41  1  0  0  0  0
 43 36  1  0  0  0  0
M  END
>  <minimizedAffinity>
-6.56142044

$$$$

 OpenBabel03252505133D

 43 46  0  0  1  0  0  0  0  0999 V2000
   42.0770   29.4310   42.9060 C   0  0  0  0  0  0  0  0  0  0  0  0
   41.5820   30.5330   42.1760 C   0  0  0  0  0  0  0  0  0  0  0  0
   40.1850   30.5630   41.8750 C   0  0  0  0  0  0  0  0  0  0  0  0
   39.4140   29.5350   42.3070 N   0  0  0  0  0  0  0  0  0  0  0  0
   39.9140   28.5060   42.9960 C   0  0  0  0  0  0  0  0  0  0  0  0
   41.2510   28.4460   43.3020 N   0  0  0  0  0  0  0  0  0  0  0  0
   43.1280   29.3710   43.1520 H   0  0  0  0  0  0  0  0  0  0  0  0
   42.2460   31.3300   41.8550 H   0  0  0  0  0  0  0  0  0  0  0  0
   39.0170   27.3980   43.4420 C   0  0  2  0  0  0  0  0  0  0  0  0
   39.3560   26.2440   42.5190 C   0  0  0  0  0  0  0  0  0  0  0  0
   38.3760   25.9430   41.4690 C   0  0  0  0  0  0  0  0  0  0  0  0
   37.0550   25.7240   42.2080 C   0  0  0  0  0  0  0  0  0  0  0  0
   36.5740   26.9570   42.8350 C   0  0  0  0  0  0  0  0  0  0  0  0
   37.6370   27.7840   43.4590 C   0  0  0  0  0  0  0  0  0  0  0  0
   39.3640   27.1460   44.4670 H   0  0  0  0  0  0  0  0  0  0  0  0
   39.4540   25.3270   43.1540 H   0  0  0  0  0  0  0  0  0  0  0  0
   40.3550   26.3440   42.0400 H   0  0  0  0  0  0  0  0  0  0  0  0
   38.6250   24.9890   41.0070 H   0  0  0  0  0  0  0  0  0  0  0  0
   38.2590   26.7300   40.7030 H   0  0  0  0  0  0  0  0  0  0  0  0
   36.3320   25.4680   41.4350 H   0  0  0  0  0  0  0  0  0  0  0  0
   37.2220   24.8860   42.9170 H   0  0  0  0  0  0  0  0  0  0  0  0
   35.6130   27.3800   42.9330 H   0  0  0  0  0  0  0  0  0  0  0  0
   37.3040   29.0190   44.1060 N   0  0  0  0  0  0  0  0  0  0  0  0
   36.8670   29.6400   43.3670 H   0  0  0  0  0  0  0  0  0  0  0  0
   37.5540   29.0340   45.1170 H   0  0  0  0  0  0  0  0  0  0  0  0
   39.6490   31.6840   41.1300 C   0  0  0  0  0  0  0  0  0  0  0  0
   38.3170   31.7580   40.9300 C   0  0  0  0  0  0  0  0  0  0  0  0
   37.8590   32.8650   40.2030 C   0  0  0  0  0  0  0  0  0  0  0  0
   38.8130   33.7660   39.7640 C   0  0  0  0  0  0  0  0  0  0  0  0
   40.1510   33.6860   39.9660 C   0  0  0  0  0  0  0  0  0  0  0  0
   40.5520   32.5920   40.6810 N   0  0  0  0  0  0  0  0  0  0  0  0
   37.6160   31.0210   41.2980 H   0  0  0  0  0  0  0  0  0  0  0  0
   36.7970   32.9620   40.0220 H   0  0  0  0  0  0  0  0  0  0  0  0
   38.3700   34.5850   39.2140 H   0  0  0  0  0  0  0  0  0  0  0  0
   41.0470   34.6250   39.4980 O   0  0  0  0  0  0  0  0  0  0  0  0
   42.2920   34.3470   39.0140 C   0  0  0  0  0  0  0  0  0  0  0  0
   42.3370   34.3900   37.6160 C   0  0  0  0  0  0  0  0  0  0  0  0
   41.6590   34.5830   36.7870 H   0  0  0  0  0  0  0  0  0  0  0  0
   43.6080   34.1020   37.2150 N   0  0  0  0  0  0  0  0  0  0  0  0
   44.1380   34.0110   36.3300 H   0  0  0  0  0  0  0  0  0  0  0  0
   44.3060   33.8920   38.3600 C   0  0  0  0  0  0  0  0  0  0  0  0
   45.3540   33.6360   38.5430 H   0  0  0  0  0  0  0  0  0  0  0  0
   43.5270   34.0360   39.4470 N   0  0  0  0  0  0  0  0  0  0  0  0
  1  7  1  0  0  0  0
  1  6  1  0  0  0  0
  2  1  2  0  0  0  0
  3  2  1  0  0  0  0
  3  4  2  0  0  0  0
  4  5  1  0  0  0  0
  5  6  2  0  0  0  0
  5  9  1  0  0  0  0
  8  2  1  0  0  0  0
  9 14  1  0  0  0  0
  9 15  1  1  0  0  0
 10 16  1  0  0  0  0
 10  9  1  0  0  0  0
 11 12  1  0  0  0  0
 11 10  1  0  0  0  0
 12 13  1  0  0  0  0
 12 21  1  0  0  0  0
 13 22  1  0  0  0  0
 13 14  2  0  0  0  0
 14 23  1  0  0  0  0
 17 10  1  0  0  0  0
 18 11  1  0  0  0  0
 19 11  1  0  0  0  0
 20 12  1  0  0  0  0
 23 25  1  0  0  0  0
 24 23  1  0  0  0  0
 26  3  1  0  0  0  0
 27 26  1  0  0  0  0
 27 32  1  0  0  0  0
 28 27  2  0  0  0  0
 29 30  2  0  0  0  0
 29 28  1  0  0  0  0
 30 31  1  0  0  0  0
 31 26  2  0  0  0  0
 33 28  1  0  0  0  0
 34 29  1  0  0  0  0
 35 30  1  0  0  0  0
 36 43  1  0  0  0  0
 36 35  1  0  0  0  0
 37 36  2  0  0  0  0
 38 37  1  0  0  0  0
 39 37  1  0  0  0  0
 39 41  1  0  0  0  0
 40 39  1  0  0  0  0
 41 42  1  0  0  0  0
 41 43  2  0  0  0  0
M  END
>  <minimizedAffinity>
-6.55512571

$$$$

 OpenBabel03252505133D

 43 46  0  0  1  0  0  0  0  0999 V2000
   36.3510   31.1460   40.7970 C   0  0  0  0  0  0  0  0  0  0  0  0
   37.3270   32.1310   40.5300 C   0  0  0  0  0  0  0  0  0  0  0  0
   38.6830   31.8360   40.8700 C   0  0  0  0  0  0  0  0  0  0  0  0
   38.9570   30.6300   41.4280 N   0  0  0  0  0  0  0  0  0  0  0  0
   38.0090   29.7200   41.6670 C   0  0  0  0  0  0  0  0  0  0  0  0
   36.6960   29.9710   41.3530 N   0  0  0  0  0  0  0  0  0  0  0  0
   35.3130   31.3320   40.5550 H   0  0  0  0  0  0  0  0  0  0  0  0
   37.0500   33.0800   40.0820 H   0  0  0  0  0  0  0  0  0  0  0  0
   38.3690   28.4110   42.2890 C   0  0  2  0  0  0  0  0  0  0  0  0
   38.6460   27.4980   41.1110 C   0  0  0  0  0  0  0  0  0  0  0  0
   37.6150   26.5000   40.8060 C   0  0  0  0  0  0  0  0  0  0  0  0
   37.4160   25.7220   42.1070 C   0  0  0  0  0  0  0  0  0  0  0  0
   36.8340   26.5610   43.1570 C   0  0  0  0  0  0  0  0  0  0  0  0
   37.3670   27.9450   43.2030 C   0  0  0  0  0  0  0  0  0  0  0  0
   39.3240   28.6030   42.8230 H   0  0  0  0  0  0  0  0  0  0  0  0
   39.5910   26.9410   41.3370 H   0  0  0  0  0  0  0  0  0  0  0  0
   38.8810   28.0500   40.1740 H   0  0  0  0  0  0  0  0  0  0  0  0
   38.0070   25.7860   40.0840 H   0  0  0  0  0  0  0  0  0  0  0  0
   36.6520   26.9180   40.4590 H   0  0  0  0  0  0  0  0  0  0  0  0
   36.6750   24.9580   41.8760 H   0  0  0  0  0  0  0  0  0  0  0  0
   38.4010   25.2810   42.3680 H   0  0  0  0  0  0  0  0  0  0  0  0
   36.1040   26.3760   43.8960 H   0  0  0  0  0  0  0  0  0  0  0  0
   36.8830   28.8730   44.1820 N   0  0  0  0  0  0  0  0  0  0  0  0
   35.8440   28.9820   44.0080 H   0  0  0  0  0  0  0  0  0  0  0  0
   37.6270   29.2220   44.8230 H   0  0  0  0  0  0  0  0  0  0  0  0
   39.7070   32.8250   40.6050 C   0  0  0  0  0  0  0  0  0  0  0  0
   39.3560   33.9860   40.0120 C   0  0  0  0  0  0  0  0  0  0  0  0
   40.3900   34.9040   39.7820 C   0  0  0  0  0  0  0  0  0  0  0  0
   41.6600   34.5310   40.1830 C   0  0  0  0  0  0  0  0  0  0  0  0
   42.0080   33.3630   40.7780 C   0  0  0  0  0  0  0  0  0  0  0  0
   40.9680   32.5000   40.9830 N   0  0  0  0  0  0  0  0  0  0  0  0
   38.3420   34.2230   39.7190 H   0  0  0  0  0  0  0  0  0  0  0  0
   40.1500   35.8470   39.3090 H   0  0  0  0  0  0  0  0  0  0  0  0
   42.3910   35.2970   39.9670 H   0  0  0  0  0  0  0  0  0  0  0  0
   43.3000   33.0580   41.1520 O   0  0  0  0  0  0  0  0  0  0  0  0
   43.9730   33.6350   42.1900 C   0  0  0  0  0  0  0  0  0  0  0  0
   44.1730   32.7430   43.2500 C   0  0  0  0  0  0  0  0  0  0  0  0
   43.9450   31.7080   43.4950 H   0  0  0  0  0  0  0  0  0  0  0  0
   44.8470   33.3940   44.2410 N   0  0  0  0  0  0  0  0  0  0  0  0
   45.2200   33.1900   45.1850 H   0  0  0  0  0  0  0  0  0  0  0  0
   45.0440   34.6530   43.7730 C   0  0  0  0  0  0  0  0  0  0  0  0
   45.5350   35.5280   44.2090 H   0  0  0  0  0  0  0  0  0  0  0  0
   44.5230   34.8100   42.5430 N   0  0  0  0  0  0  0  0  0  0  0  0
  1  6  1  0  0  0  0
  2  1  2  0  0  0  0
  2  3  1  0  0  0  0
  3  4  2  0  0  0  0
  4  5  1  0  0  0  0
  5  9  1  0  0  0  0
  6  5  2  0  0  0  0
  7  1  1  0  0  0  0
  8  2  1  0  0  0  0
  9 15  1  1  0  0  0
  9 14  1  0  0  0  0
 10 16  1  0  0  0  0
 10  9  1  0  0  0  0
 11 10  1  0  0  0  0
 11 12  1  0  0  0  0
 12 21  1  0  0  0  0
 12 13  1  0  0  0  0
 13 14  2  0  0  0  0
 13 22  1  0  0  0  0
 14 23  1  0  0  0  0
 17 10  1  0  0  0  0
 18 11  1  0  0  0  0
 19 11  1  0  0  0  0
 20 12  1  0  0  0  0
 23 25  1  0  0  0  0
 24 23  1  0  0  0  0
 26  3  1  0  0  0  0
 26 31  1  0  0  0  0
 27 26  2  0  0  0  0
 28 27  1  0  0  0  0
 28 29  2  0  0  0  0
 29 30  1  0  0  0  0
 30 31  2  0  0  0  0
 30 35  1  0  0  0  0
 32 27  1  0  0  0  0
 33 28  1  0  0  0  0
 34 29  1  0  0  0  0
 35 36  1  0  0  0  0
 36 43  1  0  0  0  0
 36 37  2  0  0  0  0
 37 38  1  0  0  0  0
 37 39  1  0  0  0  0
 39 40  1  0  0  0  0
 41 42  1  0  0  0  0
 41 39  1  0  0  0  0
 43 41  2  0  0  0  0
M  END
>  <minimizedAffinity>
-6.5383935

$$$$

 OpenBabel03252505133D

 43 46  0  0  1  0  0  0  0  0999 V2000
   37.6030   32.6420   40.0350 C   0  0  0  0  0  0  0  0  0  0  0  0
   37.2610   31.4980   40.7880 C   0  0  0  0  0  0  0  0  0  0  0  0
   38.2550   30.4840   40.9510 C   0  0  0  0  0  0  0  0  0  0  0  0
   39.4680   30.6770   40.3750 N   0  0  0  0  0  0  0  0  0  0  0  0
   39.7590   31.7720   39.6680 C   0  0  0  0  0  0  0  0  0  0  0  0
   38.8270   32.7650   39.4920 N   0  0  0  0  0  0  0  0  0  0  0  0
   36.8780   33.4310   39.8880 H   0  0  0  0  0  0  0  0  0  0  0  0
   36.2740   31.3970   41.2270 H   0  0  0  0  0  0  0  0  0  0  0  0
   41.1110   31.9280   39.0520 C   0  0  2  0  0  0  0  0  0  0  0  0
   41.9720   32.4830   40.1680 C   0  0  0  0  0  0  0  0  0  0  0  0
   42.3170   33.9070   40.0740 C   0  0  0  0  0  0  0  0  0  0  0  0
   42.9730   34.0680   38.7020 C   0  0  0  0  0  0  0  0  0  0  0  0
   42.0190   33.8360   37.6160 C   0  0  0  0  0  0  0  0  0  0  0  0
   41.0790   32.7130   37.8530 C   0  0  0  0  0  0  0  0  0  0  0  0
   41.4420   30.8900   38.8300 H   0  0  0  0  0  0  0  0  0  0  0  0
   42.9330   31.9080   40.1660 H   0  0  0  0  0  0  0  0  0  0  0  0
   41.5530   32.2960   41.1810 H   0  0  0  0  0  0  0  0  0  0  0  0
   43.0880   34.1400   40.8070 H   0  0  0  0  0  0  0  0  0  0  0  0
   41.4620   34.6000   40.1740 H   0  0  0  0  0  0  0  0  0  0  0  0
   43.2610   35.1170   38.6420 H   0  0  0  0  0  0  0  0  0  0  0  0
   43.8540   33.3930   38.6900 H   0  0  0  0  0  0  0  0  0  0  0  0
   41.8650   34.3120   36.6870 H   0  0  0  0  0  0  0  0  0  0  0  0
   40.0920   32.3780   36.8690 N   0  0  0  0  0  0  0  0  0  0  0  0
   39.4780   33.2340   36.7530 H   0  0  0  0  0  0  0  0  0  0  0  0
   40.1900   31.4090   36.5010 H   0  0  0  0  0  0  0  0  0  0  0  0
   37.9340   29.3010   41.7210 C   0  0  0  0  0  0  0  0  0  0  0  0
   36.6930   28.7800   41.6330 C   0  0  0  0  0  0  0  0  0  0  0  0
   36.4420   27.6350   42.4020 C   0  0  0  0  0  0  0  0  0  0  0  0
   37.4880   27.1560   43.1710 C   0  0  0  0  0  0  0  0  0  0  0  0
   38.7340   27.6820   43.2570 C   0  0  0  0  0  0  0  0  0  0  0  0
   38.9320   28.7970   42.4900 N   0  0  0  0  0  0  0  0  0  0  0  0
   35.9120   29.2010   41.0120 H   0  0  0  0  0  0  0  0  0  0  0  0
   35.4590   27.1870   42.3580 H   0  0  0  0  0  0  0  0  0  0  0  0
   37.2050   26.2730   43.7270 H   0  0  0  0  0  0  0  0  0  0  0  0
   39.7310   27.1490   44.0470 O   0  0  0  0  0  0  0  0  0  0  0  0
   40.8940   26.6070   43.5820 C   0  0  0  0  0  0  0  0  0  0  0  0
   40.7760   25.2350   43.3350 C   0  0  0  0  0  0  0  0  0  0  0  0
   40.0170   24.4590   43.4070 H   0  0  0  0  0  0  0  0  0  0  0  0
   41.9750   24.7730   42.8770 N   0  0  0  0  0  0  0  0  0  0  0  0
   42.3900   23.8770   42.5660 H   0  0  0  0  0  0  0  0  0  0  0  0
   42.7900   25.8580   42.8510 C   0  0  0  0  0  0  0  0  0  0  0  0
   43.8370   25.9810   42.5580 H   0  0  0  0  0  0  0  0  0  0  0  0
   42.1540   26.9650   43.2720 N   0  0  0  0  0  0  0  0  0  0  0  0
  1  2  1  0  0  0  0
  2  3  2  0  0  0  0
  2  8  1  0  0  0  0
  3 26  1  0  0  0  0
  4  3  1  0  0  0  0
  5  4  2  0  0  0  0
  6  5  1  0  0  0  0
  6  1  2  0  0  0  0
  7  1  1  0  0  0  0
  9 15  1  6  0  0  0
  9  5  1  0  0  0  0
  9 10  1  0  0  0  0
 10 17  1  0  0  0  0
 11 10  1  0  0  0  0
 11 19  1  0  0  0  0
 11 18  1  0  0  0  0
 12 11  1  0  0  0  0
 13 14  2  0  0  0  0
 13 12  1  0  0  0  0
 14  9  1  0  0  0  0
 16 10  1  0  0  0  0
 20 12  1  0  0  0  0
 21 12  1  0  0  0  0
 22 13  1  0  0  0  0
 23 14  1  0  0  0  0
 24 23  1  0  0  0  0
 25 23  1  0  0  0  0
 26 31  1  0  0  0  0
 27 26  2  0  0  0  0
 27 28  1  0  0  0  0
 28 29  2  0  0  0  0
 29 30  1  0  0  0  0
 29 34  1  0  0  0  0
 30 35  1  0  0  0  0
 31 30  2  0  0  0  0
 32 27  1  0  0  0  0
 33 28  1  0  0  0  0
 36 35  1  0  0  0  0
 37 38  1  0  0  0  0
 37 36  2  0  0  0  0
 39 37  1  0  0  0  0
 40 39  1  0  0  0  0
 41 39  1  0  0  0  0
 41 43  2  0  0  0  0
 42 41  1  0  0  0  0
 43 36  1  0  0  0  0
M  END
>  <minimizedAffinity>
-6.49060631

$$$$

 OpenBabel03252505133D

 43 46  0  0  1  0  0  0  0  0999 V2000
   36.1940   25.4040   38.9830 C   0  0  0  0  0  0  0  0  0  0  0  0
   36.4820   26.6590   38.4060 C   0  0  0  0  0  0  0  0  0  0  0  0
   37.1710   27.6210   39.2070 C   0  0  0  0  0  0  0  0  0  0  0  0
   37.5100   27.2750   40.4740 N   0  0  0  0  0  0  0  0  0  0  0  0
   37.2220   26.0780   40.9910 C   0  0  0  0  0  0  0  0  0  0  0  0
   36.5610   25.1310   40.2480 N   0  0  0  0  0  0  0  0  0  0  0  0
   35.6740   24.6500   38.4090 H   0  0  0  0  0  0  0  0  0  0  0  0
   36.1870   26.8820   37.3850 H   0  0  0  0  0  0  0  0  0  0  0  0
   37.6150   25.7550   42.3950 C   0  0  2  0  0  0  0  0  0  0  0  0
   37.8760   27.1050   43.0330 C   0  0  0  0  0  0  0  0  0  0  0  0
   39.2830   27.4590   43.2510 C   0  0  0  0  0  0  0  0  0  0  0  0
   39.8600   26.3080   44.0760 C   0  0  0  0  0  0  0  0  0  0  0  0
   39.8960   25.0590   43.3120 C   0  0  0  0  0  0  0  0  0  0  0  0
   38.7050   24.8260   42.4580 C   0  0  0  0  0  0  0  0  0  0  0  0
   36.7020   25.3160   42.8520 H   0  0  0  0  0  0  0  0  0  0  0  0
   37.3750   27.1020   44.0350 H   0  0  0  0  0  0  0  0  0  0  0  0
   37.3880   27.9470   42.4950 H   0  0  0  0  0  0  0  0  0  0  0  0
   39.3380   28.3420   43.8850 H   0  0  0  0  0  0  0  0  0  0  0  0
   39.8740   27.6030   42.3290 H   0  0  0  0  0  0  0  0  0  0  0  0
   40.8960   26.5820   44.2680 H   0  0  0  0  0  0  0  0  0  0  0  0
   39.2630   26.2550   45.0100 H   0  0  0  0  0  0  0  0  0  0  0  0
   40.6080   24.2820   43.2460 H   0  0  0  0  0  0  0  0  0  0  0  0
   38.6120   23.6420   41.6560 N   0  0  0  0  0  0  0  0  0  0  0  0
   39.4320   23.6640   40.9860 H   0  0  0  0  0  0  0  0  0  0  0  0
   37.7930   23.0440   41.8970 H   0  0  0  0  0  0  0  0  0  0  0  0
   37.4830   28.9160   38.6400 C   0  0  0  0  0  0  0  0  0  0  0  0
   36.7840   29.3470   37.5690 C   0  0  0  0  0  0  0  0  0  0  0  0
   37.1310   30.6080   37.0650 C   0  0  0  0  0  0  0  0  0  0  0  0
   38.1520   31.2820   37.7130 C   0  0  0  0  0  0  0  0  0  0  0  0
   38.8520   30.8450   38.7880 C   0  0  0  0  0  0  0  0  0  0  0  0
   38.4790   29.6120   39.2450 N   0  0  0  0  0  0  0  0  0  0  0  0
   35.9940   28.7730   37.1030 H   0  0  0  0  0  0  0  0  0  0  0  0
   36.5940   30.9890   36.2080 H   0  0  0  0  0  0  0  0  0  0  0  0
   38.3500   32.2420   37.2580 H   0  0  0  0  0  0  0  0  0  0  0  0
   39.8600   31.5740   39.3840 O   0  0  0  0  0  0  0  0  0  0  0  0
   39.7340   32.8520   39.8500 C   0  0  0  0  0  0  0  0  0  0  0  0
   38.8160   32.9410   40.9020 C   0  0  0  0  0  0  0  0  0  0  0  0
   38.1610   32.2810   41.4680 H   0  0  0  0  0  0  0  0  0  0  0  0
   38.7480   34.2420   41.3070 N   0  0  0  0  0  0  0  0  0  0  0  0
   38.2450   34.8060   42.0150 H   0  0  0  0  0  0  0  0  0  0  0  0
   39.6150   34.9110   40.5060 C   0  0  0  0  0  0  0  0  0  0  0  0
   39.9000   35.9660   40.4560 H   0  0  0  0  0  0  0  0  0  0  0  0
   40.2130   34.0880   39.6270 N   0  0  0  0  0  0  0  0  0  0  0  0
  1  6  1  0  0  0  0
  2  1  2  0  0  0  0
  2  3  1  0  0  0  0
  3  4  2  0  0  0  0
  4  5  1  0  0  0  0
  5  9  1  0  0  0  0
  6  5  2  0  0  0  0
  7  1  1  0  0  0  0
  8  2  1  0  0  0  0
  9 14  1  0  0  0  0
  9 15  1  1  0  0  0
  9 10  1  0  0  0  0
 10 11  1  0  0  0  0
 10 16  1  0  0  0  0
 11 18  1  0  0  0  0
 11 12  1  0  0  0  0
 12 20  1  0  0  0  0
 12 21  1  0  0  0  0
 13 12  1  0  0  0  0
 14 13  2  0  0  0  0
 17 10  1  0  0  0  0
 19 11  1  0  0  0  0
 22 13  1  0  0  0  0
 23 25  1  0  0  0  0
 23 14  1  0  0  0  0
 24 23  1  0  0  0  0
 26  3  1  0  0  0  0
 26 31  1  0  0  0  0
 27 26  2  0  0  0  0
 28 27  1  0  0  0  0
 28 29  2  0  0  0  0
 29 30  1  0  0  0  0
 30 31  2  0  0  0  0
 30 35  1  0  0  0  0
 32 27  1  0  0  0  0
 33 28  1  0  0  0  0
 34 29  1  0  0  0  0
 35 36  1  0  0  0  0
 36 37  2  0  0  0  0
 37 39  1  0  0  0  0
 37 38  1  0  0  0  0
 39 40  1  0  0  0  0
 41 39  1  0  0  0  0
 42 41  1  0  0  0  0
 43 36  1  0  0  0  0
 43 41  2  0  0  0  0
M  END
>  <minimizedAffinity>
-6.43349123

$$$$

 OpenBabel03252505133D

 43 46  0  0  1  0  0  0  0  0999 V2000
   35.4380   29.4230   39.5260 C   0  0  0  0  0  0  0  0  0  0  0  0
   36.2300   30.5880   39.4240 C   0  0  0  0  0  0  0  0  0  0  0  0
   37.3090   30.7450   40.3480 C   0  0  0  0  0  0  0  0  0  0  0  0
   37.5120   29.7700   41.2680 N   0  0  0  0  0  0  0  0  0  0  0  0
   36.7440   28.6800   41.3370 C   0  0  0  0  0  0  0  0  0  0  0  0
   35.6990   28.4970   40.4650 N   0  0  0  0  0  0  0  0  0  0  0  0
   34.6130   29.2680   38.8450 H   0  0  0  0  0  0  0  0  0  0  0  0
   36.0210   31.3370   38.6660 H   0  0  0  0  0  0  0  0  0  0  0  0
   37.0120   27.6410   42.3770 C   0  0  2  0  0  0  0  0  0  0  0  0
   37.9110   28.3350   43.3800 C   0  0  0  0  0  0  0  0  0  0  0  0
   39.3290   27.9560   43.3520 C   0  0  0  0  0  0  0  0  0  0  0  0
   39.3390   26.4360   43.5210 C   0  0  0  0  0  0  0  0  0  0  0  0
   38.7420   25.7600   42.3670 C   0  0  0  0  0  0  0  0  0  0  0  0
   37.5380   26.4300   41.8170 C   0  0  0  0  0  0  0  0  0  0  0  0
   36.0260   27.4540   42.8530 H   0  0  0  0  0  0  0  0  0  0  0  0
   37.5230   28.0900   44.4010 H   0  0  0  0  0  0  0  0  0  0  0  0
   37.8500   29.4440   43.3310 H   0  0  0  0  0  0  0  0  0  0  0  0
   39.8270   28.3600   44.2320 H   0  0  0  0  0  0  0  0  0  0  0  0
   39.8690   28.2420   42.4310 H   0  0  0  0  0  0  0  0  0  0  0  0
   40.3900   26.1540   43.5340 H   0  0  0  0  0  0  0  0  0  0  0  0
   38.8370   26.2200   44.4880 H   0  0  0  0  0  0  0  0  0  0  0  0
   38.9980   24.8800   41.8440 H   0  0  0  0  0  0  0  0  0  0  0  0
   36.8550   25.8740   40.6860 N   0  0  0  0  0  0  0  0  0  0  0  0
   37.5530   25.8590   39.8890 H   0  0  0  0  0  0  0  0  0  0  0  0
   35.8660   25.6180   40.8870 H   0  0  0  0  0  0  0  0  0  0  0  0
   38.1400   31.9280   40.2650 C   0  0  0  0  0  0  0  0  0  0  0  0
   37.5580   33.1190   40.0110 C   0  0  0  0  0  0  0  0  0  0  0  0
   38.4140   34.2270   39.9430 C   0  0  0  0  0  0  0  0  0  0  0  0
   39.7630   33.9910   40.1410 C   0  0  0  0  0  0  0  0  0  0  0  0
   40.3430   32.7920   40.3950 C   0  0  0  0  0  0  0  0  0  0  0  0
   39.4700   31.7410   40.4530 N   0  0  0  0  0  0  0  0  0  0  0  0
   36.4930   33.2440   39.8640 H   0  0  0  0  0  0  0  0  0  0  0  0
   37.9870   35.2000   39.7430 H   0  0  0  0  0  0  0  0  0  0  0  0
   40.3450   34.8990   40.0720 H   0  0  0  0  0  0  0  0  0  0  0  0
   41.6990   32.6300   40.5830 O   0  0  0  0  0  0  0  0  0  0  0  0
   42.4940   33.4620   41.3180 C   0  0  0  0  0  0  0  0  0  0  0  0
   43.1370   32.7900   42.3630 C   0  0  0  0  0  0  0  0  0  0  0  0
   43.1910   31.7820   42.7700 H   0  0  0  0  0  0  0  0  0  0  0  0
   43.9070   33.6860   43.0450 N   0  0  0  0  0  0  0  0  0  0  0  0
   44.5470   33.6940   43.8590 H   0  0  0  0  0  0  0  0  0  0  0  0
   43.7210   34.8720   42.4110 C   0  0  0  0  0  0  0  0  0  0  0  0
   44.1280   35.8710   42.5930 H   0  0  0  0  0  0  0  0  0  0  0  0
   42.8750   34.7500   41.3730 N   0  0  0  0  0  0  0  0  0  0  0  0
  1  6  1  0  0  0  0
  2  1  2  0  0  0  0
  2  3  1  0  0  0  0
  3  4  2  0  0  0  0
  4  5  1  0  0  0  0
  5  9  1  0  0  0  0
  6  5  2  0  0  0  0
  7  1  1  0  0  0  0
  8  2  1  0  0  0  0
  9 15  1  1  0  0  0
  9 10  1  0  0  0  0
 10 16  1  0  0  0  0
 11 10  1  0  0  0  0
 11 12  1  0  0  0  0
 11 18  1  0  0  0  0
 12 20  1  0  0  0  0
 12 21  1  0  0  0  0
 13 12  1  0  0  0  0
 14 13  2  0  0  0  0
 14  9  1  0  0  0  0
 17 10  1  0  0  0  0
 19 11  1  0  0  0  0
 22 13  1  0  0  0  0
 23 25  1  0  0  0  0
 23 14  1  0  0  0  0
 24 23  1  0  0  0  0
 26  3  1  0  0  0  0
 26 31  1  0  0  0  0
 27 26  2  0  0  0  0
 28 27  1  0  0  0  0
 28 29  2  0  0  0  0
 29 30  1  0  0  0  0
 30 31  2  0  0  0  0
 30 35  1  0  0  0  0
 32 27  1  0  0  0  0
 33 28  1  0  0  0  0
 34 29  1  0  0  0  0
 35 36  1  0  0  0  0
 36 43  1  0  0  0  0
 36 37  2  0  0  0  0
 37 38  1  0  0  0  0
 37 39  1  0  0  0  0
 39 40  1  0  0  0  0
 41 42  1  0  0  0  0
 41 39  1  0  0  0  0
 43 41  2  0  0  0  0
M  END
>  <minimizedAffinity>
-6.41450644

$$$$

 OpenBabel03252505133D

 43 46  0  0  1  0  0  0  0  0999 V2000
   36.1470   27.0500   38.8770 C   0  0  0  0  0  0  0  0  0  0  0  0
   36.5450   28.3970   38.7350 C   0  0  0  0  0  0  0  0  0  0  0  0
   37.3320   28.9740   39.7800 C   0  0  0  0  0  0  0  0  0  0  0  0
   37.6530   28.1980   40.8450 N   0  0  0  0  0  0  0  0  0  0  0  0
   37.2600   26.9250   40.9470 C   0  0  0  0  0  0  0  0  0  0  0  0
   36.5030   26.3400   39.9620 N   0  0  0  0  0  0  0  0  0  0  0  0
   35.5500   26.5780   38.1080 H   0  0  0  0  0  0  0  0  0  0  0  0
   36.2590   28.9720   37.8600 H   0  0  0  0  0  0  0  0  0  0  0  0
   37.6390   26.1200   42.1460 C   0  0  2  0  0  0  0  0  0  0  0  0
   38.0080   27.1530   43.1920 C   0  0  0  0  0  0  0  0  0  0  0  0
   39.4410   27.3130   43.4680 C   0  0  0  0  0  0  0  0  0  0  0  0
   39.9340   25.9130   43.8370 C   0  0  0  0  0  0  0  0  0  0  0  0
   39.8670   24.9970   42.6970 C   0  0  0  0  0  0  0  0  0  0  0  0
   38.6540   25.1500   41.8560 C   0  0  0  0  0  0  0  0  0  0  0  0
   36.6980   25.6170   42.4600 H   0  0  0  0  0  0  0  0  0  0  0  0
   37.5180   26.8460   44.1510 H   0  0  0  0  0  0  0  0  0  0  0  0
   37.5820   28.1590   42.9860 H   0  0  0  0  0  0  0  0  0  0  0  0
   39.5700   27.9230   44.3610 H   0  0  0  0  0  0  0  0  0  0  0  0
   40.0330   27.7180   42.6290 H   0  0  0  0  0  0  0  0  0  0  0  0
   40.9900   26.0330   44.0750 H   0  0  0  0  0  0  0  0  0  0  0  0
   39.3430   25.5890   44.7190 H   0  0  0  0  0  0  0  0  0  0  0  0
   40.5160   24.2410   42.3490 H   0  0  0  0  0  0  0  0  0  0  0  0
   38.4630   24.3170   40.7060 N   0  0  0  0  0  0  0  0  0  0  0  0
   39.2770   24.5070   40.0550 H   0  0  0  0  0  0  0  0  0  0  0  0
   37.6030   23.7320   40.7600 H   0  0  0  0  0  0  0  0  0  0  0  0
   37.7570   30.3530   39.6610 C   0  0  0  0  0  0  0  0  0  0  0  0
   36.8210   31.3240   39.6130 C   0  0  0  0  0  0  0  0  0  0  0  0
   37.2940   32.6390   39.4980 C   0  0  0  0  0  0  0  0  0  0  0  0
   38.6660   32.8090   39.4450 C   0  0  0  0  0  0  0  0  0  0  0  0
   39.6030   31.8300   39.4920 C   0  0  0  0  0  0  0  0  0  0  0  0
   39.0960   30.5650   39.6050 N   0  0  0  0  0  0  0  0  0  0  0  0
   35.7580   31.1300   39.6590 H   0  0  0  0  0  0  0  0  0  0  0  0
   36.5760   33.4460   39.4570 H   0  0  0  0  0  0  0  0  0  0  0  0
   38.9390   33.8510   39.3570 H   0  0  0  0  0  0  0  0  0  0  0  0
   40.9590   32.0740   39.4340 O   0  0  0  0  0  0  0  0  0  0  0  0
   41.5400   33.1240   38.7830 C   0  0  0  0  0  0  0  0  0  0  0  0
   41.7460   32.8530   37.4260 C   0  0  0  0  0  0  0  0  0  0  0  0
   41.5780   32.0380   36.7240 H   0  0  0  0  0  0  0  0  0  0  0  0
   42.3270   33.9450   36.8500 N   0  0  0  0  0  0  0  0  0  0  0  0
   42.6650   34.2390   35.9170 H   0  0  0  0  0  0  0  0  0  0  0  0
   42.4610   34.8490   37.8540 C   0  0  0  0  0  0  0  0  0  0  0  0
   42.8690   35.8630   37.8750 H   0  0  0  0  0  0  0  0  0  0  0  0
   41.9930   34.3680   39.0190 N   0  0  0  0  0  0  0  0  0  0  0  0
  1  6  1  0  0  0  0
  2  1  2  0  0  0  0
  2  3  1  0  0  0  0
  3  4  2  0  0  0  0
  4  5  1  0  0  0  0
  5  9  1  0  0  0  0
  6  5  2  0  0  0  0
  7  1  1  0  0  0  0
  8  2  1  0  0  0  0
  9 15  1  1  0  0  0
  9 10  1  0  0  0  0
 10 11  1  0  0  0  0
 10 16  1  0  0  0  0
 11 12  1  0  0  0  0
 11 18  1  0  0  0  0
 12 20  1  0  0  0  0
 12 21  1  0  0  0  0
 13 12  1  0  0  0  0
 14  9  1  0  0  0  0
 14 13  2  0  0  0  0
 17 10  1  0  0  0  0
 19 11  1  0  0  0  0
 22 13  1  0  0  0  0
 23 25  1  0  0  0  0
 23 14  1  0  0  0  0
 24 23  1  0  0  0  0
 26  3  1  0  0  0  0
 27 32  1  0  0  0  0
 27 26  1  0  0  0  0
 28 27  2  0  0  0  0
 29 30  2  0  0  0  0
 29 28  1  0  0  0  0
 30 31  1  0  0  0  0
 31 26  2  0  0  0  0
 33 28  1  0  0  0  0
 34 29  1  0  0  0  0
 35 30  1  0  0  0  0
 36 43  1  0  0  0  0
 36 35  1  0  0  0  0
 37 36  2  0  0  0  0
 38 37  1  0  0  0  0
 39 37  1  0  0  0  0
 39 41  1  0  0  0  0
 40 39  1  0  0  0  0
 41 42  1  0  0  0  0
 41 43  2  0  0  0  0
M  END
>  <minimizedAffinity>
-6.41069555

$$$$

 OpenBabel03252505133D

 43 46  0  0  1  0  0  0  0  0999 V2000
   35.8410   29.2080   38.2620 C   0  0  0  0  0  0  0  0  0  0  0  0
   36.1340   28.5490   39.4760 C   0  0  0  0  0  0  0  0  0  0  0  0
   37.1300   29.1220   40.3250 C   0  0  0  0  0  0  0  0  0  0  0  0
   37.7370   30.2650   39.9200 N   0  0  0  0  0  0  0  0  0  0  0  0
   37.4370   30.8640   38.7640 C   0  0  0  0  0  0  0  0  0  0  0  0
   36.4850   30.3400   37.9250 N   0  0  0  0  0  0  0  0  0  0  0  0
   35.0940   28.8050   37.5930 H   0  0  0  0  0  0  0  0  0  0  0  0
   35.6160   27.6350   39.7500 H   0  0  0  0  0  0  0  0  0  0  0  0
   38.1430   32.1190   38.3680 C   0  0  2  0  0  0  0  0  0  0  0  0
   39.4400   31.6410   37.7470 C   0  0  0  0  0  0  0  0  0  0  0  0
   40.6500   31.8120   38.5600 C   0  0  0  0  0  0  0  0  0  0  0  0
   40.6890   33.3000   38.9090 C   0  0  0  0  0  0  0  0  0  0  0  0
   39.5830   33.6790   39.7900 C   0  0  0  0  0  0  0  0  0  0  0  0
   38.2870   33.0350   39.4610 C   0  0  0  0  0  0  0  0  0  0  0  0
   37.5080   32.5620   37.5700 H   0  0  0  0  0  0  0  0  0  0  0  0
   39.5910   32.2230   36.8020 H   0  0  0  0  0  0  0  0  0  0  0  0
   39.4000   30.5840   37.4050 H   0  0  0  0  0  0  0  0  0  0  0  0
   41.5280   31.6230   37.9440 H   0  0  0  0  0  0  0  0  0  0  0  0
   40.6810   31.2020   39.4800 H   0  0  0  0  0  0  0  0  0  0  0  0
   41.6030   33.4370   39.4850 H   0  0  0  0  0  0  0  0  0  0  0  0
   40.7170   33.8520   37.9460 H   0  0  0  0  0  0  0  0  0  0  0  0
   39.5210   34.3250   40.6220 H   0  0  0  0  0  0  0  0  0  0  0  0
   37.1210   33.3170   40.2450 N   0  0  0  0  0  0  0  0  0  0  0  0
   37.3400   33.0090   41.2350 H   0  0  0  0  0  0  0  0  0  0  0  0
   36.3470   33.7450   39.6940 H   0  0  0  0  0  0  0  0  0  0  0  0
   37.4480   28.4690   41.5780 C   0  0  0  0  0  0  0  0  0  0  0  0
   36.4440   27.9710   42.3290 C   0  0  0  0  0  0  0  0  0  0  0  0
   36.8150   27.3500   43.5300 C   0  0  0  0  0  0  0  0  0  0  0  0
   38.1660   27.3100   43.8240 C   0  0  0  0  0  0  0  0  0  0  0  0
   39.1710   27.8130   43.0660 C   0  0  0  0  0  0  0  0  0  0  0  0
   38.7630   28.4080   41.9050 N   0  0  0  0  0  0  0  0  0  0  0  0
   35.4010   28.0310   42.0470 H   0  0  0  0  0  0  0  0  0  0  0  0
   36.0390   26.9360   44.1600 H   0  0  0  0  0  0  0  0  0  0  0  0
   38.3580   26.8140   44.7650 H   0  0  0  0  0  0  0  0  0  0  0  0
   40.5020   27.7370   43.4230 O   0  0  0  0  0  0  0  0  0  0  0  0
   41.4080   26.8670   42.8900 C   0  0  0  0  0  0  0  0  0  0  0  0
   41.4970   25.6810   43.6260 C   0  0  0  0  0  0  0  0  0  0  0  0
   41.0490   25.2400   44.5150 H   0  0  0  0  0  0  0  0  0  0  0  0
   42.4190   24.8710   43.0310 N   0  0  0  0  0  0  0  0  0  0  0  0
   42.8320   23.9320   43.1760 H   0  0  0  0  0  0  0  0  0  0  0  0
   42.8680   25.5680   41.9570 C   0  0  0  0  0  0  0  0  0  0  0  0
   43.6060   25.3300   41.1850 H   0  0  0  0  0  0  0  0  0  0  0  0
   42.2690   26.7680   41.8610 N   0  0  0  0  0  0  0  0  0  0  0  0
  1  2  1  0  0  0  0
  2  8  1  0  0  0  0
  2  3  2  0  0  0  0
  3 26  1  0  0  0  0
  4  3  1  0  0  0  0
  5  4  2  0  0  0  0
  6  1  2  0  0  0  0
  6  5  1  0  0  0  0
  7  1  1  0  0  0  0
  9 15  1  6  0  0  0
  9  5  1  0  0  0  0
  9 14  1  0  0  0  0
 10  9  1  0  0  0  0
 10 11  1  0  0  0  0
 11 12  1  0  0  0  0
 11 19  1  0  0  0  0
 12 20  1  0  0  0  0
 12 13  1  0  0  0  0
 13 22  1  0  0  0  0
 14 13  2  0  0  0  0
 14 23  1  0  0  0  0
 16 10  1  0  0  0  0
 17 10  1  0  0  0  0
 18 11  1  0  0  0  0
 21 12  1  0  0  0  0
 23 24  1  0  0  0  0
 25 23  1  0  0  0  0
 26 31  2  0  0  0  0
 26 27  1  0  0  0  0
 27 28  2  0  0  0  0
 28 29  1  0  0  0  0
 28 33  1  0  0  0  0
 29 34  1  0  0  0  0
 30 35  1  0  0  0  0
 30 29  2  0  0  0  0
 31 30  1  0  0  0  0
 32 27  1  0  0  0  0
 36 35  1  0  0  0  0
 36 37  2  0  0  0  0
 37 38  1  0  0  0  0
 39 40  1  0  0  0  0
 39 37  1  0  0  0  0
 41 39  1  0  0  0  0
 42 41  1  0  0  0  0
 43 41  2  0  0  0  0
 43 36  1  0  0  0  0
M  END
>  <minimizedAffinity>
-6.33258009

$$$$
