
 OpenBabel03252505143D

 24 26  0  0  0  0  0  0  0  0999 V2000
   44.5840   36.0330   44.2950 C   0  0  0  0  0  0  0  0  0  0  0  0
   45.3570   35.8330   43.1370 C   0  0  0  0  0  0  0  0  0  0  0  0
   46.2360   34.7630   43.1780 C   0  0  0  0  0  0  0  0  0  0  0  0
   46.3220   33.9680   44.2950 N   0  0  0  0  0  0  0  0  0  0  0  0
   45.5490   34.2030   45.3940 C   0  0  0  0  0  0  0  0  0  0  0  0
   44.6870   35.2360   45.3820 N   0  0  0  0  0  0  0  0  0  0  0  0
   43.8750   36.8440   44.3470 H   0  0  0  0  0  0  0  0  0  0  0  0
   45.2740   36.4590   42.2860 H   0  0  0  0  0  0  0  0  0  0  0  0
   47.0970   34.4270   41.9960 C   0  0  0  0  0  0  0  0  0  0  0  0
   48.1990   35.4350   41.7550 C   0  0  0  0  0  0  0  0  0  0  0  0
   48.4640   33.9790   42.2220 C   0  0  0  0  0  0  0  0  0  0  0  0
   46.5140   34.1130   41.1170 H   0  0  0  0  0  0  0  0  0  0  0  0
   48.3710   36.2520   42.4530 H   0  0  0  0  0  0  0  0  0  0  0  0
   48.3760   35.6710   40.6950 H   0  0  0  0  0  0  0  0  0  0  0  0
   48.9690   33.9480   43.1850 H   0  0  0  0  0  0  0  0  0  0  0  0
   48.9580   33.3660   41.4200 H   0  0  0  0  0  0  0  0  0  0  0  0
   45.7730   33.2590   46.4850 C   0  0  0  0  0  0  0  0  0  0  0  0
   46.8810   32.4090   46.4480 C   0  0  0  0  0  0  0  0  0  0  0  0
   47.6580   32.3380   45.6730 H   0  0  0  0  0  0  0  0  0  0  0  0
   46.8630   31.6440   47.5550 N   0  0  0  0  0  0  0  0  0  0  0  0
   47.5840   30.9200   47.7720 H   0  0  0  0  0  0  0  0  0  0  0  0
   45.7650   32.0050   48.2780 C   0  0  0  0  0  0  0  0  0  0  0  0
   45.5760   31.5020   49.2050 H   0  0  0  0  0  0  0  0  0  0  0  0
   45.0970   32.9970   47.6190 N   0  0  0  0  0  0  0  0  0  0  0  0
  1  7  1  0  0  0  0
  1  6  1  0  0  0  0
  2  3  1  0  0  0  0
  2  1  2  0  0  0  0
  3  4  2  0  0  0  0
  4  5  1  0  0  0  0
  5 17  1  0  0  0  0
  6  5  2  0  0  0  0
  8  2  1  0  0  0  0
  9 11  1  0  0  0  0
  9  3  1  0  0  0  0
 10  9  1  0  0  0  0
 10 11  1  0  0  0  0
 10 13  1  0  0  0  0
 11 15  1  0  0  0  0
 12  9  1  0  0  0  0
 14 10  1  0  0  0  0
 16 11  1  0  0  0  0
 17 24  1  0  0  0  0
 18 17  2  0  0  0  0
 18 20  1  0  0  0  0
 19 18  1  0  0  0  0
 20 21  1  0  0  0  0
 20 22  1  0  0  0  0
 22 23  1  0  0  0  0
 24 22  2  0  0  0  0
M  END
>  <minimizedAffinity>
-4.85966539

>  <minimizedRMSD>
0.547159433

$$$$
