
 OpenBabel03242519373D

 26 27  0  0  0  0  0  0  0  0999 V2000
   48.0450   32.8640   41.7530 O   0  0  0  0  0  0  0  0  0  0  0  0
   47.1870   34.0210   41.2750 P   0  0  2  0  0  0  0  0  0  0  0  0
   45.6030   33.8060   41.9140 O   0  0  0  0  0  0  0  0  0  0  0  0
   44.3900   35.9140   44.6550 C   0  0  0  0  0  0  0  0  0  0  0  0
   44.6720   35.4820   43.3430 C   0  0  0  0  0  0  0  0  0  0  0  0
   45.3180   34.2470   43.2010 C   0  0  0  0  0  0  0  0  0  0  0  0
   45.6340   33.5430   44.3110 N   0  0  0  0  0  0  0  0  0  0  0  0
   45.3430   33.9980   45.5480 C   0  0  0  0  0  0  0  0  0  0  0  0
   44.7280   35.1730   45.7230 N   0  0  0  0  0  0  0  0  0  0  0  0
   43.8870   36.8770   44.7570 H   0  0  0  0  0  0  0  0  0  0  0  0
   44.4150   36.0550   42.4610 H   0  0  0  0  0  0  0  0  0  0  0  0
   45.6590   33.3220   46.3380 H   0  0  0  0  0  0  0  0  0  0  0  0
   47.0870   34.1320   39.6190 O   0  0  0  0  0  0  0  0  0  0  0  0
   46.5440   33.1120   38.8570 C   0  0  0  0  0  0  0  0  0  0  0  0
   46.0300   31.8700   39.1450 C   0  0  0  0  0  0  0  0  0  0  0  0
   45.9940   31.5110   40.1660 H   0  0  0  0  0  0  0  0  0  0  0  0
   45.6270   31.2680   38.0040 N   0  0  0  0  0  0  0  0  0  0  0  0
   45.2060   30.3090   38.0360 H   0  0  0  0  0  0  0  0  0  0  0  0
   45.8790   32.1170   36.9800 C   0  0  0  0  0  0  0  0  0  0  0  0
   45.6590   31.8960   35.9580 H   0  0  0  0  0  0  0  0  0  0  0  0
   46.4410   33.2440   37.5020 N   0  0  0  0  0  0  0  0  0  0  0  0
   47.8050   35.4410   41.9450 O   0  0  0  0  0  0  0  0  0  0  0  0
   49.0430   35.7600   41.4330 C   0  0  0  0  0  0  0  0  0  0  0  0
   49.4620   37.0420   41.7830 F   0  0  0  0  0  0  0  0  0  0  0  0
   49.9610   34.7920   41.7440 F   0  0  0  0  0  0  0  0  0  0  0  0
   48.9050   35.7750   40.0390 F   0  0  0  0  0  0  0  0  0  0  0  0
  2  1  2  1  0  0  0
  2  3  1  0  0  0  0
  2 22  1  0  0  0  0
  3  6  1  0  0  0  0
  4 10  1  0  0  0  0
  4  9  1  0  0  0  0
  5  4  2  0  0  0  0
  6  5  1  0  0  0  0
  6  7  2  0  0  0  0
  7  8  1  0  0  0  0
  8  9  2  0  0  0  0
  8 12  1  0  0  0  0
 11  5  1  0  0  0  0
 13  2  1  0  0  0  0
 14 15  2  0  0  0  0
 14 13  1  0  0  0  0
 15 16  1  0  0  0  0
 17 18  1  0  0  0  0
 17 15  1  0  0  0  0
 19 21  2  0  0  0  0
 19 17  1  0  0  0  0
 20 19  1  0  0  0  0
 21 14  1  0  0  0  0
 23 25  1  0  0  0  0
 23 24  1  0  0  0  0
 23 22  1  0  0  0  0
 26 23  1  0  0  0  0
M  END
>  <minimizedAffinity>
-4.96196747

>  <minimizedRMSD>
0.558292508

$$$$
