
 OpenBabel03252506463D

 41 44  0  0  1  0  0  0  0  0999 V2000
   49.6120   33.6830   41.3270 N   0  0  1  0  0  0  0  0  0  0  0  0
   50.6700   33.0540   42.0750 C   0  0  0  0  0  0  0  0  0  0  0  0
   51.1640   31.7870   41.4320 C   0  0  0  0  0  0  0  0  0  0  0  0
   50.0670   30.7470   41.5340 C   0  0  0  0  0  0  0  0  0  0  0  0
   48.7180   31.3790   41.3190 C   0  0  0  0  0  0  0  0  0  0  0  0
   48.8960   32.6920   40.6000 C   0  0  2  0  0  0  0  0  0  0  0  0
   51.4970   33.7630   42.2220 H   0  0  0  0  0  0  0  0  0  0  0  0
   50.2970   32.7800   43.1030 H   0  0  0  0  0  0  0  0  0  0  0  0
   51.5620   31.9210   40.4300 H   0  0  0  0  0  0  0  0  0  0  0  0
   51.9900   31.4200   42.0730 H   0  0  0  0  0  0  0  0  0  0  0  0
   50.2930   29.9680   40.7720 H   0  0  0  0  0  0  0  0  0  0  0  0
   50.1160   30.2700   42.5350 H   0  0  0  0  0  0  0  0  0  0  0  0
   48.0390   30.7690   40.7170 H   0  0  0  0  0  0  0  0  0  0  0  0
   48.3030   31.6220   42.3250 H   0  0  0  0  0  0  0  0  0  0  0  0
   47.8600   33.1050   40.4460 H   0  0  0  0  0  0  0  0  0  0  0  0
   47.4130   34.8640   41.9860 C   0  0  1  0  0  0  0  0  0  0  0  0
   48.5270   35.8420   41.8940 C   0  0  0  0  0  0  0  0  0  0  0  0
   48.8080   34.4250   42.2420 C   0  0  2  0  0  0  0  0  0  0  0  0
   46.9270   34.6200   41.0050 H   0  0  0  0  0  0  0  0  0  0  0  0
   48.8410   36.2040   40.8770 H   0  0  0  0  0  0  0  0  0  0  0  0
   48.5970   36.6410   42.6570 H   0  0  0  0  0  0  0  0  0  0  0  0
   49.0430   34.2290   43.3190 H   0  0  0  0  0  0  0  0  0  0  0  0
   45.5130   36.0020   43.1750 C   0  0  0  0  0  0  0  0  0  0  0  0
   46.4590   34.9750   43.0940 C   0  0  0  0  0  0  0  0  0  0  0  0
   46.4510   34.0210   44.1290 C   0  0  0  0  0  0  0  0  0  0  0  0
   45.5480   34.1350   45.1370 N   0  0  0  0  0  0  0  0  0  0  0  0
   44.6490   35.1530   45.1690 C   0  0  0  0  0  0  0  0  0  0  0  0
   44.6230   36.0920   44.1890 N   0  0  0  0  0  0  0  0  0  0  0  0
   45.5450   36.7250   42.3570 H   0  0  0  0  0  0  0  0  0  0  0  0
   47.1680   33.2060   44.1150 H   0  0  0  0  0  0  0  0  0  0  0  0
   43.9570   35.1950   45.9980 H   0  0  0  0  0  0  0  0  0  0  0  0
   49.3970   32.4410   39.2600 N   0  0  0  0  0  0  0  0  0  0  0  0
   50.1820   31.8840   38.7950 H   0  0  0  0  0  0  0  0  0  0  0  0
   48.5530   33.1690   38.3380 C   0  0  0  0  0  0  0  0  0  0  0  0
   48.4220   34.4010   37.7320 C   0  0  0  0  0  0  0  0  0  0  0  0
   49.1730   35.0990   38.0090 H   0  0  0  0  0  0  0  0  0  0  0  0
   47.3450   34.3810   36.9330 N   0  0  0  0  0  0  0  0  0  0  0  0
   47.0850   35.2370   36.3870 H   0  0  0  0  0  0  0  0  0  0  0  0
   46.7640   33.1710   36.9960 C   0  0  0  0  0  0  0  0  0  0  0  0
   45.8780   32.9590   36.4180 H   0  0  0  0  0  0  0  0  0  0  0  0
   47.5110   32.4260   37.8630 N   0  0  0  0  0  0  0  0  0  0  0  0
  1  2  1  1  0  0  0
  1 18  1  0  0  0  0
  2  7  1  0  0  0  0
  2  8  1  0  0  0  0
  3  4  1  0  0  0  0
  3 10  1  0  0  0  0
  3  2  1  0  0  0  0
  4 12  1  0  0  0  0
  5  4  1  0  0  0  0
  5 14  1  0  0  0  0
  6 15  1  6  0  0  0
  6  5  1  0  0  0  0
  6  1  1  0  0  0  0
  9  3  1  0  0  0  0
 11  4  1  0  0  0  0
 13  5  1  0  0  0  0
 16 19  1  6  0  0  0
 16 18  1  0  0  0  0
 16 24  1  0  0  0  0
 17 16  1  0  0  0  0
 17 18  1  0  0  0  0
 17 21  1  0  0  0  0
 18 22  1  1  0  0  0
 20 17  1  0  0  0  0
 23 28  1  0  0  0  0
 24 23  2  0  0  0  0
 24 25  1  0  0  0  0
 25 26  2  0  0  0  0
 26 27  1  0  0  0  0
 27 31  1  0  0  0  0
 28 27  2  0  0  0  0
 29 23  1  0  0  0  0
 30 25  1  0  0  0  0
 32  6  1  0  0  0  0
 33 32  1  0  0  0  0
 34 32  1  0  0  0  0
 35 36  1  0  0  0  0
 35 34  2  0  0  0  0
 37 39  1  0  0  0  0
 37 35  1  0  0  0  0
 38 37  1  0  0  0  0
 39 41  2  0  0  0  0
 40 39  1  0  0  0  0
 41 34  1  0  0  0  0
M  END
>  <minimizedAffinity>
-5.64097643

>  <minimizedRMSD>
2.85979891

$$$$
