REMARK  Name = 
REMARK  7 active torsions:
REMARK  status: ('A' for Active; 'I' for Inactive)
REMARK    1  A    between atoms: C_3  and  C_12
REMARK    2  A    between atoms: C_7  and  O_15
REMARK    3  A    between atoms: C_8  and  N_14
REMARK    4  A    between atoms: O_15  and  P_17
REMARK    5  A    between atoms: P_17  and  O_18
REMARK    6  A    between atoms: P_17  and  O_19
REMARK    7  A    between atoms: O_19  and  C_28
REMARK                            x       y       z     vdW  Elec       q    Type
REMARK                         _______ _______ _______ _____ _____    ______ ____
ROOT
ATOM      1  F   UNL     1      45.133  33.510  41.154  0.00  0.00    +0.000 F 
ATOM      2  C   UNL     1      46.330  34.092  41.047  0.00  0.00    +0.000 A 
ATOM      3  C   UNL     1      46.834  34.803  42.115  0.00  0.00    +0.000 A 
ATOM      4  C   UNL     1      48.078  35.440  42.088  0.00  0.00    +0.000 A 
ATOM      5  C   UNL     1      48.853  35.359  40.931  0.00  0.00    +0.000 A 
ATOM      6  C   UNL     1      48.312  34.636  39.882  0.00  0.00    +0.000 A 
ATOM      7  C   UNL     1      47.105  34.013  39.895  0.00  0.00    +0.000 A 
ATOM      8  H   UNL     1      48.404  35.979  42.966  0.00  0.00    +0.000 HD
ATOM      9  H   UNL     1      49.800  35.864  40.956  0.00  0.00    +0.000 HD
ATOM     10  H   UNL     1      49.017  34.648  39.056  0.00  0.00    +0.000 HD
ENDROOT
BRANCH   3  15
ATOM     11  C   UNL     1      45.449  34.014  45.420  0.00  0.00    +0.000 A 
ATOM     12  C   UNL     1      44.609  35.130  45.657  0.00  0.00    +0.000 A 
ATOM     13  C   UNL     1      44.527  36.147  44.675  0.00  0.00    +0.000 A 
ATOM     14  N   UNL     1      45.278  35.977  43.546  0.00  0.00    +0.000 NA
ATOM     15  C   UNL     1      46.058  34.912  43.355  0.00  0.00    +0.000 A 
ATOM     16  N   UNL     1      46.140  33.944  44.284  0.00  0.00    +0.000 NA
ATOM     17  H   UNL     1      44.035  35.230  46.553  0.00  0.00    +0.000 HD
ATOM     18  H   UNL     1      43.895  37.012  44.825  0.00  0.00    +0.000 HD
BRANCH  11  19
ATOM     19  N   UNL     1      45.520  33.006  46.411  0.00  0.00    +0.000 N 
ATOM     20  H   UNL     1      45.472  31.954  46.260  0.00  0.00    +0.000 HD
ATOM     21  H   UNL     1      45.635  33.300  47.427  0.00  0.00    +0.000 HD
ENDBRANCH  11  19
ENDBRANCH   3  15
BRANCH   7  22
ATOM     22  O   UNL     1      46.667  33.325  38.799  0.00  0.00    +0.000 OA
BRANCH  22  24
ATOM     23  O   UNL     1      48.072  34.661  36.995  0.00  0.00    +0.000 OA
ATOM     24  P   UNL     1      47.337  33.372  37.259  0.00  0.00    +0.000 P 
BRANCH  24  25
ATOM     25  O   UNL     1      46.060  33.178  36.128  0.00  0.00    +0.000 OA
ATOM     26  H   UNL     1      45.860  32.202  36.024  0.00  0.00    +0.000 HD
ENDBRANCH  24  25
BRANCH  24  27
ATOM     27  O   UNL     1      48.380  32.083  36.936  0.00  0.00    +0.000 OA
BRANCH  27  28
ATOM     28  C   UNL     1      49.072  31.368  37.905  0.00  0.00    +0.000 A 
ATOM     29  C   UNL     1      48.700  31.484  39.230  0.00  0.00    +0.000 A 
ATOM     30  H   UNL     1      47.935  32.042  39.762  0.00  0.00    +0.000 HD
ATOM     31  N   UNL     1      49.536  30.687  39.949  0.00  0.00    +0.000 N 
ATOM     32  H   UNL     1      49.631  30.459  40.981  0.00  0.00    +0.000 HD
ATOM     33  C   UNL     1      50.403  30.089  39.117  0.00  0.00    +0.000 A 
ATOM     34  H   UNL     1      51.232  29.397  39.150  0.00  0.00    +0.000 HD
ATOM     35  N   UNL     1      50.126  30.503  37.848  0.00  0.00    +0.000 NA
ENDBRANCH  27  28
ENDBRANCH  24  27
ENDBRANCH  22  24
ENDBRANCH   7  22
TORSDOF 7
