
 OpenBabel03252501593D

 35 37  0  0  0  0  0  0  0  0999 V2000
   44.4790   35.8450   45.1910 C   0  0  0  0  0  0  0  0  0  0  0  0
   45.2470   35.8950   44.0230 C   0  0  0  0  0  0  0  0  0  0  0  0
   46.1440   34.9000   43.7690 C   0  0  0  0  0  0  0  0  0  0  0  0
   46.2630   33.8760   44.6760 N   0  0  0  0  0  0  0  0  0  0  0  0
   45.5120   33.8390   45.8070 C   0  0  0  0  0  0  0  0  0  0  0  0
   44.6220   34.8170   46.0690 N   0  0  0  0  0  0  0  0  0  0  0  0
   43.7150   36.4310   45.6090 H   0  0  0  0  0  0  0  0  0  0  0  0
   45.7680   32.9500   46.3720 H   0  0  0  0  0  0  0  0  0  0  0  0
   46.9120   34.9450   42.5620 C   0  0  0  0  0  0  0  0  0  0  0  0
   48.0820   35.5990   42.3160 C   0  0  0  0  0  0  0  0  0  0  0  0
   48.6740   35.5150   41.0690 C   0  0  0  0  0  0  0  0  0  0  0  0
   48.0980   34.7760   40.0660 C   0  0  0  0  0  0  0  0  0  0  0  0
   46.9290   34.1110   40.2820 C   0  0  0  0  0  0  0  0  0  0  0  0
   46.3550   34.2090   41.5350 C   0  0  0  0  0  0  0  0  0  0  0  0
   48.4780   36.1630   43.1550 H   0  0  0  0  0  0  0  0  0  0  0  0
   49.6020   36.0670   40.9600 H   0  0  0  0  0  0  0  0  0  0  0  0
   48.6650   34.8000   39.1480 H   0  0  0  0  0  0  0  0  0  0  0  0
   46.5030   33.5400   39.4700 H   0  0  0  0  0  0  0  0  0  0  0  0
   45.4170   33.6390   41.6110 H   0  0  0  0  0  0  0  0  0  0  0  0
   44.9820   37.0340   43.1200 C   0  0  0  0  0  0  0  0  0  0  0  0
   44.0110   36.9790   42.5960 H   0  0  0  0  0  0  0  0  0  0  0  0
   45.7730   36.9760   42.3360 H   0  0  0  0  0  0  0  0  0  0  0  0
   45.1250   38.2340   43.9150 N   0  0  0  0  0  0  0  0  0  0  0  0
   44.9260   38.8020   45.2000 C   0  0  0  0  0  0  0  0  0  0  0  0
   44.3570   38.2150   46.3410 C   0  0  0  0  0  0  0  0  0  0  0  0
   43.9580   37.2120   46.3970 H   0  0  0  0  0  0  0  0  0  0  0  0
   44.4460   39.1850   47.2680 N   0  0  0  0  0  0  0  0  0  0  0  0
   44.0860   39.0250   48.2540 H   0  0  0  0  0  0  0  0  0  0  0  0
   45.0150   40.3080   46.8010 C   0  0  0  0  0  0  0  0  0  0  0  0
   45.1660   41.1950   47.4190 H   0  0  0  0  0  0  0  0  0  0  0  0
   45.3200   40.0810   45.5140 N   0  0  0  0  0  0  0  0  0  0  0  0
   45.6790   39.3330   43.1190 C   0  0  0  0  0  0  0  0  0  0  0  0
   47.0170   39.2900   42.9960 F   0  0  0  0  0  0  0  0  0  0  0  0
   45.3670   40.5640   43.6920 F   0  0  0  0  0  0  0  0  0  0  0  0
   45.0940   39.3020   41.8830 F   0  0  0  0  0  0  0  0  0  0  0  0
  1  7  1  0  0  0  0
  1  6  1  0  0  0  0
  2  1  2  0  0  0  0
  3  2  1  0  0  0  0
  3  4  2  0  0  0  0
  4  5  1  0  0  0  0
  5  6  2  0  0  0  0
  5  8  1  0  0  0  0
  9  3  1  0  0  0  0
 10  9  1  0  0  0  0
 10 15  1  0  0  0  0
 11 10  2  0  0  0  0
 12 13  2  0  0  0  0
 12 11  1  0  0  0  0
 13 14  1  0  0  0  0
 14 19  1  0  0  0  0
 14  9  2  0  0  0  0
 16 11  1  0  0  0  0
 17 12  1  0  0  0  0
 18 13  1  0  0  0  0
 20 23  1  0  0  0  0
 20  2  1  0  0  0  0
 21 20  1  0  0  0  0
 22 20  1  0  0  0  0
 23 24  1  0  0  0  0
 24 31  1  0  0  0  0
 24 25  2  0  0  0  0
 25 26  1  0  0  0  0
 25 27  1  0  0  0  0
 27 28  1  0  0  0  0
 29 27  1  0  0  0  0
 29 30  1  0  0  0  0
 31 29  2  0  0  0  0
 32 34  1  0  0  0  0
 32 23  1  0  0  0  0
 33 32  1  0  0  0  0
 35 32  1  0  0  0  0
M  END
>  <minimizedAffinity>
-0.48262319

>  <minimizedRMSD>
0.634208739

$$$$
