
 OpenBabel03242516553D

 44 47  0  0  1  0  0  0  0  0999 V2000
   38.9450   24.8890   40.9090 C   0  0  1  0  0  0  0  0  0  0  0  0
   38.3080   23.7640   41.5950 C   0  0  0  0  0  0  0  0  0  0  0  0
   37.3780   23.1140   40.5720 C   0  0  0  0  0  0  0  0  0  0  0  0
   36.2390   24.0740   40.3490 C   0  0  0  0  0  0  0  0  0  0  0  0
   36.6760   25.4550   39.9490 C   0  0  0  0  0  0  0  0  0  0  0  0
   37.9370   25.9710   40.5100 C   0  0  1  0  0  0  0  0  0  0  0  0
   39.3150   24.5280   39.9000 H   0  0  0  0  0  0  0  0  0  0  0  0
   39.0810   23.0340   41.8920 H   0  0  0  0  0  0  0  0  0  0  0  0
   37.7020   24.0640   42.4600 H   0  0  0  0  0  0  0  0  0  0  0  0
   37.9100   22.8170   39.6640 H   0  0  0  0  0  0  0  0  0  0  0  0
   36.9240   22.2350   41.1110 H   0  0  0  0  0  0  0  0  0  0  0  0
   35.5880   23.6460   39.5620 H   0  0  0  0  0  0  0  0  0  0  0  0
   35.6390   24.1230   41.2750 H   0  0  0  0  0  0  0  0  0  0  0  0
   35.8490   26.1340   40.2650 H   0  0  0  0  0  0  0  0  0  0  0  0
   36.6670   25.4950   38.8360 H   0  0  0  0  0  0  0  0  0  0  0  0
   38.4580   26.5640   39.7110 H   0  0  0  0  0  0  0  0  0  0  0  0
   41.3340   25.9110   43.6470 C   0  0  0  0  0  0  0  0  0  0  0  0
   40.2720   25.3400   42.9420 C   0  0  0  0  0  0  0  0  0  0  0  0
   40.0760   25.5070   41.5720 C   0  0  0  0  0  0  0  0  0  0  0  0
   40.9790   26.2640   40.9490 N   0  0  0  0  0  0  0  0  0  0  0  0
   42.0180   26.8260   41.6220 C   0  0  0  0  0  0  0  0  0  0  0  0
   42.2000   26.6610   42.9370 N   0  0  0  0  0  0  0  0  0  0  0  0
   41.4160   25.7340   44.7020 H   0  0  0  0  0  0  0  0  0  0  0  0
   39.5720   24.7330   43.5240 H   0  0  0  0  0  0  0  0  0  0  0  0
   42.6930   27.4250   40.9990 H   0  0  0  0  0  0  0  0  0  0  0  0
   37.7120   26.9270   41.5940 C   0  0  0  0  0  0  0  0  0  0  0  0
   36.9860   26.6790   42.7660 C   0  0  0  0  0  0  0  0  0  0  0  0
   36.9140   27.7340   43.6730 C   0  0  0  0  0  0  0  0  0  0  0  0
   37.5570   28.9250   43.3440 C   0  0  0  0  0  0  0  0  0  0  0  0
   38.2700   29.1460   42.1760 C   0  0  0  0  0  0  0  0  0  0  0  0
   38.3260   28.1010   41.3050 N   0  0  0  0  0  0  0  0  0  0  0  0
   36.5560   25.7290   42.8740 H   0  0  0  0  0  0  0  0  0  0  0  0
   36.3710   27.5830   44.5760 H   0  0  0  0  0  0  0  0  0  0  0  0
   37.4800   29.7200   44.0700 H   0  0  0  0  0  0  0  0  0  0  0  0
   38.9100   30.4330   41.9290 C   0  0  0  0  0  0  0  0  0  0  0  0
   40.0760   30.5990   42.4020 O   0  0  0  0  0  0  0  0  0  0  0  0
   38.3380   31.5520   41.1850 C   0  0  0  0  0  0  0  0  0  0  0  0
   37.0570   31.5220   40.6740 C   0  0  0  0  0  0  0  0  0  0  0  0
   36.2790   30.7940   40.6870 H   0  0  0  0  0  0  0  0  0  0  0  0
   36.8490   32.7070   40.0460 N   0  0  0  0  0  0  0  0  0  0  0  0
   35.9930   33.0550   39.5370 H   0  0  0  0  0  0  0  0  0  0  0  0
   37.9280   33.4730   40.1410 C   0  0  0  0  0  0  0  0  0  0  0  0
   38.2140   34.4570   39.8090 H   0  0  0  0  0  0  0  0  0  0  0  0
   38.8240   32.7530   40.8370 N   0  0  0  0  0  0  0  0  0  0  0  0
  1  7  1  6  0  0  0
  1 19  1  0  0  0  0
  1  2  1  0  0  0  0
  2  8  1  0  0  0  0
  2  9  1  0  0  0  0
  3 11  1  0  0  0  0
  3  2  1  0  0  0  0
  4  3  1  0  0  0  0
  4 13  1  0  0  0  0
  5 14  1  0  0  0  0
  5  4  1  0  0  0  0
  5  6  1  0  0  0  0
  6 16  1  6  0  0  0
  6  1  1  0  0  0  0
  6 26  1  0  0  0  0
 10  3  1  0  0  0  0
 12  4  1  0  0  0  0
 15  5  1  0  0  0  0
 17 23  1  0  0  0  0
 18 24  1  0  0  0  0
 18 17  1  0  0  0  0
 19 18  2  0  0  0  0
 20 19  1  0  0  0  0
 20 21  2  0  0  0  0
 21 22  1  0  0  0  0
 22 17  2  0  0  0  0
 25 21  1  0  0  0  0
 26 27  1  0  0  0  0
 27 32  1  0  0  0  0
 27 28  2  0  0  0  0
 28 33  1  0  0  0  0
 29 28  1  0  0  0  0
 29 34  1  0  0  0  0
 30 29  2  0  0  0  0
 31 26  2  0  0  0  0
 31 30  1  0  0  0  0
 35 30  1  0  0  0  0
 35 36  2  0  0  0  0
 37 35  1  0  0  0  0
 38 39  1  0  0  0  0
 38 37  2  0  0  0  0
 40 42  1  0  0  0  0
 40 38  1  0  0  0  0
 41 40  1  0  0  0  0
 42 44  2  0  0  0  0
 43 42  1  0  0  0  0
 44 37  1  0  0  0  0
M  END
>  <minimizedAffinity>
-6.27479649

$$$$

 OpenBabel03242516553D

 44 47  0  0  1  0  0  0  0  0999 V2000
   36.5250   30.7640   38.9320 C   0  0  1  0  0  0  0  0  0  0  0  0
   36.7000   29.8460   37.8070 C   0  0  0  0  0  0  0  0  0  0  0  0
   35.3000   29.3670   37.4270 C   0  0  0  0  0  0  0  0  0  0  0  0
   34.8330   28.4650   38.5400 C   0  0  0  0  0  0  0  0  0  0  0  0
   34.8860   29.0990   39.9010 C   0  0  0  0  0  0  0  0  0  0  0  0
   35.9700   30.0590   40.1750 C   0  0  1  0  0  0  0  0  0  0  0  0
   35.6880   31.4840   38.6780 H   0  0  0  0  0  0  0  0  0  0  0  0
   37.1340   30.3950   36.9530 H   0  0  0  0  0  0  0  0  0  0  0  0
   37.3050   28.9620   38.0510 H   0  0  0  0  0  0  0  0  0  0  0  0
   34.6280   30.1990   37.2010 H   0  0  0  0  0  0  0  0  0  0  0  0
   35.4560   28.6880   36.5420 H   0  0  0  0  0  0  0  0  0  0  0  0
   33.7930   28.1590   38.3110 H   0  0  0  0  0  0  0  0  0  0  0  0
   35.4500   27.5500   38.5280 H   0  0  0  0  0  0  0  0  0  0  0  0
   34.9770   28.2540   40.6230 H   0  0  0  0  0  0  0  0  0  0  0  0
   33.8810   29.5380   40.1010 H   0  0  0  0  0  0  0  0  0  0  0  0
   35.5530   30.8870   40.8080 H   0  0  0  0  0  0  0  0  0  0  0  0
   38.5490   33.6210   40.3430 C   0  0  0  0  0  0  0  0  0  0  0  0
   37.4930   32.7910   39.9570 C   0  0  0  0  0  0  0  0  0  0  0  0
   37.6690   31.5690   39.3090 C   0  0  0  0  0  0  0  0  0  0  0  0
   38.9330   31.2220   39.0670 N   0  0  0  0  0  0  0  0  0  0  0  0
   39.9710   32.0190   39.4360 C   0  0  0  0  0  0  0  0  0  0  0  0
   39.7950   33.1900   40.0590 N   0  0  0  0  0  0  0  0  0  0  0  0
   38.3310   34.5470   40.8380 H   0  0  0  0  0  0  0  0  0  0  0  0
   36.4850   33.1450   40.1900 H   0  0  0  0  0  0  0  0  0  0  0  0
   40.9610   31.6240   39.1840 H   0  0  0  0  0  0  0  0  0  0  0  0
   37.0380   29.4730   40.9860 C   0  0  0  0  0  0  0  0  0  0  0  0
   37.5210   29.9860   42.1960 C   0  0  0  0  0  0  0  0  0  0  0  0
   38.5350   29.2520   42.8070 C   0  0  0  0  0  0  0  0  0  0  0  0
   38.9750   28.0920   42.1750 C   0  0  0  0  0  0  0  0  0  0  0  0
   38.4810   27.6040   40.9770 C   0  0  0  0  0  0  0  0  0  0  0  0
   37.4910   28.3390   40.3980 N   0  0  0  0  0  0  0  0  0  0  0  0
   37.0890   30.8740   42.5490 H   0  0  0  0  0  0  0  0  0  0  0  0
   38.9280   29.6120   43.7290 H   0  0  0  0  0  0  0  0  0  0  0  0
   39.7620   27.5500   42.6780 H   0  0  0  0  0  0  0  0  0  0  0  0
   39.0100   26.3740   40.3990 C   0  0  0  0  0  0  0  0  0  0  0  0
   40.0630   26.4700   39.6980 O   0  0  0  0  0  0  0  0  0  0  0  0
   38.4430   25.0370   40.5520 C   0  0  0  0  0  0  0  0  0  0  0  0
   38.8940   24.1470   41.5050 C   0  0  0  0  0  0  0  0  0  0  0  0
   39.6490   24.1960   42.2550 H   0  0  0  0  0  0  0  0  0  0  0  0
   38.1610   23.0130   41.3720 N   0  0  0  0  0  0  0  0  0  0  0  0
   38.2130   22.1130   41.9200 H   0  0  0  0  0  0  0  0  0  0  0  0
   37.2790   23.1490   40.3910 C   0  0  0  0  0  0  0  0  0  0  0  0
   36.5150   22.5360   39.9420 H   0  0  0  0  0  0  0  0  0  0  0  0
   37.4650   24.3870   39.9030 N   0  0  0  0  0  0  0  0  0  0  0  0
  1  7  1  6  0  0  0
  1 19  1  0  0  0  0
  1  6  1  0  0  0  0
  2  9  1  0  0  0  0
  2  1  1  0  0  0  0
  3  2  1  0  0  0  0
  3  4  1  0  0  0  0
  4  5  1  0  0  0  0
  5 15  1  0  0  0  0
  5  6  1  0  0  0  0
  5 14  1  0  0  0  0
  6 16  1  1  0  0  0
  6 26  1  0  0  0  0
  8  2  1  0  0  0  0
 10  3  1  0  0  0  0
 11  3  1  0  0  0  0
 12  4  1  0  0  0  0
 13  4  1  0  0  0  0
 17 23  1  0  0  0  0
 18 24  1  0  0  0  0
 18 17  2  0  0  0  0
 19 18  1  0  0  0  0
 20 19  2  0  0  0  0
 20 21  1  0  0  0  0
 21 22  2  0  0  0  0
 22 17  1  0  0  0  0
 25 21  1  0  0  0  0
 26 27  1  0  0  0  0
 27 32  1  0  0  0  0
 27 28  2  0  0  0  0
 28 33  1  0  0  0  0
 29 34  1  0  0  0  0
 29 28  1  0  0  0  0
 30 29  2  0  0  0  0
 31 30  1  0  0  0  0
 31 26  2  0  0  0  0
 35 37  1  0  0  0  0
 35 30  1  0  0  0  0
 36 35  2  0  0  0  0
 37 38  2  0  0  0  0
 38 39  1  0  0  0  0
 40 38  1  0  0  0  0
 40 41  1  0  0  0  0
 42 40  1  0  0  0  0
 43 42  1  0  0  0  0
 44 42  2  0  0  0  0
 44 37  1  0  0  0  0
M  END
>  <minimizedAffinity>
-5.91750288

$$$$

 OpenBabel03242516553D

 44 47  0  0  1  0  0  0  0  0999 V2000
   38.4620   26.5380   41.0910 C   0  0  1  0  0  0  0  0  0  0  0  0
   39.8560   26.9750   41.0030 C   0  0  0  0  0  0  0  0  0  0  0  0
   40.4520   26.7770   42.3950 C   0  0  0  0  0  0  0  0  0  0  0  0
   39.8210   27.8110   43.2890 C   0  0  0  0  0  0  0  0  0  0  0  0
   38.3180   27.7850   43.2860 C   0  0  0  0  0  0  0  0  0  0  0  0
   37.6360   27.4220   42.0320 C   0  0  1  0  0  0  0  0  0  0  0  0
   38.4340   25.5380   41.6230 H   0  0  0  0  0  0  0  0  0  0  0  0
   40.3950   26.3300   40.2870 H   0  0  0  0  0  0  0  0  0  0  0  0
   39.9670   28.0340   40.7350 H   0  0  0  0  0  0  0  0  0  0  0  0
   40.3470   25.7460   42.7440 H   0  0  0  0  0  0  0  0  0  0  0  0
   41.5300   27.0880   42.2960 H   0  0  0  0  0  0  0  0  0  0  0  0
   40.1950   27.6410   44.3180 H   0  0  0  0  0  0  0  0  0  0  0  0
   40.1780   28.8080   42.9750 H   0  0  0  0  0  0  0  0  0  0  0  0
   37.9990   28.8150   43.5720 H   0  0  0  0  0  0  0  0  0  0  0  0
   37.9970   27.1400   44.1370 H   0  0  0  0  0  0  0  0  0  0  0  0
   36.7380   26.7980   42.2900 H   0  0  0  0  0  0  0  0  0  0  0  0
   35.9500   25.2520   38.5840 C   0  0  0  0  0  0  0  0  0  0  0  0
   36.6800   25.4730   39.7550 C   0  0  0  0  0  0  0  0  0  0  0  0
   37.7470   26.3670   39.8430 C   0  0  0  0  0  0  0  0  0  0  0  0
   38.0450   27.0200   38.7190 N   0  0  0  0  0  0  0  0  0  0  0  0
   37.3440   26.8160   37.5730 C   0  0  0  0  0  0  0  0  0  0  0  0
   36.3210   25.9570   37.4960 N   0  0  0  0  0  0  0  0  0  0  0  0
   35.1420   24.5470   38.5970 H   0  0  0  0  0  0  0  0  0  0  0  0
   36.3740   24.8990   40.6340 H   0  0  0  0  0  0  0  0  0  0  0  0
   37.6840   27.4120   36.7180 H   0  0  0  0  0  0  0  0  0  0  0  0
   37.0910   28.5890   41.3380 C   0  0  0  0  0  0  0  0  0  0  0  0
   35.7630   28.7470   40.9220 C   0  0  0  0  0  0  0  0  0  0  0  0
   35.4620   29.9520   40.2910 C   0  0  0  0  0  0  0  0  0  0  0  0
   36.4880   30.8810   40.1310 C   0  0  0  0  0  0  0  0  0  0  0  0
   37.7950   30.7010   40.5520 C   0  0  0  0  0  0  0  0  0  0  0  0
   38.0660   29.5150   41.1650 N   0  0  0  0  0  0  0  0  0  0  0  0
   35.1010   27.9570   41.1130 H   0  0  0  0  0  0  0  0  0  0  0  0
   34.4630   30.1090   39.9610 H   0  0  0  0  0  0  0  0  0  0  0  0
   36.2170   31.8030   39.6380 H   0  0  0  0  0  0  0  0  0  0  0  0
   38.7950   31.7400   40.3380 C   0  0  0  0  0  0  0  0  0  0  0  0
   39.0810   32.4810   41.3280 O   0  0  0  0  0  0  0  0  0  0  0  0
   39.5020   32.0120   39.0890 C   0  0  0  0  0  0  0  0  0  0  0  0
   38.9280   31.8010   37.8530 C   0  0  0  0  0  0  0  0  0  0  0  0
   37.9740   31.4430   37.5390 H   0  0  0  0  0  0  0  0  0  0  0  0
   39.8490   32.1490   36.9190 N   0  0  0  0  0  0  0  0  0  0  0  0
   39.7770   32.1260   35.8670 H   0  0  0  0  0  0  0  0  0  0  0  0
   40.9620   32.5670   37.5050 C   0  0  0  0  0  0  0  0  0  0  0  0
   41.9230   32.9290   37.1800 H   0  0  0  0  0  0  0  0  0  0  0  0
   40.7330   32.4760   38.8260 N   0  0  0  0  0  0  0  0  0  0  0  0
  1  7  1  1  0  0  0
  1  6  1  0  0  0  0
  2  1  1  0  0  0  0
  2  3  1  0  0  0  0
  3 10  1  0  0  0  0
  3  4  1  0  0  0  0
  4 12  1  0  0  0  0
  5  4  1  0  0  0  0
  5 14  1  0  0  0  0
  5 15  1  0  0  0  0
  6 16  1  1  0  0  0
  6  5  1  0  0  0  0
  8  2  1  0  0  0  0
  9  2  1  0  0  0  0
 11  3  1  0  0  0  0
 13  4  1  0  0  0  0
 17 23  1  0  0  0  0
 17 18  1  0  0  0  0
 18 19  2  0  0  0  0
 18 24  1  0  0  0  0
 19  1  1  0  0  0  0
 20 19  1  0  0  0  0
 21 20  2  0  0  0  0
 22 21  1  0  0  0  0
 22 17  2  0  0  0  0
 25 21  1  0  0  0  0
 26  6  1  0  0  0  0
 27 32  1  0  0  0  0
 27 26  2  0  0  0  0
 28 27  1  0  0  0  0
 29 28  2  0  0  0  0
 29 30  1  0  0  0  0
 30 31  2  0  0  0  0
 31 26  1  0  0  0  0
 33 28  1  0  0  0  0
 34 29  1  0  0  0  0
 35 30  1  0  0  0  0
 35 36  2  0  0  0  0
 37 35  1  0  0  0  0
 38 37  2  0  0  0  0
 39 38  1  0  0  0  0
 40 42  1  0  0  0  0
 40 38  1  0  0  0  0
 41 40  1  0  0  0  0
 42 44  2  0  0  0  0
 43 42  1  0  0  0  0
 44 37  1  0  0  0  0
M  END
>  <minimizedAffinity>
-5.80733871

$$$$

 OpenBabel03242516553D

 44 47  0  0  1  0  0  0  0  0999 V2000
   38.0950   25.5450   41.1710 C   0  0  1  0  0  0  0  0  0  0  0  0
   36.9870   24.6060   41.3500 C   0  0  0  0  0  0  0  0  0  0  0  0
   37.3890   23.3300   40.6130 C   0  0  0  0  0  0  0  0  0  0  0  0
   37.3410   23.6450   39.1410 C   0  0  0  0  0  0  0  0  0  0  0  0
   38.1690   24.8350   38.7460 C   0  0  0  0  0  0  0  0  0  0  0  0
   38.2820   25.9480   39.7050 C   0  0  1  0  0  0  0  0  0  0  0  0
   39.0640   24.9990   41.3910 H   0  0  0  0  0  0  0  0  0  0  0  0
   36.8730   24.3780   42.4250 H   0  0  0  0  0  0  0  0  0  0  0  0
   36.0390   24.9590   40.9230 H   0  0  0  0  0  0  0  0  0  0  0  0
   38.3460   22.9360   40.9650 H   0  0  0  0  0  0  0  0  0  0  0  0
   36.5380   22.6130   40.7900 H   0  0  0  0  0  0  0  0  0  0  0  0
   37.6910   22.7490   38.5930 H   0  0  0  0  0  0  0  0  0  0  0  0
   36.2870   23.8100   38.8540 H   0  0  0  0  0  0  0  0  0  0  0  0
   37.7040   25.2270   37.8100 H   0  0  0  0  0  0  0  0  0  0  0  0
   39.1670   24.4530   38.4300 H   0  0  0  0  0  0  0  0  0  0  0  0
   39.3310   26.3490   39.6530 H   0  0  0  0  0  0  0  0  0  0  0  0
   36.8900   28.1880   43.5820 C   0  0  0  0  0  0  0  0  0  0  0  0
   36.9700   27.0560   42.7670 C   0  0  0  0  0  0  0  0  0  0  0  0
   38.0880   26.7340   41.9990 C   0  0  0  0  0  0  0  0  0  0  0  0
   39.1080   27.5880   42.0810 N   0  0  0  0  0  0  0  0  0  0  0  0
   39.0460   28.6940   42.8690 C   0  0  0  0  0  0  0  0  0  0  0  0
   37.9700   28.9960   43.6050 N   0  0  0  0  0  0  0  0  0  0  0  0
   35.9940   28.3660   44.1440 H   0  0  0  0  0  0  0  0  0  0  0  0
   36.0910   26.4040   42.7530 H   0  0  0  0  0  0  0  0  0  0  0  0
   39.9480   29.3170   42.8530 H   0  0  0  0  0  0  0  0  0  0  0  0
   37.4320   27.0820   39.3430 C   0  0  0  0  0  0  0  0  0  0  0  0
   36.0360   27.0580   39.2410 C   0  0  0  0  0  0  0  0  0  0  0  0
   35.4300   28.2640   38.8960 C   0  0  0  0  0  0  0  0  0  0  0  0
   36.2480   29.3710   38.6850 C   0  0  0  0  0  0  0  0  0  0  0  0
   37.6290   29.3700   38.7920 C   0  0  0  0  0  0  0  0  0  0  0  0
   38.1990   28.1800   39.1300 N   0  0  0  0  0  0  0  0  0  0  0  0
   35.5550   26.1450   39.4300 H   0  0  0  0  0  0  0  0  0  0  0  0
   34.3690   28.2840   38.8090 H   0  0  0  0  0  0  0  0  0  0  0  0
   35.7430   30.2880   38.4200 H   0  0  0  0  0  0  0  0  0  0  0  0
   38.3940   30.5880   38.5540 C   0  0  0  0  0  0  0  0  0  0  0  0
   39.2290   30.5690   37.5980 O   0  0  0  0  0  0  0  0  0  0  0  0
   38.2920   31.8320   39.3110 C   0  0  0  0  0  0  0  0  0  0  0  0
   37.1550   32.6120   39.3010 C   0  0  0  0  0  0  0  0  0  0  0  0
   36.2090   32.5240   38.8180 H   0  0  0  0  0  0  0  0  0  0  0  0
   37.3970   33.6830   40.0990 N   0  0  0  0  0  0  0  0  0  0  0  0
   36.7680   34.4960   40.3400 H   0  0  0  0  0  0  0  0  0  0  0  0
   38.6200   33.6110   40.6050 C   0  0  0  0  0  0  0  0  0  0  0  0
   39.2260   34.2110   41.2640 H   0  0  0  0  0  0  0  0  0  0  0  0
   39.1510   32.4780   40.1150 N   0  0  0  0  0  0  0  0  0  0  0  0
  1  2  1  0  0  0  0
  1  7  1  1  0  0  0
  1 19  1  0  0  0  0
  2  8  1  0  0  0  0
  3 11  1  0  0  0  0
  3 10  1  0  0  0  0
  3  2  1  0  0  0  0
  4  3  1  0  0  0  0
  5  4  1  0  0  0  0
  5  6  1  0  0  0  0
  6 16  1  6  0  0  0
  6  1  1  0  0  0  0
  9  2  1  0  0  0  0
 12  4  1  0  0  0  0
 13  4  1  0  0  0  0
 14  5  1  0  0  0  0
 15  5  1  0  0  0  0
 17 22  1  0  0  0  0
 17 23  1  0  0  0  0
 18 17  2  0  0  0  0
 19 20  2  0  0  0  0
 19 18  1  0  0  0  0
 20 21  1  0  0  0  0
 21 22  2  0  0  0  0
 24 18  1  0  0  0  0
 25 21  1  0  0  0  0
 26  6  1  0  0  0  0
 27 26  1  0  0  0  0
 27 32  1  0  0  0  0
 28 27  2  0  0  0  0
 29 30  2  0  0  0  0
 29 28  1  0  0  0  0
 30 31  1  0  0  0  0
 31 26  2  0  0  0  0
 33 28  1  0  0  0  0
 34 29  1  0  0  0  0
 35 30  1  0  0  0  0
 35 37  1  0  0  0  0
 36 35  2  0  0  0  0
 37 44  1  0  0  0  0
 38 37  2  0  0  0  0
 38 40  1  0  0  0  0
 39 38  1  0  0  0  0
 40 41  1  0  0  0  0
 40 42  1  0  0  0  0
 42 43  1  0  0  0  0
 44 42  2  0  0  0  0
M  END
>  <minimizedAffinity>
-5.80108929

$$$$

 OpenBabel03242516553D

 44 47  0  0  1  0  0  0  0  0999 V2000
   37.0040   28.5050   39.3660 C   0  0  1  0  0  0  0  0  0  0  0  0
   35.5480   28.6170   39.4680 C   0  0  0  0  0  0  0  0  0  0  0  0
   34.9950   28.2060   38.1050 C   0  0  0  0  0  0  0  0  0  0  0  0
   35.3590   29.3020   37.1390 C   0  0  0  0  0  0  0  0  0  0  0  0
   36.8280   29.6190   37.1030 C   0  0  0  0  0  0  0  0  0  0  0  0
   37.5920   29.4970   38.3570 C   0  0  1  0  0  0  0  0  0  0  0  0
   37.2520   27.5080   38.8890 H   0  0  0  0  0  0  0  0  0  0  0  0
   35.1810   27.9100   40.2320 H   0  0  0  0  0  0  0  0  0  0  0  0
   35.2000   29.6370   39.6810 H   0  0  0  0  0  0  0  0  0  0  0  0
   35.3280   27.2070   37.8100 H   0  0  0  0  0  0  0  0  0  0  0  0
   33.8750   28.2690   38.2160 H   0  0  0  0  0  0  0  0  0  0  0  0
   35.0200   28.9900   36.1320 H   0  0  0  0  0  0  0  0  0  0  0  0
   34.7870   30.2070   37.4080 H   0  0  0  0  0  0  0  0  0  0  0  0
   36.8980   30.6760   36.7530 H   0  0  0  0  0  0  0  0  0  0  0  0
   37.2760   29.0150   36.2810 H   0  0  0  0  0  0  0  0  0  0  0  0
   38.6060   29.0800   38.1090 H   0  0  0  0  0  0  0  0  0  0  0  0
   37.8200   29.1440   42.9960 C   0  0  0  0  0  0  0  0  0  0  0  0
   37.1550   29.0430   41.7710 C   0  0  0  0  0  0  0  0  0  0  0  0
   37.7560   28.5770   40.6030 C   0  0  0  0  0  0  0  0  0  0  0  0
   39.0360   28.2230   40.7150 N   0  0  0  0  0  0  0  0  0  0  0  0
   39.6970   28.3170   41.9000 C   0  0  0  0  0  0  0  0  0  0  0  0
   39.1140   28.7640   43.0170 N   0  0  0  0  0  0  0  0  0  0  0  0
   37.2870   29.5130   43.8510 H   0  0  0  0  0  0  0  0  0  0  0  0
   36.1060   29.3520   41.7610 H   0  0  0  0  0  0  0  0  0  0  0  0
   40.7440   27.9950   41.8640 H   0  0  0  0  0  0  0  0  0  0  0  0
   37.8640   30.7960   38.9700 C   0  0  0  0  0  0  0  0  0  0  0  0
   36.8990   31.7170   39.3990 C   0  0  0  0  0  0  0  0  0  0  0  0
   37.3880   32.8890   39.9720 C   0  0  0  0  0  0  0  0  0  0  0  0
   38.7680   33.0440   40.0680 C   0  0  0  0  0  0  0  0  0  0  0  0
   39.7040   32.1190   39.6360 C   0  0  0  0  0  0  0  0  0  0  0  0
   39.2030   30.9810   39.0790 N   0  0  0  0  0  0  0  0  0  0  0  0
   35.8920   31.4580   39.2600 H   0  0  0  0  0  0  0  0  0  0  0  0
   36.6840   33.6120   40.3100 H   0  0  0  0  0  0  0  0  0  0  0  0
   39.1100   33.9650   40.5170 H   0  0  0  0  0  0  0  0  0  0  0  0
   41.1310   32.3780   39.7860 C   0  0  0  0  0  0  0  0  0  0  0  0
   41.6560   32.0940   40.9060 O   0  0  0  0  0  0  0  0  0  0  0  0
   42.0180   32.9340   38.7670 C   0  0  0  0  0  0  0  0  0  0  0  0
   41.5430   33.5090   37.6070 C   0  0  0  0  0  0  0  0  0  0  0  0
   40.5640   33.6710   37.2160 H   0  0  0  0  0  0  0  0  0  0  0  0
   42.6210   33.9150   36.8910 N   0  0  0  0  0  0  0  0  0  0  0  0
   42.6600   34.3960   35.9530 H   0  0  0  0  0  0  0  0  0  0  0  0
   43.7400   33.6260   37.5420 C   0  0  0  0  0  0  0  0  0  0  0  0
   44.7960   33.7550   37.3690 H   0  0  0  0  0  0  0  0  0  0  0  0
   43.3530   33.0290   38.6820 N   0  0  0  0  0  0  0  0  0  0  0  0
  1  7  1  6  0  0  0
  1  2  1  0  0  0  0
  1 19  1  0  0  0  0
  2  9  1  0  0  0  0
  2  8  1  0  0  0  0
  3 11  1  0  0  0  0
  3  2  1  0  0  0  0
  4 13  1  0  0  0  0
  4  3  1  0  0  0  0
  5  4  1  0  0  0  0
  5  6  1  0  0  0  0
  6 16  1  6  0  0  0
  6 26  1  0  0  0  0
  6  1  1  0  0  0  0
 10  3  1  0  0  0  0
 12  4  1  0  0  0  0
 14  5  1  0  0  0  0
 15  5  1  0  0  0  0
 17 22  1  0  0  0  0
 17 23  1  0  0  0  0
 18 17  2  0  0  0  0
 19 20  2  0  0  0  0
 19 18  1  0  0  0  0
 20 21  1  0  0  0  0
 21 22  2  0  0  0  0
 24 18  1  0  0  0  0
 25 21  1  0  0  0  0
 26 31  2  0  0  0  0
 26 27  1  0  0  0  0
 27 28  2  0  0  0  0
 28 29  1  0  0  0  0
 28 33  1  0  0  0  0
 29 34  1  0  0  0  0
 30 35  1  0  0  0  0
 30 29  2  0  0  0  0
 31 30  1  0  0  0  0
 32 27  1  0  0  0  0
 35 36  2  0  0  0  0
 37 35  1  0  0  0  0
 38 37  2  0  0  0  0
 39 38  1  0  0  0  0
 40 42  1  0  0  0  0
 40 38  1  0  0  0  0
 41 40  1  0  0  0  0
 42 44  2  0  0  0  0
 43 42  1  0  0  0  0
 44 37  1  0  0  0  0
M  END
>  <minimizedAffinity>
-5.78536129

$$$$

 OpenBabel03242516553D

 44 47  0  0  1  0  0  0  0  0999 V2000
   36.4800   30.5530   38.2650 C   0  0  1  0  0  0  0  0  0  0  0  0
   36.9320   29.5460   37.3050 C   0  0  0  0  0  0  0  0  0  0  0  0
   35.6710   29.0050   36.6330 C   0  0  0  0  0  0  0  0  0  0  0  0
   34.9410   28.1920   37.6690 C   0  0  0  0  0  0  0  0  0  0  0  0
   34.6520   28.9420   38.9390 C   0  0  0  0  0  0  0  0  0  0  0  0
   35.6340   29.9450   39.3880 C   0  0  1  0  0  0  0  0  0  0  0  0
   35.7340   31.2300   37.7480 H   0  0  0  0  0  0  0  0  0  0  0  0
   37.5650   30.0300   36.5400 H   0  0  0  0  0  0  0  0  0  0  0  0
   37.4560   28.7010   37.7690 H   0  0  0  0  0  0  0  0  0  0  0  0
   35.0770   29.8000   36.1740 H   0  0  0  0  0  0  0  0  0  0  0  0
   36.0430   28.2570   35.8770 H   0  0  0  0  0  0  0  0  0  0  0  0
   33.9910   27.8440   37.2180 H   0  0  0  0  0  0  0  0  0  0  0  0
   35.5420   27.2930   37.8930 H   0  0  0  0  0  0  0  0  0  0  0  0
   34.5600   28.1640   39.7330 H   0  0  0  0  0  0  0  0  0  0  0  0
   33.6290   29.3730   38.8430 H   0  0  0  0  0  0  0  0  0  0  0  0
   35.0710   30.8150   39.8220 H   0  0  0  0  0  0  0  0  0  0  0  0
   38.0900   33.5700   39.8650 C   0  0  0  0  0  0  0  0  0  0  0  0
   37.1650   32.6860   39.3040 C   0  0  0  0  0  0  0  0  0  0  0  0
   37.4950   31.4120   38.8410 C   0  0  0  0  0  0  0  0  0  0  0  0
   38.7770   31.0710   38.9630 N   0  0  0  0  0  0  0  0  0  0  0  0
   39.6900   31.9200   39.5060 C   0  0  0  0  0  0  0  0  0  0  0  0
   39.3660   33.1400   39.9490 N   0  0  0  0  0  0  0  0  0  0  0  0
   37.7570   34.5330   40.1990 H   0  0  0  0  0  0  0  0  0  0  0  0
   36.1320   33.0400   39.2390 H   0  0  0  0  0  0  0  0  0  0  0  0
   40.7100   31.5230   39.5510 H   0  0  0  0  0  0  0  0  0  0  0  0
   36.4650   29.4550   40.4880 C   0  0  0  0  0  0  0  0  0  0  0  0
   36.7270   30.1380   41.6820 C   0  0  0  0  0  0  0  0  0  0  0  0
   37.5360   29.4710   42.6000 C   0  0  0  0  0  0  0  0  0  0  0  0
   38.0080   28.2060   42.2590 C   0  0  0  0  0  0  0  0  0  0  0  0
   37.7340   27.5510   41.0690 C   0  0  0  0  0  0  0  0  0  0  0  0
   36.9420   28.2220   40.1880 N   0  0  0  0  0  0  0  0  0  0  0  0
   36.2990   31.0890   41.7970 H   0  0  0  0  0  0  0  0  0  0  0  0
   37.7570   29.9590   43.5200 H   0  0  0  0  0  0  0  0  0  0  0  0
   38.6320   27.7210   42.9940 H   0  0  0  0  0  0  0  0  0  0  0  0
   38.2770   26.2230   40.8100 C   0  0  0  0  0  0  0  0  0  0  0  0
   37.9370   25.6600   39.7250 O   0  0  0  0  0  0  0  0  0  0  0  0
   39.1770   25.4740   41.6830 C   0  0  0  0  0  0  0  0  0  0  0  0
   38.7610   24.3810   42.4140 C   0  0  0  0  0  0  0  0  0  0  0  0
   37.8260   23.8790   42.5140 H   0  0  0  0  0  0  0  0  0  0  0  0
   39.8350   23.9310   43.1090 N   0  0  0  0  0  0  0  0  0  0  0  0
   39.9090   23.1160   43.7750 H   0  0  0  0  0  0  0  0  0  0  0  0
   40.8970   24.6820   42.8510 C   0  0  0  0  0  0  0  0  0  0  0  0
   41.9290   24.7030   43.1610 H   0  0  0  0  0  0  0  0  0  0  0  0
   40.4780   25.6170   41.9810 N   0  0  0  0  0  0  0  0  0  0  0  0
  1  7  1  6  0  0  0
  1 19  1  0  0  0  0
  1  6  1  0  0  0  0
  2  9  1  0  0  0  0
  2  1  1  0  0  0  0
  3  2  1  0  0  0  0
  3  4  1  0  0  0  0
  4 13  1  0  0  0  0
  4  5  1  0  0  0  0
  5  6  1  0  0  0  0
  5 14  1  0  0  0  0
  6 16  1  1  0  0  0
  6 26  1  0  0  0  0
  8  2  1  0  0  0  0
 10  3  1  0  0  0  0
 11  3  1  0  0  0  0
 12  4  1  0  0  0  0
 15  5  1  0  0  0  0
 17 22  1  0  0  0  0
 17 23  1  0  0  0  0
 18 17  2  0  0  0  0
 19 20  2  0  0  0  0
 19 18  1  0  0  0  0
 20 21  1  0  0  0  0
 21 25  1  0  0  0  0
 21 22  2  0  0  0  0
 24 18  1  0  0  0  0
 26 27  1  0  0  0  0
 27 32  1  0  0  0  0
 27 28  2  0  0  0  0
 28 33  1  0  0  0  0
 29 28  1  0  0  0  0
 29 34  1  0  0  0  0
 30 29  2  0  0  0  0
 31 26  2  0  0  0  0
 31 30  1  0  0  0  0
 35 30  1  0  0  0  0
 35 37  1  0  0  0  0
 36 35  2  0  0  0  0
 37 44  1  0  0  0  0
 37 38  2  0  0  0  0
 38 39  1  0  0  0  0
 38 40  1  0  0  0  0
 40 41  1  0  0  0  0
 42 40  1  0  0  0  0
 42 43  1  0  0  0  0
 44 42  2  0  0  0  0
M  END
>  <minimizedAffinity>
-5.77886963

$$$$

 OpenBabel03242516553D

 44 47  0  0  1  0  0  0  0  0999 V2000
   38.8330   24.7640   40.7420 C   0  0  1  0  0  0  0  0  0  0  0  0
   38.2440   23.5940   41.3950 C   0  0  0  0  0  0  0  0  0  0  0  0
   37.4140   22.8860   40.3260 C   0  0  0  0  0  0  0  0  0  0  0  0
   36.2220   23.7640   40.0490 C   0  0  0  0  0  0  0  0  0  0  0  0
   36.5790   25.1750   39.6740 C   0  0  0  0  0  0  0  0  0  0  0  0
   37.7720   25.7750   40.2970 C   0  0  1  0  0  0  0  0  0  0  0  0
   39.2760   24.4350   39.7520 H   0  0  0  0  0  0  0  0  0  0  0  0
   39.0510   22.9180   41.7270 H   0  0  0  0  0  0  0  0  0  0  0  0
   37.5770   23.8460   42.2290 H   0  0  0  0  0  0  0  0  0  0  0  0
   38.0090   22.6310   39.4450 H   0  0  0  0  0  0  0  0  0  0  0  0
   36.9970   21.9740   40.8400 H   0  0  0  0  0  0  0  0  0  0  0  0
   35.6410   23.2960   39.2310 H   0  0  0  0  0  0  0  0  0  0  0  0
   35.5760   23.7660   40.9440 H   0  0  0  0  0  0  0  0  0  0  0  0
   35.6920   25.7920   39.9500 H   0  0  0  0  0  0  0  0  0  0  0  0
   36.6220   25.2190   38.5610 H   0  0  0  0  0  0  0  0  0  0  0  0
   38.2890   26.4070   39.5250 H   0  0  0  0  0  0  0  0  0  0  0  0
   41.1560   25.7670   43.5440 C   0  0  0  0  0  0  0  0  0  0  0  0
   40.1640   25.1370   42.7890 C   0  0  0  0  0  0  0  0  0  0  0  0
   39.8840   25.4570   41.4600 C   0  0  0  0  0  0  0  0  0  0  0  0
   40.6330   26.4240   40.9310 N   0  0  0  0  0  0  0  0  0  0  0  0
   41.6020   27.0460   41.6530 C   0  0  0  0  0  0  0  0  0  0  0  0
   41.8650   26.7340   42.9270 N   0  0  0  0  0  0  0  0  0  0  0  0
   41.3110   25.4630   44.5610 H   0  0  0  0  0  0  0  0  0  0  0  0
   39.5920   24.3530   43.2940 H   0  0  0  0  0  0  0  0  0  0  0  0
   42.1490   27.8230   41.1070 H   0  0  0  0  0  0  0  0  0  0  0  0
   37.4280   26.7070   41.3700 C   0  0  0  0  0  0  0  0  0  0  0  0
   36.9490   26.3540   42.6380 C   0  0  0  0  0  0  0  0  0  0  0  0
   36.7020   27.4110   43.5110 C   0  0  0  0  0  0  0  0  0  0  0  0
   36.9460   28.7050   43.0590 C   0  0  0  0  0  0  0  0  0  0  0  0
   37.4200   29.0290   41.7980 C   0  0  0  0  0  0  0  0  0  0  0  0
   37.6540   27.9800   40.9620 N   0  0  0  0  0  0  0  0  0  0  0  0
   36.8140   25.3330   42.8340 H   0  0  0  0  0  0  0  0  0  0  0  0
   36.3370   27.1810   44.4850 H   0  0  0  0  0  0  0  0  0  0  0  0
   36.7430   29.4980   43.7630 H   0  0  0  0  0  0  0  0  0  0  0  0
   37.6460   30.4200   41.4240 C   0  0  0  0  0  0  0  0  0  0  0  0
   36.6350   31.0910   41.0540 O   0  0  0  0  0  0  0  0  0  0  0  0
   38.9300   31.1180   41.4350 C   0  0  0  0  0  0  0  0  0  0  0  0
   39.8120   31.0260   42.4900 C   0  0  0  0  0  0  0  0  0  0  0  0
   39.7920   30.5060   43.4210 H   0  0  0  0  0  0  0  0  0  0  0  0
   40.8900   31.7900   42.1790 N   0  0  0  0  0  0  0  0  0  0  0  0
   41.7680   31.9680   42.7350 H   0  0  0  0  0  0  0  0  0  0  0  0
   40.7270   32.3500   40.9880 C   0  0  0  0  0  0  0  0  0  0  0  0
   41.2960   33.0090   40.3540 H   0  0  0  0  0  0  0  0  0  0  0  0
   39.5280   31.9300   40.5500 N   0  0  0  0  0  0  0  0  0  0  0  0
  1  7  1  6  0  0  0
  1  2  1  0  0  0  0
  1 19  1  0  0  0  0
  2  8  1  0  0  0  0
  2  9  1  0  0  0  0
  3 11  1  0  0  0  0
  3  2  1  0  0  0  0
  4  3  1  0  0  0  0
  4 13  1  0  0  0  0
  5 14  1  0  0  0  0
  5  4  1  0  0  0  0
  5  6  1  0  0  0  0
  6 16  1  6  0  0  0
  6  1  1  0  0  0  0
  6 26  1  0  0  0  0
 10  3  1  0  0  0  0
 12  4  1  0  0  0  0
 15  5  1  0  0  0  0
 17 23  1  0  0  0  0
 18 24  1  0  0  0  0
 18 17  2  0  0  0  0
 19 18  1  0  0  0  0
 20 19  2  0  0  0  0
 20 21  1  0  0  0  0
 21 22  2  0  0  0  0
 22 17  1  0  0  0  0
 25 21  1  0  0  0  0
 26 27  1  0  0  0  0
 27 32  1  0  0  0  0
 27 28  2  0  0  0  0
 28 33  1  0  0  0  0
 29 28  1  0  0  0  0
 29 34  1  0  0  0  0
 30 29  2  0  0  0  0
 31 26  2  0  0  0  0
 31 30  1  0  0  0  0
 35 37  1  0  0  0  0
 35 30  1  0  0  0  0
 36 35  2  0  0  0  0
 37 38  2  0  0  0  0
 38 39  1  0  0  0  0
 40 38  1  0  0  0  0
 40 41  1  0  0  0  0
 42 40  1  0  0  0  0
 43 42  1  0  0  0  0
 44 42  2  0  0  0  0
 44 37  1  0  0  0  0
M  END
>  <minimizedAffinity>
-5.73301601

$$$$

 OpenBabel03242516553D

 44 47  0  0  1  0  0  0  0  0999 V2000
   36.7740   30.4430   39.2670 C   0  0  1  0  0  0  0  0  0  0  0  0
   36.9260   29.4910   38.1660 C   0  0  0  0  0  0  0  0  0  0  0  0
   35.5290   29.2920   37.5820 C   0  0  0  0  0  0  0  0  0  0  0  0
   34.7380   28.5170   38.6020 C   0  0  0  0  0  0  0  0  0  0  0  0
   34.7170   29.1500   39.9650 C   0  0  0  0  0  0  0  0  0  0  0  0
   35.9180   29.8810   40.4060 C   0  0  1  0  0  0  0  0  0  0  0  0
   36.1420   31.3110   38.9040 H   0  0  0  0  0  0  0  0  0  0  0  0
   37.5790   29.9310   37.3920 H   0  0  0  0  0  0  0  0  0  0  0  0
   37.3030   28.5100   38.4830 H   0  0  0  0  0  0  0  0  0  0  0  0
   35.0740   30.2360   37.2720 H   0  0  0  0  0  0  0  0  0  0  0  0
   35.6750   28.5820   36.7190 H   0  0  0  0  0  0  0  0  0  0  0  0
   33.7020   28.4180   38.2220 H   0  0  0  0  0  0  0  0  0  0  0  0
   35.1580   27.4980   38.6680 H   0  0  0  0  0  0  0  0  0  0  0  0
   34.5340   28.3140   40.6810 H   0  0  0  0  0  0  0  0  0  0  0  0
   33.8000   29.7800   40.0230 H   0  0  0  0  0  0  0  0  0  0  0  0
   35.5850   30.7850   40.9830 H   0  0  0  0  0  0  0  0  0  0  0  0
   39.0980   32.8720   40.9840 C   0  0  0  0  0  0  0  0  0  0  0  0
   37.9670   32.2600   40.4390 C   0  0  0  0  0  0  0  0  0  0  0  0
   37.9880   31.0130   39.8150 C   0  0  0  0  0  0  0  0  0  0  0  0
   39.1790   30.4160   39.7630 N   0  0  0  0  0  0  0  0  0  0  0  0
   40.2890   30.9990   40.2890 C   0  0  0  0  0  0  0  0  0  0  0  0
   40.2610   32.1960   40.8860 N   0  0  0  0  0  0  0  0  0  0  0  0
   38.9990   33.8350   41.4480 H   0  0  0  0  0  0  0  0  0  0  0  0
   37.0270   32.8130   40.5210 H   0  0  0  0  0  0  0  0  0  0  0  0
   41.2070   30.4100   40.1840 H   0  0  0  0  0  0  0  0  0  0  0  0
   36.7210   29.1090   41.3550 C   0  0  0  0  0  0  0  0  0  0  0  0
   37.3490   29.6180   42.4990 C   0  0  0  0  0  0  0  0  0  0  0  0
   38.0510   28.6940   43.2700 C   0  0  0  0  0  0  0  0  0  0  0  0
   38.0690   27.3680   42.8470 C   0  0  0  0  0  0  0  0  0  0  0  0
   37.4390   26.8880   41.7100 C   0  0  0  0  0  0  0  0  0  0  0  0
   36.7590   27.8090   40.9720 N   0  0  0  0  0  0  0  0  0  0  0  0
   37.2460   30.6440   42.6880 H   0  0  0  0  0  0  0  0  0  0  0  0
   38.5420   29.0440   44.1470 H   0  0  0  0  0  0  0  0  0  0  0  0
   38.6230   26.6810   43.4700 H   0  0  0  0  0  0  0  0  0  0  0  0
   37.5170   25.4750   41.3570 C   0  0  0  0  0  0  0  0  0  0  0  0
   36.7010   24.6900   41.9300 O   0  0  0  0  0  0  0  0  0  0  0  0
   38.4450   24.8760   40.4020 C   0  0  0  0  0  0  0  0  0  0  0  0
   38.2070   23.6550   39.8060 C   0  0  0  0  0  0  0  0  0  0  0  0
   37.4120   22.9480   39.8750 H   0  0  0  0  0  0  0  0  0  0  0  0
   39.2580   23.3980   38.9870 N   0  0  0  0  0  0  0  0  0  0  0  0
   39.4340   22.5640   38.3650 H   0  0  0  0  0  0  0  0  0  0  0  0
   40.1350   24.3910   39.0400 C   0  0  0  0  0  0  0  0  0  0  0  0
   41.0830   24.6160   38.5800 H   0  0  0  0  0  0  0  0  0  0  0  0
   39.6240   25.2810   39.9070 N   0  0  0  0  0  0  0  0  0  0  0  0
  1  7  1  6  0  0  0
  1 19  1  0  0  0  0
  1  6  1  0  0  0  0
  2  9  1  0  0  0  0
  2  1  1  0  0  0  0
  3  2  1  0  0  0  0
  3  4  1  0  0  0  0
  4 13  1  0  0  0  0
  4  5  1  0  0  0  0
  5 15  1  0  0  0  0
  5  6  1  0  0  0  0
  5 14  1  0  0  0  0
  6 16  1  1  0  0  0
  6 26  1  0  0  0  0
  8  2  1  0  0  0  0
 10  3  1  0  0  0  0
 11  3  1  0  0  0  0
 12  4  1  0  0  0  0
 17 23  1  0  0  0  0
 18 24  1  0  0  0  0
 18 17  2  0  0  0  0
 19 18  1  0  0  0  0
 20 19  2  0  0  0  0
 20 21  1  0  0  0  0
 21 22  2  0  0  0  0
 22 17  1  0  0  0  0
 25 21  1  0  0  0  0
 26 27  1  0  0  0  0
 27 32  1  0  0  0  0
 27 28  2  0  0  0  0
 28 33  1  0  0  0  0
 29 28  1  0  0  0  0
 29 34  1  0  0  0  0
 30 29  2  0  0  0  0
 31 26  2  0  0  0  0
 31 30  1  0  0  0  0
 35 30  1  0  0  0  0
 35 36  2  0  0  0  0
 37 35  1  0  0  0  0
 38 39  1  0  0  0  0
 38 37  2  0  0  0  0
 40 42  1  0  0  0  0
 40 38  1  0  0  0  0
 41 40  1  0  0  0  0
 42 44  2  0  0  0  0
 43 42  1  0  0  0  0
 44 37  1  0  0  0  0
M  END
>  <minimizedAffinity>
-5.70737839

$$$$

 OpenBabel03242516553D

 44 47  0  0  1  0  0  0  0  0999 V2000
   37.2460   28.6650   39.2040 C   0  0  1  0  0  0  0  0  0  0  0  0
   35.7840   28.6750   39.2740 C   0  0  0  0  0  0  0  0  0  0  0  0
   35.2910   28.2030   37.9080 C   0  0  0  0  0  0  0  0  0  0  0  0
   35.5980   29.3060   36.9300 C   0  0  0  0  0  0  0  0  0  0  0  0
   37.0410   29.7270   36.9190 C   0  0  0  0  0  0  0  0  0  0  0  0
   37.7850   29.6790   38.1900 C   0  0  1  0  0  0  0  0  0  0  0  0
   37.5750   27.6800   38.7500 H   0  0  0  0  0  0  0  0  0  0  0  0
   35.4520   27.9550   40.0430 H   0  0  0  0  0  0  0  0  0  0  0  0
   35.3600   29.6700   39.4610 H   0  0  0  0  0  0  0  0  0  0  0  0
   35.7010   27.2260   37.6380 H   0  0  0  0  0  0  0  0  0  0  0  0
   34.1680   28.1880   37.9950 H   0  0  0  0  0  0  0  0  0  0  0  0
   35.3040   28.9550   35.9220 H   0  0  0  0  0  0  0  0  0  0  0  0
   34.9570   30.1730   37.1710 H   0  0  0  0  0  0  0  0  0  0  0  0
   37.0440   30.7800   36.5510 H   0  0  0  0  0  0  0  0  0  0  0  0
   37.5480   29.1430   36.1170 H   0  0  0  0  0  0  0  0  0  0  0  0
   38.8300   29.3320   37.9700 H   0  0  0  0  0  0  0  0  0  0  0  0
   37.9180   29.3350   42.8580 C   0  0  0  0  0  0  0  0  0  0  0  0
   37.2900   29.1710   41.6200 C   0  0  0  0  0  0  0  0  0  0  0  0
   37.9640   28.8100   40.4540 C   0  0  0  0  0  0  0  0  0  0  0  0
   39.2780   28.6230   40.5830 N   0  0  0  0  0  0  0  0  0  0  0  0
   39.9030   28.7790   41.7800 C   0  0  0  0  0  0  0  0  0  0  0  0
   39.2500   29.1260   42.8950 N   0  0  0  0  0  0  0  0  0  0  0  0
   37.3290   29.6150   43.7100 H   0  0  0  0  0  0  0  0  0  0  0  0
   36.2100   29.3420   41.5970 H   0  0  0  0  0  0  0  0  0  0  0  0
   40.9830   28.5970   41.7570 H   0  0  0  0  0  0  0  0  0  0  0  0
   37.9500   31.0050   38.7860 C   0  0  0  0  0  0  0  0  0  0  0  0
   36.9250   31.7980   39.3160 C   0  0  0  0  0  0  0  0  0  0  0  0
   37.3160   33.0240   39.8480 C   0  0  0  0  0  0  0  0  0  0  0  0
   38.6690   33.3520   39.8100 C   0  0  0  0  0  0  0  0  0  0  0  0
   39.6660   32.5500   39.2790 C   0  0  0  0  0  0  0  0  0  0  0  0
   39.2590   31.3570   38.7640 N   0  0  0  0  0  0  0  0  0  0  0  0
   35.9490   31.4140   39.2730 H   0  0  0  0  0  0  0  0  0  0  0  0
   36.5640   33.6540   40.2600 H   0  0  0  0  0  0  0  0  0  0  0  0
   38.9350   34.3100   40.2320 H   0  0  0  0  0  0  0  0  0  0  0  0
   41.0570   32.9870   39.2910 C   0  0  0  0  0  0  0  0  0  0  0  0
   41.6050   33.2040   38.1670 O   0  0  0  0  0  0  0  0  0  0  0  0
   41.8830   33.2010   40.4760 C   0  0  0  0  0  0  0  0  0  0  0  0
   41.8730   32.3370   41.5510 C   0  0  0  0  0  0  0  0  0  0  0  0
   41.3460   31.4340   41.7610 H   0  0  0  0  0  0  0  0  0  0  0  0
   42.7430   32.8280   42.4690 N   0  0  0  0  0  0  0  0  0  0  0  0
   43.0060   32.4450   43.4160 H   0  0  0  0  0  0  0  0  0  0  0  0
   43.2950   33.9490   42.0240 C   0  0  0  0  0  0  0  0  0  0  0  0
   44.0140   34.6610   42.3930 H   0  0  0  0  0  0  0  0  0  0  0  0
   42.7590   34.1610   40.8100 N   0  0  0  0  0  0  0  0  0  0  0  0
  1  7  1  6  0  0  0
  1  2  1  0  0  0  0
  1 19  1  0  0  0  0
  2  9  1  0  0  0  0
  2  8  1  0  0  0  0
  3 11  1  0  0  0  0
  3  2  1  0  0  0  0
  4 13  1  0  0  0  0
  4  3  1  0  0  0  0
  5  4  1  0  0  0  0
  5  6  1  0  0  0  0
  6 16  1  6  0  0  0
  6 26  1  0  0  0  0
  6  1  1  0  0  0  0
 10  3  1  0  0  0  0
 12  4  1  0  0  0  0
 14  5  1  0  0  0  0
 15  5  1  0  0  0  0
 17 22  1  0  0  0  0
 17 23  1  0  0  0  0
 18 17  2  0  0  0  0
 19 20  2  0  0  0  0
 19 18  1  0  0  0  0
 20 21  1  0  0  0  0
 21 22  2  0  0  0  0
 24 18  1  0  0  0  0
 25 21  1  0  0  0  0
 26 27  1  0  0  0  0
 27 28  2  0  0  0  0
 28 33  1  0  0  0  0
 29 28  1  0  0  0  0
 29 34  1  0  0  0  0
 30 35  1  0  0  0  0
 30 29  2  0  0  0  0
 31 26  2  0  0  0  0
 31 30  1  0  0  0  0
 32 27  1  0  0  0  0
 35 37  1  0  0  0  0
 36 35  2  0  0  0  0
 37 44  1  0  0  0  0
 37 38  2  0  0  0  0
 38 39  1  0  0  0  0
 38 40  1  0  0  0  0
 40 41  1  0  0  0  0
 42 43  1  0  0  0  0
 42 40  1  0  0  0  0
 44 42  2  0  0  0  0
M  END
>  <minimizedAffinity>
-5.56588745

$$$$
