
 OpenBabel03242514323D

 25 26  0  0  0  0  0  0  0  0999 V2000
   49.4690   35.5150   42.4870 O   0  0  0  0  0  0  0  0  0  0  0  0
   48.8470   34.3130   41.8390 P   0  0  1  0  0  0  0  0  0  0  0  0
   50.0910   33.2770   41.3940 O   0  0  0  0  0  0  0  0  0  0  0  0
   50.5700   32.8800   42.1420 H   0  0  0  0  0  0  0  0  0  0  0  0
   47.7850   33.5520   42.9410 O   0  0  0  0  0  0  0  0  0  0  0  0
   46.2020   35.3230   42.8290 C   0  0  0  0  0  0  0  0  0  0  0  0
   46.7220   34.2370   43.5150 C   0  0  0  0  0  0  0  0  0  0  0  0
   46.1610   33.8740   44.7500 C   0  0  0  0  0  0  0  0  0  0  0  0
   45.1130   34.6370   45.2000 N   0  0  0  0  0  0  0  0  0  0  0  0
   44.6340   35.6790   44.5150 C   0  0  0  0  0  0  0  0  0  0  0  0
   45.1750   36.0130   43.3450 N   0  0  0  0  0  0  0  0  0  0  0  0
   46.6110   35.6410   41.8580 H   0  0  0  0  0  0  0  0  0  0  0  0
   46.5850   33.0380   45.2460 H   0  0  0  0  0  0  0  0  0  0  0  0
   43.8040   36.2640   44.8960 H   0  0  0  0  0  0  0  0  0  0  0  0
   48.0150   34.7850   40.4720 O   0  0  0  0  0  0  0  0  0  0  0  0
   47.4710   33.9890   39.5300 C   0  0  0  0  0  0  0  0  0  0  0  0
   46.4770   33.3010   40.0040 O   0  0  0  0  0  0  0  0  0  0  0  0
   47.6550   33.6540   38.0890 C   0  0  0  0  0  0  0  0  0  0  0  0
   48.3930   34.3570   37.1800 C   0  0  0  0  0  0  0  0  0  0  0  0
   48.9730   35.2590   37.2870 H   0  0  0  0  0  0  0  0  0  0  0  0
   48.2350   33.6350   36.0320 N   0  0  0  0  0  0  0  0  0  0  0  0
   48.6970   33.9390   35.1430 H   0  0  0  0  0  0  0  0  0  0  0  0
   47.4610   32.5530   36.1700 C   0  0  0  0  0  0  0  0  0  0  0  0
   47.2310   31.8710   35.3640 H   0  0  0  0  0  0  0  0  0  0  0  0
   47.1060   32.5750   37.4590 N   0  0  0  0  0  0  0  0  0  0  0  0
  2  1  2  1  0  0  0
  2  5  1  0  0  0  0
  3  2  1  0  0  0  0
  3  4  1  0  0  0  0
  5  7  1  0  0  0  0
  6 11  2  0  0  0  0
  6  7  1  0  0  0  0
  7  8  2  0  0  0  0
  8  9  1  0  0  0  0
  8 13  1  0  0  0  0
 10 14  1  0  0  0  0
 10  9  2  0  0  0  0
 11 10  1  0  0  0  0
 12  6  1  0  0  0  0
 15  2  1  0  0  0  0
 16 17  2  0  0  0  0
 16 15  1  0  0  0  0
 18 16  1  0  0  0  0
 19 20  1  0  0  0  0
 19 18  2  0  0  0  0
 21 23  1  0  0  0  0
 21 19  1  0  0  0  0
 22 21  1  0  0  0  0
 23 25  2  0  0  0  0
 24 23  1  0  0  0  0
 25 18  1  0  0  0  0
M  END
>  <minimizedAffinity>
-4.71211576

>  <minimizedRMSD>
0.780808806

$$$$
