
 OpenBabel03242516523D

 44 47  0  0  1  0  0  0  0  0999 V2000
   47.8600   32.9100   41.8690 C   0  0  1  0  0  0  0  0  0  0  0  0
   47.5710   32.2870   40.5770 C   0  0  0  0  0  0  0  0  0  0  0  0
   48.6060   32.8380   39.5990 C   0  0  0  0  0  0  0  0  0  0  0  0
   48.2610   34.2860   39.3710 C   0  0  0  0  0  0  0  0  0  0  0  0
   48.1590   35.0950   40.6330 C   0  0  0  0  0  0  0  0  0  0  0  0
   47.6470   34.4270   41.8420 C   0  0  1  0  0  0  0  0  0  0  0  0
   48.9740   32.8320   42.0620 H   0  0  0  0  0  0  0  0  0  0  0  0
   47.7040   31.1950   40.6620 H   0  0  0  0  0  0  0  0  0  0  0  0
   46.5740   32.5300   40.1860 H   0  0  0  0  0  0  0  0  0  0  0  0
   49.6300   32.6610   39.9410 H   0  0  0  0  0  0  0  0  0  0  0  0
   48.3850   32.3230   38.6220 H   0  0  0  0  0  0  0  0  0  0  0  0
   49.0400   34.7190   38.7120 H   0  0  0  0  0  0  0  0  0  0  0  0
   47.3070   34.3330   38.8170 H   0  0  0  0  0  0  0  0  0  0  0  0
   47.4810   35.9470   40.3900 H   0  0  0  0  0  0  0  0  0  0  0  0
   49.1550   35.5650   40.8060 H   0  0  0  0  0  0  0  0  0  0  0  0
   48.2270   34.8100   42.7250 H   0  0  0  0  0  0  0  0  0  0  0  0
   45.4090   30.9340   43.9520 C   0  0  0  0  0  0  0  0  0  0  0  0
   46.1020   31.5020   42.8790 C   0  0  0  0  0  0  0  0  0  0  0  0
   47.1950   32.3530   43.0300 C   0  0  0  0  0  0  0  0  0  0  0  0
   47.5580   32.6070   44.2870 N   0  0  0  0  0  0  0  0  0  0  0  0
   46.8940   32.0630   45.3410 C   0  0  0  0  0  0  0  0  0  0  0  0
   45.8450   31.2460   45.1890 N   0  0  0  0  0  0  0  0  0  0  0  0
   44.5760   30.2870   43.7530 H   0  0  0  0  0  0  0  0  0  0  0  0
   45.7430   31.2450   41.8780 H   0  0  0  0  0  0  0  0  0  0  0  0
   47.2870   32.3470   46.3240 H   0  0  0  0  0  0  0  0  0  0  0  0
   46.2570   34.7840   42.1270 C   0  0  0  0  0  0  0  0  0  0  0  0
   45.7820   35.3280   43.3270 C   0  0  0  0  0  0  0  0  0  0  0  0
   44.4170   35.6060   43.3710 C   0  0  0  0  0  0  0  0  0  0  0  0
   43.6550   35.3240   42.2400 C   0  0  0  0  0  0  0  0  0  0  0  0
   44.1490   34.7840   41.0640 C   0  0  0  0  0  0  0  0  0  0  0  0
   45.4850   34.5210   41.0440 N   0  0  0  0  0  0  0  0  0  0  0  0
   46.4790   35.4850   44.0940 H   0  0  0  0  0  0  0  0  0  0  0  0
   44.0190   36.0200   44.2670 H   0  0  0  0  0  0  0  0  0  0  0  0
   42.6020   35.5520   42.3110 H   0  0  0  0  0  0  0  0  0  0  0  0
   43.2650   34.5300   39.9330 C   0  0  0  0  0  0  0  0  0  0  0  0
   42.2050   35.2250   39.8590 O   0  0  0  0  0  0  0  0  0  0  0  0
   43.4810   33.5480   38.8730 C   0  0  0  0  0  0  0  0  0  0  0  0
   42.4480   32.8290   38.3090 C   0  0  0  0  0  0  0  0  0  0  0  0
   41.3950   32.8070   38.4720 H   0  0  0  0  0  0  0  0  0  0  0  0
   42.9930   32.0160   37.3690 N   0  0  0  0  0  0  0  0  0  0  0  0
   42.5220   31.3210   36.7300 H   0  0  0  0  0  0  0  0  0  0  0  0
   44.3060   32.1910   37.3170 C   0  0  0  0  0  0  0  0  0  0  0  0
   45.1230   31.7800   36.7460 H   0  0  0  0  0  0  0  0  0  0  0  0
   44.5850   33.1270   38.2390 N   0  0  0  0  0  0  0  0  0  0  0  0
  1  7  1  1  0  0  0
  1 19  1  0  0  0  0
  2  8  1  0  0  0  0
  2  1  1  0  0  0  0
  3 10  1  0  0  0  0
  3  2  1  0  0  0  0
  4  3  1  0  0  0  0
  4  5  1  0  0  0  0
  5 15  1  0  0  0  0
  5  6  1  0  0  0  0
  6  1  1  0  0  0  0
  6 26  1  0  0  0  0
  6 16  1  1  0  0  0
  9  2  1  0  0  0  0
 11  3  1  0  0  0  0
 12  4  1  0  0  0  0
 13  4  1  0  0  0  0
 14  5  1  0  0  0  0
 17 22  1  0  0  0  0
 18 19  1  0  0  0  0
 18 17  2  0  0  0  0
 19 20  2  0  0  0  0
 20 21  1  0  0  0  0
 21 25  1  0  0  0  0
 22 21  2  0  0  0  0
 23 17  1  0  0  0  0
 24 18  1  0  0  0  0
 26 27  1  0  0  0  0
 27 28  2  0  0  0  0
 27 32  1  0  0  0  0
 28 33  1  0  0  0  0
 29 34  1  0  0  0  0
 29 28  1  0  0  0  0
 30 29  2  0  0  0  0
 31 30  1  0  0  0  0
 31 26  2  0  0  0  0
 35 30  1  0  0  0  0
 36 35  2  0  0  0  0
 37 35  1  0  0  0  0
 38 39  1  0  0  0  0
 38 37  2  0  0  0  0
 40 38  1  0  0  0  0
 41 40  1  0  0  0  0
 42 40  1  0  0  0  0
 42 44  2  0  0  0  0
 43 42  1  0  0  0  0
 44 37  1  0  0  0  0
M  END
>  <minimizedAffinity>
-5.44164801

>  <minimizedRMSD>
0.559174836

$$$$
