REMARK  Name = 
REMARK  4 active torsions:
REMARK  status: ('A' for Active; 'I' for Inactive)
REMARK    1  A    between atoms: C_1  and  C_9
REMARK    2  A    between atoms: C_6  and  C_13
REMARK    3  A    between atoms: C_17  and  C_19
REMARK    4  A    between atoms: C_19  and  C_37
REMARK                            x       y       z     vdW  Elec       q    Type
REMARK                         _______ _______ _______ _____ _____    ______ ____
ROOT
ATOM      1  C   UNL     1      47.872  32.921  41.822  0.00  0.00    +0.000 C 
ATOM      2  C   UNL     1      47.572  32.181  40.596  0.00  0.00    +0.000 C 
ATOM      3  C   UNL     1      48.597  32.641  39.561  0.00  0.00    +0.000 C 
ATOM      4  C   UNL     1      48.246  34.061  39.203  0.00  0.00    +0.000 C 
ATOM      5  C   UNL     1      48.154  34.983  40.386  0.00  0.00    +0.000 C 
ATOM      6  C   UNL     1      47.655  34.429  41.657  0.00  0.00    +0.000 C 
ATOM      7  H   UNL     1      48.988  32.863  42.010  0.00  0.00    +0.000 HD
ATOM      8  H   UNL     1      47.709  31.101  40.780  0.00  0.00    +0.000 HD
ATOM      9  H   UNL     1      46.571  32.385  40.194  0.00  0.00    +0.000 HD
ATOM     10  H   UNL     1      49.624  32.498  39.908  0.00  0.00    +0.000 HD
ATOM     11  H   UNL     1      48.368  32.037  38.638  0.00  0.00    +0.000 HD
ATOM     12  H   UNL     1      49.017  34.432  38.500  0.00  0.00    +0.000 HD
ATOM     13  H   UNL     1      47.286  34.055  38.657  0.00  0.00    +0.000 HD
ATOM     14  H   UNL     1      47.471  35.807  40.072  0.00  0.00    +0.000 HD
ATOM     15  H   UNL     1      49.150  35.468  40.505  0.00  0.00    +0.000 HD
ATOM     16  H   UNL     1      48.242  34.893  42.495  0.00  0.00    +0.000 HD
ENDROOT
BRANCH   1  19
ATOM     17  C   UNL     1      45.480  31.100  44.105  0.00  0.00    +0.000 A 
ATOM     18  C   UNL     1      46.159  31.570  42.978  0.00  0.00    +0.000 A 
ATOM     19  C   UNL     1      47.220  32.473  43.036  0.00  0.00    +0.000 A 
ATOM     20  N   UNL     1      47.564  32.879  44.258  0.00  0.00    +0.000 NA
ATOM     21  C   UNL     1      46.913  32.431  45.364  0.00  0.00    +0.000 A 
ATOM     22  N   UNL     1      45.896  31.564  45.301  0.00  0.00    +0.000 NA
ATOM     23  H   UNL     1      44.673  30.405  43.977  0.00  0.00    +0.000 HD
ATOM     24  H   UNL     1      45.817  31.190  42.011  0.00  0.00    +0.000 HD
ATOM     25  H   UNL     1      47.289  32.837  46.310  0.00  0.00    +0.000 HD
ENDBRANCH   1  19
BRANCH   6  26
ATOM     26  C   UNL     1      46.267  34.808  41.921  0.00  0.00    +0.000 A 
ATOM     27  C   UNL     1      45.808  35.498  43.050  0.00  0.00    +0.000 A 
ATOM     28  C   UNL     1      44.442  35.768  43.085  0.00  0.00    +0.000 A 
ATOM     29  C   UNL     1      43.662  35.337  42.015  0.00  0.00    +0.000 A 
ATOM     30  C   UNL     1      44.140  34.655  40.908  0.00  0.00    +0.000 A 
ATOM     31  N   UNL     1      45.478  34.402  40.896  0.00  0.00    +0.000 NA
ATOM     32  H   UNL     1      46.518  35.758  43.777  0.00  0.00    +0.000 HD
ATOM     33  H   UNL     1      44.056  36.291  43.928  0.00  0.00    +0.000 HD
ATOM     34  H   UNL     1      42.608  35.564  42.077  0.00  0.00    +0.000 HD
BRANCH  30  35
ATOM     35  C   UNL     1      43.237  34.250  39.837  0.00  0.00    +0.000 C 
ATOM     36  O   UNL     1      42.367  35.095  39.463  0.00  0.00    +0.000 OA
BRANCH  35  37
ATOM     37  C   UNL     1      43.238  32.961  39.150  0.00  0.00    +0.000 A 
ATOM     38  C   UNL     1      43.028  31.770  39.811  0.00  0.00    +0.000 A 
ATOM     39  H   UNL     1      42.841  31.520  40.831  0.00  0.00    +0.000 HD
ATOM     40  N   UNL     1      43.095  30.780  38.886  0.00  0.00    +0.000 N 
ATOM     41  H   UNL     1      42.986  29.738  39.010  0.00  0.00    +0.000 HD
ATOM     42  C   UNL     1      43.334  31.290  37.685  0.00  0.00    +0.000 A 
ATOM     43  H   UNL     1      43.464  30.903  36.688  0.00  0.00    +0.000 HD
ATOM     44  N   UNL     1      43.418  32.619  37.865  0.00  0.00    +0.000 NA
ENDBRANCH  35  37
ENDBRANCH  30  35
ENDBRANCH   6  26
TORSDOF 4
