
 OpenBabel03242516523D

 44 47  0  0  1  0  0  0  0  0999 V2000
   47.8360   32.8890   41.8250 C   0  0  1  0  0  0  0  0  0  0  0  0
   47.5210   32.2430   40.5510 C   0  0  0  0  0  0  0  0  0  0  0  0
   48.5380   32.7740   39.5430 C   0  0  0  0  0  0  0  0  0  0  0  0
   48.1900   34.2180   39.2940 C   0  0  0  0  0  0  0  0  0  0  0  0
   48.1140   35.0500   40.5430 C   0  0  0  0  0  0  0  0  0  0  0  0
   47.6240   34.4060   41.7740 C   0  0  1  0  0  0  0  0  0  0  0  0
   48.9530   32.8130   41.9970 H   0  0  0  0  0  0  0  0  0  0  0  0
   47.6540   31.1520   40.6530 H   0  0  0  0  0  0  0  0  0  0  0  0
   46.5170   32.4800   40.1750 H   0  0  0  0  0  0  0  0  0  0  0  0
   49.5670   32.6020   39.8680 H   0  0  0  0  0  0  0  0  0  0  0  0
   48.2970   32.2410   38.5800 H   0  0  0  0  0  0  0  0  0  0  0  0
   48.9560   34.6370   38.6130 H   0  0  0  0  0  0  0  0  0  0  0  0
   47.2250   34.2560   38.7590 H   0  0  0  0  0  0  0  0  0  0  0  0
   47.4320   35.8980   40.2970 H   0  0  0  0  0  0  0  0  0  0  0  0
   49.1130   35.5210   40.6880 H   0  0  0  0  0  0  0  0  0  0  0  0
   48.2210   34.8040   42.6380 H   0  0  0  0  0  0  0  0  0  0  0  0
   45.4250   30.9540   43.9920 C   0  0  0  0  0  0  0  0  0  0  0  0
   46.0970   31.5010   42.8960 C   0  0  0  0  0  0  0  0  0  0  0  0
   47.1930   32.3550   43.0090 C   0  0  0  0  0  0  0  0  0  0  0  0
   47.5790   32.6330   44.2540 N   0  0  0  0  0  0  0  0  0  0  0  0
   46.9350   32.1090   45.3310 C   0  0  0  0  0  0  0  0  0  0  0  0
   45.8840   31.2900   45.2140 N   0  0  0  0  0  0  0  0  0  0  0  0
   44.5890   30.3040   43.8210 H   0  0  0  0  0  0  0  0  0  0  0  0
   45.7200   31.2240   41.9070 H   0  0  0  0  0  0  0  0  0  0  0  0
   47.3470   32.4120   46.3000 H   0  0  0  0  0  0  0  0  0  0  0  0
   46.2410   34.7700   42.0790 C   0  0  0  0  0  0  0  0  0  0  0  0
   45.7910   35.3460   43.2740 C   0  0  0  0  0  0  0  0  0  0  0  0
   44.4280   35.6240   43.3400 C   0  0  0  0  0  0  0  0  0  0  0  0
   43.6410   35.3120   42.2340 C   0  0  0  0  0  0  0  0  0  0  0  0
   44.1110   34.7420   41.0620 C   0  0  0  0  0  0  0  0  0  0  0  0
   45.4460   34.4780   41.0200 N   0  0  0  0  0  0  0  0  0  0  0  0
   46.5040   35.5230   44.0220 H   0  0  0  0  0  0  0  0  0  0  0  0
   44.0480   36.0630   44.2330 H   0  0  0  0  0  0  0  0  0  0  0  0
   42.5900   35.5420   42.3210 H   0  0  0  0  0  0  0  0  0  0  0  0
   43.2020   34.4570   39.9570 C   0  0  0  0  0  0  0  0  0  0  0  0
   42.4140   35.3870   39.6020 O   0  0  0  0  0  0  0  0  0  0  0  0
   43.1110   33.2010   39.2180 C   0  0  0  0  0  0  0  0  0  0  0  0
   42.0550   32.9100   38.3790 C   0  0  0  0  0  0  0  0  0  0  0  0
   41.1750   33.4420   38.0980 H   0  0  0  0  0  0  0  0  0  0  0  0
   42.2820   31.6780   37.8600 N   0  0  0  0  0  0  0  0  0  0  0  0
   41.6980   31.1180   37.1830 H   0  0  0  0  0  0  0  0  0  0  0  0
   43.4200   31.1860   38.3290 C   0  0  0  0  0  0  0  0  0  0  0  0
   43.9850   30.2770   38.2040 H   0  0  0  0  0  0  0  0  0  0  0  0
   43.9110   32.1270   39.1540 N   0  0  0  0  0  0  0  0  0  0  0  0
  1  7  1  1  0  0  0
  1 19  1  0  0  0  0
  2  8  1  0  0  0  0
  2  1  1  0  0  0  0
  3 10  1  0  0  0  0
  3  2  1  0  0  0  0
  4  3  1  0  0  0  0
  4  5  1  0  0  0  0
  5 15  1  0  0  0  0
  5  6  1  0  0  0  0
  6  1  1  0  0  0  0
  6 26  1  0  0  0  0
  6 16  1  1  0  0  0
  9  2  1  0  0  0  0
 11  3  1  0  0  0  0
 12  4  1  0  0  0  0
 13  4  1  0  0  0  0
 14  5  1  0  0  0  0
 17 22  1  0  0  0  0
 18 19  1  0  0  0  0
 18 17  2  0  0  0  0
 19 20  2  0  0  0  0
 20 21  1  0  0  0  0
 21 25  1  0  0  0  0
 22 21  2  0  0  0  0
 23 17  1  0  0  0  0
 24 18  1  0  0  0  0
 26 27  1  0  0  0  0
 27 28  2  0  0  0  0
 27 32  1  0  0  0  0
 28 33  1  0  0  0  0
 29 34  1  0  0  0  0
 29 28  1  0  0  0  0
 30 29  2  0  0  0  0
 31 30  1  0  0  0  0
 31 26  2  0  0  0  0
 35 30  1  0  0  0  0
 36 35  2  0  0  0  0
 37 35  1  0  0  0  0
 38 37  2  0  0  0  0
 39 38  1  0  0  0  0
 40 42  1  0  0  0  0
 40 38  1  0  0  0  0
 41 40  1  0  0  0  0
 42 44  2  0  0  0  0
 43 42  1  0  0  0  0
 44 37  1  0  0  0  0
M  END
>  <minimizedAffinity>
-5.14223337

>  <minimizedRMSD>
0.254516333

$$$$
