
 OpenBabel03252509193D

 42 45  0  0  1  0  0  0  0  0999 V2000
   47.0800   29.9840   47.8970 C   0  0  1  0  0  0  0  0  0  0  0  0
   48.1940   29.0070   48.0300 C   0  0  0  0  0  0  0  0  0  0  0  0
   49.5610   29.6400   48.0870 C   0  0  0  0  0  0  0  0  0  0  0  0
   49.6290   30.8400   48.9800 C   0  0  0  0  0  0  0  0  0  0  0  0
   48.4380   31.7530   48.8310 C   0  0  0  0  0  0  0  0  0  0  0  0
   47.6520   31.3670   47.5650 C   0  0  2  0  0  0  0  0  0  0  0  0
   46.6200   30.1190   48.9020 H   0  0  0  0  0  0  0  0  0  0  0  0
   48.0720   28.3950   48.9470 H   0  0  0  0  0  0  0  0  0  0  0  0
   48.1950   28.2850   47.1820 H   0  0  0  0  0  0  0  0  0  0  0  0
   50.2310   28.8770   48.5290 H   0  0  0  0  0  0  0  0  0  0  0  0
   49.8550   29.8930   47.0340 H   0  0  0  0  0  0  0  0  0  0  0  0
   50.5890   31.3410   48.8290 H   0  0  0  0  0  0  0  0  0  0  0  0
   49.6190   30.4780   50.0430 H   0  0  0  0  0  0  0  0  0  0  0  0
   47.7390   31.7240   49.6800 H   0  0  0  0  0  0  0  0  0  0  0  0
   48.8390   32.7820   48.6810 H   0  0  0  0  0  0  0  0  0  0  0  0
   48.3640   31.2790   46.7040 H   0  0  0  0  0  0  0  0  0  0  0  0
   44.7250   28.8420   44.7570 C   0  0  0  0  0  0  0  0  0  0  0  0
   44.0280   28.8770   45.9620 C   0  0  0  0  0  0  0  0  0  0  0  0
   44.6880   29.2340   47.0630 C   0  0  0  0  0  0  0  0  0  0  0  0
   46.0650   29.5690   46.9970 C   0  0  0  0  0  0  0  0  0  0  0  0
   46.4380   29.3500   45.2260 S   0  0  0  0  0  0  0  0  0  0  0  0
   42.9780   28.6230   46.0040 H   0  0  0  0  0  0  0  0  0  0  0  0
   44.3210   29.3160   48.0720 H   0  0  0  0  0  0  0  0  0  0  0  0
   42.4700   27.9970   41.9160 C   0  0  0  0  0  0  0  0  0  0  0  0
   43.4050   27.8100   40.9000 C   0  0  0  0  0  0  0  0  0  0  0  0
   44.7600   27.9760   41.2220 C   0  0  0  0  0  0  0  0  0  0  0  0
   45.0870   28.3100   42.5050 N   0  0  0  0  0  0  0  0  0  0  0  0
   44.1500   28.4800   43.4500 C   0  0  0  0  0  0  0  0  0  0  0  0
   42.8450   28.3210   43.1470 N   0  0  0  0  0  0  0  0  0  0  0  0
   41.4220   27.8750   41.6940 H   0  0  0  0  0  0  0  0  0  0  0  0
   43.1330   27.5480   39.8930 H   0  0  0  0  0  0  0  0  0  0  0  0
   45.5180   27.8470   40.4890 H   0  0  0  0  0  0  0  0  0  0  0  0
   46.5930   32.3380   47.3170 C   0  0  0  0  0  0  0  0  0  0  0  0
   45.7330   32.6130   48.1900 O   0  0  0  0  0  0  0  0  0  0  0  0
   46.1440   33.2110   46.2600 C   0  0  0  0  0  0  0  0  0  0  0  0
   46.6990   33.1990   45.0050 C   0  0  0  0  0  0  0  0  0  0  0  0
   47.4870   32.7080   44.4410 H   0  0  0  0  0  0  0  0  0  0  0  0
   46.0340   34.1020   44.2170 N   0  0  0  0  0  0  0  0  0  0  0  0
   46.1410   34.3900   43.2260 H   0  0  0  0  0  0  0  0  0  0  0  0
   45.0770   34.6870   44.9320 C   0  0  0  0  0  0  0  0  0  0  0  0
   44.3140   35.4400   44.7650 H   0  0  0  0  0  0  0  0  0  0  0  0
   45.2000   34.1210   46.1090 N   0  0  0  0  0  0  0  0  0  0  0  0
  1  2  1  0  0  0  0
  1  7  1  1  0  0  0
  2  3  1  0  0  0  0
  2  8  1  0  0  0  0
  3 10  1  0  0  0  0
  3  4  1  0  0  0  0
  4 13  1  0  0  0  0
  5  4  1  0  0  0  0
  5 14  1  0  0  0  0
  6 16  1  6  0  0  0
  6  1  1  0  0  0  0
  6  5  1  0  0  0  0
  9  2  1  0  0  0  0
 11  3  1  0  0  0  0
 12  4  1  0  0  0  0
 15  5  1  0  0  0  0
 17 21  1  0  0  0  0
 17 18  2  0  0  0  0
 18 22  1  0  0  0  0
 18 19  1  0  0  0  0
 19 23  1  0  0  0  0
 20 19  2  0  0  0  0
 20  1  1  0  0  0  0
 21 20  1  0  0  0  0
 24 29  1  0  0  0  0
 25 26  1  0  0  0  0
 25 24  2  0  0  0  0
 26 27  2  0  0  0  0
 27 28  1  0  0  0  0
 28 17  1  0  0  0  0
 29 28  2  0  0  0  0
 30 24  1  0  0  0  0
 31 25  1  0  0  0  0
 32 26  1  0  0  0  0
 33  6  1  0  0  0  0
 33 34  2  0  0  0  0
 35 33  1  0  0  0  0
 36 35  2  0  0  0  0
 37 36  1  0  0  0  0
 38 40  1  0  0  0  0
 38 36  1  0  0  0  0
 39 38  1  0  0  0  0
 40 42  2  0  0  0  0
 41 40  1  0  0  0  0
 42 35  1  0  0  0  0
M  END
>  <minimizedAffinity>
-4.25127459

>  <minimizedRMSD>
4.88754845

$$$$
