
 OpenBabel03252508493D

 27 29  0  0  0  0  0  0  0  0999 V2000
   45.9650   34.1850   41.0360 C   0  0  0  0  0  0  0  0  0  0  0  0
   46.5480   34.8080   42.1340 C   0  0  0  0  0  0  0  0  0  0  0  0
   47.8840   35.1790   42.0030 C   0  0  0  0  0  0  0  0  0  0  0  0
   48.5280   34.9140   40.8330 N   0  0  0  0  0  0  0  0  0  0  0  0
   47.9300   34.3130   39.8020 C   0  0  0  0  0  0  0  0  0  0  0  0
   46.6380   33.9430   39.9010 N   0  0  0  0  0  0  0  0  0  0  0  0
   48.3540   35.6640   42.8460 H   0  0  0  0  0  0  0  0  0  0  0  0
   48.4300   34.0960   38.8660 H   0  0  0  0  0  0  0  0  0  0  0  0
   45.7650   35.0400   43.3340 C   0  0  0  0  0  0  0  0  0  0  0  0
   45.0690   36.2230   43.5530 C   0  0  0  0  0  0  0  0  0  0  0  0
   44.4800   36.0240   44.7870 C   0  0  0  0  0  0  0  0  0  0  0  0
   44.7980   34.7980   45.2850 N   0  0  0  0  0  0  0  0  0  0  0  0
   45.5730   34.2330   44.3840 N   0  0  0  0  0  0  0  0  0  0  0  0
   44.9750   37.1100   42.9480 H   0  0  0  0  0  0  0  0  0  0  0  0
   43.8460   36.7680   45.2800 H   0  0  0  0  0  0  0  0  0  0  0  0
   44.4790   34.3990   46.2080 H   0  0  0  0  0  0  0  0  0  0  0  0
   44.6390   33.7990   41.1240 O   0  0  0  0  0  0  0  0  0  0  0  0
   43.5570   34.4100   40.5580 C   0  0  0  0  0  0  0  0  0  0  0  0
   43.1980   35.6330   40.6980 O   0  0  0  0  0  0  0  0  0  0  0  0
   42.5930   33.7040   39.6570 C   0  0  0  0  0  0  0  0  0  0  0  0
   42.4480   32.3390   39.5560 C   0  0  0  0  0  0  0  0  0  0  0  0
   42.9520   31.5310   40.0660 H   0  0  0  0  0  0  0  0  0  0  0  0
   41.4910   32.0250   38.6440 N   0  0  0  0  0  0  0  0  0  0  0  0
   41.1490   31.0910   38.3420 H   0  0  0  0  0  0  0  0  0  0  0  0
   41.0640   33.2180   38.2000 C   0  0  0  0  0  0  0  0  0  0  0  0
   40.2880   33.3470   37.4480 H   0  0  0  0  0  0  0  0  0  0  0  0
   41.7130   34.2290   38.7950 N   0  0  0  0  0  0  0  0  0  0  0  0
  1 17  1  0  0  0  0
  1  2  1  0  0  0  0
  2  9  1  0  0  0  0
  3  2  2  0  0  0  0
  3  7  1  0  0  0  0
  4  3  1  0  0  0  0
  5  6  1  0  0  0  0
  5  4  2  0  0  0  0
  6  1  2  0  0  0  0
  8  5  1  0  0  0  0
  9 10  1  0  0  0  0
  9 13  2  0  0  0  0
 10 11  2  0  0  0  0
 11 15  1  0  0  0  0
 11 12  1  0  0  0  0
 12 16  1  0  0  0  0
 13 12  1  0  0  0  0
 14 10  1  0  0  0  0
 18 19  2  0  0  0  0
 18 17  1  0  0  0  0
 20 18  1  0  0  0  0
 21 20  2  0  0  0  0
 21 22  1  0  0  0  0
 23 21  1  0  0  0  0
 24 23  1  0  0  0  0
 25 23  1  0  0  0  0
 25 27  2  0  0  0  0
 26 25  1  0  0  0  0
 27 20  1  0  0  0  0
M  END
>  <minimizedAffinity>
-4.97422457

>  <minimizedRMSD>
0.330992699

$$$$
