
 OpenBabel03242510243D

 37 40  0  0  1  0  0  0  0  0999 V2000
   37.6640   26.7340   41.2300 N   0  0  0  0  0  0  0  0  0  0  0  0
   36.8990   26.3000   40.1510 C   0  0  0  0  0  0  0  0  0  0  0  0
   36.3990   25.1740   39.8980 O   0  0  0  0  0  0  0  0  0  0  0  0
   38.4490   27.3500   40.9210 H   0  0  0  0  0  0  0  0  0  0  0  0
   37.9320   27.2510   43.6270 C   0  0  1  0  0  0  0  0  0  0  0  0
   36.5800   27.4570   43.3380 C   0  0  0  0  0  0  0  0  0  0  0  0
   37.3910   26.3660   42.5720 C   0  0  1  0  0  0  0  0  0  0  0  0
   38.2880   26.8000   44.5860 H   0  0  0  0  0  0  0  0  0  0  0  0
   36.1250   28.2560   42.7220 H   0  0  0  0  0  0  0  0  0  0  0  0
   35.7820   27.0070   44.0060 H   0  0  0  0  0  0  0  0  0  0  0  0
   37.0430   25.3430   42.8070 H   0  0  0  0  0  0  0  0  0  0  0  0
   40.3330   28.0270   42.9790 C   0  0  0  0  0  0  0  0  0  0  0  0
   38.9390   28.3140   43.1550 C   0  0  0  0  0  0  0  0  0  0  0  0
   38.5150   29.6070   42.9080 C   0  0  0  0  0  0  0  0  0  0  0  0
   39.4240   30.5260   42.5170 N   0  0  0  0  0  0  0  0  0  0  0  0
   40.7420   30.2400   42.3560 C   0  0  0  0  0  0  0  0  0  0  0  0
   41.2010   28.9420   42.5970 N   0  0  0  0  0  0  0  0  0  0  0  0
   40.6560   27.0190   43.1470 H   0  0  0  0  0  0  0  0  0  0  0  0
   37.4670   29.8300   43.0380 H   0  0  0  0  0  0  0  0  0  0  0  0
   41.3090   31.0900   42.0440 H   0  0  0  0  0  0  0  0  0  0  0  0
   36.5580   27.2840   39.0460 C   0  0  2  0  0  0  0  0  0  0  0  0
   37.5930   27.4070   37.8710 C   0  0  0  0  0  0  0  0  0  0  0  0
   37.3420   28.5090   38.8430 C   0  0  1  0  0  0  0  0  0  0  0  0
   35.5390   27.2300   38.6150 H   0  0  0  0  0  0  0  0  0  0  0  0
   38.5080   26.7940   38.0020 H   0  0  0  0  0  0  0  0  0  0  0  0
   37.2170   27.5530   36.8640 H   0  0  0  0  0  0  0  0  0  0  0  0
   38.0660   28.7480   39.6690 H   0  0  0  0  0  0  0  0  0  0  0  0
   36.5960   29.7290   38.3540 C   0  0  0  0  0  0  0  0  0  0  0  0
   35.8190   29.6250   37.4150 O   0  0  0  0  0  0  0  0  0  0  0  0
   36.8130   31.0200   39.0100 C   0  0  0  0  0  0  0  0  0  0  0  0
   36.6300   31.3940   40.3260 C   0  0  0  0  0  0  0  0  0  0  0  0
   36.2690   30.7180   41.1110 H   0  0  0  0  0  0  0  0  0  0  0  0
   36.9490   32.6830   40.5150 N   0  0  0  0  0  0  0  0  0  0  0  0
   36.8980   33.2020   41.4130 H   0  0  0  0  0  0  0  0  0  0  0  0
   37.3460   33.1450   39.2930 C   0  0  0  0  0  0  0  0  0  0  0  0
   37.6660   34.1690   39.1410 H   0  0  0  0  0  0  0  0  0  0  0  0
   37.2580   32.1350   38.4060 N   0  0  0  0  0  0  0  0  0  0  0  0
  1  7  1  0  0  0  0
  2  1  1  0  0  0  0
  3  2  2  0  0  0  0
  4  1  1  0  0  0  0
  5  8  1  1  0  0  0
  6  5  1  0  0  0  0
  6 10  1  0  0  0  0
  7 11  1  1  0  0  0
  7  6  1  0  0  0  0
  7  5  1  0  0  0  0
  9  6  1  0  0  0  0
 12 18  1  0  0  0  0
 12 13  1  0  0  0  0
 13  5  1  0  0  0  0
 14 19  1  0  0  0  0
 14 13  2  0  0  0  0
 15 14  1  0  0  0  0
 16 15  2  0  0  0  0
 16 17  1  0  0  0  0
 17 12  2  0  0  0  0
 20 16  1  0  0  0  0
 21 24  1  6  0  0  0
 21  2  1  0  0  0  0
 22 25  1  0  0  0  0
 22 23  1  0  0  0  0
 22 21  1  0  0  0  0
 23 21  1  0  0  0  0
 23 27  1  1  0  0  0
 26 22  1  0  0  0  0
 28 23  1  0  0  0  0
 28 30  1  0  0  0  0
 29 28  2  0  0  0  0
 30 31  2  0  0  0  0
 31 33  1  0  0  0  0
 31 32  1  0  0  0  0
 33 34  1  0  0  0  0
 35 33  1  0  0  0  0
 36 35  1  0  0  0  0
 37 30  1  0  0  0  0
 37 35  2  0  0  0  0
M  END
>  <minimizedAffinity>
-5.40035582

$$$$

 OpenBabel03242510243D

 37 40  0  0  1  0  0  0  0  0999 V2000
   37.9140   25.5230   39.9710 N   0  0  0  0  0  0  0  0  0  0  0  0
   36.8150   25.5700   39.1170 C   0  0  0  0  0  0  0  0  0  0  0  0
   36.2310   24.6590   38.4770 O   0  0  0  0  0  0  0  0  0  0  0  0
   38.5610   26.3280   39.8100 H   0  0  0  0  0  0  0  0  0  0  0  0
   38.1300   24.9040   42.3490 C   0  0  1  0  0  0  0  0  0  0  0  0
   36.9120   24.3690   41.9220 C   0  0  0  0  0  0  0  0  0  0  0  0
   38.1090   24.4940   40.9280 C   0  0  1  0  0  0  0  0  0  0  0  0
   38.8140   24.3750   43.0570 H   0  0  0  0  0  0  0  0  0  0  0  0
   35.9860   24.9080   41.6480 H   0  0  0  0  0  0  0  0  0  0  0  0
   36.6570   23.2880   42.1490 H   0  0  0  0  0  0  0  0  0  0  0  0
   38.4950   23.5080   40.6110 H   0  0  0  0  0  0  0  0  0  0  0  0
   39.4440   27.1300   42.6760 C   0  0  0  0  0  0  0  0  0  0  0  0
   38.2010   26.4190   42.6050 C   0  0  0  0  0  0  0  0  0  0  0  0
   37.0380   27.1420   42.8020 C   0  0  0  0  0  0  0  0  0  0  0  0
   37.1280   28.4670   43.0480 N   0  0  0  0  0  0  0  0  0  0  0  0
   38.3140   29.1270   43.1130 C   0  0  0  0  0  0  0  0  0  0  0  0
   39.5070   28.4240   42.9190 N   0  0  0  0  0  0  0  0  0  0  0  0
   40.3430   26.5740   42.5010 H   0  0  0  0  0  0  0  0  0  0  0  0
   36.0980   26.6140   42.7490 H   0  0  0  0  0  0  0  0  0  0  0  0
   38.1910   30.1680   43.3180 H   0  0  0  0  0  0  0  0  0  0  0  0
   36.1400   26.9060   38.8590 C   0  0  2  0  0  0  0  0  0  0  0  0
   36.8010   27.8280   37.7720 C   0  0  0  0  0  0  0  0  0  0  0  0
   36.7870   28.1730   39.2220 C   0  0  1  0  0  0  0  0  0  0  0  0
   35.0440   26.8990   38.6970 H   0  0  0  0  0  0  0  0  0  0  0  0
   37.7400   27.4250   37.3410 H   0  0  0  0  0  0  0  0  0  0  0  0
   36.1530   28.4130   37.1280 H   0  0  0  0  0  0  0  0  0  0  0  0
   37.7030   28.0690   39.8650 H   0  0  0  0  0  0  0  0  0  0  0  0
   35.8870   29.3010   39.6740 C   0  0  0  0  0  0  0  0  0  0  0  0
   34.7280   29.0610   39.9820 O   0  0  0  0  0  0  0  0  0  0  0  0
   36.4140   30.6650   39.7360 C   0  0  0  0  0  0  0  0  0  0  0  0
   36.5950   31.5040   40.8170 C   0  0  0  0  0  0  0  0  0  0  0  0
   36.3450   31.2330   41.8510 H   0  0  0  0  0  0  0  0  0  0  0  0
   37.1090   32.6830   40.4390 N   0  0  0  0  0  0  0  0  0  0  0  0
   37.3370   33.4810   41.0630 H   0  0  0  0  0  0  0  0  0  0  0  0
   37.2630   32.5980   39.0850 C   0  0  0  0  0  0  0  0  0  0  0  0
   37.6660   33.4150   38.4990 H   0  0  0  0  0  0  0  0  0  0  0  0
   36.8420   31.3830   38.6830 N   0  0  0  0  0  0  0  0  0  0  0  0
  1  7  1  0  0  0  0
  2  1  1  0  0  0  0
  3  2  2  0  0  0  0
  4  1  1  0  0  0  0
  5 13  1  0  0  0  0
  5  8  1  1  0  0  0
  6 10  1  0  0  0  0
  6  5  1  0  0  0  0
  7 11  1  6  0  0  0
  7  6  1  0  0  0  0
  7  5  1  0  0  0  0
  9  6  1  0  0  0  0
 12 17  1  0  0  0  0
 13 12  2  0  0  0  0
 13 14  1  0  0  0  0
 14 15  2  0  0  0  0
 15 16  1  0  0  0  0
 16 20  1  0  0  0  0
 17 16  2  0  0  0  0
 18 12  1  0  0  0  0
 19 14  1  0  0  0  0
 21 24  1  1  0  0  0
 21  2  1  0  0  0  0
 21 23  1  0  0  0  0
 22 21  1  0  0  0  0
 22 23  1  0  0  0  0
 23 28  1  0  0  0  0
 23 27  1  1  0  0  0
 25 22  1  0  0  0  0
 26 22  1  0  0  0  0
 28 30  1  0  0  0  0
 28 29  2  0  0  0  0
 30 31  2  0  0  0  0
 31 32  1  0  0  0  0
 33 31  1  0  0  0  0
 33 34  1  0  0  0  0
 35 33  1  0  0  0  0
 36 35  1  0  0  0  0
 37 35  2  0  0  0  0
 37 30  1  0  0  0  0
M  END
>  <minimizedAffinity>
-5.21301889

$$$$

 OpenBabel03242510243D

 37 40  0  0  1  0  0  0  0  0999 V2000
   37.0180   28.6320   41.3190 N   0  0  0  0  0  0  0  0  0  0  0  0
   35.9740   29.1260   40.5400 C   0  0  0  0  0  0  0  0  0  0  0  0
   34.7350   28.9230   40.6040 O   0  0  0  0  0  0  0  0  0  0  0  0
   37.8440   28.3720   40.7340 H   0  0  0  0  0  0  0  0  0  0  0  0
   37.5110   27.2730   43.3180 C   0  0  1  0  0  0  0  0  0  0  0  0
   38.3460   28.3910   43.3970 C   0  0  0  0  0  0  0  0  0  0  0  0
   36.9410   28.5040   42.7290 C   0  0  1  0  0  0  0  0  0  0  0  0
   37.0160   26.8170   44.2100 H   0  0  0  0  0  0  0  0  0  0  0  0
   39.2160   28.6430   42.7610 H   0  0  0  0  0  0  0  0  0  0  0  0
   38.4110   28.9830   44.3610 H   0  0  0  0  0  0  0  0  0  0  0  0
   36.2530   29.1500   43.3070 H   0  0  0  0  0  0  0  0  0  0  0  0
   36.9580   25.1440   41.9220 C   0  0  0  0  0  0  0  0  0  0  0  0
   37.8830   26.1660   42.3170 C   0  0  0  0  0  0  0  0  0  0  0  0
   39.1570   26.1170   41.7810 C   0  0  0  0  0  0  0  0  0  0  0  0
   39.4660   25.1220   40.9220 N   0  0  0  0  0  0  0  0  0  0  0  0
   38.5790   24.1590   40.5590 C   0  0  0  0  0  0  0  0  0  0  0  0
   37.2830   24.1810   41.0820 N   0  0  0  0  0  0  0  0  0  0  0  0
   35.9640   25.1950   42.3190 H   0  0  0  0  0  0  0  0  0  0  0  0
   39.8590   26.8840   42.0730 H   0  0  0  0  0  0  0  0  0  0  0  0
   38.9990   23.4550   39.8730 H   0  0  0  0  0  0  0  0  0  0  0  0
   36.2910   30.0790   39.4010 C   0  0  2  0  0  0  0  0  0  0  0  0
   36.8140   29.4320   38.0690 C   0  0  0  0  0  0  0  0  0  0  0  0
   37.6690   30.2880   38.9390 C   0  0  1  0  0  0  0  0  0  0  0  0
   35.5270   30.8400   39.1490 H   0  0  0  0  0  0  0  0  0  0  0  0
   36.9540   28.3330   38.1190 H   0  0  0  0  0  0  0  0  0  0  0  0
   36.4960   29.8630   37.1260 H   0  0  0  0  0  0  0  0  0  0  0  0
   38.4620   29.8510   39.6060 H   0  0  0  0  0  0  0  0  0  0  0  0
   38.0260   31.6700   38.4430 C   0  0  0  0  0  0  0  0  0  0  0  0
   37.8550   31.9510   37.2650 O   0  0  0  0  0  0  0  0  0  0  0  0
   38.5710   32.6560   39.3790 C   0  0  0  0  0  0  0  0  0  0  0  0
   37.9600   33.3430   40.4080 C   0  0  0  0  0  0  0  0  0  0  0  0
   36.9010   33.2300   40.6770 H   0  0  0  0  0  0  0  0  0  0  0  0
   38.8220   34.1610   41.0280 N   0  0  0  0  0  0  0  0  0  0  0  0
   38.6080   34.7830   41.8310 H   0  0  0  0  0  0  0  0  0  0  0  0
   40.0140   33.9930   40.3830 C   0  0  0  0  0  0  0  0  0  0  0  0
   40.9070   34.5340   40.6730 H   0  0  0  0  0  0  0  0  0  0  0  0
   39.8430   33.0890   39.3990 N   0  0  0  0  0  0  0  0  0  0  0  0
  1  7  1  0  0  0  0
  2  3  2  0  0  0  0
  2  1  1  0  0  0  0
  4  1  1  0  0  0  0
  5  6  1  0  0  0  0
  5  8  1  1  0  0  0
  6 10  1  0  0  0  0
  7 11  1  1  0  0  0
  7  5  1  0  0  0  0
  7  6  1  0  0  0  0
  9  6  1  0  0  0  0
 12 13  1  0  0  0  0
 12 18  1  0  0  0  0
 13  5  1  0  0  0  0
 14 19  1  0  0  0  0
 14 13  2  0  0  0  0
 15 14  1  0  0  0  0
 16 15  2  0  0  0  0
 16 17  1  0  0  0  0
 17 12  2  0  0  0  0
 20 16  1  0  0  0  0
 21 24  1  6  0  0  0
 21  2  1  0  0  0  0
 22 25  1  0  0  0  0
 22 23  1  0  0  0  0
 22 21  1  0  0  0  0
 23 21  1  0  0  0  0
 23 27  1  1  0  0  0
 26 22  1  0  0  0  0
 28 23  1  0  0  0  0
 28 30  1  0  0  0  0
 29 28  2  0  0  0  0
 30 37  1  0  0  0  0
 30 31  2  0  0  0  0
 31 32  1  0  0  0  0
 31 33  1  0  0  0  0
 33 34  1  0  0  0  0
 35 36  1  0  0  0  0
 35 33  1  0  0  0  0
 37 35  2  0  0  0  0
M  END
>  <minimizedAffinity>
-5.17119646

$$$$

 OpenBabel03242510243D

 37 40  0  0  1  0  0  0  0  0999 V2000
   37.6340   29.7320   39.7920 N   0  0  0  0  0  0  0  0  0  0  0  0
   37.0530   29.7560   41.0580 C   0  0  0  0  0  0  0  0  0  0  0  0
   36.2070   30.5400   41.5590 O   0  0  0  0  0  0  0  0  0  0  0  0
   38.6550   29.5160   39.8430 H   0  0  0  0  0  0  0  0  0  0  0  0
   37.1920   31.2490   37.8980 C   0  0  1  0  0  0  0  0  0  0  0  0
   37.8350   30.1330   37.3550 C   0  0  0  0  0  0  0  0  0  0  0  0
   36.9070   29.9780   38.6000 C   0  0  1  0  0  0  0  0  0  0  0  0
   36.3570   31.7830   37.3810 H   0  0  0  0  0  0  0  0  0  0  0  0
   38.8880   29.8200   37.4840 H   0  0  0  0  0  0  0  0  0  0  0  0
   37.4070   29.6230   36.4380 H   0  0  0  0  0  0  0  0  0  0  0  0
   35.9970   29.3910   38.3750 H   0  0  0  0  0  0  0  0  0  0  0  0
   39.4780   32.2770   38.6080 C   0  0  0  0  0  0  0  0  0  0  0  0
   38.0460   32.2640   38.6770 C   0  0  0  0  0  0  0  0  0  0  0  0
   37.4360   33.1940   39.4990 C   0  0  0  0  0  0  0  0  0  0  0  0
   38.2100   34.0590   40.1900 N   0  0  0  0  0  0  0  0  0  0  0  0
   39.5660   34.0580   40.1160 C   0  0  0  0  0  0  0  0  0  0  0  0
   40.2120   33.1310   39.2930 N   0  0  0  0  0  0  0  0  0  0  0  0
   39.9490   31.5710   37.9530 H   0  0  0  0  0  0  0  0  0  0  0  0
   36.3580   33.1920   39.5550 H   0  0  0  0  0  0  0  0  0  0  0  0
   40.0090   34.8110   40.7320 H   0  0  0  0  0  0  0  0  0  0  0  0
   37.4450   28.6930   42.0690 C   0  0  2  0  0  0  0  0  0  0  0  0
   38.4200   29.1410   43.2160 C   0  0  0  0  0  0  0  0  0  0  0  0
   38.8190   28.1810   42.1480 C   0  0  1  0  0  0  0  0  0  0  0  0
   36.6290   28.0900   42.5140 H   0  0  0  0  0  0  0  0  0  0  0  0
   38.7720   30.1890   43.1340 H   0  0  0  0  0  0  0  0  0  0  0  0
   38.2740   28.7280   44.2090 H   0  0  0  0  0  0  0  0  0  0  0  0
   39.4860   28.4860   41.2960 H   0  0  0  0  0  0  0  0  0  0  0  0
   38.9910   26.7280   42.5280 C   0  0  0  0  0  0  0  0  0  0  0  0
   38.0020   26.0330   42.7170 O   0  0  0  0  0  0  0  0  0  0  0  0
   40.3380   26.1720   42.6640 C   0  0  0  0  0  0  0  0  0  0  0  0
   40.7480   24.8880   42.9630 C   0  0  0  0  0  0  0  0  0  0  0  0
   40.0600   24.0540   43.1520 H   0  0  0  0  0  0  0  0  0  0  0  0
   42.0850   24.7980   42.9920 N   0  0  0  0  0  0  0  0  0  0  0  0
   42.6370   23.9420   43.1930 H   0  0  0  0  0  0  0  0  0  0  0  0
   42.5430   26.0510   42.7050 C   0  0  0  0  0  0  0  0  0  0  0  0
   43.6010   26.2810   42.6580 H   0  0  0  0  0  0  0  0  0  0  0  0
   41.4830   26.8600   42.5120 N   0  0  0  0  0  0  0  0  0  0  0  0
  1  4  1  0  0  0  0
  1  2  1  0  0  0  0
  2  3  2  0  0  0  0
  2 21  1  0  0  0  0
  5  8  1  6  0  0  0
  5  7  1  0  0  0  0
  5 13  1  0  0  0  0
  6  9  1  0  0  0  0
  6  5  1  0  0  0  0
  6  7  1  0  0  0  0
  7 11  1  6  0  0  0
  7  1  1  0  0  0  0
 10  6  1  0  0  0  0
 12 13  2  0  0  0  0
 12 17  1  0  0  0  0
 13 14  1  0  0  0  0
 14 19  1  0  0  0  0
 14 15  2  0  0  0  0
 16 15  1  0  0  0  0
 16 20  1  0  0  0  0
 17 16  2  0  0  0  0
 18 12  1  0  0  0  0
 21 23  1  0  0  0  0
 21 24  1  1  0  0  0
 21 22  1  0  0  0  0
 22 26  1  0  0  0  0
 23 27  1  6  0  0  0
 23 28  1  0  0  0  0
 23 22  1  0  0  0  0
 25 22  1  0  0  0  0
 28 30  1  0  0  0  0
 28 29  2  0  0  0  0
 30 31  2  0  0  0  0
 31 33  1  0  0  0  0
 31 32  1  0  0  0  0
 33 34  1  0  0  0  0
 35 33  1  0  0  0  0
 36 35  1  0  0  0  0
 37 30  1  0  0  0  0
 37 35  2  0  0  0  0
M  END
>  <minimizedAffinity>
-5.13343143

$$$$

 OpenBabel03242510243D

 37 40  0  0  1  0  0  0  0  0999 V2000
   37.5710   29.6930   39.7830 N   0  0  0  0  0  0  0  0  0  0  0  0
   36.9330   29.7710   41.0180 C   0  0  0  0  0  0  0  0  0  0  0  0
   36.0980   30.6010   41.4610 O   0  0  0  0  0  0  0  0  0  0  0  0
   38.5780   29.4350   39.8870 H   0  0  0  0  0  0  0  0  0  0  0  0
   37.2550   31.2030   37.8570 C   0  0  1  0  0  0  0  0  0  0  0  0
   37.9070   30.0720   37.3570 C   0  0  0  0  0  0  0  0  0  0  0  0
   36.9120   29.9430   38.5520 C   0  0  1  0  0  0  0  0  0  0  0  0
   36.4580   31.7470   37.2930 H   0  0  0  0  0  0  0  0  0  0  0  0
   38.9460   29.7410   37.5430 H   0  0  0  0  0  0  0  0  0  0  0  0
   37.5190   29.5620   36.4210 H   0  0  0  0  0  0  0  0  0  0  0  0
   36.0050   29.3690   38.2830 H   0  0  0  0  0  0  0  0  0  0  0  0
   37.4810   33.2060   39.5070 C   0  0  0  0  0  0  0  0  0  0  0  0
   38.0850   32.2090   38.6730 C   0  0  0  0  0  0  0  0  0  0  0  0
   39.4660   32.1880   38.5980 C   0  0  0  0  0  0  0  0  0  0  0  0
   40.1700   33.0980   39.3060 N   0  0  0  0  0  0  0  0  0  0  0  0
   39.5830   34.0380   40.0910 C   0  0  0  0  0  0  0  0  0  0  0  0
   38.1900   34.0840   40.1880 N   0  0  0  0  0  0  0  0  0  0  0  0
   36.4120   33.2070   39.5830 H   0  0  0  0  0  0  0  0  0  0  0  0
   39.9280   31.4390   37.9730 H   0  0  0  0  0  0  0  0  0  0  0  0
   40.2970   34.6710   40.5730 H   0  0  0  0  0  0  0  0  0  0  0  0
   37.2300   28.7160   42.0690 C   0  0  2  0  0  0  0  0  0  0  0  0
   38.1780   29.1440   43.2460 C   0  0  0  0  0  0  0  0  0  0  0  0
   38.5720   28.1410   42.2180 C   0  0  1  0  0  0  0  0  0  0  0  0
   36.3680   28.1640   42.4930 H   0  0  0  0  0  0  0  0  0  0  0  0
   38.5840   30.1730   43.1540 H   0  0  0  0  0  0  0  0  0  0  0  0
   37.9700   28.7640   44.2400 H   0  0  0  0  0  0  0  0  0  0  0  0
   39.2880   28.3920   41.3880 H   0  0  0  0  0  0  0  0  0  0  0  0
   38.6570   26.6910   42.6380 C   0  0  0  0  0  0  0  0  0  0  0  0
   39.2890   26.3890   43.6410 O   0  0  0  0  0  0  0  0  0  0  0  0
   37.9800   25.6670   41.8390 C   0  0  0  0  0  0  0  0  0  0  0  0
   36.9760   24.7850   42.1840 C   0  0  0  0  0  0  0  0  0  0  0  0
   36.5190   24.7360   43.1810 H   0  0  0  0  0  0  0  0  0  0  0  0
   36.6350   24.0050   41.1480 N   0  0  0  0  0  0  0  0  0  0  0  0
   35.9080   23.2640   41.1520 H   0  0  0  0  0  0  0  0  0  0  0  0
   37.4400   24.3950   40.1160 C   0  0  0  0  0  0  0  0  0  0  0  0
   37.3860   23.9330   39.1370 H   0  0  0  0  0  0  0  0  0  0  0  0
   38.2370   25.3910   40.5490 N   0  0  0  0  0  0  0  0  0  0  0  0
  1  4  1  0  0  0  0
  1  2  1  0  0  0  0
  2  3  2  0  0  0  0
  2 21  1  0  0  0  0
  5  8  1  6  0  0  0
  5  7  1  0  0  0  0
  5 13  1  0  0  0  0
  6  9  1  0  0  0  0
  6  5  1  0  0  0  0
  6  7  1  0  0  0  0
  7 11  1  6  0  0  0
  7  1  1  0  0  0  0
 10  6  1  0  0  0  0
 12 18  1  0  0  0  0
 12 17  1  0  0  0  0
 13 12  2  0  0  0  0
 14 13  1  0  0  0  0
 14 15  2  0  0  0  0
 15 16  1  0  0  0  0
 16 17  2  0  0  0  0
 16 20  1  0  0  0  0
 19 14  1  0  0  0  0
 21 23  1  0  0  0  0
 21 24  1  1  0  0  0
 21 22  1  0  0  0  0
 22 26  1  0  0  0  0
 23 27  1  6  0  0  0
 23 28  1  0  0  0  0
 23 22  1  0  0  0  0
 25 22  1  0  0  0  0
 28 29  2  0  0  0  0
 30 31  2  0  0  0  0
 30 28  1  0  0  0  0
 31 32  1  0  0  0  0
 33 34  1  0  0  0  0
 33 31  1  0  0  0  0
 35 37  2  0  0  0  0
 35 33  1  0  0  0  0
 36 35  1  0  0  0  0
 37 30  1  0  0  0  0
M  END
>  <minimizedAffinity>
-5.12520456

$$$$

 OpenBabel03242510243D

 37 40  0  0  1  0  0  0  0  0999 V2000
   36.8770   28.7410   41.4690 N   0  0  0  0  0  0  0  0  0  0  0  0
   35.9200   29.3390   40.6540 C   0  0  0  0  0  0  0  0  0  0  0  0
   34.7640   28.9640   40.3310 O   0  0  0  0  0  0  0  0  0  0  0  0
   37.8360   28.8250   41.0610 H   0  0  0  0  0  0  0  0  0  0  0  0
   37.1010   26.7350   42.8870 C   0  0  1  0  0  0  0  0  0  0  0  0
   37.8320   27.7410   43.5260 C   0  0  0  0  0  0  0  0  0  0  0  0
   36.5610   28.0990   42.6930 C   0  0  1  0  0  0  0  0  0  0  0  0
   36.4880   25.9820   43.4410 H   0  0  0  0  0  0  0  0  0  0  0  0
   38.7810   28.2090   43.2010 H   0  0  0  0  0  0  0  0  0  0  0  0
   37.6860   27.9330   44.6330 H   0  0  0  0  0  0  0  0  0  0  0  0
   35.7410   28.4850   43.3260 H   0  0  0  0  0  0  0  0  0  0  0  0
   36.9230   25.4070   40.6530 C   0  0  0  0  0  0  0  0  0  0  0  0
   37.7170   26.0780   41.6410 C   0  0  0  0  0  0  0  0  0  0  0  0
   39.0870   26.1000   41.4530 C   0  0  0  0  0  0  0  0  0  0  0  0
   39.6050   25.4960   40.3620 N   0  0  0  0  0  0  0  0  0  0  0  0
   38.8400   24.8620   39.4360 C   0  0  0  0  0  0  0  0  0  0  0  0
   37.4520   24.8230   39.5970 N   0  0  0  0  0  0  0  0  0  0  0  0
   35.8600   25.4100   40.7870 H   0  0  0  0  0  0  0  0  0  0  0  0
   39.6920   26.6050   42.1920 H   0  0  0  0  0  0  0  0  0  0  0  0
   39.4210   24.4420   38.6430 H   0  0  0  0  0  0  0  0  0  0  0  0
   36.2360   30.6750   40.0050 C   0  0  2  0  0  0  0  0  0  0  0  0
   36.8190   30.6270   38.5470 C   0  0  0  0  0  0  0  0  0  0  0  0
   37.6180   31.0800   39.7210 C   0  0  1  0  0  0  0  0  0  0  0  0
   35.4530   31.4580   40.0460 H   0  0  0  0  0  0  0  0  0  0  0  0
   36.9960   29.6030   38.1600 H   0  0  0  0  0  0  0  0  0  0  0  0
   36.5140   31.3940   37.8430 H   0  0  0  0  0  0  0  0  0  0  0  0
   38.4070   30.4290   40.1890 H   0  0  0  0  0  0  0  0  0  0  0  0
   37.9400   32.5530   39.8330 C   0  0  0  0  0  0  0  0  0  0  0  0
   37.0830   33.3810   39.5580 O   0  0  0  0  0  0  0  0  0  0  0  0
   39.2740   32.9690   40.2710 C   0  0  0  0  0  0  0  0  0  0  0  0
   40.1380   32.3900   41.1780 C   0  0  0  0  0  0  0  0  0  0  0  0
   39.9170   31.4680   41.7320 H   0  0  0  0  0  0  0  0  0  0  0  0
   41.2720   33.0960   41.2910 N   0  0  0  0  0  0  0  0  0  0  0  0
   42.0760   32.8680   41.9070 H   0  0  0  0  0  0  0  0  0  0  0  0
   41.1320   34.1520   40.4380 C   0  0  0  0  0  0  0  0  0  0  0  0
   41.9060   34.9010   40.3180 H   0  0  0  0  0  0  0  0  0  0  0  0
   39.9310   34.0590   39.8360 N   0  0  0  0  0  0  0  0  0  0  0  0
  1  7  1  0  0  0  0
  2  1  1  0  0  0  0
  3  2  2  0  0  0  0
  4  1  1  0  0  0  0
  5  8  1  1  0  0  0
  5  6  1  0  0  0  0
  6 10  1  0  0  0  0
  7  5  1  0  0  0  0
  7 11  1  1  0  0  0
  7  6  1  0  0  0  0
  9  6  1  0  0  0  0
 12 18  1  0  0  0  0
 12 13  1  0  0  0  0
 13  5  1  0  0  0  0
 14 13  2  0  0  0  0
 14 19  1  0  0  0  0
 15 14  1  0  0  0  0
 16 17  1  0  0  0  0
 16 15  2  0  0  0  0
 17 12  2  0  0  0  0
 20 16  1  0  0  0  0
 21 24  1  1  0  0  0
 21  2  1  0  0  0  0
 22 23  1  0  0  0  0
 22 21  1  0  0  0  0
 23 28  1  0  0  0  0
 23 21  1  0  0  0  0
 23 27  1  1  0  0  0
 25 22  1  0  0  0  0
 26 22  1  0  0  0  0
 28 30  1  0  0  0  0
 29 28  2  0  0  0  0
 30 31  2  0  0  0  0
 31 33  1  0  0  0  0
 31 32  1  0  0  0  0
 33 34  1  0  0  0  0
 35 33  1  0  0  0  0
 36 35  1  0  0  0  0
 37 30  1  0  0  0  0
 37 35  2  0  0  0  0
M  END
>  <minimizedAffinity>
-5.10499287

$$$$

 OpenBabel03242510243D

 37 40  0  0  1  0  0  0  0  0999 V2000
   39.0230   26.8510   42.7270 N   0  0  0  0  0  0  0  0  0  0  0  0
   37.9930   27.7120   43.0970 C   0  0  0  0  0  0  0  0  0  0  0  0
   36.9020   27.4860   43.6790 O   0  0  0  0  0  0  0  0  0  0  0  0
   39.3920   27.0800   41.7760 H   0  0  0  0  0  0  0  0  0  0  0  0
   39.3670   24.4250   43.0160 C   0  0  1  0  0  0  0  0  0  0  0  0
   40.6430   24.9830   42.8920 C   0  0  0  0  0  0  0  0  0  0  0  0
   39.4890   25.7980   43.5550 C   0  0  1  0  0  0  0  0  0  0  0  0
   39.1340   23.5860   43.7160 H   0  0  0  0  0  0  0  0  0  0  0  0
   41.1100   25.4310   41.9950 H   0  0  0  0  0  0  0  0  0  0  0  0
   41.4550   24.7110   43.6350 H   0  0  0  0  0  0  0  0  0  0  0  0
   39.6660   25.9770   44.6310 H   0  0  0  0  0  0  0  0  0  0  0  0
   37.0840   24.2660   41.7720 C   0  0  0  0  0  0  0  0  0  0  0  0
   38.5170   24.2820   41.7420 C   0  0  0  0  0  0  0  0  0  0  0  0
   39.1340   24.1370   40.5120 C   0  0  0  0  0  0  0  0  0  0  0  0
   38.3650   23.9890   39.4120 N   0  0  0  0  0  0  0  0  0  0  0  0
   37.0070   23.9740   39.4560 C   0  0  0  0  0  0  0  0  0  0  0  0
   36.3550   24.1190   40.6840 N   0  0  0  0  0  0  0  0  0  0  0  0
   36.6070   24.4020   42.7220 H   0  0  0  0  0  0  0  0  0  0  0  0
   40.2130   24.1490   40.4820 H   0  0  0  0  0  0  0  0  0  0  0  0
   36.5690   23.8460   38.4900 H   0  0  0  0  0  0  0  0  0  0  0  0
   38.1250   29.1940   42.7900 C   0  0  2  0  0  0  0  0  0  0  0  0
   37.5470   29.6800   41.4130 C   0  0  0  0  0  0  0  0  0  0  0  0
   39.0050   29.6780   41.7190 C   0  0  1  0  0  0  0  0  0  0  0  0
   37.8080   29.9060   43.5770 H   0  0  0  0  0  0  0  0  0  0  0  0
   37.1470   28.8670   40.7730 H   0  0  0  0  0  0  0  0  0  0  0  0
   37.0620   30.6480   41.3700 H   0  0  0  0  0  0  0  0  0  0  0  0
   39.7000   28.9030   41.2930 H   0  0  0  0  0  0  0  0  0  0  0  0
   39.6860   31.0100   41.9370 C   0  0  0  0  0  0  0  0  0  0  0  0
   40.3630   31.1850   42.9410 O   0  0  0  0  0  0  0  0  0  0  0  0
   39.5260   32.0740   40.9440 C   0  0  0  0  0  0  0  0  0  0  0  0
   40.0760   32.2100   39.6860 C   0  0  0  0  0  0  0  0  0  0  0  0
   40.7590   31.4800   39.2330 H   0  0  0  0  0  0  0  0  0  0  0  0
   39.6700   33.3440   39.0960 N   0  0  0  0  0  0  0  0  0  0  0  0
   39.9420   33.6740   38.1500 H   0  0  0  0  0  0  0  0  0  0  0  0
   38.8400   33.9480   39.9970 C   0  0  0  0  0  0  0  0  0  0  0  0
   38.3560   34.8950   39.7890 H   0  0  0  0  0  0  0  0  0  0  0  0
   38.7670   33.1730   41.0960 N   0  0  0  0  0  0  0  0  0  0  0  0
  1  2  1  0  0  0  0
  1  7  1  0  0  0  0
  2  3  2  0  0  0  0
  4  1  1  0  0  0  0
  5  7  1  0  0  0  0
  5  8  1  1  0  0  0
  6  5  1  0  0  0  0
  6  7  1  0  0  0  0
  6 10  1  0  0  0  0
  7 11  1  1  0  0  0
  9  6  1  0  0  0  0
 12 18  1  0  0  0  0
 13 12  1  0  0  0  0
 13  5  1  0  0  0  0
 14 13  2  0  0  0  0
 15 16  2  0  0  0  0
 15 14  1  0  0  0  0
 16 17  1  0  0  0  0
 17 12  2  0  0  0  0
 19 14  1  0  0  0  0
 20 16  1  0  0  0  0
 21  2  1  0  0  0  0
 21 24  1  1  0  0  0
 22 23  1  0  0  0  0
 22 21  1  0  0  0  0
 23 27  1  6  0  0  0
 23 28  1  0  0  0  0
 23 21  1  0  0  0  0
 25 22  1  0  0  0  0
 26 22  1  0  0  0  0
 28 29  2  0  0  0  0
 30 37  1  0  0  0  0
 30 28  1  0  0  0  0
 31 30  2  0  0  0  0
 32 31  1  0  0  0  0
 33 31  1  0  0  0  0
 33 35  1  0  0  0  0
 34 33  1  0  0  0  0
 35 37  2  0  0  0  0
 36 35  1  0  0  0  0
M  END
>  <minimizedAffinity>
-5.09324408

$$$$

 OpenBabel03242510243D

 37 40  0  0  1  0  0  0  0  0999 V2000
   37.8310   27.6960   41.2250 N   0  0  0  0  0  0  0  0  0  0  0  0
   37.2030   27.9040   39.9990 C   0  0  0  0  0  0  0  0  0  0  0  0
   36.1090   27.4730   39.5520 O   0  0  0  0  0  0  0  0  0  0  0  0
   38.8580   27.5470   41.1090 H   0  0  0  0  0  0  0  0  0  0  0  0
   37.9350   27.4010   43.6710 C   0  0  1  0  0  0  0  0  0  0  0  0
   37.6790   28.7580   43.4580 C   0  0  0  0  0  0  0  0  0  0  0  0
   37.1350   27.6890   42.4610 C   0  0  1  0  0  0  0  0  0  0  0  0
   37.4710   26.8160   44.5030 H   0  0  0  0  0  0  0  0  0  0  0  0
   38.3560   29.5250   43.0380 H   0  0  0  0  0  0  0  0  0  0  0  0
   36.8460   29.2740   44.0280 H   0  0  0  0  0  0  0  0  0  0  0  0
   36.0310   27.6250   42.4750 H   0  0  0  0  0  0  0  0  0  0  0  0
   40.4840   27.7750   43.2850 C   0  0  0  0  0  0  0  0  0  0  0  0
   39.3640   26.8900   43.4210 C   0  0  0  0  0  0  0  0  0  0  0  0
   39.6010   25.5330   43.2930 C   0  0  0  0  0  0  0  0  0  0  0  0
   40.8610   25.1120   43.0500 N   0  0  0  0  0  0  0  0  0  0  0  0
   41.9120   25.9630   42.9220 C   0  0  0  0  0  0  0  0  0  0  0  0
   41.7050   27.3390   43.0460 N   0  0  0  0  0  0  0  0  0  0  0  0
   40.3040   28.8240   43.4060 H   0  0  0  0  0  0  0  0  0  0  0  0
   38.7630   24.8600   43.3960 H   0  0  0  0  0  0  0  0  0  0  0  0
   42.8310   25.4510   42.7310 H   0  0  0  0  0  0  0  0  0  0  0  0
   37.8770   28.7900   38.9660 C   0  0  2  0  0  0  0  0  0  0  0  0
   39.3180   28.3630   38.5080 C   0  0  0  0  0  0  0  0  0  0  0  0
   39.0570   29.5960   39.3030 C   0  0  1  0  0  0  0  0  0  0  0  0
   37.2880   29.0630   38.0690 H   0  0  0  0  0  0  0  0  0  0  0  0
   39.7220   27.4760   39.0390 H   0  0  0  0  0  0  0  0  0  0  0  0
   39.5920   28.5040   37.4690 H   0  0  0  0  0  0  0  0  0  0  0  0
   39.2910   29.6550   40.4010 H   0  0  0  0  0  0  0  0  0  0  0  0
   39.2000   30.9310   38.6080 C   0  0  0  0  0  0  0  0  0  0  0  0
   39.8600   31.0090   37.5810 O   0  0  0  0  0  0  0  0  0  0  0  0
   38.5440   32.1130   39.1710 C   0  0  0  0  0  0  0  0  0  0  0  0
   37.2030   32.4070   39.3150 C   0  0  0  0  0  0  0  0  0  0  0  0
   36.3920   31.7380   38.9990 H   0  0  0  0  0  0  0  0  0  0  0  0
   37.0250   33.6070   39.8850 N   0  0  0  0  0  0  0  0  0  0  0  0
   36.1140   34.0540   40.1000 H   0  0  0  0  0  0  0  0  0  0  0  0
   38.2800   34.0930   40.1130 C   0  0  0  0  0  0  0  0  0  0  0  0
   38.4490   35.0600   40.5730 H   0  0  0  0  0  0  0  0  0  0  0  0
   39.1760   33.1850   39.6790 N   0  0  0  0  0  0  0  0  0  0  0  0
  1  7  1  0  0  0  0
  2  1  1  0  0  0  0
  3  2  2  0  0  0  0
  4  1  1  0  0  0  0
  5  8  1  1  0  0  0
  6  5  1  0  0  0  0
  6 10  1  0  0  0  0
  7 11  1  1  0  0  0
  7  6  1  0  0  0  0
  7  5  1  0  0  0  0
  9  6  1  0  0  0  0
 12 18  1  0  0  0  0
 12 13  1  0  0  0  0
 13  5  1  0  0  0  0
 14 19  1  0  0  0  0
 14 13  2  0  0  0  0
 15 14  1  0  0  0  0
 16 17  1  0  0  0  0
 16 15  2  0  0  0  0
 17 12  2  0  0  0  0
 20 16  1  0  0  0  0
 21 24  1  6  0  0  0
 21 23  1  0  0  0  0
 21  2  1  0  0  0  0
 22 21  1  0  0  0  0
 22 25  1  0  0  0  0
 22 23  1  0  0  0  0
 23 27  1  1  0  0  0
 26 22  1  0  0  0  0
 28 30  1  0  0  0  0
 28 23  1  0  0  0  0
 29 28  2  0  0  0  0
 30 31  2  0  0  0  0
 30 37  1  0  0  0  0
 31 33  1  0  0  0  0
 32 31  1  0  0  0  0
 33 34  1  0  0  0  0
 33 35  1  0  0  0  0
 35 36  1  0  0  0  0
 37 35  2  0  0  0  0
M  END
>  <minimizedAffinity>
-5.08805513

$$$$

 OpenBabel03242510243D

 37 40  0  0  1  0  0  0  0  0999 V2000
   37.9410   30.3860   40.5000 N   0  0  0  0  0  0  0  0  0  0  0  0
   37.8280   29.4800   41.5520 C   0  0  0  0  0  0  0  0  0  0  0  0
   37.7260   29.6670   42.7910 O   0  0  0  0  0  0  0  0  0  0  0  0
   38.6410   30.0670   39.7930 H   0  0  0  0  0  0  0  0  0  0  0  0
   37.8810   32.7680   39.8620 C   0  0  1  0  0  0  0  0  0  0  0  0
   37.0370   32.1070   38.9640 C   0  0  0  0  0  0  0  0  0  0  0  0
   37.1910   31.5870   40.4280 C   0  0  1  0  0  0  0  0  0  0  0  0
   37.6550   33.7800   40.2790 H   0  0  0  0  0  0  0  0  0  0  0  0
   37.3130   31.4010   38.1590 H   0  0  0  0  0  0  0  0  0  0  0  0
   35.9970   32.5110   38.7620 H   0  0  0  0  0  0  0  0  0  0  0  0
   36.2580   31.6940   41.0110 H   0  0  0  0  0  0  0  0  0  0  0  0
   40.3410   32.8980   40.7080 C   0  0  0  0  0  0  0  0  0  0  0  0
   39.3990   32.6220   39.6640 C   0  0  0  0  0  0  0  0  0  0  0  0
   39.9020   32.2350   38.4340 C   0  0  0  0  0  0  0  0  0  0  0  0
   41.2400   32.1370   38.2790 N   0  0  0  0  0  0  0  0  0  0  0  0
   42.1200   32.4040   39.2790 C   0  0  0  0  0  0  0  0  0  0  0  0
   41.6430   32.7960   40.5330 N   0  0  0  0  0  0  0  0  0  0  0  0
   39.9500   33.1750   41.6670 H   0  0  0  0  0  0  0  0  0  0  0  0
   39.1980   32.0240   37.6430 H   0  0  0  0  0  0  0  0  0  0  0  0
   43.1360   32.2740   38.9730 H   0  0  0  0  0  0  0  0  0  0  0  0
   37.8120   27.9930   41.2450 C   0  0  2  0  0  0  0  0  0  0  0  0
   36.4790   27.4130   40.6500 C   0  0  0  0  0  0  0  0  0  0  0  0
   36.9730   27.0620   42.0110 C   0  0  1  0  0  0  0  0  0  0  0  0
   38.6640   27.5840   40.6670 H   0  0  0  0  0  0  0  0  0  0  0  0
   35.6560   28.1510   40.5680 H   0  0  0  0  0  0  0  0  0  0  0  0
   36.5460   26.6370   39.8940 H   0  0  0  0  0  0  0  0  0  0  0  0
   36.5120   27.4970   42.9400 H   0  0  0  0  0  0  0  0  0  0  0  0
   37.5160   25.6690   42.2310 C   0  0  0  0  0  0  0  0  0  0  0  0
   36.7960   24.7010   42.0290 O   0  0  0  0  0  0  0  0  0  0  0  0
   38.8990   25.4950   42.6820 C   0  0  0  0  0  0  0  0  0  0  0  0
   39.7890   24.4660   42.4540 C   0  0  0  0  0  0  0  0  0  0  0  0
   39.5560   23.5740   41.8580 H   0  0  0  0  0  0  0  0  0  0  0  0
   40.9660   24.6970   43.0530 N   0  0  0  0  0  0  0  0  0  0  0  0
   41.7980   24.0760   43.0330 H   0  0  0  0  0  0  0  0  0  0  0  0
   40.8270   25.9030   43.6790 C   0  0  0  0  0  0  0  0  0  0  0  0
   41.6310   26.3510   44.2510 H   0  0  0  0  0  0  0  0  0  0  0  0
   39.5830   26.3640   43.4450 N   0  0  0  0  0  0  0  0  0  0  0  0
  1  2  1  0  0  0  0
  2  3  2  0  0  0  0
  4  1  1  0  0  0  0
  5  8  1  1  0  0  0
  5  7  1  0  0  0  0
  6  5  1  0  0  0  0
  6  7  1  0  0  0  0
  7  1  1  0  0  0  0
  7 11  1  1  0  0  0
  9  6  1  0  0  0  0
 10  6  1  0  0  0  0
 12 18  1  0  0  0  0
 13  5  1  0  0  0  0
 13 12  2  0  0  0  0
 14 13  1  0  0  0  0
 15 14  2  0  0  0  0
 15 16  1  0  0  0  0
 16 17  2  0  0  0  0
 17 12  1  0  0  0  0
 19 14  1  0  0  0  0
 20 16  1  0  0  0  0
 21 24  1  6  0  0  0
 21  2  1  0  0  0  0
 21 23  1  0  0  0  0
 22 21  1  0  0  0  0
 22 23  1  0  0  0  0
 23 28  1  0  0  0  0
 23 27  1  1  0  0  0
 25 22  1  0  0  0  0
 26 22  1  0  0  0  0
 28 30  1  0  0  0  0
 29 28  2  0  0  0  0
 30 37  1  0  0  0  0
 31 30  2  0  0  0  0
 31 33  1  0  0  0  0
 32 31  1  0  0  0  0
 33 35  1  0  0  0  0
 34 33  1  0  0  0  0
 35 36  1  0  0  0  0
 37 35  2  0  0  0  0
M  END
>  <minimizedAffinity>
-5.01305103

$$$$
