
 OpenBabel03252508493D

 27 29  0  0  0  0  0  0  0  0999 V2000
   45.9820   34.1960   41.0390 C   0  0  0  0  0  0  0  0  0  0  0  0
   46.5620   34.8080   42.1430 C   0  0  0  0  0  0  0  0  0  0  0  0
   47.9010   35.1710   42.0220 C   0  0  0  0  0  0  0  0  0  0  0  0
   48.5510   34.9080   40.8550 N   0  0  0  0  0  0  0  0  0  0  0  0
   47.9550   34.3170   39.8170 C   0  0  0  0  0  0  0  0  0  0  0  0
   46.6590   33.9550   39.9070 N   0  0  0  0  0  0  0  0  0  0  0  0
   48.3700   35.6480   42.8700 H   0  0  0  0  0  0  0  0  0  0  0  0
   48.4580   34.1010   38.8830 H   0  0  0  0  0  0  0  0  0  0  0  0
   45.7740   35.0400   43.3400 C   0  0  0  0  0  0  0  0  0  0  0  0
   45.0800   36.2240   43.5590 C   0  0  0  0  0  0  0  0  0  0  0  0
   44.4840   36.0240   44.7890 C   0  0  0  0  0  0  0  0  0  0  0  0
   44.7960   34.7960   45.2850 N   0  0  0  0  0  0  0  0  0  0  0  0
   45.5730   34.2310   44.3870 N   0  0  0  0  0  0  0  0  0  0  0  0
   44.9910   37.1140   42.9560 H   0  0  0  0  0  0  0  0  0  0  0  0
   43.8490   36.7680   45.2810 H   0  0  0  0  0  0  0  0  0  0  0  0
   44.4710   34.3960   46.2060 H   0  0  0  0  0  0  0  0  0  0  0  0
   44.6520   33.8180   41.1170 O   0  0  0  0  0  0  0  0  0  0  0  0
   43.5750   34.4540   40.5680 C   0  0  0  0  0  0  0  0  0  0  0  0
   43.2870   35.7010   40.6510 O   0  0  0  0  0  0  0  0  0  0  0  0
   42.5310   33.7500   39.7590 C   0  0  0  0  0  0  0  0  0  0  0  0
   41.9500   32.5450   40.0820 C   0  0  0  0  0  0  0  0  0  0  0  0
   42.1000   31.8870   40.9250 H   0  0  0  0  0  0  0  0  0  0  0  0
   41.0440   32.1820   39.1350 N   0  0  0  0  0  0  0  0  0  0  0  0
   40.4430   31.3350   39.0880 H   0  0  0  0  0  0  0  0  0  0  0  0
   41.0900   33.1840   38.2430 C   0  0  0  0  0  0  0  0  0  0  0  0
   40.4840   33.2240   37.3400 H   0  0  0  0  0  0  0  0  0  0  0  0
   41.9730   34.1270   38.6020 N   0  0  0  0  0  0  0  0  0  0  0  0
  1 17  1  0  0  0  0
  1  2  1  0  0  0  0
  2  9  1  0  0  0  0
  3  2  2  0  0  0  0
  3  7  1  0  0  0  0
  4  3  1  0  0  0  0
  5  6  1  0  0  0  0
  5  4  2  0  0  0  0
  6  1  2  0  0  0  0
  8  5  1  0  0  0  0
  9 10  1  0  0  0  0
  9 13  2  0  0  0  0
 10 11  2  0  0  0  0
 11 15  1  0  0  0  0
 11 12  1  0  0  0  0
 12 16  1  0  0  0  0
 13 12  1  0  0  0  0
 14 10  1  0  0  0  0
 18 19  2  0  0  0  0
 18 17  1  0  0  0  0
 20 21  2  0  0  0  0
 20 18  1  0  0  0  0
 21 22  1  0  0  0  0
 23 21  1  0  0  0  0
 24 23  1  0  0  0  0
 25 27  2  0  0  0  0
 25 23  1  0  0  0  0
 26 25  1  0  0  0  0
 27 20  1  0  0  0  0
M  END
>  <minimizedAffinity>
-4.99535418

>  <minimizedRMSD>
0.398302644

$$$$
