
 OpenBabel03242518373D

 34 37  0  0  1  0  0  0  0  0999 V2000
   36.1370   28.6730   40.7250 C   0  0  0  0  0  0  0  0  0  0  0  0
   35.0470   29.1300   39.9850 C   0  0  0  0  0  0  0  0  0  0  0  0
   35.4850   29.5210   38.7250 C   0  0  0  0  0  0  0  0  0  0  0  0
   36.8350   29.2780   38.7640 C   0  0  0  0  0  0  0  0  0  0  0  0
   37.1830   28.7940   39.9180 O   0  0  0  0  0  0  0  0  0  0  0  0
   34.0410   29.1370   40.4270 H   0  0  0  0  0  0  0  0  0  0  0  0
   34.8350   29.9130   37.9590 H   0  0  0  0  0  0  0  0  0  0  0  0
   37.7580   29.5300   37.6480 C   0  0  2  0  0  0  0  0  0  0  0  0
   39.2100   29.6360   37.9050 C   0  0  0  0  0  0  0  0  0  0  0  0
   38.4710   30.8940   37.7140 C   0  0  2  0  0  0  0  0  0  0  0  0
   37.3250   29.2640   36.6590 H   0  0  0  0  0  0  0  0  0  0  0  0
   39.8720   29.2570   37.1000 H   0  0  0  0  0  0  0  0  0  0  0  0
   39.5480   29.2950   38.8990 H   0  0  0  0  0  0  0  0  0  0  0  0
   38.5240   31.3450   36.6840 H   0  0  0  0  0  0  0  0  0  0  0  0
   38.1810   31.8260   38.7960 C   0  0  0  0  0  0  0  0  0  0  0  0
   37.2190   32.7910   38.9810 C   0  0  0  0  0  0  0  0  0  0  0  0
   36.4420   33.0210   38.2790 H   0  0  0  0  0  0  0  0  0  0  0  0
   37.3280   33.4390   40.1510 N   0  0  0  0  0  0  0  0  0  0  0  0
   36.7210   34.2040   40.5100 H   0  0  0  0  0  0  0  0  0  0  0  0
   38.3940   32.8750   40.7410 C   0  0  0  0  0  0  0  0  0  0  0  0
   38.7860   33.1440   41.7070 H   0  0  0  0  0  0  0  0  0  0  0  0
   38.9080   31.9180   39.9490 N   0  0  0  0  0  0  0  0  0  0  0  0
   36.2300   28.1760   42.0280 O   0  0  0  0  0  0  0  0  0  0  0  0
   37.4680   28.2170   42.7080 C   0  0  0  0  0  0  0  0  0  0  0  0
   37.8160   29.3320   43.1440 O   0  0  0  0  0  0  0  0  0  0  0  0
   38.1620   26.9740   42.8070 C   0  0  0  0  0  0  0  0  0  0  0  0
   39.3220   27.0300   43.5330 C   0  0  0  0  0  0  0  0  0  0  0  0
   40.0600   25.8570   43.6790 C   0  0  0  0  0  0  0  0  0  0  0  0
   39.5910   24.7190   43.0950 N   0  0  0  0  0  0  0  0  0  0  0  0
   38.4550   24.7160   42.3980 C   0  0  0  0  0  0  0  0  0  0  0  0
   37.7570   25.8410   42.2640 N   0  0  0  0  0  0  0  0  0  0  0  0
   39.7120   27.9280   44.0070 H   0  0  0  0  0  0  0  0  0  0  0  0
   40.9870   25.8350   44.2420 H   0  0  0  0  0  0  0  0  0  0  0  0
   38.1140   23.7810   41.9450 H   0  0  0  0  0  0  0  0  0  0  0  0
  1 23  1  0  0  0  0
  2  6  1  0  0  0  0
  2  1  2  0  0  0  0
  3  4  2  0  0  0  0
  3  2  1  0  0  0  0
  4  5  1  0  0  0  0
  5  1  1  0  0  0  0
  7  3  1  0  0  0  0
  8 11  1  6  0  0  0
  8 10  1  0  0  0  0
  8  9  1  0  0  0  0
  8  4  1  0  0  0  0
  9 13  1  0  0  0  0
 10 14  1  6  0  0  0
 10  9  1  0  0  0  0
 10 15  1  0  0  0  0
 12  9  1  0  0  0  0
 15 16  2  0  0  0  0
 15 22  1  0  0  0  0
 16 18  1  0  0  0  0
 17 16  1  0  0  0  0
 18 19  1  0  0  0  0
 18 20  1  0  0  0  0
 20 21  1  0  0  0  0
 22 20  2  0  0  0  0
 23 24  1  0  0  0  0
 24 26  1  0  0  0  0
 24 25  2  0  0  0  0
 26 27  1  0  0  0  0
 27 28  2  0  0  0  0
 27 32  1  0  0  0  0
 28 33  1  0  0  0  0
 29 28  1  0  0  0  0
 30 29  2  0  0  0  0
 31 30  1  0  0  0  0
 31 26  2  0  0  0  0
 34 30  1  0  0  0  0
M  END
>  <minimizedAffinity>
-5.52830982

$$$$

 OpenBabel03242518373D

 34 37  0  0  1  0  0  0  0  0999 V2000
   38.0830   28.7870   42.6610 C   0  0  0  0  0  0  0  0  0  0  0  0
   37.3520   28.1750   43.6790 C   0  0  0  0  0  0  0  0  0  0  0  0
   36.8410   26.9710   43.2110 C   0  0  0  0  0  0  0  0  0  0  0  0
   37.2930   26.9110   41.9170 C   0  0  0  0  0  0  0  0  0  0  0  0
   38.0010   27.9610   41.6260 O   0  0  0  0  0  0  0  0  0  0  0  0
   37.2590   28.6590   44.6620 H   0  0  0  0  0  0  0  0  0  0  0  0
   36.2370   26.3040   43.8060 H   0  0  0  0  0  0  0  0  0  0  0  0
   37.0150   25.8060   40.9890 C   0  0  2  0  0  0  0  0  0  0  0  0
   36.8110   24.4390   41.5130 C   0  0  0  0  0  0  0  0  0  0  0  0
   38.1260   24.7400   40.9260 C   0  0  2  0  0  0  0  0  0  0  0  0
   36.6290   26.1520   40.0050 H   0  0  0  0  0  0  0  0  0  0  0  0
   36.0880   23.8100   40.9550 H   0  0  0  0  0  0  0  0  0  0  0  0
   36.6550   24.3610   42.6040 H   0  0  0  0  0  0  0  0  0  0  0  0
   38.2770   24.4100   39.8600 H   0  0  0  0  0  0  0  0  0  0  0  0
   39.3410   24.8940   41.7150 C   0  0  0  0  0  0  0  0  0  0  0  0
   39.7100   24.4800   42.9740 C   0  0  0  0  0  0  0  0  0  0  0  0
   39.0900   23.9070   43.6340 H   0  0  0  0  0  0  0  0  0  0  0  0
   40.9520   24.8560   43.3190 N   0  0  0  0  0  0  0  0  0  0  0  0
   41.4460   24.6620   44.2130 H   0  0  0  0  0  0  0  0  0  0  0  0
   41.3990   25.5330   42.2490 C   0  0  0  0  0  0  0  0  0  0  0  0
   42.3710   25.9890   42.1630 H   0  0  0  0  0  0  0  0  0  0  0  0
   40.4560   25.5630   41.2920 N   0  0  0  0  0  0  0  0  0  0  0  0
   38.7870   29.9940   42.6220 O   0  0  0  0  0  0  0  0  0  0  0  0
   39.4020   30.4090   41.4190 C   0  0  0  0  0  0  0  0  0  0  0  0
   40.5610   29.9910   41.2250 O   0  0  0  0  0  0  0  0  0  0  0  0
   38.6170   31.2550   40.5800 C   0  0  0  0  0  0  0  0  0  0  0  0
   38.6930   32.5860   40.8900 C   0  0  0  0  0  0  0  0  0  0  0  0
   37.9550   33.4810   40.1170 C   0  0  0  0  0  0  0  0  0  0  0  0
   37.2000   32.9870   39.0950 N   0  0  0  0  0  0  0  0  0  0  0  0
   37.1610   31.6810   38.8330 C   0  0  0  0  0  0  0  0  0  0  0  0
   37.8690   30.8340   39.5770 N   0  0  0  0  0  0  0  0  0  0  0  0
   39.2890   33.0000   41.7010 H   0  0  0  0  0  0  0  0  0  0  0  0
   37.9710   34.5480   40.3110 H   0  0  0  0  0  0  0  0  0  0  0  0
   36.5430   31.3260   38.0040 H   0  0  0  0  0  0  0  0  0  0  0  0
  1  2  2  0  0  0  0
  2  6  1  0  0  0  0
  3  2  1  0  0  0  0
  3  7  1  0  0  0  0
  4  3  2  0  0  0  0
  5  4  1  0  0  0  0
  5  1  1  0  0  0  0
  8 11  1  6  0  0  0
  8  9  1  0  0  0  0
  8  4  1  0  0  0  0
  9 13  1  0  0  0  0
 10 14  1  6  0  0  0
 10  8  1  0  0  0  0
 10  9  1  0  0  0  0
 10 15  1  0  0  0  0
 12  9  1  0  0  0  0
 15 16  2  0  0  0  0
 16 18  1  0  0  0  0
 16 17  1  0  0  0  0
 18 19  1  0  0  0  0
 20 18  1  0  0  0  0
 21 20  1  0  0  0  0
 22 15  1  0  0  0  0
 22 20  2  0  0  0  0
 23  1  1  0  0  0  0
 24 23  1  0  0  0  0
 25 24  2  0  0  0  0
 26 27  1  0  0  0  0
 26 24  1  0  0  0  0
 27 32  1  0  0  0  0
 28 33  1  0  0  0  0
 28 27  2  0  0  0  0
 29 28  1  0  0  0  0
 30 29  2  0  0  0  0
 30 31  1  0  0  0  0
 31 26  2  0  0  0  0
 34 30  1  0  0  0  0
M  END
>  <minimizedAffinity>
-5.27285004

$$$$

 OpenBabel03242518373D

 34 37  0  0  1  0  0  0  0  0999 V2000
   37.8090   27.9570   38.7610 C   0  0  0  0  0  0  0  0  0  0  0  0
   36.4840   27.5230   38.7600 C   0  0  0  0  0  0  0  0  0  0  0  0
   36.3670   26.4200   39.5980 C   0  0  0  0  0  0  0  0  0  0  0  0
   37.6420   26.2390   40.0710 C   0  0  0  0  0  0  0  0  0  0  0  0
   38.4490   27.1300   39.5770 O   0  0  0  0  0  0  0  0  0  0  0  0
   35.7300   28.0450   38.1540 H   0  0  0  0  0  0  0  0  0  0  0  0
   35.4410   25.8950   39.7720 H   0  0  0  0  0  0  0  0  0  0  0  0
   38.0380   25.1800   41.0110 C   0  0  2  0  0  0  0  0  0  0  0  0
   37.0880   24.7230   42.0460 C   0  0  0  0  0  0  0  0  0  0  0  0
   38.1510   25.6460   42.4750 C   0  0  2  0  0  0  0  0  0  0  0  0
   38.8860   24.5650   40.6380 H   0  0  0  0  0  0  0  0  0  0  0  0
   37.1470   23.6490   42.3160 H   0  0  0  0  0  0  0  0  0  0  0  0
   36.0410   25.0490   41.9150 H   0  0  0  0  0  0  0  0  0  0  0  0
   39.0510   25.1700   42.9570 H   0  0  0  0  0  0  0  0  0  0  0  0
   37.9100   27.0390   42.8260 C   0  0  0  0  0  0  0  0  0  0  0  0
   36.7790   27.7530   43.1450 C   0  0  0  0  0  0  0  0  0  0  0  0
   35.7910   27.3380   43.1990 H   0  0  0  0  0  0  0  0  0  0  0  0
   37.0170   29.0490   43.4000 N   0  0  0  0  0  0  0  0  0  0  0  0
   36.3240   29.7800   43.6590 H   0  0  0  0  0  0  0  0  0  0  0  0
   38.3440   29.1770   43.2410 C   0  0  0  0  0  0  0  0  0  0  0  0
   38.9000   30.0910   43.3650 H   0  0  0  0  0  0  0  0  0  0  0  0
   38.8850   27.9940   42.9020 N   0  0  0  0  0  0  0  0  0  0  0  0
   38.4390   29.0130   38.0950 O   0  0  0  0  0  0  0  0  0  0  0  0
   37.7600   30.2410   37.9280 C   0  0  0  0  0  0  0  0  0  0  0  0
   37.0150   30.3230   36.9310 O   0  0  0  0  0  0  0  0  0  0  0  0
   38.0160   31.2310   38.9230 C   0  0  0  0  0  0  0  0  0  0  0  0
   37.3130   32.3950   38.7570 C   0  0  0  0  0  0  0  0  0  0  0  0
   37.5060   33.4130   39.6890 C   0  0  0  0  0  0  0  0  0  0  0  0
   38.3790   33.2000   40.7140 N   0  0  0  0  0  0  0  0  0  0  0  0
   39.0380   32.0480   40.8320 C   0  0  0  0  0  0  0  0  0  0  0  0
   38.8490   31.0810   39.9370 N   0  0  0  0  0  0  0  0  0  0  0  0
   36.6130   32.5840   37.9470 H   0  0  0  0  0  0  0  0  0  0  0  0
   36.9800   34.3590   39.6140 H   0  0  0  0  0  0  0  0  0  0  0  0
   39.7300   31.9170   41.6690 H   0  0  0  0  0  0  0  0  0  0  0  0
  1  5  1  0  0  0  0
  2  1  2  0  0  0  0
  2  3  1  0  0  0  0
  3  7  1  0  0  0  0
  3  4  2  0  0  0  0
  4  8  1  0  0  0  0
  5  4  1  0  0  0  0
  6  2  1  0  0  0  0
  8 11  1  6  0  0  0
  8  9  1  0  0  0  0
  8 10  1  0  0  0  0
  9 12  1  0  0  0  0
  9 10  1  0  0  0  0
 10 15  1  0  0  0  0
 10 14  1  1  0  0  0
 13  9  1  0  0  0  0
 15 22  1  0  0  0  0
 15 16  2  0  0  0  0
 16 17  1  0  0  0  0
 16 18  1  0  0  0  0
 18 19  1  0  0  0  0
 20 21  1  0  0  0  0
 20 18  1  0  0  0  0
 22 20  2  0  0  0  0
 23  1  1  0  0  0  0
 24 23  1  0  0  0  0
 24 26  1  0  0  0  0
 25 24  2  0  0  0  0
 26 31  1  0  0  0  0
 27 26  2  0  0  0  0
 27 28  1  0  0  0  0
 28 29  2  0  0  0  0
 29 30  1  0  0  0  0
 30 34  1  0  0  0  0
 31 30  2  0  0  0  0
 32 27  1  0  0  0  0
 33 28  1  0  0  0  0
M  END
>  <minimizedAffinity>
-5.2385664

$$$$

 OpenBabel03242518373D

 34 37  0  0  1  0  0  0  0  0999 V2000
   37.6470   28.2090   42.5590 C   0  0  0  0  0  0  0  0  0  0  0  0
   38.9180   27.6630   42.7370 C   0  0  0  0  0  0  0  0  0  0  0  0
   38.8430   26.2820   42.5990 C   0  0  0  0  0  0  0  0  0  0  0  0
   37.5140   26.0570   42.3410 C   0  0  0  0  0  0  0  0  0  0  0  0
   36.8520   27.1740   42.3230 O   0  0  0  0  0  0  0  0  0  0  0  0
   39.7770   28.3150   42.9500 H   0  0  0  0  0  0  0  0  0  0  0  0
   39.6920   25.6230   42.6910 H   0  0  0  0  0  0  0  0  0  0  0  0
   36.9250   24.7300   42.1120 C   0  0  2  0  0  0  0  0  0  0  0  0
   37.7080   23.6870   41.4160 C   0  0  0  0  0  0  0  0  0  0  0  0
   36.6850   24.3930   40.6280 C   0  0  2  0  0  0  0  0  0  0  0  0
   36.0760   24.5090   42.7960 H   0  0  0  0  0  0  0  0  0  0  0  0
   37.5280   22.6450   41.7480 H   0  0  0  0  0  0  0  0  0  0  0  0
   38.7870   23.8930   41.3010 H   0  0  0  0  0  0  0  0  0  0  0  0
   35.6990   23.8620   40.5130 H   0  0  0  0  0  0  0  0  0  0  0  0
   37.0010   25.3660   39.5900 C   0  0  0  0  0  0  0  0  0  0  0  0
   36.2780   26.3600   38.9730 C   0  0  0  0  0  0  0  0  0  0  0  0
   35.2580   26.6020   39.1980 H   0  0  0  0  0  0  0  0  0  0  0  0
   36.9750   27.0310   38.0430 N   0  0  0  0  0  0  0  0  0  0  0  0
   36.6440   27.8180   37.4490 H   0  0  0  0  0  0  0  0  0  0  0  0
   38.1870   26.4520   38.0590 C   0  0  0  0  0  0  0  0  0  0  0  0
   39.0190   26.7330   37.4360 H   0  0  0  0  0  0  0  0  0  0  0  0
   38.2160   25.4650   38.9720 N   0  0  0  0  0  0  0  0  0  0  0  0
   37.1930   29.5300   42.5960 O   0  0  0  0  0  0  0  0  0  0  0  0
   36.7860   30.1660   41.4000 C   0  0  0  0  0  0  0  0  0  0  0  0
   35.7520   29.7170   40.8670 O   0  0  0  0  0  0  0  0  0  0  0  0
   37.6130   31.2400   40.9570 C   0  0  0  0  0  0  0  0  0  0  0  0
   36.9990   32.1090   40.0950 C   0  0  0  0  0  0  0  0  0  0  0  0
   37.7390   33.1880   39.6160 C   0  0  0  0  0  0  0  0  0  0  0  0
   39.0310   33.3240   40.0290 N   0  0  0  0  0  0  0  0  0  0  0  0
   39.5830   32.4510   40.8700 C   0  0  0  0  0  0  0  0  0  0  0  0
   38.8690   31.4230   41.3220 N   0  0  0  0  0  0  0  0  0  0  0  0
   35.9700   32.0180   39.7540 H   0  0  0  0  0  0  0  0  0  0  0  0
   37.3110   33.9120   38.9300 H   0  0  0  0  0  0  0  0  0  0  0  0
   40.6230   32.5960   41.1770 H   0  0  0  0  0  0  0  0  0  0  0  0
  1 23  1  0  0  0  0
  1  2  2  0  0  0  0
  2  6  1  0  0  0  0
  3  7  1  0  0  0  0
  3  2  1  0  0  0  0
  4  3  2  0  0  0  0
  5  4  1  0  0  0  0
  5  1  1  0  0  0  0
  8  4  1  0  0  0  0
  8 11  1  1  0  0  0
  9 12  1  0  0  0  0
  9  8  1  0  0  0  0
 10 14  1  6  0  0  0
 10  9  1  0  0  0  0
 10  8  1  0  0  0  0
 13  9  1  0  0  0  0
 15 10  1  0  0  0  0
 16 17  1  0  0  0  0
 16 15  2  0  0  0  0
 18 20  1  0  0  0  0
 18 16  1  0  0  0  0
 19 18  1  0  0  0  0
 20 22  2  0  0  0  0
 21 20  1  0  0  0  0
 22 15  1  0  0  0  0
 24 23  1  0  0  0  0
 25 24  2  0  0  0  0
 26 31  1  0  0  0  0
 26 24  1  0  0  0  0
 27 26  2  0  0  0  0
 28 29  2  0  0  0  0
 28 27  1  0  0  0  0
 29 30  1  0  0  0  0
 30 34  1  0  0  0  0
 30 31  2  0  0  0  0
 32 27  1  0  0  0  0
 33 28  1  0  0  0  0
M  END
>  <minimizedAffinity>
-5.1078763

$$$$

 OpenBabel03242518373D

 34 37  0  0  1  0  0  0  0  0999 V2000
   37.3900   28.5060   40.8440 C   0  0  0  0  0  0  0  0  0  0  0  0
   36.3200   28.2080   41.6880 C   0  0  0  0  0  0  0  0  0  0  0  0
   36.8120   27.6750   42.8740 C   0  0  0  0  0  0  0  0  0  0  0  0
   38.1710   27.6750   42.6860 C   0  0  0  0  0  0  0  0  0  0  0  0
   38.4760   28.1550   41.5180 O   0  0  0  0  0  0  0  0  0  0  0  0
   35.2880   28.4060   41.3660 H   0  0  0  0  0  0  0  0  0  0  0  0
   36.1880   27.3610   43.6950 H   0  0  0  0  0  0  0  0  0  0  0  0
   39.1480   27.2000   43.6770 C   0  0  2  0  0  0  0  0  0  0  0  0
   40.5350   26.9060   43.2600 C   0  0  0  0  0  0  0  0  0  0  0  0
   39.6330   25.7570   43.4430 C   0  0  2  0  0  0  0  0  0  0  0  0
   38.8570   27.4430   44.7230 H   0  0  0  0  0  0  0  0  0  0  0  0
   41.3210   27.1160   44.0130 H   0  0  0  0  0  0  0  0  0  0  0  0
   40.8250   27.2750   42.2600 H   0  0  0  0  0  0  0  0  0  0  0  0
   39.7150   25.2190   44.4290 H   0  0  0  0  0  0  0  0  0  0  0  0
   39.1020   24.9700   42.3380 C   0  0  0  0  0  0  0  0  0  0  0  0
   37.9690   24.2070   42.1790 C   0  0  0  0  0  0  0  0  0  0  0  0
   37.2150   24.0700   42.9290 H   0  0  0  0  0  0  0  0  0  0  0  0
   37.8740   23.6340   40.9680 N   0  0  0  0  0  0  0  0  0  0  0  0
   37.1140   23.0170   40.6180 H   0  0  0  0  0  0  0  0  0  0  0  0
   38.9810   24.0400   40.3250 C   0  0  0  0  0  0  0  0  0  0  0  0
   39.2470   23.7750   39.3160 H   0  0  0  0  0  0  0  0  0  0  0  0
   39.7160   24.8330   41.1250 N   0  0  0  0  0  0  0  0  0  0  0  0
   37.4300   29.0530   39.5580 O   0  0  0  0  0  0  0  0  0  0  0  0
   38.5190   29.8720   39.1780 C   0  0  0  0  0  0  0  0  0  0  0  0
   39.4240   29.3110   38.5290 O   0  0  0  0  0  0  0  0  0  0  0  0
   38.4410   31.2360   39.5880 C   0  0  0  0  0  0  0  0  0  0  0  0
   37.3880   31.9280   39.0540 C   0  0  0  0  0  0  0  0  0  0  0  0
   37.2410   33.2690   39.4050 C   0  0  0  0  0  0  0  0  0  0  0  0
   38.1480   33.8190   40.2610 N   0  0  0  0  0  0  0  0  0  0  0  0
   39.1560   33.1020   40.7550 C   0  0  0  0  0  0  0  0  0  0  0  0
   39.2890   31.8220   40.4130 N   0  0  0  0  0  0  0  0  0  0  0  0
   36.6540   31.5070   38.3700 H   0  0  0  0  0  0  0  0  0  0  0  0
   36.4280   33.8730   39.0160 H   0  0  0  0  0  0  0  0  0  0  0  0
   39.8620   33.5820   41.4390 H   0  0  0  0  0  0  0  0  0  0  0  0
  1  5  1  0  0  0  0
  1  2  2  0  0  0  0
  2  3  1  0  0  0  0
  3  7  1  0  0  0  0
  4  3  2  0  0  0  0
  4  8  1  0  0  0  0
  5  4  1  0  0  0  0
  6  2  1  0  0  0  0
  8 11  1  1  0  0  0
  9 10  1  0  0  0  0
  9  8  1  0  0  0  0
  9 12  1  0  0  0  0
 10  8  1  0  0  0  0
 10 14  1  1  0  0  0
 13  9  1  0  0  0  0
 15 10  1  0  0  0  0
 16 15  2  0  0  0  0
 16 17  1  0  0  0  0
 18 16  1  0  0  0  0
 19 18  1  0  0  0  0
 20 18  1  0  0  0  0
 20 22  2  0  0  0  0
 21 20  1  0  0  0  0
 22 15  1  0  0  0  0
 23  1  1  0  0  0  0
 24 23  1  0  0  0  0
 24 26  1  0  0  0  0
 25 24  2  0  0  0  0
 26 31  1  0  0  0  0
 27 28  1  0  0  0  0
 27 26  2  0  0  0  0
 28 29  2  0  0  0  0
 29 30  1  0  0  0  0
 30 34  1  0  0  0  0
 31 30  2  0  0  0  0
 32 27  1  0  0  0  0
 33 28  1  0  0  0  0
M  END
>  <minimizedAffinity>
-5.08412409

$$$$

 OpenBabel03242518373D

 34 37  0  0  1  0  0  0  0  0999 V2000
   39.1360   30.2540   41.9960 C   0  0  0  0  0  0  0  0  0  0  0  0
   39.6620   31.5460   41.9920 C   0  0  0  0  0  0  0  0  0  0  0  0
   38.9920   32.3060   41.0400 C   0  0  0  0  0  0  0  0  0  0  0  0
   38.0830   31.4270   40.5090 C   0  0  0  0  0  0  0  0  0  0  0  0
   38.1850   30.2600   41.0720 O   0  0  0  0  0  0  0  0  0  0  0  0
   40.4780   31.8140   42.6770 H   0  0  0  0  0  0  0  0  0  0  0  0
   39.2110   33.3430   40.8390 H   0  0  0  0  0  0  0  0  0  0  0  0
   37.1230   31.7630   39.4480 C   0  0  2  0  0  0  0  0  0  0  0  0
   36.6260   30.7060   38.5430 C   0  0  0  0  0  0  0  0  0  0  0  0
   37.6750   31.5960   38.0200 C   0  0  2  0  0  0  0  0  0  0  0  0
   36.5790   32.7140   39.6420 H   0  0  0  0  0  0  0  0  0  0  0  0
   35.5800   30.8200   38.1930 H   0  0  0  0  0  0  0  0  0  0  0  0
   36.8360   29.6680   38.8560 H   0  0  0  0  0  0  0  0  0  0  0  0
   37.3210   32.4470   37.3730 H   0  0  0  0  0  0  0  0  0  0  0  0
   39.0530   31.1740   37.8060 C   0  0  0  0  0  0  0  0  0  0  0  0
   39.6770   29.9490   37.8020 C   0  0  0  0  0  0  0  0  0  0  0  0
   39.1820   29.0110   37.9630 H   0  0  0  0  0  0  0  0  0  0  0  0
   40.9960   30.0200   37.5640 N   0  0  0  0  0  0  0  0  0  0  0  0
   41.6730   29.2320   37.5130 H   0  0  0  0  0  0  0  0  0  0  0  0
   41.2320   31.3320   37.4100 C   0  0  0  0  0  0  0  0  0  0  0  0
   42.1930   31.7720   37.2030 H   0  0  0  0  0  0  0  0  0  0  0  0
   40.0900   32.0270   37.5500 N   0  0  0  0  0  0  0  0  0  0  0  0
   39.4560   29.1260   42.7570 O   0  0  0  0  0  0  0  0  0  0  0  0
   38.4280   28.2540   43.1850 C   0  0  0  0  0  0  0  0  0  0  0  0
   37.4210   28.7970   43.6800 O   0  0  0  0  0  0  0  0  0  0  0  0
   38.6780   26.8620   42.9960 C   0  0  0  0  0  0  0  0  0  0  0  0
   39.8370   26.4120   43.5680 C   0  0  0  0  0  0  0  0  0  0  0  0
   40.1540   25.0620   43.4300 C   0  0  0  0  0  0  0  0  0  0  0  0
   39.2960   24.2610   42.7360 N   0  0  0  0  0  0  0  0  0  0  0  0
   38.1790   24.7480   42.1980 C   0  0  0  0  0  0  0  0  0  0  0  0
   37.8850   26.0390   42.3340 N   0  0  0  0  0  0  0  0  0  0  0  0
   40.5340   27.0340   44.1260 H   0  0  0  0  0  0  0  0  0  0  0  0
   41.0580   24.6430   43.8600 H   0  0  0  0  0  0  0  0  0  0  0  0
   37.5180   24.0720   41.6480 H   0  0  0  0  0  0  0  0  0  0  0  0
  1 23  1  0  0  0  0
  2  1  2  0  0  0  0
  2  6  1  0  0  0  0
  3  2  1  0  0  0  0
  4  3  2  0  0  0  0
  4  5  1  0  0  0  0
  5  1  1  0  0  0  0
  7  3  1  0  0  0  0
  8 11  1  1  0  0  0
  8  4  1  0  0  0  0
  9 13  1  0  0  0  0
  9  8  1  0  0  0  0
 10 14  1  6  0  0  0
 10  9  1  0  0  0  0
 10  8  1  0  0  0  0
 12  9  1  0  0  0  0
 15 10  1  0  0  0  0
 16 15  2  0  0  0  0
 16 17  1  0  0  0  0
 18 16  1  0  0  0  0
 19 18  1  0  0  0  0
 20 22  2  0  0  0  0
 20 18  1  0  0  0  0
 21 20  1  0  0  0  0
 22 15  1  0  0  0  0
 23 24  1  0  0  0  0
 24 25  2  0  0  0  0
 26 24  1  0  0  0  0
 26 27  1  0  0  0  0
 27 32  1  0  0  0  0
 28 27  2  0  0  0  0
 28 33  1  0  0  0  0
 29 28  1  0  0  0  0
 30 31  1  0  0  0  0
 30 29  2  0  0  0  0
 31 26  2  0  0  0  0
 34 30  1  0  0  0  0
M  END
>  <minimizedAffinity>
-5.04644728

$$$$

 OpenBabel03242518373D

 34 37  0  0  1  0  0  0  0  0999 V2000
   37.1030   29.3550   41.6800 C   0  0  0  0  0  0  0  0  0  0  0  0
   36.7470   30.6930   41.5180 C   0  0  0  0  0  0  0  0  0  0  0  0
   35.9910   30.8250   40.3590 C   0  0  0  0  0  0  0  0  0  0  0  0
   35.9260   29.5440   39.8710 C   0  0  0  0  0  0  0  0  0  0  0  0
   36.5700   28.7220   40.6440 O   0  0  0  0  0  0  0  0  0  0  0  0
   37.0670   31.4460   42.2530 H   0  0  0  0  0  0  0  0  0  0  0  0
   35.5910   31.7620   40.0070 H   0  0  0  0  0  0  0  0  0  0  0  0
   35.2190   29.1570   38.6410 C   0  0  2  0  0  0  0  0  0  0  0  0
   35.7290   28.0380   37.8210 C   0  0  0  0  0  0  0  0  0  0  0  0
   36.0220   29.4010   37.3490 C   0  0  2  0  0  0  0  0  0  0  0  0
   34.1630   29.5050   38.6210 H   0  0  0  0  0  0  0  0  0  0  0  0
   34.9610   27.4280   37.3050 H   0  0  0  0  0  0  0  0  0  0  0  0
   36.4950   27.4020   38.2990 H   0  0  0  0  0  0  0  0  0  0  0  0
   35.3400   29.8010   36.5480 H   0  0  0  0  0  0  0  0  0  0  0  0
   37.3480   30.0020   37.4060 C   0  0  0  0  0  0  0  0  0  0  0  0
   38.6160   29.4860   37.5310 C   0  0  0  0  0  0  0  0  0  0  0  0
   38.8450   28.4410   37.6020 H   0  0  0  0  0  0  0  0  0  0  0  0
   39.5770   30.4240   37.5480 N   0  0  0  0  0  0  0  0  0  0  0  0
   40.6030   30.2770   37.6350 H   0  0  0  0  0  0  0  0  0  0  0  0
   38.9080   31.5820   37.4320 C   0  0  0  0  0  0  0  0  0  0  0  0
   39.3570   32.5610   37.4090 H   0  0  0  0  0  0  0  0  0  0  0  0
   37.5870   31.3470   37.3460 N   0  0  0  0  0  0  0  0  0  0  0  0
   37.8490   28.7080   42.6700 O   0  0  0  0  0  0  0  0  0  0  0  0
   37.4520   27.4300   43.1250 C   0  0  0  0  0  0  0  0  0  0  0  0
   36.2880   27.3430   43.5650 O   0  0  0  0  0  0  0  0  0  0  0  0
   38.4360   26.4020   43.0240 C   0  0  0  0  0  0  0  0  0  0  0  0
   39.6070   26.6740   43.6790 C   0  0  0  0  0  0  0  0  0  0  0  0
   40.6210   25.7180   43.6300 C   0  0  0  0  0  0  0  0  0  0  0  0
   40.3950   24.5670   42.9370 N   0  0  0  0  0  0  0  0  0  0  0  0
   39.2360   24.3500   42.3160 C   0  0  0  0  0  0  0  0  0  0  0  0
   38.2740   25.2680   42.3680 N   0  0  0  0  0  0  0  0  0  0  0  0
   39.8060   27.5860   44.2380 H   0  0  0  0  0  0  0  0  0  0  0  0
   41.5720   25.8730   44.1280 H   0  0  0  0  0  0  0  0  0  0  0  0
   39.0960   23.4120   41.7700 H   0  0  0  0  0  0  0  0  0  0  0  0
  1 23  1  0  0  0  0
  2  1  2  0  0  0  0
  2  6  1  0  0  0  0
  3  2  1  0  0  0  0
  4  3  2  0  0  0  0
  4  5  1  0  0  0  0
  5  1  1  0  0  0  0
  7  3  1  0  0  0  0
  8 11  1  6  0  0  0
  8  4  1  0  0  0  0
  9 13  1  0  0  0  0
  9  8  1  0  0  0  0
 10 14  1  6  0  0  0
 10 15  1  0  0  0  0
 10  9  1  0  0  0  0
 10  8  1  0  0  0  0
 12  9  1  0  0  0  0
 15 16  2  0  0  0  0
 16 18  1  0  0  0  0
 16 17  1  0  0  0  0
 18 19  1  0  0  0  0
 20 18  1  0  0  0  0
 21 20  1  0  0  0  0
 22 15  1  0  0  0  0
 22 20  2  0  0  0  0
 23 24  1  0  0  0  0
 24 25  2  0  0  0  0
 26 24  1  0  0  0  0
 26 27  1  0  0  0  0
 27 32  1  0  0  0  0
 28 27  2  0  0  0  0
 28 33  1  0  0  0  0
 29 28  1  0  0  0  0
 30 31  1  0  0  0  0
 30 29  2  0  0  0  0
 31 26  2  0  0  0  0
 34 30  1  0  0  0  0
M  END
>  <minimizedAffinity>
-5.03205061

$$$$

 OpenBabel03242518373D

 34 37  0  0  1  0  0  0  0  0999 V2000
   36.6720   28.8370   41.8960 C   0  0  0  0  0  0  0  0  0  0  0  0
   35.7280   28.8360   40.8700 C   0  0  0  0  0  0  0  0  0  0  0  0
   35.8070   30.0390   40.1780 C   0  0  0  0  0  0  0  0  0  0  0  0
   36.8080   30.7170   40.8280 C   0  0  0  0  0  0  0  0  0  0  0  0
   37.2860   30.0090   41.8060 O   0  0  0  0  0  0  0  0  0  0  0  0
   35.0730   27.9660   40.7200 H   0  0  0  0  0  0  0  0  0  0  0  0
   35.1810   30.2890   39.3360 H   0  0  0  0  0  0  0  0  0  0  0  0
   37.2750   32.0620   40.4600 C   0  0  2  0  0  0  0  0  0  0  0  0
   37.1450   32.5300   39.0650 C   0  0  0  0  0  0  0  0  0  0  0  0
   38.4750   32.0710   39.4950 C   0  0  2  0  0  0  0  0  0  0  0  0
   37.3580   32.7450   41.3340 H   0  0  0  0  0  0  0  0  0  0  0  0
   36.9500   33.6130   38.9340 H   0  0  0  0  0  0  0  0  0  0  0  0
   36.4940   31.9210   38.4120 H   0  0  0  0  0  0  0  0  0  0  0  0
   39.2000   32.8780   39.7970 H   0  0  0  0  0  0  0  0  0  0  0  0
   39.0750   30.8190   39.0520 C   0  0  0  0  0  0  0  0  0  0  0  0
   40.0530   30.0030   39.5690 C   0  0  0  0  0  0  0  0  0  0  0  0
   40.5740   30.1830   40.4890 H   0  0  0  0  0  0  0  0  0  0  0  0
   40.3080   28.9250   38.8110 N   0  0  0  0  0  0  0  0  0  0  0  0
   41.0010   28.1720   38.9950 H   0  0  0  0  0  0  0  0  0  0  0  0
   39.4680   29.0490   37.7710 C   0  0  0  0  0  0  0  0  0  0  0  0
   39.3900   28.3570   36.9490 H   0  0  0  0  0  0  0  0  0  0  0  0
   38.7320   30.1660   37.9010 N   0  0  0  0  0  0  0  0  0  0  0  0
   36.9920   27.8780   42.8620 O   0  0  0  0  0  0  0  0  0  0  0  0
   38.2460   27.2280   42.8170 C   0  0  0  0  0  0  0  0  0  0  0  0
   39.1760   27.7890   43.4300 O   0  0  0  0  0  0  0  0  0  0  0  0
   38.2880   26.0110   42.0730 C   0  0  0  0  0  0  0  0  0  0  0  0
   37.1490   25.2560   42.1610 C   0  0  0  0  0  0  0  0  0  0  0  0
   37.1080   24.0510   41.4610 C   0  0  0  0  0  0  0  0  0  0  0  0
   38.1980   23.6880   40.7280 N   0  0  0  0  0  0  0  0  0  0  0  0
   39.2830   24.4600   40.6740 C   0  0  0  0  0  0  0  0  0  0  0  0
   39.3140   25.6080   41.3460 N   0  0  0  0  0  0  0  0  0  0  0  0
   36.2690   25.5280   42.7400 H   0  0  0  0  0  0  0  0  0  0  0  0
   36.2360   23.4060   41.4900 H   0  0  0  0  0  0  0  0  0  0  0  0
   40.1370   24.1320   40.0740 H   0  0  0  0  0  0  0  0  0  0  0  0
  1 23  1  0  0  0  0
  2  1  2  0  0  0  0
  3  4  2  0  0  0  0
  3  2  1  0  0  0  0
  4  5  1  0  0  0  0
  5  1  1  0  0  0  0
  6  2  1  0  0  0  0
  7  3  1  0  0  0  0
  8  4  1  0  0  0  0
  8 11  1  1  0  0  0
  9 10  1  0  0  0  0
  9  8  1  0  0  0  0
 10 14  1  1  0  0  0
 10  8  1  0  0  0  0
 12  9  1  0  0  0  0
 13  9  1  0  0  0  0
 15 10  1  0  0  0  0
 15 16  2  0  0  0  0
 16 17  1  0  0  0  0
 18 19  1  0  0  0  0
 18 16  1  0  0  0  0
 20 22  2  0  0  0  0
 20 18  1  0  0  0  0
 21 20  1  0  0  0  0
 22 15  1  0  0  0  0
 24 23  1  0  0  0  0
 24 25  2  0  0  0  0
 26 27  1  0  0  0  0
 26 24  1  0  0  0  0
 27 32  1  0  0  0  0
 28 33  1  0  0  0  0
 28 27  2  0  0  0  0
 29 28  1  0  0  0  0
 30 29  2  0  0  0  0
 30 31  1  0  0  0  0
 31 26  2  0  0  0  0
 34 30  1  0  0  0  0
M  END
>  <minimizedAffinity>
-4.98932266

$$$$

 OpenBabel03242518373D

 34 37  0  0  1  0  0  0  0  0999 V2000
   36.4250   28.3010   39.4790 C   0  0  0  0  0  0  0  0  0  0  0  0
   37.2130   27.2340   39.0470 C   0  0  0  0  0  0  0  0  0  0  0  0
   37.5550   26.4500   40.1420 C   0  0  0  0  0  0  0  0  0  0  0  0
   36.9510   27.0880   41.1960 C   0  0  0  0  0  0  0  0  0  0  0  0
   36.3110   28.1440   40.7910 O   0  0  0  0  0  0  0  0  0  0  0  0
   37.4630   27.1260   37.9820 H   0  0  0  0  0  0  0  0  0  0  0  0
   38.1620   25.5610   40.0770 H   0  0  0  0  0  0  0  0  0  0  0  0
   37.0170   26.6340   42.5920 C   0  0  2  0  0  0  0  0  0  0  0  0
   36.5730   27.5310   43.6790 C   0  0  0  0  0  0  0  0  0  0  0  0
   38.0240   27.4110   43.4610 C   0  0  2  0  0  0  0  0  0  0  0  0
   37.0600   25.5270   42.6860 H   0  0  0  0  0  0  0  0  0  0  0  0
   36.1030   27.0370   44.5530 H   0  0  0  0  0  0  0  0  0  0  0  0
   36.0010   28.4220   43.3640 H   0  0  0  0  0  0  0  0  0  0  0  0
   38.5670   26.6990   44.1440 H   0  0  0  0  0  0  0  0  0  0  0  0
   38.8380   28.4700   42.8790 C   0  0  0  0  0  0  0  0  0  0  0  0
   38.6700   29.8280   42.7450 C   0  0  0  0  0  0  0  0  0  0  0  0
   37.8180   30.3750   43.1000 H   0  0  0  0  0  0  0  0  0  0  0  0
   39.6910   30.4360   42.1220 N   0  0  0  0  0  0  0  0  0  0  0  0
   39.7880   31.4490   41.9060 H   0  0  0  0  0  0  0  0  0  0  0  0
   40.5470   29.4390   41.8440 C   0  0  0  0  0  0  0  0  0  0  0  0
   41.4920   29.5520   41.3410 H   0  0  0  0  0  0  0  0  0  0  0  0
   40.0550   28.2700   42.2880 N   0  0  0  0  0  0  0  0  0  0  0  0
   35.8320   29.3570   38.7810 O   0  0  0  0  0  0  0  0  0  0  0  0
   36.6340   30.2170   37.9960 C   0  0  0  0  0  0  0  0  0  0  0  0
   36.5670   30.0520   36.7620 O   0  0  0  0  0  0  0  0  0  0  0  0
   37.4190   31.1640   38.7190 C   0  0  0  0  0  0  0  0  0  0  0  0
   38.7370   31.2060   38.3490 C   0  0  0  0  0  0  0  0  0  0  0  0
   39.5720   32.1060   39.0080 C   0  0  0  0  0  0  0  0  0  0  0  0
   39.0370   32.8960   39.9810 N   0  0  0  0  0  0  0  0  0  0  0  0
   37.7470   32.8180   40.3030 C   0  0  0  0  0  0  0  0  0  0  0  0
   36.9560   31.9550   39.6690 N   0  0  0  0  0  0  0  0  0  0  0  0
   39.1830   30.5840   37.5760 H   0  0  0  0  0  0  0  0  0  0  0  0
   40.6260   32.1880   38.7620 H   0  0  0  0  0  0  0  0  0  0  0  0
   37.3570   33.4710   41.0900 H   0  0  0  0  0  0  0  0  0  0  0  0
  1  5  1  0  0  0  0
  2  1  2  0  0  0  0
  2  3  1  0  0  0  0
  3  4  2  0  0  0  0
  4  8  1  0  0  0  0
  5  4  1  0  0  0  0
  6  2  1  0  0  0  0
  7  3  1  0  0  0  0
  8 11  1  1  0  0  0
  8 10  1  0  0  0  0
  8  9  1  0  0  0  0
  9 12  1  0  0  0  0
 10  9  1  0  0  0  0
 10 14  1  1  0  0  0
 13  9  1  0  0  0  0
 15 10  1  0  0  0  0
 16 15  2  0  0  0  0
 16 17  1  0  0  0  0
 18 16  1  0  0  0  0
 19 18  1  0  0  0  0
 20 18  1  0  0  0  0
 20 22  2  0  0  0  0
 21 20  1  0  0  0  0
 22 15  1  0  0  0  0
 23  1  1  0  0  0  0
 24 26  1  0  0  0  0
 24 23  1  0  0  0  0
 25 24  2  0  0  0  0
 26 31  1  0  0  0  0
 27 26  2  0  0  0  0
 27 28  1  0  0  0  0
 28 29  2  0  0  0  0
 29 30  1  0  0  0  0
 30 34  1  0  0  0  0
 31 30  2  0  0  0  0
 32 27  1  0  0  0  0
 33 28  1  0  0  0  0
M  END
>  <minimizedAffinity>
-4.92446136

$$$$
