
 OpenBabel03242516163D

 42 45  0  0  1  0  0  0  0  0999 V2000
   48.1420   34.5890   41.6970 C   0  0  0  0  0  0  0  0  0  0  0  0
   49.0040   35.8210   41.4480 C   0  0  0  0  0  0  0  0  0  0  0  0
   49.4960   34.6440   42.1670 C   0  0  0  0  0  0  0  0  0  0  0  0
   49.3550   36.0460   40.4140 H   0  0  0  0  0  0  0  0  0  0  0  0
   48.6620   36.7450   41.9540 H   0  0  0  0  0  0  0  0  0  0  0  0
   50.2590   34.0390   41.5890 H   0  0  0  0  0  0  0  0  0  0  0  0
   49.9300   34.9800   43.1130 H   0  0  0  0  0  0  0  0  0  0  0  0
   47.8450   33.8310   40.4370 C   0  0  0  0  0  0  0  0  0  0  0  0
   48.2660   34.5230   39.1530 C   0  0  0  0  0  0  0  0  0  0  0  0
   47.9770   33.5250   38.0360 C   0  0  0  0  0  0  0  0  0  0  0  0
   46.5880   33.5380   37.8450 O   0  0  0  0  0  0  0  0  0  0  0  0
   46.1150   32.8250   38.9780 C   0  0  0  0  0  0  0  0  0  0  0  0
   46.3230   33.6690   40.2290 C   0  0  0  0  0  0  0  0  0  0  0  0
   48.2840   32.8260   40.4260 H   0  0  0  0  0  0  0  0  0  0  0  0
   47.6650   35.4230   38.9760 H   0  0  0  0  0  0  0  0  0  0  0  0
   49.3630   34.6830   39.1370 H   0  0  0  0  0  0  0  0  0  0  0  0
   48.5170   33.8440   37.1130 H   0  0  0  0  0  0  0  0  0  0  0  0
   48.2560   32.4990   38.3620 H   0  0  0  0  0  0  0  0  0  0  0  0
   45.0520   32.6480   38.8170 H   0  0  0  0  0  0  0  0  0  0  0  0
   46.6920   31.8890   39.1000 H   0  0  0  0  0  0  0  0  0  0  0  0
   45.9580   33.0360   41.0750 H   0  0  0  0  0  0  0  0  0  0  0  0
   45.8320   34.6460   40.1480 H   0  0  0  0  0  0  0  0  0  0  0  0
   46.2640   35.9510   42.6480 C   0  0  0  0  0  0  0  0  0  0  0  0
   47.0140   34.7650   42.6420 C   0  0  0  0  0  0  0  0  0  0  0  0
   46.6520   33.7910   43.5670 C   0  0  0  0  0  0  0  0  0  0  0  0
   45.6100   34.0230   44.4190 N   0  0  0  0  0  0  0  0  0  0  0  0
   44.9420   35.1770   44.3670 C   0  0  0  0  0  0  0  0  0  0  0  0
   45.2490   36.1310   43.5080 N   0  0  0  0  0  0  0  0  0  0  0  0
   43.8510   35.4610   45.2490 N   0  0  0  0  0  0  0  0  0  0  0  0
   46.5410   36.7000   41.9370 H   0  0  0  0  0  0  0  0  0  0  0  0
   44.0420   36.2980   45.8690 H   0  0  0  0  0  0  0  0  0  0  0  0
   42.9500   34.9310   45.3090 H   0  0  0  0  0  0  0  0  0  0  0  0
   47.3670   32.5550   43.7140 C   0  0  2  0  0  0  0  0  0  0  0  0
   47.8200   32.0410   44.8200 O   0  0  0  0  0  0  0  0  0  0  0  0
   47.8840   31.4420   42.9230 C   0  0  0  0  0  0  0  0  0  0  0  0
   47.3170   30.4920   42.1330 C   0  0  0  0  0  0  0  0  0  0  0  0
   46.2380   30.4840   41.9010 H   0  0  0  0  0  0  0  0  0  0  0  0
   48.2810   29.6120   41.7130 N   0  0  0  0  0  0  0  0  0  0  0  0
   47.9620   28.8360   41.0970 H   0  0  0  0  0  0  0  0  0  0  0  0
   49.4450   30.0070   42.2340 C   0  0  0  0  0  0  0  0  0  0  0  0
   50.3060   29.4280   42.0060 H   0  0  0  0  0  0  0  0  0  0  0  0
   49.1820   31.0970   42.9500 N   0  0  0  0  0  0  0  0  0  0  0  0
  1  3  1  0  0  0  0
  1 24  1  0  0  0  0
  2  1  1  0  0  0  0
  2  5  1  0  0  0  0
  2  3  1  0  0  0  0
  3  7  1  0  0  0  0
  4  2  1  0  0  0  0
  6  3  1  0  0  0  0
  8  1  1  0  0  0  0
  9  8  1  0  0  0  0
 10 18  1  0  0  0  0
 10  9  1  0  0  0  0
 11 10  1  0  0  0  0
 11 12  1  0  0  0  0
 12 20  1  0  0  0  0
 12 13  1  0  0  0  0
 13  8  1  0  0  0  0
 13 21  1  0  0  0  0
 14  8  1  0  0  0  0
 15  9  1  0  0  0  0
 16  9  1  0  0  0  0
 17 10  1  0  0  0  0
 19 12  1  0  0  0  0
 22 13  1  0  0  0  0
 23 28  1  0  0  0  0
 24 23  2  0  0  0  0
 24 25  1  0  0  0  0
 25 33  1  0  0  0  0
 25 26  2  0  0  0  0
 27 26  1  0  0  0  0
 27 29  1  0  0  0  0
 28 27  2  0  0  0  0
 29 32  1  0  0  0  0
 29 31  1  0  0  0  0
 30 23  1  0  0  0  0
 33 34  1  6  0  0  0
 35 42  1  0  0  0  0
 35 33  1  0  0  0  0
 36 35  2  0  0  0  0
 37 36  1  0  0  0  0
 38 36  1  0  0  0  0
 38 40  1  0  0  0  0
 39 38  1  0  0  0  0
 40 42  2  0  0  0  0
 41 40  1  0  0  0  0
M  END
>  <minimizedAffinity>
-5.12488222

>  <minimizedRMSD>
1.46121466

$$$$
