
 OpenBabel03252508493D

 27 29  0  0  0  0  0  0  0  0999 V2000
   45.9800   34.2050   41.0440 C   0  0  0  0  0  0  0  0  0  0  0  0
   46.5620   34.8120   42.1500 C   0  0  0  0  0  0  0  0  0  0  0  0
   47.9040   35.1670   42.0300 C   0  0  0  0  0  0  0  0  0  0  0  0
   48.5520   34.9050   40.8620 N   0  0  0  0  0  0  0  0  0  0  0  0
   47.9530   34.3200   39.8220 C   0  0  0  0  0  0  0  0  0  0  0  0
   46.6560   33.9650   39.9110 N   0  0  0  0  0  0  0  0  0  0  0  0
   48.3750   35.6400   42.8800 H   0  0  0  0  0  0  0  0  0  0  0  0
   48.4560   34.1040   38.8880 H   0  0  0  0  0  0  0  0  0  0  0  0
   45.7760   35.0440   43.3480 C   0  0  0  0  0  0  0  0  0  0  0  0
   45.0920   36.2320   43.5720 C   0  0  0  0  0  0  0  0  0  0  0  0
   44.4930   36.0310   44.8010 C   0  0  0  0  0  0  0  0  0  0  0  0
   44.7940   34.7970   45.2910 N   0  0  0  0  0  0  0  0  0  0  0  0
   45.5670   34.2310   44.3900 N   0  0  0  0  0  0  0  0  0  0  0  0
   45.0110   37.1260   42.9740 H   0  0  0  0  0  0  0  0  0  0  0  0
   43.8650   36.7780   45.2960 H   0  0  0  0  0  0  0  0  0  0  0  0
   44.4650   34.3950   46.2090 H   0  0  0  0  0  0  0  0  0  0  0  0
   44.6480   33.8350   41.1210 O   0  0  0  0  0  0  0  0  0  0  0  0
   43.5710   34.4920   40.5970 C   0  0  0  0  0  0  0  0  0  0  0  0
   43.2970   35.7400   40.7090 O   0  0  0  0  0  0  0  0  0  0  0  0
   42.5120   33.8160   39.7850 C   0  0  0  0  0  0  0  0  0  0  0  0
   41.2320   33.5440   40.2100 C   0  0  0  0  0  0  0  0  0  0  0  0
   40.7390   33.7430   41.1510 H   0  0  0  0  0  0  0  0  0  0  0  0
   40.5240   32.9190   39.2320 N   0  0  0  0  0  0  0  0  0  0  0  0
   39.5400   32.5860   39.2410 H   0  0  0  0  0  0  0  0  0  0  0  0
   41.3960   32.8200   38.2170 C   0  0  0  0  0  0  0  0  0  0  0  0
   41.1640   32.3650   37.2560 H   0  0  0  0  0  0  0  0  0  0  0  0
   42.5860   33.3500   38.5310 N   0  0  0  0  0  0  0  0  0  0  0  0
  1 17  1  0  0  0  0
  1  2  1  0  0  0  0
  2  9  1  0  0  0  0
  3  2  2  0  0  0  0
  3  7  1  0  0  0  0
  4  3  1  0  0  0  0
  5  6  1  0  0  0  0
  5  4  2  0  0  0  0
  6  1  2  0  0  0  0
  8  5  1  0  0  0  0
  9 10  1  0  0  0  0
  9 13  2  0  0  0  0
 10 11  2  0  0  0  0
 11 12  1  0  0  0  0
 11 15  1  0  0  0  0
 12 16  1  0  0  0  0
 13 12  1  0  0  0  0
 14 10  1  0  0  0  0
 18 19  2  0  0  0  0
 18 17  1  0  0  0  0
 20 21  2  0  0  0  0
 20 18  1  0  0  0  0
 21 22  1  0  0  0  0
 23 24  1  0  0  0  0
 23 21  1  0  0  0  0
 25 27  2  0  0  0  0
 25 23  1  0  0  0  0
 26 25  1  0  0  0  0
 27 20  1  0  0  0  0
M  END
>  <minimizedAffinity>
-5.01704645

>  <minimizedRMSD>
0.452921808

$$$$
