
 OpenBabel03252508493D

 27 29  0  0  0  0  0  0  0  0999 V2000
   45.9360   34.1860   41.0270 C   0  0  0  0  0  0  0  0  0  0  0  0
   46.5300   34.7990   42.1240 C   0  0  0  0  0  0  0  0  0  0  0  0
   47.8700   35.1540   41.9890 C   0  0  0  0  0  0  0  0  0  0  0  0
   48.5070   34.8840   40.8160 N   0  0  0  0  0  0  0  0  0  0  0  0
   47.8970   34.2930   39.7850 C   0  0  0  0  0  0  0  0  0  0  0  0
   46.6010   33.9390   39.8890 N   0  0  0  0  0  0  0  0  0  0  0  0
   48.3500   35.6310   42.8310 H   0  0  0  0  0  0  0  0  0  0  0  0
   48.3900   34.0720   38.8470 H   0  0  0  0  0  0  0  0  0  0  0  0
   45.7560   35.0380   43.3280 C   0  0  0  0  0  0  0  0  0  0  0  0
   45.0720   36.2280   43.5510 C   0  0  0  0  0  0  0  0  0  0  0  0
   44.4870   36.0340   44.7880 C   0  0  0  0  0  0  0  0  0  0  0  0
   44.7950   34.8050   45.2830 N   0  0  0  0  0  0  0  0  0  0  0  0
   45.5600   34.2330   44.3790 N   0  0  0  0  0  0  0  0  0  0  0  0
   44.9830   37.1160   42.9470 H   0  0  0  0  0  0  0  0  0  0  0  0
   43.8620   36.7830   45.2840 H   0  0  0  0  0  0  0  0  0  0  0  0
   44.4760   34.4080   46.2070 H   0  0  0  0  0  0  0  0  0  0  0  0
   44.6050   33.8170   41.1200 O   0  0  0  0  0  0  0  0  0  0  0  0
   43.5300   34.4360   40.5490 C   0  0  0  0  0  0  0  0  0  0  0  0
   43.1370   35.6410   40.7460 O   0  0  0  0  0  0  0  0  0  0  0  0
   42.6160   33.7630   39.5750 C   0  0  0  0  0  0  0  0  0  0  0  0
   42.8690   32.5700   38.9360 C   0  0  0  0  0  0  0  0  0  0  0  0
   43.7150   31.9000   38.9910 H   0  0  0  0  0  0  0  0  0  0  0  0
   41.8390   32.2390   38.1140 N   0  0  0  0  0  0  0  0  0  0  0  0
   41.7260   31.4080   37.5000 H   0  0  0  0  0  0  0  0  0  0  0  0
   40.9660   33.2480   38.2660 C   0  0  0  0  0  0  0  0  0  0  0  0
   40.0120   33.3120   37.7490 H   0  0  0  0  0  0  0  0  0  0  0  0
   41.4160   34.1640   39.1350 N   0  0  0  0  0  0  0  0  0  0  0  0
  1 17  1  0  0  0  0
  1  2  1  0  0  0  0
  2  9  1  0  0  0  0
  3  2  2  0  0  0  0
  3  7  1  0  0  0  0
  4  3  1  0  0  0  0
  5  6  1  0  0  0  0
  5  4  2  0  0  0  0
  6  1  2  0  0  0  0
  8  5  1  0  0  0  0
  9 10  1  0  0  0  0
  9 13  2  0  0  0  0
 10 11  2  0  0  0  0
 11 12  1  0  0  0  0
 11 15  1  0  0  0  0
 12 16  1  0  0  0  0
 13 12  1  0  0  0  0
 14 10  1  0  0  0  0
 18 19  2  0  0  0  0
 18 17  1  0  0  0  0
 20 18  1  0  0  0  0
 21 22  1  0  0  0  0
 21 20  2  0  0  0  0
 23 25  1  0  0  0  0
 23 21  1  0  0  0  0
 24 23  1  0  0  0  0
 25 27  2  0  0  0  0
 26 25  1  0  0  0  0
 27 20  1  0  0  0  0
M  END
>  <minimizedAffinity>
-4.99056482

>  <minimizedRMSD>
0.392058253

$$$$
