
 OpenBabel03252508493D

 27 29  0  0  0  0  0  0  0  0999 V2000
   45.9880   34.1900   41.0400 C   0  0  0  0  0  0  0  0  0  0  0  0
   46.5650   34.8100   42.1430 C   0  0  0  0  0  0  0  0  0  0  0  0
   47.9020   35.1800   42.0190 C   0  0  0  0  0  0  0  0  0  0  0  0
   48.5520   34.9180   40.8520 N   0  0  0  0  0  0  0  0  0  0  0  0
   47.9580   34.3200   39.8160 C   0  0  0  0  0  0  0  0  0  0  0  0
   46.6650   33.9510   39.9080 N   0  0  0  0  0  0  0  0  0  0  0  0
   48.3690   35.6630   42.8650 H   0  0  0  0  0  0  0  0  0  0  0  0
   48.4620   34.1050   38.8830 H   0  0  0  0  0  0  0  0  0  0  0  0
   45.7770   35.0410   43.3400 C   0  0  0  0  0  0  0  0  0  0  0  0
   45.0790   36.2220   43.5570 C   0  0  0  0  0  0  0  0  0  0  0  0
   44.4850   36.0210   44.7890 C   0  0  0  0  0  0  0  0  0  0  0  0
   44.8010   34.7950   45.2860 N   0  0  0  0  0  0  0  0  0  0  0  0
   45.5800   34.2320   44.3880 N   0  0  0  0  0  0  0  0  0  0  0  0
   44.9870   37.1110   42.9530 H   0  0  0  0  0  0  0  0  0  0  0  0
   43.8480   36.7640   45.2800 H   0  0  0  0  0  0  0  0  0  0  0  0
   44.4780   34.3950   46.2070 H   0  0  0  0  0  0  0  0  0  0  0  0
   44.6610   33.8050   41.1220 O   0  0  0  0  0  0  0  0  0  0  0  0
   43.5790   34.4300   40.5690 C   0  0  0  0  0  0  0  0  0  0  0  0
   43.2780   35.6740   40.6520 O   0  0  0  0  0  0  0  0  0  0  0  0
   42.5460   33.7170   39.7540 C   0  0  0  0  0  0  0  0  0  0  0  0
   41.2170   33.5870   40.0880 C   0  0  0  0  0  0  0  0  0  0  0  0
   40.6600   33.9450   40.9420 H   0  0  0  0  0  0  0  0  0  0  0  0
   40.5520   32.8800   39.1370 N   0  0  0  0  0  0  0  0  0  0  0  0
   39.5490   32.6140   39.0950 H   0  0  0  0  0  0  0  0  0  0  0  0
   41.4980   32.5890   38.2310 C   0  0  0  0  0  0  0  0  0  0  0  0
   41.3160   32.0210   37.3200 H   0  0  0  0  0  0  0  0  0  0  0  0
   42.6920   33.0800   38.5850 N   0  0  0  0  0  0  0  0  0  0  0  0
  1 17  1  0  0  0  0
  1  2  1  0  0  0  0
  2  9  1  0  0  0  0
  3  2  2  0  0  0  0
  3  7  1  0  0  0  0
  4  3  1  0  0  0  0
  5  6  1  0  0  0  0
  5  4  2  0  0  0  0
  6  1  2  0  0  0  0
  8  5  1  0  0  0  0
  9 10  1  0  0  0  0
  9 13  2  0  0  0  0
 10 11  2  0  0  0  0
 11 15  1  0  0  0  0
 11 12  1  0  0  0  0
 12 16  1  0  0  0  0
 13 12  1  0  0  0  0
 14 10  1  0  0  0  0
 18 19  2  0  0  0  0
 18 17  1  0  0  0  0
 20 21  2  0  0  0  0
 20 18  1  0  0  0  0
 21 22  1  0  0  0  0
 23 21  1  0  0  0  0
 24 23  1  0  0  0  0
 25 27  2  0  0  0  0
 25 23  1  0  0  0  0
 26 25  1  0  0  0  0
 27 20  1  0  0  0  0
M  END
>  <minimizedAffinity>
-4.99151087

>  <minimizedRMSD>
0.376404285

$$$$
