
 OpenBabel03252508493D

 27 29  0  0  0  0  0  0  0  0999 V2000
   46.0820   34.1710   41.0070 C   0  0  0  0  0  0  0  0  0  0  0  0
   46.6240   34.7730   42.1360 C   0  0  0  0  0  0  0  0  0  0  0  0
   47.9610   35.1560   42.0570 C   0  0  0  0  0  0  0  0  0  0  0  0
   48.6450   34.9210   40.9030 N   0  0  0  0  0  0  0  0  0  0  0  0
   48.0850   34.3390   39.8400 C   0  0  0  0  0  0  0  0  0  0  0  0
   46.7930   33.9580   39.8900 N   0  0  0  0  0  0  0  0  0  0  0  0
   48.4000   35.6260   42.9240 H   0  0  0  0  0  0  0  0  0  0  0  0
   48.6160   34.1450   38.9170 H   0  0  0  0  0  0  0  0  0  0  0  0
   45.8020   34.9750   43.3150 C   0  0  0  0  0  0  0  0  0  0  0  0
   45.0940   36.1500   43.5390 C   0  0  0  0  0  0  0  0  0  0  0  0
   44.4660   35.9200   44.7480 C   0  0  0  0  0  0  0  0  0  0  0  0
   44.7720   34.6830   45.2260 N   0  0  0  0  0  0  0  0  0  0  0  0
   45.5770   34.1420   44.3390 N   0  0  0  0  0  0  0  0  0  0  0  0
   45.0170   37.0510   42.9530 H   0  0  0  0  0  0  0  0  0  0  0  0
   43.8130   36.6500   45.2380 H   0  0  0  0  0  0  0  0  0  0  0  0
   44.4240   34.2610   46.1290 H   0  0  0  0  0  0  0  0  0  0  0  0
   44.7570   33.7740   41.0440 O   0  0  0  0  0  0  0  0  0  0  0  0
   43.6990   34.3490   40.3980 C   0  0  0  0  0  0  0  0  0  0  0  0
   43.3090   35.5680   40.4870 O   0  0  0  0  0  0  0  0  0  0  0  0
   42.8070   33.6030   39.4580 C   0  0  0  0  0  0  0  0  0  0  0  0
   43.1850   32.5340   38.6780 C   0  0  0  0  0  0  0  0  0  0  0  0
   44.1340   32.0280   38.5770 H   0  0  0  0  0  0  0  0  0  0  0  0
   42.1370   32.0890   37.9350 N   0  0  0  0  0  0  0  0  0  0  0  0
   42.0990   31.3050   37.2540 H   0  0  0  0  0  0  0  0  0  0  0  0
   41.1290   32.9040   38.2780 C   0  0  0  0  0  0  0  0  0  0  0  0
   40.1220   32.8350   37.8690 H   0  0  0  0  0  0  0  0  0  0  0  0
   41.5120   33.8130   39.1860 N   0  0  0  0  0  0  0  0  0  0  0  0
  1 17  1  0  0  0  0
  1  2  1  0  0  0  0
  2  9  1  0  0  0  0
  3  2  2  0  0  0  0
  3  7  1  0  0  0  0
  4  3  1  0  0  0  0
  5  6  1  0  0  0  0
  5  4  2  0  0  0  0
  6  1  2  0  0  0  0
  8  5  1  0  0  0  0
  9 10  1  0  0  0  0
  9 13  2  0  0  0  0
 10 11  2  0  0  0  0
 11 12  1  0  0  0  0
 11 15  1  0  0  0  0
 12 16  1  0  0  0  0
 13 12  1  0  0  0  0
 14 10  1  0  0  0  0
 18 19  2  0  0  0  0
 18 17  1  0  0  0  0
 20 18  1  0  0  0  0
 21 20  2  0  0  0  0
 22 21  1  0  0  0  0
 23 25  1  0  0  0  0
 23 21  1  0  0  0  0
 24 23  1  0  0  0  0
 25 27  2  0  0  0  0
 26 25  1  0  0  0  0
 27 20  1  0  0  0  0
M  END
>  <minimizedAffinity>
-4.9334712

>  <minimizedRMSD>
0.229673952

$$$$
