
 OpenBabel03252508493D

 27 29  0  0  0  0  0  0  0  0999 V2000
   45.9620   34.2090   41.0350 C   0  0  0  0  0  0  0  0  0  0  0  0
   46.5500   34.8120   42.1410 C   0  0  0  0  0  0  0  0  0  0  0  0
   47.8920   35.1620   42.0190 C   0  0  0  0  0  0  0  0  0  0  0  0
   48.5380   34.8970   40.8490 N   0  0  0  0  0  0  0  0  0  0  0  0
   47.9340   34.3160   39.8100 C   0  0  0  0  0  0  0  0  0  0  0  0
   46.6350   33.9660   39.9010 N   0  0  0  0  0  0  0  0  0  0  0  0
   48.3670   35.6320   42.8680 H   0  0  0  0  0  0  0  0  0  0  0  0
   48.4340   34.0990   38.8750 H   0  0  0  0  0  0  0  0  0  0  0  0
   45.7660   35.0480   43.3400 C   0  0  0  0  0  0  0  0  0  0  0  0
   45.0800   36.2350   43.5610 C   0  0  0  0  0  0  0  0  0  0  0  0
   44.4860   36.0370   44.7930 C   0  0  0  0  0  0  0  0  0  0  0  0
   44.7920   34.8070   45.2870 N   0  0  0  0  0  0  0  0  0  0  0  0
   45.5640   34.2380   44.3860 N   0  0  0  0  0  0  0  0  0  0  0  0
   44.9950   37.1260   42.9590 H   0  0  0  0  0  0  0  0  0  0  0  0
   43.8560   36.7850   45.2870 H   0  0  0  0  0  0  0  0  0  0  0  0
   44.4660   34.4070   46.2080 H   0  0  0  0  0  0  0  0  0  0  0  0
   44.6290   33.8450   41.1140 O   0  0  0  0  0  0  0  0  0  0  0  0
   43.5610   34.4700   40.5370 C   0  0  0  0  0  0  0  0  0  0  0  0
   43.1240   35.6490   40.7920 O   0  0  0  0  0  0  0  0  0  0  0  0
   42.7120   33.8380   39.4800 C   0  0  0  0  0  0  0  0  0  0  0  0
   43.1680   33.0120   38.4770 C   0  0  0  0  0  0  0  0  0  0  0  0
   44.1630   32.6590   38.2450 H   0  0  0  0  0  0  0  0  0  0  0  0
   42.1410   32.6110   37.6830 N   0  0  0  0  0  0  0  0  0  0  0  0
   42.1560   31.9910   36.8490 H   0  0  0  0  0  0  0  0  0  0  0  0
   41.0660   33.2060   38.2210 C   0  0  0  0  0  0  0  0  0  0  0  0
   40.0540   33.1030   37.8330 H   0  0  0  0  0  0  0  0  0  0  0  0
   41.3900   33.9410   39.2930 N   0  0  0  0  0  0  0  0  0  0  0  0
  1 17  1  0  0  0  0
  1  2  1  0  0  0  0
  2  9  1  0  0  0  0
  3  2  2  0  0  0  0
  3  7  1  0  0  0  0
  4  3  1  0  0  0  0
  5  6  1  0  0  0  0
  5  4  2  0  0  0  0
  6  1  2  0  0  0  0
  8  5  1  0  0  0  0
  9 10  1  0  0  0  0
  9 13  2  0  0  0  0
 10 11  2  0  0  0  0
 11 15  1  0  0  0  0
 11 12  1  0  0  0  0
 12 16  1  0  0  0  0
 13 12  1  0  0  0  0
 14 10  1  0  0  0  0
 18 19  2  0  0  0  0
 18 17  1  0  0  0  0
 20 18  1  0  0  0  0
 21 20  2  0  0  0  0
 22 21  1  0  0  0  0
 23 25  1  0  0  0  0
 23 21  1  0  0  0  0
 24 23  1  0  0  0  0
 25 27  2  0  0  0  0
 26 25  1  0  0  0  0
 27 20  1  0  0  0  0
M  END
>  <minimizedAffinity>
-5.20183229

>  <minimizedRMSD>
0.475405425

$$$$
