REMARK  Name = 
REMARK  4 active torsions:
REMARK  status: ('A' for Active; 'I' for Inactive)
REMARK    1  A    between atoms: C_1  and  O_12
REMARK    2  A    between atoms: C_2  and  C_7
REMARK    3  A    between atoms: O_12  and  C_13
REMARK    4  A    between atoms: C_13  and  C_20
REMARK                            x       y       z     vdW  Elec       q    Type
REMARK                         _______ _______ _______ _____ _____    ______ ____
ROOT
ATOM      1  C   UNL     1      46.084  34.161  41.013  0.00  0.00    +0.000 A 
ATOM      2  C   UNL     1      46.619  34.831  42.107  0.00  0.00    +0.000 A 
ATOM      3  C   UNL     1      47.934  35.273  41.984  0.00  0.00    +0.000 A 
ATOM      4  N   UNL     1      48.605  35.027  40.825  0.00  0.00    +0.000 NA
ATOM      5  C   UNL     1      48.052  34.379  39.797  0.00  0.00    +0.000 A 
ATOM      6  N   UNL     1      46.781  33.940  39.889  0.00  0.00    +0.000 NA
ATOM      7  H   UNL     1      48.368  35.796  42.824  0.00  0.00    +0.000 HD
ATOM      8  H   UNL     1      48.573  34.176  38.870  0.00  0.00    +0.000 HD
ENDROOT
BRANCH   2   9
ATOM      9  C   UNL     1      45.812  35.038  43.296  0.00  0.00    +0.000 A 
ATOM     10  C   UNL     1      45.056  36.187  43.493  0.00  0.00    +0.000 A 
ATOM     11  C   UNL     1      44.463  35.973  44.723  0.00  0.00    +0.000 A 
ATOM     12  N   UNL     1      44.835  34.770  45.238  0.00  0.00    +0.000 N 
ATOM     13  N   UNL     1      45.647  34.234  44.353  0.00  0.00    +0.000 NA
ATOM     14  H   UNL     1      44.925  37.062  42.877  0.00  0.00    +0.000 HD
ATOM     15  H   UNL     1      43.787  36.690  45.200  0.00  0.00    +0.000 HD
ATOM     16  H   UNL     1      44.525  34.366  46.162  0.00  0.00    +0.000 HD
ENDBRANCH   2   9
BRANCH   1  17
ATOM     17  O   UNL     1      44.780  33.704  41.094  0.00  0.00    +0.000 OA
BRANCH  17  18
ATOM     18  C   UNL     1      43.689  34.183  40.426  0.00  0.00    +0.000 C 
ATOM     19  O   UNL     1      43.252  35.389  40.423  0.00  0.00    +0.000 OA
BRANCH  18  20
ATOM     20  C   UNL     1      42.810  33.328  39.569  0.00  0.00    +0.000 A 
ATOM     21  C   UNL     1      42.336  32.081  39.907  0.00  0.00    +0.000 A 
ATOM     22  H   UNL     1      42.476  31.484  40.797  0.00  0.00    +0.000 HD
ATOM     23  N   UNL     1      41.569  31.573  38.906  0.00  0.00    +0.000 N 
ATOM     24  H   UNL     1      41.071  30.662  38.854  0.00  0.00    +0.000 HD
ATOM     25  C   UNL     1      41.589  32.531  37.966  0.00  0.00    +0.000 A 
ATOM     26  H   UNL     1      41.071  32.459  37.012  0.00  0.00    +0.000 HD
ATOM     27  N   UNL     1      42.326  33.584  38.347  0.00  0.00    +0.000 NA
ENDBRANCH  18  20
ENDBRANCH  17  18
ENDBRANCH   1  17
TORSDOF 4
