
 OpenBabel03252508283D

 38 41  0  0  1  0  0  0  0  0999 V2000
   41.3540   33.5240   39.2970 N   0  0  0  0  0  0  0  0  0  0  0  0
   41.4610   33.1190   40.7010 C   0  0  2  0  0  0  0  0  0  0  0  0
   40.2550   33.4780   41.4920 C   0  0  0  0  0  0  0  0  0  0  0  0
   39.1450   33.8980   40.6550 N   0  0  0  0  0  0  0  0  0  0  0  0
   39.4660   34.8980   39.7000 C   0  0  0  0  0  0  0  0  0  0  0  0
   40.9340   34.9440   39.3600 C   0  0  2  0  0  0  0  0  0  0  0  0
   40.6900   32.9550   38.7570 H   0  0  0  0  0  0  0  0  0  0  0  0
   41.6030   32.0270   40.7150 H   0  0  0  0  0  0  0  0  0  0  0  0
   39.8640   32.5750   42.0480 H   0  0  0  0  0  0  0  0  0  0  0  0
   40.3370   34.3520   42.1600 H   0  0  0  0  0  0  0  0  0  0  0  0
   38.7050   33.0390   40.2440 H   0  0  0  0  0  0  0  0  0  0  0  0
   39.1930   35.9040   40.0750 H   0  0  0  0  0  0  0  0  0  0  0  0
   38.8690   34.7480   38.7720 H   0  0  0  0  0  0  0  0  0  0  0  0
   41.4750   35.3930   40.2010 H   0  0  0  0  0  0  0  0  0  0  0  0
   41.1910   35.6620   38.1120 C   0  0  0  0  0  0  0  0  0  0  0  0
   40.3610   36.0660   37.1080 C   0  0  0  0  0  0  0  0  0  0  0  0
   39.2970   35.9000   37.0850 H   0  0  0  0  0  0  0  0  0  0  0  0
   41.0450   36.7050   36.1400 N   0  0  0  0  0  0  0  0  0  0  0  0
   40.7360   37.1420   35.2350 H   0  0  0  0  0  0  0  0  0  0  0  0
   42.3210   36.7080   36.5280 C   0  0  0  0  0  0  0  0  0  0  0  0
   43.1960   37.1310   36.0180 H   0  0  0  0  0  0  0  0  0  0  0  0
   42.4250   36.0850   37.7130 N   0  0  0  0  0  0  0  0  0  0  0  0
   44.6490   34.2850   41.9210 C   0  0  0  0  0  0  0  0  0  0  0  0
   43.7600   35.3130   42.2560 C   0  0  0  0  0  0  0  0  0  0  0  0
   42.4810   34.9840   41.8450 C   0  0  0  0  0  0  0  0  0  0  0  0
   42.6150   33.7870   41.2760 N   0  0  0  0  0  0  0  0  0  0  0  0
   43.8770   33.3790   41.3210 N   0  0  0  0  0  0  0  0  0  0  0  0
   44.1640   36.1950   42.7700 H   0  0  0  0  0  0  0  0  0  0  0  0
   41.7880   35.7750   42.1090 H   0  0  0  0  0  0  0  0  0  0  0  0
   48.3510   34.9380   41.9380 C   0  0  0  0  0  0  0  0  0  0  0  0
   46.9850   35.0450   41.5170 C   0  0  0  0  0  0  0  0  0  0  0  0
   46.0800   34.2860   42.2170 C   0  0  0  0  0  0  0  0  0  0  0  0
   46.5080   33.4990   43.2370 N   0  0  0  0  0  0  0  0  0  0  0  0
   47.7980   33.4130   43.6170 C   0  0  0  0  0  0  0  0  0  0  0  0
   48.6980   34.1390   42.9540 N   0  0  0  0  0  0  0  0  0  0  0  0
   49.0530   35.5430   41.3740 H   0  0  0  0  0  0  0  0  0  0  0  0
   46.6650   35.6700   40.7110 H   0  0  0  0  0  0  0  0  0  0  0  0
   48.0310   32.7600   44.4370 H   0  0  0  0  0  0  0  0  0  0  0  0
  1  6  1  0  0  0  0
  1  2  1  0  0  0  0
  2  8  1  1  0  0  0
  2 26  1  0  0  0  0
  2  3  1  0  0  0  0
  3  9  1  0  0  0  0
  3 10  1  0  0  0  0
  4  3  1  0  0  0  0
  5 12  1  0  0  0  0
  5  4  1  0  0  0  0
  6  5  1  0  0  0  0
  6 14  1  1  0  0  0
  7  1  1  0  0  0  0
 11  4  1  0  0  0  0
 13  5  1  0  0  0  0
 15  6  1  0  0  0  0
 16 15  2  0  0  0  0
 17 16  1  0  0  0  0
 18 20  1  0  0  0  0
 18 16  1  0  0  0  0
 19 18  1  0  0  0  0
 20 22  2  0  0  0  0
 21 20  1  0  0  0  0
 22 15  1  0  0  0  0
 23 32  1  0  0  0  0
 23 24  1  0  0  0  0
 24 28  1  0  0  0  0
 25 29  1  0  0  0  0
 25 24  2  0  0  0  0
 26 27  1  0  0  0  0
 26 25  1  0  0  0  0
 27 23  2  0  0  0  0
 30 35  1  0  0  0  0
 31 30  2  0  0  0  0
 31 32  1  0  0  0  0
 32 33  2  0  0  0  0
 33 34  1  0  0  0  0
 34 38  1  0  0  0  0
 35 34  2  0  0  0  0
 36 30  1  0  0  0  0
 37 31  1  0  0  0  0
M  END
>  <minimizedAffinity>
-4.45833969

>  <minimizedRMSD>
1.64840198

$$$$
