
 OpenBabel03252506543D

 37 41  0  0  0  0  0  0  0  0999 V2000
   47.2090   31.2170   45.2310 C   0  0  0  0  0  0  0  0  0  0  0  0
   46.9280   32.5640   45.1510 C   0  0  0  0  0  0  0  0  0  0  0  0
   46.3530   33.2690   46.1930 C   0  0  0  0  0  0  0  0  0  0  0  0
   46.0340   32.6220   47.3860 C   0  0  0  0  0  0  0  0  0  0  0  0
   45.4810   32.9780   48.5770 N   0  0  0  0  0  0  0  0  0  0  0  0
   45.4250   31.8750   49.3700 C   0  0  0  0  0  0  0  0  0  0  0  0
   45.9490   30.8490   48.6480 N   0  0  0  0  0  0  0  0  0  0  0  0
   46.3270   31.2760   47.4350 C   0  0  0  0  0  0  0  0  0  0  0  0
   46.8940   30.5500   46.4260 C   0  0  0  0  0  0  0  0  0  0  0  0
   47.6530   30.6470   44.4400 H   0  0  0  0  0  0  0  0  0  0  0  0
   46.1230   34.3350   46.1450 H   0  0  0  0  0  0  0  0  0  0  0  0
   45.1730   33.9550   48.7820 H   0  0  0  0  0  0  0  0  0  0  0  0
   45.0280   31.8930   50.3660 H   0  0  0  0  0  0  0  0  0  0  0  0
   46.7790   35.0010   42.4030 C   0  0  0  0  0  0  0  0  0  0  0  0
   47.8670   34.6090   41.6060 C   0  0  0  0  0  0  0  0  0  0  0  0
   48.6370   33.5250   42.0090 C   0  0  0  0  0  0  0  0  0  0  0  0
   48.2920   32.8900   43.1730 N   0  0  0  0  0  0  0  0  0  0  0  0
   47.2430   33.2790   43.9270 C   0  0  0  0  0  0  0  0  0  0  0  0
   46.4890   34.3290   43.5450 N   0  0  0  0  0  0  0  0  0  0  0  0
   46.1500   35.8500   42.1180 H   0  0  0  0  0  0  0  0  0  0  0  0
   48.1020   35.1500   40.6850 H   0  0  0  0  0  0  0  0  0  0  0  0
   49.4880   33.1820   41.4300 H   0  0  0  0  0  0  0  0  0  0  0  0
   47.1650   29.1170   46.5830 C   0  0  0  0  0  0  0  0  0  0  0  0
   48.1640   28.4340   45.9190 C   0  0  0  0  0  0  0  0  0  0  0  0
   48.0440   27.1250   46.3740 C   0  0  0  0  0  0  0  0  0  0  0  0
   47.0000   27.0850   47.2710 C   0  0  0  0  0  0  0  0  0  0  0  0
   46.5040   28.3090   47.3630 O   0  0  0  0  0  0  0  0  0  0  0  0
   48.8530   28.8990   45.2080 H   0  0  0  0  0  0  0  0  0  0  0  0
   48.6880   26.3250   46.0430 H   0  0  0  0  0  0  0  0  0  0  0  0
   46.5430   25.8950   47.9810 C   0  0  0  0  0  0  0  0  0  0  0  0
   45.3030   25.2950   47.8890 C   0  0  0  0  0  0  0  0  0  0  0  0
   44.4580   25.5930   47.2830 H   0  0  0  0  0  0  0  0  0  0  0  0
   45.2660   24.2200   48.6980 N   0  0  0  0  0  0  0  0  0  0  0  0
   44.5390   23.5070   48.9210 H   0  0  0  0  0  0  0  0  0  0  0  0
   46.4680   24.1300   49.3040 C   0  0  0  0  0  0  0  0  0  0  0  0
   46.9530   23.4760   50.0230 H   0  0  0  0  0  0  0  0  0  0  0  0
   47.2470   25.1600   48.8610 N   0  0  0  0  0  0  0  0  0  0  0  0
  1  9  1  0  0  0  0
  2  1  2  0  0  0  0
  2  3  1  0  0  0  0
  3  4  2  0  0  0  0
  4  8  1  0  0  0  0
  4  5  1  0  0  0  0
  5 12  1  0  0  0  0
  5  6  1  0  0  0  0
  6 13  1  0  0  0  0
  7  6  2  0  0  0  0
  8  7  1  0  0  0  0
  9 23  1  0  0  0  0
  9  8  2  0  0  0  0
 10  1  1  0  0  0  0
 11  3  1  0  0  0  0
 14 19  1  0  0  0  0
 15 16  1  0  0  0  0
 15 14  2  0  0  0  0
 16 17  2  0  0  0  0
 17 18  1  0  0  0  0
 18  2  1  0  0  0  0
 19 18  2  0  0  0  0
 20 14  1  0  0  0  0
 21 15  1  0  0  0  0
 22 16  1  0  0  0  0
 23 27  1  0  0  0  0
 24 25  1  0  0  0  0
 24 23  2  0  0  0  0
 25 26  2  0  0  0  0
 26 27  1  0  0  0  0
 26 30  1  0  0  0  0
 28 24  1  0  0  0  0
 29 25  1  0  0  0  0
 30 37  1  0  0  0  0
 31 30  2  0  0  0  0
 31 33  1  0  0  0  0
 32 31  1  0  0  0  0
 33 34  1  0  0  0  0
 33 35  1  0  0  0  0
 35 36  1  0  0  0  0
 37 35  2  0  0  0  0
M  END
>  <minimizedAffinity>
-5.78861189

>  <minimizedRMSD>
1.15482092

$$$$
