
 OpenBabel03252505593D

 35 37  0  0  0  0  0  0  0  0999 V2000
   36.6290   31.4480   40.5750 C   0  0  0  0  0  0  0  0  0  0  0  0
   37.9210   31.9950   40.6600 C   0  0  0  0  0  0  0  0  0  0  0  0
   38.8600   31.2680   41.3890 C   0  0  0  0  0  0  0  0  0  0  0  0
   38.4970   30.1050   41.9640 N   0  0  0  0  0  0  0  0  0  0  0  0
   37.2470   29.6190   41.8570 C   0  0  0  0  0  0  0  0  0  0  0  0
   36.3300   30.2870   41.1700 N   0  0  0  0  0  0  0  0  0  0  0  0
   35.9020   32.0060   40.0140 H   0  0  0  0  0  0  0  0  0  0  0  0
   40.2500   31.6690   41.5790 C   0  0  0  0  0  0  0  0  0  0  0  0
   40.8230   31.4220   42.8360 C   0  0  0  0  0  0  0  0  0  0  0  0
   40.3810   30.9500   43.7320 H   0  0  0  0  0  0  0  0  0  0  0  0
   42.0990   31.8320   42.9320 N   0  0  0  0  0  0  0  0  0  0  0  0
   42.7670   31.7820   43.7280 H   0  0  0  0  0  0  0  0  0  0  0  0
   42.3420   32.3480   41.7190 C   0  0  0  0  0  0  0  0  0  0  0  0
   43.2430   32.8010   41.3250 H   0  0  0  0  0  0  0  0  0  0  0  0
   41.2670   32.2530   40.9290 N   0  0  0  0  0  0  0  0  0  0  0  0
   38.2080   33.2830   39.9810 C   0  0  0  0  0  0  0  0  0  0  0  0
   36.9780   33.6890   39.4780 F   0  0  0  0  0  0  0  0  0  0  0  0
   39.0460   32.9900   38.9040 F   0  0  0  0  0  0  0  0  0  0  0  0
   38.7230   34.1600   40.8610 F   0  0  0  0  0  0  0  0  0  0  0  0
   36.8580   28.4240   42.4430 O   0  0  0  0  0  0  0  0  0  0  0  0
   37.4920   27.9510   43.6130 C   0  0  0  0  0  0  0  0  0  0  0  0
   36.7170   27.7070   44.3680 H   0  0  0  0  0  0  0  0  0  0  0  0
   38.1610   28.7290   44.0580 H   0  0  0  0  0  0  0  0  0  0  0  0
   38.2490   26.7430   43.2490 C   0  0  0  0  0  0  0  0  0  0  0  0
   39.4840   26.3050   43.6760 C   0  0  0  0  0  0  0  0  0  0  0  0
   39.9660   25.1310   43.1730 C   0  0  0  0  0  0  0  0  0  0  0  0
   39.2800   24.4080   42.2880 N   0  0  0  0  0  0  0  0  0  0  0  0
   38.0810   24.8420   41.8770 C   0  0  0  0  0  0  0  0  0  0  0  0
   37.5460   26.0100   42.3460 N   0  0  0  0  0  0  0  0  0  0  0  0
   39.9190   26.9860   44.3860 H   0  0  0  0  0  0  0  0  0  0  0  0
   40.9470   24.8480   43.5560 H   0  0  0  0  0  0  0  0  0  0  0  0
   37.3940   23.9660   40.8900 C   0  0  0  0  0  0  0  0  0  0  0  0
   38.0230   22.7440   40.7770 F   0  0  0  0  0  0  0  0  0  0  0  0
   37.3770   24.5840   39.6380 F   0  0  0  0  0  0  0  0  0  0  0  0
   36.0770   23.7250   41.2460 F   0  0  0  0  0  0  0  0  0  0  0  0
  1  2  2  0  0  0  0
  1  6  1  0  0  0  0
  2  3  1  0  0  0  0
  3  8  1  0  0  0  0
  3  4  2  0  0  0  0
  5  4  1  0  0  0  0
  5 20  1  0  0  0  0
  6  5  2  0  0  0  0
  7  1  1  0  0  0  0
  8  9  2  0  0  0  0
  9 11  1  0  0  0  0
  9 10  1  0  0  0  0
 11 12  1  0  0  0  0
 13 11  1  0  0  0  0
 14 13  1  0  0  0  0
 15  8  1  0  0  0  0
 15 13  2  0  0  0  0
 16  2  1  0  0  0  0
 16 19  1  0  0  0  0
 17 16  1  0  0  0  0
 18 16  1  0  0  0  0
 20 21  1  0  0  0  0
 21 23  1  0  0  0  0
 21 22  1  0  0  0  0
 24 21  1  0  0  0  0
 24 25  1  0  0  0  0
 25 30  1  0  0  0  0
 26 31  1  0  0  0  0
 26 25  2  0  0  0  0
 27 26  1  0  0  0  0
 28 27  2  0  0  0  0
 28 29  1  0  0  0  0
 29 24  2  0  0  0  0
 32 35  1  0  0  0  0
 32 28  1  0  0  0  0
 33 32  1  0  0  0  0
 34 32  1  0  0  0  0
M  END
>  <minimizedAffinity>
-6.16467094

$$$$

 OpenBabel03252505593D

 35 37  0  0  0  0  0  0  0  0999 V2000
   36.6520   29.3060   39.1390 C   0  0  0  0  0  0  0  0  0  0  0  0
   37.3580   30.5220   39.1220 C   0  0  0  0  0  0  0  0  0  0  0  0
   37.8360   30.9830   40.3470 C   0  0  0  0  0  0  0  0  0  0  0  0
   37.6070   30.2640   41.4620 N   0  0  0  0  0  0  0  0  0  0  0  0
   36.9240   29.1040   41.4320 C   0  0  0  0  0  0  0  0  0  0  0  0
   36.4560   28.6380   40.2820 N   0  0  0  0  0  0  0  0  0  0  0  0
   36.2820   28.9470   38.1970 H   0  0  0  0  0  0  0  0  0  0  0  0
   38.5970   32.2160   40.5260 C   0  0  0  0  0  0  0  0  0  0  0  0
   39.9500   32.0880   40.8790 C   0  0  0  0  0  0  0  0  0  0  0  0
   40.5540   31.1780   41.0390 H   0  0  0  0  0  0  0  0  0  0  0  0
   40.5740   33.2680   41.0370 N   0  0  0  0  0  0  0  0  0  0  0  0
   41.5600   33.4810   41.2920 H   0  0  0  0  0  0  0  0  0  0  0  0
   39.6060   34.1580   40.7810 C   0  0  0  0  0  0  0  0  0  0  0  0
   39.6390   35.2410   40.7860 H   0  0  0  0  0  0  0  0  0  0  0  0
   38.4540   33.5480   40.4830 N   0  0  0  0  0  0  0  0  0  0  0  0
   37.5540   31.2260   37.8300 C   0  0  0  0  0  0  0  0  0  0  0  0
   36.8310   30.4730   36.9130 F   0  0  0  0  0  0  0  0  0  0  0  0
   38.9090   31.1160   37.5160 F   0  0  0  0  0  0  0  0  0  0  0  0
   37.1100   32.4920   37.9270 F   0  0  0  0  0  0  0  0  0  0  0  0
   36.6800   28.3520   42.5700 O   0  0  0  0  0  0  0  0  0  0  0  0
   37.6810   28.1790   43.5520 C   0  0  0  0  0  0  0  0  0  0  0  0
   37.2000   28.1260   44.5510 H   0  0  0  0  0  0  0  0  0  0  0  0
   38.3930   29.0410   43.5670 H   0  0  0  0  0  0  0  0  0  0  0  0
   38.3790   26.9180   43.2540 C   0  0  0  0  0  0  0  0  0  0  0  0
   39.6080   26.4600   43.6800 C   0  0  0  0  0  0  0  0  0  0  0  0
   40.0280   25.2350   43.2480 C   0  0  0  0  0  0  0  0  0  0  0  0
   39.2890   24.4810   42.4340 N   0  0  0  0  0  0  0  0  0  0  0  0
   38.0960   24.9340   42.0260 C   0  0  0  0  0  0  0  0  0  0  0  0
   37.6220   26.1530   42.4240 N   0  0  0  0  0  0  0  0  0  0  0  0
   40.0890   27.1700   44.3280 H   0  0  0  0  0  0  0  0  0  0  0  0
   41.0080   24.9390   43.6250 H   0  0  0  0  0  0  0  0  0  0  0  0
   37.3470   24.0210   41.1210 C   0  0  0  0  0  0  0  0  0  0  0  0
   36.0110   23.9630   41.4560 F   0  0  0  0  0  0  0  0  0  0  0  0
   37.8890   22.7350   41.1910 F   0  0  0  0  0  0  0  0  0  0  0  0
   37.4280   24.4280   39.8000 F   0  0  0  0  0  0  0  0  0  0  0  0
  1  6  1  0  0  0  0
  2  1  2  0  0  0  0
  2  3  1  0  0  0  0
  3  8  1  0  0  0  0
  3  4  2  0  0  0  0
  5  4  1  0  0  0  0
  5 20  1  0  0  0  0
  6  5  2  0  0  0  0
  7  1  1  0  0  0  0
  8  9  2  0  0  0  0
  9 11  1  0  0  0  0
  9 10  1  0  0  0  0
 11 12  1  0  0  0  0
 13 14  1  0  0  0  0
 13 11  1  0  0  0  0
 15  8  1  0  0  0  0
 15 13  2  0  0  0  0
 16 19  1  0  0  0  0
 16  2  1  0  0  0  0
 17 16  1  0  0  0  0
 18 16  1  0  0  0  0
 20 21  1  0  0  0  0
 21 23  1  0  0  0  0
 21 22  1  0  0  0  0
 24 21  1  0  0  0  0
 24 25  1  0  0  0  0
 25 30  1  0  0  0  0
 26 31  1  0  0  0  0
 26 25  2  0  0  0  0
 27 26  1  0  0  0  0
 28 29  1  0  0  0  0
 28 27  2  0  0  0  0
 29 24  2  0  0  0  0
 32 34  1  0  0  0  0
 32 33  1  0  0  0  0
 32 28  1  0  0  0  0
 35 32  1  0  0  0  0
M  END
>  <minimizedAffinity>
-6.01061678

$$$$

 OpenBabel03252505593D

 35 37  0  0  0  0  0  0  0  0999 V2000
   37.1950   27.0980   42.7850 C   0  0  0  0  0  0  0  0  0  0  0  0
   38.1510   26.2270   42.2330 C   0  0  0  0  0  0  0  0  0  0  0  0
   39.3670   26.7930   41.8590 C   0  0  0  0  0  0  0  0  0  0  0  0
   39.5690   28.1120   42.0380 N   0  0  0  0  0  0  0  0  0  0  0  0
   38.6250   28.9090   42.5710 C   0  0  0  0  0  0  0  0  0  0  0  0
   37.4550   28.4020   42.9370 N   0  0  0  0  0  0  0  0  0  0  0  0
   36.2550   26.6650   43.0740 H   0  0  0  0  0  0  0  0  0  0  0  0
   40.4820   26.0490   41.2800 C   0  0  0  0  0  0  0  0  0  0  0  0
   41.5670   25.7610   42.1210 C   0  0  0  0  0  0  0  0  0  0  0  0
   41.7180   26.0070   43.1870 H   0  0  0  0  0  0  0  0  0  0  0  0
   42.5550   25.0870   41.5080 N   0  0  0  0  0  0  0  0  0  0  0  0
   43.4660   24.7420   41.8740 H   0  0  0  0  0  0  0  0  0  0  0  0
   42.0910   24.9420   40.2590 C   0  0  0  0  0  0  0  0  0  0  0  0
   42.5440   24.4600   39.4010 H   0  0  0  0  0  0  0  0  0  0  0  0
   40.8840   25.5020   40.1240 N   0  0  0  0  0  0  0  0  0  0  0  0
   37.8190   24.7880   42.0860 C   0  0  0  0  0  0  0  0  0  0  0  0
   36.5360   24.6740   42.6090 F   0  0  0  0  0  0  0  0  0  0  0  0
   38.6940   24.0890   42.9190 F   0  0  0  0  0  0  0  0  0  0  0  0
   37.8850   24.4320   40.7920 F   0  0  0  0  0  0  0  0  0  0  0  0
   38.8160   30.2690   42.7620 O   0  0  0  0  0  0  0  0  0  0  0  0
   40.1050   30.8390   42.6690 C   0  0  0  0  0  0  0  0  0  0  0  0
   40.8460   30.0270   42.5170 H   0  0  0  0  0  0  0  0  0  0  0  0
   40.3830   31.3770   43.6080 H   0  0  0  0  0  0  0  0  0  0  0  0
   40.1030   31.7500   41.5130 C   0  0  0  0  0  0  0  0  0  0  0  0
   41.1270   32.4920   40.9640 C   0  0  0  0  0  0  0  0  0  0  0  0
   40.8530   33.2700   39.8760 C   0  0  0  0  0  0  0  0  0  0  0  0
   39.6350   33.3290   39.3390 N   0  0  0  0  0  0  0  0  0  0  0  0
   38.6450   32.6040   39.8790 C   0  0  0  0  0  0  0  0  0  0  0  0
   38.8590   31.8070   40.9690 N   0  0  0  0  0  0  0  0  0  0  0  0
   42.0490   32.3470   41.4990 H   0  0  0  0  0  0  0  0  0  0  0  0
   41.7100   33.8280   39.4970 H   0  0  0  0  0  0  0  0  0  0  0  0
   37.3240   32.7370   39.2080 C   0  0  0  0  0  0  0  0  0  0  0  0
   36.8420   34.0250   39.2940 F   0  0  0  0  0  0  0  0  0  0  0  0
   36.4030   31.8680   39.7980 F   0  0  0  0  0  0  0  0  0  0  0  0
   37.3960   32.4080   37.8650 F   0  0  0  0  0  0  0  0  0  0  0  0
  1  6  1  0  0  0  0
  1  7  1  0  0  0  0
  2  1  2  0  0  0  0
  3  4  2  0  0  0  0
  3  2  1  0  0  0  0
  4  5  1  0  0  0  0
  5 20  1  0  0  0  0
  5  6  2  0  0  0  0
  8  3  1  0  0  0  0
  8  9  2  0  0  0  0
  9 10  1  0  0  0  0
 11 12  1  0  0  0  0
 11  9  1  0  0  0  0
 13 11  1  0  0  0  0
 14 13  1  0  0  0  0
 15 13  2  0  0  0  0
 15  8  1  0  0  0  0
 16  2  1  0  0  0  0
 16 17  1  0  0  0  0
 16 18  1  0  0  0  0
 19 16  1  0  0  0  0
 21 20  1  0  0  0  0
 21 23  1  0  0  0  0
 22 21  1  0  0  0  0
 24 21  1  0  0  0  0
 25 30  1  0  0  0  0
 25 24  2  0  0  0  0
 26 25  1  0  0  0  0
 27 26  2  0  0  0  0
 27 28  1  0  0  0  0
 28 29  2  0  0  0  0
 29 24  1  0  0  0  0
 31 26  1  0  0  0  0
 32 33  1  0  0  0  0
 32 34  1  0  0  0  0
 32 28  1  0  0  0  0
 35 32  1  0  0  0  0
M  END
>  <minimizedAffinity>
-5.735497

$$$$

 OpenBabel03252505593D

 35 37  0  0  0  0  0  0  0  0999 V2000
   39.7320   31.6140   37.3990 C   0  0  0  0  0  0  0  0  0  0  0  0
   40.8060   32.0910   38.1700 C   0  0  0  0  0  0  0  0  0  0  0  0
   40.4960   32.5710   39.4410 C   0  0  0  0  0  0  0  0  0  0  0  0
   39.2170   32.5580   39.8620 N   0  0  0  0  0  0  0  0  0  0  0  0
   38.2190   32.0920   39.0890 C   0  0  0  0  0  0  0  0  0  0  0  0
   38.4810   31.6270   37.8730 N   0  0  0  0  0  0  0  0  0  0  0  0
   39.9660   31.2430   36.4180 H   0  0  0  0  0  0  0  0  0  0  0  0
   41.4760   33.0950   40.3870 C   0  0  0  0  0  0  0  0  0  0  0  0
   41.7610   32.3110   41.5160 C   0  0  0  0  0  0  0  0  0  0  0  0
   41.3580   31.3250   41.8090 H   0  0  0  0  0  0  0  0  0  0  0  0
   42.6610   32.8710   42.3420 N   0  0  0  0  0  0  0  0  0  0  0  0
   43.0600   32.5260   43.2400 H   0  0  0  0  0  0  0  0  0  0  0  0
   42.9530   34.0270   41.7310 C   0  0  0  0  0  0  0  0  0  0  0  0
   43.6340   34.8160   42.0270 H   0  0  0  0  0  0  0  0  0  0  0  0
   42.2640   34.1600   40.5930 N   0  0  0  0  0  0  0  0  0  0  0  0
   42.1770   32.0520   37.6030 C   0  0  0  0  0  0  0  0  0  0  0  0
   42.4680   33.3790   37.3120 F   0  0  0  0  0  0  0  0  0  0  0  0
   42.0930   31.3480   36.4010 F   0  0  0  0  0  0  0  0  0  0  0  0
   43.0270   31.5190   38.4980 F   0  0  0  0  0  0  0  0  0  0  0  0
   36.8980   32.0710   39.5070 O   0  0  0  0  0  0  0  0  0  0  0  0
   36.5380   31.4770   40.7370 C   0  0  0  0  0  0  0  0  0  0  0  0
   35.5640   31.8960   41.0660 H   0  0  0  0  0  0  0  0  0  0  0  0
   37.2880   31.7020   41.5350 H   0  0  0  0  0  0  0  0  0  0  0  0
   36.4200   30.0280   40.5110 C   0  0  0  0  0  0  0  0  0  0  0  0
   36.0240   29.3320   39.3880 C   0  0  0  0  0  0  0  0  0  0  0  0
   36.0020   27.9690   39.4440 C   0  0  0  0  0  0  0  0  0  0  0  0
   36.3490   27.3010   40.5440 N   0  0  0  0  0  0  0  0  0  0  0  0
   36.7310   27.9850   41.6310 C   0  0  0  0  0  0  0  0  0  0  0  0
   36.7730   29.3520   41.6350 N   0  0  0  0  0  0  0  0  0  0  0  0
   35.7750   29.9980   38.5800 H   0  0  0  0  0  0  0  0  0  0  0  0
   35.6790   27.4880   38.5190 H   0  0  0  0  0  0  0  0  0  0  0  0
   37.0980   27.1510   42.8070 C   0  0  0  0  0  0  0  0  0  0  0  0
   38.1220   27.7240   43.5310 F   0  0  0  0  0  0  0  0  0  0  0  0
   37.4980   25.8810   42.3830 F   0  0  0  0  0  0  0  0  0  0  0  0
   36.0270   26.9770   43.6670 F   0  0  0  0  0  0  0  0  0  0  0  0
  1  6  2  0  0  0  0
  1  2  1  0  0  0  0
  2  3  2  0  0  0  0
  3  4  1  0  0  0  0
  3  8  1  0  0  0  0
  5 20  1  0  0  0  0
  5  4  2  0  0  0  0
  6  5  1  0  0  0  0
  7  1  1  0  0  0  0
  8 15  1  0  0  0  0
  8  9  2  0  0  0  0
  9 10  1  0  0  0  0
  9 11  1  0  0  0  0
 11 12  1  0  0  0  0
 13 14  1  0  0  0  0
 13 11  1  0  0  0  0
 15 13  2  0  0  0  0
 16  2  1  0  0  0  0
 16 19  1  0  0  0  0
 17 16  1  0  0  0  0
 18 16  1  0  0  0  0
 20 21  1  0  0  0  0
 21 22  1  0  0  0  0
 21 23  1  0  0  0  0
 24 21  1  0  0  0  0
 24 29  1  0  0  0  0
 25 26  1  0  0  0  0
 25 24  2  0  0  0  0
 26 27  2  0  0  0  0
 27 28  1  0  0  0  0
 28 29  2  0  0  0  0
 28 32  1  0  0  0  0
 30 25  1  0  0  0  0
 31 26  1  0  0  0  0
 32 33  1  0  0  0  0
 32 35  1  0  0  0  0
 34 32  1  0  0  0  0
M  END
>  <minimizedAffinity>
-5.61940479

$$$$

 OpenBabel03252505593D

 35 37  0  0  0  0  0  0  0  0999 V2000
   37.1260   25.4640   40.4060 C   0  0  0  0  0  0  0  0  0  0  0  0
   37.1380   26.7520   40.9710 C   0  0  0  0  0  0  0  0  0  0  0  0
   37.0000   27.8210   40.0890 C   0  0  0  0  0  0  0  0  0  0  0  0
   36.8640   27.5820   38.7710 N   0  0  0  0  0  0  0  0  0  0  0  0
   36.8590   26.3310   38.2730 C   0  0  0  0  0  0  0  0  0  0  0  0
   36.9890   25.2910   39.0860 N   0  0  0  0  0  0  0  0  0  0  0  0
   37.2330   24.6370   41.0820 H   0  0  0  0  0  0  0  0  0  0  0  0
   36.9780   29.2250   40.4890 C   0  0  0  0  0  0  0  0  0  0  0  0
   35.7280   29.7860   40.7920 C   0  0  0  0  0  0  0  0  0  0  0  0
   34.7260   29.3220   40.7850 H   0  0  0  0  0  0  0  0  0  0  0  0
   35.7940   31.0830   41.1370 N   0  0  0  0  0  0  0  0  0  0  0  0
   35.0420   31.7490   41.4100 H   0  0  0  0  0  0  0  0  0  0  0  0
   37.1050   31.3510   41.0540 C   0  0  0  0  0  0  0  0  0  0  0  0
   37.6380   32.2750   41.2420 H   0  0  0  0  0  0  0  0  0  0  0  0
   37.7960   30.2700   40.6770 N   0  0  0  0  0  0  0  0  0  0  0  0
   37.2890   26.8950   42.4410 C   0  0  0  0  0  0  0  0  0  0  0  0
   38.3870   27.7320   42.5950 F   0  0  0  0  0  0  0  0  0  0  0  0
   37.6260   25.6340   42.9330 F   0  0  0  0  0  0  0  0  0  0  0  0
   36.1650   27.4120   42.9680 F   0  0  0  0  0  0  0  0  0  0  0  0
   36.7210   26.0670   36.9190 O   0  0  0  0  0  0  0  0  0  0  0  0
   37.2510   26.9500   35.9520 C   0  0  0  0  0  0  0  0  0  0  0  0
   37.6530   26.3560   35.1050 H   0  0  0  0  0  0  0  0  0  0  0  0
   38.0950   27.5540   36.3680 H   0  0  0  0  0  0  0  0  0  0  0  0
   36.1520   27.8150   35.4940 C   0  0  0  0  0  0  0  0  0  0  0  0
   34.7880   27.6500   35.5990 C   0  0  0  0  0  0  0  0  0  0  0  0
   33.9750   28.6170   35.0810 C   0  0  0  0  0  0  0  0  0  0  0  0
   34.4630   29.7030   34.4820 N   0  0  0  0  0  0  0  0  0  0  0  0
   35.7910   29.8550   34.3830 C   0  0  0  0  0  0  0  0  0  0  0  0
   36.6550   28.9200   34.8830 N   0  0  0  0  0  0  0  0  0  0  0  0
   34.5400   26.7320   36.1030 H   0  0  0  0  0  0  0  0  0  0  0  0
   32.9090   28.4180   35.2020 H   0  0  0  0  0  0  0  0  0  0  0  0
   36.2370   31.0980   33.6990 C   0  0  0  0  0  0  0  0  0  0  0  0
   35.1660   31.8190   33.2150 F   0  0  0  0  0  0  0  0  0  0  0  0
   37.0850   30.7780   32.6370 F   0  0  0  0  0  0  0  0  0  0  0  0
   36.9450   31.9280   34.5530 F   0  0  0  0  0  0  0  0  0  0  0  0
  1  2  1  0  0  0  0
  1  7  1  0  0  0  0
  2 16  1  0  0  0  0
  3  8  1  0  0  0  0
  3  2  2  0  0  0  0
  4  3  1  0  0  0  0
  5  4  2  0  0  0  0
  5  6  1  0  0  0  0
  6  1  2  0  0  0  0
  8 15  1  0  0  0  0
  8  9  2  0  0  0  0
  9 11  1  0  0  0  0
 10  9  1  0  0  0  0
 11 12  1  0  0  0  0
 13 11  1  0  0  0  0
 13 14  1  0  0  0  0
 15 13  2  0  0  0  0
 16 17  1  0  0  0  0
 16 18  1  0  0  0  0
 16 19  1  0  0  0  0
 20  5  1  0  0  0  0
 21 23  1  0  0  0  0
 21 20  1  0  0  0  0
 22 21  1  0  0  0  0
 24 25  1  0  0  0  0
 24 21  1  0  0  0  0
 25 30  1  0  0  0  0
 26 31  1  0  0  0  0
 26 25  2  0  0  0  0
 27 26  1  0  0  0  0
 28 27  2  0  0  0  0
 28 29  1  0  0  0  0
 29 24  2  0  0  0  0
 32 28  1  0  0  0  0
 32 35  1  0  0  0  0
 33 32  1  0  0  0  0
 34 32  1  0  0  0  0
M  END
>  <minimizedAffinity>
-5.55723476

$$$$

 OpenBabel03252505593D

 35 37  0  0  0  0  0  0  0  0999 V2000
   36.3100   29.2630   38.7720 C   0  0  0  0  0  0  0  0  0  0  0  0
   37.3030   30.2570   38.8430 C   0  0  0  0  0  0  0  0  0  0  0  0
   37.8950   30.4590   40.0880 C   0  0  0  0  0  0  0  0  0  0  0  0
   37.5020   29.7140   41.1390 N   0  0  0  0  0  0  0  0  0  0  0  0
   36.5460   28.7730   41.0250 C   0  0  0  0  0  0  0  0  0  0  0  0
   35.9620   28.5560   39.8540 N   0  0  0  0  0  0  0  0  0  0  0  0
   35.8510   29.1050   37.8140 H   0  0  0  0  0  0  0  0  0  0  0  0
   38.9470   31.4350   40.3540 C   0  0  0  0  0  0  0  0  0  0  0  0
   38.5580   32.6610   40.9140 C   0  0  0  0  0  0  0  0  0  0  0  0
   37.5530   33.0170   41.2040 H   0  0  0  0  0  0  0  0  0  0  0  0
   39.5830   33.5070   41.1150 N   0  0  0  0  0  0  0  0  0  0  0  0
   39.5970   34.4690   41.5090 H   0  0  0  0  0  0  0  0  0  0  0  0
   40.6400   32.8080   40.6770 C   0  0  0  0  0  0  0  0  0  0  0  0
   41.6870   33.0830   40.6410 H   0  0  0  0  0  0  0  0  0  0  0  0
   40.2720   31.6010   40.2340 N   0  0  0  0  0  0  0  0  0  0  0  0
   37.6580   31.0130   37.6170 C   0  0  0  0  0  0  0  0  0  0  0  0
   37.2620   32.3170   37.8880 F   0  0  0  0  0  0  0  0  0  0  0  0
   36.8530   30.5150   36.5920 F   0  0  0  0  0  0  0  0  0  0  0  0
   38.9780   30.9100   37.3820 F   0  0  0  0  0  0  0  0  0  0  0  0
   36.1300   27.9980   42.0960 O   0  0  0  0  0  0  0  0  0  0  0  0
   37.0550   27.5420   43.0620 C   0  0  0  0  0  0  0  0  0  0  0  0
   36.5160   27.3520   44.0130 H   0  0  0  0  0  0  0  0  0  0  0  0
   37.8420   28.3080   43.2680 H   0  0  0  0  0  0  0  0  0  0  0  0
   37.6460   26.2940   42.5530 C   0  0  0  0  0  0  0  0  0  0  0  0
   37.0450   25.1080   42.1900 C   0  0  0  0  0  0  0  0  0  0  0  0
   37.8360   24.0890   41.7430 C   0  0  0  0  0  0  0  0  0  0  0  0
   39.1600   24.2120   41.6510 N   0  0  0  0  0  0  0  0  0  0  0  0
   39.7360   25.3680   42.0060 C   0  0  0  0  0  0  0  0  0  0  0  0
   38.9960   26.4240   42.4610 N   0  0  0  0  0  0  0  0  0  0  0  0
   35.9770   25.1540   42.3160 H   0  0  0  0  0  0  0  0  0  0  0  0
   37.2910   23.1830   41.4750 H   0  0  0  0  0  0  0  0  0  0  0  0
   41.2170   25.4060   41.8680 C   0  0  0  0  0  0  0  0  0  0  0  0
   41.8370   24.7100   42.8830 F   0  0  0  0  0  0  0  0  0  0  0  0
   41.6620   26.7300   41.8880 F   0  0  0  0  0  0  0  0  0  0  0  0
   41.6350   24.8520   40.6690 F   0  0  0  0  0  0  0  0  0  0  0  0
  1  2  2  0  0  0  0
  1  6  1  0  0  0  0
  2  3  1  0  0  0  0
  3  8  1  0  0  0  0
  3  4  2  0  0  0  0
  5  4  1  0  0  0  0
  5 20  1  0  0  0  0
  6  5  2  0  0  0  0
  7  1  1  0  0  0  0
  8  9  2  0  0  0  0
  9 11  1  0  0  0  0
  9 10  1  0  0  0  0
 11 12  1  0  0  0  0
 13 11  1  0  0  0  0
 14 13  1  0  0  0  0
 15  8  1  0  0  0  0
 15 13  2  0  0  0  0
 16 17  1  0  0  0  0
 16  2  1  0  0  0  0
 18 16  1  0  0  0  0
 19 16  1  0  0  0  0
 20 21  1  0  0  0  0
 21 23  1  0  0  0  0
 21 22  1  0  0  0  0
 24 21  1  0  0  0  0
 25 30  1  0  0  0  0
 25 24  2  0  0  0  0
 26 25  1  0  0  0  0
 27 26  2  0  0  0  0
 27 28  1  0  0  0  0
 28 29  2  0  0  0  0
 29 24  1  0  0  0  0
 31 26  1  0  0  0  0
 32 34  1  0  0  0  0
 32 28  1  0  0  0  0
 32 33  1  0  0  0  0
 35 32  1  0  0  0  0
M  END
>  <minimizedAffinity>
-5.47852945

$$$$

 OpenBabel03252505593D

 35 37  0  0  0  0  0  0  0  0999 V2000
   37.6020   31.1080   40.9350 C   0  0  0  0  0  0  0  0  0  0  0  0
   37.6110   30.9790   39.5350 C   0  0  0  0  0  0  0  0  0  0  0  0
   37.1270   29.7800   39.0150 C   0  0  0  0  0  0  0  0  0  0  0  0
   36.6820   28.8250   39.8540 N   0  0  0  0  0  0  0  0  0  0  0  0
   36.6920   28.9910   41.1890 C   0  0  0  0  0  0  0  0  0  0  0  0
   37.1470   30.1200   41.7160 N   0  0  0  0  0  0  0  0  0  0  0  0
   37.9750   32.0300   41.3390 H   0  0  0  0  0  0  0  0  0  0  0  0
   37.0480   29.4680   37.5910 C   0  0  0  0  0  0  0  0  0  0  0  0
   38.1370   28.7890   37.0230 C   0  0  0  0  0  0  0  0  0  0  0  0
   39.0700   28.4330   37.4940 H   0  0  0  0  0  0  0  0  0  0  0  0
   37.9910   28.5520   35.7080 N   0  0  0  0  0  0  0  0  0  0  0  0
   38.6240   28.0750   35.0330 H   0  0  0  0  0  0  0  0  0  0  0  0
   36.7940   29.0880   35.4360 C   0  0  0  0  0  0  0  0  0  0  0  0
   36.2520   29.1390   34.4990 H   0  0  0  0  0  0  0  0  0  0  0  0
   36.2420   29.6220   36.5310 N   0  0  0  0  0  0  0  0  0  0  0  0
   38.1210   32.1010   38.7090 C   0  0  0  0  0  0  0  0  0  0  0  0
   39.3060   31.6200   38.1660 F   0  0  0  0  0  0  0  0  0  0  0  0
   38.4320   33.1370   39.5900 F   0  0  0  0  0  0  0  0  0  0  0  0
   37.2160   32.4270   37.7700 F   0  0  0  0  0  0  0  0  0  0  0  0
   36.2380   28.0180   42.0660 O   0  0  0  0  0  0  0  0  0  0  0  0
   37.0080   27.6400   43.1890 C   0  0  0  0  0  0  0  0  0  0  0  0
   36.3250   27.2950   43.9930 H   0  0  0  0  0  0  0  0  0  0  0  0
   37.5930   28.5040   43.5930 H   0  0  0  0  0  0  0  0  0  0  0  0
   37.8960   26.5450   42.7680 C   0  0  0  0  0  0  0  0  0  0  0  0
   39.2220   26.3110   43.0670 C   0  0  0  0  0  0  0  0  0  0  0  0
   39.8200   25.2040   42.5370 C   0  0  0  0  0  0  0  0  0  0  0  0
   39.1630   24.3560   41.7470 N   0  0  0  0  0  0  0  0  0  0  0  0
   37.8750   24.5920   41.4610 C   0  0  0  0  0  0  0  0  0  0  0  0
   37.2220   25.6840   41.9620 N   0  0  0  0  0  0  0  0  0  0  0  0
   39.6200   27.0740   43.7120 H   0  0  0  0  0  0  0  0  0  0  0  0
   40.8680   25.0840   42.8170 H   0  0  0  0  0  0  0  0  0  0  0  0
   37.2290   23.5890   40.5720 C   0  0  0  0  0  0  0  0  0  0  0  0
   37.6520   22.3100   40.8640 F   0  0  0  0  0  0  0  0  0  0  0  0
   37.5320   23.8730   39.2380 F   0  0  0  0  0  0  0  0  0  0  0  0
   35.8500   23.6090   40.6920 F   0  0  0  0  0  0  0  0  0  0  0  0
  1  7  1  0  0  0  0
  1  6  1  0  0  0  0
  2  1  2  0  0  0  0
  3  2  1  0  0  0  0
  3  4  2  0  0  0  0
  4  5  1  0  0  0  0
  5  6  2  0  0  0  0
  5 20  1  0  0  0  0
  8  3  1  0  0  0  0
  9 10  1  0  0  0  0
  9  8  2  0  0  0  0
 11  9  1  0  0  0  0
 12 11  1  0  0  0  0
 13 11  1  0  0  0  0
 13 15  2  0  0  0  0
 14 13  1  0  0  0  0
 15  8  1  0  0  0  0
 16  2  1  0  0  0  0
 16 18  1  0  0  0  0
 17 16  1  0  0  0  0
 19 16  1  0  0  0  0
 20 21  1  0  0  0  0
 21 23  1  0  0  0  0
 21 22  1  0  0  0  0
 24 25  1  0  0  0  0
 24 21  1  0  0  0  0
 25 30  1  0  0  0  0
 26 31  1  0  0  0  0
 26 25  2  0  0  0  0
 27 26  1  0  0  0  0
 28 27  2  0  0  0  0
 28 29  1  0  0  0  0
 29 24  2  0  0  0  0
 32 35  1  0  0  0  0
 32 33  1  0  0  0  0
 32 28  1  0  0  0  0
 34 32  1  0  0  0  0
M  END
>  <minimizedAffinity>
-5.47660589

$$$$

 OpenBabel03252505593D

 35 37  0  0  0  0  0  0  0  0999 V2000
   36.9010   30.5050   37.9830 C   0  0  0  0  0  0  0  0  0  0  0  0
   36.6340   29.7000   39.1050 C   0  0  0  0  0  0  0  0  0  0  0  0
   37.6170   29.6590   40.0910 C   0  0  0  0  0  0  0  0  0  0  0  0
   38.7480   30.3720   39.9310 N   0  0  0  0  0  0  0  0  0  0  0  0
   38.9630   31.1290   38.8390 C   0  0  0  0  0  0  0  0  0  0  0  0
   38.0460   31.1900   37.8820 N   0  0  0  0  0  0  0  0  0  0  0  0
   36.1460   30.5400   37.2200 H   0  0  0  0  0  0  0  0  0  0  0  0
   37.5150   28.8910   41.3280 C   0  0  0  0  0  0  0  0  0  0  0  0
   37.2230   29.6010   42.5020 C   0  0  0  0  0  0  0  0  0  0  0  0
   37.0430   30.6810   42.6470 H   0  0  0  0  0  0  0  0  0  0  0  0
   37.1600   28.8230   43.5960 N   0  0  0  0  0  0  0  0  0  0  0  0
   36.9650   29.0670   44.5890 H   0  0  0  0  0  0  0  0  0  0  0  0
   37.4150   27.6000   43.1110 C   0  0  0  0  0  0  0  0  0  0  0  0
   37.4710   26.6480   43.6240 H   0  0  0  0  0  0  0  0  0  0  0  0
   37.6220   27.6370   41.7900 N   0  0  0  0  0  0  0  0  0  0  0  0
   35.3480   28.9620   39.1750 C   0  0  0  0  0  0  0  0  0  0  0  0
   34.6600   29.3570   38.0350 F   0  0  0  0  0  0  0  0  0  0  0  0
   34.6670   29.4510   40.2900 F   0  0  0  0  0  0  0  0  0  0  0  0
   35.5820   27.6380   39.2070 F   0  0  0  0  0  0  0  0  0  0  0  0
   40.1210   31.8690   38.6590 O   0  0  0  0  0  0  0  0  0  0  0  0
   40.4990   32.3190   37.3740 C   0  0  0  0  0  0  0  0  0  0  0  0
   40.0930   33.3400   37.2180 H   0  0  0  0  0  0  0  0  0  0  0  0
   40.0790   31.6640   36.5710 H   0  0  0  0  0  0  0  0  0  0  0  0
   41.9700   32.3410   37.3280 C   0  0  0  0  0  0  0  0  0  0  0  0
   42.8640   33.2190   37.9040 C   0  0  0  0  0  0  0  0  0  0  0  0
   44.1980   33.0110   37.7020 C   0  0  0  0  0  0  0  0  0  0  0  0
   44.6510   31.9930   36.9700 N   0  0  0  0  0  0  0  0  0  0  0  0
   43.7750   31.1460   36.4140 C   0  0  0  0  0  0  0  0  0  0  0  0
   42.4270   31.3030   36.5810 N   0  0  0  0  0  0  0  0  0  0  0  0
   42.3580   33.9860   38.4630 H   0  0  0  0  0  0  0  0  0  0  0  0
   44.8440   33.7430   38.1870 H   0  0  0  0  0  0  0  0  0  0  0  0
   44.3780   30.0440   35.6170 C   0  0  0  0  0  0  0  0  0  0  0  0
   45.3550   29.3820   36.3300 F   0  0  0  0  0  0  0  0  0  0  0  0
   44.9390   30.5570   34.4450 F   0  0  0  0  0  0  0  0  0  0  0  0
   43.4310   29.1050   35.2400 F   0  0  0  0  0  0  0  0  0  0  0  0
  1  2  1  0  0  0  0
  2 16  1  0  0  0  0
  2  3  2  0  0  0  0
  3  8  1  0  0  0  0
  4  3  1  0  0  0  0
  5  4  2  0  0  0  0
  6  1  2  0  0  0  0
  6  5  1  0  0  0  0
  7  1  1  0  0  0  0
  8 15  1  0  0  0  0
  8  9  2  0  0  0  0
  9 10  1  0  0  0  0
  9 11  1  0  0  0  0
 11 12  1  0  0  0  0
 13 11  1  0  0  0  0
 13 14  1  0  0  0  0
 15 13  2  0  0  0  0
 16 19  1  0  0  0  0
 16 18  1  0  0  0  0
 17 16  1  0  0  0  0
 20  5  1  0  0  0  0
 21 20  1  0  0  0  0
 22 21  1  0  0  0  0
 23 21  1  0  0  0  0
 24 21  1  0  0  0  0
 24 25  1  0  0  0  0
 25 30  1  0  0  0  0
 26 25  2  0  0  0  0
 26 31  1  0  0  0  0
 27 26  1  0  0  0  0
 28 29  1  0  0  0  0
 28 27  2  0  0  0  0
 29 24  2  0  0  0  0
 32 33  1  0  0  0  0
 32 28  1  0  0  0  0
 34 32  1  0  0  0  0
 35 32  1  0  0  0  0
M  END
>  <minimizedAffinity>
-5.42562485

$$$$

 OpenBabel03252505593D

 35 37  0  0  0  0  0  0  0  0999 V2000
   36.4400   24.7040   39.2840 C   0  0  0  0  0  0  0  0  0  0  0  0
   36.9490   25.2920   40.4550 C   0  0  0  0  0  0  0  0  0  0  0  0
   36.9350   26.6840   40.5100 C   0  0  0  0  0  0  0  0  0  0  0  0
   36.4490   27.3850   39.4680 N   0  0  0  0  0  0  0  0  0  0  0  0
   35.9710   26.7790   38.3650 C   0  0  0  0  0  0  0  0  0  0  0  0
   35.9700   25.4550   38.2810 N   0  0  0  0  0  0  0  0  0  0  0  0
   36.4490   23.6310   39.2380 H   0  0  0  0  0  0  0  0  0  0  0  0
   37.4100   27.4720   41.6440 C   0  0  0  0  0  0  0  0  0  0  0  0
   36.4470   28.1640   42.3930 C   0  0  0  0  0  0  0  0  0  0  0  0
   35.3500   28.2040   42.2660 H   0  0  0  0  0  0  0  0  0  0  0  0
   36.9670   28.8730   43.4090 N   0  0  0  0  0  0  0  0  0  0  0  0
   36.5040   29.4730   44.1210 H   0  0  0  0  0  0  0  0  0  0  0  0
   38.2810   28.6290   43.3050 C   0  0  0  0  0  0  0  0  0  0  0  0
   39.1040   28.9880   43.9100 H   0  0  0  0  0  0  0  0  0  0  0  0
   38.5410   27.8130   42.2770 N   0  0  0  0  0  0  0  0  0  0  0  0
   37.4550   24.4190   41.5430 C   0  0  0  0  0  0  0  0  0  0  0  0
   37.2430   23.1270   41.0760 F   0  0  0  0  0  0  0  0  0  0  0  0
   36.6250   24.6280   42.6440 F   0  0  0  0  0  0  0  0  0  0  0  0
   38.7540   24.6800   41.7720 F   0  0  0  0  0  0  0  0  0  0  0  0
   35.4670   27.4850   37.2840 O   0  0  0  0  0  0  0  0  0  0  0  0
   34.7630   28.6950   37.4750 C   0  0  0  0  0  0  0  0  0  0  0  0
   35.2940   29.5080   36.9380 H   0  0  0  0  0  0  0  0  0  0  0  0
   34.7210   28.9780   38.5560 H   0  0  0  0  0  0  0  0  0  0  0  0
   33.4120   28.5130   36.9200 C   0  0  0  0  0  0  0  0  0  0  0  0
   32.8820   27.4650   36.1980 C   0  0  0  0  0  0  0  0  0  0  0  0
   31.5800   27.5480   35.7950 C   0  0  0  0  0  0  0  0  0  0  0  0
   30.8190   28.6040   36.0780 N   0  0  0  0  0  0  0  0  0  0  0  0
   31.3430   29.6190   36.7800 C   0  0  0  0  0  0  0  0  0  0  0  0
   32.6410   29.5930   37.2100 N   0  0  0  0  0  0  0  0  0  0  0  0
   33.6080   26.6850   36.0450 H   0  0  0  0  0  0  0  0  0  0  0  0
   31.2300   26.6830   35.2300 H   0  0  0  0  0  0  0  0  0  0  0  0
   30.4150   30.7510   37.0450 C   0  0  0  0  0  0  0  0  0  0  0  0
   29.1510   30.4910   36.5620 F   0  0  0  0  0  0  0  0  0  0  0  0
   30.9010   31.9140   36.4420 F   0  0  0  0  0  0  0  0  0  0  0  0
   30.2980   31.0110   38.4000 F   0  0  0  0  0  0  0  0  0  0  0  0
  1  2  1  0  0  0  0
  2  3  2  0  0  0  0
  2 16  1  0  0  0  0
  3  8  1  0  0  0  0
  4  3  1  0  0  0  0
  5  4  2  0  0  0  0
  6  5  1  0  0  0  0
  6  1  2  0  0  0  0
  7  1  1  0  0  0  0
  8 15  1  0  0  0  0
  8  9  2  0  0  0  0
  9 11  1  0  0  0  0
 10  9  1  0  0  0  0
 11 12  1  0  0  0  0
 13 11  1  0  0  0  0
 13 14  1  0  0  0  0
 15 13  2  0  0  0  0
 16 19  1  0  0  0  0
 16 18  1  0  0  0  0
 17 16  1  0  0  0  0
 20 21  1  0  0  0  0
 20  5  1  0  0  0  0
 21 23  1  0  0  0  0
 22 21  1  0  0  0  0
 24 29  1  0  0  0  0
 24 21  1  0  0  0  0
 25 24  2  0  0  0  0
 26 27  2  0  0  0  0
 26 25  1  0  0  0  0
 27 28  1  0  0  0  0
 28 32  1  0  0  0  0
 28 29  2  0  0  0  0
 30 25  1  0  0  0  0
 31 26  1  0  0  0  0
 32 35  1  0  0  0  0
 33 32  1  0  0  0  0
 34 32  1  0  0  0  0
M  END
>  <minimizedAffinity>
-5.3655324

$$$$
