
 OpenBabel03242512533D

 43 47  0  0  1  0  0  0  0  0999 V2000
   36.5550   29.8430   38.4770 N   0  0  0  0  0  0  0  0  0  0  0  0
   36.1320   29.4140   37.1500 C   0  0  0  0  0  0  0  0  0  0  0  0
   34.6630   29.2160   37.4670 C   0  0  0  0  0  0  0  0  0  0  0  0
   34.7660   28.3180   38.6660 C   0  0  0  0  0  0  0  0  0  0  0  0
   35.9090   28.9230   39.4490 C   0  0  1  0  0  0  0  0  0  0  0  0
   36.5680   28.4270   36.9750 H   0  0  0  0  0  0  0  0  0  0  0  0
   36.3110   30.1620   36.3850 H   0  0  0  0  0  0  0  0  0  0  0  0
   34.0980   28.7790   36.6320 H   0  0  0  0  0  0  0  0  0  0  0  0
   34.2360   30.1980   37.7800 H   0  0  0  0  0  0  0  0  0  0  0  0
   35.1140   27.3260   38.2780 H   0  0  0  0  0  0  0  0  0  0  0  0
   33.8260   28.2330   39.2400 H   0  0  0  0  0  0  0  0  0  0  0  0
   35.4910   29.5770   40.1590 H   0  0  0  0  0  0  0  0  0  0  0  0
   36.9350   27.9640   39.8130 C   0  0  0  0  0  0  0  0  0  0  0  0
   37.4880   27.1450   38.8820 N   0  0  0  0  0  0  0  0  0  0  0  0
   38.4370   26.2230   39.1370 C   0  0  0  0  0  0  0  0  0  0  0  0
   38.8780   26.0970   40.4020 N   0  0  0  0  0  0  0  0  0  0  0  0
   38.3720   26.8680   41.3410 C   0  0  0  0  0  0  0  0  0  0  0  0
   38.8650   26.7020   42.6300 C   0  0  0  0  0  0  0  0  0  0  0  0
   38.3320   27.5240   43.6300 C   0  0  0  0  0  0  0  0  0  0  0  0
   37.3490   28.4890   43.4220 C   0  0  0  0  0  0  0  0  0  0  0  0
   36.9190   28.5870   42.1120 C   0  0  0  0  0  0  0  0  0  0  0  0
   37.3890   27.8280   41.1000 C   0  0  0  0  0  0  0  0  0  0  0  0
   38.8150   25.6130   38.3210 H   0  0  0  0  0  0  0  0  0  0  0  0
   39.6220   25.9790   42.8730 H   0  0  0  0  0  0  0  0  0  0  0  0
   38.7420   27.3640   44.6250 H   0  0  0  0  0  0  0  0  0  0  0  0
   37.0160   29.0610   44.2580 H   0  0  0  0  0  0  0  0  0  0  0  0
   36.1510   29.3200   41.9910 H   0  0  0  0  0  0  0  0  0  0  0  0
   37.9890   32.8140   40.2090 C   0  0  0  0  0  0  0  0  0  0  0  0
   37.0740   31.8240   39.8790 C   0  0  0  0  0  0  0  0  0  0  0  0
   37.3970   30.8980   38.9000 C   0  0  0  0  0  0  0  0  0  0  0  0
   38.6120   31.0080   38.3000 N   0  0  0  0  0  0  0  0  0  0  0  0
   39.5030   31.9810   38.6280 C   0  0  0  0  0  0  0  0  0  0  0  0
   39.1800   32.8840   39.5890 N   0  0  0  0  0  0  0  0  0  0  0  0
   37.7470   33.5460   40.9790 H   0  0  0  0  0  0  0  0  0  0  0  0
   36.1440   31.8090   40.3670 H   0  0  0  0  0  0  0  0  0  0  0  0
   40.7650   31.9490   37.8810 C   0  0  0  0  0  0  0  0  0  0  0  0
   41.3020   33.2150   37.6710 C   0  0  0  0  0  0  0  0  0  0  0  0
   41.0360   34.2480   37.9160 H   0  0  0  0  0  0  0  0  0  0  0  0
   42.4630   33.0790   36.9730 N   0  0  0  0  0  0  0  0  0  0  0  0
   43.1670   33.7650   36.6170 H   0  0  0  0  0  0  0  0  0  0  0  0
   42.6060   31.7470   36.7750 C   0  0  0  0  0  0  0  0  0  0  0  0
   43.4350   31.2650   36.2460 H   0  0  0  0  0  0  0  0  0  0  0  0
   41.5780   31.0420   37.3230 N   0  0  0  0  0  0  0  0  0  0  0  0
  1 30  1  0  0  0  0
  1  5  1  0  0  0  0
  2  3  1  0  0  0  0
  2  1  1  0  0  0  0
  3  9  1  0  0  0  0
  3  4  1  0  0  0  0
  4 11  1  0  0  0  0
  4  5  1  0  0  0  0
  5 13  1  0  0  0  0
  5 12  1  1  0  0  0
  6  2  1  0  0  0  0
  7  2  1  0  0  0  0
  8  3  1  0  0  0  0
 10  4  1  0  0  0  0
 13 22  1  0  0  0  0
 14 15  1  0  0  0  0
 14 13  2  0  0  0  0
 15 16  2  0  0  0  0
 16 17  1  0  0  0  0
 17 18  1  0  0  0  0
 18 24  1  0  0  0  0
 18 19  2  0  0  0  0
 19 25  1  0  0  0  0
 20 19  1  0  0  0  0
 20 26  1  0  0  0  0
 21 20  2  0  0  0  0
 22 17  2  0  0  0  0
 22 21  1  0  0  0  0
 23 15  1  0  0  0  0
 27 21  1  0  0  0  0
 28 34  1  0  0  0  0
 29 28  1  0  0  0  0
 29 35  1  0  0  0  0
 30 29  2  0  0  0  0
 31 32  2  0  0  0  0
 31 30  1  0  0  0  0
 32 33  1  0  0  0  0
 33 28  2  0  0  0  0
 36 32  1  0  0  0  0
 37 36  2  0  0  0  0
 37 38  1  0  0  0  0
 39 37  1  0  0  0  0
 40 39  1  0  0  0  0
 41 39  1  0  0  0  0
 41 43  2  0  0  0  0
 42 41  1  0  0  0  0
 43 36  1  0  0  0  0
M  END
>  <minimizedAffinity>
-6.18698597

$$$$

 OpenBabel03242512533D

 43 47  0  0  1  0  0  0  0  0999 V2000
   37.0600   30.3620   39.8830 N   0  0  0  0  0  0  0  0  0  0  0  0
   37.1650   31.6710   40.5160 C   0  0  0  0  0  0  0  0  0  0  0  0
   38.6240   31.9280   40.1960 C   0  0  0  0  0  0  0  0  0  0  0  0
   39.2420   30.6670   40.7280 C   0  0  0  0  0  0  0  0  0  0  0  0
   38.2710   29.5970   40.2840 C   0  0  1  0  0  0  0  0  0  0  0  0
   37.0860   31.5150   41.5950 H   0  0  0  0  0  0  0  0  0  0  0  0
   36.4920   32.4050   40.0850 H   0  0  0  0  0  0  0  0  0  0  0  0
   39.0110   32.8440   40.6640 H   0  0  0  0  0  0  0  0  0  0  0  0
   38.7400   31.9550   39.0870 H   0  0  0  0  0  0  0  0  0  0  0  0
   39.1730   30.7390   41.8440 H   0  0  0  0  0  0  0  0  0  0  0  0
   40.2770   30.5010   40.3850 H   0  0  0  0  0  0  0  0  0  0  0  0
   38.6250   29.2120   39.3720 H   0  0  0  0  0  0  0  0  0  0  0  0
   37.8360   28.7260   41.3590 C   0  0  0  0  0  0  0  0  0  0  0  0
   37.6580   29.2020   42.6180 N   0  0  0  0  0  0  0  0  0  0  0  0
   37.2670   28.4600   43.6720 C   0  0  0  0  0  0  0  0  0  0  0  0
   37.0300   27.1500   43.4750 N   0  0  0  0  0  0  0  0  0  0  0  0
   37.1880   26.6400   42.2720 C   0  0  0  0  0  0  0  0  0  0  0  0
   36.9260   25.2830   42.1200 C   0  0  0  0  0  0  0  0  0  0  0  0
   37.0890   24.7390   40.8410 C   0  0  0  0  0  0  0  0  0  0  0  0
   37.4940   25.4590   39.7190 C   0  0  0  0  0  0  0  0  0  0  0  0
   37.7310   26.7990   39.9610 C   0  0  0  0  0  0  0  0  0  0  0  0
   37.5930   27.3890   41.1670 C   0  0  0  0  0  0  0  0  0  0  0  0
   37.1550   28.9360   44.6420 H   0  0  0  0  0  0  0  0  0  0  0  0
   36.6110   24.6590   42.9360 H   0  0  0  0  0  0  0  0  0  0  0  0
   36.8750   23.6750   40.7620 H   0  0  0  0  0  0  0  0  0  0  0  0
   37.5850   24.9420   38.7910 H   0  0  0  0  0  0  0  0  0  0  0  0
   38.0600   27.3170   39.0860 H   0  0  0  0  0  0  0  0  0  0  0  0
   33.9860   28.7430   38.5380 C   0  0  0  0  0  0  0  0  0  0  0  0
   34.8750   29.2610   39.4690 C   0  0  0  0  0  0  0  0  0  0  0  0
   36.0750   29.8030   39.0370 C   0  0  0  0  0  0  0  0  0  0  0  0
   36.3250   29.8000   37.7010 N   0  0  0  0  0  0  0  0  0  0  0  0
   35.4490   29.2910   36.7950 C   0  0  0  0  0  0  0  0  0  0  0  0
   34.2760   28.7620   37.2260 N   0  0  0  0  0  0  0  0  0  0  0  0
   33.0390   28.3160   38.8670 H   0  0  0  0  0  0  0  0  0  0  0  0
   34.6280   29.2120   40.4890 H   0  0  0  0  0  0  0  0  0  0  0  0
   35.8830   29.3720   35.3950 C   0  0  0  0  0  0  0  0  0  0  0  0
   35.8330   28.1450   34.7420 C   0  0  0  0  0  0  0  0  0  0  0  0
   35.5540   27.1160   34.9900 H   0  0  0  0  0  0  0  0  0  0  0  0
   36.2520   28.3240   33.4590 N   0  0  0  0  0  0  0  0  0  0  0  0
   36.3640   27.6740   32.6470 H   0  0  0  0  0  0  0  0  0  0  0  0
   36.5440   29.6420   33.3600 C   0  0  0  0  0  0  0  0  0  0  0  0
   36.9130   30.1490   32.4610 H   0  0  0  0  0  0  0  0  0  0  0  0
   36.3250   30.2970   34.5330 N   0  0  0  0  0  0  0  0  0  0  0  0
  1  5  1  0  0  0  0
  1  2  1  0  0  0  0
  2  6  1  0  0  0  0
  3  2  1  0  0  0  0
  3  8  1  0  0  0  0
  3  4  1  0  0  0  0
  4 10  1  0  0  0  0
  5 12  1  6  0  0  0
  5  4  1  0  0  0  0
  5 13  1  0  0  0  0
  7  2  1  0  0  0  0
  9  3  1  0  0  0  0
 11  4  1  0  0  0  0
 13 14  1  0  0  0  0
 14 15  2  0  0  0  0
 15 23  1  0  0  0  0
 16 15  1  0  0  0  0
 17 16  2  0  0  0  0
 18 17  1  0  0  0  0
 18 24  1  0  0  0  0
 19 18  2  0  0  0  0
 20 21  2  0  0  0  0
 20 19  1  0  0  0  0
 21 22  1  0  0  0  0
 22 13  2  0  0  0  0
 22 17  1  0  0  0  0
 25 19  1  0  0  0  0
 26 20  1  0  0  0  0
 27 21  1  0  0  0  0
 28 34  1  0  0  0  0
 28 29  1  0  0  0  0
 29 35  1  0  0  0  0
 30 29  2  0  0  0  0
 30  1  1  0  0  0  0
 31 30  1  0  0  0  0
 32 33  1  0  0  0  0
 32 31  2  0  0  0  0
 33 28  2  0  0  0  0
 36 32  1  0  0  0  0
 37 38  1  0  0  0  0
 37 36  2  0  0  0  0
 39 37  1  0  0  0  0
 40 39  1  0  0  0  0
 41 39  1  0  0  0  0
 41 43  2  0  0  0  0
 42 41  1  0  0  0  0
 43 36  1  0  0  0  0
M  END
>  <minimizedAffinity>
-6.02394485

$$$$

 OpenBabel03242512533D

 43 47  0  0  1  0  0  0  0  0999 V2000
   36.7780   28.4720   37.2410 N   0  0  0  0  0  0  0  0  0  0  0  0
   36.2680   27.9550   35.9780 C   0  0  0  0  0  0  0  0  0  0  0  0
   34.8600   28.5030   36.0950 C   0  0  0  0  0  0  0  0  0  0  0  0
   34.4800   27.9800   37.4510 C   0  0  0  0  0  0  0  0  0  0  0  0
   35.7350   28.2000   38.2650 C   0  0  1  0  0  0  0  0  0  0  0  0
   36.2080   26.8670   36.0740 H   0  0  0  0  0  0  0  0  0  0  0  0
   36.8080   28.3320   35.1160 H   0  0  0  0  0  0  0  0  0  0  0  0
   34.1970   28.1630   35.2870 H   0  0  0  0  0  0  0  0  0  0  0  0
   34.9190   29.6170   36.1340 H   0  0  0  0  0  0  0  0  0  0  0  0
   34.3510   26.8740   37.3280 H   0  0  0  0  0  0  0  0  0  0  0  0
   33.5820   28.4600   37.8760 H   0  0  0  0  0  0  0  0  0  0  0  0
   35.6320   29.1250   38.7550 H   0  0  0  0  0  0  0  0  0  0  0  0
   36.1850   27.0150   38.9680 C   0  0  0  0  0  0  0  0  0  0  0  0
   36.2470   25.8110   38.3430 N   0  0  0  0  0  0  0  0  0  0  0  0
   36.6440   24.6630   38.9240 C   0  0  0  0  0  0  0  0  0  0  0  0
   37.0100   24.6980   40.2190 N   0  0  0  0  0  0  0  0  0  0  0  0
   36.9670   25.8410   40.8700 C   0  0  0  0  0  0  0  0  0  0  0  0
   37.3600   25.8260   42.2040 C   0  0  0  0  0  0  0  0  0  0  0  0
   37.3190   27.0410   42.8970 C   0  0  0  0  0  0  0  0  0  0  0  0
   36.9140   28.2550   42.3460 C   0  0  0  0  0  0  0  0  0  0  0  0
   36.5430   28.1780   41.0160 C   0  0  0  0  0  0  0  0  0  0  0  0
   36.5590   27.0410   40.2880 C   0  0  0  0  0  0  0  0  0  0  0  0
   36.6580   23.7490   38.3370 H   0  0  0  0  0  0  0  0  0  0  0  0
   37.6840   24.9310   42.7010 H   0  0  0  0  0  0  0  0  0  0  0  0
   37.6330   26.9880   43.9370 H   0  0  0  0  0  0  0  0  0  0  0  0
   36.9230   29.1210   42.9670 H   0  0  0  0  0  0  0  0  0  0  0  0
   36.2180   29.1200   40.6310 H   0  0  0  0  0  0  0  0  0  0  0  0
   40.3700   29.3700   37.6520 C   0  0  0  0  0  0  0  0  0  0  0  0
   39.2540   28.6360   37.2780 C   0  0  0  0  0  0  0  0  0  0  0  0
   37.9900   29.1220   37.5700 C   0  0  0  0  0  0  0  0  0  0  0  0
   37.9050   30.3130   38.2200 N   0  0  0  0  0  0  0  0  0  0  0  0
   39.0030   31.0270   38.5830 C   0  0  0  0  0  0  0  0  0  0  0  0
   40.2380   30.5440   38.2930 N   0  0  0  0  0  0  0  0  0  0  0  0
   41.3700   28.9980   37.4260 H   0  0  0  0  0  0  0  0  0  0  0  0
   39.3920   27.7120   36.7970 H   0  0  0  0  0  0  0  0  0  0  0  0
   38.7240   32.2910   39.2760 C   0  0  0  0  0  0  0  0  0  0  0  0
   37.3770   32.6340   39.2540 C   0  0  0  0  0  0  0  0  0  0  0  0
   36.4490   32.2110   38.8550 H   0  0  0  0  0  0  0  0  0  0  0  0
   37.2230   33.8120   39.9180 N   0  0  0  0  0  0  0  0  0  0  0  0
   36.3910   34.4090   40.1310 H   0  0  0  0  0  0  0  0  0  0  0  0
   38.4670   34.1580   40.3240 C   0  0  0  0  0  0  0  0  0  0  0  0
   38.7270   35.0570   40.8930 H   0  0  0  0  0  0  0  0  0  0  0  0
   39.3970   33.2390   39.9400 N   0  0  0  0  0  0  0  0  0  0  0  0
  1 30  1  0  0  0  0
  1  5  1  0  0  0  0
  2  6  1  0  0  0  0
  2  3  1  0  0  0  0
  2  1  1  0  0  0  0
  3  9  1  0  0  0  0
  3  4  1  0  0  0  0
  4 11  1  0  0  0  0
  4  5  1  0  0  0  0
  5 12  1  1  0  0  0
  5 13  1  0  0  0  0
  7  2  1  0  0  0  0
  8  3  1  0  0  0  0
 10  4  1  0  0  0  0
 13 22  1  0  0  0  0
 14 15  1  0  0  0  0
 14 13  2  0  0  0  0
 15 16  2  0  0  0  0
 16 17  1  0  0  0  0
 17 18  1  0  0  0  0
 18 24  1  0  0  0  0
 18 19  2  0  0  0  0
 19 25  1  0  0  0  0
 20 19  1  0  0  0  0
 20 26  1  0  0  0  0
 21 20  2  0  0  0  0
 22 17  2  0  0  0  0
 22 21  1  0  0  0  0
 23 15  1  0  0  0  0
 27 21  1  0  0  0  0
 28 33  1  0  0  0  0
 29 30  1  0  0  0  0
 29 28  2  0  0  0  0
 30 31  2  0  0  0  0
 31 32  1  0  0  0  0
 32 36  1  0  0  0  0
 33 32  2  0  0  0  0
 34 28  1  0  0  0  0
 35 29  1  0  0  0  0
 36 43  1  0  0  0  0
 37 36  2  0  0  0  0
 37 39  1  0  0  0  0
 38 37  1  0  0  0  0
 39 40  1  0  0  0  0
 39 41  1  0  0  0  0
 41 42  1  0  0  0  0
 43 41  2  0  0  0  0
M  END
>  <minimizedAffinity>
-6.01473761

$$$$

 OpenBabel03242512533D

 43 47  0  0  1  0  0  0  0  0999 V2000
   38.5430   31.0630   38.8180 N   0  0  0  0  0  0  0  0  0  0  0  0
   37.2550   31.4840   38.2810 C   0  0  0  0  0  0  0  0  0  0  0  0
   37.1350   32.7830   39.0520 C   0  0  0  0  0  0  0  0  0  0  0  0
   37.3590   32.2860   40.4520 C   0  0  0  0  0  0  0  0  0  0  0  0
   38.4890   31.2960   40.2860 C   0  0  1  0  0  0  0  0  0  0  0  0
   36.5010   30.7960   38.6730 H   0  0  0  0  0  0  0  0  0  0  0  0
   37.2690   31.6200   37.2050 H   0  0  0  0  0  0  0  0  0  0  0  0
   36.1660   33.2800   38.9080 H   0  0  0  0  0  0  0  0  0  0  0  0
   37.9830   33.4450   38.7580 H   0  0  0  0  0  0  0  0  0  0  0  0
   36.4400   31.7030   40.7210 H   0  0  0  0  0  0  0  0  0  0  0  0
   37.5710   33.0880   41.1790 H   0  0  0  0  0  0  0  0  0  0  0  0
   39.3860   31.8080   40.4820 H   0  0  0  0  0  0  0  0  0  0  0  0
   38.2140   29.9970   40.8710 C   0  0  0  0  0  0  0  0  0  0  0  0
   37.0170   29.3850   40.6840 N   0  0  0  0  0  0  0  0  0  0  0  0
   36.6770   28.1870   41.1980 C   0  0  0  0  0  0  0  0  0  0  0  0
   37.5830   27.5400   41.9530 N   0  0  0  0  0  0  0  0  0  0  0  0
   38.7590   28.0920   42.1650 C   0  0  0  0  0  0  0  0  0  0  0  0
   39.6610   27.3800   42.9480 C   0  0  0  0  0  0  0  0  0  0  0  0
   40.9140   27.9640   43.1710 C   0  0  0  0  0  0  0  0  0  0  0  0
   41.3140   29.1990   42.6670 C   0  0  0  0  0  0  0  0  0  0  0  0
   40.3560   29.8350   41.8990 C   0  0  0  0  0  0  0  0  0  0  0  0
   39.1310   29.3310   41.6430 C   0  0  0  0  0  0  0  0  0  0  0  0
   35.6910   27.7820   40.9900 H   0  0  0  0  0  0  0  0  0  0  0  0
   39.4280   26.4220   43.3740 H   0  0  0  0  0  0  0  0  0  0  0  0
   41.5920   27.3770   43.7880 H   0  0  0  0  0  0  0  0  0  0  0  0
   42.2940   29.5480   42.9000 H   0  0  0  0  0  0  0  0  0  0  0  0
   40.6870   30.7880   41.5460 H   0  0  0  0  0  0  0  0  0  0  0  0
   40.9890   28.8380   37.1020 C   0  0  0  0  0  0  0  0  0  0  0  0
   39.8030   29.2420   37.6990 C   0  0  0  0  0  0  0  0  0  0  0  0
   39.6950   30.5320   38.1930 C   0  0  0  0  0  0  0  0  0  0  0  0
   40.7730   31.3510   38.0670 N   0  0  0  0  0  0  0  0  0  0  0  0
   41.9310   30.9480   37.4810 C   0  0  0  0  0  0  0  0  0  0  0  0
   42.0290   29.6830   36.9990 N   0  0  0  0  0  0  0  0  0  0  0  0
   41.0850   27.8260   36.7080 H   0  0  0  0  0  0  0  0  0  0  0  0
   39.0160   28.5520   37.7820 H   0  0  0  0  0  0  0  0  0  0  0  0
   42.9900   31.9630   37.4300 C   0  0  0  0  0  0  0  0  0  0  0  0
   42.4980   33.2490   37.2330 C   0  0  0  0  0  0  0  0  0  0  0  0
   41.5190   33.7200   37.1040 H   0  0  0  0  0  0  0  0  0  0  0  0
   43.5510   34.1110   37.2020 N   0  0  0  0  0  0  0  0  0  0  0  0
   43.6230   35.1470   37.0770 H   0  0  0  0  0  0  0  0  0  0  0  0
   44.6500   33.3390   37.3770 C   0  0  0  0  0  0  0  0  0  0  0  0
   45.6840   33.6980   37.4080 H   0  0  0  0  0  0  0  0  0  0  0  0
   44.3250   32.0240   37.5190 N   0  0  0  0  0  0  0  0  0  0  0  0
  1  5  1  0  0  0  0
  2  6  1  0  0  0  0
  2  1  1  0  0  0  0
  2  3  1  0  0  0  0
  3  4  1  0  0  0  0
  4 10  1  0  0  0  0
  4 11  1  0  0  0  0
  5  4  1  0  0  0  0
  5 12  1  1  0  0  0
  5 13  1  0  0  0  0
  7  2  1  0  0  0  0
  8  3  1  0  0  0  0
  9  3  1  0  0  0  0
 13 22  1  0  0  0  0
 14 13  2  0  0  0  0
 14 15  1  0  0  0  0
 15 16  2  0  0  0  0
 16 17  1  0  0  0  0
 17 18  1  0  0  0  0
 18 19  2  0  0  0  0
 18 24  1  0  0  0  0
 19 25  1  0  0  0  0
 20 26  1  0  0  0  0
 20 19  1  0  0  0  0
 21 20  2  0  0  0  0
 22 21  1  0  0  0  0
 22 17  2  0  0  0  0
 23 15  1  0  0  0  0
 27 21  1  0  0  0  0
 28 29  1  0  0  0  0
 29 35  1  0  0  0  0
 29 30  2  0  0  0  0
 30  1  1  0  0  0  0
 31 30  1  0  0  0  0
 32 31  2  0  0  0  0
 33 28  2  0  0  0  0
 33 32  1  0  0  0  0
 34 28  1  0  0  0  0
 36 32  1  0  0  0  0
 36 43  1  0  0  0  0
 37 36  2  0  0  0  0
 38 37  1  0  0  0  0
 39 37  1  0  0  0  0
 39 41  1  0  0  0  0
 40 39  1  0  0  0  0
 41 42  1  0  0  0  0
 41 43  2  0  0  0  0
M  END
>  <minimizedAffinity>
-5.85651398

$$$$

 OpenBabel03242512533D

 43 47  0  0  1  0  0  0  0  0999 V2000
   40.4600   28.8010   42.3950 N   0  0  0  0  0  0  0  0  0  0  0  0
   41.7930   28.2160   42.4710 C   0  0  0  0  0  0  0  0  0  0  0  0
   42.4710   29.3640   43.1920 C   0  0  0  0  0  0  0  0  0  0  0  0
   42.0870   30.5070   42.2960 C   0  0  0  0  0  0  0  0  0  0  0  0
   40.6400   30.2150   41.9710 C   0  0  1  0  0  0  0  0  0  0  0  0
   42.1900   28.1830   41.4540 H   0  0  0  0  0  0  0  0  0  0  0  0
   41.8150   27.2840   43.0270 H   0  0  0  0  0  0  0  0  0  0  0  0
   43.5570   29.2260   43.2940 H   0  0  0  0  0  0  0  0  0  0  0  0
   41.9800   29.4950   44.1850 H   0  0  0  0  0  0  0  0  0  0  0  0
   42.6770   30.3680   41.3530 H   0  0  0  0  0  0  0  0  0  0  0  0
   42.2530   31.5000   42.7480 H   0  0  0  0  0  0  0  0  0  0  0  0
   40.0510   30.7490   42.6590 H   0  0  0  0  0  0  0  0  0  0  0  0
   40.3490   30.2310   40.5510 C   0  0  0  0  0  0  0  0  0  0  0  0
   41.1450   29.5770   39.6660 N   0  0  0  0  0  0  0  0  0  0  0  0
   40.9520   29.5490   38.3330 C   0  0  0  0  0  0  0  0  0  0  0  0
   39.8960   30.2130   37.8300 N   0  0  0  0  0  0  0  0  0  0  0  0
   39.0930   30.8630   38.6460 C   0  0  0  0  0  0  0  0  0  0  0  0
   38.0140   31.5290   38.0770 C   0  0  0  0  0  0  0  0  0  0  0  0
   37.1570   32.2170   38.9440 C   0  0  0  0  0  0  0  0  0  0  0  0
   37.3120   32.2810   40.3270 C   0  0  0  0  0  0  0  0  0  0  0  0
   38.4100   31.5910   40.8060 C   0  0  0  0  0  0  0  0  0  0  0  0
   39.2750   30.9060   40.0280 C   0  0  0  0  0  0  0  0  0  0  0  0
   41.6480   28.9970   37.7080 H   0  0  0  0  0  0  0  0  0  0  0  0
   37.8260   31.5290   37.0190 H   0  0  0  0  0  0  0  0  0  0  0  0
   36.3250   32.7260   38.4610 H   0  0  0  0  0  0  0  0  0  0  0  0
   36.5980   32.8360   40.8910 H   0  0  0  0  0  0  0  0  0  0  0  0
   38.5120   31.6780   41.8660 H   0  0  0  0  0  0  0  0  0  0  0  0
   36.9780   28.2320   43.5880 C   0  0  0  0  0  0  0  0  0  0  0  0
   38.2000   28.8650   43.4170 C   0  0  0  0  0  0  0  0  0  0  0  0
   39.1790   28.2590   42.6470 C   0  0  0  0  0  0  0  0  0  0  0  0
   38.8890   27.0540   42.0890 N   0  0  0  0  0  0  0  0  0  0  0  0
   37.6890   26.4390   42.2610 C   0  0  0  0  0  0  0  0  0  0  0  0
   36.7350   27.0400   43.0170 N   0  0  0  0  0  0  0  0  0  0  0  0
   36.2000   28.7000   44.1920 H   0  0  0  0  0  0  0  0  0  0  0  0
   38.3660   29.7860   43.8950 H   0  0  0  0  0  0  0  0  0  0  0  0
   37.5490   25.1440   41.5860 C   0  0  0  0  0  0  0  0  0  0  0  0
   38.4460   24.1900   42.0540 C   0  0  0  0  0  0  0  0  0  0  0  0
   39.2430   24.1390   42.8030 H   0  0  0  0  0  0  0  0  0  0  0  0
   38.2380   23.0310   41.3690 N   0  0  0  0  0  0  0  0  0  0  0  0
   38.6860   22.0870   41.4090 H   0  0  0  0  0  0  0  0  0  0  0  0
   37.2290   23.3030   40.5080 C   0  0  0  0  0  0  0  0  0  0  0  0
   36.7920   22.5970   39.7930 H   0  0  0  0  0  0  0  0  0  0  0  0
   36.7960   24.5890   40.6270 N   0  0  0  0  0  0  0  0  0  0  0  0
  1  2  1  0  0  0  0
  1 30  1  0  0  0  0
  2  7  1  0  0  0  0
  2  3  1  0  0  0  0
  3  8  1  0  0  0  0
  3  9  1  0  0  0  0
  4 11  1  0  0  0  0
  4  3  1  0  0  0  0
  5  4  1  0  0  0  0
  5  1  1  0  0  0  0
  5 12  1  1  0  0  0
  6  2  1  0  0  0  0
 10  4  1  0  0  0  0
 13  5  1  0  0  0  0
 14 13  2  0  0  0  0
 15 14  1  0  0  0  0
 16 15  2  0  0  0  0
 16 17  1  0  0  0  0
 17 22  1  0  0  0  0
 18 17  2  0  0  0  0
 18 19  1  0  0  0  0
 19 20  2  0  0  0  0
 20 21  1  0  0  0  0
 20 26  1  0  0  0  0
 21 27  1  0  0  0  0
 22 13  1  0  0  0  0
 22 21  2  0  0  0  0
 23 15  1  0  0  0  0
 24 18  1  0  0  0  0
 25 19  1  0  0  0  0
 28 34  1  0  0  0  0
 29 28  1  0  0  0  0
 29 35  1  0  0  0  0
 30 29  2  0  0  0  0
 31 32  2  0  0  0  0
 31 30  1  0  0  0  0
 32 33  1  0  0  0  0
 33 28  2  0  0  0  0
 36 37  2  0  0  0  0
 36 32  1  0  0  0  0
 37 38  1  0  0  0  0
 39 40  1  0  0  0  0
 39 37  1  0  0  0  0
 41 43  2  0  0  0  0
 41 39  1  0  0  0  0
 42 41  1  0  0  0  0
 43 36  1  0  0  0  0
M  END
>  <minimizedAffinity>
-5.84982681

$$$$

 OpenBabel03242512533D

 43 47  0  0  1  0  0  0  0  0999 V2000
   37.5610   27.9190   40.7300 N   0  0  0  0  0  0  0  0  0  0  0  0
   38.0600   26.7820   41.4940 C   0  0  0  0  0  0  0  0  0  0  0  0
   36.9500   26.7360   42.5250 C   0  0  0  0  0  0  0  0  0  0  0  0
   36.9660   28.1610   43.0000 C   0  0  0  0  0  0  0  0  0  0  0  0
   37.1410   28.9450   41.7200 C   0  0  1  0  0  0  0  0  0  0  0  0
   38.9710   27.1090   42.0030 H   0  0  0  0  0  0  0  0  0  0  0  0
   38.1380   25.8760   40.9030 H   0  0  0  0  0  0  0  0  0  0  0  0
   37.1340   26.0000   43.3210 H   0  0  0  0  0  0  0  0  0  0  0  0
   35.9880   26.5360   41.9970 H   0  0  0  0  0  0  0  0  0  0  0  0
   37.9090   28.2750   43.5950 H   0  0  0  0  0  0  0  0  0  0  0  0
   36.0710   28.4450   43.5800 H   0  0  0  0  0  0  0  0  0  0  0  0
   36.1820   29.2210   41.3890 H   0  0  0  0  0  0  0  0  0  0  0  0
   38.2310   29.9010   41.7700 C   0  0  0  0  0  0  0  0  0  0  0  0
   39.3730   29.6260   42.4500 N   0  0  0  0  0  0  0  0  0  0  0  0
   40.4260   30.4600   42.5540 C   0  0  0  0  0  0  0  0  0  0  0  0
   40.3530   31.6550   41.9410 N   0  0  0  0  0  0  0  0  0  0  0  0
   39.2660   31.9700   41.2680 C   0  0  0  0  0  0  0  0  0  0  0  0
   39.2430   33.2140   40.6490 C   0  0  0  0  0  0  0  0  0  0  0  0
   38.0900   33.5490   39.9290 C   0  0  0  0  0  0  0  0  0  0  0  0
   36.9730   32.7280   39.7930 C   0  0  0  0  0  0  0  0  0  0  0  0
   37.0830   31.5100   40.4390 C   0  0  0  0  0  0  0  0  0  0  0  0
   38.1650   31.1230   41.1490 C   0  0  0  0  0  0  0  0  0  0  0  0
   41.2950   30.1460   43.1240 H   0  0  0  0  0  0  0  0  0  0  0  0
   40.0630   33.9060   40.7070 H   0  0  0  0  0  0  0  0  0  0  0  0
   38.1090   34.5310   39.4590 H   0  0  0  0  0  0  0  0  0  0  0  0
   36.1480   33.0850   39.2200 H   0  0  0  0  0  0  0  0  0  0  0  0
   36.2030   30.9140   40.3330 H   0  0  0  0  0  0  0  0  0  0  0  0
   38.2490   28.3660   37.0960 C   0  0  0  0  0  0  0  0  0  0  0  0
   38.4980   28.1440   38.4430 C   0  0  0  0  0  0  0  0  0  0  0  0
   37.4400   28.1360   39.3380 C   0  0  0  0  0  0  0  0  0  0  0  0
   36.1920   28.3510   38.8440 N   0  0  0  0  0  0  0  0  0  0  0  0
   35.9560   28.5690   37.5240 C   0  0  0  0  0  0  0  0  0  0  0  0
   36.9980   28.5740   36.6530 N   0  0  0  0  0  0  0  0  0  0  0  0
   39.0740   28.3730   36.3830 H   0  0  0  0  0  0  0  0  0  0  0  0
   39.4890   28.0050   38.7610 H   0  0  0  0  0  0  0  0  0  0  0  0
   34.5490   28.7820   37.1680 C   0  0  0  0  0  0  0  0  0  0  0  0
   33.7230   28.9110   38.2800 C   0  0  0  0  0  0  0  0  0  0  0  0
   33.8380   28.8980   39.3690 H   0  0  0  0  0  0  0  0  0  0  0  0
   32.4470   29.1040   37.8480 N   0  0  0  0  0  0  0  0  0  0  0  0
   31.5380   29.2450   38.3450 H   0  0  0  0  0  0  0  0  0  0  0  0
   32.5220   29.0870   36.4960 C   0  0  0  0  0  0  0  0  0  0  0  0
   31.6790   29.2140   35.8080 H   0  0  0  0  0  0  0  0  0  0  0  0
   33.7990   28.8910   36.0640 N   0  0  0  0  0  0  0  0  0  0  0  0
  1  2  1  0  0  0  0
  1  5  1  0  0  0  0
  2  6  1  0  0  0  0
  2  3  1  0  0  0  0
  3  4  1  0  0  0  0
  3  8  1  0  0  0  0
  4 11  1  0  0  0  0
  4 10  1  0  0  0  0
  5 12  1  6  0  0  0
  5 13  1  0  0  0  0
  5  4  1  0  0  0  0
  7  2  1  0  0  0  0
  9  3  1  0  0  0  0
 13 14  1  0  0  0  0
 14 15  2  0  0  0  0
 15 23  1  0  0  0  0
 16 15  1  0  0  0  0
 17 16  2  0  0  0  0
 18 24  1  0  0  0  0
 18 17  1  0  0  0  0
 19 18  2  0  0  0  0
 20 19  1  0  0  0  0
 20 21  2  0  0  0  0
 21 22  1  0  0  0  0
 22 17  1  0  0  0  0
 22 13  2  0  0  0  0
 25 19  1  0  0  0  0
 26 20  1  0  0  0  0
 27 21  1  0  0  0  0
 28 29  1  0  0  0  0
 29 35  1  0  0  0  0
 29 30  2  0  0  0  0
 30  1  1  0  0  0  0
 31 30  1  0  0  0  0
 32 31  2  0  0  0  0
 33 28  2  0  0  0  0
 33 32  1  0  0  0  0
 34 28  1  0  0  0  0
 36 32  1  0  0  0  0
 36 37  2  0  0  0  0
 37 38  1  0  0  0  0
 39 37  1  0  0  0  0
 39 40  1  0  0  0  0
 41 39  1  0  0  0  0
 42 41  1  0  0  0  0
 43 41  2  0  0  0  0
 43 36  1  0  0  0  0
M  END
>  <minimizedAffinity>
-5.83028889

$$$$

 OpenBabel03242512533D

 43 47  0  0  1  0  0  0  0  0999 V2000
   38.1750   30.3420   40.9470 N   0  0  0  0  0  0  0  0  0  0  0  0
   39.2810   31.2870   40.8490 C   0  0  0  0  0  0  0  0  0  0  0  0
   38.4540   32.5570   40.8520 C   0  0  0  0  0  0  0  0  0  0  0  0
   37.4880   32.2510   39.7430 C   0  0  0  0  0  0  0  0  0  0  0  0
   37.1370   30.8020   39.9870 C   0  0  1  0  0  0  0  0  0  0  0  0
   39.7140   31.1760   39.8520 H   0  0  0  0  0  0  0  0  0  0  0  0
   39.9710   31.2190   41.6840 H   0  0  0  0  0  0  0  0  0  0  0  0
   39.0550   33.4610   40.6810 H   0  0  0  0  0  0  0  0  0  0  0  0
   37.8980   32.6120   41.8180 H   0  0  0  0  0  0  0  0  0  0  0  0
   38.0850   32.2960   38.7960 H   0  0  0  0  0  0  0  0  0  0  0  0
   36.6140   32.9250   39.7170 H   0  0  0  0  0  0  0  0  0  0  0  0
   36.2550   30.7850   40.5600 H   0  0  0  0  0  0  0  0  0  0  0  0
   37.2950   29.9610   38.8160 C   0  0  0  0  0  0  0  0  0  0  0  0
   38.5090   29.8020   38.2270 N   0  0  0  0  0  0  0  0  0  0  0  0
   38.7410   29.0500   37.1350 C   0  0  0  0  0  0  0  0  0  0  0  0
   37.7020   28.4010   36.5770 N   0  0  0  0  0  0  0  0  0  0  0  0
   36.5040   28.5220   37.1100 C   0  0  0  0  0  0  0  0  0  0  0  0
   35.4660   27.8280   36.5000 C   0  0  0  0  0  0  0  0  0  0  0  0
   34.1930   27.9520   37.0680 C   0  0  0  0  0  0  0  0  0  0  0  0
   33.8980   28.7190   38.1930 C   0  0  0  0  0  0  0  0  0  0  0  0
   34.9880   29.3730   38.7350 C   0  0  0  0  0  0  0  0  0  0  0  0
   36.2420   29.2970   38.2400 C   0  0  0  0  0  0  0  0  0  0  0  0
   39.7500   28.9890   36.7380 H   0  0  0  0  0  0  0  0  0  0  0  0
   35.6110   27.2170   35.6290 H   0  0  0  0  0  0  0  0  0  0  0  0
   33.4070   27.3950   36.5620 H   0  0  0  0  0  0  0  0  0  0  0  0
   32.8900   28.7410   38.5400 H   0  0  0  0  0  0  0  0  0  0  0  0
   34.7240   29.9670   39.5820 H   0  0  0  0  0  0  0  0  0  0  0  0
   36.7160   27.5820   42.9790 C   0  0  0  0  0  0  0  0  0  0  0  0
   36.7670   28.7320   42.2040 C   0  0  0  0  0  0  0  0  0  0  0  0
   37.9920   29.1890   41.7440 C   0  0  0  0  0  0  0  0  0  0  0  0
   39.1000   28.4760   42.0810 N   0  0  0  0  0  0  0  0  0  0  0  0
   39.0420   27.3510   42.8400 C   0  0  0  0  0  0  0  0  0  0  0  0
   37.8390   26.9100   43.2870 N   0  0  0  0  0  0  0  0  0  0  0  0
   35.7580   27.2120   43.3450 H   0  0  0  0  0  0  0  0  0  0  0  0
   35.8740   29.2450   41.9990 H   0  0  0  0  0  0  0  0  0  0  0  0
   40.3350   26.7110   43.1050 C   0  0  0  0  0  0  0  0  0  0  0  0
   40.3240   25.3430   42.8510 C   0  0  0  0  0  0  0  0  0  0  0  0
   39.6010   24.6000   42.5010 H   0  0  0  0  0  0  0  0  0  0  0  0
   41.5610   24.8450   43.1260 N   0  0  0  0  0  0  0  0  0  0  0  0
   41.9730   23.8850   43.0710 H   0  0  0  0  0  0  0  0  0  0  0  0
   42.2900   25.9080   43.5370 C   0  0  0  0  0  0  0  0  0  0  0  0
   43.3420   25.8820   43.8430 H   0  0  0  0  0  0  0  0  0  0  0  0
   41.5570   27.0560   43.5310 N   0  0  0  0  0  0  0  0  0  0  0  0
  1 30  1  0  0  0  0
  2  3  1  0  0  0  0
  2  1  1  0  0  0  0
  2  7  1  0  0  0  0
  3  9  1  0  0  0  0
  4  5  1  0  0  0  0
  4  3  1  0  0  0  0
  5 12  1  1  0  0  0
  5  1  1  0  0  0  0
  6  2  1  0  0  0  0
  8  3  1  0  0  0  0
 10  4  1  0  0  0  0
 11  4  1  0  0  0  0
 13  5  1  0  0  0  0
 14 13  2  0  0  0  0
 15 14  1  0  0  0  0
 16 17  1  0  0  0  0
 16 15  2  0  0  0  0
 17 22  1  0  0  0  0
 18 19  1  0  0  0  0
 18 17  2  0  0  0  0
 19 20  2  0  0  0  0
 20 26  1  0  0  0  0
 20 21  1  0  0  0  0
 21 27  1  0  0  0  0
 22 21  2  0  0  0  0
 22 13  1  0  0  0  0
 23 15  1  0  0  0  0
 24 18  1  0  0  0  0
 25 19  1  0  0  0  0
 28 33  1  0  0  0  0
 28 34  1  0  0  0  0
 29 28  2  0  0  0  0
 30 31  2  0  0  0  0
 30 29  1  0  0  0  0
 31 32  1  0  0  0  0
 32 36  1  0  0  0  0
 32 33  2  0  0  0  0
 35 29  1  0  0  0  0
 36 43  1  0  0  0  0
 37 36  2  0  0  0  0
 37 39  1  0  0  0  0
 38 37  1  0  0  0  0
 39 41  1  0  0  0  0
 40 39  1  0  0  0  0
 41 42  1  0  0  0  0
 43 41  2  0  0  0  0
M  END
>  <minimizedAffinity>
-5.74682522

$$$$

 OpenBabel03242512533D

 43 47  0  0  1  0  0  0  0  0999 V2000
   38.2200   30.4490   38.9400 N   0  0  0  0  0  0  0  0  0  0  0  0
   37.1660   31.3660   38.5250 C   0  0  0  0  0  0  0  0  0  0  0  0
   36.9440   32.0310   39.8690 C   0  0  0  0  0  0  0  0  0  0  0  0
   36.7350   30.8220   40.7350 C   0  0  0  0  0  0  0  0  0  0  0  0
   37.7850   29.8570   40.2330 C   0  0  1  0  0  0  0  0  0  0  0  0
   36.2810   30.7630   38.3040 H   0  0  0  0  0  0  0  0  0  0  0  0
   37.4850   32.0550   37.7500 H   0  0  0  0  0  0  0  0  0  0  0  0
   36.0940   32.7280   39.8680 H   0  0  0  0  0  0  0  0  0  0  0  0
   37.8900   32.5400   40.1700 H   0  0  0  0  0  0  0  0  0  0  0  0
   35.7340   30.4080   40.4470 H   0  0  0  0  0  0  0  0  0  0  0  0
   36.8030   31.0330   41.8160 H   0  0  0  0  0  0  0  0  0  0  0  0
   38.6310   29.9680   40.8460 H   0  0  0  0  0  0  0  0  0  0  0  0
   37.2570   28.5480   39.8980 C   0  0  0  0  0  0  0  0  0  0  0  0
   36.4910   28.3640   38.7920 N   0  0  0  0  0  0  0  0  0  0  0  0
   35.9550   27.1870   38.4150 C   0  0  0  0  0  0  0  0  0  0  0  0
   36.1900   26.1070   39.1820 N   0  0  0  0  0  0  0  0  0  0  0  0
   36.9270   26.2330   40.2650 C   0  0  0  0  0  0  0  0  0  0  0  0
   37.1440   25.0860   41.0210 C   0  0  0  0  0  0  0  0  0  0  0  0
   37.9310   25.2170   42.1710 C   0  0  0  0  0  0  0  0  0  0  0  0
   38.5050   26.4090   42.6070 C   0  0  0  0  0  0  0  0  0  0  0  0
   38.2380   27.4970   41.7970 C   0  0  0  0  0  0  0  0  0  0  0  0
   37.4900   27.4420   40.6740 C   0  0  0  0  0  0  0  0  0  0  0  0
   35.3540   27.1440   37.5110 H   0  0  0  0  0  0  0  0  0  0  0  0
   36.7350   24.1300   40.7520 H   0  0  0  0  0  0  0  0  0  0  0  0
   38.0780   24.2980   42.7350 H   0  0  0  0  0  0  0  0  0  0  0  0
   39.0870   26.3930   43.5000 H   0  0  0  0  0  0  0  0  0  0  0  0
   38.6750   28.3970   42.1710 H   0  0  0  0  0  0  0  0  0  0  0  0
   41.0230   28.6180   37.3070 C   0  0  0  0  0  0  0  0  0  0  0  0
   39.7780   28.8350   37.8800 C   0  0  0  0  0  0  0  0  0  0  0  0
   39.4520   30.1000   38.3410 C   0  0  0  0  0  0  0  0  0  0  0  0
   40.3850   31.0810   38.2090 N   0  0  0  0  0  0  0  0  0  0  0  0
   41.6020   30.8610   37.6470 C   0  0  0  0  0  0  0  0  0  0  0  0
   41.9130   29.6190   37.1970 N   0  0  0  0  0  0  0  0  0  0  0  0
   41.2890   27.6260   36.9390 H   0  0  0  0  0  0  0  0  0  0  0  0
   39.1130   28.0270   37.9700 H   0  0  0  0  0  0  0  0  0  0  0  0
   42.4820   32.0330   37.5850 C   0  0  0  0  0  0  0  0  0  0  0  0
   41.8780   33.1320   36.9820 C   0  0  0  0  0  0  0  0  0  0  0  0
   40.9080   33.3650   36.5330 H   0  0  0  0  0  0  0  0  0  0  0  0
   42.7690   34.1610   36.9730 N   0  0  0  0  0  0  0  0  0  0  0  0
   42.7210   35.1450   36.6220 H   0  0  0  0  0  0  0  0  0  0  0  0
   43.8850   33.6720   37.5650 C   0  0  0  0  0  0  0  0  0  0  0  0
   44.8140   34.2260   37.7320 H   0  0  0  0  0  0  0  0  0  0  0  0
   43.7270   32.3740   37.9440 N   0  0  0  0  0  0  0  0  0  0  0  0
  1  5  1  0  0  0  0
  2  1  1  0  0  0  0
  2  3  1  0  0  0  0
  3  9  1  0  0  0  0
  3  4  1  0  0  0  0
  4 11  1  0  0  0  0
  5  4  1  0  0  0  0
  5 12  1  1  0  0  0
  6  2  1  0  0  0  0
  7  2  1  0  0  0  0
  8  3  1  0  0  0  0
 10  4  1  0  0  0  0
 13  5  1  0  0  0  0
 13 22  1  0  0  0  0
 14 13  2  0  0  0  0
 15 14  1  0  0  0  0
 15 16  2  0  0  0  0
 16 17  1  0  0  0  0
 17 22  2  0  0  0  0
 17 18  1  0  0  0  0
 18 19  2  0  0  0  0
 19 20  1  0  0  0  0
 19 25  1  0  0  0  0
 20 26  1  0  0  0  0
 21 27  1  0  0  0  0
 21 20  2  0  0  0  0
 22 21  1  0  0  0  0
 23 15  1  0  0  0  0
 24 18  1  0  0  0  0
 28 29  1  0  0  0  0
 29 35  1  0  0  0  0
 29 30  2  0  0  0  0
 30  1  1  0  0  0  0
 31 30  1  0  0  0  0
 32 31  2  0  0  0  0
 33 28  2  0  0  0  0
 33 32  1  0  0  0  0
 34 28  1  0  0  0  0
 36 32  1  0  0  0  0
 36 43  1  0  0  0  0
 37 36  2  0  0  0  0
 38 37  1  0  0  0  0
 39 37  1  0  0  0  0
 39 41  1  0  0  0  0
 40 39  1  0  0  0  0
 41 42  1  0  0  0  0
 41 43  2  0  0  0  0
M  END
>  <minimizedAffinity>
-5.72699881

$$$$

 OpenBabel03242512533D

 43 47  0  0  1  0  0  0  0  0999 V2000
   38.3760   27.7210   42.1500 N   0  0  0  0  0  0  0  0  0  0  0  0
   38.4580   27.1910   43.5050 C   0  0  0  0  0  0  0  0  0  0  0  0
   39.9590   27.3090   43.6720 C   0  0  0  0  0  0  0  0  0  0  0  0
   40.4240   26.5850   42.4410 C   0  0  0  0  0  0  0  0  0  0  0  0
   39.4720   27.0790   41.3760 C   0  0  1  0  0  0  0  0  0  0  0  0
   38.2130   26.1270   43.4520 H   0  0  0  0  0  0  0  0  0  0  0  0
   37.8960   27.7790   44.2240 H   0  0  0  0  0  0  0  0  0  0  0  0
   40.3230   26.8670   44.6110 H   0  0  0  0  0  0  0  0  0  0  0  0
   40.2380   28.3860   43.5930 H   0  0  0  0  0  0  0  0  0  0  0  0
   40.1960   25.5020   42.6180 H   0  0  0  0  0  0  0  0  0  0  0  0
   41.4880   26.7540   42.2020 H   0  0  0  0  0  0  0  0  0  0  0  0
   39.9340   27.8910   40.8940 H   0  0  0  0  0  0  0  0  0  0  0  0
   38.8380   26.0120   40.6240 C   0  0  0  0  0  0  0  0  0  0  0  0
   38.3940   24.8880   41.2430 N   0  0  0  0  0  0  0  0  0  0  0  0
   37.8050   23.8490   40.6200 C   0  0  0  0  0  0  0  0  0  0  0  0
   37.6370   23.9190   39.2870 N   0  0  0  0  0  0  0  0  0  0  0  0
   38.0510   24.9880   38.6400 C   0  0  0  0  0  0  0  0  0  0  0  0
   37.8490   25.0140   37.2650 C   0  0  0  0  0  0  0  0  0  0  0  0
   38.2850   26.1520   36.5760 C   0  0  0  0  0  0  0  0  0  0  0  0
   38.9020   27.2500   37.1690 C   0  0  0  0  0  0  0  0  0  0  0  0
   39.0610   27.1410   38.5380 C   0  0  0  0  0  0  0  0  0  0  0  0
   38.6640   26.0740   39.2650 C   0  0  0  0  0  0  0  0  0  0  0  0
   37.4850   22.9920   41.2070 H   0  0  0  0  0  0  0  0  0  0  0  0
   37.3830   24.2060   36.7330 H   0  0  0  0  0  0  0  0  0  0  0  0
   38.1110   26.1340   35.5010 H   0  0  0  0  0  0  0  0  0  0  0  0
   39.1940   28.0650   36.5470 H   0  0  0  0  0  0  0  0  0  0  0  0
   39.5560   27.9890   38.9580 H   0  0  0  0  0  0  0  0  0  0  0  0
   35.4200   29.3930   40.6180 C   0  0  0  0  0  0  0  0  0  0  0  0
   36.1870   28.3880   41.1920 C   0  0  0  0  0  0  0  0  0  0  0  0
   37.4970   28.6550   41.5560 C   0  0  0  0  0  0  0  0  0  0  0  0
   37.9740   29.9070   41.3280 N   0  0  0  0  0  0  0  0  0  0  0  0
   37.2180   30.8860   40.7660 C   0  0  0  0  0  0  0  0  0  0  0  0
   35.9350   30.6170   40.4120 N   0  0  0  0  0  0  0  0  0  0  0  0
   34.3880   29.1940   40.3290 H   0  0  0  0  0  0  0  0  0  0  0  0
   35.7620   27.4360   41.3200 H   0  0  0  0  0  0  0  0  0  0  0  0
   37.8940   32.1770   40.5950 C   0  0  0  0  0  0  0  0  0  0  0  0
   37.2710   32.9950   39.6580 C   0  0  0  0  0  0  0  0  0  0  0  0
   36.3970   32.9390   39.0010 H   0  0  0  0  0  0  0  0  0  0  0  0
   37.9700   34.1600   39.5730 N   0  0  0  0  0  0  0  0  0  0  0  0
   37.8460   35.0280   39.0020 H   0  0  0  0  0  0  0  0  0  0  0  0
   38.9930   34.0270   40.4490 C   0  0  0  0  0  0  0  0  0  0  0  0
   39.7650   34.7780   40.6480 H   0  0  0  0  0  0  0  0  0  0  0  0
   38.9620   32.8220   41.0820 N   0  0  0  0  0  0  0  0  0  0  0  0
  1  2  1  0  0  0  0
  2  3  1  0  0  0  0
  2  7  1  0  0  0  0
  3  8  1  0  0  0  0
  4 10  1  0  0  0  0
  4  3  1  0  0  0  0
  5 12  1  6  0  0  0
  5  1  1  0  0  0  0
  5  4  1  0  0  0  0
  6  2  1  0  0  0  0
  9  3  1  0  0  0  0
 11  4  1  0  0  0  0
 13 14  1  0  0  0  0
 13  5  1  0  0  0  0
 15 23  1  0  0  0  0
 15 14  2  0  0  0  0
 16 15  1  0  0  0  0
 17 22  1  0  0  0  0
 17 16  2  0  0  0  0
 18 17  1  0  0  0  0
 19 20  1  0  0  0  0
 19 18  2  0  0  0  0
 20 21  2  0  0  0  0
 21 27  1  0  0  0  0
 21 22  1  0  0  0  0
 22 13  2  0  0  0  0
 24 18  1  0  0  0  0
 25 19  1  0  0  0  0
 26 20  1  0  0  0  0
 28 29  1  0  0  0  0
 29 35  1  0  0  0  0
 29 30  2  0  0  0  0
 30  1  1  0  0  0  0
 31 30  1  0  0  0  0
 32 31  2  0  0  0  0
 33 28  2  0  0  0  0
 33 32  1  0  0  0  0
 34 28  1  0  0  0  0
 36 32  1  0  0  0  0
 36 43  1  0  0  0  0
 37 36  2  0  0  0  0
 38 37  1  0  0  0  0
 39 37  1  0  0  0  0
 39 41  1  0  0  0  0
 40 39  1  0  0  0  0
 41 42  1  0  0  0  0
 41 43  2  0  0  0  0
M  END
>  <minimizedAffinity>
-5.71304512

$$$$
