
 OpenBabel03252508283D

 38 41  0  0  1  0  0  0  0  0999 V2000
   41.2470   33.3940   39.4760 N   0  0  0  0  0  0  0  0  0  0  0  0
   41.3860   32.9940   40.8790 C   0  0  2  0  0  0  0  0  0  0  0  0
   40.2110   33.3810   41.7020 C   0  0  0  0  0  0  0  0  0  0  0  0
   39.0860   33.8160   40.8950 N   0  0  0  0  0  0  0  0  0  0  0  0
   39.3970   34.8050   39.9250 C   0  0  0  0  0  0  0  0  0  0  0  0
   40.8560   34.8210   39.5430 C   0  0  2  0  0  0  0  0  0  0  0  0
   40.5570   32.8340   38.9590 H   0  0  0  0  0  0  0  0  0  0  0  0
   41.5090   31.9000   40.8950 H   0  0  0  0  0  0  0  0  0  0  0  0
   39.8200   32.4880   42.2750 H   0  0  0  0  0  0  0  0  0  0  0  0
   40.3290   34.2570   42.3620 H   0  0  0  0  0  0  0  0  0  0  0  0
   38.6180   32.9640   40.5020 H   0  0  0  0  0  0  0  0  0  0  0  0
   39.1540   35.8190   40.3020 H   0  0  0  0  0  0  0  0  0  0  0  0
   38.7710   34.6610   39.0160 H   0  0  0  0  0  0  0  0  0  0  0  0
   41.4290   35.2650   40.3650 H   0  0  0  0  0  0  0  0  0  0  0  0
   41.0890   35.5270   38.2830 C   0  0  0  0  0  0  0  0  0  0  0  0
   40.2640   35.8250   37.2400 C   0  0  0  0  0  0  0  0  0  0  0  0
   39.2210   35.5580   37.1860 H   0  0  0  0  0  0  0  0  0  0  0  0
   40.9180   36.4990   36.2770 N   0  0  0  0  0  0  0  0  0  0  0  0
   40.6030   36.8810   35.3500 H   0  0  0  0  0  0  0  0  0  0  0  0
   42.1740   36.6330   36.7090 C   0  0  0  0  0  0  0  0  0  0  0  0
   43.0240   37.1230   36.2160 H   0  0  0  0  0  0  0  0  0  0  0  0
   42.2930   36.0540   37.9140 N   0  0  0  0  0  0  0  0  0  0  0  0
   44.6220   34.0860   42.0420 C   0  0  0  0  0  0  0  0  0  0  0  0
   43.7820   35.1760   42.3010 C   0  0  0  0  0  0  0  0  0  0  0  0
   42.4910   34.8810   41.9030 C   0  0  0  0  0  0  0  0  0  0  0  0
   42.5690   33.6440   41.4170 N   0  0  0  0  0  0  0  0  0  0  0  0
   43.8100   33.1800   41.4970 N   0  0  0  0  0  0  0  0  0  0  0  0
   44.2270   36.0690   42.7570 H   0  0  0  0  0  0  0  0  0  0  0  0
   41.8360   35.7200   42.1090 H   0  0  0  0  0  0  0  0  0  0  0  0
   48.3060   34.7940   42.2910 C   0  0  0  0  0  0  0  0  0  0  0  0
   46.9410   34.9820   41.8970 C   0  0  0  0  0  0  0  0  0  0  0  0
   46.0510   34.0380   42.3470 C   0  0  0  0  0  0  0  0  0  0  0  0
   46.4910   33.0100   43.1170 N   0  0  0  0  0  0  0  0  0  0  0  0
   47.7800   32.8530   43.4770 C   0  0  0  0  0  0  0  0  0  0  0  0
   48.6660   33.7540   43.0530 N   0  0  0  0  0  0  0  0  0  0  0  0
   48.9960   35.5480   41.9270 H   0  0  0  0  0  0  0  0  0  0  0  0
   46.6110   35.7970   41.2890 H   0  0  0  0  0  0  0  0  0  0  0  0
   48.0240   32.0050   44.0890 H   0  0  0  0  0  0  0  0  0  0  0  0
  1  6  1  0  0  0  0
  1  2  1  0  0  0  0
  2  8  1  1  0  0  0
  2 26  1  0  0  0  0
  2  3  1  0  0  0  0
  3  9  1  0  0  0  0
  3 10  1  0  0  0  0
  4  3  1  0  0  0  0
  5 12  1  0  0  0  0
  5  4  1  0  0  0  0
  6  5  1  0  0  0  0
  6 14  1  1  0  0  0
  7  1  1  0  0  0  0
 11  4  1  0  0  0  0
 13  5  1  0  0  0  0
 15  6  1  0  0  0  0
 16 15  2  0  0  0  0
 17 16  1  0  0  0  0
 18 20  1  0  0  0  0
 18 16  1  0  0  0  0
 19 18  1  0  0  0  0
 20 22  2  0  0  0  0
 21 20  1  0  0  0  0
 22 15  1  0  0  0  0
 23 24  1  0  0  0  0
 23 32  1  0  0  0  0
 24 28  1  0  0  0  0
 25 29  1  0  0  0  0
 25 24  2  0  0  0  0
 26 27  1  0  0  0  0
 26 25  1  0  0  0  0
 27 23  2  0  0  0  0
 30 35  1  0  0  0  0
 31 30  2  0  0  0  0
 31 32  1  0  0  0  0
 32 33  2  0  0  0  0
 33 34  1  0  0  0  0
 34 38  1  0  0  0  0
 35 34  2  0  0  0  0
 36 30  1  0  0  0  0
 37 31  1  0  0  0  0
M  END
>  <minimizedAffinity>
-4.49872875

>  <minimizedRMSD>
1.74203849

$$$$
