
 OpenBabel03242521303D

 46 49  0  0  1  0  0  0  0  0999 V2000
   48.0520   33.3890   42.3960 C   0  0  1  0  0  0  0  0  0  0  0  0
   46.5840   33.7230   42.1350 C   0  0  2  0  0  0  0  0  0  0  0  0
   46.4340   34.6430   41.1380 O   0  0  0  0  0  0  0  0  0  0  0  0
   46.7900   34.0470   39.9560 C   0  0  0  0  0  0  0  0  0  0  0  0
   48.2710   33.8390   39.9310 C   0  0  2  0  0  0  0  0  0  0  0  0
   48.8610   33.2180   41.1840 C   0  0  2  0  0  0  0  0  0  0  0  0
   48.0250   32.3960   42.9400 H   0  0  0  0  0  0  0  0  0  0  0  0
   46.1140   32.7440   41.8590 H   0  0  0  0  0  0  0  0  0  0  0  0
   46.5510   34.7610   39.1430 H   0  0  0  0  0  0  0  0  0  0  0  0
   46.2250   33.1160   39.7390 H   0  0  0  0  0  0  0  0  0  0  0  0
   48.5410   33.2510   39.0280 H   0  0  0  0  0  0  0  0  0  0  0  0
   49.8440   33.7260   41.2790 H   0  0  0  0  0  0  0  0  0  0  0  0
   44.6180   35.8520   44.5780 C   0  0  0  0  0  0  0  0  0  0  0  0
   45.2040   35.4230   43.3800 C   0  0  0  0  0  0  0  0  0  0  0  0
   45.9450   34.1950   43.3740 C   0  0  0  0  0  0  0  0  0  0  0  0
   46.0510   33.5010   44.5170 N   0  0  0  0  0  0  0  0  0  0  0  0
   45.4610   33.9580   45.6690 C   0  0  0  0  0  0  0  0  0  0  0  0
   44.7510   35.1230   45.6940 N   0  0  0  0  0  0  0  0  0  0  0  0
   44.0730   36.7820   44.5170 H   0  0  0  0  0  0  0  0  0  0  0  0
   45.1470   35.9450   42.4400 H   0  0  0  0  0  0  0  0  0  0  0  0
   45.5610   33.3800   46.5800 H   0  0  0  0  0  0  0  0  0  0  0  0
   48.6270   34.2580   43.3120 O   0  0  0  0  0  0  0  0  0  0  0  0
   48.0730   35.0740   43.3670 H   0  0  0  0  0  0  0  0  0  0  0  0
   48.8150   35.1190   39.7180 O   0  0  0  0  0  0  0  0  0  0  0  0
   49.2890   35.4640   40.5070 H   0  0  0  0  0  0  0  0  0  0  0  0
   49.2020   31.8770   40.9200 O   0  0  0  0  0  0  0  0  0  0  0  0
   51.3610   32.5470   41.6130 N   0  0  0  0  0  0  0  0  0  0  0  0
   51.0720   31.9350   42.9310 C   0  0  0  0  0  0  0  0  0  0  0  0
   51.5750   30.5370   42.6600 C   0  0  0  0  0  0  0  0  0  0  0  0
   50.9650   30.2860   41.2710 C   0  0  0  0  0  0  0  0  0  0  0  0
   50.5630   31.6920   40.7790 C   0  0  1  0  0  0  0  0  0  0  0  0
   51.0720   33.5320   41.6210 H   0  0  0  0  0  0  0  0  0  0  0  0
   49.9930   31.9200   43.1080 H   0  0  0  0  0  0  0  0  0  0  0  0
   51.6550   32.4470   43.7190 H   0  0  0  0  0  0  0  0  0  0  0  0
   51.1240   29.8200   43.3900 H   0  0  0  0  0  0  0  0  0  0  0  0
   52.6630   30.4810   42.6660 H   0  0  0  0  0  0  0  0  0  0  0  0
   50.0950   29.6220   41.3120 H   0  0  0  0  0  0  0  0  0  0  0  0
   51.8030   29.8800   40.6730 H   0  0  0  0  0  0  0  0  0  0  0  0
   51.0270   31.6790   39.3450 C   0  0  0  0  0  0  0  0  0  0  0  0
   50.2280   31.7060   38.2020 C   0  0  0  0  0  0  0  0  0  0  0  0
   49.1310   31.7780   38.1390 H   0  0  0  0  0  0  0  0  0  0  0  0
   50.9340   31.6390   37.0760 N   0  0  0  0  0  0  0  0  0  0  0  0
   50.6140   31.6400   36.0910 H   0  0  0  0  0  0  0  0  0  0  0  0
   52.2000   31.5690   37.5050 C   0  0  0  0  0  0  0  0  0  0  0  0
   53.1220   31.5010   36.9430 H   0  0  0  0  0  0  0  0  0  0  0  0
   52.2690   31.5910   38.8440 N   0  0  0  0  0  0  0  0  0  0  0  0
  1  7  1  1  0  0  0
  1 22  1  0  0  0  0
  2  8  1  6  0  0  0
  2  1  1  0  0  0  0
  2 15  1  0  0  0  0
  3  2  1  0  0  0  0
  4  3  1  0  0  0  0
  5 11  1  6  0  0  0
  5  4  1  0  0  0  0
  5  6  1  0  0  0  0
  6 12  1  1  0  0  0
  6  1  1  0  0  0  0
  9  4  1  0  0  0  0
 10  4  1  0  0  0  0
 13 18  1  0  0  0  0
 14 13  2  0  0  0  0
 15 14  1  0  0  0  0
 15 16  2  0  0  0  0
 16 17  1  0  0  0  0
 17 18  2  0  0  0  0
 17 21  1  0  0  0  0
 19 13  1  0  0  0  0
 20 14  1  0  0  0  0
 22 23  1  0  0  0  0
 24  5  1  0  0  0  0
 24 25  1  0  0  0  0
 26  6  1  0  0  0  0
 27 32  1  0  0  0  0
 27 28  1  0  0  0  0
 28 33  1  0  0  0  0
 28 34  1  0  0  0  0
 29 36  1  0  0  0  0
 29 28  1  0  0  0  0
 29 35  1  0  0  0  0
 30 37  1  0  0  0  0
 30 29  1  0  0  0  0
 31 26  1  1  0  0  0
 31 30  1  0  0  0  0
 31 27  1  0  0  0  0
 38 30  1  0  0  0  0
 39 31  1  0  0  0  0
 40 39  2  0  0  0  0
 41 40  1  0  0  0  0
 42 44  1  0  0  0  0
 42 40  1  0  0  0  0
 43 42  1  0  0  0  0
 44 46  2  0  0  0  0
 45 44  1  0  0  0  0
 46 39  1  0  0  0  0
M  END
>  <minimizedAffinity>
-5.91790819

>  <minimizedRMSD>
1.03203642

$$$$
