
 OpenBabel03252501393D

 44 47  0  0  0  0  0  0  0  0999 V2000
   43.7660   34.8730   40.6620 O   0  0  0  0  0  0  0  0  0  0  0  0
   42.9710   32.3010   39.3980 Cl  0  0  0  0  0  0  0  0  0  0  0  0
   41.9080   33.6000   39.9050 C   0  0  0  0  0  0  0  0  0  0  0  0
   42.3750   34.7730   40.4910 C   0  0  0  0  0  0  0  0  0  0  0  0
   41.5020   35.7560   40.8680 C   0  0  0  0  0  0  0  0  0  0  0  0
   40.1360   35.6480   40.6970 C   0  0  0  0  0  0  0  0  0  0  0  0
   39.6370   34.4700   40.1060 C   0  0  0  0  0  0  0  0  0  0  0  0
   37.9130   34.2540   39.8510 Cl  0  0  0  0  0  0  0  0  0  0  0  0
   40.5500   33.5010   39.7380 C   0  0  0  0  0  0  0  0  0  0  0  0
   41.9000   36.6530   41.3200 H   0  0  0  0  0  0  0  0  0  0  0  0
   39.4450   36.4230   40.9940 H   0  0  0  0  0  0  0  0  0  0  0  0
   39.8870   31.3740   41.3030 F   0  0  0  0  0  0  0  0  0  0  0  0
   39.7160   31.2160   39.9480 C   0  0  0  0  0  0  0  0  0  0  0  0
   40.0430   32.2760   39.1260 C   0  0  0  0  0  0  0  0  0  0  0  0
   39.8550   32.0780   37.7550 C   0  0  0  0  0  0  0  0  0  0  0  0
   39.3650   30.8630   37.3050 C   0  0  0  0  0  0  0  0  0  0  0  0
   39.0530   29.8290   38.1920 C   0  0  0  0  0  0  0  0  0  0  0  0
   39.2270   29.9940   39.5580 C   0  0  0  0  0  0  0  0  0  0  0  0
   40.1100   32.9050   37.1140 H   0  0  0  0  0  0  0  0  0  0  0  0
   39.2270   30.7310   36.2400 H   0  0  0  0  0  0  0  0  0  0  0  0
   38.6720   28.8930   37.8070 H   0  0  0  0  0  0  0  0  0  0  0  0
   38.9980   29.2190   40.2780 H   0  0  0  0  0  0  0  0  0  0  0  0
   44.3140   34.3330   41.8260 C   0  0  0  0  0  0  0  0  0  0  0  0
   44.0480   33.1940   42.3630 O   0  0  0  0  0  0  0  0  0  0  0  0
   45.2940   35.0680   42.5680 N   0  0  0  0  0  0  0  0  0  0  0  0
   45.6590   35.9750   42.2870 H   0  0  0  0  0  0  0  0  0  0  0  0
   45.6550   34.3070   43.7500 C   0  0  0  0  0  0  0  0  0  0  0  0
   45.1930   34.5080   45.0130 C   0  0  0  0  0  0  0  0  0  0  0  0
   45.6580   33.6760   46.0000 C   0  0  0  0  0  0  0  0  0  0  0  0
   46.5390   32.7180   45.6450 N   0  0  0  0  0  0  0  0  0  0  0  0
   46.9830   32.5330   44.3960 C   0  0  0  0  0  0  0  0  0  0  0  0
   46.5340   33.3460   43.4090 N   0  0  0  0  0  0  0  0  0  0  0  0
   45.2970   33.8270   47.0080 H   0  0  0  0  0  0  0  0  0  0  0  0
   47.9480   31.4600   44.0980 C   0  0  0  0  0  0  0  0  0  0  0  0
   48.0740   30.2980   44.8010 C   0  0  0  0  0  0  0  0  0  0  0  0
   47.5350   29.9330   45.6650 H   0  0  0  0  0  0  0  0  0  0  0  0
   49.0730   29.6250   44.1750 N   0  0  0  0  0  0  0  0  0  0  0  0
   49.4010   28.6800   44.4930 H   0  0  0  0  0  0  0  0  0  0  0  0
   49.5640   30.3310   43.1150 C   0  0  0  0  0  0  0  0  0  0  0  0
   50.3680   29.9280   42.5100 H   0  0  0  0  0  0  0  0  0  0  0  0
   48.8380   31.4860   43.0890 N   0  0  0  0  0  0  0  0  0  0  0  0
   44.2710   35.5600   45.2010 N   0  0  0  0  0  0  0  0  0  0  0  0
   43.2930   35.1940   45.2350 H   0  0  0  0  0  0  0  0  0  0  0  0
   44.9120   36.4000   45.2480 H   0  0  0  0  0  0  0  0  0  0  0  0
  1 23  1  0  0  0  0
  2  3  1  0  0  0  0
  3  4  1  0  0  0  0
  4  1  1  0  0  0  0
  4  5  2  0  0  0  0
  5 10  1  0  0  0  0
  6  5  1  0  0  0  0
  6 11  1  0  0  0  0
  7  6  2  0  0  0  0
  8  7  1  0  0  0  0
  9  3  2  0  0  0  0
  9  7  1  0  0  0  0
 13 12  1  0  0  0  0
 14  9  1  0  0  0  0
 14 13  2  0  0  0  0
 15 14  1  0  0  0  0
 16 15  2  0  0  0  0
 16 17  1  0  0  0  0
 17 18  2  0  0  0  0
 18 13  1  0  0  0  0
 18 22  1  0  0  0  0
 19 15  1  0  0  0  0
 20 16  1  0  0  0  0
 21 17  1  0  0  0  0
 23 24  2  0  0  0  0
 23 25  1  0  0  0  0
 25 27  1  0  0  0  0
 26 25  1  0  0  0  0
 27 28  1  0  0  0  0
 28 42  1  0  0  0  0
 28 29  2  0  0  0  0
 29 33  1  0  0  0  0
 30 29  1  0  0  0  0
 31 30  2  0  0  0  0
 32 27  2  0  0  0  0
 32 31  1  0  0  0  0
 34 31  1  0  0  0  0
 34 35  2  0  0  0  0
 35 36  1  0  0  0  0
 37 38  1  0  0  0  0
 37 35  1  0  0  0  0
 39 37  1  0  0  0  0
 40 39  1  0  0  0  0
 41 39  2  0  0  0  0
 41 34  1  0  0  0  0
 42 43  1  0  0  0  0
 42 44  1  0  0  0  0
M  END
>  <minimizedAffinity>
-6.27231359

>  <minimizedRMSD>
0.433671504

$$$$
