
 OpenBabel03242521313D

 46 49  0  0  1  0  0  0  0  0999 V2000
   39.5800   30.8300   40.8430 C   0  0  1  0  0  0  0  0  0  0  0  0
   38.0920   30.5140   40.7030 C   0  0  2  0  0  0  0  0  0  0  0  0
   37.3060   31.5720   41.0570 O   0  0  0  0  0  0  0  0  0  0  0  0
   37.4640   32.5520   40.1100 C   0  0  0  0  0  0  0  0  0  0  0  0
   38.8270   33.1530   40.2430 C   0  0  2  0  0  0  0  0  0  0  0  0
   39.9680   32.1590   40.3570 C   0  0  2  0  0  0  0  0  0  0  0  0
   40.0960   30.0580   40.1950 H   0  0  0  0  0  0  0  0  0  0  0  0
   37.9570   30.2510   39.6220 H   0  0  0  0  0  0  0  0  0  0  0  0
   36.7340   33.3530   40.3410 H   0  0  0  0  0  0  0  0  0  0  0  0
   37.2470   32.2110   39.0760 H   0  0  0  0  0  0  0  0  0  0  0  0
   38.9960   33.8600   39.4020 H   0  0  0  0  0  0  0  0  0  0  0  0
   40.6680   32.6570   41.0600 H   0  0  0  0  0  0  0  0  0  0  0  0
   37.2280   26.9480   41.6520 C   0  0  0  0  0  0  0  0  0  0  0  0
   37.5660   28.0560   40.8650 C   0  0  0  0  0  0  0  0  0  0  0  0
   37.7490   29.3270   41.5030 C   0  0  0  0  0  0  0  0  0  0  0  0
   37.5900   29.4100   42.8330 N   0  0  0  0  0  0  0  0  0  0  0  0
   37.2590   28.2980   43.5670 C   0  0  0  0  0  0  0  0  0  0  0  0
   37.0810   27.0810   42.9770 N   0  0  0  0  0  0  0  0  0  0  0  0
   37.1050   26.0210   41.1140 H   0  0  0  0  0  0  0  0  0  0  0  0
   37.7030   28.0390   39.7970 H   0  0  0  0  0  0  0  0  0  0  0  0
   37.1360   28.3900   44.6400 H   0  0  0  0  0  0  0  0  0  0  0  0
   40.0490   30.5630   42.1210 O   0  0  0  0  0  0  0  0  0  0  0  0
   39.2800   30.5220   42.7390 H   0  0  0  0  0  0  0  0  0  0  0  0
   38.7600   33.9560   41.3970 O   0  0  0  0  0  0  0  0  0  0  0  0
   39.2950   33.5950   42.1390 H   0  0  0  0  0  0  0  0  0  0  0  0
   40.6790   32.1280   39.1420 O   0  0  0  0  0  0  0  0  0  0  0  0
   42.9050   32.1140   38.3420 N   0  0  0  0  0  0  0  0  0  0  0  0
   42.3980   32.6860   37.0730 C   0  0  0  0  0  0  0  0  0  0  0  0
   42.5130   34.1530   37.4130 C   0  0  0  0  0  0  0  0  0  0  0  0
   41.9230   34.1580   38.8330 C   0  0  0  0  0  0  0  0  0  0  0  0
   41.9440   32.6730   39.2520 C   0  0  1  0  0  0  0  0  0  0  0  0
   42.8960   31.0890   38.2840 H   0  0  0  0  0  0  0  0  0  0  0  0
   41.3500   32.4120   36.9320 H   0  0  0  0  0  0  0  0  0  0  0  0
   43.0620   32.3940   36.2390 H   0  0  0  0  0  0  0  0  0  0  0  0
   41.8490   34.7540   36.7420 H   0  0  0  0  0  0  0  0  0  0  0  0
   43.5420   34.5070   37.3760 H   0  0  0  0  0  0  0  0  0  0  0  0
   40.9030   34.5570   38.8590 H   0  0  0  0  0  0  0  0  0  0  0  0
   42.6440   34.7490   39.4270 H   0  0  0  0  0  0  0  0  0  0  0  0
   42.4530   32.7420   40.6690 C   0  0  0  0  0  0  0  0  0  0  0  0
   42.6230   33.8880   41.4460 C   0  0  0  0  0  0  0  0  0  0  0  0
   42.3840   34.9310   41.1840 H   0  0  0  0  0  0  0  0  0  0  0  0
   43.1350   33.6270   42.6460 N   0  0  0  0  0  0  0  0  0  0  0  0
   43.3660   34.2720   43.4230 H   0  0  0  0  0  0  0  0  0  0  0  0
   43.2950   32.2990   42.6350 C   0  0  0  0  0  0  0  0  0  0  0  0
   43.6820   31.6380   43.3990 H   0  0  0  0  0  0  0  0  0  0  0  0
   42.8960   31.7630   41.4710 N   0  0  0  0  0  0  0  0  0  0  0  0
  1  7  1  6  0  0  0
  1 22  1  0  0  0  0
  2  8  1  6  0  0  0
  2  1  1  0  0  0  0
  2  3  1  0  0  0  0
  2 15  1  0  0  0  0
  4  5  1  0  0  0  0
  4  9  1  0  0  0  0
  4  3  1  0  0  0  0
  5 11  1  6  0  0  0
  5  6  1  0  0  0  0
  5 24  1  0  0  0  0
  6  1  1  0  0  0  0
  6 12  1  1  0  0  0
 10  4  1  0  0  0  0
 13 18  1  0  0  0  0
 14 15  1  0  0  0  0
 14 13  2  0  0  0  0
 15 16  2  0  0  0  0
 16 17  1  0  0  0  0
 17 21  1  0  0  0  0
 18 17  2  0  0  0  0
 19 13  1  0  0  0  0
 20 14  1  0  0  0  0
 22 23  1  0  0  0  0
 24 25  1  0  0  0  0
 26  6  1  0  0  0  0
 27 31  1  0  0  0  0
 28 29  1  0  0  0  0
 28 27  1  0  0  0  0
 29 30  1  0  0  0  0
 30 37  1  0  0  0  0
 30 31  1  0  0  0  0
 30 38  1  0  0  0  0
 31 26  1  6  0  0  0
 31 39  1  0  0  0  0
 32 27  1  0  0  0  0
 33 28  1  0  0  0  0
 34 28  1  0  0  0  0
 35 29  1  0  0  0  0
 36 29  1  0  0  0  0
 39 40  2  0  0  0  0
 39 46  1  0  0  0  0
 40 42  1  0  0  0  0
 41 40  1  0  0  0  0
 42 43  1  0  0  0  0
 44 42  1  0  0  0  0
 44 45  1  0  0  0  0
 46 44  2  0  0  0  0
M  END
>  <minimizedAffinity>
-5.8814621

$$$$

 OpenBabel03242521313D

 46 49  0  0  1  0  0  0  0  0999 V2000
   40.3980   29.8620   38.7290 C   0  0  1  0  0  0  0  0  0  0  0  0
   41.7300   29.7090   37.9970 C   0  0  2  0  0  0  0  0  0  0  0  0
   41.7740   30.4460   36.8490 O   0  0  0  0  0  0  0  0  0  0  0  0
   41.8080   31.7720   37.1990 C   0  0  0  0  0  0  0  0  0  0  0  0
   40.4750   32.1740   37.7440 C   0  0  2  0  0  0  0  0  0  0  0  0
   39.8860   31.2360   38.7820 C   0  0  2  0  0  0  0  0  0  0  0  0
   40.6160   29.5300   39.7890 H   0  0  0  0  0  0  0  0  0  0  0  0
   42.5000   30.0560   38.7330 H   0  0  0  0  0  0  0  0  0  0  0  0
   41.9650   32.3530   36.2680 H   0  0  0  0  0  0  0  0  0  0  0  0
   42.6440   32.0310   37.8820 H   0  0  0  0  0  0  0  0  0  0  0  0
   40.5400   33.2120   38.1360 H   0  0  0  0  0  0  0  0  0  0  0  0
   38.7980   31.2700   38.5660 H   0  0  0  0  0  0  0  0  0  0  0  0
   42.6700   26.5280   36.1630 C   0  0  0  0  0  0  0  0  0  0  0  0
   42.4440   27.8880   36.4090 C   0  0  0  0  0  0  0  0  0  0  0  0
   41.9900   28.2890   37.7090 C   0  0  0  0  0  0  0  0  0  0  0  0
   41.7970   27.3460   38.6440 N   0  0  0  0  0  0  0  0  0  0  0  0
   42.0310   26.0230   38.3590 C   0  0  0  0  0  0  0  0  0  0  0  0
   42.4640   25.6240   37.1290 N   0  0  0  0  0  0  0  0  0  0  0  0
   43.0120   26.2920   35.1660 H   0  0  0  0  0  0  0  0  0  0  0  0
   42.5830   28.6800   35.6920 H   0  0  0  0  0  0  0  0  0  0  0  0
   41.8680   25.2800   39.1310 H   0  0  0  0  0  0  0  0  0  0  0  0
   39.4530   28.9500   38.2810 O   0  0  0  0  0  0  0  0  0  0  0  0
   39.7320   28.6120   37.3960 H   0  0  0  0  0  0  0  0  0  0  0  0
   39.6310   32.2520   36.6210 O   0  0  0  0  0  0  0  0  0  0  0  0
   38.9520   31.5410   36.6080 H   0  0  0  0  0  0  0  0  0  0  0  0
   39.9940   31.8270   40.0560 O   0  0  0  0  0  0  0  0  0  0  0  0
   38.6260   33.2500   41.3580 N   0  0  0  0  0  0  0  0  0  0  0  0
   38.5530   34.1610   40.1920 C   0  0  0  0  0  0  0  0  0  0  0  0
   37.3330   33.5820   39.5140 C   0  0  0  0  0  0  0  0  0  0  0  0
   37.6490   32.0800   39.6070 C   0  0  0  0  0  0  0  0  0  0  0  0
   38.7670   31.9980   40.6670 C   0  0  1  0  0  0  0  0  0  0  0  0
   39.4250   33.5090   41.9460 H   0  0  0  0  0  0  0  0  0  0  0  0
   39.4340   34.0300   39.5580 H   0  0  0  0  0  0  0  0  0  0  0  0
   38.3900   35.1990   40.5360 H   0  0  0  0  0  0  0  0  0  0  0  0
   37.3160   33.8840   38.4370 H   0  0  0  0  0  0  0  0  0  0  0  0
   36.4090   33.8570   40.0200 H   0  0  0  0  0  0  0  0  0  0  0  0
   37.9850   31.6650   38.6510 H   0  0  0  0  0  0  0  0  0  0  0  0
   36.7130   31.6260   39.9820 H   0  0  0  0  0  0  0  0  0  0  0  0
   38.3360   30.8200   41.5030 C   0  0  0  0  0  0  0  0  0  0  0  0
   37.0870   30.1990   41.5000 C   0  0  0  0  0  0  0  0  0  0  0  0
   36.2140   30.4290   40.8710 H   0  0  0  0  0  0  0  0  0  0  0  0
   37.0000   29.2090   42.3860 N   0  0  0  0  0  0  0  0  0  0  0  0
   36.2060   28.5810   42.6020 H   0  0  0  0  0  0  0  0  0  0  0  0
   38.2080   29.1980   42.9600 C   0  0  0  0  0  0  0  0  0  0  0  0
   38.6020   28.5590   43.7410 H   0  0  0  0  0  0  0  0  0  0  0  0
   39.0080   30.1450   42.4480 N   0  0  0  0  0  0  0  0  0  0  0  0
  1  6  1  0  0  0  0
  1  7  1  1  0  0  0
  2  1  1  0  0  0  0
  2  8  1  1  0  0  0
  3  4  1  0  0  0  0
  3  2  1  0  0  0  0
  4  5  1  0  0  0  0
  4 10  1  0  0  0  0
  5 11  1  1  0  0  0
  5  6  1  0  0  0  0
  6 12  1  6  0  0  0
  6 26  1  0  0  0  0
  9  4  1  0  0  0  0
 13 14  2  0  0  0  0
 13 18  1  0  0  0  0
 14 15  1  0  0  0  0
 15  2  1  0  0  0  0
 15 16  2  0  0  0  0
 17 16  1  0  0  0  0
 17 21  1  0  0  0  0
 18 17  2  0  0  0  0
 19 13  1  0  0  0  0
 20 14  1  0  0  0  0
 22  1  1  0  0  0  0
 23 22  1  0  0  0  0
 24  5  1  0  0  0  0
 25 24  1  0  0  0  0
 27 32  1  0  0  0  0
 28 34  1  0  0  0  0
 28 27  1  0  0  0  0
 29 30  1  0  0  0  0
 29 36  1  0  0  0  0
 29 28  1  0  0  0  0
 30 38  1  0  0  0  0
 30 31  1  0  0  0  0
 31 26  1  6  0  0  0
 31 27  1  0  0  0  0
 31 39  1  0  0  0  0
 33 28  1  0  0  0  0
 35 29  1  0  0  0  0
 37 30  1  0  0  0  0
 39 46  1  0  0  0  0
 40 39  2  0  0  0  0
 40 42  1  0  0  0  0
 41 40  1  0  0  0  0
 42 43  1  0  0  0  0
 42 44  1  0  0  0  0
 44 45  1  0  0  0  0
 46 44  2  0  0  0  0
M  END
>  <minimizedAffinity>
-5.65500259

$$$$

 OpenBabel03242521313D

 46 49  0  0  1  0  0  0  0  0999 V2000
   38.8700   31.5730   39.3320 C   0  0  1  0  0  0  0  0  0  0  0  0
   37.4420   31.9640   38.9550 C   0  0  2  0  0  0  0  0  0  0  0  0
   36.9300   32.9110   39.7930 O   0  0  0  0  0  0  0  0  0  0  0  0
   37.6010   34.0850   39.5660 C   0  0  0  0  0  0  0  0  0  0  0  0
   38.9960   33.9680   40.0900 C   0  0  2  0  0  0  0  0  0  0  0  0
   39.7350   32.7020   39.6940 C   0  0  2  0  0  0  0  0  0  0  0  0
   39.2910   31.0980   38.3940 H   0  0  0  0  0  0  0  0  0  0  0  0
   37.5200   32.3490   37.9060 H   0  0  0  0  0  0  0  0  0  0  0  0
   37.0970   34.8720   40.1630 H   0  0  0  0  0  0  0  0  0  0  0  0
   37.5680   34.4180   38.5070 H   0  0  0  0  0  0  0  0  0  0  0  0
   39.5720   34.8730   39.7980 H   0  0  0  0  0  0  0  0  0  0  0  0
   40.3430   32.4720   40.5940 H   0  0  0  0  0  0  0  0  0  0  0  0
   35.5890   28.8900   37.7370 C   0  0  0  0  0  0  0  0  0  0  0  0
   36.4270   30.0130   37.7270 C   0  0  0  0  0  0  0  0  0  0  0  0
   36.5800   30.7720   38.9340 C   0  0  0  0  0  0  0  0  0  0  0  0
   35.9140   30.3790   40.0320 N   0  0  0  0  0  0  0  0  0  0  0  0
   35.1040   29.2710   39.9970 C   0  0  0  0  0  0  0  0  0  0  0  0
   34.9460   28.5370   38.8580 N   0  0  0  0  0  0  0  0  0  0  0  0
   35.5170   28.3620   36.7990 H   0  0  0  0  0  0  0  0  0  0  0  0
   36.9790   30.3670   36.8730 H   0  0  0  0  0  0  0  0  0  0  0  0
   34.5760   28.9750   40.8960 H   0  0  0  0  0  0  0  0  0  0  0  0
   38.8980   30.5490   40.2670 O   0  0  0  0  0  0  0  0  0  0  0  0
   38.0180   30.5010   40.7120 H   0  0  0  0  0  0  0  0  0  0  0  0
   38.8680   34.0420   41.4890 O   0  0  0  0  0  0  0  0  0  0  0  0
   39.0680   33.1870   41.9320 H   0  0  0  0  0  0  0  0  0  0  0  0
   40.6950   33.0130   38.7110 O   0  0  0  0  0  0  0  0  0  0  0  0
   42.0950   31.1110   38.8240 N   0  0  0  0  0  0  0  0  0  0  0  0
   42.0730   31.0700   37.3430 C   0  0  0  0  0  0  0  0  0  0  0  0
   43.2670   31.9520   37.0640 C   0  0  0  0  0  0  0  0  0  0  0  0
   43.0010   33.1020   38.0500 C   0  0  0  0  0  0  0  0  0  0  0  0
   41.9500   32.5260   39.0220 C   0  0  1  0  0  0  0  0  0  0  0  0
   41.3250   30.5430   39.1940 H   0  0  0  0  0  0  0  0  0  0  0  0
   41.1610   31.5410   36.9700 H   0  0  0  0  0  0  0  0  0  0  0  0
   42.2260   30.0320   36.9940 H   0  0  0  0  0  0  0  0  0  0  0  0
   43.2130   32.3490   36.0200 H   0  0  0  0  0  0  0  0  0  0  0  0
   44.2110   31.4410   37.2480 H   0  0  0  0  0  0  0  0  0  0  0  0
   42.6210   33.9990   37.5500 H   0  0  0  0  0  0  0  0  0  0  0  0
   43.9700   33.2560   38.5590 H   0  0  0  0  0  0  0  0  0  0  0  0
   42.4630   32.9830   40.3630 C   0  0  0  0  0  0  0  0  0  0  0  0
   42.4430   32.2660   41.5590 C   0  0  0  0  0  0  0  0  0  0  0  0
   42.0890   31.2380   41.7320 H   0  0  0  0  0  0  0  0  0  0  0  0
   42.9300   32.9600   42.5860 N   0  0  0  0  0  0  0  0  0  0  0  0
   43.0380   32.6870   43.5790 H   0  0  0  0  0  0  0  0  0  0  0  0
   43.2650   34.1330   42.0380 C   0  0  0  0  0  0  0  0  0  0  0  0
   43.7020   35.0140   42.4910 H   0  0  0  0  0  0  0  0  0  0  0  0
   42.9930   34.1610   40.7250 N   0  0  0  0  0  0  0  0  0  0  0  0
  1  7  1  6  0  0  0
  1  6  1  0  0  0  0
  1 22  1  0  0  0  0
  2  8  1  6  0  0  0
  2  1  1  0  0  0  0
  2  3  1  0  0  0  0
  4  3  1  0  0  0  0
  4  5  1  0  0  0  0
  4  9  1  0  0  0  0
  5 11  1  6  0  0  0
  5 24  1  0  0  0  0
  6  5  1  0  0  0  0
  6 12  1  1  0  0  0
 10  4  1  0  0  0  0
 13 18  1  0  0  0  0
 14 13  2  0  0  0  0
 14 15  1  0  0  0  0
 15  2  1  0  0  0  0
 15 16  2  0  0  0  0
 17 16  1  0  0  0  0
 17 21  1  0  0  0  0
 18 17  2  0  0  0  0
 19 13  1  0  0  0  0
 20 14  1  0  0  0  0
 22 23  1  0  0  0  0
 24 25  1  0  0  0  0
 26  6  1  0  0  0  0
 27 31  1  0  0  0  0
 27 32  1  0  0  0  0
 28 27  1  0  0  0  0
 29 36  1  0  0  0  0
 29 28  1  0  0  0  0
 29 30  1  0  0  0  0
 30 38  1  0  0  0  0
 30 31  1  0  0  0  0
 31 26  1  6  0  0  0
 31 39  1  0  0  0  0
 33 28  1  0  0  0  0
 34 28  1  0  0  0  0
 35 29  1  0  0  0  0
 37 30  1  0  0  0  0
 39 46  1  0  0  0  0
 39 40  2  0  0  0  0
 40 41  1  0  0  0  0
 40 42  1  0  0  0  0
 42 43  1  0  0  0  0
 44 45  1  0  0  0  0
 44 42  1  0  0  0  0
 46 44  2  0  0  0  0
M  END
>  <minimizedAffinity>
-5.63436604

$$$$

 OpenBabel03242521313D

 46 49  0  0  1  0  0  0  0  0999 V2000
   39.3660   31.4630   40.4870 C   0  0  1  0  0  0  0  0  0  0  0  0
   39.7650   32.9220   40.7040 C   0  0  2  0  0  0  0  0  0  0  0  0
   39.2750   33.7400   39.7270 O   0  0  0  0  0  0  0  0  0  0  0  0
   37.9130   33.8070   39.8740 C   0  0  0  0  0  0  0  0  0  0  0  0
   37.3080   32.4980   39.4790 C   0  0  2  0  0  0  0  0  0  0  0  0
   37.9730   31.2690   40.0700 C   0  0  2  0  0  0  0  0  0  0  0  0
   39.4970   30.9790   41.5020 H   0  0  0  0  0  0  0  0  0  0  0  0
   39.3400   33.1870   41.7070 H   0  0  0  0  0  0  0  0  0  0  0  0
   37.5420   34.5650   39.1560 H   0  0  0  0  0  0  0  0  0  0  0  0
   37.5910   34.1390   40.8840 H   0  0  0  0  0  0  0  0  0  0  0  0
   36.2210   32.5150   39.7120 H   0  0  0  0  0  0  0  0  0  0  0  0
   37.8960   30.5220   39.2530 H   0  0  0  0  0  0  0  0  0  0  0  0
   43.3240   34.0450   40.0440 C   0  0  0  0  0  0  0  0  0  0  0  0
   41.9290   33.9660   39.9480 C   0  0  0  0  0  0  0  0  0  0  0  0
   41.2290   33.0390   40.7890 C   0  0  0  0  0  0  0  0  0  0  0  0
   41.9370   32.2790   41.6390 N   0  0  0  0  0  0  0  0  0  0  0  0
   43.3040   32.3890   41.7010 C   0  0  0  0  0  0  0  0  0  0  0  0
   43.9860   33.2650   40.9090 N   0  0  0  0  0  0  0  0  0  0  0  0
   43.7910   34.7620   39.3860 H   0  0  0  0  0  0  0  0  0  0  0  0
   41.3190   34.5530   39.2820 H   0  0  0  0  0  0  0  0  0  0  0  0
   43.8530   31.7640   42.3960 H   0  0  0  0  0  0  0  0  0  0  0  0
   40.2710   30.7930   39.6770 O   0  0  0  0  0  0  0  0  0  0  0  0
   40.7990   31.4580   39.1720 H   0  0  0  0  0  0  0  0  0  0  0  0
   37.3870   32.4690   38.0750 O   0  0  0  0  0  0  0  0  0  0  0  0
   38.0310   31.8030   37.7470 H   0  0  0  0  0  0  0  0  0  0  0  0
   37.1510   30.7390   41.0850 O   0  0  0  0  0  0  0  0  0  0  0  0
   35.7790   28.8440   41.4250 N   0  0  0  0  0  0  0  0  0  0  0  0
   34.9720   29.2830   40.2630 C   0  0  0  0  0  0  0  0  0  0  0  0
   35.7230   28.5630   39.1680 C   0  0  0  0  0  0  0  0  0  0  0  0
   37.1730   28.8770   39.5700 C   0  0  0  0  0  0  0  0  0  0  0  0
   37.0590   29.3620   41.0310 C   0  0  1  0  0  0  0  0  0  0  0  0
   35.3950   29.2540   42.2840 H   0  0  0  0  0  0  0  0  0  0  0  0
   35.0610   30.3650   40.1330 H   0  0  0  0  0  0  0  0  0  0  0  0
   33.9330   28.9210   40.3690 H   0  0  0  0  0  0  0  0  0  0  0  0
   35.5080   29.0420   38.1790 H   0  0  0  0  0  0  0  0  0  0  0  0
   35.5050   27.4960   39.1490 H   0  0  0  0  0  0  0  0  0  0  0  0
   37.6240   29.6480   38.9360 H   0  0  0  0  0  0  0  0  0  0  0  0
   37.6900   27.9010   39.5150 H   0  0  0  0  0  0  0  0  0  0  0  0
   38.2080   28.6510   41.7000 C   0  0  0  0  0  0  0  0  0  0  0  0
   39.0590   27.7060   41.1270 C   0  0  0  0  0  0  0  0  0  0  0  0
   39.0720   27.3410   40.0880 H   0  0  0  0  0  0  0  0  0  0  0  0
   39.9510   27.2250   41.9900 N   0  0  0  0  0  0  0  0  0  0  0  0
   40.6980   26.5220   41.8480 H   0  0  0  0  0  0  0  0  0  0  0  0
   39.6650   27.8700   43.1260 C   0  0  0  0  0  0  0  0  0  0  0  0
   40.1300   27.8020   44.1010 H   0  0  0  0  0  0  0  0  0  0  0  0
   38.6360   28.7160   42.9690 N   0  0  0  0  0  0  0  0  0  0  0  0
  1  2  1  0  0  0  0
  1  7  1  1  0  0  0
  2 15  1  0  0  0  0
  2  8  1  1  0  0  0
  3  4  1  0  0  0  0
  3  2  1  0  0  0  0
  4 10  1  0  0  0  0
  5 11  1  1  0  0  0
  5  4  1  0  0  0  0
  5  6  1  0  0  0  0
  6 12  1  6  0  0  0
  6  1  1  0  0  0  0
  6 26  1  0  0  0  0
  9  4  1  0  0  0  0
 13 18  1  0  0  0  0
 14 13  2  0  0  0  0
 14 15  1  0  0  0  0
 15 16  2  0  0  0  0
 16 17  1  0  0  0  0
 17 21  1  0  0  0  0
 18 17  2  0  0  0  0
 19 13  1  0  0  0  0
 20 14  1  0  0  0  0
 22  1  1  0  0  0  0
 23 22  1  0  0  0  0
 24  5  1  0  0  0  0
 25 24  1  0  0  0  0
 27 32  1  0  0  0  0
 28 34  1  0  0  0  0
 28 27  1  0  0  0  0
 29 30  1  0  0  0  0
 29 28  1  0  0  0  0
 30 31  1  0  0  0  0
 31 26  1  1  0  0  0
 31 27  1  0  0  0  0
 31 39  1  0  0  0  0
 33 28  1  0  0  0  0
 35 29  1  0  0  0  0
 36 29  1  0  0  0  0
 37 30  1  0  0  0  0
 38 30  1  0  0  0  0
 39 46  1  0  0  0  0
 40 39  2  0  0  0  0
 40 42  1  0  0  0  0
 41 40  1  0  0  0  0
 42 44  1  0  0  0  0
 43 42  1  0  0  0  0
 44 45  1  0  0  0  0
 46 44  2  0  0  0  0
M  END
>  <minimizedAffinity>
-5.48772144

$$$$

 OpenBabel03242521313D

 46 49  0  0  1  0  0  0  0  0999 V2000
   40.0250   31.7890   39.9580 C   0  0  1  0  0  0  0  0  0  0  0  0
   40.4790   33.2400   40.1110 C   0  0  2  0  0  0  0  0  0  0  0  0
   39.5120   34.1240   39.7300 O   0  0  0  0  0  0  0  0  0  0  0  0
   38.4950   34.0610   40.6470 C   0  0  0  0  0  0  0  0  0  0  0  0
   37.7690   32.7630   40.4930 C   0  0  2  0  0  0  0  0  0  0  0  0
   38.6510   31.5310   40.4040 C   0  0  2  0  0  0  0  0  0  0  0  0
   40.7240   31.2000   40.6260 H   0  0  0  0  0  0  0  0  0  0  0  0
   40.7230   33.3480   41.2000 H   0  0  0  0  0  0  0  0  0  0  0  0
   37.7750   34.8660   40.3960 H   0  0  0  0  0  0  0  0  0  0  0  0
   38.8250   34.2430   41.6920 H   0  0  0  0  0  0  0  0  0  0  0  0
   37.0250   32.6620   41.3120 H   0  0  0  0  0  0  0  0  0  0  0  0
   38.1080   30.8830   39.6850 H   0  0  0  0  0  0  0  0  0  0  0  0
   44.1530   33.4830   39.2120 C   0  0  0  0  0  0  0  0  0  0  0  0
   42.9930   33.2470   39.9620 C   0  0  0  0  0  0  0  0  0  0  0  0
   41.7160   33.4660   39.3480 C   0  0  0  0  0  0  0  0  0  0  0  0
   41.6770   33.8900   38.0750 N   0  0  0  0  0  0  0  0  0  0  0  0
   42.8390   34.1090   37.3760 C   0  0  0  0  0  0  0  0  0  0  0  0
   44.0620   33.9060   37.9440 N   0  0  0  0  0  0  0  0  0  0  0  0
   45.0820   33.2990   39.7300 H   0  0  0  0  0  0  0  0  0  0  0  0
   42.9740   32.9080   40.9840 H   0  0  0  0  0  0  0  0  0  0  0  0
   42.7810   34.4520   36.3500 H   0  0  0  0  0  0  0  0  0  0  0  0
   40.2820   31.2970   38.6870 O   0  0  0  0  0  0  0  0  0  0  0  0
   40.4160   32.0580   38.0720 H   0  0  0  0  0  0  0  0  0  0  0  0
   37.0110   32.9070   39.3160 O   0  0  0  0  0  0  0  0  0  0  0  0
   37.3390   32.3400   38.5840 H   0  0  0  0  0  0  0  0  0  0  0  0
   38.5780   30.8190   41.6170 O   0  0  0  0  0  0  0  0  0  0  0  0
   39.2710   28.6380   41.0220 N   0  0  0  0  0  0  0  0  0  0  0  0
   40.0540   28.5990   42.2790 C   0  0  0  0  0  0  0  0  0  0  0  0
   38.9990   28.0310   43.1980 C   0  0  0  0  0  0  0  0  0  0  0  0
   37.7850   28.8800   42.7880 C   0  0  0  0  0  0  0  0  0  0  0  0
   38.2020   29.5020   41.4390 C   0  0  1  0  0  0  0  0  0  0  0  0
   39.8550   29.0110   40.2650 H   0  0  0  0  0  0  0  0  0  0  0  0
   40.3160   29.6150   42.5880 H   0  0  0  0  0  0  0  0  0  0  0  0
   40.9190   27.9210   42.1610 H   0  0  0  0  0  0  0  0  0  0  0  0
   39.2580   28.2580   44.2630 H   0  0  0  0  0  0  0  0  0  0  0  0
   38.8470   26.9630   43.0440 H   0  0  0  0  0  0  0  0  0  0  0  0
   37.5530   29.6580   43.5230 H   0  0  0  0  0  0  0  0  0  0  0  0
   36.9700   28.1440   42.6510 H   0  0  0  0  0  0  0  0  0  0  0  0
   36.9570   29.3350   40.6050 C   0  0  0  0  0  0  0  0  0  0  0  0
   35.6540   29.6810   40.9610 C   0  0  0  0  0  0  0  0  0  0  0  0
   35.3060   30.1660   41.8860 H   0  0  0  0  0  0  0  0  0  0  0  0
   34.7620   29.3660   40.0240 N   0  0  0  0  0  0  0  0  0  0  0  0
   33.7360   29.5030   40.0140 H   0  0  0  0  0  0  0  0  0  0  0  0
   35.5060   28.8130   39.0590 C   0  0  0  0  0  0  0  0  0  0  0  0
   35.2110   28.4060   38.1000 H   0  0  0  0  0  0  0  0  0  0  0  0
   36.8050   28.7870   39.3900 N   0  0  0  0  0  0  0  0  0  0  0  0
  1  2  1  0  0  0  0
  1  6  1  0  0  0  0
  1  7  1  1  0  0  0
  2  8  1  1  0  0  0
  3  2  1  0  0  0  0
  3  4  1  0  0  0  0
  4 10  1  0  0  0  0
  5  4  1  0  0  0  0
  5 11  1  1  0  0  0
  6 12  1  6  0  0  0
  6  5  1  0  0  0  0
  6 26  1  0  0  0  0
  9  4  1  0  0  0  0
 13 19  1  0  0  0  0
 13 14  1  0  0  0  0
 14 20  1  0  0  0  0
 15 14  2  0  0  0  0
 15  2  1  0  0  0  0
 16 15  1  0  0  0  0
 17 18  1  0  0  0  0
 17 16  2  0  0  0  0
 18 13  2  0  0  0  0
 21 17  1  0  0  0  0
 22  1  1  0  0  0  0
 23 22  1  0  0  0  0
 24  5  1  0  0  0  0
 25 24  1  0  0  0  0
 27 31  1  0  0  0  0
 27 28  1  0  0  0  0
 28 33  1  0  0  0  0
 28 29  1  0  0  0  0
 29 35  1  0  0  0  0
 30 29  1  0  0  0  0
 30 37  1  0  0  0  0
 31 26  1  1  0  0  0
 31 30  1  0  0  0  0
 32 27  1  0  0  0  0
 34 28  1  0  0  0  0
 36 29  1  0  0  0  0
 38 30  1  0  0  0  0
 39 40  2  0  0  0  0
 39 31  1  0  0  0  0
 40 41  1  0  0  0  0
 42 40  1  0  0  0  0
 43 42  1  0  0  0  0
 44 46  2  0  0  0  0
 44 42  1  0  0  0  0
 45 44  1  0  0  0  0
 46 39  1  0  0  0  0
M  END
>  <minimizedAffinity>
-5.47438145

$$$$

 OpenBabel03242521313D

 46 49  0  0  1  0  0  0  0  0999 V2000
   39.5510   31.4070   38.9230 C   0  0  1  0  0  0  0  0  0  0  0  0
   40.4230   32.3710   39.7250 C   0  0  2  0  0  0  0  0  0  0  0  0
   39.7300   33.4760   40.1300 O   0  0  0  0  0  0  0  0  0  0  0  0
   38.8210   33.0810   41.0770 C   0  0  0  0  0  0  0  0  0  0  0  0
   37.7350   32.2890   40.4220 C   0  0  2  0  0  0  0  0  0  0  0  0
   38.2050   31.2040   39.4700 C   0  0  2  0  0  0  0  0  0  0  0  0
   40.1010   30.4180   38.9730 H   0  0  0  0  0  0  0  0  0  0  0  0
   40.7790   31.7710   40.6010 H   0  0  0  0  0  0  0  0  0  0  0  0
   38.3510   33.9990   41.4840 H   0  0  0  0  0  0  0  0  0  0  0  0
   39.2780   32.5480   41.9380 H   0  0  0  0  0  0  0  0  0  0  0  0
   37.0660   31.8710   41.2050 H   0  0  0  0  0  0  0  0  0  0  0  0
   37.4360   31.2200   38.6700 H   0  0  0  0  0  0  0  0  0  0  0  0
   43.9430   32.4480   38.3220 C   0  0  0  0  0  0  0  0  0  0  0  0
   42.8350   32.0430   39.0770 C   0  0  0  0  0  0  0  0  0  0  0  0
   41.6020   32.7620   38.9360 C   0  0  0  0  0  0  0  0  0  0  0  0
   41.5540   33.7980   38.0850 N   0  0  0  0  0  0  0  0  0  0  0  0
   42.6650   34.1610   37.3630 C   0  0  0  0  0  0  0  0  0  0  0  0
   43.8450   33.4880   37.4840 N   0  0  0  0  0  0  0  0  0  0  0  0
   44.8400   31.8660   38.4730 H   0  0  0  0  0  0  0  0  0  0  0  0
   42.8250   31.2210   39.7730 H   0  0  0  0  0  0  0  0  0  0  0  0
   42.6010   35.0020   36.6820 H   0  0  0  0  0  0  0  0  0  0  0  0
   39.5430   31.7170   37.5700 O   0  0  0  0  0  0  0  0  0  0  0  0
   39.8420   32.6510   37.4570 H   0  0  0  0  0  0  0  0  0  0  0  0
   36.9560   33.2380   39.7350 O   0  0  0  0  0  0  0  0  0  0  0  0
   37.0390   33.1590   38.7590 H   0  0  0  0  0  0  0  0  0  0  0  0
   38.0300   29.9450   40.0780 O   0  0  0  0  0  0  0  0  0  0  0  0
   36.7130   27.9810   40.0660 N   0  0  0  0  0  0  0  0  0  0  0  0
   35.7390   28.6900   40.9270 C   0  0  0  0  0  0  0  0  0  0  0  0
   34.8700   29.2980   39.8520 C   0  0  0  0  0  0  0  0  0  0  0  0
   35.9460   29.8290   38.8910 C   0  0  0  0  0  0  0  0  0  0  0  0
   37.2330   29.1000   39.3310 C   0  0  1  0  0  0  0  0  0  0  0  0
   37.4010   27.4950   40.6530 H   0  0  0  0  0  0  0  0  0  0  0  0
   36.2430   29.4770   41.4940 H   0  0  0  0  0  0  0  0  0  0  0  0
   35.1890   27.9610   41.5510 H   0  0  0  0  0  0  0  0  0  0  0  0
   34.2960   30.1630   40.2680 H   0  0  0  0  0  0  0  0  0  0  0  0
   34.2090   28.5660   39.3910 H   0  0  0  0  0  0  0  0  0  0  0  0
   36.0690   30.9150   38.9620 H   0  0  0  0  0  0  0  0  0  0  0  0
   35.6160   29.4850   37.8930 H   0  0  0  0  0  0  0  0  0  0  0  0
   37.8450   28.6980   38.0130 C   0  0  0  0  0  0  0  0  0  0  0  0
   37.3420   28.9590   36.7390 C   0  0  0  0  0  0  0  0  0  0  0  0
   36.4410   29.5290   36.4650 H   0  0  0  0  0  0  0  0  0  0  0  0
   38.0900   28.4330   35.7710 N   0  0  0  0  0  0  0  0  0  0  0  0
   37.9630   28.4650   34.7440 H   0  0  0  0  0  0  0  0  0  0  0  0
   39.0820   27.8300   36.4360 C   0  0  0  0  0  0  0  0  0  0  0  0
   39.9300   27.2700   36.0630 H   0  0  0  0  0  0  0  0  0  0  0  0
   38.9490   27.9790   37.7620 N   0  0  0  0  0  0  0  0  0  0  0  0
  1  7  1  1  0  0  0
  1  6  1  0  0  0  0
  1  2  1  0  0  0  0
  2  3  1  0  0  0  0
  2  8  1  1  0  0  0
  3  4  1  0  0  0  0
  4  9  1  0  0  0  0
  4 10  1  0  0  0  0
  5  4  1  0  0  0  0
  5 11  1  1  0  0  0
  6 12  1  6  0  0  0
  6 26  1  0  0  0  0
  6  5  1  0  0  0  0
 13 19  1  0  0  0  0
 13 14  1  0  0  0  0
 14 20  1  0  0  0  0
 15 14  2  0  0  0  0
 15  2  1  0  0  0  0
 16 15  1  0  0  0  0
 17 18  1  0  0  0  0
 17 16  2  0  0  0  0
 18 13  2  0  0  0  0
 21 17  1  0  0  0  0
 22  1  1  0  0  0  0
 23 22  1  0  0  0  0
 24  5  1  0  0  0  0
 25 24  1  0  0  0  0
 27 32  1  0  0  0  0
 27 28  1  0  0  0  0
 28 33  1  0  0  0  0
 28 34  1  0  0  0  0
 29 35  1  0  0  0  0
 29 28  1  0  0  0  0
 30 37  1  0  0  0  0
 30 31  1  0  0  0  0
 30 29  1  0  0  0  0
 31 27  1  0  0  0  0
 31 26  1  1  0  0  0
 36 29  1  0  0  0  0
 38 30  1  0  0  0  0
 39 31  1  0  0  0  0
 40 39  2  0  0  0  0
 41 40  1  0  0  0  0
 42 44  1  0  0  0  0
 42 40  1  0  0  0  0
 43 42  1  0  0  0  0
 44 46  2  0  0  0  0
 45 44  1  0  0  0  0
 46 39  1  0  0  0  0
M  END
>  <minimizedAffinity>
-5.45767021

$$$$

 OpenBabel03242521313D

 46 49  0  0  1  0  0  0  0  0999 V2000
   37.6570   28.4310   40.5660 C   0  0  1  0  0  0  0  0  0  0  0  0
   37.2470   27.5260   41.7260 C   0  0  2  0  0  0  0  0  0  0  0  0
   38.0870   27.6470   42.7950 O   0  0  0  0  0  0  0  0  0  0  0  0
   37.9000   28.8900   43.3420 C   0  0  0  0  0  0  0  0  0  0  0  0
   38.4600   29.9260   42.4210 C   0  0  2  0  0  0  0  0  0  0  0  0
   38.0630   29.7840   40.9630 C   0  0  2  0  0  0  0  0  0  0  0  0
   36.7230   28.5200   39.9320 H   0  0  0  0  0  0  0  0  0  0  0  0
   36.2070   27.8520   41.9880 H   0  0  0  0  0  0  0  0  0  0  0  0
   38.4960   28.9320   44.2760 H   0  0  0  0  0  0  0  0  0  0  0  0
   36.8460   29.0970   43.6270 H   0  0  0  0  0  0  0  0  0  0  0  0
   38.2010   30.9360   42.8080 H   0  0  0  0  0  0  0  0  0  0  0  0
   38.9750   30.1070   40.4200 H   0  0  0  0  0  0  0  0  0  0  0  0
   37.7020   23.7650   41.6080 C   0  0  0  0  0  0  0  0  0  0  0  0
   37.7710   25.0860   42.0690 C   0  0  0  0  0  0  0  0  0  0  0  0
   37.1810   26.1260   41.2770 C   0  0  0  0  0  0  0  0  0  0  0  0
   36.5840   25.7960   40.1220 N   0  0  0  0  0  0  0  0  0  0  0  0
   36.5390   24.4880   39.7080 C   0  0  0  0  0  0  0  0  0  0  0  0
   37.0940   23.4860   40.4480 N   0  0  0  0  0  0  0  0  0  0  0  0
   38.1630   23.0290   42.2500 H   0  0  0  0  0  0  0  0  0  0  0  0
   38.2390   25.3990   42.9870 H   0  0  0  0  0  0  0  0  0  0  0  0
   36.0510   24.2470   38.7700 H   0  0  0  0  0  0  0  0  0  0  0  0
   38.5740   27.8160   39.7270 O   0  0  0  0  0  0  0  0  0  0  0  0
   38.9930   27.0640   40.2110 H   0  0  0  0  0  0  0  0  0  0  0  0
   39.8560   29.8210   42.5600 O   0  0  0  0  0  0  0  0  0  0  0  0
   40.2900   29.4610   41.7550 H   0  0  0  0  0  0  0  0  0  0  0  0
   37.1130   30.7730   40.6420 O   0  0  0  0  0  0  0  0  0  0  0  0
   36.9870   32.8130   39.4520 N   0  0  0  0  0  0  0  0  0  0  0  0
   37.9450   33.3820   40.4280 C   0  0  0  0  0  0  0  0  0  0  0  0
   39.2350   33.0340   39.7240 C   0  0  0  0  0  0  0  0  0  0  0  0
   38.9470   31.5790   39.3190 C   0  0  0  0  0  0  0  0  0  0  0  0
   37.4180   31.4430   39.4730 C   0  0  1  0  0  0  0  0  0  0  0  0
   36.0270   32.9670   39.7830 H   0  0  0  0  0  0  0  0  0  0  0  0
   37.8760   32.8450   41.3770 H   0  0  0  0  0  0  0  0  0  0  0  0
   37.7920   34.4740   40.5100 H   0  0  0  0  0  0  0  0  0  0  0  0
   40.0840   33.0460   40.4540 H   0  0  0  0  0  0  0  0  0  0  0  0
   39.4310   33.6840   38.8730 H   0  0  0  0  0  0  0  0  0  0  0  0
   39.4700   30.8570   39.9560 H   0  0  0  0  0  0  0  0  0  0  0  0
   39.2450   31.5270   38.2550 H   0  0  0  0  0  0  0  0  0  0  0  0
   37.0310   30.6910   38.2250 C   0  0  0  0  0  0  0  0  0  0  0  0
   37.7070   30.6840   37.0050 C   0  0  0  0  0  0  0  0  0  0  0  0
   38.6510   31.1870   36.7460 H   0  0  0  0  0  0  0  0  0  0  0  0
   37.0900   29.9560   36.0770 N   0  0  0  0  0  0  0  0  0  0  0  0
   37.3560   29.7720   35.0930 H   0  0  0  0  0  0  0  0  0  0  0  0
   36.0070   29.4930   36.7120 C   0  0  0  0  0  0  0  0  0  0  0  0
   35.2100   28.8550   36.3550 H   0  0  0  0  0  0  0  0  0  0  0  0
   35.9600   29.9210   37.9830 N   0  0  0  0  0  0  0  0  0  0  0  0
  1  7  1  6  0  0  0
  1  6  1  0  0  0  0
  1  2  1  0  0  0  0
  2  8  1  1  0  0  0
  2  3  1  0  0  0  0
  3  4  1  0  0  0  0
  4 10  1  0  0  0  0
  4  9  1  0  0  0  0
  5 24  1  0  0  0  0
  5 11  1  1  0  0  0
  5  4  1  0  0  0  0
  6 12  1  6  0  0  0
  6  5  1  0  0  0  0
 13 14  1  0  0  0  0
 13 19  1  0  0  0  0
 14 20  1  0  0  0  0
 15  2  1  0  0  0  0
 15 14  2  0  0  0  0
 16 15  1  0  0  0  0
 17 16  2  0  0  0  0
 17 18  1  0  0  0  0
 18 13  2  0  0  0  0
 21 17  1  0  0  0  0
 22 23  1  0  0  0  0
 22  1  1  0  0  0  0
 25 24  1  0  0  0  0
 26  6  1  0  0  0  0
 27 31  1  0  0  0  0
 27 32  1  0  0  0  0
 27 28  1  0  0  0  0
 28 34  1  0  0  0  0
 28 33  1  0  0  0  0
 29 28  1  0  0  0  0
 29 35  1  0  0  0  0
 30 31  1  0  0  0  0
 30 29  1  0  0  0  0
 30 37  1  0  0  0  0
 31 26  1  1  0  0  0
 36 29  1  0  0  0  0
 38 30  1  0  0  0  0
 39 31  1  0  0  0  0
 40 39  2  0  0  0  0
 41 40  1  0  0  0  0
 42 44  1  0  0  0  0
 42 40  1  0  0  0  0
 43 42  1  0  0  0  0
 44 46  2  0  0  0  0
 45 44  1  0  0  0  0
 46 39  1  0  0  0  0
M  END
>  <minimizedAffinity>
-5.42767

$$$$

 OpenBabel03242521313D

 46 49  0  0  1  0  0  0  0  0999 V2000
   38.6380   29.1390   41.0560 C   0  0  1  0  0  0  0  0  0  0  0  0
   37.4510   30.0880   41.2200 C   0  0  2  0  0  0  0  0  0  0  0  0
   36.3510   29.6580   40.5360 O   0  0  0  0  0  0  0  0  0  0  0  0
   35.8820   28.5280   41.1550 C   0  0  0  0  0  0  0  0  0  0  0  0
   36.8300   27.3980   40.9090 C   0  0  2  0  0  0  0  0  0  0  0  0
   38.2950   27.7150   41.1430 C   0  0  2  0  0  0  0  0  0  0  0  0
   39.3210   29.3870   41.9250 H   0  0  0  0  0  0  0  0  0  0  0  0
   37.2590   30.1150   42.3230 H   0  0  0  0  0  0  0  0  0  0  0  0
   34.9240   28.2590   40.6670 H   0  0  0  0  0  0  0  0  0  0  0  0
   35.6610   28.6720   42.2340 H   0  0  0  0  0  0  0  0  0  0  0  0
   36.5110   26.5180   41.5090 H   0  0  0  0  0  0  0  0  0  0  0  0
   38.8100   27.1270   40.3550 H   0  0  0  0  0  0  0  0  0  0  0  0
   37.3490   33.4820   39.5370 C   0  0  0  0  0  0  0  0  0  0  0  0
   36.9580   32.1970   39.9350 C   0  0  0  0  0  0  0  0  0  0  0  0
   37.8260   31.4450   40.7930 C   0  0  0  0  0  0  0  0  0  0  0  0
   38.9840   32.0000   41.1850 N   0  0  0  0  0  0  0  0  0  0  0  0
   39.3280   33.2630   40.7710 C   0  0  0  0  0  0  0  0  0  0  0  0
   38.5140   33.9930   39.9550 N   0  0  0  0  0  0  0  0  0  0  0  0
   36.6520   33.9960   38.8930 H   0  0  0  0  0  0  0  0  0  0  0  0
   36.0410   31.7110   39.6470 H   0  0  0  0  0  0  0  0  0  0  0  0
   40.2680   33.6890   41.1000 H   0  0  0  0  0  0  0  0  0  0  0  0
   39.3960   29.4460   39.9360 O   0  0  0  0  0  0  0  0  0  0  0  0
   38.8520   29.9990   39.3250 H   0  0  0  0  0  0  0  0  0  0  0  0
   36.6170   27.0300   39.5680 O   0  0  0  0  0  0  0  0  0  0  0  0
   37.3800   27.2550   38.9890 H   0  0  0  0  0  0  0  0  0  0  0  0
   38.7160   27.1080   42.3420 O   0  0  0  0  0  0  0  0  0  0  0  0
   40.8660   26.5530   41.5290 N   0  0  0  0  0  0  0  0  0  0  0  0
   41.4360   27.3100   42.6680 C   0  0  0  0  0  0  0  0  0  0  0  0
   41.5130   26.1910   43.6800 C   0  0  0  0  0  0  0  0  0  0  0  0
   40.1330   25.5420   43.4840 C   0  0  0  0  0  0  0  0  0  0  0  0
   39.6430   26.1050   42.1340 C   0  0  1  0  0  0  0  0  0  0  0  0
   40.7440   27.1820   40.7260 H   0  0  0  0  0  0  0  0  0  0  0  0
   40.7280   28.0730   43.0020 H   0  0  0  0  0  0  0  0  0  0  0  0
   42.4330   27.7010   42.3970 H   0  0  0  0  0  0  0  0  0  0  0  0
   41.5720   26.6150   44.7140 H   0  0  0  0  0  0  0  0  0  0  0  0
   42.3390   25.5090   43.4810 H   0  0  0  0  0  0  0  0  0  0  0  0
   39.4360   25.7960   44.2900 H   0  0  0  0  0  0  0  0  0  0  0  0
   40.3470   24.4600   43.4090 H   0  0  0  0  0  0  0  0  0  0  0  0
   39.0730   24.8830   41.4600 C   0  0  0  0  0  0  0  0  0  0  0  0
   38.1180   24.0070   41.9770 C   0  0  0  0  0  0  0  0  0  0  0  0
   37.5870   24.0680   42.9390 H   0  0  0  0  0  0  0  0  0  0  0  0
   37.8500   22.9930   41.1570 N   0  0  0  0  0  0  0  0  0  0  0  0
   37.1930   22.2010   41.2740 H   0  0  0  0  0  0  0  0  0  0  0  0
   38.6440   23.2250   40.1050 C   0  0  0  0  0  0  0  0  0  0  0  0
   38.7680   22.6620   39.1890 H   0  0  0  0  0  0  0  0  0  0  0  0
   39.3720   24.3380   40.2720 N   0  0  0  0  0  0  0  0  0  0  0  0
  1  6  1  0  0  0  0
  1  2  1  0  0  0  0
  1  7  1  1  0  0  0
  2  8  1  1  0  0  0
  3  4  1  0  0  0  0
  3  2  1  0  0  0  0
  4 10  1  0  0  0  0
  5  6  1  0  0  0  0
  5  4  1  0  0  0  0
  5 11  1  1  0  0  0
  6 12  1  6  0  0  0
  6 26  1  0  0  0  0
  9  4  1  0  0  0  0
 13 14  2  0  0  0  0
 13 18  1  0  0  0  0
 14 15  1  0  0  0  0
 15 16  2  0  0  0  0
 15  2  1  0  0  0  0
 17 21  1  0  0  0  0
 17 16  1  0  0  0  0
 18 17  2  0  0  0  0
 19 13  1  0  0  0  0
 20 14  1  0  0  0  0
 22  1  1  0  0  0  0
 23 22  1  0  0  0  0
 24  5  1  0  0  0  0
 25 24  1  0  0  0  0
 27 31  1  0  0  0  0
 27 28  1  0  0  0  0
 28 33  1  0  0  0  0
 28 29  1  0  0  0  0
 29 35  1  0  0  0  0
 30 29  1  0  0  0  0
 30 37  1  0  0  0  0
 31 26  1  1  0  0  0
 31 30  1  0  0  0  0
 32 27  1  0  0  0  0
 34 28  1  0  0  0  0
 36 29  1  0  0  0  0
 38 30  1  0  0  0  0
 39 40  2  0  0  0  0
 39 31  1  0  0  0  0
 40 41  1  0  0  0  0
 42 43  1  0  0  0  0
 42 40  1  0  0  0  0
 44 46  2  0  0  0  0
 44 42  1  0  0  0  0
 45 44  1  0  0  0  0
 46 39  1  0  0  0  0
M  END
>  <minimizedAffinity>
-5.40577126

$$$$

 OpenBabel03242521313D

 46 49  0  0  1  0  0  0  0  0999 V2000
   36.7640   28.3610   38.7530 C   0  0  1  0  0  0  0  0  0  0  0  0
   35.9080   27.5230   37.8050 C   0  0  2  0  0  0  0  0  0  0  0  0
   36.4100   26.2660   37.6340 O   0  0  0  0  0  0  0  0  0  0  0  0
   36.2550   25.5840   38.8140 C   0  0  0  0  0  0  0  0  0  0  0  0
   37.2020   26.1330   39.8320 C   0  0  2  0  0  0  0  0  0  0  0  0
   37.2290   27.6460   39.9470 C   0  0  2  0  0  0  0  0  0  0  0  0
   36.0770   29.1960   39.0920 H   0  0  0  0  0  0  0  0  0  0  0  0
   34.8960   27.4950   38.2850 H   0  0  0  0  0  0  0  0  0  0  0  0
   36.5540   24.5330   38.6280 H   0  0  0  0  0  0  0  0  0  0  0  0
   35.2050   25.5580   39.1780 H   0  0  0  0  0  0  0  0  0  0  0  0
   36.9910   25.6620   40.8170 H   0  0  0  0  0  0  0  0  0  0  0  0
   38.2970   27.8650   40.1580 H   0  0  0  0  0  0  0  0  0  0  0  0
   34.4540   29.5170   34.9280 C   0  0  0  0  0  0  0  0  0  0  0  0
   34.5560   28.8880   36.1750 C   0  0  0  0  0  0  0  0  0  0  0  0
   35.7730   28.2050   36.5080 C   0  0  0  0  0  0  0  0  0  0  0  0
   36.7710   28.1930   35.6110 N   0  0  0  0  0  0  0  0  0  0  0  0
   36.6290   28.8230   34.4000 C   0  0  0  0  0  0  0  0  0  0  0  0
   35.4790   29.4780   34.0670 N   0  0  0  0  0  0  0  0  0  0  0  0
   33.5150   30.0140   34.7390 H   0  0  0  0  0  0  0  0  0  0  0  0
   33.7840   28.8690   36.9260 H   0  0  0  0  0  0  0  0  0  0  0  0
   37.4490   28.7990   33.6920 H   0  0  0  0  0  0  0  0  0  0  0  0
   37.7850   29.0190   38.0840 O   0  0  0  0  0  0  0  0  0  0  0  0
   37.9320   28.5770   37.2140 H   0  0  0  0  0  0  0  0  0  0  0  0
   38.4670   25.6490   39.4510 O   0  0  0  0  0  0  0  0  0  0  0  0
   39.0590   26.3600   39.1180 H   0  0  0  0  0  0  0  0  0  0  0  0
   36.5670   28.0340   41.1280 O   0  0  0  0  0  0  0  0  0  0  0  0
   36.9540   28.9620   43.2690 N   0  0  0  0  0  0  0  0  0  0  0  0
   37.5170   27.6530   43.6770 C   0  0  0  0  0  0  0  0  0  0  0  0
   38.9600   27.8870   43.2970 C   0  0  0  0  0  0  0  0  0  0  0  0
   38.7840   28.5240   41.9090 C   0  0  0  0  0  0  0  0  0  0  0  0
   37.2980   28.9380   41.8740 C   0  0  1  0  0  0  0  0  0  0  0  0
   35.9470   28.9770   43.4640 H   0  0  0  0  0  0  0  0  0  0  0  0
   37.0910   26.8550   43.0650 H   0  0  0  0  0  0  0  0  0  0  0  0
   37.3860   27.5120   44.7660 H   0  0  0  0  0  0  0  0  0  0  0  0
   39.4890   26.9080   43.1830 H   0  0  0  0  0  0  0  0  0  0  0  0
   39.4740   28.5370   44.0040 H   0  0  0  0  0  0  0  0  0  0  0  0
   39.0140   27.8260   41.0980 H   0  0  0  0  0  0  0  0  0  0  0  0
   39.4430   29.4120   41.9300 H   0  0  0  0  0  0  0  0  0  0  0  0
   37.3590   30.3170   41.2660 C   0  0  0  0  0  0  0  0  0  0  0  0
   36.2900   31.1850   41.0430 C   0  0  0  0  0  0  0  0  0  0  0  0
   35.2300   31.0410   41.3010 H   0  0  0  0  0  0  0  0  0  0  0  0
   36.6600   32.3160   40.4480 N   0  0  0  0  0  0  0  0  0  0  0  0
   36.0900   33.1330   40.1630 H   0  0  0  0  0  0  0  0  0  0  0  0
   37.9800   32.1680   40.2880 C   0  0  0  0  0  0  0  0  0  0  0  0
   38.7070   32.8380   39.8480 H   0  0  0  0  0  0  0  0  0  0  0  0
   38.4060   30.9900   40.7670 N   0  0  0  0  0  0  0  0  0  0  0  0
  1  7  1  1  0  0  0
  1  6  1  0  0  0  0
  2  8  1  1  0  0  0
  2  1  1  0  0  0  0
  3  2  1  0  0  0  0
  3  4  1  0  0  0  0
  4 10  1  0  0  0  0
  4  5  1  0  0  0  0
  5  6  1  0  0  0  0
  5 11  1  1  0  0  0
  6 12  1  1  0  0  0
  6 26  1  0  0  0  0
  9  4  1  0  0  0  0
 13 14  1  0  0  0  0
 14 15  2  0  0  0  0
 14 20  1  0  0  0  0
 15  2  1  0  0  0  0
 16 15  1  0  0  0  0
 17 16  2  0  0  0  0
 18 17  1  0  0  0  0
 18 13  2  0  0  0  0
 19 13  1  0  0  0  0
 21 17  1  0  0  0  0
 22  1  1  0  0  0  0
 23 22  1  0  0  0  0
 24  5  1  0  0  0  0
 25 24  1  0  0  0  0
 27 32  1  0  0  0  0
 27 28  1  0  0  0  0
 28 34  1  0  0  0  0
 29 28  1  0  0  0  0
 29 36  1  0  0  0  0
 30 38  1  0  0  0  0
 30 29  1  0  0  0  0
 31 26  1  6  0  0  0
 31 30  1  0  0  0  0
 31 27  1  0  0  0  0
 33 28  1  0  0  0  0
 35 29  1  0  0  0  0
 37 30  1  0  0  0  0
 39 31  1  0  0  0  0
 40 39  2  0  0  0  0
 40 41  1  0  0  0  0
 42 40  1  0  0  0  0
 43 42  1  0  0  0  0
 44 42  1  0  0  0  0
 44 46  2  0  0  0  0
 45 44  1  0  0  0  0
 46 39  1  0  0  0  0
M  END
>  <minimizedAffinity>
-5.38226032

$$$$
