
 OpenBabel03252503103D

 26 28  0  0  0  0  0  0  0  0999 V2000
   38.5200   29.3160   42.6120 C   0  0  0  0  0  0  0  0  0  0  0  0
   37.8310   29.3030   41.3840 C   0  0  0  0  0  0  0  0  0  0  0  0
   36.6940   28.5030   41.3590 C   0  0  0  0  0  0  0  0  0  0  0  0
   36.2770   27.7910   42.4290 N   0  0  0  0  0  0  0  0  0  0  0  0
   36.9840   27.8410   43.5960 C   0  0  0  0  0  0  0  0  0  0  0  0
   38.0970   28.6010   43.6800 N   0  0  0  0  0  0  0  0  0  0  0  0
   39.4110   29.8980   42.7440 H   0  0  0  0  0  0  0  0  0  0  0  0
   36.6190   27.2590   44.4280 H   0  0  0  0  0  0  0  0  0  0  0  0
   35.9540   28.4270   40.1840 C   0  0  0  0  0  0  0  0  0  0  0  0
   34.9140   29.1420   39.6490 C   0  0  0  0  0  0  0  0  0  0  0  0
   34.3430   28.8790   38.4830 C   0  0  0  0  0  0  0  0  0  0  0  0
   34.8600   27.8100   37.7950 C   0  0  0  0  0  0  0  0  0  0  0  0
   36.2090   27.2070   38.9150 S   0  0  0  0  0  0  0  0  0  0  0  0
   34.4300   30.0230   40.0420 H   0  0  0  0  0  0  0  0  0  0  0  0
   33.5740   29.2290   37.8510 H   0  0  0  0  0  0  0  0  0  0  0  0
   34.7830   27.2080   36.8830 H   0  0  0  0  0  0  0  0  0  0  0  0
   38.2920   30.0860   40.3010 C   0  0  0  0  0  0  0  0  0  0  0  0
   38.9170   29.4350   39.3990 O   0  0  0  0  0  0  0  0  0  0  0  0
   38.0510   31.5600   40.2570 C   0  0  0  0  0  0  0  0  0  0  0  0
   36.9160   32.1890   39.7880 C   0  0  0  0  0  0  0  0  0  0  0  0
   36.0250   31.7320   39.3810 H   0  0  0  0  0  0  0  0  0  0  0  0
   37.1450   33.5060   39.9430 N   0  0  0  0  0  0  0  0  0  0  0  0
   36.5500   34.3130   39.7160 H   0  0  0  0  0  0  0  0  0  0  0  0
   38.3850   33.6720   40.4900 C   0  0  0  0  0  0  0  0  0  0  0  0
   38.9500   34.5480   40.7730 H   0  0  0  0  0  0  0  0  0  0  0  0
   38.9460   32.4630   40.6840 N   0  0  0  0  0  0  0  0  0  0  0  0
  1  7  1  0  0  0  0
  1  6  1  0  0  0  0
  2  1  2  0  0  0  0
  3  2  1  0  0  0  0
  3  4  2  0  0  0  0
  4  5  1  0  0  0  0
  5  6  2  0  0  0  0
  5  8  1  0  0  0  0
  9  3  1  0  0  0  0
 10 14  1  0  0  0  0
 10  9  2  0  0  0  0
 11 10  1  0  0  0  0
 12 11  2  0  0  0  0
 12 13  1  0  0  0  0
 13  9  1  0  0  0  0
 15 11  1  0  0  0  0
 16 12  1  0  0  0  0
 17  2  1  0  0  0  0
 18 17  2  0  0  0  0
 19 17  1  0  0  0  0
 19 26  1  0  0  0  0
 20 22  1  0  0  0  0
 20 19  2  0  0  0  0
 21 20  1  0  0  0  0
 22 24  1  0  0  0  0
 23 22  1  0  0  0  0
 24 26  2  0  0  0  0
 24 25  1  0  0  0  0
M  END
>  <minimizedAffinity>
-4.92990541

$$$$

 OpenBabel03252503103D

 26 28  0  0  0  0  0  0  0  0999 V2000
   36.9970   30.5160   38.0910 C   0  0  0  0  0  0  0  0  0  0  0  0
   37.0990   30.1720   39.4530 C   0  0  0  0  0  0  0  0  0  0  0  0
   37.3460   28.8270   39.7000 C   0  0  0  0  0  0  0  0  0  0  0  0
   37.4800   27.9140   38.7120 N   0  0  0  0  0  0  0  0  0  0  0  0
   37.3720   28.3040   37.4080 C   0  0  0  0  0  0  0  0  0  0  0  0
   37.1330   29.5970   37.1070 N   0  0  0  0  0  0  0  0  0  0  0  0
   36.8070   31.5260   37.7840 H   0  0  0  0  0  0  0  0  0  0  0  0
   37.4860   27.5450   36.6490 H   0  0  0  0  0  0  0  0  0  0  0  0
   37.4570   28.3980   41.0180 C   0  0  0  0  0  0  0  0  0  0  0  0
   36.5830   27.8970   41.9480 C   0  0  0  0  0  0  0  0  0  0  0  0
   36.9180   27.5510   43.1830 C   0  0  0  0  0  0  0  0  0  0  0  0
   38.2390   27.7210   43.5110 C   0  0  0  0  0  0  0  0  0  0  0  0
   38.9720   28.4020   41.9500 S   0  0  0  0  0  0  0  0  0  0  0  0
   35.5360   27.6690   41.8330 H   0  0  0  0  0  0  0  0  0  0  0  0
   36.4920   27.1620   44.0660 H   0  0  0  0  0  0  0  0  0  0  0  0
   38.9870   27.6120   44.3040 H   0  0  0  0  0  0  0  0  0  0  0  0
   36.9780   31.1690   40.4490 C   0  0  0  0  0  0  0  0  0  0  0  0
   35.9360   31.0700   41.1790 O   0  0  0  0  0  0  0  0  0  0  0  0
   38.0080   32.2410   40.5970 C   0  0  0  0  0  0  0  0  0  0  0  0
   39.2280   32.1200   41.2300 C   0  0  0  0  0  0  0  0  0  0  0  0
   39.6390   31.2470   41.7160 H   0  0  0  0  0  0  0  0  0  0  0  0
   39.8130   33.3270   41.1160 N   0  0  0  0  0  0  0  0  0  0  0  0
   40.7270   33.6540   41.4540 H   0  0  0  0  0  0  0  0  0  0  0  0
   38.9700   34.1570   40.4350 C   0  0  0  0  0  0  0  0  0  0  0  0
   39.0470   35.1910   40.1320 H   0  0  0  0  0  0  0  0  0  0  0  0
   37.8510   33.4810   40.1140 N   0  0  0  0  0  0  0  0  0  0  0  0
  1  2  1  0  0  0  0
  2  3  2  0  0  0  0
  2 17  1  0  0  0  0
  3  9  1  0  0  0  0
  4  3  1  0  0  0  0
  5  4  2  0  0  0  0
  6  5  1  0  0  0  0
  6  1  2  0  0  0  0
  7  1  1  0  0  0  0
  8  5  1  0  0  0  0
  9 10  2  0  0  0  0
  9 13  1  0  0  0  0
 10 11  1  0  0  0  0
 11 12  2  0  0  0  0
 11 15  1  0  0  0  0
 12 16  1  0  0  0  0
 13 12  1  0  0  0  0
 14 10  1  0  0  0  0
 17 19  1  0  0  0  0
 17 18  2  0  0  0  0
 19 20  2  0  0  0  0
 20 21  1  0  0  0  0
 22 20  1  0  0  0  0
 22 23  1  0  0  0  0
 24 22  1  0  0  0  0
 25 24  1  0  0  0  0
 26 24  2  0  0  0  0
 26 19  1  0  0  0  0
M  END
>  <minimizedAffinity>
-4.81375408

$$$$

 OpenBabel03252503103D

 26 28  0  0  0  0  0  0  0  0999 V2000
   35.6290   27.5840   37.9190 C   0  0  0  0  0  0  0  0  0  0  0  0
   35.9110   28.0180   39.2290 C   0  0  0  0  0  0  0  0  0  0  0  0
   36.8010   27.2160   39.9330 C   0  0  0  0  0  0  0  0  0  0  0  0
   37.3570   26.1030   39.4060 N   0  0  0  0  0  0  0  0  0  0  0  0
   37.0490   25.7290   38.1290 C   0  0  0  0  0  0  0  0  0  0  0  0
   36.1900   26.4690   37.3970 N   0  0  0  0  0  0  0  0  0  0  0  0
   34.9550   28.1260   37.2860 H   0  0  0  0  0  0  0  0  0  0  0  0
   37.5140   24.8340   37.7440 H   0  0  0  0  0  0  0  0  0  0  0  0
   37.1320   27.5670   41.2370 C   0  0  0  0  0  0  0  0  0  0  0  0
   36.5210   27.4390   42.4580 C   0  0  0  0  0  0  0  0  0  0  0  0
   37.0340   27.8670   43.6030 C   0  0  0  0  0  0  0  0  0  0  0  0
   38.2620   28.4720   43.5160 C   0  0  0  0  0  0  0  0  0  0  0  0
   38.6380   28.3930   41.7020 S   0  0  0  0  0  0  0  0  0  0  0  0
   35.5870   26.9560   42.6950 H   0  0  0  0  0  0  0  0  0  0  0  0
   36.8120   27.9070   44.6330 H   0  0  0  0  0  0  0  0  0  0  0  0
   39.0630   28.9600   44.0810 H   0  0  0  0  0  0  0  0  0  0  0  0
   35.3240   29.2050   39.7270 C   0  0  0  0  0  0  0  0  0  0  0  0
   34.1080   29.0850   40.0950 O   0  0  0  0  0  0  0  0  0  0  0  0
   36.0990   30.4800   39.7940 C   0  0  0  0  0  0  0  0  0  0  0  0
   36.3050   31.2530   40.9180 C   0  0  0  0  0  0  0  0  0  0  0  0
   35.9500   31.0710   41.9220 H   0  0  0  0  0  0  0  0  0  0  0  0
   37.0520   32.2940   40.5060 N   0  0  0  0  0  0  0  0  0  0  0  0
   37.4210   33.0950   41.0350 H   0  0  0  0  0  0  0  0  0  0  0  0
   37.2910   32.1580   39.1690 C   0  0  0  0  0  0  0  0  0  0  0  0
   37.8370   32.7590   38.4570 H   0  0  0  0  0  0  0  0  0  0  0  0
   36.6990   31.0310   38.7290 N   0  0  0  0  0  0  0  0  0  0  0  0
  1  2  1  0  0  0  0
  2 17  1  0  0  0  0
  2  3  2  0  0  0  0
  3  9  1  0  0  0  0
  4  3  1  0  0  0  0
  5  4  2  0  0  0  0
  6  1  2  0  0  0  0
  6  5  1  0  0  0  0
  7  1  1  0  0  0  0
  8  5  1  0  0  0  0
  9 13  1  0  0  0  0
  9 10  2  0  0  0  0
 10 14  1  0  0  0  0
 10 11  1  0  0  0  0
 11 15  1  0  0  0  0
 12 11  2  0  0  0  0
 12 16  1  0  0  0  0
 13 12  1  0  0  0  0
 17 19  1  0  0  0  0
 17 18  2  0  0  0  0
 19 20  2  0  0  0  0
 20 21  1  0  0  0  0
 22 20  1  0  0  0  0
 22 23  1  0  0  0  0
 24 22  1  0  0  0  0
 25 24  1  0  0  0  0
 26 24  2  0  0  0  0
 26 19  1  0  0  0  0
M  END
>  <minimizedAffinity>
-4.61498022

$$$$

 OpenBabel03252503103D

 26 28  0  0  0  0  0  0  0  0999 V2000
   39.4510   27.9940   43.1560 C   0  0  0  0  0  0  0  0  0  0  0  0
   38.2650   27.8830   42.4060 C   0  0  0  0  0  0  0  0  0  0  0  0
   38.1200   28.8290   41.3980 C   0  0  0  0  0  0  0  0  0  0  0  0
   39.0440   29.7830   41.1510 N   0  0  0  0  0  0  0  0  0  0  0  0
   40.1780   29.8430   41.9100 C   0  0  0  0  0  0  0  0  0  0  0  0
   40.3730   28.9510   42.9040 N   0  0  0  0  0  0  0  0  0  0  0  0
   39.6670   27.3170   43.9600 H   0  0  0  0  0  0  0  0  0  0  0  0
   40.8920   30.6190   41.6820 H   0  0  0  0  0  0  0  0  0  0  0  0
   36.9750   28.7970   40.6100 C   0  0  0  0  0  0  0  0  0  0  0  0
   35.7100   29.3160   40.7210 C   0  0  0  0  0  0  0  0  0  0  0  0
   34.7480   29.1470   39.8250 C   0  0  0  0  0  0  0  0  0  0  0  0
   35.0830   28.3980   38.7260 C   0  0  0  0  0  0  0  0  0  0  0  0
   36.8530   27.9500   39.0500 S   0  0  0  0  0  0  0  0  0  0  0  0
   35.3090   29.9520   41.4930 H   0  0  0  0  0  0  0  0  0  0  0  0
   33.7420   29.4080   39.6480 H   0  0  0  0  0  0  0  0  0  0  0  0
   34.7220   27.9850   37.7780 H   0  0  0  0  0  0  0  0  0  0  0  0
   37.3400   26.8510   42.6850 C   0  0  0  0  0  0  0  0  0  0  0  0
   36.3790   27.1880   43.4550 O   0  0  0  0  0  0  0  0  0  0  0  0
   37.5140   25.4820   42.1110 C   0  0  0  0  0  0  0  0  0  0  0  0
   38.4450   24.5440   42.5040 C   0  0  0  0  0  0  0  0  0  0  0  0
   39.1930   24.6350   43.2790 H   0  0  0  0  0  0  0  0  0  0  0  0
   38.2320   23.4740   41.7160 N   0  0  0  0  0  0  0  0  0  0  0  0
   38.7120   22.5650   41.6870 H   0  0  0  0  0  0  0  0  0  0  0  0
   37.2000   23.7560   40.8670 C   0  0  0  0  0  0  0  0  0  0  0  0
   36.7150   23.1870   40.0880 H   0  0  0  0  0  0  0  0  0  0  0  0
   36.7560   25.0030   41.1140 N   0  0  0  0  0  0  0  0  0  0  0  0
  1  7  1  0  0  0  0
  2 17  1  0  0  0  0
  2  1  2  0  0  0  0
  3  2  1  0  0  0  0
  4  3  2  0  0  0  0
  4  5  1  0  0  0  0
  5  6  2  0  0  0  0
  6  1  1  0  0  0  0
  8  5  1  0  0  0  0
  9 10  2  0  0  0  0
  9  3  1  0  0  0  0
 10 14  1  0  0  0  0
 11 10  1  0  0  0  0
 12 13  1  0  0  0  0
 12 11  2  0  0  0  0
 13  9  1  0  0  0  0
 15 11  1  0  0  0  0
 16 12  1  0  0  0  0
 17 18  2  0  0  0  0
 19 20  2  0  0  0  0
 19 17  1  0  0  0  0
 20 21  1  0  0  0  0
 22 20  1  0  0  0  0
 23 22  1  0  0  0  0
 24 26  2  0  0  0  0
 24 22  1  0  0  0  0
 25 24  1  0  0  0  0
 26 19  1  0  0  0  0
M  END
>  <minimizedAffinity>
-4.54188776

$$$$

 OpenBabel03252503103D

 26 28  0  0  0  0  0  0  0  0999 V2000
   36.1270   27.2340   38.7310 C   0  0  0  0  0  0  0  0  0  0  0  0
   36.8290   28.3640   39.1910 C   0  0  0  0  0  0  0  0  0  0  0  0
   36.4600   29.5650   38.5960 C   0  0  0  0  0  0  0  0  0  0  0  0
   35.5010   29.6460   37.6470 N   0  0  0  0  0  0  0  0  0  0  0  0
   34.8520   28.5170   37.2390 C   0  0  0  0  0  0  0  0  0  0  0  0
   35.1680   27.3220   37.7810 N   0  0  0  0  0  0  0  0  0  0  0  0
   36.3310   26.2550   39.1200 H   0  0  0  0  0  0  0  0  0  0  0  0
   34.0920   28.6240   36.4790 H   0  0  0  0  0  0  0  0  0  0  0  0
   37.1050   30.7330   38.9880 C   0  0  0  0  0  0  0  0  0  0  0  0
   36.8440   31.7210   39.9010 C   0  0  0  0  0  0  0  0  0  0  0  0
   37.6180   32.7770   40.1060 C   0  0  0  0  0  0  0  0  0  0  0  0
   38.7490   32.8460   39.3320 C   0  0  0  0  0  0  0  0  0  0  0  0
   38.6380   31.3120   38.2960 S   0  0  0  0  0  0  0  0  0  0  0  0
   36.0300   31.7900   40.6040 H   0  0  0  0  0  0  0  0  0  0  0  0
   37.6730   33.6470   40.7000 H   0  0  0  0  0  0  0  0  0  0  0  0
   39.6460   33.4320   39.1050 H   0  0  0  0  0  0  0  0  0  0  0  0
   37.8060   28.2310   40.2050 C   0  0  0  0  0  0  0  0  0  0  0  0
   39.0000   28.0830   39.7810 O   0  0  0  0  0  0  0  0  0  0  0  0
   37.4270   28.2600   41.6500 C   0  0  0  0  0  0  0  0  0  0  0  0
   37.4520   29.3620   42.4800 C   0  0  0  0  0  0  0  0  0  0  0  0
   37.7440   30.3720   42.2320 H   0  0  0  0  0  0  0  0  0  0  0  0
   37.0330   28.9180   43.6790 N   0  0  0  0  0  0  0  0  0  0  0  0
   36.9090   29.4230   44.5670 H   0  0  0  0  0  0  0  0  0  0  0  0
   36.7610   27.5840   43.5810 C   0  0  0  0  0  0  0  0  0  0  0  0
   36.4080   26.8530   44.2930 H   0  0  0  0  0  0  0  0  0  0  0  0
   37.0070   27.1770   42.3210 N   0  0  0  0  0  0  0  0  0  0  0  0
  1  7  1  0  0  0  0
  1  2  1  0  0  0  0
  2 17  1  0  0  0  0
  3  9  1  0  0  0  0
  3  2  2  0  0  0  0
  4  3  1  0  0  0  0
  5  4  2  0  0  0  0
  5  6  1  0  0  0  0
  6  1  2  0  0  0  0
  8  5  1  0  0  0  0
  9 10  2  0  0  0  0
 10 11  1  0  0  0  0
 10 14  1  0  0  0  0
 11 15  1  0  0  0  0
 12 11  2  0  0  0  0
 13  9  1  0  0  0  0
 13 12  1  0  0  0  0
 16 12  1  0  0  0  0
 17 19  1  0  0  0  0
 18 17  2  0  0  0  0
 19 26  1  0  0  0  0
 19 20  2  0  0  0  0
 20 22  1  0  0  0  0
 21 20  1  0  0  0  0
 22 23  1  0  0  0  0
 24 22  1  0  0  0  0
 24 25  1  0  0  0  0
 26 24  2  0  0  0  0
M  END
>  <minimizedAffinity>
-4.52435446

$$$$

 OpenBabel03252503103D

 26 28  0  0  0  0  0  0  0  0999 V2000
   36.0110   25.7160   38.5350 C   0  0  0  0  0  0  0  0  0  0  0  0
   36.8140   26.3600   39.4960 C   0  0  0  0  0  0  0  0  0  0  0  0
   37.0950   25.6020   40.6270 C   0  0  0  0  0  0  0  0  0  0  0  0
   36.6350   24.3430   40.7960 N   0  0  0  0  0  0  0  0  0  0  0  0
   35.8600   23.7670   39.8310 C   0  0  0  0  0  0  0  0  0  0  0  0
   35.5540   24.4540   38.7110 N   0  0  0  0  0  0  0  0  0  0  0  0
   35.7310   26.2070   37.6240 H   0  0  0  0  0  0  0  0  0  0  0  0
   35.5130   22.7590   40.0040 H   0  0  0  0  0  0  0  0  0  0  0  0
   37.8790   26.1620   41.6300 C   0  0  0  0  0  0  0  0  0  0  0  0
   37.6220   26.8810   42.7690 C   0  0  0  0  0  0  0  0  0  0  0  0
   38.5530   27.3320   43.5980 C   0  0  0  0  0  0  0  0  0  0  0  0
   39.8480   27.0350   43.2570 C   0  0  0  0  0  0  0  0  0  0  0  0
   39.6550   26.0730   41.6830 S   0  0  0  0  0  0  0  0  0  0  0  0
   36.6690   27.1560   43.1910 H   0  0  0  0  0  0  0  0  0  0  0  0
   38.6540   27.8790   44.4940 H   0  0  0  0  0  0  0  0  0  0  0  0
   40.8990   27.1440   43.5450 H   0  0  0  0  0  0  0  0  0  0  0  0
   37.2930   27.6690   39.2610 C   0  0  0  0  0  0  0  0  0  0  0  0
   38.2680   27.7420   38.4400 O   0  0  0  0  0  0  0  0  0  0  0  0
   36.6840   28.8490   39.9450 C   0  0  0  0  0  0  0  0  0  0  0  0
   35.3670   28.9760   40.3370 C   0  0  0  0  0  0  0  0  0  0  0  0
   34.5680   28.2580   40.2190 H   0  0  0  0  0  0  0  0  0  0  0  0
   35.2770   30.1920   40.9060 N   0  0  0  0  0  0  0  0  0  0  0  0
   34.4680   30.6690   41.3260 H   0  0  0  0  0  0  0  0  0  0  0  0
   36.5040   30.7870   40.8600 C   0  0  0  0  0  0  0  0  0  0  0  0
   36.8670   31.7470   41.1980 H   0  0  0  0  0  0  0  0  0  0  0  0
   37.3760   29.9520   40.2630 N   0  0  0  0  0  0  0  0  0  0  0  0
  1  6  2  0  0  0  0
  1  2  1  0  0  0  0
  2  3  2  0  0  0  0
  3  4  1  0  0  0  0
  3  9  1  0  0  0  0
  5  8  1  0  0  0  0
  5  4  2  0  0  0  0
  6  5  1  0  0  0  0
  7  1  1  0  0  0  0
  9 13  1  0  0  0  0
  9 10  2  0  0  0  0
 10 14  1  0  0  0  0
 10 11  1  0  0  0  0
 11 15  1  0  0  0  0
 12 16  1  0  0  0  0
 12 11  2  0  0  0  0
 13 12  1  0  0  0  0
 17  2  1  0  0  0  0
 17 19  1  0  0  0  0
 18 17  2  0  0  0  0
 19 26  1  0  0  0  0
 19 20  2  0  0  0  0
 20 22  1  0  0  0  0
 21 20  1  0  0  0  0
 22 23  1  0  0  0  0
 24 22  1  0  0  0  0
 24 25  1  0  0  0  0
 26 24  2  0  0  0  0
M  END
>  <minimizedAffinity>
-4.48235464

$$$$

 OpenBabel03252503103D

 26 28  0  0  0  0  0  0  0  0999 V2000
   36.6140   30.0420   37.7080 C   0  0  0  0  0  0  0  0  0  0  0  0
   37.3440   29.9020   38.9040 C   0  0  0  0  0  0  0  0  0  0  0  0
   36.7860   29.0300   39.8320 C   0  0  0  0  0  0  0  0  0  0  0  0
   35.6320   28.3640   39.6070 N   0  0  0  0  0  0  0  0  0  0  0  0
   34.9660   28.5370   38.4280 C   0  0  0  0  0  0  0  0  0  0  0  0
   35.4590   29.3720   37.4890 N   0  0  0  0  0  0  0  0  0  0  0  0
   36.9510   30.6900   36.9230 H   0  0  0  0  0  0  0  0  0  0  0  0
   34.0480   27.9860   38.2860 H   0  0  0  0  0  0  0  0  0  0  0  0
   37.4390   28.8350   41.0440 C   0  0  0  0  0  0  0  0  0  0  0  0
   37.4140   29.4570   42.2660 C   0  0  0  0  0  0  0  0  0  0  0  0
   38.1480   29.0940   43.3080 C   0  0  0  0  0  0  0  0  0  0  0  0
   38.9740   28.0170   43.1080 C   0  0  0  0  0  0  0  0  0  0  0  0
   38.6380   27.5560   41.3440 S   0  0  0  0  0  0  0  0  0  0  0  0
   36.7960   30.2790   42.5900 H   0  0  0  0  0  0  0  0  0  0  0  0
   38.3320   29.3630   44.3110 H   0  0  0  0  0  0  0  0  0  0  0  0
   39.7180   27.3600   43.5700 H   0  0  0  0  0  0  0  0  0  0  0  0
   38.5600   30.6010   39.0810 C   0  0  0  0  0  0  0  0  0  0  0  0
   39.6040   29.9500   38.7410 O   0  0  0  0  0  0  0  0  0  0  0  0
   38.5800   31.9890   39.6340 C   0  0  0  0  0  0  0  0  0  0  0  0
   37.5080   32.6680   40.1760 C   0  0  0  0  0  0  0  0  0  0  0  0
   36.4920   32.3180   40.2920 H   0  0  0  0  0  0  0  0  0  0  0  0
   37.9910   33.8710   40.5390 N   0  0  0  0  0  0  0  0  0  0  0  0
   37.5160   34.6700   40.9790 H   0  0  0  0  0  0  0  0  0  0  0  0
   39.3180   33.9210   40.2240 C   0  0  0  0  0  0  0  0  0  0  0  0
   40.0710   34.6860   40.3420 H   0  0  0  0  0  0  0  0  0  0  0  0
   39.6820   32.7520   39.6620 N   0  0  0  0  0  0  0  0  0  0  0  0
  1  2  1  0  0  0  0
  2 17  1  0  0  0  0
  2  3  2  0  0  0  0
  3  9  1  0  0  0  0
  4  3  1  0  0  0  0
  5  4  2  0  0  0  0
  6  1  2  0  0  0  0
  6  5  1  0  0  0  0
  7  1  1  0  0  0  0
  8  5  1  0  0  0  0
  9 13  1  0  0  0  0
  9 10  2  0  0  0  0
 10 14  1  0  0  0  0
 10 11  1  0  0  0  0
 11 15  1  0  0  0  0
 12 11  2  0  0  0  0
 12 16  1  0  0  0  0
 13 12  1  0  0  0  0
 17 19  1  0  0  0  0
 18 17  2  0  0  0  0
 19 26  1  0  0  0  0
 19 20  2  0  0  0  0
 20 21  1  0  0  0  0
 20 22  1  0  0  0  0
 22 23  1  0  0  0  0
 24 25  1  0  0  0  0
 24 22  1  0  0  0  0
 26 24  2  0  0  0  0
M  END
>  <minimizedAffinity>
-4.44142675

$$$$

 OpenBabel03252503103D

 26 28  0  0  0  0  0  0  0  0999 V2000
   37.9390   27.5760   40.2160 C   0  0  0  0  0  0  0  0  0  0  0  0
   38.1170   28.9160   39.8210 C   0  0  0  0  0  0  0  0  0  0  0  0
   37.5950   29.8590   40.6980 C   0  0  0  0  0  0  0  0  0  0  0  0
   36.9630   29.5220   41.8440 N   0  0  0  0  0  0  0  0  0  0  0  0
   36.8180   28.2060   42.1780 C   0  0  0  0  0  0  0  0  0  0  0  0
   37.3050   27.2450   41.3650 N   0  0  0  0  0  0  0  0  0  0  0  0
   38.3010   26.7650   39.6150 H   0  0  0  0  0  0  0  0  0  0  0  0
   36.3080   27.9770   43.1010 H   0  0  0  0  0  0  0  0  0  0  0  0
   37.7220   31.2080   40.3850 C   0  0  0  0  0  0  0  0  0  0  0  0
   37.0070   32.0940   39.6220 C   0  0  0  0  0  0  0  0  0  0  0  0
   37.3270   33.3700   39.4550 C   0  0  0  0  0  0  0  0  0  0  0  0
   38.4570   33.7900   40.1090 C   0  0  0  0  0  0  0  0  0  0  0  0
   39.0330   32.2560   40.9760 S   0  0  0  0  0  0  0  0  0  0  0  0
   36.0860   31.9310   39.0860 H   0  0  0  0  0  0  0  0  0  0  0  0
   36.9920   34.2380   38.9590 H   0  0  0  0  0  0  0  0  0  0  0  0
   39.1150   34.6440   40.3040 H   0  0  0  0  0  0  0  0  0  0  0  0
   38.8090   29.2200   38.6260 C   0  0  0  0  0  0  0  0  0  0  0  0
   40.0080   29.6270   38.7910 O   0  0  0  0  0  0  0  0  0  0  0  0
   38.1510   29.0690   37.2930 C   0  0  0  0  0  0  0  0  0  0  0  0
   38.5270   28.2010   36.2900 C   0  0  0  0  0  0  0  0  0  0  0  0
   39.3460   27.4950   36.2960 H   0  0  0  0  0  0  0  0  0  0  0  0
   37.6550   28.4120   35.2860 N   0  0  0  0  0  0  0  0  0  0  0  0
   37.5900   27.9680   34.3610 H   0  0  0  0  0  0  0  0  0  0  0  0
   36.7750   29.3820   35.6700 C   0  0  0  0  0  0  0  0  0  0  0  0
   35.9330   29.8440   35.1770 H   0  0  0  0  0  0  0  0  0  0  0  0
   37.0840   29.7890   36.9160 N   0  0  0  0  0  0  0  0  0  0  0  0
  1  6  1  0  0  0  0
  2  1  2  0  0  0  0
  2  3  1  0  0  0  0
  3  4  2  0  0  0  0
  4  5  1  0  0  0  0
  5  8  1  0  0  0  0
  6  5  2  0  0  0  0
  7  1  1  0  0  0  0
  9  3  1  0  0  0  0
  9 13  1  0  0  0  0
 10  9  2  0  0  0  0
 11 10  1  0  0  0  0
 11 12  2  0  0  0  0
 12 16  1  0  0  0  0
 12 13  1  0  0  0  0
 14 10  1  0  0  0  0
 15 11  1  0  0  0  0
 17 18  2  0  0  0  0
 17  2  1  0  0  0  0
 19 17  1  0  0  0  0
 20 21  1  0  0  0  0
 20 19  2  0  0  0  0
 22 24  1  0  0  0  0
 22 20  1  0  0  0  0
 23 22  1  0  0  0  0
 24 26  2  0  0  0  0
 25 24  1  0  0  0  0
 26 19  1  0  0  0  0
M  END
>  <minimizedAffinity>
-4.39299393

$$$$

 OpenBabel03252503103D

 26 28  0  0  0  0  0  0  0  0999 V2000
   36.9220   27.1480   41.6830 C   0  0  0  0  0  0  0  0  0  0  0  0
   37.1080   28.2920   40.8830 C   0  0  0  0  0  0  0  0  0  0  0  0
   37.5310   29.4240   41.5690 C   0  0  0  0  0  0  0  0  0  0  0  0
   37.7480   29.4320   42.9030 N   0  0  0  0  0  0  0  0  0  0  0  0
   37.5530   28.2930   43.6300 C   0  0  0  0  0  0  0  0  0  0  0  0
   37.1420   27.1630   43.0180 N   0  0  0  0  0  0  0  0  0  0  0  0
   36.5970   26.2190   41.2580 H   0  0  0  0  0  0  0  0  0  0  0  0
   37.7380   28.3400   44.6930 H   0  0  0  0  0  0  0  0  0  0  0  0
   37.7350   30.6010   40.8580 C   0  0  0  0  0  0  0  0  0  0  0  0
   36.9400   31.6500   40.4750 C   0  0  0  0  0  0  0  0  0  0  0  0
   37.3590   32.6940   39.7740 C   0  0  0  0  0  0  0  0  0  0  0  0
   38.6860   32.6850   39.4300 C   0  0  0  0  0  0  0  0  0  0  0  0
   39.2980   31.0980   40.1680 S   0  0  0  0  0  0  0  0  0  0  0  0
   35.8990   31.8220   40.7000 H   0  0  0  0  0  0  0  0  0  0  0  0
   37.0020   33.5950   39.3580 H   0  0  0  0  0  0  0  0  0  0  0  0
   39.4820   33.2310   38.9110 H   0  0  0  0  0  0  0  0  0  0  0  0
   36.8930   28.2260   39.4870 C   0  0  0  0  0  0  0  0  0  0  0  0
   37.9440   28.0200   38.7930 O   0  0  0  0  0  0  0  0  0  0  0  0
   35.5260   28.3980   38.9070 C   0  0  0  0  0  0  0  0  0  0  0  0
   34.4690   29.0640   39.4920 C   0  0  0  0  0  0  0  0  0  0  0  0
   34.4490   29.5660   40.4500 H   0  0  0  0  0  0  0  0  0  0  0  0
   33.4520   28.9630   38.6170 N   0  0  0  0  0  0  0  0  0  0  0  0
   32.4910   29.3230   38.6730 H   0  0  0  0  0  0  0  0  0  0  0  0
   33.8800   28.2540   37.5310 C   0  0  0  0  0  0  0  0  0  0  0  0
   33.3930   27.9500   36.6160 H   0  0  0  0  0  0  0  0  0  0  0  0
   35.1680   27.9050   37.7140 N   0  0  0  0  0  0  0  0  0  0  0  0
  1  6  1  0  0  0  0
  2  3  1  0  0  0  0
  2  1  2  0  0  0  0
  3  4  2  0  0  0  0
  4  5  1  0  0  0  0
  5  8  1  0  0  0  0
  6  5  2  0  0  0  0
  7  1  1  0  0  0  0
  9  3  1  0  0  0  0
 10 14  1  0  0  0  0
 10  9  2  0  0  0  0
 11 10  1  0  0  0  0
 12 11  2  0  0  0  0
 12 13  1  0  0  0  0
 13  9  1  0  0  0  0
 15 11  1  0  0  0  0
 16 12  1  0  0  0  0
 17  2  1  0  0  0  0
 18 17  2  0  0  0  0
 19 17  1  0  0  0  0
 19 20  2  0  0  0  0
 20 21  1  0  0  0  0
 22 23  1  0  0  0  0
 22 20  1  0  0  0  0
 24 26  2  0  0  0  0
 24 22  1  0  0  0  0
 25 24  1  0  0  0  0
 26 19  1  0  0  0  0
M  END
>  <minimizedAffinity>
-4.3808341

$$$$
