
 OpenBabel03252501123D

 19 20  0  0  0  0  0  0  0  0999 V2000
   39.1070   30.2600   41.2010 C   0  0  0  0  0  0  0  0  0  0  0  0
   40.3610   30.1710   41.0390 O   0  0  0  0  0  0  0  0  0  0  0  0
   37.2960   28.2110   43.6790 C   0  0  0  0  0  0  0  0  0  0  0  0
   38.0960   29.2350   43.1200 C   0  0  0  0  0  0  0  0  0  0  0  0
   38.2860   29.2030   41.7470 C   0  0  0  0  0  0  0  0  0  0  0  0
   37.7010   28.2110   41.0330 N   0  0  0  0  0  0  0  0  0  0  0  0
   36.9440   27.2500   41.5980 C   0  0  0  0  0  0  0  0  0  0  0  0
   36.7400   27.2530   42.9400 N   0  0  0  0  0  0  0  0  0  0  0  0
   37.0990   28.1670   44.7540 H   0  0  0  0  0  0  0  0  0  0  0  0
   38.4870   29.9500   43.8320 H   0  0  0  0  0  0  0  0  0  0  0  0
   36.5460   26.5320   40.9110 H   0  0  0  0  0  0  0  0  0  0  0  0
   38.4770   31.5210   40.8040 C   0  0  0  0  0  0  0  0  0  0  0  0
   37.1050   31.6570   40.5630 C   0  0  0  0  0  0  0  0  0  0  0  0
   36.3160   30.9310   40.6170 H   0  0  0  0  0  0  0  0  0  0  0  0
   36.9730   32.9740   40.2280 N   0  0  0  0  0  0  0  0  0  0  0  0
   36.0230   33.3780   39.9880 H   0  0  0  0  0  0  0  0  0  0  0  0
   38.1450   33.6320   40.2490 C   0  0  0  0  0  0  0  0  0  0  0  0
   38.2010   34.6850   40.0060 H   0  0  0  0  0  0  0  0  0  0  0  0
   39.0780   32.7130   40.6100 N   0  0  0  0  0  0  0  0  0  0  0  0
  1  5  1  0  0  0  0
  2  1  2  0  0  0  0
  3  9  1  0  0  0  0
  4  3  1  0  0  0  0
  4 10  1  0  0  0  0
  5  4  2  0  0  0  0
  6  7  2  0  0  0  0
  6  5  1  0  0  0  0
  7  8  1  0  0  0  0
  8  3  2  0  0  0  0
 11  7  1  0  0  0  0
 12  1  1  0  0  0  0
 13 14  1  0  0  0  0
 13 12  2  0  0  0  0
 15 17  1  0  0  0  0
 15 13  1  0  0  0  0
 16 15  1  0  0  0  0
 17 19  2  0  0  0  0
 18 17  1  0  0  0  0
 19 12  1  0  0  0  0
M  END
>  <minimizedAffinity>
-4.03751659

$$$$

 OpenBabel03252501123D

 19 20  0  0  0  0  0  0  0  0999 V2000
   38.9400   32.9990   40.2180 C   0  0  0  0  0  0  0  0  0  0  0  0
   38.9420   34.1540   40.7390 O   0  0  0  0  0  0  0  0  0  0  0  0
   38.2920   29.8510   42.0300 C   0  0  0  0  0  0  0  0  0  0  0  0
   38.9750   30.9660   41.4910 C   0  0  0  0  0  0  0  0  0  0  0  0
   38.2190   31.8690   40.7580 C   0  0  0  0  0  0  0  0  0  0  0  0
   36.8930   31.6340   40.6060 N   0  0  0  0  0  0  0  0  0  0  0  0
   36.2740   30.5610   41.1340 C   0  0  0  0  0  0  0  0  0  0  0  0
   36.9850   29.6580   41.8570 N   0  0  0  0  0  0  0  0  0  0  0  0
   38.8170   29.0940   42.6200 H   0  0  0  0  0  0  0  0  0  0  0  0
   40.0340   31.0020   41.7070 H   0  0  0  0  0  0  0  0  0  0  0  0
   35.2240   30.5060   40.9330 H   0  0  0  0  0  0  0  0  0  0  0  0
   39.7240   32.8260   38.9930 C   0  0  0  0  0  0  0  0  0  0  0  0
   39.2630   32.1230   37.8730 C   0  0  0  0  0  0  0  0  0  0  0  0
   38.3300   31.6180   37.7070 H   0  0  0  0  0  0  0  0  0  0  0  0
   40.3010   32.2180   36.9910 N   0  0  0  0  0  0  0  0  0  0  0  0
   40.2390   31.7700   36.0330 H   0  0  0  0  0  0  0  0  0  0  0  0
   41.3370   32.9140   37.4880 C   0  0  0  0  0  0  0  0  0  0  0  0
   42.2360   33.0760   36.9060 H   0  0  0  0  0  0  0  0  0  0  0  0
   40.9650   33.2900   38.7400 N   0  0  0  0  0  0  0  0  0  0  0  0
  1  2  2  0  0  0  0
  1  5  1  0  0  0  0
  3  9  1  0  0  0  0
  4 10  1  0  0  0  0
  4  3  2  0  0  0  0
  5  4  1  0  0  0  0
  6  5  2  0  0  0  0
  6  7  1  0  0  0  0
  7  8  2  0  0  0  0
  8  3  1  0  0  0  0
 11  7  1  0  0  0  0
 12  1  1  0  0  0  0
 13 12  2  0  0  0  0
 14 13  1  0  0  0  0
 15 17  1  0  0  0  0
 15 13  1  0  0  0  0
 16 15  1  0  0  0  0
 17 19  2  0  0  0  0
 18 17  1  0  0  0  0
 19 12  1  0  0  0  0
M  END
>  <minimizedAffinity>
-3.94226742

$$$$

 OpenBabel03252501123D

 19 20  0  0  0  0  0  0  0  0999 V2000
   35.9930   29.8060   40.3750 C   0  0  0  0  0  0  0  0  0  0  0  0
   34.8350   29.4950   39.9630 O   0  0  0  0  0  0  0  0  0  0  0  0
   37.3960   26.9410   42.2290 C   0  0  0  0  0  0  0  0  0  0  0  0
   36.6950   27.6870   41.2530 C   0  0  0  0  0  0  0  0  0  0  0  0
   36.7170   29.0670   41.3840 C   0  0  0  0  0  0  0  0  0  0  0  0
   37.3990   29.6110   42.4220 N   0  0  0  0  0  0  0  0  0  0  0  0
   38.0560   28.8700   43.3340 C   0  0  0  0  0  0  0  0  0  0  0  0
   38.0540   27.5160   43.2350 N   0  0  0  0  0  0  0  0  0  0  0  0
   37.4270   25.8480   42.1950 H   0  0  0  0  0  0  0  0  0  0  0  0
   36.2040   27.0960   40.4910 H   0  0  0  0  0  0  0  0  0  0  0  0
   38.5500   29.4360   44.0980 H   0  0  0  0  0  0  0  0  0  0  0  0
   36.6130   30.9880   39.7740 C   0  0  0  0  0  0  0  0  0  0  0  0
   36.9850   31.0670   38.4270 C   0  0  0  0  0  0  0  0  0  0  0  0
   36.8970   30.3410   37.6400 H   0  0  0  0  0  0  0  0  0  0  0  0
   37.5100   32.3220   38.3160 N   0  0  0  0  0  0  0  0  0  0  0  0
   37.8830   32.6730   37.3880 H   0  0  0  0  0  0  0  0  0  0  0  0
   37.4830   32.9960   39.4780 C   0  0  0  0  0  0  0  0  0  0  0  0
   37.8640   34.0070   39.5500 H   0  0  0  0  0  0  0  0  0  0  0  0
   36.9200   32.1530   40.3830 N   0  0  0  0  0  0  0  0  0  0  0  0
  1  5  1  0  0  0  0
  2  1  2  0  0  0  0
  3  8  1  0  0  0  0
  4  5  1  0  0  0  0
  4  3  2  0  0  0  0
  5  6  2  0  0  0  0
  6  7  1  0  0  0  0
  7 11  1  0  0  0  0
  8  7  2  0  0  0  0
  9  3  1  0  0  0  0
 10  4  1  0  0  0  0
 12  1  1  0  0  0  0
 12 19  1  0  0  0  0
 13 12  2  0  0  0  0
 14 13  1  0  0  0  0
 15 13  1  0  0  0  0
 15 17  1  0  0  0  0
 16 15  1  0  0  0  0
 17 18  1  0  0  0  0
 17 19  2  0  0  0  0
M  END
>  <minimizedAffinity>
-3.91669321

$$$$

 OpenBabel03252501123D

 19 20  0  0  0  0  0  0  0  0999 V2000
   38.4430   29.0420   42.4350 C   0  0  0  0  0  0  0  0  0  0  0  0
   38.9380   30.0370   43.0440 O   0  0  0  0  0  0  0  0  0  0  0  0
   39.7590   25.7980   43.6000 C   0  0  0  0  0  0  0  0  0  0  0  0
   39.1630   27.0810   43.6130 C   0  0  0  0  0  0  0  0  0  0  0  0
   39.0550   27.7340   42.3950 C   0  0  0  0  0  0  0  0  0  0  0  0
   39.5170   27.1130   41.2820 N   0  0  0  0  0  0  0  0  0  0  0  0
   40.0800   25.8890   41.3060 C   0  0  0  0  0  0  0  0  0  0  0  0
   40.2010   25.2240   42.4830 N   0  0  0  0  0  0  0  0  0  0  0  0
   39.8800   25.2190   44.5210 H   0  0  0  0  0  0  0  0  0  0  0  0
   38.8480   27.4290   44.5880 H   0  0  0  0  0  0  0  0  0  0  0  0
   40.3990   25.5250   40.3510 H   0  0  0  0  0  0  0  0  0  0  0  0
   37.1730   29.2580   41.7380 C   0  0  0  0  0  0  0  0  0  0  0  0
   36.6470   30.5260   41.4660 C   0  0  0  0  0  0  0  0  0  0  0  0
   37.0340   31.5010   41.6940 H   0  0  0  0  0  0  0  0  0  0  0  0
   35.4770   30.2490   40.8180 N   0  0  0  0  0  0  0  0  0  0  0  0
   34.8470   31.0330   40.4820 H   0  0  0  0  0  0  0  0  0  0  0  0
   35.2630   28.9300   40.6820 C   0  0  0  0  0  0  0  0  0  0  0  0
   34.3760   28.5540   40.1870 H   0  0  0  0  0  0  0  0  0  0  0  0
   36.3300   28.3190   41.2600 N   0  0  0  0  0  0  0  0  0  0  0  0
  1  2  2  0  0  0  0
  3  4  1  0  0  0  0
  3  9  1  0  0  0  0
  4 10  1  0  0  0  0
  5  1  1  0  0  0  0
  5  4  2  0  0  0  0
  6  7  2  0  0  0  0
  6  5  1  0  0  0  0
  7  8  1  0  0  0  0
  8  3  2  0  0  0  0
 11  7  1  0  0  0  0
 12  1  1  0  0  0  0
 13 14  1  0  0  0  0
 13 12  2  0  0  0  0
 15 13  1  0  0  0  0
 16 15  1  0  0  0  0
 17 15  1  0  0  0  0
 17 19  2  0  0  0  0
 18 17  1  0  0  0  0
 19 12  1  0  0  0  0
M  END
>  <minimizedAffinity>
-3.87263179

$$$$

 OpenBabel03252501123D

 19 20  0  0  0  0  0  0  0  0999 V2000
   38.1260   32.3550   39.8240 C   0  0  0  0  0  0  0  0  0  0  0  0
   37.1530   33.1590   39.7090 O   0  0  0  0  0  0  0  0  0  0  0  0
   37.2820   29.5940   42.1200 C   0  0  0  0  0  0  0  0  0  0  0  0
   37.1770   30.5440   41.0780 C   0  0  0  0  0  0  0  0  0  0  0  0
   38.2580   31.3940   40.8950 C   0  0  0  0  0  0  0  0  0  0  0  0
   39.3320   31.2640   41.7110 N   0  0  0  0  0  0  0  0  0  0  0  0
   39.3980   30.3470   42.6950 C   0  0  0  0  0  0  0  0  0  0  0  0
   38.3570   29.5000   42.9000 N   0  0  0  0  0  0  0  0  0  0  0  0
   36.4720   28.8870   42.3280 H   0  0  0  0  0  0  0  0  0  0  0  0
   36.2510   30.5120   40.5210 H   0  0  0  0  0  0  0  0  0  0  0  0
   40.3080   30.3610   43.2590 H   0  0  0  0  0  0  0  0  0  0  0  0
   39.1670   32.4250   38.7960 C   0  0  0  0  0  0  0  0  0  0  0  0
   39.0300   31.8700   37.5180 C   0  0  0  0  0  0  0  0  0  0  0  0
   38.2100   31.3320   37.0800 H   0  0  0  0  0  0  0  0  0  0  0  0
   40.2170   32.1690   36.9140 N   0  0  0  0  0  0  0  0  0  0  0  0
   40.4070   31.8690   35.9160 H   0  0  0  0  0  0  0  0  0  0  0  0
   41.0470   32.8530   37.7200 C   0  0  0  0  0  0  0  0  0  0  0  0
   42.0280   33.1630   37.3830 H   0  0  0  0  0  0  0  0  0  0  0  0
   40.3800   33.0070   38.8940 N   0  0  0  0  0  0  0  0  0  0  0  0
  1  5  1  0  0  0  0
  2  1  2  0  0  0  0
  3  9  1  0  0  0  0
  3  8  1  0  0  0  0
  4  3  2  0  0  0  0
  5  4  1  0  0  0  0
  5  6  2  0  0  0  0
  6  7  1  0  0  0  0
  7  8  2  0  0  0  0
  7 11  1  0  0  0  0
 10  4  1  0  0  0  0
 12 19  1  0  0  0  0
 12  1  1  0  0  0  0
 13 12  2  0  0  0  0
 14 13  1  0  0  0  0
 15 13  1  0  0  0  0
 15 17  1  0  0  0  0
 16 15  1  0  0  0  0
 17 19  2  0  0  0  0
 18 17  1  0  0  0  0
M  END
>  <minimizedAffinity>
-3.8277247

$$$$

 OpenBabel03252501123D

 19 20  0  0  0  0  0  0  0  0999 V2000
   38.6650   29.8900   40.6200 C   0  0  0  0  0  0  0  0  0  0  0  0
   39.4150   29.1690   39.8960 O   0  0  0  0  0  0  0  0  0  0  0  0
   37.2250   33.0710   39.4260 C   0  0  0  0  0  0  0  0  0  0  0  0
   37.4210   31.6840   39.6250 C   0  0  0  0  0  0  0  0  0  0  0  0
   38.4850   31.3120   40.4330 C   0  0  0  0  0  0  0  0  0  0  0  0
   39.2600   32.2830   40.9760 N   0  0  0  0  0  0  0  0  0  0  0  0
   39.0440   33.5950   40.7660 C   0  0  0  0  0  0  0  0  0  0  0  0
   38.0100   33.9930   39.9800 N   0  0  0  0  0  0  0  0  0  0  0  0
   36.4070   33.4450   38.8030 H   0  0  0  0  0  0  0  0  0  0  0  0
   36.7110   31.0440   39.1190 H   0  0  0  0  0  0  0  0  0  0  0  0
   39.7350   34.2470   41.2590 H   0  0  0  0  0  0  0  0  0  0  0  0
   37.9460   29.2170   41.7030 C   0  0  0  0  0  0  0  0  0  0  0  0
   36.7210   28.5640   41.5300 C   0  0  0  0  0  0  0  0  0  0  0  0
   36.1190   28.4400   40.6490 H   0  0  0  0  0  0  0  0  0  0  0  0
   36.4330   28.0940   42.7790 N   0  0  0  0  0  0  0  0  0  0  0  0
   35.5440   27.5450   42.9590 H   0  0  0  0  0  0  0  0  0  0  0  0
   37.3800   28.4100   43.6790 C   0  0  0  0  0  0  0  0  0  0  0  0
   37.2930   28.1060   44.7150 H   0  0  0  0  0  0  0  0  0  0  0  0
   38.3210   29.1120   42.9950 N   0  0  0  0  0  0  0  0  0  0  0  0
  1 12  1  0  0  0  0
  2  1  2  0  0  0  0
  3  4  2  0  0  0  0
  3  8  1  0  0  0  0
  4  5  1  0  0  0  0
  5  1  1  0  0  0  0
  5  6  2  0  0  0  0
  7  6  1  0  0  0  0
  7 11  1  0  0  0  0
  8  7  2  0  0  0  0
  9  3  1  0  0  0  0
 10  4  1  0  0  0  0
 12 19  1  0  0  0  0
 13 12  2  0  0  0  0
 13 15  1  0  0  0  0
 14 13  1  0  0  0  0
 15 16  1  0  0  0  0
 15 17  1  0  0  0  0
 17 18  1  0  0  0  0
 19 17  2  0  0  0  0
M  END
>  <minimizedAffinity>
-3.81300759

$$$$

 OpenBabel03252501123D

 19 20  0  0  0  0  0  0  0  0999 V2000
   37.3280   28.7290   41.7990 C   0  0  0  0  0  0  0  0  0  0  0  0
   36.1860   28.2040   41.9640 O   0  0  0  0  0  0  0  0  0  0  0  0
   40.0590   27.0320   43.6090 C   0  0  0  0  0  0  0  0  0  0  0  0
   38.8440   27.7080   43.3540 C   0  0  0  0  0  0  0  0  0  0  0  0
   38.5760   28.0380   42.0340 C   0  0  0  0  0  0  0  0  0  0  0  0
   39.4800   27.6980   41.0830 N   0  0  0  0  0  0  0  0  0  0  0  0
   40.6290   27.0530   41.3610 C   0  0  0  0  0  0  0  0  0  0  0  0
   40.9210   26.7160   42.6440 N   0  0  0  0  0  0  0  0  0  0  0  0
   40.3430   26.7370   44.6240 H   0  0  0  0  0  0  0  0  0  0  0  0
   38.2360   27.9030   44.2270 H   0  0  0  0  0  0  0  0  0  0  0  0
   41.2460   26.8500   40.5100 H   0  0  0  0  0  0  0  0  0  0  0  0
   37.3570   30.1190   41.3410 C   0  0  0  0  0  0  0  0  0  0  0  0
   36.2200   30.8190   40.9230 C   0  0  0  0  0  0  0  0  0  0  0  0
   35.1950   30.5040   40.8610 H   0  0  0  0  0  0  0  0  0  0  0  0
   36.7100   32.0500   40.5940 N   0  0  0  0  0  0  0  0  0  0  0  0
   36.0640   32.8110   40.2360 H   0  0  0  0  0  0  0  0  0  0  0  0
   38.0370   32.1430   40.7790 C   0  0  0  0  0  0  0  0  0  0  0  0
   38.5710   33.0590   40.5610 H   0  0  0  0  0  0  0  0  0  0  0  0
   38.4320   30.9300   41.2470 N   0  0  0  0  0  0  0  0  0  0  0  0
  1  2  2  0  0  0  0
  1  5  1  0  0  0  0
  3  9  1  0  0  0  0
  4  3  1  0  0  0  0
  4 10  1  0  0  0  0
  5  4  2  0  0  0  0
  6  7  2  0  0  0  0
  6  5  1  0  0  0  0
  7  8  1  0  0  0  0
  8  3  2  0  0  0  0
 11  7  1  0  0  0  0
 12  1  1  0  0  0  0
 13 12  2  0  0  0  0
 14 13  1  0  0  0  0
 15 17  1  0  0  0  0
 15 13  1  0  0  0  0
 16 15  1  0  0  0  0
 17 19  2  0  0  0  0
 18 17  1  0  0  0  0
 19 12  1  0  0  0  0
M  END
>  <minimizedAffinity>
-3.76971674

$$$$

 OpenBabel03252501123D

 19 20  0  0  0  0  0  0  0  0999 V2000
   36.9110   27.1550   42.5350 C   0  0  0  0  0  0  0  0  0  0  0  0
   36.2600   27.3720   43.6000 O   0  0  0  0  0  0  0  0  0  0  0  0
   35.7850   29.5620   39.9750 C   0  0  0  0  0  0  0  0  0  0  0  0
   35.7590   28.6610   41.0650 C   0  0  0  0  0  0  0  0  0  0  0  0
   36.9640   28.0720   41.4190 C   0  0  0  0  0  0  0  0  0  0  0  0
   38.0760   28.3920   40.7130 N   0  0  0  0  0  0  0  0  0  0  0  0
   38.0640   29.2560   39.6800 C   0  0  0  0  0  0  0  0  0  0  0  0
   36.9010   29.8490   39.3070 N   0  0  0  0  0  0  0  0  0  0  0  0
   34.8760   30.0680   39.6350 H   0  0  0  0  0  0  0  0  0  0  0  0
   34.7870   28.5190   41.5180 H   0  0  0  0  0  0  0  0  0  0  0  0
   39.0170   29.4110   39.2160 H   0  0  0  0  0  0  0  0  0  0  0  0
   37.6460   25.8910   42.4550 C   0  0  0  0  0  0  0  0  0  0  0  0
   37.0660   24.6830   42.0520 C   0  0  0  0  0  0  0  0  0  0  0  0
   36.0580   24.4640   41.7500 H   0  0  0  0  0  0  0  0  0  0  0  0
   38.1000   23.7950   42.1280 N   0  0  0  0  0  0  0  0  0  0  0  0
   37.9560   22.7750   41.8760 H   0  0  0  0  0  0  0  0  0  0  0  0
   39.2430   24.3690   42.5410 C   0  0  0  0  0  0  0  0  0  0  0  0
   40.1520   23.7920   42.6500 H   0  0  0  0  0  0  0  0  0  0  0  0
   38.9470   25.6800   42.7420 N   0  0  0  0  0  0  0  0  0  0  0  0
  1  2  2  0  0  0  0
  3  4  1  0  0  0  0
  4  5  2  0  0  0  0
  4 10  1  0  0  0  0
  5  1  1  0  0  0  0
  6  5  1  0  0  0  0
  7  6  2  0  0  0  0
  8  7  1  0  0  0  0
  8  3  2  0  0  0  0
  9  3  1  0  0  0  0
 11  7  1  0  0  0  0
 12  1  1  0  0  0  0
 12 19  1  0  0  0  0
 13 15  1  0  0  0  0
 13 12  2  0  0  0  0
 14 13  1  0  0  0  0
 15 17  1  0  0  0  0
 16 15  1  0  0  0  0
 17 18  1  0  0  0  0
 17 19  2  0  0  0  0
M  END
>  <minimizedAffinity>
-3.72633266

$$$$

 OpenBabel03252501123D

 19 20  0  0  0  0  0  0  0  0999 V2000
   36.8800   29.8710   41.2540 C   0  0  0  0  0  0  0  0  0  0  0  0
   35.6700   29.6350   40.9590 O   0  0  0  0  0  0  0  0  0  0  0  0
   37.5420   33.1600   39.7180 C   0  0  0  0  0  0  0  0  0  0  0  0
   36.8840   31.9600   40.0750 C   0  0  0  0  0  0  0  0  0  0  0  0
   37.5740   31.0890   40.9040 C   0  0  0  0  0  0  0  0  0  0  0  0
   38.8180   31.4350   41.3180 N   0  0  0  0  0  0  0  0  0  0  0  0
   39.4160   32.5870   40.9580 C   0  0  0  0  0  0  0  0  0  0  0  0
   38.7670   33.4610   40.1470 N   0  0  0  0  0  0  0  0  0  0  0  0
   37.0640   33.8990   39.0680 H   0  0  0  0  0  0  0  0  0  0  0  0
   35.8930   31.8410   39.6580 H   0  0  0  0  0  0  0  0  0  0  0  0
   40.3990   32.7250   41.3610 H   0  0  0  0  0  0  0  0  0  0  0  0
   37.5950   28.8300   41.9950 C   0  0  0  0  0  0  0  0  0  0  0  0
   37.5430   28.6980   43.3880 C   0  0  0  0  0  0  0  0  0  0  0  0
   37.0180   29.2820   44.1210 H   0  0  0  0  0  0  0  0  0  0  0  0
   38.3420   27.6180   43.6330 N   0  0  0  0  0  0  0  0  0  0  0  0
   38.4960   27.2740   44.6230 H   0  0  0  0  0  0  0  0  0  0  0  0
   38.8630   27.0970   42.5090 C   0  0  0  0  0  0  0  0  0  0  0  0
   39.5180   26.2350   42.5420 H   0  0  0  0  0  0  0  0  0  0  0  0
   38.3890   27.8620   41.4910 N   0  0  0  0  0  0  0  0  0  0  0  0
  1 12  1  0  0  0  0
  2  1  2  0  0  0  0
  3  4  2  0  0  0  0
  3  8  1  0  0  0  0
  4  5  1  0  0  0  0
  5  1  1  0  0  0  0
  5  6  2  0  0  0  0
  7  6  1  0  0  0  0
  7 11  1  0  0  0  0
  8  7  2  0  0  0  0
  9  3  1  0  0  0  0
 10  4  1  0  0  0  0
 12 13  2  0  0  0  0
 13 15  1  0  0  0  0
 13 14  1  0  0  0  0
 15 16  1  0  0  0  0
 17 18  1  0  0  0  0
 17 15  1  0  0  0  0
 19 12  1  0  0  0  0
 19 17  2  0  0  0  0
M  END
>  <minimizedAffinity>
-3.70216894

$$$$
