
 OpenBabel03242523153D

 26 28  0  0  0  0  0  0  0  0999 V2000
   46.0430   34.5570   43.8950 C   0  0  0  0  0  0  0  0  0  0  0  0
   47.1140   33.8950   43.3890 C   0  0  0  0  0  0  0  0  0  0  0  0
   47.5430   32.8230   44.1470 C   0  0  0  0  0  0  0  0  0  0  0  0
   46.8750   32.5150   45.3210 N   0  0  0  0  0  0  0  0  0  0  0  0
   45.8250   33.2130   45.7630 C   0  0  0  0  0  0  0  0  0  0  0  0
   45.3800   34.2680   45.0430 N   0  0  0  0  0  0  0  0  0  0  0  0
   48.3810   32.1930   43.8840 H   0  0  0  0  0  0  0  0  0  0  0  0
   45.4060   32.8580   46.6930 H   0  0  0  0  0  0  0  0  0  0  0  0
   47.8380   34.2510   42.2270 C   0  0  0  0  0  0  0  0  0  0  0  0
   48.2360   35.4600   41.7530 C   0  0  0  0  0  0  0  0  0  0  0  0
   49.3710   34.6360   42.3590 C   0  0  0  0  0  0  0  0  0  0  0  0
   47.9940   33.2620   41.5980 H   0  0  0  0  0  0  0  0  0  0  0  0
   48.4140   35.6830   40.6590 H   0  0  0  0  0  0  0  0  0  0  0  0
   48.0720   36.4290   42.2940 H   0  0  0  0  0  0  0  0  0  0  0  0
   50.0940   34.1870   41.6870 H   0  0  0  0  0  0  0  0  0  0  0  0
   49.6660   34.8760   43.4030 H   0  0  0  0  0  0  0  0  0  0  0  0
   45.3080   35.6450   43.2180 C   0  0  0  0  0  0  0  0  0  0  0  0
   45.1970   36.8890   43.1170 O   0  0  0  0  0  0  0  0  0  0  0  0
   44.3220   34.9580   42.3040 C   0  0  0  0  0  0  0  0  0  0  0  0
   43.5470   35.6680   41.4110 C   0  0  0  0  0  0  0  0  0  0  0  0
   43.4420   36.7340   41.1540 H   0  0  0  0  0  0  0  0  0  0  0  0
   42.7190   34.8620   40.6780 N   0  0  0  0  0  0  0  0  0  0  0  0
   42.0210   35.0420   39.9380 H   0  0  0  0  0  0  0  0  0  0  0  0
   43.0200   33.6460   41.1570 C   0  0  0  0  0  0  0  0  0  0  0  0
   42.6170   32.6730   40.8800 H   0  0  0  0  0  0  0  0  0  0  0  0
   43.9550   33.6580   42.1120 N   0  0  0  0  0  0  0  0  0  0  0  0
  1  6  1  0  0  0  0
  2  1  2  0  0  0  0
  2  3  1  0  0  0  0
  3  4  2  0  0  0  0
  4  5  1  0  0  0  0
  5  8  1  0  0  0  0
  6  5  2  0  0  0  0
  7  3  1  0  0  0  0
  9 11  1  0  0  0  0
  9  2  1  0  0  0  0
 10  9  1  0  0  0  0
 10 14  1  0  0  0  0
 10 11  1  0  0  0  0
 11 16  1  0  0  0  0
 12  9  1  0  0  0  0
 13 10  1  0  0  0  0
 15 11  1  0  0  0  0
 17  1  1  0  0  0  0
 18 17  2  0  0  0  0
 19 17  1  0  0  0  0
 20 19  2  0  0  0  0
 21 20  1  0  0  0  0
 22 24  1  0  0  0  0
 22 20  1  0  0  0  0
 23 22  1  0  0  0  0
 24 26  2  0  0  0  0
 25 24  1  0  0  0  0
 26 19  1  0  0  0  0
M  END
>  <minimizedAffinity>
-4.62947321

>  <minimizedRMSD>
0.973787665

$$$$
