
 OpenBabel03252508283D

 38 41  0  0  1  0  0  0  0  0999 V2000
   41.2270   33.4360   39.4670 N   0  0  0  0  0  0  0  0  0  0  0  0
   41.3500   33.0520   40.8770 C   0  0  2  0  0  0  0  0  0  0  0  0
   40.1570   33.4320   41.6770 C   0  0  0  0  0  0  0  0  0  0  0  0
   39.0400   33.8470   40.8490 N   0  0  0  0  0  0  0  0  0  0  0  0
   39.3550   34.8300   39.8740 C   0  0  0  0  0  0  0  0  0  0  0  0
   40.8190   34.8590   39.5140 C   0  0  2  0  0  0  0  0  0  0  0  0
   40.5520   32.8630   38.9450 H   0  0  0  0  0  0  0  0  0  0  0  0
   41.4840   31.9590   40.9050 H   0  0  0  0  0  0  0  0  0  0  0  0
   39.7680   32.5410   42.2530 H   0  0  0  0  0  0  0  0  0  0  0  0
   40.2560   34.3160   42.3310 H   0  0  0  0  0  0  0  0  0  0  0  0
   38.5880   32.9850   40.4570 H   0  0  0  0  0  0  0  0  0  0  0  0
   39.0950   35.8440   40.2370 H   0  0  0  0  0  0  0  0  0  0  0  0
   38.7440   34.6700   38.9570 H   0  0  0  0  0  0  0  0  0  0  0  0
   41.3740   35.3170   40.3400 H   0  0  0  0  0  0  0  0  0  0  0  0
   41.0640   35.5560   38.2510 C   0  0  0  0  0  0  0  0  0  0  0  0
   40.2460   35.8500   37.2010 C   0  0  0  0  0  0  0  0  0  0  0  0
   39.2030   35.5860   37.1410 H   0  0  0  0  0  0  0  0  0  0  0  0
   40.9100   36.5150   36.2370 N   0  0  0  0  0  0  0  0  0  0  0  0
   40.6040   36.8920   35.3050 H   0  0  0  0  0  0  0  0  0  0  0  0
   42.1630   36.6480   36.6770 C   0  0  0  0  0  0  0  0  0  0  0  0
   43.0180   37.1300   36.1870 H   0  0  0  0  0  0  0  0  0  0  0  0
   42.2720   36.0760   37.8870 N   0  0  0  0  0  0  0  0  0  0  0  0
   44.5580   34.1980   42.0620 C   0  0  0  0  0  0  0  0  0  0  0  0
   43.6940   35.2670   42.3310 C   0  0  0  0  0  0  0  0  0  0  0  0
   42.4100   34.9490   41.9260 C   0  0  0  0  0  0  0  0  0  0  0  0
   42.5170   33.7200   41.4250 N   0  0  0  0  0  0  0  0  0  0  0  0
   43.7670   33.2820   41.5040 N   0  0  0  0  0  0  0  0  0  0  0  0
   44.1180   36.1640   42.7990 H   0  0  0  0  0  0  0  0  0  0  0  0
   41.7360   35.7710   42.1400 H   0  0  0  0  0  0  0  0  0  0  0  0
   48.2520   34.8840   42.2010 C   0  0  0  0  0  0  0  0  0  0  0  0
   46.8890   35.0280   41.7820 C   0  0  0  0  0  0  0  0  0  0  0  0
   45.9860   34.1770   42.3710 C   0  0  0  0  0  0  0  0  0  0  0  0
   46.4130   33.2750   43.2910 N   0  0  0  0  0  0  0  0  0  0  0  0
   47.7010   33.1560   43.6710 C   0  0  0  0  0  0  0  0  0  0  0  0
   48.5980   33.9680   43.1140 N   0  0  0  0  0  0  0  0  0  0  0  0
   48.9510   35.5620   41.7240 H   0  0  0  0  0  0  0  0  0  0  0  0
   46.5690   35.7440   41.0560 H   0  0  0  0  0  0  0  0  0  0  0  0
   47.9330   32.4080   44.4060 H   0  0  0  0  0  0  0  0  0  0  0  0
  1  6  1  0  0  0  0
  1  2  1  0  0  0  0
  2  8  1  1  0  0  0
  2 26  1  0  0  0  0
  2  3  1  0  0  0  0
  3  9  1  0  0  0  0
  3 10  1  0  0  0  0
  4  3  1  0  0  0  0
  5 12  1  0  0  0  0
  5  4  1  0  0  0  0
  6  5  1  0  0  0  0
  6 14  1  1  0  0  0
  7  1  1  0  0  0  0
 11  4  1  0  0  0  0
 13  5  1  0  0  0  0
 15  6  1  0  0  0  0
 16 15  2  0  0  0  0
 17 16  1  0  0  0  0
 18 20  1  0  0  0  0
 18 16  1  0  0  0  0
 19 18  1  0  0  0  0
 20 22  2  0  0  0  0
 21 20  1  0  0  0  0
 22 15  1  0  0  0  0
 23 24  1  0  0  0  0
 23 32  1  0  0  0  0
 24 28  1  0  0  0  0
 25 29  1  0  0  0  0
 25 24  2  0  0  0  0
 26 27  1  0  0  0  0
 26 25  1  0  0  0  0
 27 23  2  0  0  0  0
 30 35  1  0  0  0  0
 31 30  2  0  0  0  0
 31 32  1  0  0  0  0
 32 33  2  0  0  0  0
 33 34  1  0  0  0  0
 34 38  1  0  0  0  0
 35 34  2  0  0  0  0
 36 30  1  0  0  0  0
 37 31  1  0  0  0  0
M  END
>  <minimizedAffinity>
-4.49876928

>  <minimizedRMSD>
1.73397636

$$$$
