
 OpenBabel03252508303D

 38 41  0  0  1  0  0  0  0  0999 V2000
   38.1920   32.1070   38.2050 N   0  0  0  0  0  0  0  0  0  0  0  0
   37.3020   31.3120   39.0570 C   0  0  2  0  0  0  0  0  0  0  0  0
   36.9440   32.0110   40.3180 C   0  0  0  0  0  0  0  0  0  0  0  0
   37.3250   33.4120   40.3050 N   0  0  0  0  0  0  0  0  0  0  0  0
   38.6720   33.6580   39.9310 C   0  0  0  0  0  0  0  0  0  0  0  0
   39.2750   32.5400   39.1180 C   0  0  2  0  0  0  0  0  0  0  0  0
   37.7240   32.9080   37.7620 H   0  0  0  0  0  0  0  0  0  0  0  0
   36.3910   31.1060   38.4730 H   0  0  0  0  0  0  0  0  0  0  0  0
   35.8220   32.0240   40.4560 H   0  0  0  0  0  0  0  0  0  0  0  0
   37.4550   31.6770   41.2370 H   0  0  0  0  0  0  0  0  0  0  0  0
   36.6190   33.9360   39.7320 H   0  0  0  0  0  0  0  0  0  0  0  0
   39.3140   33.7850   40.8250 H   0  0  0  0  0  0  0  0  0  0  0  0
   38.7450   34.6150   39.3670 H   0  0  0  0  0  0  0  0  0  0  0  0
   39.4810   31.6940   39.7840 H   0  0  0  0  0  0  0  0  0  0  0  0
   40.4780   32.9640   38.4020 C   0  0  0  0  0  0  0  0  0  0  0  0
   41.1100   32.4560   37.3050 C   0  0  0  0  0  0  0  0  0  0  0  0
   40.7860   31.5870   36.7550 H   0  0  0  0  0  0  0  0  0  0  0  0
   42.1990   33.1820   36.9920 N   0  0  0  0  0  0  0  0  0  0  0  0
   42.9110   33.0840   36.2240 H   0  0  0  0  0  0  0  0  0  0  0  0
   42.2630   34.1610   37.8960 C   0  0  0  0  0  0  0  0  0  0  0  0
   43.0050   34.9660   37.9900 H   0  0  0  0  0  0  0  0  0  0  0  0
   41.2350   34.0450   38.7510 N   0  0  0  0  0  0  0  0  0  0  0  0
   38.8330   28.3630   40.4620 C   0  0  0  0  0  0  0  0  0  0  0  0
   39.0470   28.2340   39.0840 C   0  0  0  0  0  0  0  0  0  0  0  0
   38.5070   29.3200   38.4190 C   0  0  0  0  0  0  0  0  0  0  0  0
   37.9830   30.0720   39.3850 N   0  0  0  0  0  0  0  0  0  0  0  0
   38.1730   29.5150   40.5750 N   0  0  0  0  0  0  0  0  0  0  0  0
   39.5810   27.3440   38.7290 H   0  0  0  0  0  0  0  0  0  0  0  0
   38.6770   29.2270   37.3520 H   0  0  0  0  0  0  0  0  0  0  0  0
   39.6750   26.6110   43.6800 C   0  0  0  0  0  0  0  0  0  0  0  0
   39.1990   27.6540   42.8210 C   0  0  0  0  0  0  0  0  0  0  0  0
   39.2810   27.4070   41.4730 C   0  0  0  0  0  0  0  0  0  0  0  0
   39.7900   26.2270   41.0340 N   0  0  0  0  0  0  0  0  0  0  0  0
   40.2310   25.2580   41.8600 C   0  0  0  0  0  0  0  0  0  0  0  0
   40.1650   25.4720   43.1740 N   0  0  0  0  0  0  0  0  0  0  0  0
   39.6040   26.8230   44.7410 H   0  0  0  0  0  0  0  0  0  0  0  0
   38.8020   28.5790   43.1820 H   0  0  0  0  0  0  0  0  0  0  0  0
   40.6160   24.3620   41.4110 H   0  0  0  0  0  0  0  0  0  0  0  0
  1  2  1  0  0  0  0
  1  6  1  0  0  0  0
  2  8  1  6  0  0  0
  2 26  1  0  0  0  0
  2  3  1  0  0  0  0
  3  9  1  0  0  0  0
  3 10  1  0  0  0  0
  4  3  1  0  0  0  0
  5  4  1  0  0  0  0
  5 12  1  0  0  0  0
  6 14  1  1  0  0  0
  6  5  1  0  0  0  0
  7  1  1  0  0  0  0
 11  4  1  0  0  0  0
 13  5  1  0  0  0  0
 15 22  1  0  0  0  0
 15  6  1  0  0  0  0
 16 15  2  0  0  0  0
 17 16  1  0  0  0  0
 18 16  1  0  0  0  0
 18 20  1  0  0  0  0
 19 18  1  0  0  0  0
 20 21  1  0  0  0  0
 20 22  2  0  0  0  0
 23 27  2  0  0  0  0
 23 32  1  0  0  0  0
 24 23  1  0  0  0  0
 25 24  2  0  0  0  0
 25 26  1  0  0  0  0
 26 27  1  0  0  0  0
 28 24  1  0  0  0  0
 29 25  1  0  0  0  0
 30 36  1  0  0  0  0
 31 37  1  0  0  0  0
 31 30  2  0  0  0  0
 32 31  1  0  0  0  0
 33 32  2  0  0  0  0
 33 34  1  0  0  0  0
 34 35  2  0  0  0  0
 35 30  1  0  0  0  0
 38 34  1  0  0  0  0
M  END
>  <minimizedAffinity>
-5.6090312

$$$$

 OpenBabel03252508303D

 38 41  0  0  1  0  0  0  0  0999 V2000
   39.6090   30.9160   42.5630 N   0  0  0  0  0  0  0  0  0  0  0  0
   40.0350   29.5380   42.8280 C   0  0  2  0  0  0  0  0  0  0  0  0
   41.1880   29.1260   41.9870 C   0  0  0  0  0  0  0  0  0  0  0  0
   41.8020   30.2450   41.2960 N   0  0  0  0  0  0  0  0  0  0  0  0
   40.8960   31.0710   40.5790 C   0  0  0  0  0  0  0  0  0  0  0  0
   39.4800   30.9770   41.0880 C   0  0  2  0  0  0  0  0  0  0  0  0
   40.2670   31.6220   42.9170 H   0  0  0  0  0  0  0  0  0  0  0  0
   40.3130   29.4830   43.8930 H   0  0  0  0  0  0  0  0  0  0  0  0
   42.0150   28.7030   42.6300 H   0  0  0  0  0  0  0  0  0  0  0  0
   40.9710   28.4630   41.1320 H   0  0  0  0  0  0  0  0  0  0  0  0
   42.4000   30.7640   41.9840 H   0  0  0  0  0  0  0  0  0  0  0  0
   40.8690   30.7910   39.5070 H   0  0  0  0  0  0  0  0  0  0  0  0
   41.2370   32.1300   40.6080 H   0  0  0  0  0  0  0  0  0  0  0  0
   39.0560   30.0180   40.7710 H   0  0  0  0  0  0  0  0  0  0  0  0
   38.6560   32.1010   40.6430 C   0  0  0  0  0  0  0  0  0  0  0  0
   37.3340   32.1900   40.3240 C   0  0  0  0  0  0  0  0  0  0  0  0
   36.6370   31.3690   40.3560 H   0  0  0  0  0  0  0  0  0  0  0  0
   37.0040   33.4440   39.9610 N   0  0  0  0  0  0  0  0  0  0  0  0
   36.0920   33.8700   39.6570 H   0  0  0  0  0  0  0  0  0  0  0  0
   38.1260   34.1610   40.0490 C   0  0  0  0  0  0  0  0  0  0  0  0
   38.2810   35.2280   39.8380 H   0  0  0  0  0  0  0  0  0  0  0  0
   39.1290   33.3690   40.4580 N   0  0  0  0  0  0  0  0  0  0  0  0
   37.6260   27.0950   41.7140 C   0  0  0  0  0  0  0  0  0  0  0  0
   36.9670   27.7780   42.7440 C   0  0  0  0  0  0  0  0  0  0  0  0
   37.7910   28.7620   43.2600 C   0  0  0  0  0  0  0  0  0  0  0  0
   38.9130   28.6590   42.5510 N   0  0  0  0  0  0  0  0  0  0  0  0
   38.8180   27.6890   41.6500 N   0  0  0  0  0  0  0  0  0  0  0  0
   35.9460   27.4650   42.9950 H   0  0  0  0  0  0  0  0  0  0  0  0
   37.2810   29.2980   44.0530 H   0  0  0  0  0  0  0  0  0  0  0  0
   36.3180   23.7750   40.5340 C   0  0  0  0  0  0  0  0  0  0  0  0
   36.9060   24.7290   41.4260 C   0  0  0  0  0  0  0  0  0  0  0  0
   37.0520   26.0020   40.9320 C   0  0  0  0  0  0  0  0  0  0  0  0
   36.6470   26.2840   39.6680 N   0  0  0  0  0  0  0  0  0  0  0  0
   36.0950   25.3700   38.8450 C   0  0  0  0  0  0  0  0  0  0  0  0
   35.9420   24.1270   39.2980 N   0  0  0  0  0  0  0  0  0  0  0  0
   36.2100   22.7750   40.9390 H   0  0  0  0  0  0  0  0  0  0  0  0
   37.2200   24.4910   42.4190 H   0  0  0  0  0  0  0  0  0  0  0  0
   35.8090   25.6980   37.8630 H   0  0  0  0  0  0  0  0  0  0  0  0
  1  2  1  0  0  0  0
  1  7  1  0  0  0  0
  2  8  1  1  0  0  0
  3  9  1  0  0  0  0
  3  2  1  0  0  0  0
  4 11  1  0  0  0  0
  4  3  1  0  0  0  0
  5 13  1  0  0  0  0
  5  6  1  0  0  0  0
  5  4  1  0  0  0  0
  6 14  1  6  0  0  0
  6  1  1  0  0  0  0
 10  3  1  0  0  0  0
 12  5  1  0  0  0  0
 15  6  1  0  0  0  0
 16 17  1  0  0  0  0
 16 15  2  0  0  0  0
 18 20  1  0  0  0  0
 18 16  1  0  0  0  0
 19 18  1  0  0  0  0
 20 22  2  0  0  0  0
 21 20  1  0  0  0  0
 22 15  1  0  0  0  0
 23 24  1  0  0  0  0
 24 28  1  0  0  0  0
 24 25  2  0  0  0  0
 25 29  1  0  0  0  0
 26  2  1  0  0  0  0
 26 25  1  0  0  0  0
 27 23  2  0  0  0  0
 27 26  1  0  0  0  0
 30 36  1  0  0  0  0
 30 31  1  0  0  0  0
 31 37  1  0  0  0  0
 32 31  2  0  0  0  0
 32 23  1  0  0  0  0
 33 32  1  0  0  0  0
 34 35  1  0  0  0  0
 34 33  2  0  0  0  0
 35 30  2  0  0  0  0
 38 34  1  0  0  0  0
M  END
>  <minimizedAffinity>
-5.47945929

$$$$

 OpenBabel03252508303D

 38 41  0  0  1  0  0  0  0  0999 V2000
   42.4270   33.2890   36.9630 N   0  0  0  0  0  0  0  0  0  0  0  0
   41.6610   33.8140   38.0970 C   0  0  2  0  0  0  0  0  0  0  0  0
   42.5230   34.1610   39.2570 C   0  0  0  0  0  0  0  0  0  0  0  0
   43.9350   34.1610   38.9190 N   0  0  0  0  0  0  0  0  0  0  0  0
   44.3890   32.9900   38.2580 C   0  0  0  0  0  0  0  0  0  0  0  0
   43.2840   32.2380   37.5600 C   0  0  2  0  0  0  0  0  0  0  0  0
   42.9840   34.0050   36.4800 H   0  0  0  0  0  0  0  0  0  0  0  0
   41.1320   34.7130   37.7440 H   0  0  0  0  0  0  0  0  0  0  0  0
   42.3140   35.2160   39.6020 H   0  0  0  0  0  0  0  0  0  0  0  0
   42.5250   33.4570   40.1070 H   0  0  0  0  0  0  0  0  0  0  0  0
   44.1470   35.0520   38.4070 H   0  0  0  0  0  0  0  0  0  0  0  0
   44.8520   32.2850   38.9760 H   0  0  0  0  0  0  0  0  0  0  0  0
   45.1890   33.2480   37.5270 H   0  0  0  0  0  0  0  0  0  0  0  0
   42.6750   31.7290   38.3160 H   0  0  0  0  0  0  0  0  0  0  0  0
   43.7980   31.2990   36.5630 C   0  0  0  0  0  0  0  0  0  0  0  0
   43.2080   30.2640   35.8990 C   0  0  0  0  0  0  0  0  0  0  0  0
   42.1820   29.9590   36.0230 H   0  0  0  0  0  0  0  0  0  0  0  0
   44.0760   29.6670   35.0610 N   0  0  0  0  0  0  0  0  0  0  0  0
   43.9690   28.8520   34.4040 H   0  0  0  0  0  0  0  0  0  0  0  0
   45.2280   30.3250   35.1920 C   0  0  0  0  0  0  0  0  0  0  0  0
   46.1860   30.1490   34.6820 H   0  0  0  0  0  0  0  0  0  0  0  0
   45.0790   31.3100   36.0910 N   0  0  0  0  0  0  0  0  0  0  0  0
   39.4710   31.4360   39.6990 C   0  0  0  0  0  0  0  0  0  0  0  0
   39.1960   31.2860   38.3350 C   0  0  0  0  0  0  0  0  0  0  0  0
   39.9860   32.1490   37.5970 C   0  0  0  0  0  0  0  0  0  0  0  0
   40.7100   32.7950   38.5080 N   0  0  0  0  0  0  0  0  0  0  0  0
   40.4110   32.3800   39.7330 N   0  0  0  0  0  0  0  0  0  0  0  0
   38.4360   30.5510   38.0420 H   0  0  0  0  0  0  0  0  0  0  0  0
   39.7810   32.0310   36.5390 H   0  0  0  0  0  0  0  0  0  0  0  0
   38.7160   29.5840   42.8830 C   0  0  0  0  0  0  0  0  0  0  0  0
   39.4860   30.3250   41.9280 C   0  0  0  0  0  0  0  0  0  0  0  0
   38.8330   30.6740   40.7710 C   0  0  0  0  0  0  0  0  0  0  0  0
   37.5360   30.3150   40.5950 N   0  0  0  0  0  0  0  0  0  0  0  0
   36.8300   29.6180   41.5070 C   0  0  0  0  0  0  0  0  0  0  0  0
   37.4390   29.2650   42.6380 N   0  0  0  0  0  0  0  0  0  0  0  0
   39.2460   29.3160   43.7900 H   0  0  0  0  0  0  0  0  0  0  0  0
   40.5070   30.6000   42.0810 H   0  0  0  0  0  0  0  0  0  0  0  0
   35.8090   29.3840   41.2700 H   0  0  0  0  0  0  0  0  0  0  0  0
  1  6  1  0  0  0  0
  1  2  1  0  0  0  0
  2  8  1  6  0  0  0
  2 26  1  0  0  0  0
  2  3  1  0  0  0  0
  3  9  1  0  0  0  0
  3 10  1  0  0  0  0
  4  3  1  0  0  0  0
  5  4  1  0  0  0  0
  5 12  1  0  0  0  0
  6  5  1  0  0  0  0
  6 14  1  1  0  0  0
  7  1  1  0  0  0  0
 11  4  1  0  0  0  0
 13  5  1  0  0  0  0
 15  6  1  0  0  0  0
 16 17  1  0  0  0  0
 16 15  2  0  0  0  0
 18 20  1  0  0  0  0
 18 16  1  0  0  0  0
 19 18  1  0  0  0  0
 20 22  2  0  0  0  0
 21 20  1  0  0  0  0
 22 15  1  0  0  0  0
 23 27  2  0  0  0  0
 23 32  1  0  0  0  0
 24 23  1  0  0  0  0
 25 24  2  0  0  0  0
 25 26  1  0  0  0  0
 26 27  1  0  0  0  0
 28 24  1  0  0  0  0
 29 25  1  0  0  0  0
 30 36  1  0  0  0  0
 31 37  1  0  0  0  0
 31 30  2  0  0  0  0
 32 31  1  0  0  0  0
 33 32  2  0  0  0  0
 33 34  1  0  0  0  0
 34 35  2  0  0  0  0
 35 30  1  0  0  0  0
 38 34  1  0  0  0  0
M  END
>  <minimizedAffinity>
-5.44889498

$$$$

 OpenBabel03252508303D

 38 41  0  0  1  0  0  0  0  0999 V2000
   35.4130   29.5340   39.0600 N   0  0  0  0  0  0  0  0  0  0  0  0
   35.5120   29.5250   40.5230 C   0  0  2  0  0  0  0  0  0  0  0  0
   36.2670   30.6910   41.0510 C   0  0  0  0  0  0  0  0  0  0  0  0
   36.4990   31.7070   40.0400 N   0  0  0  0  0  0  0  0  0  0  0  0
   37.0580   31.2240   38.8280 C   0  0  0  0  0  0  0  0  0  0  0  0
   36.8050   29.7540   38.6040 C   0  0  2  0  0  0  0  0  0  0  0  0
   34.7750   30.2550   38.6990 H   0  0  0  0  0  0  0  0  0  0  0  0
   34.4840   29.5360   40.9190 H   0  0  0  0  0  0  0  0  0  0  0  0
   35.6680   31.2200   41.8500 H   0  0  0  0  0  0  0  0  0  0  0  0
   37.3020   30.5070   41.3850 H   0  0  0  0  0  0  0  0  0  0  0  0
   35.6100   32.2510   39.9150 H   0  0  0  0  0  0  0  0  0  0  0  0
   38.1570   31.3650   38.8160 H   0  0  0  0  0  0  0  0  0  0  0  0
   36.6670   31.8090   37.9650 H   0  0  0  0  0  0  0  0  0  0  0  0
   37.4500   29.1810   39.2790 H   0  0  0  0  0  0  0  0  0  0  0  0
   37.0070   29.3650   37.2090 C   0  0  0  0  0  0  0  0  0  0  0  0
   38.0000   28.6590   36.5950 C   0  0  0  0  0  0  0  0  0  0  0  0
   38.8610   28.2470   37.0960 H   0  0  0  0  0  0  0  0  0  0  0  0
   37.7680   28.5400   35.2750 N   0  0  0  0  0  0  0  0  0  0  0  0
   38.3110   28.0700   34.5060 H   0  0  0  0  0  0  0  0  0  0  0  0
   36.6180   29.1750   35.0430 C   0  0  0  0  0  0  0  0  0  0  0  0
   36.0820   29.3080   34.0930 H   0  0  0  0  0  0  0  0  0  0  0  0
   36.1470   29.6760   36.1950 N   0  0  0  0  0  0  0  0  0  0  0  0
   37.1240   26.3220   40.9150 C   0  0  0  0  0  0  0  0  0  0  0  0
   37.2500   26.9220   42.1740 C   0  0  0  0  0  0  0  0  0  0  0  0
   36.6570   28.1720   42.1610 C   0  0  0  0  0  0  0  0  0  0  0  0
   36.1950   28.3060   40.9200 N   0  0  0  0  0  0  0  0  0  0  0  0
   36.4660   27.2290   40.1940 N   0  0  0  0  0  0  0  0  0  0  0  0
   37.7700   26.3610   42.9600 H   0  0  0  0  0  0  0  0  0  0  0  0
   36.7460   28.6380   43.1360 H   0  0  0  0  0  0  0  0  0  0  0  0
   37.5750   22.6140   40.4840 C   0  0  0  0  0  0  0  0  0  0  0  0
   36.9580   23.8370   40.9050 C   0  0  0  0  0  0  0  0  0  0  0  0
   37.6200   24.9910   40.5680 C   0  0  0  0  0  0  0  0  0  0  0  0
   38.7860   24.9210   39.8750 N   0  0  0  0  0  0  0  0  0  0  0  0
   39.3490   23.7590   39.4880 C   0  0  0  0  0  0  0  0  0  0  0  0
   38.7270   22.6240   39.8030 N   0  0  0  0  0  0  0  0  0  0  0  0
   37.0390   21.7130   40.7590 H   0  0  0  0  0  0  0  0  0  0  0  0
   36.0390   23.8760   41.4510 H   0  0  0  0  0  0  0  0  0  0  0  0
   40.2730   23.8140   38.9440 H   0  0  0  0  0  0  0  0  0  0  0  0
  1  2  1  0  0  0  0
  2  8  1  1  0  0  0
  2 26  1  0  0  0  0
  2  3  1  0  0  0  0
  3 10  1  0  0  0  0
  3  9  1  0  0  0  0
  4  3  1  0  0  0  0
  5  4  1  0  0  0  0
  6  5  1  0  0  0  0
  6  1  1  0  0  0  0
  6 14  1  1  0  0  0
  7  1  1  0  0  0  0
 11  4  1  0  0  0  0
 12  5  1  0  0  0  0
 13  5  1  0  0  0  0
 15  6  1  0  0  0  0
 16 17  1  0  0  0  0
 16 15  2  0  0  0  0
 18 16  1  0  0  0  0
 19 18  1  0  0  0  0
 20 18  1  0  0  0  0
 20 22  2  0  0  0  0
 21 20  1  0  0  0  0
 22 15  1  0  0  0  0
 23 24  1  0  0  0  0
 24 28  1  0  0  0  0
 25 24  2  0  0  0  0
 25 29  1  0  0  0  0
 26 25  1  0  0  0  0
 27 23  2  0  0  0  0
 27 26  1  0  0  0  0
 30 36  1  0  0  0  0
 30 31  1  0  0  0  0
 31 37  1  0  0  0  0
 32 31  2  0  0  0  0
 32 23  1  0  0  0  0
 33 32  1  0  0  0  0
 34 35  1  0  0  0  0
 34 33  2  0  0  0  0
 35 30  2  0  0  0  0
 38 34  1  0  0  0  0
M  END
>  <minimizedAffinity>
-5.42914248

$$$$

 OpenBabel03252508303D

 38 41  0  0  1  0  0  0  0  0999 V2000
   36.6280   29.9200   41.8960 N   0  0  0  0  0  0  0  0  0  0  0  0
   36.4930   28.4690   41.7400 C   0  0  2  0  0  0  0  0  0  0  0  0
   37.7720   27.7480   41.9690 C   0  0  0  0  0  0  0  0  0  0  0  0
   38.7920   28.5980   42.5550 N   0  0  0  0  0  0  0  0  0  0  0  0
   38.9960   29.8320   41.8830 C   0  0  0  0  0  0  0  0  0  0  0  0
   37.8060   30.2650   41.0660 C   0  0  2  0  0  0  0  0  0  0  0  0
   36.7520   30.2150   42.8730 H   0  0  0  0  0  0  0  0  0  0  0  0
   35.7400   28.1320   42.4690 H   0  0  0  0  0  0  0  0  0  0  0  0
   37.6280   26.9180   42.7230 H   0  0  0  0  0  0  0  0  0  0  0  0
   38.3090   27.3860   41.0760 H   0  0  0  0  0  0  0  0  0  0  0  0
   38.5850   28.6980   43.5790 H   0  0  0  0  0  0  0  0  0  0  0  0
   39.8550   29.7650   41.1860 H   0  0  0  0  0  0  0  0  0  0  0  0
   39.2610   30.6280   42.6150 H   0  0  0  0  0  0  0  0  0  0  0  0
   37.7500   29.6390   40.1680 H   0  0  0  0  0  0  0  0  0  0  0  0
   37.8560   31.6870   40.7260 C   0  0  0  0  0  0  0  0  0  0  0  0
   36.9870   32.4930   40.0510 C   0  0  0  0  0  0  0  0  0  0  0  0
   36.0490   32.1690   39.6300 H   0  0  0  0  0  0  0  0  0  0  0  0
   37.4510   33.7540   39.9770 N   0  0  0  0  0  0  0  0  0  0  0  0
   37.0530   34.6240   39.5390 H   0  0  0  0  0  0  0  0  0  0  0  0
   38.6260   33.7540   40.6090 C   0  0  0  0  0  0  0  0  0  0  0  0
   39.3230   34.5870   40.7700 H   0  0  0  0  0  0  0  0  0  0  0  0
   38.8840   32.5190   41.0660 N   0  0  0  0  0  0  0  0  0  0  0  0
   35.0590   28.3470   38.4320 C   0  0  0  0  0  0  0  0  0  0  0  0
   35.8640   27.2030   38.4960 C   0  0  0  0  0  0  0  0  0  0  0  0
   36.4750   27.1250   39.7350 C   0  0  0  0  0  0  0  0  0  0  0  0
   36.0410   28.2020   40.3850 N   0  0  0  0  0  0  0  0  0  0  0  0
   35.2160   28.9150   39.6280 N   0  0  0  0  0  0  0  0  0  0  0  0
   35.9060   26.5550   37.6120 H   0  0  0  0  0  0  0  0  0  0  0  0
   37.0930   26.2360   39.7910 H   0  0  0  0  0  0  0  0  0  0  0  0
   32.2680   29.3930   36.1410 C   0  0  0  0  0  0  0  0  0  0  0  0
   32.9100   29.0130   37.3640 C   0  0  0  0  0  0  0  0  0  0  0  0
   34.2530   28.7410   37.2780 C   0  0  0  0  0  0  0  0  0  0  0  0
   34.8850   28.8430   36.0810 N   0  0  0  0  0  0  0  0  0  0  0  0
   34.2610   29.2020   34.9410 C   0  0  0  0  0  0  0  0  0  0  0  0
   32.9570   29.4710   34.9960 N   0  0  0  0  0  0  0  0  0  0  0  0
   31.2070   29.6040   36.2270 H   0  0  0  0  0  0  0  0  0  0  0  0
   32.3980   28.9380   38.3000 H   0  0  0  0  0  0  0  0  0  0  0  0
   34.8530   29.2520   34.0470 H   0  0  0  0  0  0  0  0  0  0  0  0
  1  7  1  0  0  0  0
  2  1  1  0  0  0  0
  2  3  1  0  0  0  0
  2  8  1  1  0  0  0
  3  4  1  0  0  0  0
  3  9  1  0  0  0  0
  4 11  1  0  0  0  0
  5  4  1  0  0  0  0
  5 13  1  0  0  0  0
  6 14  1  6  0  0  0
  6  5  1  0  0  0  0
  6  1  1  0  0  0  0
 10  3  1  0  0  0  0
 12  5  1  0  0  0  0
 15 22  1  0  0  0  0
 15  6  1  0  0  0  0
 16 15  2  0  0  0  0
 17 16  1  0  0  0  0
 18 16  1  0  0  0  0
 18 20  1  0  0  0  0
 19 18  1  0  0  0  0
 20 21  1  0  0  0  0
 20 22  2  0  0  0  0
 23 24  1  0  0  0  0
 23 27  2  0  0  0  0
 24 25  2  0  0  0  0
 25 29  1  0  0  0  0
 25 26  1  0  0  0  0
 26  2  1  0  0  0  0
 27 26  1  0  0  0  0
 28 24  1  0  0  0  0
 30 36  1  0  0  0  0
 30 31  1  0  0  0  0
 31 37  1  0  0  0  0
 32 31  2  0  0  0  0
 32 23  1  0  0  0  0
 33 32  1  0  0  0  0
 34 35  1  0  0  0  0
 34 33  2  0  0  0  0
 35 30  2  0  0  0  0
 38 34  1  0  0  0  0
M  END
>  <minimizedAffinity>
-5.41867876

$$$$

 OpenBabel03252508303D

 38 41  0  0  1  0  0  0  0  0999 V2000
   39.0140   31.4650   39.5050 N   0  0  0  0  0  0  0  0  0  0  0  0
   37.6690   30.9090   39.6810 C   0  0  2  0  0  0  0  0  0  0  0  0
   36.6750   31.9370   40.0840 C   0  0  0  0  0  0  0  0  0  0  0  0
   37.1870   33.2890   39.9510 N   0  0  0  0  0  0  0  0  0  0  0  0
   38.4490   33.5100   40.5620 C   0  0  0  0  0  0  0  0  0  0  0  0
   39.2480   32.2440   40.7440 C   0  0  2  0  0  0  0  0  0  0  0  0
   39.1070   32.0490   38.6650 H   0  0  0  0  0  0  0  0  0  0  0  0
   37.3740   30.4620   38.7190 H   0  0  0  0  0  0  0  0  0  0  0  0
   35.7760   31.9060   39.4000 H   0  0  0  0  0  0  0  0  0  0  0  0
   36.3680   31.9480   41.1440 H   0  0  0  0  0  0  0  0  0  0  0  0
   37.1510   33.5520   38.9360 H   0  0  0  0  0  0  0  0  0  0  0  0
   38.3280   33.9590   41.5680 H   0  0  0  0  0  0  0  0  0  0  0  0
   39.0390   34.2460   39.9700 H   0  0  0  0  0  0  0  0  0  0  0  0
   38.8090   31.6670   41.5650 H   0  0  0  0  0  0  0  0  0  0  0  0
   40.6670   32.5150   40.9770 C   0  0  0  0  0  0  0  0  0  0  0  0
   41.6570   31.7610   41.5340 C   0  0  0  0  0  0  0  0  0  0  0  0
   41.5280   30.7630   41.9200 H   0  0  0  0  0  0  0  0  0  0  0  0
   42.8280   32.4250   41.5410 N   0  0  0  0  0  0  0  0  0  0  0  0
   43.7850   32.1570   41.8860 H   0  0  0  0  0  0  0  0  0  0  0  0
   42.5830   33.6120   40.9840 C   0  0  0  0  0  0  0  0  0  0  0  0
   43.2760   34.4460   40.8050 H   0  0  0  0  0  0  0  0  0  0  0  0
   41.2880   33.6830   40.6390 N   0  0  0  0  0  0  0  0  0  0  0  0
   38.2730   28.1190   41.8870 C   0  0  0  0  0  0  0  0  0  0  0  0
   37.3110   28.8820   42.5600 C   0  0  0  0  0  0  0  0  0  0  0  0
   36.9810   29.9950   41.8060 C   0  0  0  0  0  0  0  0  0  0  0  0
   37.7350   29.8900   40.7140 N   0  0  0  0  0  0  0  0  0  0  0  0
   38.4870   28.7980   40.7600 N   0  0  0  0  0  0  0  0  0  0  0  0
   36.9640   28.5250   43.5370 H   0  0  0  0  0  0  0  0  0  0  0  0
   36.2310   30.5850   42.3210 H   0  0  0  0  0  0  0  0  0  0  0  0
   40.3090   25.5150   43.6780 C   0  0  0  0  0  0  0  0  0  0  0  0
   39.8700   26.8230   43.2910 C   0  0  0  0  0  0  0  0  0  0  0  0
   38.8430   26.8670   42.3800 C   0  0  0  0  0  0  0  0  0  0  0  0
   38.3130   25.7100   41.9070 N   0  0  0  0  0  0  0  0  0  0  0  0
   38.7420   24.4890   42.2850 C   0  0  0  0  0  0  0  0  0  0  0  0
   39.7380   24.4180   43.1670 N   0  0  0  0  0  0  0  0  0  0  0  0
   41.1210   25.4990   44.3970 H   0  0  0  0  0  0  0  0  0  0  0  0
   40.2980   27.7250   43.6730 H   0  0  0  0  0  0  0  0  0  0  0  0
   38.2540   23.6370   41.8500 H   0  0  0  0  0  0  0  0  0  0  0  0
  1  2  1  0  0  0  0
  1  6  1  0  0  0  0
  2  8  1  6  0  0  0
  2  3  1  0  0  0  0
  2 26  1  0  0  0  0
  3 10  1  0  0  0  0
  4  3  1  0  0  0  0
  4  5  1  0  0  0  0
  5  6  1  0  0  0  0
  5 12  1  0  0  0  0
  6 15  1  0  0  0  0
  6 14  1  1  0  0  0
  7  1  1  0  0  0  0
  9  3  1  0  0  0  0
 11  4  1  0  0  0  0
 13  5  1  0  0  0  0
 15 16  2  0  0  0  0
 16 18  1  0  0  0  0
 16 17  1  0  0  0  0
 18 19  1  0  0  0  0
 20 18  1  0  0  0  0
 21 20  1  0  0  0  0
 22 15  1  0  0  0  0
 22 20  2  0  0  0  0
 23 32  1  0  0  0  0
 23 24  1  0  0  0  0
 24 28  1  0  0  0  0
 25 29  1  0  0  0  0
 25 24  2  0  0  0  0
 26 27  1  0  0  0  0
 26 25  1  0  0  0  0
 27 23  2  0  0  0  0
 30 36  1  0  0  0  0
 31 37  1  0  0  0  0
 31 30  1  0  0  0  0
 32 31  2  0  0  0  0
 33 34  2  0  0  0  0
 33 32  1  0  0  0  0
 34 35  1  0  0  0  0
 35 30  2  0  0  0  0
 38 34  1  0  0  0  0
M  END
>  <minimizedAffinity>
-5.41287708

$$$$

 OpenBabel03252508303D

 38 41  0  0  1  0  0  0  0  0999 V2000
   36.3670   30.4800   39.0650 N   0  0  0  0  0  0  0  0  0  0  0  0
   36.7060   31.0900   40.3550 C   0  0  2  0  0  0  0  0  0  0  0  0
   37.3780   32.4070   40.2040 C   0  0  0  0  0  0  0  0  0  0  0  0
   37.3070   32.9160   38.8470 N   0  0  0  0  0  0  0  0  0  0  0  0
   37.7180   31.9980   37.8450 C   0  0  0  0  0  0  0  0  0  0  0  0
   37.6250   30.5590   38.2870 C   0  0  2  0  0  0  0  0  0  0  0  0
   35.5910   30.9500   38.5830 H   0  0  0  0  0  0  0  0  0  0  0  0
   35.7640   31.2140   40.9120 H   0  0  0  0  0  0  0  0  0  0  0  0
   36.8550   33.1910   40.8280 H   0  0  0  0  0  0  0  0  0  0  0  0
   38.4690   32.4320   40.3660 H   0  0  0  0  0  0  0  0  0  0  0  0
   36.3470   33.3110   38.6970 H   0  0  0  0  0  0  0  0  0  0  0  0
   38.7720   32.1760   37.5540 H   0  0  0  0  0  0  0  0  0  0  0  0
   37.1180   32.1470   36.9190 H   0  0  0  0  0  0  0  0  0  0  0  0
   38.4420   30.3550   38.9880 H   0  0  0  0  0  0  0  0  0  0  0  0
   37.6450   29.6310   37.1560 C   0  0  0  0  0  0  0  0  0  0  0  0
   38.5150   28.6410   36.8060 C   0  0  0  0  0  0  0  0  0  0  0  0
   39.3960   28.3710   37.3650 H   0  0  0  0  0  0  0  0  0  0  0  0
   38.1300   28.0350   35.6680 N   0  0  0  0  0  0  0  0  0  0  0  0
   38.5520   27.2450   35.1150 H   0  0  0  0  0  0  0  0  0  0  0  0
   37.0060   28.6440   35.2870 C   0  0  0  0  0  0  0  0  0  0  0  0
   36.3780   28.4470   34.4060 H   0  0  0  0  0  0  0  0  0  0  0  0
   36.7000   29.6060   36.1700 N   0  0  0  0  0  0  0  0  0  0  0  0
   38.5320   28.3950   41.9090 C   0  0  0  0  0  0  0  0  0  0  0  0
   39.2910   29.5350   42.2030 C   0  0  0  0  0  0  0  0  0  0  0  0
   38.6870   30.6560   41.6620 C   0  0  0  0  0  0  0  0  0  0  0  0
   37.5970   30.1860   41.0600 N   0  0  0  0  0  0  0  0  0  0  0  0
   37.5050   28.8700   41.2040 N   0  0  0  0  0  0  0  0  0  0  0  0
   40.2100   29.4020   42.7870 H   0  0  0  0  0  0  0  0  0  0  0  0
   39.2690   31.5420   41.8930 H   0  0  0  0  0  0  0  0  0  0  0  0
   40.0490   25.3750   43.5560 C   0  0  0  0  0  0  0  0  0  0  0  0
   39.8580   26.7600   43.2380 C   0  0  0  0  0  0  0  0  0  0  0  0
   38.8610   27.0370   42.3350 C   0  0  0  0  0  0  0  0  0  0  0  0
   38.1310   26.0220   41.8060 N   0  0  0  0  0  0  0  0  0  0  0  0
   38.3270   24.7260   42.1190 C   0  0  0  0  0  0  0  0  0  0  0  0
   39.2880   24.4280   42.9930 N   0  0  0  0  0  0  0  0  0  0  0  0
   40.8400   25.1740   44.2700 H   0  0  0  0  0  0  0  0  0  0  0  0
   40.4420   27.5470   43.6640 H   0  0  0  0  0  0  0  0  0  0  0  0
   37.6940   24.0000   41.6440 H   0  0  0  0  0  0  0  0  0  0  0  0
  1  2  1  0  0  0  0
  2  8  1  1  0  0  0
  2 26  1  0  0  0  0
  3  2  1  0  0  0  0
  3 10  1  0  0  0  0
  3  9  1  0  0  0  0
  4  3  1  0  0  0  0
  5  6  1  0  0  0  0
  5  4  1  0  0  0  0
  6 14  1  1  0  0  0
  6  1  1  0  0  0  0
  7  1  1  0  0  0  0
 11  4  1  0  0  0  0
 12  5  1  0  0  0  0
 13  5  1  0  0  0  0
 15  6  1  0  0  0  0
 16 15  2  0  0  0  0
 16 17  1  0  0  0  0
 18 16  1  0  0  0  0
 19 18  1  0  0  0  0
 20 18  1  0  0  0  0
 20 22  2  0  0  0  0
 21 20  1  0  0  0  0
 22 15  1  0  0  0  0
 23 24  1  0  0  0  0
 23 32  1  0  0  0  0
 24 28  1  0  0  0  0
 25 29  1  0  0  0  0
 25 24  2  0  0  0  0
 26 27  1  0  0  0  0
 26 25  1  0  0  0  0
 27 23  2  0  0  0  0
 30 36  1  0  0  0  0
 31 30  1  0  0  0  0
 31 37  1  0  0  0  0
 32 31  2  0  0  0  0
 33 34  2  0  0  0  0
 33 32  1  0  0  0  0
 34 35  1  0  0  0  0
 35 30  2  0  0  0  0
 38 34  1  0  0  0  0
M  END
>  <minimizedAffinity>
-5.33515644

$$$$

 OpenBabel03252508303D

 38 41  0  0  1  0  0  0  0  0999 V2000
   36.5820   31.1600   39.6560 N   0  0  0  0  0  0  0  0  0  0  0  0
   37.2190   31.9790   38.6200 C   0  0  2  0  0  0  0  0  0  0  0  0
   37.7500   31.1660   37.4960 C   0  0  0  0  0  0  0  0  0  0  0  0
   37.2870   29.7900   37.5370 N   0  0  0  0  0  0  0  0  0  0  0  0
   37.4650   29.1400   38.7860 C   0  0  0  0  0  0  0  0  0  0  0  0
   37.5780   30.1010   39.9430 C   0  0  2  0  0  0  0  0  0  0  0  0
   35.6790   30.7650   39.3650 H   0  0  0  0  0  0  0  0  0  0  0  0
   36.4570   32.6800   38.2450 H   0  0  0  0  0  0  0  0  0  0  0  0
   37.3700   31.5620   36.5080 H   0  0  0  0  0  0  0  0  0  0  0  0
   38.8410   31.0050   37.4670 H   0  0  0  0  0  0  0  0  0  0  0  0
   36.3010   29.7680   37.1790 H   0  0  0  0  0  0  0  0  0  0  0  0
   38.3910   28.5300   38.7860 H   0  0  0  0  0  0  0  0  0  0  0  0
   36.6310   28.4260   38.9690 H   0  0  0  0  0  0  0  0  0  0  0  0
   38.5630   30.5790   39.9070 H   0  0  0  0  0  0  0  0  0  0  0  0
   37.3450   29.4460   41.2300 C   0  0  0  0  0  0  0  0  0  0  0  0
   36.4020   28.5490   41.6380 C   0  0  0  0  0  0  0  0  0  0  0  0
   35.6180   28.1550   41.0130 H   0  0  0  0  0  0  0  0  0  0  0  0
   36.5760   28.2140   42.9300 N   0  0  0  0  0  0  0  0  0  0  0  0
   36.0470   27.5620   43.5630 H   0  0  0  0  0  0  0  0  0  0  0  0
   37.6380   28.9020   43.3500 C   0  0  0  0  0  0  0  0  0  0  0  0
   38.1060   28.9100   44.3450 H   0  0  0  0  0  0  0  0  0  0  0  0
   38.1130   29.6480   42.3410 N   0  0  0  0  0  0  0  0  0  0  0  0
   40.3090   33.4620   39.7460 C   0  0  0  0  0  0  0  0  0  0  0  0
   39.3250   34.1050   40.5080 C   0  0  0  0  0  0  0  0  0  0  0  0
   38.0750   33.6150   40.1750 C   0  0  0  0  0  0  0  0  0  0  0  0
   38.3170   32.7050   39.2330 N   0  0  0  0  0  0  0  0  0  0  0  0
   39.6180   32.6150   38.9830 N   0  0  0  0  0  0  0  0  0  0  0  0
   39.6500   34.8670   41.2270 H   0  0  0  0  0  0  0  0  0  0  0  0
   37.3110   34.1040   40.7680 H   0  0  0  0  0  0  0  0  0  0  0  0
   43.7960   34.1600   40.9640 C   0  0  0  0  0  0  0  0  0  0  0  0
   42.3840   33.9310   41.0400 C   0  0  0  0  0  0  0  0  0  0  0  0
   41.7440   33.7180   39.8440 C   0  0  0  0  0  0  0  0  0  0  0  0
   42.4560   33.7330   38.6880 N   0  0  0  0  0  0  0  0  0  0  0  0
   43.7860   33.9510   38.6390 C   0  0  0  0  0  0  0  0  0  0  0  0
   44.4310   34.1610   39.7860 N   0  0  0  0  0  0  0  0  0  0  0  0
   44.2850   34.3270   41.9180 H   0  0  0  0  0  0  0  0  0  0  0  0
   41.8370   33.9220   41.9590 H   0  0  0  0  0  0  0  0  0  0  0  0
   44.2530   33.9420   37.6720 H   0  0  0  0  0  0  0  0  0  0  0  0
  1  6  1  0  0  0  0
  2  8  1  6  0  0  0
  2 26  1  0  0  0  0
  2  1  1  0  0  0  0
  3  4  1  0  0  0  0
  3  2  1  0  0  0  0
  4  5  1  0  0  0  0
  5 12  1  0  0  0  0
  5 13  1  0  0  0  0
  5  6  1  0  0  0  0
  6 14  1  1  0  0  0
  6 15  1  0  0  0  0
  7  1  1  0  0  0  0
  9  3  1  0  0  0  0
 10  3  1  0  0  0  0
 11  4  1  0  0  0  0
 15 16  2  0  0  0  0
 15 22  1  0  0  0  0
 16 18  1  0  0  0  0
 17 16  1  0  0  0  0
 18 20  1  0  0  0  0
 18 19  1  0  0  0  0
 20 21  1  0  0  0  0
 22 20  2  0  0  0  0
 23 32  1  0  0  0  0
 23 24  1  0  0  0  0
 24 28  1  0  0  0  0
 25 24  2  0  0  0  0
 25 29  1  0  0  0  0
 26 25  1  0  0  0  0
 27 26  1  0  0  0  0
 27 23  2  0  0  0  0
 30 31  1  0  0  0  0
 30 36  1  0  0  0  0
 31 37  1  0  0  0  0
 32 31  2  0  0  0  0
 33 32  1  0  0  0  0
 34 33  2  0  0  0  0
 34 35  1  0  0  0  0
 35 30  2  0  0  0  0
 38 34  1  0  0  0  0
M  END
>  <minimizedAffinity>
-5.28354168

$$$$

 OpenBabel03252508303D

 38 41  0  0  1  0  0  0  0  0999 V2000
   39.0620   32.0210   37.1100 N   0  0  0  0  0  0  0  0  0  0  0  0
   37.8500   31.8320   37.9110 C   0  0  2  0  0  0  0  0  0  0  0  0
   37.8970   32.5700   39.2000 C   0  0  0  0  0  0  0  0  0  0  0  0
   38.9960   33.5170   39.2590 N   0  0  0  0  0  0  0  0  0  0  0  0
   40.2630   32.9790   38.9140 C   0  0  0  0  0  0  0  0  0  0  0  0
   40.1680   31.7430   38.0560 C   0  0  2  0  0  0  0  0  0  0  0  0
   39.1390   32.9610   36.7000 H   0  0  0  0  0  0  0  0  0  0  0  0
   37.0020   32.1910   37.3070 H   0  0  0  0  0  0  0  0  0  0  0  0
   36.9700   33.2040   39.3260 H   0  0  0  0  0  0  0  0  0  0  0  0
   38.1010   31.9770   40.1080 H   0  0  0  0  0  0  0  0  0  0  0  0
   38.7250   34.3650   38.7040 H   0  0  0  0  0  0  0  0  0  0  0  0
   40.8330   32.6960   39.8210 H   0  0  0  0  0  0  0  0  0  0  0  0
   40.8790   33.7500   38.3970 H   0  0  0  0  0  0  0  0  0  0  0  0
   39.8420   30.9060   38.6820 H   0  0  0  0  0  0  0  0  0  0  0  0
   41.4280   31.4450   37.3740 C   0  0  0  0  0  0  0  0  0  0  0  0
   42.5170   32.2170   37.0950 C   0  0  0  0  0  0  0  0  0  0  0  0
   42.6180   33.2570   37.3610 H   0  0  0  0  0  0  0  0  0  0  0  0
   43.4590   31.5120   36.4420 N   0  0  0  0  0  0  0  0  0  0  0  0
   44.4090   31.7800   36.0770 H   0  0  0  0  0  0  0  0  0  0  0  0
   42.9680   30.2800   36.3020 C   0  0  0  0  0  0  0  0  0  0  0  0
   43.4270   29.4040   35.8230 H   0  0  0  0  0  0  0  0  0  0  0  0
   41.7480   30.2220   36.8580 N   0  0  0  0  0  0  0  0  0  0  0  0
   37.4670   28.4830   39.1970 C   0  0  0  0  0  0  0  0  0  0  0  0
   37.5170   28.3110   37.8090 C   0  0  0  0  0  0  0  0  0  0  0  0
   37.6730   29.5370   37.1860 C   0  0  0  0  0  0  0  0  0  0  0  0
   37.7100   30.4130   38.1880 N   0  0  0  0  0  0  0  0  0  0  0  0
   37.5900   29.8010   39.3590 N   0  0  0  0  0  0  0  0  0  0  0  0
   37.4320   27.2910   37.4150 H   0  0  0  0  0  0  0  0  0  0  0  0
   37.7200   29.4070   36.1110 H   0  0  0  0  0  0  0  0  0  0  0  0
   37.1260   25.1430   40.8880 C   0  0  0  0  0  0  0  0  0  0  0  0
   37.2580   26.0790   39.8110 C   0  0  0  0  0  0  0  0  0  0  0  0
   37.3240   27.4030   40.1710 C   0  0  0  0  0  0  0  0  0  0  0  0
   37.2640   27.7480   41.4820 N   0  0  0  0  0  0  0  0  0  0  0  0
   37.1400   26.8500   42.4800 C   0  0  0  0  0  0  0  0  0  0  0  0
   37.0720   25.5590   42.1590 N   0  0  0  0  0  0  0  0  0  0  0  0
   37.0740   24.1030   40.5860 H   0  0  0  0  0  0  0  0  0  0  0  0
   37.3030   25.7910   38.7830 H   0  0  0  0  0  0  0  0  0  0  0  0
   37.1020   27.2280   43.4840 H   0  0  0  0  0  0  0  0  0  0  0  0
  1  2  1  0  0  0  0
  1  6  1  0  0  0  0
  2  8  1  6  0  0  0
  2 26  1  0  0  0  0
  2  3  1  0  0  0  0
  3  4  1  0  0  0  0
  3  9  1  0  0  0  0
  3 10  1  0  0  0  0
  5  4  1  0  0  0  0
  5 12  1  0  0  0  0
  6 14  1  1  0  0  0
  6  5  1  0  0  0  0
  7  1  1  0  0  0  0
 11  4  1  0  0  0  0
 13  5  1  0  0  0  0
 15  6  1  0  0  0  0
 16 17  1  0  0  0  0
 16 15  2  0  0  0  0
 18 16  1  0  0  0  0
 19 18  1  0  0  0  0
 20 18  1  0  0  0  0
 20 22  2  0  0  0  0
 21 20  1  0  0  0  0
 22 15  1  0  0  0  0
 23 27  2  0  0  0  0
 23 32  1  0  0  0  0
 24 23  1  0  0  0  0
 25 24  2  0  0  0  0
 25 26  1  0  0  0  0
 26 27  1  0  0  0  0
 28 24  1  0  0  0  0
 29 25  1  0  0  0  0
 30 35  1  0  0  0  0
 31 32  1  0  0  0  0
 31 30  2  0  0  0  0
 32 33  2  0  0  0  0
 33 34  1  0  0  0  0
 34 38  1  0  0  0  0
 35 34  2  0  0  0  0
 36 30  1  0  0  0  0
 37 31  1  0  0  0  0
M  END
>  <minimizedAffinity>
-5.24238539

$$$$
