
 OpenBabel03242519483D

 37 39  0  0  1  0  0  0  0  0999 V2000
   37.3560   29.5180   41.9230 C   0  0  2  0  0  0  0  0  0  0  0  0
   36.8420   28.1510   42.1360 C   0  0  1  0  0  0  0  0  0  0  0  0
   36.2840   27.7860   40.8250 O   0  0  0  0  0  0  0  0  0  0  0  0
   35.4300   28.9000   40.6960 C   0  0  0  0  0  0  0  0  0  0  0  0
   36.4850   30.0430   40.7900 C   0  0  2  0  0  0  0  0  0  0  0  0
   37.3360   30.1750   42.7980 H   0  0  0  0  0  0  0  0  0  0  0  0
   35.9720   28.1400   42.8430 H   0  0  0  0  0  0  0  0  0  0  0  0
   34.8730   28.9080   39.7780 H   0  0  0  0  0  0  0  0  0  0  0  0
   34.7750   28.9710   41.5830 H   0  0  0  0  0  0  0  0  0  0  0  0
   35.8960   30.9530   41.0390 H   0  0  0  0  0  0  0  0  0  0  0  0
   38.4720   24.9000   42.3570 C   0  0  0  0  0  0  0  0  0  0  0  0
   39.5800   25.1340   43.1830 C   0  0  0  0  0  0  0  0  0  0  0  0
   39.7660   26.4410   43.6790 C   0  0  0  0  0  0  0  0  0  0  0  0
   38.8800   27.4080   43.3460 N   0  0  0  0  0  0  0  0  0  0  0  0
   37.8220   27.1550   42.5480 C   0  0  0  0  0  0  0  0  0  0  0  0
   37.6080   25.9040   42.0480 N   0  0  0  0  0  0  0  0  0  0  0  0
   40.2330   24.3170   43.3990 H   0  0  0  0  0  0  0  0  0  0  0  0
   40.6160   26.5970   44.3060 H   0  0  0  0  0  0  0  0  0  0  0  0
   38.2270   23.6260   41.8270 O   0  0  0  0  0  0  0  0  0  0  0  0
   37.9260   22.9250   42.4930 H   0  0  0  0  0  0  0  0  0  0  0  0
   38.7120   29.4510   41.4480 O   0  0  0  0  0  0  0  0  0  0  0  0
   38.6680   29.1550   40.4910 H   0  0  0  0  0  0  0  0  0  0  0  0
   37.1510   30.0540   39.6150 O   0  0  0  0  0  0  0  0  0  0  0  0
   37.3130   31.2240   38.9380 C   0  0  0  0  0  0  0  0  0  0  0  0
   38.1560   31.1930   38.2590 H   0  0  0  0  0  0  0  0  0  0  0  0
   36.4270   31.2200   38.1210 H   0  0  0  0  0  0  0  0  0  0  0  0
   37.1490   32.4710   39.7000 C   0  0  0  0  0  0  0  0  0  0  0  0
   36.4950   32.3550   40.6080 H   0  0  0  0  0  0  0  0  0  0  0  0
   36.7660   33.3290   39.1560 H   0  0  0  0  0  0  0  0  0  0  0  0
   38.5310   32.8930   40.1450 C   0  0  0  0  0  0  0  0  0  0  0  0
   38.9100   34.1520   40.6150 C   0  0  0  0  0  0  0  0  0  0  0  0
   38.1590   34.9440   40.6840 H   0  0  0  0  0  0  0  0  0  0  0  0
   40.2390   34.1160   40.9090 N   0  0  0  0  0  0  0  0  0  0  0  0
   40.6460   35.0010   41.2710 H   0  0  0  0  0  0  0  0  0  0  0  0
   40.6840   32.8790   40.6340 C   0  0  0  0  0  0  0  0  0  0  0  0
   41.7180   32.6220   40.7920 H   0  0  0  0  0  0  0  0  0  0  0  0
   39.6710   32.1420   40.1770 N   0  0  0  0  0  0  0  0  0  0  0  0
  1  2  1  0  0  0  0
  1  6  1  1  0  0  0
  2 15  1  0  0  0  0
  2  7  1  1  0  0  0
  3  2  1  0  0  0  0
  4  5  1  0  0  0  0
  4  3  1  0  0  0  0
  4  9  1  0  0  0  0
  5 10  1  1  0  0  0
  5  1  1  0  0  0  0
  8  4  1  0  0  0  0
 11 12  1  0  0  0  0
 12 17  1  0  0  0  0
 12 13  2  0  0  0  0
 13 18  1  0  0  0  0
 14 13  1  0  0  0  0
 15 14  2  0  0  0  0
 16 11  2  0  0  0  0
 16 15  1  0  0  0  0
 19 11  1  0  0  0  0
 19 20  1  0  0  0  0
 21  1  1  0  0  0  0
 22 21  1  0  0  0  0
 23  5  1  0  0  0  0
 24 23  1  0  0  0  0
 24 27  1  0  0  0  0
 25 24  1  0  0  0  0
 26 24  1  0  0  0  0
 27 30  1  0  0  0  0
 27 28  1  0  0  0  0
 29 27  1  0  0  0  0
 30 37  1  0  0  0  0
 30 31  2  0  0  0  0
 31 32  1  0  0  0  0
 31 33  1  0  0  0  0
 33 34  1  0  0  0  0
 35 36  1  0  0  0  0
 35 33  1  0  0  0  0
 37 35  2  0  0  0  0
M  END
>  <minimizedAffinity>
-5.2339716

$$$$

 OpenBabel03242519483D

 37 39  0  0  1  0  0  0  0  0999 V2000
   39.2420   27.2240   39.0990 C   0  0  2  0  0  0  0  0  0  0  0  0
   37.8000   27.5410   39.1090 C   0  0  1  0  0  0  0  0  0  0  0  0
   37.3200   26.9180   40.3530 O   0  0  0  0  0  0  0  0  0  0  0  0
   37.8050   25.6230   40.0820 C   0  0  0  0  0  0  0  0  0  0  0  0
   39.3210   25.9450   39.9210 C   0  0  2  0  0  0  0  0  0  0  0  0
   39.6970   27.1100   38.1110 H   0  0  0  0  0  0  0  0  0  0  0  0
   37.2540   27.0160   38.2830 H   0  0  0  0  0  0  0  0  0  0  0  0
   37.5990   24.9170   40.8660 H   0  0  0  0  0  0  0  0  0  0  0  0
   37.4260   25.2800   39.1030 H   0  0  0  0  0  0  0  0  0  0  0  0
   39.7410   25.0690   39.3790 H   0  0  0  0  0  0  0  0  0  0  0  0
   36.3730   30.6780   40.2880 C   0  0  0  0  0  0  0  0  0  0  0  0
   36.7280   31.6050   39.2980 C   0  0  0  0  0  0  0  0  0  0  0  0
   37.4730   31.1350   38.1950 C   0  0  0  0  0  0  0  0  0  0  0  0
   37.8110   29.8260   38.1350 N   0  0  0  0  0  0  0  0  0  0  0  0
   37.4550   28.9560   39.1040 C   0  0  0  0  0  0  0  0  0  0  0  0
   36.7350   29.3720   40.1850 N   0  0  0  0  0  0  0  0  0  0  0  0
   36.4230   32.6210   39.4200 H   0  0  0  0  0  0  0  0  0  0  0  0
   37.7330   31.8560   37.4530 H   0  0  0  0  0  0  0  0  0  0  0  0
   35.6350   31.0760   41.4120 O   0  0  0  0  0  0  0  0  0  0  0  0
   34.6670   31.3180   41.2370 H   0  0  0  0  0  0  0  0  0  0  0  0
   39.9620   28.2500   39.8050 O   0  0  0  0  0  0  0  0  0  0  0  0
   39.7830   28.1100   40.7810 H   0  0  0  0  0  0  0  0  0  0  0  0
   39.8010   26.1780   41.1610 O   0  0  0  0  0  0  0  0  0  0  0  0
   39.3030   25.4870   42.2240 C   0  0  0  0  0  0  0  0  0  0  0  0
   38.3590   25.0070   41.9960 H   0  0  0  0  0  0  0  0  0  0  0  0
   39.9930   24.5000   42.2850 H   0  0  0  0  0  0  0  0  0  0  0  0
   39.3960   26.1240   43.5450 C   0  0  0  0  0  0  0  0  0  0  0  0
   40.4510   26.2070   43.9260 H   0  0  0  0  0  0  0  0  0  0  0  0
   38.8180   25.6740   44.3460 H   0  0  0  0  0  0  0  0  0  0  0  0
   38.8190   27.5140   43.3990 C   0  0  0  0  0  0  0  0  0  0  0  0
   37.5020   27.9040   43.6510 C   0  0  0  0  0  0  0  0  0  0  0  0
   36.7800   27.1560   43.9920 H   0  0  0  0  0  0  0  0  0  0  0  0
   37.3960   29.2380   43.3980 N   0  0  0  0  0  0  0  0  0  0  0  0
   36.4550   29.6520   43.5490 H   0  0  0  0  0  0  0  0  0  0  0  0
   38.6020   29.6750   43.0000 C   0  0  0  0  0  0  0  0  0  0  0  0
   38.7510   30.7100   42.7430 H   0  0  0  0  0  0  0  0  0  0  0  0
   39.4580   28.6530   42.9970 N   0  0  0  0  0  0  0  0  0  0  0  0
  1  6  1  6  0  0  0
  1  2  1  0  0  0  0
  1 21  1  0  0  0  0
  1  5  1  0  0  0  0
  2  7  1  6  0  0  0
  2  3  1  0  0  0  0
  4  3  1  0  0  0  0
  4  8  1  0  0  0  0
  5 10  1  6  0  0  0
  5  4  1  0  0  0  0
  5 23  1  0  0  0  0
  9  4  1  0  0  0  0
 11 19  1  0  0  0  0
 12 17  1  0  0  0  0
 12 11  2  0  0  0  0
 13 12  1  0  0  0  0
 14 13  2  0  0  0  0
 14 15  1  0  0  0  0
 15  2  1  0  0  0  0
 15 16  2  0  0  0  0
 16 11  1  0  0  0  0
 18 13  1  0  0  0  0
 20 19  1  0  0  0  0
 21 22  1  0  0  0  0
 23 24  1  0  0  0  0
 24 26  1  0  0  0  0
 24 27  1  0  0  0  0
 25 24  1  0  0  0  0
 27 28  1  0  0  0  0
 27 29  1  0  0  0  0
 30 27  1  0  0  0  0
 30 31  2  0  0  0  0
 31 32  1  0  0  0  0
 33 34  1  0  0  0  0
 33 31  1  0  0  0  0
 35 33  1  0  0  0  0
 36 35  1  0  0  0  0
 37 35  2  0  0  0  0
 37 30  1  0  0  0  0
M  END
>  <minimizedAffinity>
-5.01237726

$$$$

 OpenBabel03242519483D

 37 39  0  0  1  0  0  0  0  0999 V2000
   39.1700   30.3230   39.6520 C   0  0  2  0  0  0  0  0  0  0  0  0
   39.0090   31.7880   39.5630 C   0  0  1  0  0  0  0  0  0  0  0  0
   38.2630   32.1270   40.7850 O   0  0  0  0  0  0  0  0  0  0  0  0
   37.1920   31.2360   40.5730 C   0  0  0  0  0  0  0  0  0  0  0  0
   37.9820   29.8960   40.5030 C   0  0  2  0  0  0  0  0  0  0  0  0
   39.2090   29.7900   38.6980 H   0  0  0  0  0  0  0  0  0  0  0  0
   38.3380   32.0810   38.7150 H   0  0  0  0  0  0  0  0  0  0  0  0
   36.4560   31.2580   41.3550 H   0  0  0  0  0  0  0  0  0  0  0  0
   36.7480   31.4190   39.5780 H   0  0  0  0  0  0  0  0  0  0  0  0
   37.2880   29.1820   40.0060 H   0  0  0  0  0  0  0  0  0  0  0  0
   41.7770   33.6370   38.0820 C   0  0  0  0  0  0  0  0  0  0  0  0
   42.5280   34.0620   39.1860 C   0  0  0  0  0  0  0  0  0  0  0  0
   42.0720   33.6980   40.4710 C   0  0  0  0  0  0  0  0  0  0  0  0
   40.9430   32.9610   40.5890 N   0  0  0  0  0  0  0  0  0  0  0  0
   40.2390   32.5660   39.5070 C   0  0  0  0  0  0  0  0  0  0  0  0
   40.6480   32.8980   38.2490 N   0  0  0  0  0  0  0  0  0  0  0  0
   43.4080   34.6410   39.0090 H   0  0  0  0  0  0  0  0  0  0  0  0
   42.6590   34.0320   41.2980 H   0  0  0  0  0  0  0  0  0  0  0  0
   42.1700   33.9640   36.7770 O   0  0  0  0  0  0  0  0  0  0  0  0
   43.0020   33.4950   36.4400 H   0  0  0  0  0  0  0  0  0  0  0  0
   40.3720   30.0180   40.3820 O   0  0  0  0  0  0  0  0  0  0  0  0
   40.1810   30.2080   41.3470 H   0  0  0  0  0  0  0  0  0  0  0  0
   38.3560   29.5990   41.7660 O   0  0  0  0  0  0  0  0  0  0  0  0
   37.7440   28.5820   42.4330 C   0  0  0  0  0  0  0  0  0  0  0  0
   38.3330   28.2250   43.2700 H   0  0  0  0  0  0  0  0  0  0  0  0
   36.8630   29.1210   43.0550 H   0  0  0  0  0  0  0  0  0  0  0  0
   37.0860   27.5450   41.6240 C   0  0  0  0  0  0  0  0  0  0  0  0
   37.2070   27.7020   40.5170 H   0  0  0  0  0  0  0  0  0  0  0  0
   36.0250   27.3910   41.7960 H   0  0  0  0  0  0  0  0  0  0  0  0
   37.7250   26.2280   42.0030 C   0  0  0  0  0  0  0  0  0  0  0  0
   37.1150   24.9720   41.9990 C   0  0  0  0  0  0  0  0  0  0  0  0
   36.0680   24.8880   41.6970 H   0  0  0  0  0  0  0  0  0  0  0  0
   38.0330   24.0510   42.4050 N   0  0  0  0  0  0  0  0  0  0  0  0
   37.6990   23.0680   42.4440 H   0  0  0  0  0  0  0  0  0  0  0  0
   39.1810   24.7020   42.6560 C   0  0  0  0  0  0  0  0  0  0  0  0
   40.0510   24.1650   42.9940 H   0  0  0  0  0  0  0  0  0  0  0  0
   39.0060   26.0020   42.4190 N   0  0  0  0  0  0  0  0  0  0  0  0
  1  6  1  6  0  0  0
  1 21  1  0  0  0  0
  1  5  1  0  0  0  0
  2  7  1  6  0  0  0
  2  1  1  0  0  0  0
  2  3  1  0  0  0  0
  4  3  1  0  0  0  0
  4  8  1  0  0  0  0
  5 10  1  6  0  0  0
  5  4  1  0  0  0  0
  5 23  1  0  0  0  0
  9  4  1  0  0  0  0
 11 16  2  0  0  0  0
 11 12  1  0  0  0  0
 12 13  2  0  0  0  0
 13 14  1  0  0  0  0
 13 18  1  0  0  0  0
 15  2  1  0  0  0  0
 15 14  2  0  0  0  0
 16 15  1  0  0  0  0
 17 12  1  0  0  0  0
 19 11  1  0  0  0  0
 20 19  1  0  0  0  0
 21 22  1  0  0  0  0
 23 24  1  0  0  0  0
 24 26  1  0  0  0  0
 24 25  1  0  0  0  0
 27 29  1  0  0  0  0
 27 30  1  0  0  0  0
 27 24  1  0  0  0  0
 28 27  1  0  0  0  0
 30 37  1  0  0  0  0
 31 30  2  0  0  0  0
 31 33  1  0  0  0  0
 32 31  1  0  0  0  0
 33 34  1  0  0  0  0
 33 35  1  0  0  0  0
 35 36  1  0  0  0  0
 37 35  2  0  0  0  0
M  END
>  <minimizedAffinity>
-4.90324354

$$$$

 OpenBabel03242519483D

 37 39  0  0  1  0  0  0  0  0999 V2000
   37.7010   28.5760   39.9720 C   0  0  2  0  0  0  0  0  0  0  0  0
   37.1180   29.9060   39.7060 C   0  0  1  0  0  0  0  0  0  0  0  0
   36.2270   30.1280   40.8550 O   0  0  0  0  0  0  0  0  0  0  0  0
   35.4840   28.9380   40.7150 C   0  0  0  0  0  0  0  0  0  0  0  0
   36.6400   27.9000   40.8290 C   0  0  2  0  0  0  0  0  0  0  0  0
   37.9580   27.9840   39.0890 H   0  0  0  0  0  0  0  0  0  0  0  0
   36.4480   29.8930   38.8070 H   0  0  0  0  0  0  0  0  0  0  0  0
   34.7260   28.8170   41.4660 H   0  0  0  0  0  0  0  0  0  0  0  0
   35.0720   28.8750   39.6920 H   0  0  0  0  0  0  0  0  0  0  0  0
   36.2220   26.9620   40.3980 H   0  0  0  0  0  0  0  0  0  0  0  0
   39.4920   32.1840   38.1410 C   0  0  0  0  0  0  0  0  0  0  0  0
   39.8520   33.0600   39.1750 C   0  0  0  0  0  0  0  0  0  0  0  0
   39.2670   32.8560   40.4430 C   0  0  0  0  0  0  0  0  0  0  0  0
   38.3920   31.8370   40.6120 N   0  0  0  0  0  0  0  0  0  0  0  0
   38.0640   31.0090   39.5970 C   0  0  0  0  0  0  0  0  0  0  0  0
   38.6080   31.1740   38.3570 N   0  0  0  0  0  0  0  0  0  0  0  0
   40.5490   33.8400   38.9610 H   0  0  0  0  0  0  0  0  0  0  0  0
   39.5550   33.5340   41.2150 H   0  0  0  0  0  0  0  0  0  0  0  0
   40.0340   32.3300   36.8560 O   0  0  0  0  0  0  0  0  0  0  0  0
   41.0150   32.0940   36.7650 H   0  0  0  0  0  0  0  0  0  0  0  0
   38.8880   28.7250   40.7700 O   0  0  0  0  0  0  0  0  0  0  0  0
   38.5860   28.9470   41.6990 H   0  0  0  0  0  0  0  0  0  0  0  0
   37.0000   27.8620   42.1300 O   0  0  0  0  0  0  0  0  0  0  0  0
   36.9820   26.6790   42.8050 C   0  0  0  0  0  0  0  0  0  0  0  0
   37.3570   26.7770   43.8160 H   0  0  0  0  0  0  0  0  0  0  0  0
   35.8180   26.5030   43.0640 H   0  0  0  0  0  0  0  0  0  0  0  0
   37.4140   25.4790   42.0730 C   0  0  0  0  0  0  0  0  0  0  0  0
   37.2090   25.5330   40.9680 H   0  0  0  0  0  0  0  0  0  0  0  0
   37.0120   24.5290   42.4110 H   0  0  0  0  0  0  0  0  0  0  0  0
   38.9060   25.3540   42.2870 C   0  0  0  0  0  0  0  0  0  0  0  0
   39.5620   24.3930   43.0580 C   0  0  0  0  0  0  0  0  0  0  0  0
   38.9730   23.6330   43.5790 H   0  0  0  0  0  0  0  0  0  0  0  0
   40.9010   24.6300   42.9880 N   0  0  0  0  0  0  0  0  0  0  0  0
   41.5050   23.9770   43.5250 H   0  0  0  0  0  0  0  0  0  0  0  0
   41.0840   25.7030   42.2000 C   0  0  0  0  0  0  0  0  0  0  0  0
   42.0760   26.0740   42.0040 H   0  0  0  0  0  0  0  0  0  0  0  0
   39.8980   26.1420   41.7770 N   0  0  0  0  0  0  0  0  0  0  0  0
  1  6  1  6  0  0  0
  1 21  1  0  0  0  0
  1  5  1  0  0  0  0
  2  7  1  6  0  0  0
  2  1  1  0  0  0  0
  2  3  1  0  0  0  0
  4  5  1  0  0  0  0
  4  3  1  0  0  0  0
  4  8  1  0  0  0  0
  5 10  1  6  0  0  0
  5 23  1  0  0  0  0
  9  4  1  0  0  0  0
 11 16  2  0  0  0  0
 11 12  1  0  0  0  0
 12 13  2  0  0  0  0
 13 14  1  0  0  0  0
 13 18  1  0  0  0  0
 15  2  1  0  0  0  0
 15 14  2  0  0  0  0
 16 15  1  0  0  0  0
 17 12  1  0  0  0  0
 19 11  1  0  0  0  0
 20 19  1  0  0  0  0
 21 22  1  0  0  0  0
 23 24  1  0  0  0  0
 24 26  1  0  0  0  0
 24 25  1  0  0  0  0
 27 30  1  0  0  0  0
 27 29  1  0  0  0  0
 27 24  1  0  0  0  0
 28 27  1  0  0  0  0
 30 31  2  0  0  0  0
 31 32  1  0  0  0  0
 33 31  1  0  0  0  0
 33 34  1  0  0  0  0
 35 33  1  0  0  0  0
 36 35  1  0  0  0  0
 37 35  2  0  0  0  0
 37 30  1  0  0  0  0
M  END
>  <minimizedAffinity>
-4.88828564

$$$$

 OpenBabel03242519483D

 37 39  0  0  1  0  0  0  0  0999 V2000
   38.4760   27.5890   41.7560 C   0  0  2  0  0  0  0  0  0  0  0  0
   37.9390   26.4080   42.4590 C   0  0  1  0  0  0  0  0  0  0  0  0
   36.5750   26.8160   42.8290 O   0  0  0  0  0  0  0  0  0  0  0  0
   36.9390   27.9970   43.5080 C   0  0  0  0  0  0  0  0  0  0  0  0
   37.6770   28.7390   42.3540 C   0  0  2  0  0  0  0  0  0  0  0  0
   39.5550   27.7450   41.8430 H   0  0  0  0  0  0  0  0  0  0  0  0
   38.4690   26.2270   43.4300 H   0  0  0  0  0  0  0  0  0  0  0  0
   36.0990   28.5420   43.8980 H   0  0  0  0  0  0  0  0  0  0  0  0
   37.6830   27.7620   44.2890 H   0  0  0  0  0  0  0  0  0  0  0  0
   38.2900   29.5160   42.8620 H   0  0  0  0  0  0  0  0  0  0  0  0
   36.4920   23.7030   40.4940 C   0  0  0  0  0  0  0  0  0  0  0  0
   37.5880   22.8840   40.1880 C   0  0  0  0  0  0  0  0  0  0  0  0
   38.8550   23.2700   40.6750 C   0  0  0  0  0  0  0  0  0  0  0  0
   38.9630   24.4010   41.4110 N   0  0  0  0  0  0  0  0  0  0  0  0
   37.8900   25.1710   41.6900 C   0  0  0  0  0  0  0  0  0  0  0  0
   36.6490   24.8310   41.2360 N   0  0  0  0  0  0  0  0  0  0  0  0
   37.4190   22.0070   39.6020 H   0  0  0  0  0  0  0  0  0  0  0  0
   39.6750   22.6330   40.4310 H   0  0  0  0  0  0  0  0  0  0  0  0
   35.2060   23.3790   40.0400 O   0  0  0  0  0  0  0  0  0  0  0  0
   34.7760   22.5750   40.4800 H   0  0  0  0  0  0  0  0  0  0  0  0
   38.1500   27.5020   40.3580 O   0  0  0  0  0  0  0  0  0  0  0  0
   37.1730   27.7070   40.2750 H   0  0  0  0  0  0  0  0  0  0  0  0
   36.7240   29.1790   41.5040 O   0  0  0  0  0  0  0  0  0  0  0  0
   36.4440   30.5100   41.4280 C   0  0  0  0  0  0  0  0  0  0  0  0
   35.5220   30.7650   41.9360 H   0  0  0  0  0  0  0  0  0  0  0  0
   37.2180   31.0200   42.1990 H   0  0  0  0  0  0  0  0  0  0  0  0
   36.6690   31.1730   40.1360 C   0  0  0  0  0  0  0  0  0  0  0  0
   35.7430   31.6540   39.7150 H   0  0  0  0  0  0  0  0  0  0  0  0
   37.0820   30.5630   39.3380 H   0  0  0  0  0  0  0  0  0  0  0  0
   37.7120   32.2420   40.3710 C   0  0  0  0  0  0  0  0  0  0  0  0
   38.9030   32.1050   41.0860 C   0  0  0  0  0  0  0  0  0  0  0  0
   39.1450   31.1400   41.5400 H   0  0  0  0  0  0  0  0  0  0  0  0
   39.5560   33.3000   41.0610 N   0  0  0  0  0  0  0  0  0  0  0  0
   40.4660   33.3280   41.5630 H   0  0  0  0  0  0  0  0  0  0  0  0
   38.8050   34.1600   40.3550 C   0  0  0  0  0  0  0  0  0  0  0  0
   39.1310   35.1750   40.2050 H   0  0  0  0  0  0  0  0  0  0  0  0
   37.7010   33.5380   39.9390 N   0  0  0  0  0  0  0  0  0  0  0  0
  1  6  1  1  0  0  0
  1  5  1  0  0  0  0
  1  2  1  0  0  0  0
  2  3  1  0  0  0  0
  2  7  1  1  0  0  0
  3  4  1  0  0  0  0
  4  8  1  0  0  0  0
  4  9  1  0  0  0  0
  5 10  1  1  0  0  0
  5  4  1  0  0  0  0
 11 16  1  0  0  0  0
 12 11  2  0  0  0  0
 12 13  1  0  0  0  0
 13 14  2  0  0  0  0
 14 15  1  0  0  0  0
 15  2  1  0  0  0  0
 16 15  2  0  0  0  0
 17 12  1  0  0  0  0
 18 13  1  0  0  0  0
 19 20  1  0  0  0  0
 19 11  1  0  0  0  0
 21  1  1  0  0  0  0
 22 21  1  0  0  0  0
 23  5  1  0  0  0  0
 24 23  1  0  0  0  0
 24 25  1  0  0  0  0
 24 26  1  0  0  0  0
 27 30  1  0  0  0  0
 27 24  1  0  0  0  0
 28 27  1  0  0  0  0
 29 27  1  0  0  0  0
 30 31  2  0  0  0  0
 31 32  1  0  0  0  0
 33 31  1  0  0  0  0
 33 34  1  0  0  0  0
 35 33  1  0  0  0  0
 36 35  1  0  0  0  0
 37 35  2  0  0  0  0
 37 30  1  0  0  0  0
M  END
>  <minimizedAffinity>
-4.85599756

$$$$

 OpenBabel03242519483D

 37 39  0  0  1  0  0  0  0  0999 V2000
   38.9390   28.6150   42.7970 C   0  0  2  0  0  0  0  0  0  0  0  0
   38.8940   27.1550   42.5840 C   0  0  1  0  0  0  0  0  0  0  0  0
   37.7760   26.9790   41.6440 O   0  0  0  0  0  0  0  0  0  0  0  0
   36.8100   27.6580   42.4130 C   0  0  0  0  0  0  0  0  0  0  0  0
   37.5050   29.0480   42.5280 C   0  0  2  0  0  0  0  0  0  0  0  0
   39.2930   28.9410   43.7800 H   0  0  0  0  0  0  0  0  0  0  0  0
   38.5890   26.6090   43.5140 H   0  0  0  0  0  0  0  0  0  0  0  0
   35.8440   27.7010   41.9440 H   0  0  0  0  0  0  0  0  0  0  0  0
   36.7640   27.2180   43.4250 H   0  0  0  0  0  0  0  0  0  0  0  0
   37.0010   29.5470   43.3850 H   0  0  0  0  0  0  0  0  0  0  0  0
   42.0480   25.3320   42.5420 C   0  0  0  0  0  0  0  0  0  0  0  0
   42.4130   25.3190   41.1890 C   0  0  0  0  0  0  0  0  0  0  0  0
   41.5540   25.9590   40.2700 C   0  0  0  0  0  0  0  0  0  0  0  0
   40.4260   26.5540   40.7230 N   0  0  0  0  0  0  0  0  0  0  0  0
   40.1000   26.5500   42.0330 C   0  0  0  0  0  0  0  0  0  0  0  0
   40.9040   25.9420   42.9510 N   0  0  0  0  0  0  0  0  0  0  0  0
   43.3200   24.8280   40.9110 H   0  0  0  0  0  0  0  0  0  0  0  0
   41.8510   25.9380   39.2450 H   0  0  0  0  0  0  0  0  0  0  0  0
   42.8540   24.7140   43.5090 O   0  0  0  0  0  0  0  0  0  0  0  0
   43.7350   25.1730   43.7030 H   0  0  0  0  0  0  0  0  0  0  0  0
   39.7810   29.2180   41.7990 O   0  0  0  0  0  0  0  0  0  0  0  0
   39.2650   29.2060   40.9400 H   0  0  0  0  0  0  0  0  0  0  0  0
   37.3830   29.6430   41.3220 O   0  0  0  0  0  0  0  0  0  0  0  0
   36.4280   30.5950   41.1290 C   0  0  0  0  0  0  0  0  0  0  0  0
   35.4480   30.1650   40.9570 H   0  0  0  0  0  0  0  0  0  0  0  0
   36.2320   31.0470   42.2290 H   0  0  0  0  0  0  0  0  0  0  0  0
   36.7820   31.7420   40.2810 C   0  0  0  0  0  0  0  0  0  0  0  0
   37.6980   32.2920   40.6350 H   0  0  0  0  0  0  0  0  0  0  0  0
   36.0150   32.4950   40.1310 H   0  0  0  0  0  0  0  0  0  0  0  0
   37.0470   31.1940   38.8960 C   0  0  0  0  0  0  0  0  0  0  0  0
   38.1010   31.5380   38.0480 C   0  0  0  0  0  0  0  0  0  0  0  0
   38.8350   32.2770   38.3820 H   0  0  0  0  0  0  0  0  0  0  0  0
   37.9760   30.8190   36.8980 N   0  0  0  0  0  0  0  0  0  0  0  0
   38.7080   30.9860   36.1790 H   0  0  0  0  0  0  0  0  0  0  0  0
   36.8820   30.0490   37.0160 C   0  0  0  0  0  0  0  0  0  0  0  0
   36.5880   29.3910   36.2160 H   0  0  0  0  0  0  0  0  0  0  0  0
   36.3210   30.2660   38.2060 N   0  0  0  0  0  0  0  0  0  0  0  0
  1  6  1  1  0  0  0
  2  1  1  0  0  0  0
  2  7  1  1  0  0  0
  3  4  1  0  0  0  0
  3  2  1  0  0  0  0
  4  5  1  0  0  0  0
  4  9  1  0  0  0  0
  5  1  1  0  0  0  0
  5 10  1  1  0  0  0
  8  4  1  0  0  0  0
 11 16  1  0  0  0  0
 11 19  1  0  0  0  0
 12 11  2  0  0  0  0
 13 14  2  0  0  0  0
 13 12  1  0  0  0  0
 14 15  1  0  0  0  0
 15  2  1  0  0  0  0
 15 16  2  0  0  0  0
 17 12  1  0  0  0  0
 18 13  1  0  0  0  0
 19 20  1  0  0  0  0
 21  1  1  0  0  0  0
 22 21  1  0  0  0  0
 23  5  1  0  0  0  0
 24 23  1  0  0  0  0
 24 26  1  0  0  0  0
 25 24  1  0  0  0  0
 27 28  1  0  0  0  0
 27 24  1  0  0  0  0
 29 27  1  0  0  0  0
 30 27  1  0  0  0  0
 31 32  1  0  0  0  0
 31 30  2  0  0  0  0
 33 35  1  0  0  0  0
 33 31  1  0  0  0  0
 34 33  1  0  0  0  0
 35 37  2  0  0  0  0
 36 35  1  0  0  0  0
 37 30  1  0  0  0  0
M  END
>  <minimizedAffinity>
-4.84461975

$$$$

 OpenBabel03242519483D

 37 39  0  0  1  0  0  0  0  0999 V2000
   38.1750   29.9260   40.1410 C   0  0  2  0  0  0  0  0  0  0  0  0
   37.7910   31.2960   39.7460 C   0  0  1  0  0  0  0  0  0  0  0  0
   36.9080   31.7340   40.8380 O   0  0  0  0  0  0  0  0  0  0  0  0
   36.0110   30.6490   40.7640 C   0  0  0  0  0  0  0  0  0  0  0  0
   37.0070   29.4760   41.0070 C   0  0  2  0  0  0  0  0  0  0  0  0
   38.3730   29.2320   39.3190 H   0  0  0  0  0  0  0  0  0  0  0  0
   37.1510   31.2980   38.8260 H   0  0  0  0  0  0  0  0  0  0  0  0
   35.2210   30.6970   41.4920 H   0  0  0  0  0  0  0  0  0  0  0  0
   35.6230   30.5560   39.7340 H   0  0  0  0  0  0  0  0  0  0  0  0
   36.4750   28.5710   40.6370 H   0  0  0  0  0  0  0  0  0  0  0  0
   40.6440   32.9390   38.1860 C   0  0  0  0  0  0  0  0  0  0  0  0
   40.9740   33.9650   39.0820 C   0  0  0  0  0  0  0  0  0  0  0  0
   40.1980   34.0900   40.2540 C   0  0  0  0  0  0  0  0  0  0  0  0
   39.1790   33.2260   40.4680 N   0  0  0  0  0  0  0  0  0  0  0  0
   38.8830   32.2460   39.5860 C   0  0  0  0  0  0  0  0  0  0  0  0
   39.6100   32.0940   38.4420 N   0  0  0  0  0  0  0  0  0  0  0  0
   41.7940   34.6060   38.8410 H   0  0  0  0  0  0  0  0  0  0  0  0
   40.4670   34.8770   40.9230 H   0  0  0  0  0  0  0  0  0  0  0  0
   41.3720   32.7590   37.0020 O   0  0  0  0  0  0  0  0  0  0  0  0
   42.3150   32.4070   37.1160 H   0  0  0  0  0  0  0  0  0  0  0  0
   39.3490   29.9790   40.9710 O   0  0  0  0  0  0  0  0  0  0  0  0
   39.0550   30.3180   41.8660 H   0  0  0  0  0  0  0  0  0  0  0  0
   37.3220   29.5000   42.3190 O   0  0  0  0  0  0  0  0  0  0  0  0
   37.1220   28.3910   43.0860 C   0  0  0  0  0  0  0  0  0  0  0  0
   36.3870   28.5560   43.8640 H   0  0  0  0  0  0  0  0  0  0  0  0
   36.4740   27.6570   42.3820 H   0  0  0  0  0  0  0  0  0  0  0  0
   38.3110   27.6220   43.4800 C   0  0  0  0  0  0  0  0  0  0  0  0
   38.3700   27.4290   44.5870 H   0  0  0  0  0  0  0  0  0  0  0  0
   39.2750   28.0310   43.1920 H   0  0  0  0  0  0  0  0  0  0  0  0
   38.2320   26.2970   42.7560 C   0  0  0  0  0  0  0  0  0  0  0  0
   39.3040   25.5150   42.3240 C   0  0  0  0  0  0  0  0  0  0  0  0
   40.3250   25.8610   42.5080 H   0  0  0  0  0  0  0  0  0  0  0  0
   38.8040   24.4020   41.7180 N   0  0  0  0  0  0  0  0  0  0  0  0
   39.5090   23.7330   41.3500 H   0  0  0  0  0  0  0  0  0  0  0  0
   37.4640   24.4780   41.7670 C   0  0  0  0  0  0  0  0  0  0  0  0
   36.8560   23.6980   41.3430 H   0  0  0  0  0  0  0  0  0  0  0  0
   37.1130   25.6070   42.3850 N   0  0  0  0  0  0  0  0  0  0  0  0
  1  6  1  6  0  0  0
  1 21  1  0  0  0  0
  1  5  1  0  0  0  0
  2  7  1  6  0  0  0
  2  1  1  0  0  0  0
  2  3  1  0  0  0  0
  4  3  1  0  0  0  0
  4  5  1  0  0  0  0
  4  8  1  0  0  0  0
  5 10  1  6  0  0  0
  5 23  1  0  0  0  0
  9  4  1  0  0  0  0
 11 16  2  0  0  0  0
 11 12  1  0  0  0  0
 12 13  2  0  0  0  0
 13 14  1  0  0  0  0
 13 18  1  0  0  0  0
 15  2  1  0  0  0  0
 15 14  2  0  0  0  0
 16 15  1  0  0  0  0
 17 12  1  0  0  0  0
 19 20  1  0  0  0  0
 19 11  1  0  0  0  0
 21 22  1  0  0  0  0
 23 24  1  0  0  0  0
 24 27  1  0  0  0  0
 24 25  1  0  0  0  0
 26 24  1  0  0  0  0
 27 28  1  0  0  0  0
 29 27  1  0  0  0  0
 30 27  1  0  0  0  0
 31 32  1  0  0  0  0
 31 30  2  0  0  0  0
 33 35  1  0  0  0  0
 33 31  1  0  0  0  0
 34 33  1  0  0  0  0
 35 37  2  0  0  0  0
 36 35  1  0  0  0  0
 37 30  1  0  0  0  0
M  END
>  <minimizedAffinity>
-4.83940506

$$$$

 OpenBabel03242519483D

 37 39  0  0  1  0  0  0  0  0999 V2000
   37.6090   27.4610   41.4780 C   0  0  2  0  0  0  0  0  0  0  0  0
   36.7740   28.6700   41.6160 C   0  0  1  0  0  0  0  0  0  0  0  0
   37.2850   29.3040   42.8410 O   0  0  0  0  0  0  0  0  0  0  0  0
   37.1310   28.1810   43.6800 C   0  0  0  0  0  0  0  0  0  0  0  0
   38.0250   27.1630   42.9120 C   0  0  2  0  0  0  0  0  0  0  0  0
   37.1290   26.6030   40.9990 H   0  0  0  0  0  0  0  0  0  0  0  0
   35.7050   28.4130   41.8370 H   0  0  0  0  0  0  0  0  0  0  0  0
   37.4520   28.3550   44.6900 H   0  0  0  0  0  0  0  0  0  0  0  0
   36.0880   27.8210   43.6300 H   0  0  0  0  0  0  0  0  0  0  0  0
   37.7080   26.1650   43.2900 H   0  0  0  0  0  0  0  0  0  0  0  0
   36.9800   31.8960   39.9350 C   0  0  0  0  0  0  0  0  0  0  0  0
   36.9810   31.5670   38.5720 C   0  0  0  0  0  0  0  0  0  0  0  0
   36.9040   30.2020   38.2250 C   0  0  0  0  0  0  0  0  0  0  0  0
   36.8310   29.2720   39.2060 N   0  0  0  0  0  0  0  0  0  0  0  0
   36.8320   29.6180   40.5110 C   0  0  0  0  0  0  0  0  0  0  0  0
   36.9060   30.9270   40.8870 N   0  0  0  0  0  0  0  0  0  0  0  0
   37.0410   32.3590   37.8590 H   0  0  0  0  0  0  0  0  0  0  0  0
   36.9060   29.9740   37.1820 H   0  0  0  0  0  0  0  0  0  0  0  0
   37.0560   33.2320   40.3520 O   0  0  0  0  0  0  0  0  0  0  0  0
   36.2310   33.7930   40.1770 H   0  0  0  0  0  0  0  0  0  0  0  0
   38.7950   27.7820   40.7290 O   0  0  0  0  0  0  0  0  0  0  0  0
   39.3890   28.3080   41.3400 H   0  0  0  0  0  0  0  0  0  0  0  0
   39.3060   27.5200   43.1430 O   0  0  0  0  0  0  0  0  0  0  0  0
   40.1760   26.6190   43.6800 C   0  0  0  0  0  0  0  0  0  0  0  0
   41.1760   27.0230   43.7810 H   0  0  0  0  0  0  0  0  0  0  0  0
   39.8810   26.5810   44.8480 H   0  0  0  0  0  0  0  0  0  0  0  0
   40.0900   25.2320   43.1990 C   0  0  0  0  0  0  0  0  0  0  0  0
   39.0330   24.8760   43.0540 H   0  0  0  0  0  0  0  0  0  0  0  0
   40.5850   24.4750   43.7990 H   0  0  0  0  0  0  0  0  0  0  0  0
   40.8070   25.1880   41.8690 C   0  0  0  0  0  0  0  0  0  0  0  0
   42.1750   25.3620   41.6500 C   0  0  0  0  0  0  0  0  0  0  0  0
   42.8320   25.5530   42.5040 H   0  0  0  0  0  0  0  0  0  0  0  0
   42.4120   25.2470   40.3140 N   0  0  0  0  0  0  0  0  0  0  0  0
   43.4020   25.3570   40.0200 H   0  0  0  0  0  0  0  0  0  0  0  0
   41.2360   25.0080   39.7100 C   0  0  0  0  0  0  0  0  0  0  0  0
   41.1850   24.8820   38.6420 H   0  0  0  0  0  0  0  0  0  0  0  0
   40.2720   24.9720   40.6310 N   0  0  0  0  0  0  0  0  0  0  0  0
  1  6  1  6  0  0  0
  1  2  1  0  0  0  0
  1  5  1  0  0  0  0
  2  7  1  1  0  0  0
  2  3  1  0  0  0  0
  3  4  1  0  0  0  0
  4  8  1  0  0  0  0
  5 23  1  0  0  0  0
  5 10  1  1  0  0  0
  5  4  1  0  0  0  0
  9  4  1  0  0  0  0
 11 19  1  0  0  0  0
 11 16  1  0  0  0  0
 12 11  2  0  0  0  0
 13 12  1  0  0  0  0
 13 14  2  0  0  0  0
 14 15  1  0  0  0  0
 15 16  2  0  0  0  0
 15  2  1  0  0  0  0
 17 12  1  0  0  0  0
 18 13  1  0  0  0  0
 20 19  1  0  0  0  0
 21 22  1  0  0  0  0
 21  1  1  0  0  0  0
 23 24  1  0  0  0  0
 24 25  1  0  0  0  0
 24 26  1  0  0  0  0
 27 24  1  0  0  0  0
 27 29  1  0  0  0  0
 28 27  1  0  0  0  0
 30 27  1  0  0  0  0
 31 30  2  0  0  0  0
 31 32  1  0  0  0  0
 33 31  1  0  0  0  0
 34 33  1  0  0  0  0
 35 33  1  0  0  0  0
 35 37  2  0  0  0  0
 36 35  1  0  0  0  0
 37 30  1  0  0  0  0
M  END
>  <minimizedAffinity>
-4.8236165

$$$$

 OpenBabel03242519483D

 37 39  0  0  1  0  0  0  0  0999 V2000
   36.9440   28.2570   41.3540 C   0  0  2  0  0  0  0  0  0  0  0  0
   37.2940   29.5010   42.0680 C   0  0  1  0  0  0  0  0  0  0  0  0
   38.2040   29.0430   43.1300 O   0  0  0  0  0  0  0  0  0  0  0  0
   37.3360   28.0770   43.6800 C   0  0  0  0  0  0  0  0  0  0  0  0
   37.1150   27.1860   42.4210 C   0  0  2  0  0  0  0  0  0  0  0  0
   35.9490   28.2350   40.9000 H   0  0  0  0  0  0  0  0  0  0  0  0
   36.4100   29.9370   42.6010 H   0  0  0  0  0  0  0  0  0  0  0  0
   37.7610   27.5450   44.5110 H   0  0  0  0  0  0  0  0  0  0  0  0
   36.3700   28.5480   43.9350 H   0  0  0  0  0  0  0  0  0  0  0  0
   36.1950   26.6020   42.6460 H   0  0  0  0  0  0  0  0  0  0  0  0
   37.6430   32.5810   40.1530 C   0  0  0  0  0  0  0  0  0  0  0  0
   38.9970   32.6020   39.7910 C   0  0  0  0  0  0  0  0  0  0  0  0
   39.8070   31.5260   40.2120 C   0  0  0  0  0  0  0  0  0  0  0  0
   39.2550   30.5270   40.9390 N   0  0  0  0  0  0  0  0  0  0  0  0
   37.9470   30.5330   41.2740 C   0  0  0  0  0  0  0  0  0  0  0  0
   37.1320   31.5560   40.8860 N   0  0  0  0  0  0  0  0  0  0  0  0
   39.3560   33.4270   39.2160 H   0  0  0  0  0  0  0  0  0  0  0  0
   40.8340   31.5620   39.9250 H   0  0  0  0  0  0  0  0  0  0  0  0
   36.7810   33.6180   39.7700 O   0  0  0  0  0  0  0  0  0  0  0  0
   36.5550   33.6590   38.7840 H   0  0  0  0  0  0  0  0  0  0  0  0
   37.9110   28.0120   40.3180 O   0  0  0  0  0  0  0  0  0  0  0  0
   38.7460   27.6950   40.7720 H   0  0  0  0  0  0  0  0  0  0  0  0
   38.2520   26.4800   42.2410 O   0  0  0  0  0  0  0  0  0  0  0  0
   38.2160   25.1190   42.2590 C   0  0  0  0  0  0  0  0  0  0  0  0
   39.1150   24.6790   41.8440 H   0  0  0  0  0  0  0  0  0  0  0  0
   38.3970   24.8330   43.4160 H   0  0  0  0  0  0  0  0  0  0  0  0
   36.9510   24.4740   41.8790 C   0  0  0  0  0  0  0  0  0  0  0  0
   36.0470   25.1110   42.0840 H   0  0  0  0  0  0  0  0  0  0  0  0
   36.7450   23.5030   42.3210 H   0  0  0  0  0  0  0  0  0  0  0  0
   37.0310   24.2020   40.3930 C   0  0  0  0  0  0  0  0  0  0  0  0
   37.0200   22.9530   39.7700 C   0  0  0  0  0  0  0  0  0  0  0  0
   36.9480   22.0510   40.3840 H   0  0  0  0  0  0  0  0  0  0  0  0
   37.1080   23.1460   38.4250 N   0  0  0  0  0  0  0  0  0  0  0  0
   37.1100   22.2850   37.8440 H   0  0  0  0  0  0  0  0  0  0  0  0
   37.1730   24.4700   38.2060 C   0  0  0  0  0  0  0  0  0  0  0  0
   37.2490   24.8560   37.2040 H   0  0  0  0  0  0  0  0  0  0  0  0
   37.1270   25.1090   39.3760 N   0  0  0  0  0  0  0  0  0  0  0  0
  1  6  1  6  0  0  0
  1  2  1  0  0  0  0
  1  5  1  0  0  0  0
  2  7  1  1  0  0  0
  2  3  1  0  0  0  0
  3  4  1  0  0  0  0
  4  9  1  0  0  0  0
  4  8  1  0  0  0  0
  5 10  1  1  0  0  0
  5  4  1  0  0  0  0
 11 16  1  0  0  0  0
 12 11  2  0  0  0  0
 12 13  1  0  0  0  0
 13 14  2  0  0  0  0
 14 15  1  0  0  0  0
 15  2  1  0  0  0  0
 16 15  2  0  0  0  0
 17 12  1  0  0  0  0
 18 13  1  0  0  0  0
 19 11  1  0  0  0  0
 20 19  1  0  0  0  0
 21 22  1  0  0  0  0
 21  1  1  0  0  0  0
 23 24  1  0  0  0  0
 23  5  1  0  0  0  0
 24 26  1  0  0  0  0
 25 24  1  0  0  0  0
 27 28  1  0  0  0  0
 27 24  1  0  0  0  0
 27 29  1  0  0  0  0
 30 27  1  0  0  0  0
 31 32  1  0  0  0  0
 31 30  2  0  0  0  0
 33 31  1  0  0  0  0
 34 33  1  0  0  0  0
 35 33  1  0  0  0  0
 35 37  2  0  0  0  0
 36 35  1  0  0  0  0
 37 30  1  0  0  0  0
M  END
>  <minimizedAffinity>
-4.80150652

$$$$
