
 OpenBabel03252508283D

 38 41  0  0  1  0  0  0  0  0999 V2000
   41.2370   33.3970   39.4710 N   0  0  0  0  0  0  0  0  0  0  0  0
   41.3730   32.9970   40.8750 C   0  0  2  0  0  0  0  0  0  0  0  0
   40.1970   33.3870   41.6960 C   0  0  0  0  0  0  0  0  0  0  0  0
   39.0750   33.8260   40.8870 N   0  0  0  0  0  0  0  0  0  0  0  0
   39.3910   34.8140   39.9180 C   0  0  0  0  0  0  0  0  0  0  0  0
   40.8510   34.8260   39.5380 C   0  0  2  0  0  0  0  0  0  0  0  0
   40.5470   32.8400   38.9530 H   0  0  0  0  0  0  0  0  0  0  0  0
   41.4920   31.9020   40.8910 H   0  0  0  0  0  0  0  0  0  0  0  0
   39.8020   32.4960   42.2680 H   0  0  0  0  0  0  0  0  0  0  0  0
   40.3170   34.2620   42.3570 H   0  0  0  0  0  0  0  0  0  0  0  0
   38.6050   32.9750   40.4930 H   0  0  0  0  0  0  0  0  0  0  0  0
   39.1510   35.8290   40.2950 H   0  0  0  0  0  0  0  0  0  0  0  0
   38.7660   34.6730   39.0070 H   0  0  0  0  0  0  0  0  0  0  0  0
   41.4230   35.2670   40.3610 H   0  0  0  0  0  0  0  0  0  0  0  0
   41.0890   35.5320   38.2790 C   0  0  0  0  0  0  0  0  0  0  0  0
   40.2650   35.8340   37.2350 C   0  0  0  0  0  0  0  0  0  0  0  0
   39.2210   35.5730   37.1810 H   0  0  0  0  0  0  0  0  0  0  0  0
   40.9240   36.5050   36.2740 N   0  0  0  0  0  0  0  0  0  0  0  0
   40.6120   36.8910   35.3460 H   0  0  0  0  0  0  0  0  0  0  0  0
   42.1800   36.6330   36.7060 C   0  0  0  0  0  0  0  0  0  0  0  0
   43.0330   37.1190   36.2140 H   0  0  0  0  0  0  0  0  0  0  0  0
   42.2950   36.0530   37.9110 N   0  0  0  0  0  0  0  0  0  0  0  0
   44.6100   34.0760   42.0460 C   0  0  0  0  0  0  0  0  0  0  0  0
   43.7740   35.1720   42.2980 C   0  0  0  0  0  0  0  0  0  0  0  0
   42.4830   34.8820   41.8960 C   0  0  0  0  0  0  0  0  0  0  0  0
   42.5570   33.6430   41.4140 N   0  0  0  0  0  0  0  0  0  0  0  0
   43.7950   33.1730   41.5020 N   0  0  0  0  0  0  0  0  0  0  0  0
   44.2220   36.0640   42.7520 H   0  0  0  0  0  0  0  0  0  0  0  0
   41.8310   35.7250   42.0960 H   0  0  0  0  0  0  0  0  0  0  0  0
   48.2890   34.7910   42.3450 C   0  0  0  0  0  0  0  0  0  0  0  0
   46.9250   34.9880   41.9510 C   0  0  0  0  0  0  0  0  0  0  0  0
   46.0370   34.0230   42.3570 C   0  0  0  0  0  0  0  0  0  0  0  0
   46.4780   32.9670   43.0870 N   0  0  0  0  0  0  0  0  0  0  0  0
   47.7660   32.8000   43.4470 C   0  0  0  0  0  0  0  0  0  0  0  0
   48.6500   33.7220   43.0660 N   0  0  0  0  0  0  0  0  0  0  0  0
   48.9770   35.5610   42.0150 H   0  0  0  0  0  0  0  0  0  0  0  0
   46.5940   35.8260   41.3750 H   0  0  0  0  0  0  0  0  0  0  0  0
   48.0100   31.9290   44.0250 H   0  0  0  0  0  0  0  0  0  0  0  0
  1  6  1  0  0  0  0
  1  2  1  0  0  0  0
  2  8  1  1  0  0  0
  2 26  1  0  0  0  0
  2  3  1  0  0  0  0
  3  9  1  0  0  0  0
  3 10  1  0  0  0  0
  4  3  1  0  0  0  0
  5 12  1  0  0  0  0
  5  4  1  0  0  0  0
  6  5  1  0  0  0  0
  6 14  1  1  0  0  0
  7  1  1  0  0  0  0
 11  4  1  0  0  0  0
 13  5  1  0  0  0  0
 15  6  1  0  0  0  0
 16 15  2  0  0  0  0
 17 16  1  0  0  0  0
 18 20  1  0  0  0  0
 18 16  1  0  0  0  0
 19 18  1  0  0  0  0
 20 22  2  0  0  0  0
 21 20  1  0  0  0  0
 22 15  1  0  0  0  0
 23 24  1  0  0  0  0
 23 32  1  0  0  0  0
 24 28  1  0  0  0  0
 25 29  1  0  0  0  0
 25 24  2  0  0  0  0
 26 27  1  0  0  0  0
 26 25  1  0  0  0  0
 27 23  2  0  0  0  0
 30 35  1  0  0  0  0
 31 30  2  0  0  0  0
 31 32  1  0  0  0  0
 32 33  2  0  0  0  0
 33 34  1  0  0  0  0
 34 38  1  0  0  0  0
 35 34  2  0  0  0  0
 36 30  1  0  0  0  0
 37 31  1  0  0  0  0
M  END
>  <minimizedAffinity>
-4.48453856

>  <minimizedRMSD>
1.76249862

$$$$
