REMARK  Name = 
REMARK  5 active torsions:
REMARK  status: ('A' for Active; 'I' for Inactive)
REMARK    1  A    between atoms: C_3  and  O_7
REMARK    2  A    between atoms: C_5  and  C_16
REMARK    3  A    between atoms: O_7  and  P_9
REMARK    4  A    between atoms: P_9  and  O_10
REMARK    5  A    between atoms: P_9  and  O_11
REMARK                            x       y       z     vdW  Elec       q    Type
REMARK                         _______ _______ _______ _____ _____    ______ ____
ROOT
ATOM      1  C   UNL     1      44.575  35.998  44.504  0.00  0.00    +0.000 A 
ATOM      2  C   UNL     1      45.222  35.982  43.256  0.00  0.00    +0.000 A 
ATOM      3  C   UNL     1      46.102  34.950  42.965  0.00  0.00    +0.000 A 
ATOM      4  N   UNL     1      46.305  33.982  43.914  0.00  0.00    +0.000 NA
ATOM      5  C   UNL     1      45.674  34.019  45.100  0.00  0.00    +0.000 A 
ATOM      6  N   UNL     1      44.818  35.007  45.404  0.00  0.00    +0.000 NA
ATOM      7  H   UNL     1      43.882  36.770  44.790  0.00  0.00    +0.000 HD
ATOM      8  H   UNL     1      45.001  36.800  42.552  0.00  0.00    +0.000 HD
ENDROOT
BRANCH   5   9
ATOM      9  C   UNL     1      45.955  32.942  46.045  0.00  0.00    +0.000 A 
ATOM     10  C   UNL     1      45.636  31.632  45.721  0.00  0.00    +0.000 A 
ATOM     11  H   UNL     1      45.182  31.161  44.848  0.00  0.00    +0.000 HD
ATOM     12  N   UNL     1      45.998  30.853  46.757  0.00  0.00    +0.000 N 
ATOM     13  H   UNL     1      45.958  29.824  46.974  0.00  0.00    +0.000 HD
ATOM     14  C   UNL     1      46.535  31.631  47.725  0.00  0.00    +0.000 A 
ATOM     15  H   UNL     1      46.953  31.448  48.710  0.00  0.00    +0.000 HD
ATOM     16  N   UNL     1      46.512  32.924  47.292  0.00  0.00    +0.000 NA
ENDBRANCH   5   9
BRANCH   3  17
ATOM     17  O   UNL     1      46.720  34.970  41.727  0.00  0.00    +0.000 OA
BRANCH  17  19
ATOM     18  O   UNL     1      48.636  33.332  40.956  0.00  0.00    +0.000 OA
ATOM     19  P   UNL     1      48.409  34.686  41.633  0.00  0.00    +0.000 P 
BRANCH  19  20
ATOM     20  O   UNL     1      49.121  35.940  40.793  0.00  0.00    +0.000 OA
ATOM     21  H   UNL     1      49.935  36.218  41.282  0.00  0.00    +0.000 HD
ENDBRANCH  19  20
BRANCH  19  22
ATOM     22  O   UNL     1      48.993  34.575  43.228  0.00  0.00    +0.000 OA
ATOM     23  H   UNL     1      48.844  33.629  43.532  0.00  0.00    +0.000 HD
ENDBRANCH  19  22
ENDBRANCH  17  19
ENDBRANCH   3  17
TORSDOF 5
