
 OpenBabel03252502273D

 34 36  0  0  0  0  0  0  0  0999 V2000
   45.1880   34.4010   41.1130 C   0  0  0  0  0  0  0  0  0  0  0  0
   45.3170   34.9280   42.3980 C   0  0  0  0  0  0  0  0  0  0  0  0
   46.5990   35.1890   42.8800 C   0  0  0  0  0  0  0  0  0  0  0  0
   47.6970   34.9250   42.0860 C   0  0  0  0  0  0  0  0  0  0  0  0
   47.5820   34.4060   40.8190 C   0  0  0  0  0  0  0  0  0  0  0  0
   46.2890   34.1530   40.3600 C   0  0  0  0  0  0  0  0  0  0  0  0
   44.4540   35.1340   43.0190 H   0  0  0  0  0  0  0  0  0  0  0  0
   46.7750   35.5960   43.8610 H   0  0  0  0  0  0  0  0  0  0  0  0
   48.7230   35.1030   42.3930 H   0  0  0  0  0  0  0  0  0  0  0  0
   48.3680   34.1670   40.1280 H   0  0  0  0  0  0  0  0  0  0  0  0
   41.6040   34.7570   40.0170 C   0  0  0  0  0  0  0  0  0  0  0  0
   42.8890   35.1330   40.4410 C   0  0  0  0  0  0  0  0  0  0  0  0
   43.8320   34.1540   40.6750 C   0  0  0  0  0  0  0  0  0  0  0  0
   43.4410   32.8700   40.4740 N   0  0  0  0  0  0  0  0  0  0  0  0
   42.2060   32.5120   40.0670 C   0  0  0  0  0  0  0  0  0  0  0  0
   41.2710   33.4590   39.8330 N   0  0  0  0  0  0  0  0  0  0  0  0
   43.1660   36.1560   40.5900 H   0  0  0  0  0  0  0  0  0  0  0  0
   41.9310   31.4760   39.9160 H   0  0  0  0  0  0  0  0  0  0  0  0
   40.5740   35.8010   39.7600 C   0  0  0  0  0  0  0  0  0  0  0  0
   39.3660   35.1420   39.5230 F   0  0  0  0  0  0  0  0  0  0  0  0
   40.9090   36.3940   38.5530 F   0  0  0  0  0  0  0  0  0  0  0  0
   40.4350   36.6890   40.7870 F   0  0  0  0  0  0  0  0  0  0  0  0
   46.3320   32.3960   38.4220 C   0  0  0  0  0  0  0  0  0  0  0  0
   46.9320   31.4330   38.9260 O   0  0  0  0  0  0  0  0  0  0  0  0
   46.0300   33.6210   39.0780 N   0  0  0  0  0  0  0  0  0  0  0  0
   45.4820   34.3750   38.5580 H   0  0  0  0  0  0  0  0  0  0  0  0
   45.8930   32.2680   37.0290 C   0  0  0  0  0  0  0  0  0  0  0  0
   45.3950   33.3100   36.3040 C   0  0  0  0  0  0  0  0  0  0  0  0
   45.2390   34.3590   36.6020 H   0  0  0  0  0  0  0  0  0  0  0  0
   45.0640   32.9370   35.0540 N   0  0  0  0  0  0  0  0  0  0  0  0
   44.6590   33.5160   34.2750 H   0  0  0  0  0  0  0  0  0  0  0  0
   45.3760   31.6200   35.0280 C   0  0  0  0  0  0  0  0  0  0  0  0
   45.2090   31.0340   34.1100 H   0  0  0  0  0  0  0  0  0  0  0  0
   45.8730   31.2060   36.2030 N   0  0  0  0  0  0  0  0  0  0  0  0
  1  2  1  0  0  0  0
  2  3  2  0  0  0  0
  2  7  1  0  0  0  0
  3  8  1  0  0  0  0
  4  9  1  0  0  0  0
  4  3  1  0  0  0  0
  5  4  2  0  0  0  0
  6  5  1  0  0  0  0
  6  1  2  0  0  0  0
 10  5  1  0  0  0  0
 11 12  1  0  0  0  0
 12 17  1  0  0  0  0
 12 13  2  0  0  0  0
 13  1  1  0  0  0  0
 14 13  1  0  0  0  0
 15 14  2  0  0  0  0
 16 11  2  0  0  0  0
 16 15  1  0  0  0  0
 18 15  1  0  0  0  0
 19 11  1  0  0  0  0
 19 22  1  0  0  0  0
 20 19  1  0  0  0  0
 21 19  1  0  0  0  0
 23 24  2  0  0  0  0
 23 25  1  0  0  0  0
 25  6  1  0  0  0  0
 26 25  1  0  0  0  0
 27 23  1  0  0  0  0
 28 29  1  0  0  0  0
 28 27  2  0  0  0  0
 30 28  1  0  0  0  0
 31 30  1  0  0  0  0
 32 30  1  0  0  0  0
 32 34  2  0  0  0  0
 33 32  1  0  0  0  0
 34 27  1  0  0  0  0
M  END
>  <minimizedAffinity>
-6.16790724

>  <minimizedRMSD>
0.84242624

$$$$
