
 OpenBabel03242523173D

 26 28  0  0  0  0  0  0  0  0999 V2000
   36.4000   27.9470   40.0130 C   0  0  0  0  0  0  0  0  0  0  0  0
   36.9980   27.5250   41.1560 C   0  0  0  0  0  0  0  0  0  0  0  0
   38.0510   26.6510   40.9690 C   0  0  0  0  0  0  0  0  0  0  0  0
   38.4040   26.2830   39.6810 N   0  0  0  0  0  0  0  0  0  0  0  0
   37.7680   26.7370   38.5970 C   0  0  0  0  0  0  0  0  0  0  0  0
   36.7330   27.5950   38.7460 N   0  0  0  0  0  0  0  0  0  0  0  0
   38.6320   26.2230   41.7740 H   0  0  0  0  0  0  0  0  0  0  0  0
   38.1530   26.3640   37.6580 H   0  0  0  0  0  0  0  0  0  0  0  0
   36.5950   27.8450   42.4730 C   0  0  0  0  0  0  0  0  0  0  0  0
   37.0220   27.3900   43.6790 C   0  0  0  0  0  0  0  0  0  0  0  0
   37.5080   28.8010   43.3510 C   0  0  0  0  0  0  0  0  0  0  0  0
   35.6690   28.5760   42.3850 H   0  0  0  0  0  0  0  0  0  0  0  0
   36.3830   27.3700   44.6110 H   0  0  0  0  0  0  0  0  0  0  0  0
   37.8680   26.6640   43.8090 H   0  0  0  0  0  0  0  0  0  0  0  0
   37.0560   29.6350   43.8780 H   0  0  0  0  0  0  0  0  0  0  0  0
   38.5390   28.8980   42.9480 H   0  0  0  0  0  0  0  0  0  0  0  0
   35.3480   28.9800   39.9270 C   0  0  0  0  0  0  0  0  0  0  0  0
   34.1110   29.1760   39.9260 O   0  0  0  0  0  0  0  0  0  0  0  0
   36.0830   30.2930   39.7880 C   0  0  0  0  0  0  0  0  0  0  0  0
   36.2420   31.1490   40.8570 C   0  0  0  0  0  0  0  0  0  0  0  0
   35.9400   31.1300   41.9170 H   0  0  0  0  0  0  0  0  0  0  0  0
   36.9350   32.2810   40.5250 N   0  0  0  0  0  0  0  0  0  0  0  0
   37.2320   33.1170   41.0550 H   0  0  0  0  0  0  0  0  0  0  0  0
   37.1880   32.0800   39.2230 C   0  0  0  0  0  0  0  0  0  0  0  0
   37.7190   32.7130   38.5150 H   0  0  0  0  0  0  0  0  0  0  0  0
   36.7050   30.9260   38.7520 N   0  0  0  0  0  0  0  0  0  0  0  0
  1  2  1  0  0  0  0
  2  9  1  0  0  0  0
  3  2  2  0  0  0  0
  3  7  1  0  0  0  0
  4  3  1  0  0  0  0
  5  6  1  0  0  0  0
  5  4  2  0  0  0  0
  6  1  2  0  0  0  0
  8  5  1  0  0  0  0
  9 11  1  0  0  0  0
  9 10  1  0  0  0  0
 10 14  1  0  0  0  0
 10 13  1  0  0  0  0
 11 10  1  0  0  0  0
 11 15  1  0  0  0  0
 12  9  1  0  0  0  0
 16 11  1  0  0  0  0
 17  1  1  0  0  0  0
 18 17  2  0  0  0  0
 19 17  1  0  0  0  0
 19 20  2  0  0  0  0
 20 21  1  0  0  0  0
 22 20  1  0  0  0  0
 22 23  1  0  0  0  0
 24 22  1  0  0  0  0
 25 24  1  0  0  0  0
 26 24  2  0  0  0  0
 26 19  1  0  0  0  0
M  END
>  <minimizedAffinity>
-4.62346697

$$$$

 OpenBabel03242523173D

 26 28  0  0  0  0  0  0  0  0999 V2000
   38.8100   29.5740   40.8220 C   0  0  0  0  0  0  0  0  0  0  0  0
   38.0070   28.5420   41.1860 C   0  0  0  0  0  0  0  0  0  0  0  0
   37.9370   27.5120   40.2700 C   0  0  0  0  0  0  0  0  0  0  0  0
   38.6620   27.6040   39.0930 N   0  0  0  0  0  0  0  0  0  0  0  0
   39.4340   28.6530   38.7970 C   0  0  0  0  0  0  0  0  0  0  0  0
   39.5240   29.6790   39.6740 N   0  0  0  0  0  0  0  0  0  0  0  0
   37.3440   26.6190   40.4080 H   0  0  0  0  0  0  0  0  0  0  0  0
   39.9400   28.5870   37.8440 H   0  0  0  0  0  0  0  0  0  0  0  0
   37.2130   28.4800   42.3550 C   0  0  0  0  0  0  0  0  0  0  0  0
   36.5630   27.4420   42.9440 C   0  0  0  0  0  0  0  0  0  0  0  0
   37.8340   27.8650   43.6800 C   0  0  0  0  0  0  0  0  0  0  0  0
   37.0950   29.5860   42.7550 H   0  0  0  0  0  0  0  0  0  0  0  0
   35.6440   27.5570   43.5910 H   0  0  0  0  0  0  0  0  0  0  0  0
   36.6110   26.3840   42.5750 H   0  0  0  0  0  0  0  0  0  0  0  0
   37.7300   28.4000   44.6170 H   0  0  0  0  0  0  0  0  0  0  0  0
   38.7500   27.2650   43.4860 H   0  0  0  0  0  0  0  0  0  0  0  0
   39.1640   30.7280   41.6740 C   0  0  0  0  0  0  0  0  0  0  0  0
   39.7420   31.0740   42.7290 O   0  0  0  0  0  0  0  0  0  0  0  0
   38.5950   31.9370   40.9700 C   0  0  0  0  0  0  0  0  0  0  0  0
   37.2650   32.0080   40.6120 C   0  0  0  0  0  0  0  0  0  0  0  0
   36.3990   31.3350   40.7160 H   0  0  0  0  0  0  0  0  0  0  0  0
   36.9510   33.1830   39.9860 N   0  0  0  0  0  0  0  0  0  0  0  0
   36.0780   33.5690   39.5930 H   0  0  0  0  0  0  0  0  0  0  0  0
   38.1330   33.8180   39.9790 C   0  0  0  0  0  0  0  0  0  0  0  0
   38.3890   34.7990   39.5830 H   0  0  0  0  0  0  0  0  0  0  0  0
   39.1230   33.1220   40.5450 N   0  0  0  0  0  0  0  0  0  0  0  0
  1  2  1  0  0  0  0
  1 17  1  0  0  0  0
  2  9  1  0  0  0  0
  3  7  1  0  0  0  0
  3  2  2  0  0  0  0
  4  3  1  0  0  0  0
  5  4  2  0  0  0  0
  5  6  1  0  0  0  0
  6  1  2  0  0  0  0
  8  5  1  0  0  0  0
  9 12  1  0  0  0  0
  9 10  1  0  0  0  0
  9 11  1  0  0  0  0
 10 13  1  0  0  0  0
 10 11  1  0  0  0  0
 11 15  1  0  0  0  0
 14 10  1  0  0  0  0
 16 11  1  0  0  0  0
 17 18  2  0  0  0  0
 19 17  1  0  0  0  0
 20 21  1  0  0  0  0
 20 19  2  0  0  0  0
 22 20  1  0  0  0  0
 23 22  1  0  0  0  0
 24 22  1  0  0  0  0
 24 26  2  0  0  0  0
 25 24  1  0  0  0  0
 26 19  1  0  0  0  0
M  END
>  <minimizedAffinity>
-4.45015907

$$$$

 OpenBabel03242523173D

 26 28  0  0  0  0  0  0  0  0999 V2000
   38.9150   31.6900   41.0760 C   0  0  0  0  0  0  0  0  0  0  0  0
   37.8860   30.8110   41.1710 C   0  0  0  0  0  0  0  0  0  0  0  0
   38.1300   29.7190   41.9800 C   0  0  0  0  0  0  0  0  0  0  0  0
   39.3600   29.6060   42.6090 N   0  0  0  0  0  0  0  0  0  0  0  0
   40.3320   30.5110   42.4690 C   0  0  0  0  0  0  0  0  0  0  0  0
   40.1240   31.5920   41.6830 N   0  0  0  0  0  0  0  0  0  0  0  0
   37.4150   28.9290   42.1620 H   0  0  0  0  0  0  0  0  0  0  0  0
   41.2370   30.2900   43.0180 H   0  0  0  0  0  0  0  0  0  0  0  0
   36.6570   30.8920   40.4760 C   0  0  0  0  0  0  0  0  0  0  0  0
   36.2510   30.3370   39.3040 C   0  0  0  0  0  0  0  0  0  0  0  0
   35.6500   29.6670   40.5390 C   0  0  0  0  0  0  0  0  0  0  0  0
   35.9770   31.6640   41.0580 H   0  0  0  0  0  0  0  0  0  0  0  0
   35.4540   30.7810   38.6360 H   0  0  0  0  0  0  0  0  0  0  0  0
   36.8770   29.6330   38.6950 H   0  0  0  0  0  0  0  0  0  0  0  0
   34.6040   29.8460   40.7630 H   0  0  0  0  0  0  0  0  0  0  0  0
   36.1350   28.7300   40.8890 H   0  0  0  0  0  0  0  0  0  0  0  0
   38.8660   32.9980   40.3910 C   0  0  0  0  0  0  0  0  0  0  0  0
   38.4040   34.1610   40.4490 O   0  0  0  0  0  0  0  0  0  0  0  0
   39.7080   32.8340   39.1480 C   0  0  0  0  0  0  0  0  0  0  0  0
   39.2330   32.1750   38.0340 C   0  0  0  0  0  0  0  0  0  0  0  0
   38.2850   31.6750   37.7750 H   0  0  0  0  0  0  0  0  0  0  0  0
   40.1470   32.1340   37.0170 N   0  0  0  0  0  0  0  0  0  0  0  0
   40.1370   31.7350   36.0640 H   0  0  0  0  0  0  0  0  0  0  0  0
   41.1880   32.7890   37.5540 C   0  0  0  0  0  0  0  0  0  0  0  0
   42.1610   33.0150   37.1220 H   0  0  0  0  0  0  0  0  0  0  0  0
   40.9710   33.2160   38.8010 N   0  0  0  0  0  0  0  0  0  0  0  0
  1  2  2  0  0  0  0
  1  6  1  0  0  0  0
  2  3  1  0  0  0  0
  3  7  1  0  0  0  0
  3  4  2  0  0  0  0
  5  4  1  0  0  0  0
  5  8  1  0  0  0  0
  6  5  2  0  0  0  0
  9 11  1  0  0  0  0
  9 12  1  0  0  0  0
  9  2  1  0  0  0  0
 10  9  1  0  0  0  0
 10 11  1  0  0  0  0
 11 15  1  0  0  0  0
 11 16  1  0  0  0  0
 13 10  1  0  0  0  0
 14 10  1  0  0  0  0
 17 18  2  0  0  0  0
 17  1  1  0  0  0  0
 19 17  1  0  0  0  0
 20 19  2  0  0  0  0
 21 20  1  0  0  0  0
 22 24  1  0  0  0  0
 22 20  1  0  0  0  0
 23 22  1  0  0  0  0
 24 26  2  0  0  0  0
 25 24  1  0  0  0  0
 26 19  1  0  0  0  0
M  END
>  <minimizedAffinity>
-4.36547613

$$$$

 OpenBabel03242523173D

 26 28  0  0  0  0  0  0  0  0999 V2000
   38.4420   29.9500   41.6660 C   0  0  0  0  0  0  0  0  0  0  0  0
   38.5140   28.6870   42.1550 C   0  0  0  0  0  0  0  0  0  0  0  0
   39.7220   28.3600   42.7380 C   0  0  0  0  0  0  0  0  0  0  0  0
   40.7320   29.3080   42.7790 N   0  0  0  0  0  0  0  0  0  0  0  0
   40.5920   30.5380   42.2750 C   0  0  0  0  0  0  0  0  0  0  0  0
   39.4210   30.8890   41.6980 N   0  0  0  0  0  0  0  0  0  0  0  0
   39.9420   27.3960   43.1750 H   0  0  0  0  0  0  0  0  0  0  0  0
   41.4630   31.1690   42.3780 H   0  0  0  0  0  0  0  0  0  0  0  0
   37.5090   27.6970   42.0520 C   0  0  0  0  0  0  0  0  0  0  0  0
   37.4490   26.4260   42.5270 C   0  0  0  0  0  0  0  0  0  0  0  0
   36.5740   27.4110   43.3010 C   0  0  0  0  0  0  0  0  0  0  0  0
   36.6680   28.1280   41.3420 H   0  0  0  0  0  0  0  0  0  0  0  0
   36.8380   25.6020   42.0540 H   0  0  0  0  0  0  0  0  0  0  0  0
   38.2430   25.9600   43.1690 H   0  0  0  0  0  0  0  0  0  0  0  0
   35.4990   27.3610   43.1640 H   0  0  0  0  0  0  0  0  0  0  0  0
   36.9890   27.8150   44.2500 H   0  0  0  0  0  0  0  0  0  0  0  0
   37.2280   30.5920   41.1210 C   0  0  0  0  0  0  0  0  0  0  0  0
   36.0590   30.9530   41.3900 O   0  0  0  0  0  0  0  0  0  0  0  0
   37.5600   30.9290   39.6870 C   0  0  0  0  0  0  0  0  0  0  0  0
   37.3320   32.1860   39.1670 C   0  0  0  0  0  0  0  0  0  0  0  0
   36.9220   33.1270   39.5680 H   0  0  0  0  0  0  0  0  0  0  0  0
   37.7000   32.2860   37.8530 N   0  0  0  0  0  0  0  0  0  0  0  0
   37.6740   33.0540   37.1630 H   0  0  0  0  0  0  0  0  0  0  0  0
   38.1570   31.0510   37.5980 C   0  0  0  0  0  0  0  0  0  0  0  0
   38.5630   30.6400   36.6750 H   0  0  0  0  0  0  0  0  0  0  0  0
   38.0920   30.2250   38.6460 N   0  0  0  0  0  0  0  0  0  0  0  0
  1  6  2  0  0  0  0
  1  2  1  0  0  0  0
  2  3  2  0  0  0  0
  3  4  1  0  0  0  0
  3  7  1  0  0  0  0
  5  8  1  0  0  0  0
  5  4  2  0  0  0  0
  6  5  1  0  0  0  0
  9  2  1  0  0  0  0
  9 10  1  0  0  0  0
  9 11  1  0  0  0  0
 10 14  1  0  0  0  0
 10 11  1  0  0  0  0
 11 16  1  0  0  0  0
 12  9  1  0  0  0  0
 13 10  1  0  0  0  0
 15 11  1  0  0  0  0
 17 18  2  0  0  0  0
 17  1  1  0  0  0  0
 19 17  1  0  0  0  0
 20 21  1  0  0  0  0
 20 19  2  0  0  0  0
 22 20  1  0  0  0  0
 23 22  1  0  0  0  0
 24 22  1  0  0  0  0
 24 26  2  0  0  0  0
 25 24  1  0  0  0  0
 26 19  1  0  0  0  0
M  END
>  <minimizedAffinity>
-4.30117607

$$$$

 OpenBabel03242523173D

 26 28  0  0  0  0  0  0  0  0999 V2000
   38.6750   27.2580   41.3050 C   0  0  0  0  0  0  0  0  0  0  0  0
   38.3020   26.0920   40.7220 C   0  0  0  0  0  0  0  0  0  0  0  0
   39.1890   25.6050   39.7820 C   0  0  0  0  0  0  0  0  0  0  0  0
   40.3480   26.3150   39.5160 N   0  0  0  0  0  0  0  0  0  0  0  0
   40.6530   27.4630   40.1280 C   0  0  0  0  0  0  0  0  0  0  0  0
   39.8040   27.9660   41.0540 N   0  0  0  0  0  0  0  0  0  0  0  0
   39.0410   24.6880   39.2290 H   0  0  0  0  0  0  0  0  0  0  0  0
   41.5890   27.9050   39.8180 H   0  0  0  0  0  0  0  0  0  0  0  0
   37.0870   25.4030   40.9440 C   0  0  0  0  0  0  0  0  0  0  0  0
   36.7190   24.1230   40.6760 C   0  0  0  0  0  0  0  0  0  0  0  0
   36.9850   24.3850   42.1580 C   0  0  0  0  0  0  0  0  0  0  0  0
   36.3090   26.1920   41.3560 H   0  0  0  0  0  0  0  0  0  0  0  0
   35.6520   23.7970   40.4910 H   0  0  0  0  0  0  0  0  0  0  0  0
   37.4100   23.3510   40.2450 H   0  0  0  0  0  0  0  0  0  0  0  0
   36.1360   24.4390   42.8300 H   0  0  0  0  0  0  0  0  0  0  0  0
   37.9810   24.0850   42.5510 H   0  0  0  0  0  0  0  0  0  0  0  0
   37.9780   27.9170   42.4300 C   0  0  0  0  0  0  0  0  0  0  0  0
   37.8060   27.8990   43.6700 O   0  0  0  0  0  0  0  0  0  0  0  0
   37.1780   29.0370   41.8090 C   0  0  0  0  0  0  0  0  0  0  0  0
   35.9090   28.8300   41.3100 C   0  0  0  0  0  0  0  0  0  0  0  0
   35.2390   27.9580   41.2360 H   0  0  0  0  0  0  0  0  0  0  0  0
   35.3560   29.9680   40.7910 N   0  0  0  0  0  0  0  0  0  0  0  0
   34.4490   30.1810   40.3460 H   0  0  0  0  0  0  0  0  0  0  0  0
   36.3320   30.8670   40.9920 C   0  0  0  0  0  0  0  0  0  0  0  0
   36.3590   31.9270   40.7430 H   0  0  0  0  0  0  0  0  0  0  0  0
   37.4170   30.3620   41.5860 N   0  0  0  0  0  0  0  0  0  0  0  0
  1 17  1  0  0  0  0
  2  9  1  0  0  0  0
  2  1  2  0  0  0  0
  3  2  1  0  0  0  0
  4  3  2  0  0  0  0
  4  5  1  0  0  0  0
  5  6  2  0  0  0  0
  6  1  1  0  0  0  0
  7  3  1  0  0  0  0
  8  5  1  0  0  0  0
  9 12  1  0  0  0  0
  9 11  1  0  0  0  0
 10  9  1  0  0  0  0
 10 11  1  0  0  0  0
 11 16  1  0  0  0  0
 11 15  1  0  0  0  0
 13 10  1  0  0  0  0
 14 10  1  0  0  0  0
 17 18  2  0  0  0  0
 19 17  1  0  0  0  0
 20 19  2  0  0  0  0
 21 20  1  0  0  0  0
 22 24  1  0  0  0  0
 22 20  1  0  0  0  0
 23 22  1  0  0  0  0
 24 26  2  0  0  0  0
 25 24  1  0  0  0  0
 26 19  1  0  0  0  0
M  END
>  <minimizedAffinity>
-4.21208763

$$$$

 OpenBabel03242523173D

 26 28  0  0  0  0  0  0  0  0999 V2000
   37.6980   29.9220   40.1950 C   0  0  0  0  0  0  0  0  0  0  0  0
   37.1660   29.3550   41.3070 C   0  0  0  0  0  0  0  0  0  0  0  0
   35.8800   28.8770   41.1550 C   0  0  0  0  0  0  0  0  0  0  0  0
   35.2520   29.0060   39.9260 N   0  0  0  0  0  0  0  0  0  0  0  0
   35.8360   29.5790   38.8700 C   0  0  0  0  0  0  0  0  0  0  0  0
   37.0960   30.0570   38.9870 N   0  0  0  0  0  0  0  0  0  0  0  0
   35.3150   28.3980   41.9420 H   0  0  0  0  0  0  0  0  0  0  0  0
   35.2260   29.6100   37.9790 H   0  0  0  0  0  0  0  0  0  0  0  0
   37.7810   29.2850   42.5790 C   0  0  0  0  0  0  0  0  0  0  0  0
   37.4970   28.5300   43.6720 C   0  0  0  0  0  0  0  0  0  0  0  0
   38.7360   28.0620   42.9100 C   0  0  0  0  0  0  0  0  0  0  0  0
   38.6110   30.1250   42.6110 H   0  0  0  0  0  0  0  0  0  0  0  0
   37.7450   28.8340   44.7320 H   0  0  0  0  0  0  0  0  0  0  0  0
   36.6910   27.7510   43.7020 H   0  0  0  0  0  0  0  0  0  0  0  0
   39.7100   28.2480   43.3500 H   0  0  0  0  0  0  0  0  0  0  0  0
   38.6030   27.2100   42.2080 H   0  0  0  0  0  0  0  0  0  0  0  0
   39.0940   30.3840   40.0510 C   0  0  0  0  0  0  0  0  0  0  0  0
   40.2830   30.0100   39.9310 O   0  0  0  0  0  0  0  0  0  0  0  0
   39.0200   31.8930   40.0500 C   0  0  0  0  0  0  0  0  0  0  0  0
   39.8310   32.6570   39.2380 C   0  0  0  0  0  0  0  0  0  0  0  0
   40.6160   32.4330   38.4960 H   0  0  0  0  0  0  0  0  0  0  0  0
   39.6110   33.9990   39.3870 N   0  0  0  0  0  0  0  0  0  0  0  0
   40.0220   34.8410   38.9530 H   0  0  0  0  0  0  0  0  0  0  0  0
   38.6410   34.0190   40.3140 C   0  0  0  0  0  0  0  0  0  0  0  0
   38.1300   34.8690   40.7630 H   0  0  0  0  0  0  0  0  0  0  0  0
   38.2660   32.8060   40.7290 N   0  0  0  0  0  0  0  0  0  0  0  0
  1  2  1  0  0  0  0
  2  9  1  0  0  0  0
  3  2  2  0  0  0  0
  3  7  1  0  0  0  0
  4  3  1  0  0  0  0
  5  6  1  0  0  0  0
  5  4  2  0  0  0  0
  6  1  2  0  0  0  0
  8  5  1  0  0  0  0
  9 12  1  0  0  0  0
  9 11  1  0  0  0  0
  9 10  1  0  0  0  0
 10 14  1  0  0  0  0
 10 13  1  0  0  0  0
 11 15  1  0  0  0  0
 11 10  1  0  0  0  0
 16 11  1  0  0  0  0
 17  1  1  0  0  0  0
 18 17  2  0  0  0  0
 19 17  1  0  0  0  0
 19 26  1  0  0  0  0
 20 22  1  0  0  0  0
 20 19  2  0  0  0  0
 21 20  1  0  0  0  0
 22 24  1  0  0  0  0
 23 22  1  0  0  0  0
 24 26  2  0  0  0  0
 24 25  1  0  0  0  0
M  END
>  <minimizedAffinity>
-4.18782616

$$$$

 OpenBabel03242523173D

 26 28  0  0  0  0  0  0  0  0999 V2000
   37.3450   28.5260   39.3530 C   0  0  0  0  0  0  0  0  0  0  0  0
   36.9320   29.7190   38.8580 C   0  0  0  0  0  0  0  0  0  0  0  0
   35.7990   29.6590   38.0700 C   0  0  0  0  0  0  0  0  0  0  0  0
   35.1930   28.4320   37.8520 N   0  0  0  0  0  0  0  0  0  0  0  0
   35.6560   27.2920   38.3710 C   0  0  0  0  0  0  0  0  0  0  0  0
   36.7630   27.3180   39.1470 N   0  0  0  0  0  0  0  0  0  0  0  0
   35.3420   30.5180   37.6010 H   0  0  0  0  0  0  0  0  0  0  0  0
   35.0810   26.4130   38.1150 H   0  0  0  0  0  0  0  0  0  0  0  0
   37.5890   30.9610   39.0250 C   0  0  0  0  0  0  0  0  0  0  0  0
   37.2310   32.2210   38.6670 C   0  0  0  0  0  0  0  0  0  0  0  0
   37.0990   31.9490   40.1650 C   0  0  0  0  0  0  0  0  0  0  0  0
   38.6540   30.7320   39.4840 H   0  0  0  0  0  0  0  0  0  0  0  0
   37.9670   33.0520   38.4530 H   0  0  0  0  0  0  0  0  0  0  0  0
   36.2490   32.4800   38.1900 H   0  0  0  0  0  0  0  0  0  0  0  0
   37.8270   32.3960   40.8340 H   0  0  0  0  0  0  0  0  0  0  0  0
   36.0850   31.6980   40.5440 H   0  0  0  0  0  0  0  0  0  0  0  0
   38.4390   28.3330   40.3270 C   0  0  0  0  0  0  0  0  0  0  0  0
   39.6820   28.2450   40.4570 O   0  0  0  0  0  0  0  0  0  0  0  0
   37.7630   28.1920   41.6700 C   0  0  0  0  0  0  0  0  0  0  0  0
   37.5980   29.2710   42.5140 C   0  0  0  0  0  0  0  0  0  0  0  0
   37.8580   30.3400   42.4630 H   0  0  0  0  0  0  0  0  0  0  0  0
   36.9650   28.9340   43.6790 N   0  0  0  0  0  0  0  0  0  0  0  0
   36.6820   29.4690   44.5160 H   0  0  0  0  0  0  0  0  0  0  0  0
   36.7540   27.6200   43.5110 C   0  0  0  0  0  0  0  0  0  0  0  0
   36.2760   26.9050   44.1780 H   0  0  0  0  0  0  0  0  0  0  0  0
   37.2070   27.1460   42.3470 N   0  0  0  0  0  0  0  0  0  0  0  0
  1 17  1  0  0  0  0
  2  9  1  0  0  0  0
  2  1  2  0  0  0  0
  3  2  1  0  0  0  0
  4  3  2  0  0  0  0
  4  5  1  0  0  0  0
  5  6  2  0  0  0  0
  6  1  1  0  0  0  0
  7  3  1  0  0  0  0
  8  5  1  0  0  0  0
  9 12  1  0  0  0  0
  9 11  1  0  0  0  0
 10  9  1  0  0  0  0
 10 11  1  0  0  0  0
 11 16  1  0  0  0  0
 11 15  1  0  0  0  0
 13 10  1  0  0  0  0
 14 10  1  0  0  0  0
 17 18  2  0  0  0  0
 17 19  1  0  0  0  0
 19 26  1  0  0  0  0
 19 20  2  0  0  0  0
 20 22  1  0  0  0  0
 21 20  1  0  0  0  0
 22 23  1  0  0  0  0
 24 22  1  0  0  0  0
 24 25  1  0  0  0  0
 26 24  2  0  0  0  0
M  END
>  <minimizedAffinity>
-4.18646383

$$$$

 OpenBabel03242523173D

 26 28  0  0  0  0  0  0  0  0999 V2000
   38.2450   29.4630   40.7710 C   0  0  0  0  0  0  0  0  0  0  0  0
   37.1650   28.6950   40.4790 C   0  0  0  0  0  0  0  0  0  0  0  0
   36.5280   28.1510   41.5760 C   0  0  0  0  0  0  0  0  0  0  0  0
   37.0180   28.4190   42.8440 N   0  0  0  0  0  0  0  0  0  0  0  0
   38.0900   29.1860   43.0600 C   0  0  0  0  0  0  0  0  0  0  0  0
   38.7370   29.7330   42.0060 N   0  0  0  0  0  0  0  0  0  0  0  0
   35.6540   27.5170   41.5160 H   0  0  0  0  0  0  0  0  0  0  0  0
   38.3570   29.3060   44.1000 H   0  0  0  0  0  0  0  0  0  0  0  0
   36.7060   28.3650   39.1820 C   0  0  0  0  0  0  0  0  0  0  0  0
   35.5570   27.7780   38.7590 C   0  0  0  0  0  0  0  0  0  0  0  0
   35.6100   29.2820   38.4930 C   0  0  0  0  0  0  0  0  0  0  0  0
   37.5850   28.6070   38.4300 H   0  0  0  0  0  0  0  0  0  0  0  0
   35.4640   27.1840   37.8020 H   0  0  0  0  0  0  0  0  0  0  0  0
   34.7130   27.4920   39.4410 H   0  0  0  0  0  0  0  0  0  0  0  0
   35.7580   29.6170   37.4730 H   0  0  0  0  0  0  0  0  0  0  0  0
   35.0830   29.9400   39.2180 H   0  0  0  0  0  0  0  0  0  0  0  0
   39.0160   30.2650   39.7990 C   0  0  0  0  0  0  0  0  0  0  0  0
   39.8430   30.2060   38.8600 O   0  0  0  0  0  0  0  0  0  0  0  0
   38.6350   31.7010   40.0690 C   0  0  0  0  0  0  0  0  0  0  0  0
   37.3590   32.1680   39.8370 C   0  0  0  0  0  0  0  0  0  0  0  0
   36.4260   31.7170   39.4610 H   0  0  0  0  0  0  0  0  0  0  0  0
   37.2190   33.4940   40.1450 N   0  0  0  0  0  0  0  0  0  0  0  0
   36.4290   34.1570   40.0990 H   0  0  0  0  0  0  0  0  0  0  0  0
   38.4520   33.8100   40.5700 C   0  0  0  0  0  0  0  0  0  0  0  0
   38.8370   34.7640   40.9260 H   0  0  0  0  0  0  0  0  0  0  0  0
   39.3120   32.7880   40.5410 N   0  0  0  0  0  0  0  0  0  0  0  0
  1  6  1  0  0  0  0
  2  1  2  0  0  0  0
  2  3  1  0  0  0  0
  3  4  2  0  0  0  0
  4  5  1  0  0  0  0
  5  8  1  0  0  0  0
  6  5  2  0  0  0  0
  7  3  1  0  0  0  0
  9  2  1  0  0  0  0
 10  9  1  0  0  0  0
 10 14  1  0  0  0  0
 11 10  1  0  0  0  0
 11  9  1  0  0  0  0
 11 16  1  0  0  0  0
 12  9  1  0  0  0  0
 13 10  1  0  0  0  0
 15 11  1  0  0  0  0
 17 19  1  0  0  0  0
 17  1  1  0  0  0  0
 18 17  2  0  0  0  0
 19 26  1  0  0  0  0
 20 19  2  0  0  0  0
 20 22  1  0  0  0  0
 21 20  1  0  0  0  0
 22 24  1  0  0  0  0
 23 22  1  0  0  0  0
 24 25  1  0  0  0  0
 26 24  2  0  0  0  0
M  END
>  <minimizedAffinity>
-4.16824675

$$$$

 OpenBabel03242523173D

 26 28  0  0  0  0  0  0  0  0999 V2000
   37.7270   30.2580   41.4030 C   0  0  0  0  0  0  0  0  0  0  0  0
   37.7080   29.0710   42.0600 C   0  0  0  0  0  0  0  0  0  0  0  0
   36.5740   28.3120   41.8520 C   0  0  0  0  0  0  0  0  0  0  0  0
   35.5770   28.8000   41.0220 N   0  0  0  0  0  0  0  0  0  0  0  0
   35.6610   29.9830   40.4060 C   0  0  0  0  0  0  0  0  0  0  0  0
   36.7590   30.7490   40.5890 N   0  0  0  0  0  0  0  0  0  0  0  0
   36.4030   27.3430   42.3000 H   0  0  0  0  0  0  0  0  0  0  0  0
   34.8080   30.2320   39.7900 H   0  0  0  0  0  0  0  0  0  0  0  0
   38.6940   28.6040   42.9610 C   0  0  0  0  0  0  0  0  0  0  0  0
   38.9110   27.3740   43.4950 C   0  0  0  0  0  0  0  0  0  0  0  0
   39.9110   27.7530   42.4030 C   0  0  0  0  0  0  0  0  0  0  0  0
   39.3240   29.5430   43.3050 H   0  0  0  0  0  0  0  0  0  0  0  0
   39.4190   27.1970   44.4880 H   0  0  0  0  0  0  0  0  0  0  0  0
   38.3120   26.4630   43.2310 H   0  0  0  0  0  0  0  0  0  0  0  0
   40.9230   28.0090   42.7000 H   0  0  0  0  0  0  0  0  0  0  0  0
   39.7220   27.3490   41.3850 H   0  0  0  0  0  0  0  0  0  0  0  0
   38.8720   31.1900   41.3460 C   0  0  0  0  0  0  0  0  0  0  0  0
   39.6360   31.9070   42.0320 O   0  0  0  0  0  0  0  0  0  0  0  0
   39.2370   31.2910   39.8840 C   0  0  0  0  0  0  0  0  0  0  0  0
   39.3850   32.5100   39.2580 C   0  0  0  0  0  0  0  0  0  0  0  0
   39.2980   33.5610   39.5780 H   0  0  0  0  0  0  0  0  0  0  0  0
   39.7150   32.3860   37.9360 N   0  0  0  0  0  0  0  0  0  0  0  0
   39.8990   33.0660   37.1800 H   0  0  0  0  0  0  0  0  0  0  0  0
   39.7620   31.0540   37.7860 C   0  0  0  0  0  0  0  0  0  0  0  0
   39.9870   30.4640   36.8990 H   0  0  0  0  0  0  0  0  0  0  0  0
   39.4870   30.3750   38.9040 N   0  0  0  0  0  0  0  0  0  0  0  0
  1  2  1  0  0  0  0
  2  9  1  0  0  0  0
  3  2  2  0  0  0  0
  3  7  1  0  0  0  0
  4  3  1  0  0  0  0
  5  6  1  0  0  0  0
  5  4  2  0  0  0  0
  6  1  2  0  0  0  0
  8  5  1  0  0  0  0
  9 12  1  0  0  0  0
  9 10  1  0  0  0  0
 10 13  1  0  0  0  0
 11 15  1  0  0  0  0
 11  9  1  0  0  0  0
 11 10  1  0  0  0  0
 14 10  1  0  0  0  0
 16 11  1  0  0  0  0
 17  1  1  0  0  0  0
 17 18  2  0  0  0  0
 19 17  1  0  0  0  0
 20 21  1  0  0  0  0
 20 19  2  0  0  0  0
 22 20  1  0  0  0  0
 23 22  1  0  0  0  0
 24 22  1  0  0  0  0
 24 26  2  0  0  0  0
 25 24  1  0  0  0  0
 26 19  1  0  0  0  0
M  END
>  <minimizedAffinity>
-4.16298342

$$$$
