
 OpenBabel03252508283D

 38 41  0  0  1  0  0  0  0  0999 V2000
   41.1470   33.0690   39.6560 N   0  0  0  0  0  0  0  0  0  0  0  0
   41.4290   32.6760   41.0390 C   0  0  2  0  0  0  0  0  0  0  0  0
   40.2920   32.9550   41.9550 C   0  0  0  0  0  0  0  0  0  0  0  0
   39.0740   33.2960   41.2420 N   0  0  0  0  0  0  0  0  0  0  0  0
   39.2230   34.3120   40.2630 C   0  0  0  0  0  0  0  0  0  0  0  0
   40.6400   34.4570   39.7700 C   0  0  2  0  0  0  0  0  0  0  0  0
   40.4690   32.4540   39.1870 H   0  0  0  0  0  0  0  0  0  0  0  0
   41.6460   31.5960   41.0330 H   0  0  0  0  0  0  0  0  0  0  0  0
   40.0250   32.0290   42.5450 H   0  0  0  0  0  0  0  0  0  0  0  0
   40.3860   33.8350   42.6140 H   0  0  0  0  0  0  0  0  0  0  0  0
   38.6520   32.4070   40.8760 H   0  0  0  0  0  0  0  0  0  0  0  0
   38.9240   35.2990   40.6690 H   0  0  0  0  0  0  0  0  0  0  0  0
   38.5420   34.1190   39.4030 H   0  0  0  0  0  0  0  0  0  0  0  0
   41.2350   34.9440   40.5500 H   0  0  0  0  0  0  0  0  0  0  0  0
   40.7140   35.1870   38.5040 C   0  0  0  0  0  0  0  0  0  0  0  0
   39.9650   35.1150   37.3670 C   0  0  0  0  0  0  0  0  0  0  0  0
   39.1330   34.4460   37.2200 H   0  0  0  0  0  0  0  0  0  0  0  0
   40.3990   35.9910   36.4420 N   0  0  0  0  0  0  0  0  0  0  0  0
   40.0660   36.2050   35.4670 H   0  0  0  0  0  0  0  0  0  0  0  0
   41.4340   36.6280   36.9930 C   0  0  0  0  0  0  0  0  0  0  0  0
   42.0650   37.4180   36.5650 H   0  0  0  0  0  0  0  0  0  0  0  0
   41.6360   36.1560   38.2330 N   0  0  0  0  0  0  0  0  0  0  0  0
   44.6300   34.0070   42.0380 C   0  0  0  0  0  0  0  0  0  0  0  0
   43.7480   35.0830   42.2000 C   0  0  0  0  0  0  0  0  0  0  0  0
   42.4650   34.6980   41.8530 C   0  0  0  0  0  0  0  0  0  0  0  0
   42.5900   33.4230   41.4910 N   0  0  0  0  0  0  0  0  0  0  0  0
   43.8490   33.0190   41.5990 N   0  0  0  0  0  0  0  0  0  0  0  0
   44.1600   36.0350   42.5580 H   0  0  0  0  0  0  0  0  0  0  0  0
   41.7780   35.5270   41.9840 H   0  0  0  0  0  0  0  0  0  0  0  0
   48.2760   34.9070   42.1920 C   0  0  0  0  0  0  0  0  0  0  0  0
   46.8990   35.0040   41.8060 C   0  0  0  0  0  0  0  0  0  0  0  0
   46.0620   34.0480   42.3250 C   0  0  0  0  0  0  0  0  0  0  0  0
   46.5610   33.0910   43.1490 N   0  0  0  0  0  0  0  0  0  0  0  0
   47.8610   33.0190   43.4990 C   0  0  0  0  0  0  0  0  0  0  0  0
   48.6960   33.9340   43.0090 N   0  0  0  0  0  0  0  0  0  0  0  0
   48.9240   35.6700   41.7720 H   0  0  0  0  0  0  0  0  0  0  0  0
   46.5220   35.7640   41.1560 H   0  0  0  0  0  0  0  0  0  0  0  0
   48.1520   32.2220   44.1580 H   0  0  0  0  0  0  0  0  0  0  0  0
  1  6  1  0  0  0  0
  1  2  1  0  0  0  0
  2  8  1  1  0  0  0
  2 26  1  0  0  0  0
  2  3  1  0  0  0  0
  3  9  1  0  0  0  0
  3 10  1  0  0  0  0
  4  3  1  0  0  0  0
  5 12  1  0  0  0  0
  5  4  1  0  0  0  0
  6  5  1  0  0  0  0
  6 14  1  1  0  0  0
  7  1  1  0  0  0  0
 11  4  1  0  0  0  0
 13  5  1  0  0  0  0
 15  6  1  0  0  0  0
 16 15  2  0  0  0  0
 17 16  1  0  0  0  0
 18 20  1  0  0  0  0
 18 16  1  0  0  0  0
 19 18  1  0  0  0  0
 20 22  2  0  0  0  0
 21 20  1  0  0  0  0
 22 15  1  0  0  0  0
 23 24  1  0  0  0  0
 23 32  1  0  0  0  0
 24 28  1  0  0  0  0
 25 29  1  0  0  0  0
 25 24  2  0  0  0  0
 26 27  1  0  0  0  0
 26 25  1  0  0  0  0
 27 23  2  0  0  0  0
 30 35  1  0  0  0  0
 31 30  2  0  0  0  0
 31 32  1  0  0  0  0
 32 33  2  0  0  0  0
 33 34  1  0  0  0  0
 34 38  1  0  0  0  0
 35 34  2  0  0  0  0
 36 30  1  0  0  0  0
 37 31  1  0  0  0  0
M  END
>  <minimizedAffinity>
-4.67982531

>  <minimizedRMSD>
1.97117579

$$$$
