REMARK  Name = 
REMARK  3 active torsions:
REMARK  status: ('A' for Active; 'I' for Inactive)
REMARK    1  A    between atoms: C_1  and  C_8
REMARK    2  A    between atoms: N_4  and  C_13
REMARK    3  A    between atoms: C_17  and  C_31
REMARK                            x       y       z     vdW  Elec       q    Type
REMARK                         _______ _______ _______ _____ _____    ______ ____
ROOT
ATOM      1  N   UNL     1      42.349  33.734  39.645  0.00  0.00    +0.000 NA
ATOM      2  C   UNL     1      42.220  33.929  41.092  0.00  0.00    +0.000 C 
ATOM      3  C   UNL     1      41.169  34.919  41.443  0.00  0.00    +0.000 C 
ATOM      4  N   UNL     1      40.330  35.265  40.310  0.00  0.00    +0.000 NA
ATOM      5  C   UNL     1      41.038  35.642  39.139  0.00  0.00    +0.000 C 
ATOM      6  C   UNL     1      42.448  35.109  39.102  0.00  0.00    +0.000 C 
ATOM      7  H   UNL     1      41.563  33.217  39.231  0.00  0.00    +0.000 HD
ATOM      8  H   UNL     1      41.971  32.950  41.531  0.00  0.00    +0.000 HD
ATOM      9  H   UNL     1      40.454  34.483  42.202  0.00  0.00    +0.000 HD
ATOM     10  H   UNL     1      41.510  35.923  41.748  0.00  0.00    +0.000 HD
ATOM     11  H   UNL     1      39.644  34.485  40.163  0.00  0.00    +0.000 HD
ATOM     12  H   UNL     1      41.111  36.745  39.059  0.00  0.00    +0.000 HD
ATOM     13  H   UNL     1      40.485  35.308  38.232  0.00  0.00    +0.000 HD
ATOM     14  H   UNL     1      43.058  35.682  39.809  0.00  0.00    +0.000 HD
ENDROOT
BRANCH   6  15
ATOM     15  C   UNL     1      43.016  35.141  37.754  0.00  0.00    +0.000 A 
ATOM     16  C   UNL     1      42.517  35.590  36.567  0.00  0.00    +0.000 A 
ATOM     17  H   UNL     1      41.541  36.027  36.436  0.00  0.00    +0.000 HD
ATOM     18  N   UNL     1      43.405  35.417  35.570  0.00  0.00    +0.000 N 
ATOM     19  H   UNL     1      43.360  35.642  34.544  0.00  0.00    +0.000 HD
ATOM     20  C   UNL     1      44.479  34.853  36.124  0.00  0.00    +0.000 A 
ATOM     21  H   UNL     1      45.422  34.551  35.650  0.00  0.00    +0.000 HD
ATOM     22  N   UNL     1      44.261  34.680  37.438  0.00  0.00    +0.000 NA
ENDBRANCH   6  15
BRANCH   2  26
ATOM     23  C   UNL     1      45.634  34.621  42.030  0.00  0.00    +0.000 A 
ATOM     24  C   UNL     1      44.901  35.654  42.627  0.00  0.00    +0.000 A 
ATOM     25  C   UNL     1      43.555  35.500  42.347  0.00  0.00    +0.000 A 
ATOM     26  N   UNL     1      43.497  34.401  41.598  0.00  0.00    +0.000 N 
ATOM     27  N   UNL     1      44.707  33.888  41.413  0.00  0.00    +0.000 NA
ATOM     28  H   UNL     1      45.452  36.407  43.204  0.00  0.00    +0.000 HD
ATOM     29  H   UNL     1      42.983  36.294  42.814  0.00  0.00    +0.000 HD
BRANCH  23  32
ATOM     30  C   UNL     1      49.357  35.139  41.975  0.00  0.00    +0.000 A 
ATOM     31  C   UNL     1      47.969  35.459  41.818  0.00  0.00    +0.000 A 
ATOM     32  C   UNL     1      47.083  34.457  42.128  0.00  0.00    +0.000 A 
ATOM     33  N   UNL     1      47.548  33.255  42.554  0.00  0.00    +0.000 NA
ATOM     34  C   UNL     1      48.859  32.975  42.695  0.00  0.00    +0.000 A 
ATOM     35  N   UNL     1      49.741  33.929  42.400  0.00  0.00    +0.000 NA
ATOM     36  H   UNL     1      50.043  35.941  41.725  0.00  0.00    +0.000 HD
ATOM     37  H   UNL     1      47.619  36.411  41.481  0.00  0.00    +0.000 HD
ATOM     38  H   UNL     1      49.121  31.992  43.039  0.00  0.00    +0.000 HD
ENDBRANCH  23  32
ENDBRANCH   2  26
TORSDOF 3
