
 OpenBabel03252509223D

 26 28  0  0  1  0  0  0  0  0999 V2000
   46.4950   34.7340   42.0080 C   0  0  1  0  0  0  0  0  0  0  0  0
   47.9530   35.2620   41.9880 C   0  0  0  0  0  0  0  0  0  0  0  0
   47.5070   33.8040   41.6620 C   0  0  2  0  0  0  0  0  0  0  0  0
   45.8280   35.2550   41.3020 H   0  0  0  0  0  0  0  0  0  0  0  0
   48.1570   35.9070   41.1380 H   0  0  0  0  0  0  0  0  0  0  0  0
   48.4810   35.4190   42.9250 H   0  0  0  0  0  0  0  0  0  0  0  0
   47.8920   33.0660   42.3930 H   0  0  0  0  0  0  0  0  0  0  0  0
   44.5280   35.6060   45.0690 C   0  0  0  0  0  0  0  0  0  0  0  0
   45.0380   35.7030   43.7490 C   0  0  0  0  0  0  0  0  0  0  0  0
   45.9600   34.7400   43.4290 C   0  0  0  0  0  0  0  0  0  0  0  0
   46.3550   33.7620   44.3220 N   0  0  0  0  0  0  0  0  0  0  0  0
   45.8370   33.7200   45.5570 C   0  0  0  0  0  0  0  0  0  0  0  0
   44.9210   34.6390   45.9420 N   0  0  0  0  0  0  0  0  0  0  0  0
   43.8050   36.3180   45.4000 H   0  0  0  0  0  0  0  0  0  0  0  0
   46.1210   32.9720   46.2820 H   0  0  0  0  0  0  0  0  0  0  0  0
   44.6370   36.7240   42.8560 N   0  0  0  0  0  0  0  0  0  0  0  0
   44.2270   36.6920   41.9110 H   0  0  0  0  0  0  0  0  0  0  0  0
   44.8390   37.6220   43.3490 H   0  0  0  0  0  0  0  0  0  0  0  0
   47.6300   33.4220   40.2090 C   0  0  0  0  0  0  0  0  0  0  0  0
   46.6800   33.4610   39.2030 C   0  0  0  0  0  0  0  0  0  0  0  0
   45.6630   33.7920   39.3440 H   0  0  0  0  0  0  0  0  0  0  0  0
   47.2870   33.0140   38.0760 N   0  0  0  0  0  0  0  0  0  0  0  0
   46.8310   32.9260   37.1450 H   0  0  0  0  0  0  0  0  0  0  0  0
   48.5890   32.6960   38.3400 C   0  0  0  0  0  0  0  0  0  0  0  0
   49.3360   32.3130   37.6540 H   0  0  0  0  0  0  0  0  0  0  0  0
   48.7620   32.9570   39.6520 N   0  0  0  0  0  0  0  0  0  0  0  0
  1  4  1  6  0  0  0
  1 10  1  0  0  0  0
  2  1  1  0  0  0  0
  2  6  1  0  0  0  0
  3  2  1  0  0  0  0
  3  1  1  0  0  0  0
  3  7  1  1  0  0  0
  5  2  1  0  0  0  0
  8 14  1  0  0  0  0
  8 13  1  0  0  0  0
  9  8  2  0  0  0  0
 10  9  1  0  0  0  0
 10 11  2  0  0  0  0
 11 12  1  0  0  0  0
 12 13  2  0  0  0  0
 12 15  1  0  0  0  0
 16 18  1  0  0  0  0
 16  9  1  0  0  0  0
 17 16  1  0  0  0  0
 19  3  1  0  0  0  0
 20 21  1  0  0  0  0
 20 19  2  0  0  0  0
 22 24  1  0  0  0  0
 22 20  1  0  0  0  0
 23 22  1  0  0  0  0
 24 26  2  0  0  0  0
 25 24  1  0  0  0  0
 26 19  1  0  0  0  0
M  END
>  <minimizedAffinity>
-4.52518654

>  <minimizedRMSD>
0.483449966

$$$$
