
 OpenBabel03252509233D

 26 28  0  0  1  0  0  0  0  0999 V2000
   46.6780   34.7640   42.0040 C   0  0  1  0  0  0  0  0  0  0  0  0
   48.1060   35.3680   42.0460 C   0  0  0  0  0  0  0  0  0  0  0  0
   47.7520   33.8860   41.7150 C   0  0  2  0  0  0  0  0  0  0  0  0
   46.0170   35.2440   41.2640 H   0  0  0  0  0  0  0  0  0  0  0  0
   48.3140   36.0160   41.2000 H   0  0  0  0  0  0  0  0  0  0  0  0
   48.5810   35.5590   43.0040 H   0  0  0  0  0  0  0  0  0  0  0  0
   48.1410   33.1740   42.4700 H   0  0  0  0  0  0  0  0  0  0  0  0
   44.5510   35.5790   44.9730 C   0  0  0  0  0  0  0  0  0  0  0  0
   45.1180   35.6920   43.6780 C   0  0  0  0  0  0  0  0  0  0  0  0
   46.0780   34.7540   43.4000 C   0  0  0  0  0  0  0  0  0  0  0  0
   46.4570   33.7840   44.3080 N   0  0  0  0  0  0  0  0  0  0  0  0
   45.8840   33.7260   45.5190 C   0  0  0  0  0  0  0  0  0  0  0  0
   44.9280   34.6190   45.8630 N   0  0  0  0  0  0  0  0  0  0  0  0
   43.7950   36.2710   45.2720 H   0  0  0  0  0  0  0  0  0  0  0  0
   46.1530   32.9830   46.2550 H   0  0  0  0  0  0  0  0  0  0  0  0
   44.7330   36.7040   42.7690 N   0  0  0  0  0  0  0  0  0  0  0  0
   44.3670   36.6640   41.8060 H   0  0  0  0  0  0  0  0  0  0  0  0
   44.8890   37.6060   43.2720 H   0  0  0  0  0  0  0  0  0  0  0  0
   47.9610   33.4990   40.2730 C   0  0  0  0  0  0  0  0  0  0  0  0
   48.9410   32.7050   39.7060 C   0  0  0  0  0  0  0  0  0  0  0  0
   49.7340   32.2310   40.2650 H   0  0  0  0  0  0  0  0  0  0  0  0
   48.6920   32.6650   38.3750 N   0  0  0  0  0  0  0  0  0  0  0  0
   49.2570   32.1460   37.6730 H   0  0  0  0  0  0  0  0  0  0  0  0
   47.5830   33.4100   38.0840 C   0  0  0  0  0  0  0  0  0  0  0  0
   47.1250   33.5780   37.1160 H   0  0  0  0  0  0  0  0  0  0  0  0
   47.1630   33.9040   39.2670 N   0  0  0  0  0  0  0  0  0  0  0  0
  1  4  1  6  0  0  0
  1  2  1  0  0  0  0
  1 10  1  0  0  0  0
  2  6  1  0  0  0  0
  3  1  1  0  0  0  0
  3  2  1  0  0  0  0
  3  7  1  1  0  0  0
  5  2  1  0  0  0  0
  8 14  1  0  0  0  0
  8 13  1  0  0  0  0
  9  8  2  0  0  0  0
 10  9  1  0  0  0  0
 10 11  2  0  0  0  0
 11 12  1  0  0  0  0
 12 13  2  0  0  0  0
 12 15  1  0  0  0  0
 16 18  1  0  0  0  0
 16  9  1  0  0  0  0
 17 16  1  0  0  0  0
 19  3  1  0  0  0  0
 20 21  1  0  0  0  0
 20 19  2  0  0  0  0
 22 20  1  0  0  0  0
 23 22  1  0  0  0  0
 24 22  1  0  0  0  0
 24 26  2  0  0  0  0
 25 24  1  0  0  0  0
 26 19  1  0  0  0  0
M  END
>  <minimizedAffinity>
-4.55519485

>  <minimizedRMSD>
0.628554165

$$$$
