
 OpenBabel03242523433D

 23 24  0  0  1  0  0  0  0  0999 V2000
   36.9290   27.3800   42.2100 C   0  0  2  0  0  0  0  0  0  0  0  0
   36.5270   26.4910   41.6840 H   0  0  0  0  0  0  0  0  0  0  0  0
   39.0780   27.4450   43.3840 C   0  0  0  0  0  0  0  0  0  0  0  0
   38.3940   27.3370   42.1630 C   0  0  0  0  0  0  0  0  0  0  0  0
   39.1640   27.1960   40.9800 C   0  0  0  0  0  0  0  0  0  0  0  0
   40.5000   27.1810   41.1290 N   0  0  0  0  0  0  0  0  0  0  0  0
   41.1140   27.2870   42.3080 C   0  0  0  0  0  0  0  0  0  0  0  0
   40.4160   27.4200   43.4420 N   0  0  0  0  0  0  0  0  0  0  0  0
   38.5400   27.5560   44.3330 H   0  0  0  0  0  0  0  0  0  0  0  0
   38.6110   27.1150   40.0530 H   0  0  0  0  0  0  0  0  0  0  0  0
   42.2040   27.2520   42.2250 H   0  0  0  0  0  0  0  0  0  0  0  0
   36.4710   28.6440   41.5820 C   0  0  0  0  0  0  0  0  0  0  0  0
   35.4750   28.8610   40.6530 C   0  0  0  0  0  0  0  0  0  0  0  0
   34.8480   28.0990   40.2210 H   0  0  0  0  0  0  0  0  0  0  0  0
   35.3840   30.1810   40.3430 N   0  0  0  0  0  0  0  0  0  0  0  0
   34.7160   30.6160   39.6700 H   0  0  0  0  0  0  0  0  0  0  0  0
   36.3360   30.7890   41.0910 C   0  0  0  0  0  0  0  0  0  0  0  0
   36.4570   31.8750   41.0120 H   0  0  0  0  0  0  0  0  0  0  0  0
   36.9880   29.8620   41.8350 N   0  0  0  0  0  0  0  0  0  0  0  0
   36.5220   27.3920   43.6680 C   0  0  0  0  0  0  0  0  0  0  0  0
   36.9000   26.5290   44.2280 H   0  0  0  0  0  0  0  0  0  0  0  0
   36.8160   28.3600   44.1090 H   0  0  0  0  0  0  0  0  0  0  0  0
   35.3980   27.2970   43.6450 H   0  0  0  0  0  0  0  0  0  0  0  0
  1  2  1  6  0  0  0
  1 20  1  0  0  0  0
  3  8  1  0  0  0  0
  3  9  1  0  0  0  0
  4  1  1  0  0  0  0
  4  3  2  0  0  0  0
  5  6  2  0  0  0  0
  5  4  1  0  0  0  0
  6  7  1  0  0  0  0
  7  8  2  0  0  0  0
 10  5  1  0  0  0  0
 11  7  1  0  0  0  0
 12 19  1  0  0  0  0
 12  1  1  0  0  0  0
 13 12  2  0  0  0  0
 14 13  1  0  0  0  0
 15 13  1  0  0  0  0
 15 17  1  0  0  0  0
 16 15  1  0  0  0  0
 17 19  2  0  0  0  0
 18 17  1  0  0  0  0
 20 22  1  0  0  0  0
 20 21  1  0  0  0  0
 23 20  1  0  0  0  0
M  END
>  <minimizedAffinity>
-4.0997982

$$$$

 OpenBabel03242523433D

 23 24  0  0  1  0  0  0  0  0999 V2000
   36.2380   29.2780   39.6030 C   0  0  2  0  0  0  0  0  0  0  0  0
   36.4690   28.8350   38.6120 H   0  0  0  0  0  0  0  0  0  0  0  0
   36.2670   28.0990   41.7490 C   0  0  0  0  0  0  0  0  0  0  0  0
   36.9870   28.5520   40.6330 C   0  0  0  0  0  0  0  0  0  0  0  0
   38.3790   28.2780   40.5830 C   0  0  0  0  0  0  0  0  0  0  0  0
   38.8970   27.6030   41.6230 N   0  0  0  0  0  0  0  0  0  0  0  0
   38.1790   27.1880   42.6680 C   0  0  0  0  0  0  0  0  0  0  0  0
   36.8640   27.4290   42.7440 N   0  0  0  0  0  0  0  0  0  0  0  0
   35.1900   28.2790   41.8460 H   0  0  0  0  0  0  0  0  0  0  0  0
   38.9080   28.6390   39.7120 H   0  0  0  0  0  0  0  0  0  0  0  0
   38.7780   26.6540   43.4120 H   0  0  0  0  0  0  0  0  0  0  0  0
   36.6140   30.7120   39.6640 C   0  0  0  0  0  0  0  0  0  0  0  0
   36.6620   31.5690   40.7420 C   0  0  0  0  0  0  0  0  0  0  0  0
   36.4190   31.3080   41.7590 H   0  0  0  0  0  0  0  0  0  0  0  0
   37.0610   32.8100   40.3540 N   0  0  0  0  0  0  0  0  0  0  0  0
   37.1810   33.6440   40.9700 H   0  0  0  0  0  0  0  0  0  0  0  0
   37.2630   32.7170   39.0180 C   0  0  0  0  0  0  0  0  0  0  0  0
   37.5940   33.6070   38.4700 H   0  0  0  0  0  0  0  0  0  0  0  0
   36.9930   31.4550   38.6050 N   0  0  0  0  0  0  0  0  0  0  0  0
   34.7670   29.1500   39.9360 C   0  0  0  0  0  0  0  0  0  0  0  0
   34.4280   28.1110   39.9980 H   0  0  0  0  0  0  0  0  0  0  0  0
   34.5620   29.7320   40.8520 H   0  0  0  0  0  0  0  0  0  0  0  0
   34.2390   29.6120   39.0520 H   0  0  0  0  0  0  0  0  0  0  0  0
  1  2  1  6  0  0  0
  1 12  1  0  0  0  0
  1 20  1  0  0  0  0
  1  4  1  0  0  0  0
  3  9  1  0  0  0  0
  3  8  1  0  0  0  0
  4  3  2  0  0  0  0
  5  4  1  0  0  0  0
  5  6  2  0  0  0  0
  6  7  1  0  0  0  0
  7  8  2  0  0  0  0
  7 11  1  0  0  0  0
 10  5  1  0  0  0  0
 12 13  2  0  0  0  0
 13 14  1  0  0  0  0
 15 13  1  0  0  0  0
 15 16  1  0  0  0  0
 17 15  1  0  0  0  0
 18 17  1  0  0  0  0
 19 17  2  0  0  0  0
 19 12  1  0  0  0  0
 20 21  1  0  0  0  0
 20 22  1  0  0  0  0
 23 20  1  0  0  0  0
M  END
>  <minimizedAffinity>
-4.06326246

$$$$

 OpenBabel03242523433D

 23 24  0  0  1  0  0  0  0  0999 V2000
   36.1710   29.2550   39.6000 C   0  0  2  0  0  0  0  0  0  0  0  0
   36.4020   28.8260   38.6030 H   0  0  0  0  0  0  0  0  0  0  0  0
   38.2280   28.1560   40.3450 C   0  0  0  0  0  0  0  0  0  0  0  0
   36.8950   28.4960   40.6230 C   0  0  0  0  0  0  0  0  0  0  0  0
   36.3500   28.0830   41.8660 C   0  0  0  0  0  0  0  0  0  0  0  0
   37.1630   27.3900   42.6810 N   0  0  0  0  0  0  0  0  0  0  0  0
   38.4270   27.0850   42.3810 C   0  0  0  0  0  0  0  0  0  0  0  0
   38.9710   27.4610   41.2170 N   0  0  0  0  0  0  0  0  0  0  0  0
   38.7080   28.4460   39.4030 H   0  0  0  0  0  0  0  0  0  0  0  0
   35.3210   28.3600   42.0550 H   0  0  0  0  0  0  0  0  0  0  0  0
   38.9270   26.5180   43.1710 H   0  0  0  0  0  0  0  0  0  0  0  0
   36.5740   30.6800   39.6900 C   0  0  0  0  0  0  0  0  0  0  0  0
   36.6630   31.5070   40.7900 C   0  0  0  0  0  0  0  0  0  0  0  0
   36.4380   31.2230   41.8050 H   0  0  0  0  0  0  0  0  0  0  0  0
   37.0760   32.7500   40.4260 N   0  0  0  0  0  0  0  0  0  0  0  0
   37.2250   33.5650   41.0610 H   0  0  0  0  0  0  0  0  0  0  0  0
   37.2450   32.6900   39.0840 C   0  0  0  0  0  0  0  0  0  0  0  0
   37.5800   33.5890   38.5520 H   0  0  0  0  0  0  0  0  0  0  0  0
   36.9430   31.4440   38.6440 N   0  0  0  0  0  0  0  0  0  0  0  0
   34.6940   29.1510   39.9180 C   0  0  0  0  0  0  0  0  0  0  0  0
   34.3340   28.1180   39.9580 H   0  0  0  0  0  0  0  0  0  0  0  0
   34.4920   29.7200   40.8430 H   0  0  0  0  0  0  0  0  0  0  0  0
   34.1830   29.6390   39.0380 H   0  0  0  0  0  0  0  0  0  0  0  0
  1  2  1  6  0  0  0
  1 12  1  0  0  0  0
  1 20  1  0  0  0  0
  1  4  1  0  0  0  0
  3  4  2  0  0  0  0
  3  8  1  0  0  0  0
  4  5  1  0  0  0  0
  5 10  1  0  0  0  0
  5  6  2  0  0  0  0
  7  6  1  0  0  0  0
  7 11  1  0  0  0  0
  8  7  2  0  0  0  0
  9  3  1  0  0  0  0
 12 13  2  0  0  0  0
 13 14  1  0  0  0  0
 15 13  1  0  0  0  0
 15 16  1  0  0  0  0
 17 15  1  0  0  0  0
 18 17  1  0  0  0  0
 19 17  2  0  0  0  0
 19 12  1  0  0  0  0
 20 21  1  0  0  0  0
 20 22  1  0  0  0  0
 23 20  1  0  0  0  0
M  END
>  <minimizedAffinity>
-4.02602196

$$$$

 OpenBabel03242523433D

 23 24  0  0  1  0  0  0  0  0999 V2000
   36.8300   27.5770   42.7010 C   0  0  2  0  0  0  0  0  0  0  0  0
   35.9630   27.1280   43.2270 H   0  0  0  0  0  0  0  0  0  0  0  0
   37.0230   25.2320   42.0240 C   0  0  0  0  0  0  0  0  0  0  0  0
   37.4500   26.5570   41.8500 C   0  0  0  0  0  0  0  0  0  0  0  0
   38.4450   26.8120   40.8700 C   0  0  0  0  0  0  0  0  0  0  0  0
   38.9020   25.7500   40.1850 N   0  0  0  0  0  0  0  0  0  0  0  0
   38.4710   24.5030   40.3800 C   0  0  0  0  0  0  0  0  0  0  0  0
   37.5340   24.2290   41.2950 N   0  0  0  0  0  0  0  0  0  0  0  0
   36.2580   24.9700   42.7640 H   0  0  0  0  0  0  0  0  0  0  0  0
   38.7540   27.8430   40.7570 H   0  0  0  0  0  0  0  0  0  0  0  0
   38.9620   23.7760   39.7260 H   0  0  0  0  0  0  0  0  0  0  0  0
   36.4230   28.7220   41.8490 C   0  0  0  0  0  0  0  0  0  0  0  0
   35.4500   28.7990   40.8760 C   0  0  0  0  0  0  0  0  0  0  0  0
   34.8050   27.9910   40.5710 H   0  0  0  0  0  0  0  0  0  0  0  0
   35.4060   30.0460   40.3360 N   0  0  0  0  0  0  0  0  0  0  0  0
   34.7630   30.3730   39.5810 H   0  0  0  0  0  0  0  0  0  0  0  0
   36.3640   30.7490   40.9850 C   0  0  0  0  0  0  0  0  0  0  0  0
   36.5220   31.8010   40.7180 H   0  0  0  0  0  0  0  0  0  0  0  0
   36.9740   29.9510   41.8950 N   0  0  0  0  0  0  0  0  0  0  0  0
   37.8840   28.0540   43.6780 C   0  0  0  0  0  0  0  0  0  0  0  0
   38.3030   27.2470   44.2880 H   0  0  0  0  0  0  0  0  0  0  0  0
   38.6490   28.6230   43.1220 H   0  0  0  0  0  0  0  0  0  0  0  0
   37.3240   28.7360   44.3820 H   0  0  0  0  0  0  0  0  0  0  0  0
  1  2  1  1  0  0  0
  1 20  1  0  0  0  0
  3  9  1  0  0  0  0
  4  3  1  0  0  0  0
  4  1  1  0  0  0  0
  5  4  2  0  0  0  0
  6  7  2  0  0  0  0
  6  5  1  0  0  0  0
  7  8  1  0  0  0  0
  8  3  2  0  0  0  0
 10  5  1  0  0  0  0
 11  7  1  0  0  0  0
 12 19  1  0  0  0  0
 12  1  1  0  0  0  0
 13 12  2  0  0  0  0
 14 13  1  0  0  0  0
 15 13  1  0  0  0  0
 15 17  1  0  0  0  0
 16 15  1  0  0  0  0
 17 19  2  0  0  0  0
 18 17  1  0  0  0  0
 20 21  1  0  0  0  0
 20 23  1  0  0  0  0
 22 20  1  0  0  0  0
M  END
>  <minimizedAffinity>
-3.98581457

$$$$

 OpenBabel03242523433D

 23 24  0  0  1  0  0  0  0  0999 V2000
   37.2810   32.1730   38.6840 C   0  0  2  0  0  0  0  0  0  0  0  0
   36.6380   33.0600   38.5120 H   0  0  0  0  0  0  0  0  0  0  0  0
   39.6080   31.7220   39.2990 C   0  0  0  0  0  0  0  0  0  0  0  0
   38.5160   32.6020   39.3460 C   0  0  0  0  0  0  0  0  0  0  0  0
   38.6860   33.8360   40.0260 C   0  0  0  0  0  0  0  0  0  0  0  0
   39.8900   34.0590   40.5780 N   0  0  0  0  0  0  0  0  0  0  0  0
   40.9060   33.1960   40.5130 C   0  0  0  0  0  0  0  0  0  0  0  0
   40.7780   32.0250   39.8780 N   0  0  0  0  0  0  0  0  0  0  0  0
   39.5410   30.7540   38.7880 H   0  0  0  0  0  0  0  0  0  0  0  0
   37.8280   34.4950   40.0460 H   0  0  0  0  0  0  0  0  0  0  0  0
   41.8040   33.5570   41.0210 H   0  0  0  0  0  0  0  0  0  0  0  0
   36.6090   31.1650   39.5410 C   0  0  0  0  0  0  0  0  0  0  0  0
   36.3630   31.1790   40.8970 C   0  0  0  0  0  0  0  0  0  0  0  0
   36.6410   31.9700   41.5740 H   0  0  0  0  0  0  0  0  0  0  0  0
   35.7160   30.0470   41.2820 N   0  0  0  0  0  0  0  0  0  0  0  0
   35.4130   29.8040   42.2500 H   0  0  0  0  0  0  0  0  0  0  0  0
   35.5590   29.3240   40.1470 C   0  0  0  0  0  0  0  0  0  0  0  0
   35.0540   28.3530   40.2040 H   0  0  0  0  0  0  0  0  0  0  0  0
   36.0960   29.9990   39.1010 N   0  0  0  0  0  0  0  0  0  0  0  0
   37.6710   31.5120   37.3790 C   0  0  0  0  0  0  0  0  0  0  0  0
   38.2520   32.1670   36.7210 H   0  0  0  0  0  0  0  0  0  0  0  0
   38.1800   30.5580   37.6050 H   0  0  0  0  0  0  0  0  0  0  0  0
   36.6890   31.3180   36.8580 H   0  0  0  0  0  0  0  0  0  0  0  0
  1  2  1  6  0  0  0
  1  4  1  0  0  0  0
  1 12  1  0  0  0  0
  3  4  2  0  0  0  0
  3  8  1  0  0  0  0
  4  5  1  0  0  0  0
  5 10  1  0  0  0  0
  5  6  2  0  0  0  0
  7  6  1  0  0  0  0
  7 11  1  0  0  0  0
  8  7  2  0  0  0  0
  9  3  1  0  0  0  0
 12 13  2  0  0  0  0
 13 15  1  0  0  0  0
 13 14  1  0  0  0  0
 15 16  1  0  0  0  0
 17 18  1  0  0  0  0
 17 15  1  0  0  0  0
 19 12  1  0  0  0  0
 19 17  2  0  0  0  0
 20 22  1  0  0  0  0
 20  1  1  0  0  0  0
 21 20  1  0  0  0  0
 23 20  1  0  0  0  0
M  END
>  <minimizedAffinity>
-3.97437072

$$$$

 OpenBabel03242523433D

 23 24  0  0  1  0  0  0  0  0999 V2000
   38.7370   29.9940   40.1550 C   0  0  2  0  0  0  0  0  0  0  0  0
   39.8420   29.9030   40.1890 H   0  0  0  0  0  0  0  0  0  0  0  0
   37.2750   28.2460   41.0500 C   0  0  0  0  0  0  0  0  0  0  0  0
   38.1660   29.2980   41.3110 C   0  0  0  0  0  0  0  0  0  0  0  0
   38.4480   29.6100   42.6670 C   0  0  0  0  0  0  0  0  0  0  0  0
   37.8290   28.8650   43.5980 N   0  0  0  0  0  0  0  0  0  0  0  0
   36.9850   27.8720   43.3100 C   0  0  0  0  0  0  0  0  0  0  0  0
   36.7000   27.5520   42.0420 N   0  0  0  0  0  0  0  0  0  0  0  0
   37.0170   27.9560   40.0260 H   0  0  0  0  0  0  0  0  0  0  0  0
   39.1390   30.4250   42.8380 H   0  0  0  0  0  0  0  0  0  0  0  0
   36.5830   27.3830   44.2020 H   0  0  0  0  0  0  0  0  0  0  0  0
   38.3020   31.4120   40.1920 C   0  0  0  0  0  0  0  0  0  0  0  0
   37.0430   31.9560   40.0530 C   0  0  0  0  0  0  0  0  0  0  0  0
   36.1370   31.3980   39.8860 H   0  0  0  0  0  0  0  0  0  0  0  0
   37.0890   33.3110   40.1530 N   0  0  0  0  0  0  0  0  0  0  0  0
   36.2800   33.9660   40.0840 H   0  0  0  0  0  0  0  0  0  0  0  0
   38.3950   33.6090   40.3570 C   0  0  0  0  0  0  0  0  0  0  0  0
   38.6870   34.6590   40.4700 H   0  0  0  0  0  0  0  0  0  0  0  0
   39.1220   32.4650   40.3800 N   0  0  0  0  0  0  0  0  0  0  0  0
   38.1680   29.3480   38.9100 C   0  0  0  0  0  0  0  0  0  0  0  0
   38.3710   28.2730   38.8510 H   0  0  0  0  0  0  0  0  0  0  0  0
   37.0930   29.5930   38.8450 H   0  0  0  0  0  0  0  0  0  0  0  0
   38.7310   29.8320   38.0600 H   0  0  0  0  0  0  0  0  0  0  0  0
  1  2  1  1  0  0  0
  1 12  1  0  0  0  0
  1  4  1  0  0  0  0
  3  4  2  0  0  0  0
  3  8  1  0  0  0  0
  4  5  1  0  0  0  0
  5 10  1  0  0  0  0
  5  6  2  0  0  0  0
  7  6  1  0  0  0  0
  7 11  1  0  0  0  0
  8  7  2  0  0  0  0
  9  3  1  0  0  0  0
 12 19  1  0  0  0  0
 13 15  1  0  0  0  0
 13 12  2  0  0  0  0
 14 13  1  0  0  0  0
 15 17  1  0  0  0  0
 16 15  1  0  0  0  0
 17 19  2  0  0  0  0
 17 18  1  0  0  0  0
 20  1  1  0  0  0  0
 21 20  1  0  0  0  0
 22 20  1  0  0  0  0
 23 20  1  0  0  0  0
M  END
>  <minimizedAffinity>
-3.91924524

$$$$

 OpenBabel03242523433D

 23 24  0  0  1  0  0  0  0  0999 V2000
   37.9150   27.8080   43.6790 C   0  0  2  0  0  0  0  0  0  0  0  0
   38.2490   28.0980   44.6970 H   0  0  0  0  0  0  0  0  0  0  0  0
   36.9520   29.3160   42.0070 C   0  0  0  0  0  0  0  0  0  0  0  0
   38.0650   28.9600   42.7850 C   0  0  0  0  0  0  0  0  0  0  0  0
   39.2460   29.7350   42.6500 C   0  0  0  0  0  0  0  0  0  0  0  0
   39.2010   30.7550   41.7760 N   0  0  0  0  0  0  0  0  0  0  0  0
   38.1220   31.0630   41.0530 C   0  0  0  0  0  0  0  0  0  0  0  0
   36.9930   30.3530   41.1580 N   0  0  0  0  0  0  0  0  0  0  0  0
   36.0110   28.7580   42.0670 H   0  0  0  0  0  0  0  0  0  0  0  0
   40.0880   29.4380   43.2610 H   0  0  0  0  0  0  0  0  0  0  0  0
   38.2800   31.9260   40.4000 H   0  0  0  0  0  0  0  0  0  0  0  0
   38.7150   26.6810   43.1390 C   0  0  0  0  0  0  0  0  0  0  0  0
   38.4950   25.8900   42.0320 C   0  0  0  0  0  0  0  0  0  0  0  0
   37.6590   25.9780   41.3580 H   0  0  0  0  0  0  0  0  0  0  0  0
   39.4810   24.9640   41.8970 N   0  0  0  0  0  0  0  0  0  0  0  0
   39.5570   24.2430   41.1470 H   0  0  0  0  0  0  0  0  0  0  0  0
   40.3230   25.1880   42.9340 C   0  0  0  0  0  0  0  0  0  0  0  0
   41.2120   24.5540   43.0400 H   0  0  0  0  0  0  0  0  0  0  0  0
   39.8600   26.2210   43.6800 N   0  0  0  0  0  0  0  0  0  0  0  0
   36.4540   27.4120   43.6680 C   0  0  0  0  0  0  0  0  0  0  0  0
   35.7850   28.2230   43.9710 H   0  0  0  0  0  0  0  0  0  0  0  0
   36.2100   26.9930   42.6760 H   0  0  0  0  0  0  0  0  0  0  0  0
   36.3750   26.6120   44.4610 H   0  0  0  0  0  0  0  0  0  0  0  0
  1  2  1  1  0  0  0
  3  9  1  0  0  0  0
  3  4  1  0  0  0  0
  4  1  1  0  0  0  0
  5  4  2  0  0  0  0
  5 10  1  0  0  0  0
  6  5  1  0  0  0  0
  7  8  1  0  0  0  0
  7  6  2  0  0  0  0
  8  3  2  0  0  0  0
 11  7  1  0  0  0  0
 12  1  1  0  0  0  0
 12 19  1  0  0  0  0
 13 12  2  0  0  0  0
 14 13  1  0  0  0  0
 15 13  1  0  0  0  0
 15 17  1  0  0  0  0
 16 15  1  0  0  0  0
 17 18  1  0  0  0  0
 17 19  2  0  0  0  0
 20  1  1  0  0  0  0
 20 21  1  0  0  0  0
 20 23  1  0  0  0  0
 22 20  1  0  0  0  0
M  END
>  <minimizedAffinity>
-3.91643095

$$$$

 OpenBabel03242523433D

 23 24  0  0  1  0  0  0  0  0999 V2000
   38.5690   29.2340   42.9550 C   0  0  2  0  0  0  0  0  0  0  0  0
   38.3280   29.2690   44.0370 H   0  0  0  0  0  0  0  0  0  0  0  0
   39.2550   26.9970   43.6780 C   0  0  0  0  0  0  0  0  0  0  0  0
   39.2290   27.9600   42.6570 C   0  0  0  0  0  0  0  0  0  0  0  0
   39.8410   27.6330   41.4190 C   0  0  0  0  0  0  0  0  0  0  0  0
   40.4030   26.4160   41.3270 N   0  0  0  0  0  0  0  0  0  0  0  0
   40.4080   25.5260   42.3220 C   0  0  0  0  0  0  0  0  0  0  0  0
   39.8390   25.8040   43.5010 N   0  0  0  0  0  0  0  0  0  0  0  0
   38.8000   27.1890   44.6560 H   0  0  0  0  0  0  0  0  0  0  0  0
   39.8050   28.3930   40.6500 H   0  0  0  0  0  0  0  0  0  0  0  0
   40.9130   24.5930   42.0560 H   0  0  0  0  0  0  0  0  0  0  0  0
   37.3490   29.3440   42.1170 C   0  0  0  0  0  0  0  0  0  0  0  0
   36.7790   30.4500   41.5240 C   0  0  0  0  0  0  0  0  0  0  0  0
   37.1580   31.4570   41.5850 H   0  0  0  0  0  0  0  0  0  0  0  0
   35.6570   30.1050   40.8390 N   0  0  0  0  0  0  0  0  0  0  0  0
   35.0360   30.7490   40.3010 H   0  0  0  0  0  0  0  0  0  0  0  0
   35.5310   28.7670   41.0110 C   0  0  0  0  0  0  0  0  0  0  0  0
   34.6850   28.2510   40.5440 H   0  0  0  0  0  0  0  0  0  0  0  0
   36.5500   28.3120   41.7800 N   0  0  0  0  0  0  0  0  0  0  0  0
   39.5230   30.3420   42.5640 C   0  0  0  0  0  0  0  0  0  0  0  0
   40.4890   30.2810   43.0770 H   0  0  0  0  0  0  0  0  0  0  0  0
   39.6140   30.3580   41.4640 H   0  0  0  0  0  0  0  0  0  0  0  0
   39.0210   31.2850   42.9290 H   0  0  0  0  0  0  0  0  0  0  0  0
  1  2  1  1  0  0  0
  3  9  1  0  0  0  0
  4  1  1  0  0  0  0
  4  3  2  0  0  0  0
  5  4  1  0  0  0  0
  6  5  2  0  0  0  0
  6  7  1  0  0  0  0
  7  8  2  0  0  0  0
  8  3  1  0  0  0  0
 10  5  1  0  0  0  0
 11  7  1  0  0  0  0
 12  1  1  0  0  0  0
 13 14  1  0  0  0  0
 13 12  2  0  0  0  0
 15 17  1  0  0  0  0
 15 13  1  0  0  0  0
 16 15  1  0  0  0  0
 17 19  2  0  0  0  0
 18 17  1  0  0  0  0
 19 12  1  0  0  0  0
 20 23  1  0  0  0  0
 20  1  1  0  0  0  0
 20 21  1  0  0  0  0
 22 20  1  0  0  0  0
M  END
>  <minimizedAffinity>
-3.89243722

$$$$

 OpenBabel03242523433D

 23 24  0  0  1  0  0  0  0  0999 V2000
   36.8780   31.9300   39.8420 C   0  0  2  0  0  0  0  0  0  0  0  0
   35.8090   31.9890   40.1350 H   0  0  0  0  0  0  0  0  0  0  0  0
   36.8970   30.1920   41.5670 C   0  0  0  0  0  0  0  0  0  0  0  0
   37.6100   31.1760   40.8630 C   0  0  0  0  0  0  0  0  0  0  0  0
   38.9780   31.3670   41.1900 C   0  0  0  0  0  0  0  0  0  0  0  0
   39.4810   30.5840   42.1590 N   0  0  0  0  0  0  0  0  0  0  0  0
   38.7710   29.6590   42.8060 C   0  0  0  0  0  0  0  0  0  0  0  0
   37.4800   29.4530   42.5210 N   0  0  0  0  0  0  0  0  0  0  0  0
   35.8390   29.9960   41.3610 H   0  0  0  0  0  0  0  0  0  0  0  0
   39.5020   32.1310   40.6310 H   0  0  0  0  0  0  0  0  0  0  0  0
   39.3560   29.1230   43.5590 H   0  0  0  0  0  0  0  0  0  0  0  0
   37.0520   31.2520   38.5340 C   0  0  0  0  0  0  0  0  0  0  0  0
   37.9230   31.5290   37.5020 C   0  0  0  0  0  0  0  0  0  0  0  0
   38.6470   32.3270   37.4930 H   0  0  0  0  0  0  0  0  0  0  0  0
   37.7490   30.6540   36.4760 N   0  0  0  0  0  0  0  0  0  0  0  0
   38.2770   30.6410   35.5760 H   0  0  0  0  0  0  0  0  0  0  0  0
   36.7570   29.8250   36.8800 C   0  0  0  0  0  0  0  0  0  0  0  0
   36.4340   29.0210   36.2090 H   0  0  0  0  0  0  0  0  0  0  0  0
   36.3400   30.1860   38.1180 N   0  0  0  0  0  0  0  0  0  0  0  0
   37.5040   33.3060   39.7590 C   0  0  0  0  0  0  0  0  0  0  0  0
   37.4950   33.8420   40.7140 H   0  0  0  0  0  0  0  0  0  0  0  0
   38.5130   33.2080   39.3230 H   0  0  0  0  0  0  0  0  0  0  0  0
   36.8290   33.8790   39.0590 H   0  0  0  0  0  0  0  0  0  0  0  0
  1  2  1  1  0  0  0
  1  4  1  0  0  0  0
  3  8  1  0  0  0  0
  4  5  1  0  0  0  0
  4  3  2  0  0  0  0
  5  6  2  0  0  0  0
  6  7  1  0  0  0  0
  7 11  1  0  0  0  0
  8  7  2  0  0  0  0
  9  3  1  0  0  0  0
 10  5  1  0  0  0  0
 12  1  1  0  0  0  0
 13 12  2  0  0  0  0
 14 13  1  0  0  0  0
 15 17  1  0  0  0  0
 15 13  1  0  0  0  0
 16 15  1  0  0  0  0
 17 19  2  0  0  0  0
 18 17  1  0  0  0  0
 19 12  1  0  0  0  0
 20  1  1  0  0  0  0
 20 21  1  0  0  0  0
 22 20  1  0  0  0  0
 23 20  1  0  0  0  0
M  END
>  <minimizedAffinity>
-3.87686992

$$$$
