
 OpenBabel03252509223D

 26 28  0  0  1  0  0  0  0  0999 V2000
   46.4700   34.9750   41.9190 C   0  0  1  0  0  0  0  0  0  0  0  0
   47.9990   35.2330   41.8690 C   0  0  0  0  0  0  0  0  0  0  0  0
   47.2690   33.9670   41.3240 C   0  0  2  0  0  0  0  0  0  0  0  0
   45.8780   35.7320   41.3800 H   0  0  0  0  0  0  0  0  0  0  0  0
   48.2760   35.9850   41.1370 H   0  0  0  0  0  0  0  0  0  0  0  0
   48.5940   35.1090   42.7700 H   0  0  0  0  0  0  0  0  0  0  0  0
   47.5450   33.0450   41.8730 H   0  0  0  0  0  0  0  0  0  0  0  0
   44.6700   35.4270   45.1680 C   0  0  0  0  0  0  0  0  0  0  0  0
   45.0990   35.6930   43.8420 C   0  0  0  0  0  0  0  0  0  0  0  0
   46.0190   34.7990   43.3580 C   0  0  0  0  0  0  0  0  0  0  0  0
   46.4870   33.7340   44.1040 N   0  0  0  0  0  0  0  0  0  0  0  0
   46.0430   33.5330   45.3530 C   0  0  0  0  0  0  0  0  0  0  0  0
   45.1330   34.3740   45.8960 N   0  0  0  0  0  0  0  0  0  0  0  0
   43.9520   36.0740   45.6210 H   0  0  0  0  0  0  0  0  0  0  0  0
   46.3850   32.7120   45.9670 H   0  0  0  0  0  0  0  0  0  0  0  0
   44.6250   36.8000   43.1010 N   0  0  0  0  0  0  0  0  0  0  0  0
   44.1610   36.8690   42.1830 H   0  0  0  0  0  0  0  0  0  0  0  0
   44.8370   37.6390   43.6860 H   0  0  0  0  0  0  0  0  0  0  0  0
   47.2420   33.8590   39.8210 C   0  0  0  0  0  0  0  0  0  0  0  0
   48.1470   34.3300   38.8850 C   0  0  0  0  0  0  0  0  0  0  0  0
   49.0470   34.8720   39.1350 H   0  0  0  0  0  0  0  0  0  0  0  0
   47.6710   33.9770   37.6680 N   0  0  0  0  0  0  0  0  0  0  0  0
   48.1310   34.1900   36.7590 H   0  0  0  0  0  0  0  0  0  0  0  0
   46.4940   33.2970   37.8050 C   0  0  0  0  0  0  0  0  0  0  0  0
   45.8650   32.8820   37.0240 H   0  0  0  0  0  0  0  0  0  0  0  0
   46.2640   33.2450   39.1330 N   0  0  0  0  0  0  0  0  0  0  0  0
  1  4  1  6  0  0  0
  1 10  1  0  0  0  0
  2  1  1  0  0  0  0
  2  6  1  0  0  0  0
  3  2  1  0  0  0  0
  3  7  1  1  0  0  0
  3  1  1  0  0  0  0
  5  2  1  0  0  0  0
  8 14  1  0  0  0  0
  8 13  1  0  0  0  0
  9  8  2  0  0  0  0
 10  9  1  0  0  0  0
 10 11  2  0  0  0  0
 11 12  1  0  0  0  0
 12 13  2  0  0  0  0
 12 15  1  0  0  0  0
 16 18  1  0  0  0  0
 16  9  1  0  0  0  0
 17 16  1  0  0  0  0
 19  3  1  0  0  0  0
 20 21  1  0  0  0  0
 20 19  2  0  0  0  0
 22 24  1  0  0  0  0
 22 20  1  0  0  0  0
 23 22  1  0  0  0  0
 24 26  2  0  0  0  0
 25 24  1  0  0  0  0
 26 19  1  0  0  0  0
M  END
>  <minimizedAffinity>
-4.94083834

>  <minimizedRMSD>
0.273293704

$$$$
