
 OpenBabel03252503503D

 20 21  0  0  0  0  0  0  0  0999 V2000
   47.5460   34.9540   42.3440 C   0  0  0  0  0  0  0  0  0  0  0  0
   47.7750   33.9950   43.3500 C   0  0  0  0  0  0  0  0  0  0  0  0
   46.7140   33.6960   44.2070 C   0  0  0  0  0  0  0  0  0  0  0  0
   45.5390   34.3330   44.0290 N   0  0  0  0  0  0  0  0  0  0  0  0
   45.3510   35.2510   43.0510 C   0  0  0  0  0  0  0  0  0  0  0  0
   46.3440   35.5620   42.2150 N   0  0  0  0  0  0  0  0  0  0  0  0
   48.7560   33.5100   43.4450 H   0  0  0  0  0  0  0  0  0  0  0  0
   44.3700   35.6990   43.0010 H   0  0  0  0  0  0  0  0  0  0  0  0
   46.8860   32.7150   45.2660 C   0  0  0  0  0  0  0  0  0  0  0  0
   47.2220   31.3980   45.0760 C   0  0  0  0  0  0  0  0  0  0  0  0
   47.4200   30.8400   44.1480 H   0  0  0  0  0  0  0  0  0  0  0  0
   47.2850   30.8210   46.3060 N   0  0  0  0  0  0  0  0  0  0  0  0
   47.5120   29.8260   46.5730 H   0  0  0  0  0  0  0  0  0  0  0  0
   46.9880   31.7770   47.2330 C   0  0  0  0  0  0  0  0  0  0  0  0
   46.9310   31.7270   48.3160 H   0  0  0  0  0  0  0  0  0  0  0  0
   46.7460   32.9380   46.5740 N   0  0  0  0  0  0  0  0  0  0  0  0
   48.7010   35.2650   41.4300 C   0  0  0  0  0  0  0  0  0  0  0  0
   48.3330   35.1620   40.1020 F   0  0  0  0  0  0  0  0  0  0  0  0
   49.1780   36.5200   41.7420 F   0  0  0  0  0  0  0  0  0  0  0  0
   49.7430   34.3780   41.7000 F   0  0  0  0  0  0  0  0  0  0  0  0
  1  2  1  0  0  0  0
  2  7  1  0  0  0  0
  2  3  2  0  0  0  0
  3  9  1  0  0  0  0
  4  3  1  0  0  0  0
  5  4  2  0  0  0  0
  6  1  2  0  0  0  0
  6  5  1  0  0  0  0
  8  5  1  0  0  0  0
  9 16  1  0  0  0  0
 10  9  2  0  0  0  0
 10 12  1  0  0  0  0
 11 10  1  0  0  0  0
 12 13  1  0  0  0  0
 12 14  1  0  0  0  0
 14 15  1  0  0  0  0
 16 14  2  0  0  0  0
 17 20  1  0  0  0  0
 17 19  1  0  0  0  0
 17  1  1  0  0  0  0
 18 17  1  0  0  0  0
M  END
>  <minimizedAffinity>
-4.75570297

>  <minimizedRMSD>
0.333482981

$$$$
