
 OpenBabel03252508353D

 34 36  0  0  1  0  0  0  0  0999 V2000
   36.5890   28.3340   40.9730 N   0  0  0  0  0  0  0  0  0  0  0  0
   37.0420   29.6310   41.3960 C   0  0  1  0  0  0  0  0  0  0  0  0
   37.7660   29.6600   42.6870 C   0  0  0  0  0  0  0  0  0  0  0  0
   37.3190   28.7810   43.6800 N   0  0  0  0  0  0  0  0  0  0  0  0
   36.7370   27.5580   43.2830 C   0  0  0  0  0  0  0  0  0  0  0  0
   36.9960   27.2590   41.8240 C   0  0  0  0  0  0  0  0  0  0  0  0
   36.1490   30.3160   41.4820 H   0  0  0  0  0  0  0  0  0  0  0  0
   37.7380   30.7190   43.0760 H   0  0  0  0  0  0  0  0  0  0  0  0
   38.8440   29.4800   42.4860 H   0  0  0  0  0  0  0  0  0  0  0  0
   36.8660   29.2360   44.4900 H   0  0  0  0  0  0  0  0  0  0  0  0
   35.6270   27.5990   43.3970 H   0  0  0  0  0  0  0  0  0  0  0  0
   37.0990   26.6730   43.8630 H   0  0  0  0  0  0  0  0  0  0  0  0
   38.0850   27.0240   41.6500 H   0  0  0  0  0  0  0  0  0  0  0  0
   36.4240   26.3600   41.5490 H   0  0  0  0  0  0  0  0  0  0  0  0
   36.1980   27.2840   38.8790 C   0  0  0  0  0  0  0  0  0  0  0  0
   35.8200   28.2630   39.8050 C   0  0  0  0  0  0  0  0  0  0  0  0
   34.7250   29.0770   39.4930 C   0  0  0  0  0  0  0  0  0  0  0  0
   34.0660   28.9010   38.3210 N   0  0  0  0  0  0  0  0  0  0  0  0
   34.4530   27.9550   37.4540 C   0  0  0  0  0  0  0  0  0  0  0  0
   35.5010   27.1490   37.7130 N   0  0  0  0  0  0  0  0  0  0  0  0
   37.0370   26.6330   39.0750 H   0  0  0  0  0  0  0  0  0  0  0  0
   34.4560   29.8210   40.2230 H   0  0  0  0  0  0  0  0  0  0  0  0
   34.0030   27.7370   36.5100 H   0  0  0  0  0  0  0  0  0  0  0  0
   37.9720   30.1700   40.3300 C   0  0  0  0  0  0  0  0  0  0  0  0
   37.6640   29.6940   39.3720 H   0  0  0  0  0  0  0  0  0  0  0  0
   38.9960   29.8090   40.5540 H   0  0  0  0  0  0  0  0  0  0  0  0
   37.9020   31.6480   40.2460 C   0  0  0  0  0  0  0  0  0  0  0  0
   36.9490   32.4700   39.7000 C   0  0  0  0  0  0  0  0  0  0  0  0
   36.0480   32.1350   39.2180 H   0  0  0  0  0  0  0  0  0  0  0  0
   37.3520   33.7590   39.8800 N   0  0  0  0  0  0  0  0  0  0  0  0
   36.8610   34.6320   39.5850 H   0  0  0  0  0  0  0  0  0  0  0  0
   38.5390   33.7390   40.5290 C   0  0  0  0  0  0  0  0  0  0  0  0
   39.1820   34.5480   40.8550 H   0  0  0  0  0  0  0  0  0  0  0  0
   38.8750   32.4580   40.7530 N   0  0  0  0  0  0  0  0  0  0  0  0
  1  2  1  0  0  0  0
  1  6  1  0  0  0  0
  2  7  1  1  0  0  0
  2  3  1  0  0  0  0
  3  8  1  0  0  0  0
  3  4  1  0  0  0  0
  4 10  1  0  0  0  0
  5 11  1  0  0  0  0
  5  4  1  0  0  0  0
  5 12  1  0  0  0  0
  6  5  1  0  0  0  0
  9  3  1  0  0  0  0
 13  6  1  0  0  0  0
 14  6  1  0  0  0  0
 15 21  1  0  0  0  0
 15 16  1  0  0  0  0
 16  1  1  0  0  0  0
 17 16  2  0  0  0  0
 17 22  1  0  0  0  0
 18 17  1  0  0  0  0
 19 20  1  0  0  0  0
 19 18  2  0  0  0  0
 20 15  2  0  0  0  0
 23 19  1  0  0  0  0
 24 26  1  0  0  0  0
 24  2  1  0  0  0  0
 25 24  1  0  0  0  0
 27 24  1  0  0  0  0
 27 34  1  0  0  0  0
 28 30  1  0  0  0  0
 28 27  2  0  0  0  0
 29 28  1  0  0  0  0
 30 32  1  0  0  0  0
 31 30  1  0  0  0  0
 32 34  2  0  0  0  0
 32 33  1  0  0  0  0
M  END
>  <minimizedAffinity>
-4.80523825

$$$$

 OpenBabel03252508353D

 34 36  0  0  1  0  0  0  0  0999 V2000
   36.8290   28.8130   39.9850 N   0  0  0  0  0  0  0  0  0  0  0  0
   37.2170   30.0840   39.4370 C   0  0  1  0  0  0  0  0  0  0  0  0
   36.6340   30.4090   38.1160 C   0  0  0  0  0  0  0  0  0  0  0  0
   36.4710   29.3470   37.2210 N   0  0  0  0  0  0  0  0  0  0  0  0
   36.2300   28.0580   37.7420 C   0  0  0  0  0  0  0  0  0  0  0  0
   35.8610   28.1040   39.2080 C   0  0  0  0  0  0  0  0  0  0  0  0
   38.3410   30.1060   39.3370 H   0  0  0  0  0  0  0  0  0  0  0  0
   37.2720   31.2110   37.6440 H   0  0  0  0  0  0  0  0  0  0  0  0
   35.6570   30.9130   38.2820 H   0  0  0  0  0  0  0  0  0  0  0  0
   37.0960   29.3740   36.3970 H   0  0  0  0  0  0  0  0  0  0  0  0
   37.1530   27.4330   37.6770 H   0  0  0  0  0  0  0  0  0  0  0  0
   35.4120   27.5020   37.2200 H   0  0  0  0  0  0  0  0  0  0  0  0
   34.8420   28.5680   39.3500 H   0  0  0  0  0  0  0  0  0  0  0  0
   35.8010   27.0710   39.5810 H   0  0  0  0  0  0  0  0  0  0  0  0
   36.5490   27.9710   42.1880 C   0  0  0  0  0  0  0  0  0  0  0  0
   37.4240   28.4150   41.1900 C   0  0  0  0  0  0  0  0  0  0  0  0
   38.7940   28.4280   41.4710 C   0  0  0  0  0  0  0  0  0  0  0  0
   39.2370   28.0140   42.6840 N   0  0  0  0  0  0  0  0  0  0  0  0
   38.3750   27.5940   43.6200 C   0  0  0  0  0  0  0  0  0  0  0  0
   37.0470   27.5660   43.3930 N   0  0  0  0  0  0  0  0  0  0  0  0
   35.4830   27.9440   42.0180 H   0  0  0  0  0  0  0  0  0  0  0  0
   39.4440   28.7740   40.6860 H   0  0  0  0  0  0  0  0  0  0  0  0
   38.6210   27.2500   44.6020 H   0  0  0  0  0  0  0  0  0  0  0  0
   36.7900   31.1610   40.4120 C   0  0  0  0  0  0  0  0  0  0  0  0
   36.5830   30.6490   41.3780 H   0  0  0  0  0  0  0  0  0  0  0  0
   35.8280   31.5820   40.0580 H   0  0  0  0  0  0  0  0  0  0  0  0
   37.8370   32.1990   40.5640 C   0  0  0  0  0  0  0  0  0  0  0  0
   39.0440   32.1670   41.2160 C   0  0  0  0  0  0  0  0  0  0  0  0
   39.4330   31.3190   41.7500 H   0  0  0  0  0  0  0  0  0  0  0  0
   39.6380   33.3830   41.0600 N   0  0  0  0  0  0  0  0  0  0  0  0
   40.5640   33.6960   41.4300 H   0  0  0  0  0  0  0  0  0  0  0  0
   38.8130   34.1610   40.3230 C   0  0  0  0  0  0  0  0  0  0  0  0
   38.9200   35.1840   39.9840 H   0  0  0  0  0  0  0  0  0  0  0  0
   37.7190   33.4450   40.0200 N   0  0  0  0  0  0  0  0  0  0  0  0
  1 16  1  0  0  0  0
  2  7  1  6  0  0  0
  2  1  1  0  0  0  0
  2 24  1  0  0  0  0
  3  9  1  0  0  0  0
  3  2  1  0  0  0  0
  4  5  1  0  0  0  0
  4  3  1  0  0  0  0
  5  6  1  0  0  0  0
  6 13  1  0  0  0  0
  6 14  1  0  0  0  0
  6  1  1  0  0  0  0
  8  3  1  0  0  0  0
 10  4  1  0  0  0  0
 11  5  1  0  0  0  0
 12  5  1  0  0  0  0
 15 20  1  0  0  0  0
 16 17  1  0  0  0  0
 16 15  2  0  0  0  0
 17 18  2  0  0  0  0
 18 19  1  0  0  0  0
 19 23  1  0  0  0  0
 20 19  2  0  0  0  0
 21 15  1  0  0  0  0
 22 17  1  0  0  0  0
 24 27  1  0  0  0  0
 24 25  1  0  0  0  0
 26 24  1  0  0  0  0
 27 28  2  0  0  0  0
 28 29  1  0  0  0  0
 30 28  1  0  0  0  0
 30 31  1  0  0  0  0
 32 30  1  0  0  0  0
 33 32  1  0  0  0  0
 34 32  2  0  0  0  0
 34 27  1  0  0  0  0
M  END
>  <minimizedAffinity>
-4.51631117

$$$$

 OpenBabel03252508353D

 34 36  0  0  1  0  0  0  0  0999 V2000
   38.3140   31.0500   40.9570 N   0  0  0  0  0  0  0  0  0  0  0  0
   37.1360   31.1420   40.1390 C   0  0  1  0  0  0  0  0  0  0  0  0
   36.9990   32.3940   39.3620 C   0  0  0  0  0  0  0  0  0  0  0  0
   37.4470   33.5680   39.9760 N   0  0  0  0  0  0  0  0  0  0  0  0
   38.5140   33.4820   40.8950 C   0  0  0  0  0  0  0  0  0  0  0  0
   39.2200   32.1470   40.8150 C   0  0  0  0  0  0  0  0  0  0  0  0
   36.2270   31.0420   40.8020 H   0  0  0  0  0  0  0  0  0  0  0  0
   35.9140   32.5060   39.0730 H   0  0  0  0  0  0  0  0  0  0  0  0
   37.5190   32.2580   38.3890 H   0  0  0  0  0  0  0  0  0  0  0  0
   36.7000   34.2340   40.2370 H   0  0  0  0  0  0  0  0  0  0  0  0
   38.1350   33.5670   41.9420 H   0  0  0  0  0  0  0  0  0  0  0  0
   39.2970   34.2690   40.7590 H   0  0  0  0  0  0  0  0  0  0  0  0
   39.7870   32.0510   39.8450 H   0  0  0  0  0  0  0  0  0  0  0  0
   39.9590   32.0980   41.6280 H   0  0  0  0  0  0  0  0  0  0  0  0
   39.7110   29.3270   41.8050 C   0  0  0  0  0  0  0  0  0  0  0  0
   38.4460   29.9260   41.7830 C   0  0  0  0  0  0  0  0  0  0  0  0
   37.4360   29.3630   42.5700 C   0  0  0  0  0  0  0  0  0  0  0  0
   37.7010   28.2690   43.3270 N   0  0  0  0  0  0  0  0  0  0  0  0
   38.9230   27.7180   43.3270 C   0  0  0  0  0  0  0  0  0  0  0  0
   39.9250   28.2260   42.5840 N   0  0  0  0  0  0  0  0  0  0  0  0
   40.5220   29.7240   41.2140 H   0  0  0  0  0  0  0  0  0  0  0  0
   36.4740   29.8440   42.5340 H   0  0  0  0  0  0  0  0  0  0  0  0
   39.2320   26.8600   43.8840 H   0  0  0  0  0  0  0  0  0  0  0  0
   37.1570   29.9870   39.1600 C   0  0  0  0  0  0  0  0  0  0  0  0
   37.7430   29.1740   39.6440 H   0  0  0  0  0  0  0  0  0  0  0  0
   37.7280   30.3070   38.2650 H   0  0  0  0  0  0  0  0  0  0  0  0
   35.7860   29.5380   38.8210 C   0  0  0  0  0  0  0  0  0  0  0  0
   34.7260   29.2080   39.6280 C   0  0  0  0  0  0  0  0  0  0  0  0
   34.7390   29.2300   40.7030 H   0  0  0  0  0  0  0  0  0  0  0  0
   33.6810   28.8570   38.8270 N   0  0  0  0  0  0  0  0  0  0  0  0
   32.7260   28.5520   39.1170 H   0  0  0  0  0  0  0  0  0  0  0  0
   34.0850   28.9660   37.5400 C   0  0  0  0  0  0  0  0  0  0  0  0
   33.5560   28.7800   36.6140 H   0  0  0  0  0  0  0  0  0  0  0  0
   35.3620   29.3800   37.5340 N   0  0  0  0  0  0  0  0  0  0  0  0
  1 16  1  0  0  0  0
  2  7  1  1  0  0  0
  2  1  1  0  0  0  0
  3  4  1  0  0  0  0
  3  2  1  0  0  0  0
  4 10  1  0  0  0  0
  4  5  1  0  0  0  0
  5 11  1  0  0  0  0
  6  5  1  0  0  0  0
  6  1  1  0  0  0  0
  6 14  1  0  0  0  0
  8  3  1  0  0  0  0
  9  3  1  0  0  0  0
 12  5  1  0  0  0  0
 13  6  1  0  0  0  0
 15 20  1  0  0  0  0
 16 15  2  0  0  0  0
 16 17  1  0  0  0  0
 17 18  2  0  0  0  0
 19 18  1  0  0  0  0
 19 23  1  0  0  0  0
 20 19  2  0  0  0  0
 21 15  1  0  0  0  0
 22 17  1  0  0  0  0
 24 25  1  0  0  0  0
 24  2  1  0  0  0  0
 26 24  1  0  0  0  0
 27 24  1  0  0  0  0
 27 28  2  0  0  0  0
 28 29  1  0  0  0  0
 30 31  1  0  0  0  0
 30 28  1  0  0  0  0
 32 30  1  0  0  0  0
 33 32  1  0  0  0  0
 34 32  2  0  0  0  0
 34 27  1  0  0  0  0
M  END
>  <minimizedAffinity>
-4.5117178

$$$$

 OpenBabel03252508353D

 34 36  0  0  1  0  0  0  0  0999 V2000
   38.7090   30.3260   41.1440 N   0  0  0  0  0  0  0  0  0  0  0  0
   37.9380   31.5370   41.2050 C   0  0  1  0  0  0  0  0  0  0  0  0
   38.6490   32.7640   40.7780 C   0  0  0  0  0  0  0  0  0  0  0  0
   40.0070   32.8510   41.1030 N   0  0  0  0  0  0  0  0  0  0  0  0
   40.7550   31.6570   41.1910 C   0  0  0  0  0  0  0  0  0  0  0  0
   40.0160   30.4840   40.5870 C   0  0  0  0  0  0  0  0  0  0  0  0
   37.5870   31.6900   42.2670 H   0  0  0  0  0  0  0  0  0  0  0  0
   38.0980   33.6500   41.2060 H   0  0  0  0  0  0  0  0  0  0  0  0
   38.5190   32.8770   39.6800 H   0  0  0  0  0  0  0  0  0  0  0  0
   40.2370   33.5620   41.8180 H   0  0  0  0  0  0  0  0  0  0  0  0
   40.9380   31.3890   42.2590 H   0  0  0  0  0  0  0  0  0  0  0  0
   41.7510   31.7080   40.6840 H   0  0  0  0  0  0  0  0  0  0  0  0
   39.9440   30.5900   39.4660 H   0  0  0  0  0  0  0  0  0  0  0  0
   40.5960   29.5710   40.7880 H   0  0  0  0  0  0  0  0  0  0  0  0
   37.7870   29.1400   42.9840 C   0  0  0  0  0  0  0  0  0  0  0  0
   38.1140   29.1520   41.6230 C   0  0  0  0  0  0  0  0  0  0  0  0
   37.8270   28.0110   40.8660 C   0  0  0  0  0  0  0  0  0  0  0  0
   37.2460   26.9380   41.4580 N   0  0  0  0  0  0  0  0  0  0  0  0
   36.9450   26.9570   42.7640 C   0  0  0  0  0  0  0  0  0  0  0  0
   37.2040   28.0330   43.5300 N   0  0  0  0  0  0  0  0  0  0  0  0
   37.9900   29.9970   43.6090 H   0  0  0  0  0  0  0  0  0  0  0  0
   38.0880   28.0470   39.8220 H   0  0  0  0  0  0  0  0  0  0  0  0
   36.4890   26.1680   43.3220 H   0  0  0  0  0  0  0  0  0  0  0  0
   36.7290   31.3660   40.3090 C   0  0  0  0  0  0  0  0  0  0  0  0
   36.0520   32.2210   40.5260 H   0  0  0  0  0  0  0  0  0  0  0  0
   36.1980   30.4460   40.6240 H   0  0  0  0  0  0  0  0  0  0  0  0
   37.1160   31.3310   38.8780 C   0  0  0  0  0  0  0  0  0  0  0  0
   37.6130   32.3140   38.0600 C   0  0  0  0  0  0  0  0  0  0  0  0
   37.8080   33.3270   38.3620 H   0  0  0  0  0  0  0  0  0  0  0  0
   37.8050   31.7730   36.8240 N   0  0  0  0  0  0  0  0  0  0  0  0
   38.1720   32.2470   35.9680 H   0  0  0  0  0  0  0  0  0  0  0  0
   37.4330   30.4740   36.8720 C   0  0  0  0  0  0  0  0  0  0  0  0
   37.4340   29.7080   36.1060 H   0  0  0  0  0  0  0  0  0  0  0  0
   37.0140   30.2020   38.1190 N   0  0  0  0  0  0  0  0  0  0  0  0
  1  2  1  0  0  0  0
  1 16  1  0  0  0  0
  2  7  1  1  0  0  0
  3  4  1  0  0  0  0
  3  2  1  0  0  0  0
  3  8  1  0  0  0  0
  4  5  1  0  0  0  0
  4 10  1  0  0  0  0
  5 11  1  0  0  0  0
  6 14  1  0  0  0  0
  6  1  1  0  0  0  0
  6  5  1  0  0  0  0
  9  3  1  0  0  0  0
 12  5  1  0  0  0  0
 13  6  1  0  0  0  0
 15 20  1  0  0  0  0
 15 21  1  0  0  0  0
 16 15  2  0  0  0  0
 17 18  2  0  0  0  0
 17 16  1  0  0  0  0
 18 19  1  0  0  0  0
 19 23  1  0  0  0  0
 19 20  2  0  0  0  0
 22 17  1  0  0  0  0
 24 25  1  0  0  0  0
 24 26  1  0  0  0  0
 24  2  1  0  0  0  0
 27 24  1  0  0  0  0
 28 29  1  0  0  0  0
 28 27  2  0  0  0  0
 30 32  1  0  0  0  0
 30 28  1  0  0  0  0
 31 30  1  0  0  0  0
 32 34  2  0  0  0  0
 33 32  1  0  0  0  0
 34 27  1  0  0  0  0
M  END
>  <minimizedAffinity>
-4.46072054

$$$$

 OpenBabel03252508353D

 34 36  0  0  1  0  0  0  0  0999 V2000
   37.1500   28.9320   39.0950 N   0  0  0  0  0  0  0  0  0  0  0  0
   37.6860   30.2190   38.7470 C   0  0  1  0  0  0  0  0  0  0  0  0
   37.5770   30.5860   37.3170 C   0  0  0  0  0  0  0  0  0  0  0  0
   37.7340   29.5530   36.3870 N   0  0  0  0  0  0  0  0  0  0  0  0
   37.3450   28.2480   36.7590 C   0  0  0  0  0  0  0  0  0  0  0  0
   36.5050   28.2480   38.0160 C   0  0  0  0  0  0  0  0  0  0  0  0
   38.7780   30.2440   39.0300 H   0  0  0  0  0  0  0  0  0  0  0  0
   38.3290   31.4010   37.1100 H   0  0  0  0  0  0  0  0  0  0  0  0
   36.5960   31.0850   37.1600 H   0  0  0  0  0  0  0  0  0  0  0  0
   38.5990   29.6050   35.8220 H   0  0  0  0  0  0  0  0  0  0  0  0
   38.2420   27.6240   36.9890 H   0  0  0  0  0  0  0  0  0  0  0  0
   36.7550   27.7090   35.9770 H   0  0  0  0  0  0  0  0  0  0  0  0
   35.4930   28.7080   37.8230 H   0  0  0  0  0  0  0  0  0  0  0  0
   36.3330   27.2040   38.3170 H   0  0  0  0  0  0  0  0  0  0  0  0
   38.6260   28.2740   40.8350 C   0  0  0  0  0  0  0  0  0  0  0  0
   37.3090   28.4960   40.4170 C   0  0  0  0  0  0  0  0  0  0  0  0
   36.2790   28.2690   41.3350 C   0  0  0  0  0  0  0  0  0  0  0  0
   36.5740   27.8470   42.5890 N   0  0  0  0  0  0  0  0  0  0  0  0
   37.8460   27.6430   42.9600 C   0  0  0  0  0  0  0  0  0  0  0  0
   38.8690   27.8480   42.1090 N   0  0  0  0  0  0  0  0  0  0  0  0
   39.4550   28.4350   40.1620 H   0  0  0  0  0  0  0  0  0  0  0  0
   35.2760   28.4480   40.9870 H   0  0  0  0  0  0  0  0  0  0  0  0
   38.1820   27.3120   43.9190 H   0  0  0  0  0  0  0  0  0  0  0  0
   36.9460   31.2650   39.5530 C   0  0  0  0  0  0  0  0  0  0  0  0
   36.3470   30.7140   40.3110 H   0  0  0  0  0  0  0  0  0  0  0  0
   36.2270   31.7720   38.8790 H   0  0  0  0  0  0  0  0  0  0  0  0
   37.8840   32.2180   40.1940 C   0  0  0  0  0  0  0  0  0  0  0  0
   38.8940   32.0100   41.0990 C   0  0  0  0  0  0  0  0  0  0  0  0
   39.1710   31.0540   41.5040 H   0  0  0  0  0  0  0  0  0  0  0  0
   39.4630   33.2160   41.3790 N   0  0  0  0  0  0  0  0  0  0  0  0
   40.2560   33.4150   42.0280 H   0  0  0  0  0  0  0  0  0  0  0  0
   38.8160   34.1610   40.6590 C   0  0  0  0  0  0  0  0  0  0  0  0
   38.9650   35.2330   40.6010 H   0  0  0  0  0  0  0  0  0  0  0  0
   37.8570   33.5580   39.9380 N   0  0  0  0  0  0  0  0  0  0  0  0
  1 16  1  0  0  0  0
  2  7  1  1  0  0  0
  2  1  1  0  0  0  0
  2 24  1  0  0  0  0
  3  2  1  0  0  0  0
  4  5  1  0  0  0  0
  4  3  1  0  0  0  0
  5 11  1  0  0  0  0
  5  6  1  0  0  0  0
  6 14  1  0  0  0  0
  6  1  1  0  0  0  0
  8  3  1  0  0  0  0
  9  3  1  0  0  0  0
 10  4  1  0  0  0  0
 12  5  1  0  0  0  0
 13  6  1  0  0  0  0
 15 20  1  0  0  0  0
 16 15  2  0  0  0  0
 16 17  1  0  0  0  0
 17 18  2  0  0  0  0
 18 19  1  0  0  0  0
 19 23  1  0  0  0  0
 20 19  2  0  0  0  0
 21 15  1  0  0  0  0
 22 17  1  0  0  0  0
 24 27  1  0  0  0  0
 24 25  1  0  0  0  0
 26 24  1  0  0  0  0
 27 28  2  0  0  0  0
 28 30  1  0  0  0  0
 28 29  1  0  0  0  0
 30 31  1  0  0  0  0
 32 30  1  0  0  0  0
 33 32  1  0  0  0  0
 34 27  1  0  0  0  0
 34 32  2  0  0  0  0
M  END
>  <minimizedAffinity>
-4.44409561

$$$$

 OpenBabel03252508353D

 34 36  0  0  1  0  0  0  0  0999 V2000
   37.6520   27.7370   38.4170 N   0  0  0  0  0  0  0  0  0  0  0  0
   37.5500   29.0580   37.8610 C   0  0  1  0  0  0  0  0  0  0  0  0
   37.4260   29.1190   36.3870 C   0  0  0  0  0  0  0  0  0  0  0  0
   38.1440   28.1680   35.6550 N   0  0  0  0  0  0  0  0  0  0  0  0
   38.3820   26.9060   36.2410 C   0  0  0  0  0  0  0  0  0  0  0  0
   37.5190   26.6810   37.4620 C   0  0  0  0  0  0  0  0  0  0  0  0
   38.4660   29.6470   38.1580 H   0  0  0  0  0  0  0  0  0  0  0  0
   37.7200   30.1560   36.0560 H   0  0  0  0  0  0  0  0  0  0  0  0
   36.3470   29.0540   36.1270 H   0  0  0  0  0  0  0  0  0  0  0  0
   38.9350   28.5490   35.1070 H   0  0  0  0  0  0  0  0  0  0  0  0
   39.4390   26.8320   36.5930 H   0  0  0  0  0  0  0  0  0  0  0  0
   38.1980   26.0440   35.5530 H   0  0  0  0  0  0  0  0  0  0  0  0
   36.4350   26.5630   37.1710 H   0  0  0  0  0  0  0  0  0  0  0  0
   37.8310   25.7390   37.9360 H   0  0  0  0  0  0  0  0  0  0  0  0
   36.9530   26.8260   40.4960 C   0  0  0  0  0  0  0  0  0  0  0  0
   37.8640   27.6270   39.7980 C   0  0  0  0  0  0  0  0  0  0  0  0
   38.8910   28.2420   40.5210 C   0  0  0  0  0  0  0  0  0  0  0  0
   38.9810   28.0500   41.8600 N   0  0  0  0  0  0  0  0  0  0  0  0
   38.0940   27.2780   42.5020 C   0  0  0  0  0  0  0  0  0  0  0  0
   37.0880   26.6670   41.8450 N   0  0  0  0  0  0  0  0  0  0  0  0
   36.1440   26.3310   39.9810 H   0  0  0  0  0  0  0  0  0  0  0  0
   39.5770   28.8520   39.9590 H   0  0  0  0  0  0  0  0  0  0  0  0
   38.0770   27.0640   43.5490 H   0  0  0  0  0  0  0  0  0  0  0  0
   36.3270   29.7220   38.4580 C   0  0  0  0  0  0  0  0  0  0  0  0
   35.8850   28.9880   39.1680 H   0  0  0  0  0  0  0  0  0  0  0  0
   35.5880   29.8710   37.6460 H   0  0  0  0  0  0  0  0  0  0  0  0
   36.6780   30.9900   39.1400 C   0  0  0  0  0  0  0  0  0  0  0  0
   36.6280   31.3380   40.4670 C   0  0  0  0  0  0  0  0  0  0  0  0
   36.3020   30.6920   41.2620 H   0  0  0  0  0  0  0  0  0  0  0  0
   37.0580   32.6260   40.5800 N   0  0  0  0  0  0  0  0  0  0  0  0
   37.1430   33.1990   41.4490 H   0  0  0  0  0  0  0  0  0  0  0  0
   37.3700   33.0730   39.3420 C   0  0  0  0  0  0  0  0  0  0  0  0
   37.7440   34.0340   39.0100 H   0  0  0  0  0  0  0  0  0  0  0  0
   37.1410   32.0820   38.4660 N   0  0  0  0  0  0  0  0  0  0  0  0
  1 16  1  0  0  0  0
  2  7  1  1  0  0  0
  2  1  1  0  0  0  0
  2 24  1  0  0  0  0
  3  2  1  0  0  0  0
  4  5  1  0  0  0  0
  4  3  1  0  0  0  0
  5 11  1  0  0  0  0
  5  6  1  0  0  0  0
  6 14  1  0  0  0  0
  6  1  1  0  0  0  0
  8  3  1  0  0  0  0
  9  3  1  0  0  0  0
 10  4  1  0  0  0  0
 12  5  1  0  0  0  0
 13  6  1  0  0  0  0
 15 20  1  0  0  0  0
 16 15  2  0  0  0  0
 16 17  1  0  0  0  0
 17 18  2  0  0  0  0
 18 19  1  0  0  0  0
 19 23  1  0  0  0  0
 20 19  2  0  0  0  0
 21 15  1  0  0  0  0
 22 17  1  0  0  0  0
 24 27  1  0  0  0  0
 24 25  1  0  0  0  0
 26 24  1  0  0  0  0
 27 28  2  0  0  0  0
 28 30  1  0  0  0  0
 28 29  1  0  0  0  0
 30 31  1  0  0  0  0
 32 30  1  0  0  0  0
 33 32  1  0  0  0  0
 34 27  1  0  0  0  0
 34 32  2  0  0  0  0
M  END
>  <minimizedAffinity>
-4.42860556

$$$$

 OpenBabel03252508353D

 34 36  0  0  1  0  0  0  0  0999 V2000
   40.8800   31.0140   39.2540 N   0  0  0  0  0  0  0  0  0  0  0  0
   39.4640   31.1620   39.0590 C   0  0  1  0  0  0  0  0  0  0  0  0
   39.0450   31.4990   37.6790 C   0  0  0  0  0  0  0  0  0  0  0  0
   39.8850   32.3530   36.9570 N   0  0  0  0  0  0  0  0  0  0  0  0
   41.2690   32.3270   37.2330 C   0  0  0  0  0  0  0  0  0  0  0  0
   41.6560   31.1210   38.0580 C   0  0  0  0  0  0  0  0  0  0  0  0
   39.0870   31.9750   39.7450 H   0  0  0  0  0  0  0  0  0  0  0  0
   38.0080   31.9390   37.7290 H   0  0  0  0  0  0  0  0  0  0  0  0
   38.9030   30.5500   37.1180 H   0  0  0  0  0  0  0  0  0  0  0  0
   39.4950   33.2930   36.7740 H   0  0  0  0  0  0  0  0  0  0  0  0
   41.5630   33.2190   37.8370 H   0  0  0  0  0  0  0  0  0  0  0  0
   41.9150   32.3150   36.3200 H   0  0  0  0  0  0  0  0  0  0  0  0
   41.5590   30.1730   37.4530 H   0  0  0  0  0  0  0  0  0  0  0  0
   42.7160   31.2190   38.3360 H   0  0  0  0  0  0  0  0  0  0  0  0
   42.2080   29.7050   40.7240 C   0  0  0  0  0  0  0  0  0  0  0  0
   41.3360   30.7860   40.5590 C   0  0  0  0  0  0  0  0  0  0  0  0
   40.9960   31.5370   41.6890 C   0  0  0  0  0  0  0  0  0  0  0  0
   41.5120   31.2070   42.8990 N   0  0  0  0  0  0  0  0  0  0  0  0
   42.3450   30.1640   43.0250 C   0  0  0  0  0  0  0  0  0  0  0  0
   42.6990   29.4130   41.9640 N   0  0  0  0  0  0  0  0  0  0  0  0
   42.4990   29.0950   39.8810 H   0  0  0  0  0  0  0  0  0  0  0  0
   40.3240   32.3640   41.5340 H   0  0  0  0  0  0  0  0  0  0  0  0
   42.8020   29.8230   43.9280 H   0  0  0  0  0  0  0  0  0  0  0  0
   38.8020   29.8550   39.4390 C   0  0  0  0  0  0  0  0  0  0  0  0
   39.4920   29.3460   40.1480 H   0  0  0  0  0  0  0  0  0  0  0  0
   38.7470   29.2210   38.5310 H   0  0  0  0  0  0  0  0  0  0  0  0
   37.4700   30.0790   40.0500 C   0  0  0  0  0  0  0  0  0  0  0  0
   37.0180   31.0810   40.8720 C   0  0  0  0  0  0  0  0  0  0  0  0
   37.6100   31.9090   41.2170 H   0  0  0  0  0  0  0  0  0  0  0  0
   35.7090   30.8300   41.1590 N   0  0  0  0  0  0  0  0  0  0  0  0
   35.0660   31.3940   41.7570 H   0  0  0  0  0  0  0  0  0  0  0  0
   35.3530   29.6900   40.5250 C   0  0  0  0  0  0  0  0  0  0  0  0
   34.4090   29.1590   40.5000 H   0  0  0  0  0  0  0  0  0  0  0  0
   36.4190   29.2320   39.8510 N   0  0  0  0  0  0  0  0  0  0  0  0
  1 16  1  0  0  0  0
  2  1  1  0  0  0  0
  2 24  1  0  0  0  0
  2  7  1  1  0  0  0
  3  8  1  0  0  0  0
  3  2  1  0  0  0  0
  4  5  1  0  0  0  0
  4  3  1  0  0  0  0
  5 11  1  0  0  0  0
  5  6  1  0  0  0  0
  6 14  1  0  0  0  0
  6  1  1  0  0  0  0
  9  3  1  0  0  0  0
 10  4  1  0  0  0  0
 12  5  1  0  0  0  0
 13  6  1  0  0  0  0
 15 20  1  0  0  0  0
 16 15  2  0  0  0  0
 16 17  1  0  0  0  0
 17 18  2  0  0  0  0
 18 19  1  0  0  0  0
 19 23  1  0  0  0  0
 20 19  2  0  0  0  0
 21 15  1  0  0  0  0
 22 17  1  0  0  0  0
 24 27  1  0  0  0  0
 24 25  1  0  0  0  0
 26 24  1  0  0  0  0
 27 28  2  0  0  0  0
 28 30  1  0  0  0  0
 28 29  1  0  0  0  0
 30 31  1  0  0  0  0
 32 30  1  0  0  0  0
 33 32  1  0  0  0  0
 34 27  1  0  0  0  0
 34 32  2  0  0  0  0
M  END
>  <minimizedAffinity>
-4.41453648

$$$$

 OpenBabel03252508353D

 34 36  0  0  1  0  0  0  0  0999 V2000
   38.8090   30.2620   38.8130 N   0  0  0  0  0  0  0  0  0  0  0  0
   37.7130   31.0010   38.2480 C   0  0  1  0  0  0  0  0  0  0  0  0
   38.0300   31.7670   37.0210 C   0  0  0  0  0  0  0  0  0  0  0  0
   39.3000   32.3500   36.9530 N   0  0  0  0  0  0  0  0  0  0  0  0
   40.3680   31.7160   37.6230 C   0  0  0  0  0  0  0  0  0  0  0  0
   40.0120   30.3070   38.0420 C   0  0  0  0  0  0  0  0  0  0  0  0
   37.3290   31.7270   39.0220 H   0  0  0  0  0  0  0  0  0  0  0  0
   37.2390   32.5620   36.8950 H   0  0  0  0  0  0  0  0  0  0  0  0
   37.8760   31.1000   36.1460 H   0  0  0  0  0  0  0  0  0  0  0  0
   39.3060   33.3830   37.0030 H   0  0  0  0  0  0  0  0  0  0  0  0
   40.6180   32.2630   38.5630 H   0  0  0  0  0  0  0  0  0  0  0  0
   41.3060   31.6460   37.0180 H   0  0  0  0  0  0  0  0  0  0  0  0
   39.9160   29.6330   37.1430 H   0  0  0  0  0  0  0  0  0  0  0  0
   40.8360   29.9120   38.6550 H   0  0  0  0  0  0  0  0  0  0  0  0
   38.2620   30.4020   41.1200 C   0  0  0  0  0  0  0  0  0  0  0  0
   38.5870   29.5940   40.0240 C   0  0  0  0  0  0  0  0  0  0  0  0
   38.6630   28.2120   40.2240 C   0  0  0  0  0  0  0  0  0  0  0  0
   38.4230   27.6940   41.4540 N   0  0  0  0  0  0  0  0  0  0  0  0
   38.1150   28.4930   42.4840 C   0  0  0  0  0  0  0  0  0  0  0  0
   38.0300   29.8300   42.3370 N   0  0  0  0  0  0  0  0  0  0  0  0
   38.1910   31.4740   41.0150 H   0  0  0  0  0  0  0  0  0  0  0  0
   38.9150   27.6140   39.3640 H   0  0  0  0  0  0  0  0  0  0  0  0
   37.9090   28.1860   43.4870 H   0  0  0  0  0  0  0  0  0  0  0  0
   36.6130   30.0170   37.9100 C   0  0  0  0  0  0  0  0  0  0  0  0
   35.6530   30.5740   37.9990 H   0  0  0  0  0  0  0  0  0  0  0  0
   36.6030   29.2320   38.6920 H   0  0  0  0  0  0  0  0  0  0  0  0
   36.7880   29.4550   36.5500 C   0  0  0  0  0  0  0  0  0  0  0  0
   37.6200   28.4660   36.0880 C   0  0  0  0  0  0  0  0  0  0  0  0
   38.3180   27.9160   36.6930 H   0  0  0  0  0  0  0  0  0  0  0  0
   37.3990   28.3200   34.7520 N   0  0  0  0  0  0  0  0  0  0  0  0
   37.8650   27.6560   34.0940 H   0  0  0  0  0  0  0  0  0  0  0  0
   36.4430   29.2050   34.3870 C   0  0  0  0  0  0  0  0  0  0  0  0
   35.9910   29.4000   33.4220 H   0  0  0  0  0  0  0  0  0  0  0  0
   36.0690   29.8950   35.4760 N   0  0  0  0  0  0  0  0  0  0  0  0
  1 16  1  0  0  0  0
  2  1  1  0  0  0  0
  2  7  1  1  0  0  0
  3  2  1  0  0  0  0
  4 10  1  0  0  0  0
  4  3  1  0  0  0  0
  4  5  1  0  0  0  0
  5  6  1  0  0  0  0
  5 11  1  0  0  0  0
  6 14  1  0  0  0  0
  6  1  1  0  0  0  0
  8  3  1  0  0  0  0
  9  3  1  0  0  0  0
 12  5  1  0  0  0  0
 13  6  1  0  0  0  0
 15 20  1  0  0  0  0
 16 17  1  0  0  0  0
 16 15  2  0  0  0  0
 17 18  2  0  0  0  0
 18 19  1  0  0  0  0
 19 23  1  0  0  0  0
 20 19  2  0  0  0  0
 21 15  1  0  0  0  0
 22 17  1  0  0  0  0
 24 25  1  0  0  0  0
 24  2  1  0  0  0  0
 24 26  1  0  0  0  0
 27 24  1  0  0  0  0
 28 27  2  0  0  0  0
 28 29  1  0  0  0  0
 30 28  1  0  0  0  0
 31 30  1  0  0  0  0
 32 30  1  0  0  0  0
 32 34  2  0  0  0  0
 33 32  1  0  0  0  0
 34 27  1  0  0  0  0
M  END
>  <minimizedAffinity>
-4.41211557

$$$$

 OpenBabel03252508353D

 34 36  0  0  1  0  0  0  0  0999 V2000
   38.4200   31.6120   40.8520 N   0  0  0  0  0  0  0  0  0  0  0  0
   37.3800   31.7270   39.8670 C   0  0  1  0  0  0  0  0  0  0  0  0
   37.3460   33.0080   39.1270 C   0  0  0  0  0  0  0  0  0  0  0  0
   37.6790   34.1610   39.8470 N   0  0  0  0  0  0  0  0  0  0  0  0
   38.5940   34.0460   40.9150 C   0  0  0  0  0  0  0  0  0  0  0  0
   39.3220   32.7210   40.8920 C   0  0  0  0  0  0  0  0  0  0  0  0
   36.3820   31.5930   40.3770 H   0  0  0  0  0  0  0  0  0  0  0  0
   36.3170   33.1230   38.6790 H   0  0  0  0  0  0  0  0  0  0  0  0
   38.0110   32.9160   38.2410 H   0  0  0  0  0  0  0  0  0  0  0  0
   36.8910   34.8090   40.0160 H   0  0  0  0  0  0  0  0  0  0  0  0
   38.0580   34.0860   41.8940 H   0  0  0  0  0  0  0  0  0  0  0  0
   39.3770   34.8440   40.9310 H   0  0  0  0  0  0  0  0  0  0  0  0
   40.0320   32.6690   40.0180 H   0  0  0  0  0  0  0  0  0  0  0  0
   39.9290   32.6450   41.8070 H   0  0  0  0  0  0  0  0  0  0  0  0
   39.7070   29.9540   41.9640 C   0  0  0  0  0  0  0  0  0  0  0  0
   38.4410   30.4560   41.6440 C   0  0  0  0  0  0  0  0  0  0  0  0
   37.3190   29.7760   42.1300 C   0  0  0  0  0  0  0  0  0  0  0  0
   37.4820   28.6650   42.8900 N   0  0  0  0  0  0  0  0  0  0  0  0
   38.7080   28.2080   43.1800 C   0  0  0  0  0  0  0  0  0  0  0  0
   39.8160   28.8310   42.7320 N   0  0  0  0  0  0  0  0  0  0  0  0
   40.6020   30.4450   41.6110 H   0  0  0  0  0  0  0  0  0  0  0  0
   36.3580   30.1840   41.8690 H   0  0  0  0  0  0  0  0  0  0  0  0
   38.9430   27.3460   43.7660 H   0  0  0  0  0  0  0  0  0  0  0  0
   37.5680   30.6130   38.8590 C   0  0  0  0  0  0  0  0  0  0  0  0
   36.7400   30.7130   38.1210 H   0  0  0  0  0  0  0  0  0  0  0  0
   37.4180   29.6480   39.3820 H   0  0  0  0  0  0  0  0  0  0  0  0
   38.8930   30.6960   38.1990 C   0  0  0  0  0  0  0  0  0  0  0  0
   39.4310   31.6630   37.3880 C   0  0  0  0  0  0  0  0  0  0  0  0
   38.9320   32.5680   37.0920 H   0  0  0  0  0  0  0  0  0  0  0  0
   40.6870   31.2660   37.0390 N   0  0  0  0  0  0  0  0  0  0  0  0
   41.3710   31.7690   36.4300 H   0  0  0  0  0  0  0  0  0  0  0  0
   40.9270   30.0700   37.6240 C   0  0  0  0  0  0  0  0  0  0  0  0
   41.7990   29.4300   37.5940 H   0  0  0  0  0  0  0  0  0  0  0  0
   39.8390   29.7220   38.3290 N   0  0  0  0  0  0  0  0  0  0  0  0
  1  6  1  0  0  0  0
  1 16  1  0  0  0  0
  2  7  1  1  0  0  0
  2  1  1  0  0  0  0
  3  4  1  0  0  0  0
  3  2  1  0  0  0  0
  4 10  1  0  0  0  0
  4  5  1  0  0  0  0
  5 12  1  0  0  0  0
  5 11  1  0  0  0  0
  6  5  1  0  0  0  0
  6 14  1  0  0  0  0
  8  3  1  0  0  0  0
  9  3  1  0  0  0  0
 13  6  1  0  0  0  0
 15 20  1  0  0  0  0
 16 15  2  0  0  0  0
 16 17  1  0  0  0  0
 17 18  2  0  0  0  0
 18 19  1  0  0  0  0
 19 23  1  0  0  0  0
 20 19  2  0  0  0  0
 21 15  1  0  0  0  0
 22 17  1  0  0  0  0
 24 26  1  0  0  0  0
 24  2  1  0  0  0  0
 25 24  1  0  0  0  0
 27 34  1  0  0  0  0
 27 24  1  0  0  0  0
 28 27  2  0  0  0  0
 29 28  1  0  0  0  0
 30 28  1  0  0  0  0
 30 32  1  0  0  0  0
 31 30  1  0  0  0  0
 32 34  2  0  0  0  0
 33 32  1  0  0  0  0
M  END
>  <minimizedAffinity>
-4.40671873

$$$$
