
 OpenBabel03252501183D

 20 21  0  0  0  0  0  0  0  0999 V2000
   45.0470   33.9290   46.0790 C   0  0  0  0  0  0  0  0  0  0  0  0
   45.6450   33.9620   44.7910 C   0  0  0  0  0  0  0  0  0  0  0  0
   46.7930   33.1880   44.6580 C   0  0  0  0  0  0  0  0  0  0  0  0
   47.2490   32.4750   45.7390 N   0  0  0  0  0  0  0  0  0  0  0  0
   46.6330   32.4870   46.9370 C   0  0  0  0  0  0  0  0  0  0  0  0
   45.5220   33.2250   47.0990 N   0  0  0  0  0  0  0  0  0  0  0  0
   44.1500   34.4930   46.2980 H   0  0  0  0  0  0  0  0  0  0  0  0
   47.1550   31.8590   47.6450 H   0  0  0  0  0  0  0  0  0  0  0  0
   45.0210   34.7870   43.7670 C   0  0  0  0  0  0  0  0  0  0  0  0
   45.0750   36.1630   43.7440 C   0  0  0  0  0  0  0  0  0  0  0  0
   45.5620   36.8540   44.4410 H   0  0  0  0  0  0  0  0  0  0  0  0
   44.4140   36.6240   42.6910 N   0  0  0  0  0  0  0  0  0  0  0  0
   44.2710   37.6070   42.3940 H   0  0  0  0  0  0  0  0  0  0  0  0
   43.9220   35.5850   42.0100 C   0  0  0  0  0  0  0  0  0  0  0  0
   43.3320   35.4960   41.1100 H   0  0  0  0  0  0  0  0  0  0  0  0
   44.2990   34.4920   42.6750 N   0  0  0  0  0  0  0  0  0  0  0  0
   47.4280   33.2060   43.3450 C   0  0  0  0  0  0  0  0  0  0  0  0
   48.6130   32.4790   43.3800 F   0  0  0  0  0  0  0  0  0  0  0  0
   47.8370   34.5220   43.1320 F   0  0  0  0  0  0  0  0  0  0  0  0
   46.6560   32.7040   42.3550 F   0  0  0  0  0  0  0  0  0  0  0  0
  1  7  1  0  0  0  0
  1  6  1  0  0  0  0
  2  1  2  0  0  0  0
  3  2  1  0  0  0  0
  3  4  2  0  0  0  0
  4  5  1  0  0  0  0
  5  6  2  0  0  0  0
  5  8  1  0  0  0  0
  9  2  1  0  0  0  0
 10  9  2  0  0  0  0
 10 11  1  0  0  0  0
 12 10  1  0  0  0  0
 13 12  1  0  0  0  0
 14 16  2  0  0  0  0
 14 12  1  0  0  0  0
 15 14  1  0  0  0  0
 16  9  1  0  0  0  0
 17 18  1  0  0  0  0
 17  3  1  0  0  0  0
 19 17  1  0  0  0  0
 20 17  1  0  0  0  0
M  END
>  <minimizedAffinity>
-3.93099236

>  <minimizedRMSD>
2.53409767

$$$$
