
 OpenBabel03242511373D

 41 44  0  0  1  0  0  0  0  0999 V2000
   36.9380   30.7620   40.8530 C   0  0  0  0  0  0  0  0  0  0  0  0
   35.8830   30.4750   39.9540 C   0  0  0  0  0  0  0  0  0  0  0  0
   35.1670   29.2840   40.0670 C   0  0  0  0  0  0  0  0  0  0  0  0
   35.5570   28.4660   41.0700 N   0  0  0  0  0  0  0  0  0  0  0  0
   36.5570   28.7480   41.9170 C   0  0  0  0  0  0  0  0  0  0  0  0
   37.2350   29.8730   41.8120 N   0  0  0  0  0  0  0  0  0  0  0  0
   35.6250   31.1830   39.1690 H   0  0  0  0  0  0  0  0  0  0  0  0
   34.3650   29.0600   39.3880 H   0  0  0  0  0  0  0  0  0  0  0  0
   36.9080   27.7950   43.0060 C   0  0  2  0  0  0  0  0  0  0  0  0
   38.2320   27.7010   43.6080 C   0  0  0  0  0  0  0  0  0  0  0  0
   37.8320   26.6170   42.6990 C   0  0  2  0  0  0  0  0  0  0  0  0
   35.9870   27.5390   43.6100 H   0  0  0  0  0  0  0  0  0  0  0  0
   38.2920   27.5120   44.7150 H   0  0  0  0  0  0  0  0  0  0  0  0
   39.0300   28.4010   43.2410 H   0  0  0  0  0  0  0  0  0  0  0  0
   37.4540   25.6770   43.1820 H   0  0  0  0  0  0  0  0  0  0  0  0
   38.3600   26.4680   41.3440 C   0  0  0  0  0  0  0  0  0  0  0  0
   37.9460   25.8070   40.2330 C   0  0  0  0  0  0  0  0  0  0  0  0
   37.0270   25.2190   40.1750 H   0  0  0  0  0  0  0  0  0  0  0  0
   38.7560   25.9310   39.1770 N   0  0  0  0  0  0  0  0  0  0  0  0
   38.6550   25.5260   38.2370 H   0  0  0  0  0  0  0  0  0  0  0  0
   39.7440   26.7160   39.6390 C   0  0  0  0  0  0  0  0  0  0  0  0
   40.6220   27.0750   39.1150 H   0  0  0  0  0  0  0  0  0  0  0  0
   39.5200   27.0380   40.9140 N   0  0  0  0  0  0  0  0  0  0  0  0
   37.6520   32.0300   40.6880 C   0  0  0  0  0  3  0  0  0  0  0  0
   38.8780   31.9810   40.1640 C   0  0  0  0  0  3  0  0  0  0  0  0
   39.6840   33.2040   39.9570 C   0  0  0  0  0  0  0  0  0  0  0  0
   39.7330   33.7360   40.9250 H   0  0  0  0  0  0  0  0  0  0  0  0
   39.2090   33.8520   39.1860 H   0  0  0  0  0  0  0  0  0  0  0  0
   42.4040   33.2950   37.5830 C   0  0  1  0  0  0  0  0  0  0  0  0
   41.7280   34.0200   38.7520 C   0  0  0  0  0  0  0  0  0  0  0  0
   41.0800   32.8800   39.4370 C   0  0  2  0  0  0  0  0  0  0  0  0
   41.0450   31.8110   38.5800 O   0  0  0  0  0  0  0  0  0  0  0  0
   41.4090   32.1940   37.3270 C   0  0  0  0  0  0  0  0  0  0  0  0
   43.3690   32.8700   37.8910 H   0  0  0  0  0  0  0  0  0  0  0  0
   40.9490   34.6980   38.3210 H   0  0  0  0  0  0  0  0  0  0  0  0
   42.4640   34.5770   39.3480 H   0  0  0  0  0  0  0  0  0  0  0  0
   41.6810   32.5820   40.3230 H   0  0  0  0  0  0  0  0  0  0  0  0
   41.9710   31.3530   36.8310 H   0  0  0  0  0  0  0  0  0  0  0  0
   40.6070   32.4510   36.6310 H   0  0  0  0  0  0  0  0  0  0  0  0
   42.5290   34.1610   36.4990 O   0  0  0  0  0  0  0  0  0  0  0  0
   42.7600   33.5910   35.7270 H   0  0  0  0  0  0  0  0  0  0  0  0
  1  6  1  0  0  0  0
  2  3  1  0  0  0  0
  2  1  2  0  0  0  0
  3  4  2  0  0  0  0
  4  5  1  0  0  0  0
  5  9  1  0  0  0  0
  6  5  2  0  0  0  0
  7  2  1  0  0  0  0
  8  3  1  0  0  0  0
  9 10  1  0  0  0  0
  9 12  1  1  0  0  0
 10 13  1  0  0  0  0
 11  9  1  0  0  0  0
 11 15  1  1  0  0  0
 11 10  1  0  0  0  0
 14 10  1  0  0  0  0
 16 11  1  0  0  0  0
 17 16  2  0  0  0  0
 18 17  1  0  0  0  0
 19 21  1  0  0  0  0
 19 17  1  0  0  0  0
 20 19  1  0  0  0  0
 21 23  2  0  0  0  0
 22 21  1  0  0  0  0
 23 16  1  0  0  0  0
 24  1  1  0  0  0  0
 25 24  2  0  0  0  0
 26 25  1  0  0  0  0
 26 27  1  0  0  0  0
 28 26  1  0  0  0  0
 29 34  1  1  0  0  0
 29 30  1  0  0  0  0
 30 36  1  0  0  0  0
 30 31  1  0  0  0  0
 31 26  1  0  0  0  0
 31 37  1  1  0  0  0
 32 31  1  0  0  0  0
 33 29  1  0  0  0  0
 33 32  1  0  0  0  0
 35 30  1  0  0  0  0
 38 33  1  0  0  0  0
 39 33  1  0  0  0  0
 40 29  1  0  0  0  0
 41 40  1  0  0  0  0
M  END
>  <minimizedAffinity>
-5.61744308

$$$$

 OpenBabel03242511373D

 41 44  0  0  1  0  0  0  0  0999 V2000
   39.3730   28.9890   42.0240 C   0  0  0  0  0  0  0  0  0  0  0  0
   38.0820   29.3460   42.4810 C   0  0  0  0  0  0  0  0  0  0  0  0
   37.3820   28.5000   43.3390 C   0  0  0  0  0  0  0  0  0  0  0  0
   38.0210   27.3580   43.6780 N   0  0  0  0  0  0  0  0  0  0  0  0
   39.2440   27.0300   43.2390 C   0  0  0  0  0  0  0  0  0  0  0  0
   39.9090   27.8280   42.4290 N   0  0  0  0  0  0  0  0  0  0  0  0
   37.6300   30.2840   42.1650 H   0  0  0  0  0  0  0  0  0  0  0  0
   36.4010   28.7640   43.6900 H   0  0  0  0  0  0  0  0  0  0  0  0
   39.8820   25.7570   43.6790 C   0  0  2  0  0  0  0  0  0  0  0  0
   40.8540   25.0180   42.8830 C   0  0  0  0  0  0  0  0  0  0  0  0
   39.5000   24.4520   42.9830 C   0  0  2  0  0  0  0  0  0  0  0  0
   39.9130   25.7080   44.8080 H   0  0  0  0  0  0  0  0  0  0  0  0
   41.7080   24.5270   43.4240 H   0  0  0  0  0  0  0  0  0  0  0  0
   41.1530   25.4430   41.8870 H   0  0  0  0  0  0  0  0  0  0  0  0
   39.3610   23.6260   43.7310 H   0  0  0  0  0  0  0  0  0  0  0  0
   38.5290   24.4910   41.8900 C   0  0  0  0  0  0  0  0  0  0  0  0
   37.1750   24.4310   41.8230 C   0  0  0  0  0  0  0  0  0  0  0  0
   36.5210   24.3440   42.6930 H   0  0  0  0  0  0  0  0  0  0  0  0
   36.6760   24.4930   40.5860 N   0  0  0  0  0  0  0  0  0  0  0  0
   35.6920   24.4660   40.2860 H   0  0  0  0  0  0  0  0  0  0  0  0
   37.7740   24.6000   39.8170 C   0  0  0  0  0  0  0  0  0  0  0  0
   37.8360   24.6790   38.7370 H   0  0  0  0  0  0  0  0  0  0  0  0
   38.8700   24.6000   40.5750 N   0  0  0  0  0  0  0  0  0  0  0  0
   40.0630   29.9180   41.1270 C   0  0  0  0  0  3  0  0  0  0  0  0
   40.4630   31.0850   41.6390 C   0  0  0  0  0  3  0  0  0  0  0  0
   41.1670   32.0930   40.8170 C   0  0  0  0  0  0  0  0  0  0  0  0
   41.7660   31.5470   40.0640 H   0  0  0  0  0  0  0  0  0  0  0  0
   41.8310   32.7160   41.4570 H   0  0  0  0  0  0  0  0  0  0  0  0
   37.9190   33.2830   39.7810 C   0  0  1  0  0  0  0  0  0  0  0  0
   38.9460   33.2550   40.9180 C   0  0  0  0  0  0  0  0  0  0  0  0
   40.1940   33.0580   40.1490 C   0  0  2  0  0  0  0  0  0  0  0  0
   39.8730   32.6300   38.8870 O   0  0  0  0  0  0  0  0  0  0  0  0
   38.5520   32.3190   38.8130 C   0  0  0  0  0  0  0  0  0  0  0  0
   37.8590   34.2840   39.3330 H   0  0  0  0  0  0  0  0  0  0  0  0
   38.7340   32.3490   41.5400 H   0  0  0  0  0  0  0  0  0  0  0  0
   38.8960   34.1750   41.5160 H   0  0  0  0  0  0  0  0  0  0  0  0
   40.7330   34.0250   40.0510 H   0  0  0  0  0  0  0  0  0  0  0  0
   38.1660   32.5830   37.7870 H   0  0  0  0  0  0  0  0  0  0  0  0
   38.2770   31.2720   38.9590 H   0  0  0  0  0  0  0  0  0  0  0  0
   36.6850   32.8350   40.2470 O   0  0  0  0  0  0  0  0  0  0  0  0
   36.1400   32.6690   39.4410 H   0  0  0  0  0  0  0  0  0  0  0  0
  1  6  2  0  0  0  0
  1  2  1  0  0  0  0
  2  3  2  0  0  0  0
  3  4  1  0  0  0  0
  3  8  1  0  0  0  0
  5  4  2  0  0  0  0
  5  9  1  0  0  0  0
  6  5  1  0  0  0  0
  7  2  1  0  0  0  0
  9 12  1  1  0  0  0
 10 11  1  0  0  0  0
 10 13  1  0  0  0  0
 10  9  1  0  0  0  0
 11  9  1  0  0  0  0
 11 15  1  1  0  0  0
 14 10  1  0  0  0  0
 16 11  1  0  0  0  0
 17 16  2  0  0  0  0
 17 18  1  0  0  0  0
 19 17  1  0  0  0  0
 20 19  1  0  0  0  0
 21 23  2  0  0  0  0
 21 19  1  0  0  0  0
 22 21  1  0  0  0  0
 23 16  1  0  0  0  0
 24 25  2  0  0  0  0
 24  1  1  0  0  0  0
 26 28  1  0  0  0  0
 26 25  1  0  0  0  0
 27 26  1  0  0  0  0
 29 34  1  6  0  0  0
 29 40  1  0  0  0  0
 29 30  1  0  0  0  0
 30 36  1  0  0  0  0
 30 35  1  0  0  0  0
 31 37  1  6  0  0  0
 31 26  1  0  0  0  0
 31 30  1  0  0  0  0
 32 31  1  0  0  0  0
 33 32  1  0  0  0  0
 33 39  1  0  0  0  0
 33 29  1  0  0  0  0
 38 33  1  0  0  0  0
 41 40  1  0  0  0  0
M  END
>  <minimizedAffinity>
-5.6151495

$$$$

 OpenBabel03242511373D

 41 44  0  0  1  0  0  0  0  0999 V2000
   38.6000   31.6670   40.3510 C   0  0  0  0  0  0  0  0  0  0  0  0
   37.9880   32.8970   40.0110 C   0  0  0  0  0  0  0  0  0  0  0  0
   38.6970   34.0910   40.1270 C   0  0  0  0  0  0  0  0  0  0  0  0
   39.9670   33.9700   40.5760 N   0  0  0  0  0  0  0  0  0  0  0  0
   40.5370   32.8000   40.8950 C   0  0  0  0  0  0  0  0  0  0  0  0
   39.8690   31.6700   40.7860 N   0  0  0  0  0  0  0  0  0  0  0  0
   36.9590   32.9160   39.6550 H   0  0  0  0  0  0  0  0  0  0  0  0
   38.2390   35.0280   39.8700 H   0  0  0  0  0  0  0  0  0  0  0  0
   41.9500   32.7590   41.3650 C   0  0  2  0  0  0  0  0  0  0  0  0
   42.8360   33.9170   41.3780 C   0  0  0  0  0  0  0  0  0  0  0  0
   43.0800   32.8990   40.3460 C   0  0  2  0  0  0  0  0  0  0  0  0
   42.0840   31.9300   42.1210 H   0  0  0  0  0  0  0  0  0  0  0  0
   43.5470   34.0220   42.2430 H   0  0  0  0  0  0  0  0  0  0  0  0
   42.4220   34.9020   41.0300 H   0  0  0  0  0  0  0  0  0  0  0  0
   43.9010   32.1630   40.5590 H   0  0  0  0  0  0  0  0  0  0  0  0
   42.7410   33.0850   38.9360 C   0  0  0  0  0  0  0  0  0  0  0  0
   42.6710   34.1600   38.1120 C   0  0  0  0  0  0  0  0  0  0  0  0
   42.9000   35.1840   38.4170 H   0  0  0  0  0  0  0  0  0  0  0  0
   42.3000   33.8790   36.8600 N   0  0  0  0  0  0  0  0  0  0  0  0
   42.1760   34.5200   36.0650 H   0  0  0  0  0  0  0  0  0  0  0  0
   42.1230   32.5460   36.8840 C   0  0  0  0  0  0  0  0  0  0  0  0
   41.8180   31.8910   36.0760 H   0  0  0  0  0  0  0  0  0  0  0  0
   42.3800   32.0690   38.1030 N   0  0  0  0  0  0  0  0  0  0  0  0
   37.8070   30.4440   40.2060 C   0  0  0  0  0  3  0  0  0  0  0  0
   36.9490   30.1480   41.1850 C   0  0  0  0  0  3  0  0  0  0  0  0
   36.1030   28.9350   41.1350 C   0  0  0  0  0  0  0  0  0  0  0  0
   36.1640   28.5310   40.1070 H   0  0  0  0  0  0  0  0  0  0  0  0
   35.0490   29.1900   41.3850 H   0  0  0  0  0  0  0  0  0  0  0  0
   38.4690   27.2030   43.2440 C   0  0  1  0  0  0  0  0  0  0  0  0
   37.5350   28.4130   43.1280 C   0  0  0  0  0  0  0  0  0  0  0  0
   36.5430   27.8960   42.1600 C   0  0  2  0  0  0  0  0  0  0  0  0
   37.0640   26.7910   41.5410 O   0  0  0  0  0  0  0  0  0  0  0  0
   38.3820   26.6520   41.8450 C   0  0  0  0  0  0  0  0  0  0  0  0
   38.0750   26.4730   43.9640 H   0  0  0  0  0  0  0  0  0  0  0  0
   38.1210   29.2470   42.6650 H   0  0  0  0  0  0  0  0  0  0  0  0
   37.1360   28.6980   44.1110 H   0  0  0  0  0  0  0  0  0  0  0  0
   35.6230   27.5800   42.6970 H   0  0  0  0  0  0  0  0  0  0  0  0
   38.6350   25.5560   41.9080 H   0  0  0  0  0  0  0  0  0  0  0  0
   39.1040   27.0700   41.1400 H   0  0  0  0  0  0  0  0  0  0  0  0
   39.7550   27.6280   43.5680 O   0  0  0  0  0  0  0  0  0  0  0  0
   40.3400   26.8490   43.4140 H   0  0  0  0  0  0  0  0  0  0  0  0
  1  6  1  0  0  0  0
  2  3  1  0  0  0  0
  2  1  2  0  0  0  0
  3  4  2  0  0  0  0
  4  5  1  0  0  0  0
  5  9  1  0  0  0  0
  6  5  2  0  0  0  0
  7  2  1  0  0  0  0
  8  3  1  0  0  0  0
  9 10  1  0  0  0  0
  9 12  1  1  0  0  0
 10 13  1  0  0  0  0
 11 15  1  1  0  0  0
 11  9  1  0  0  0  0
 11 10  1  0  0  0  0
 14 10  1  0  0  0  0
 16 11  1  0  0  0  0
 17 18  1  0  0  0  0
 17 16  2  0  0  0  0
 19 21  1  0  0  0  0
 19 17  1  0  0  0  0
 20 19  1  0  0  0  0
 21 23  2  0  0  0  0
 22 21  1  0  0  0  0
 23 16  1  0  0  0  0
 24  1  1  0  0  0  0
 24 25  2  0  0  0  0
 26 25  1  0  0  0  0
 26 28  1  0  0  0  0
 26 31  1  0  0  0  0
 27 26  1  0  0  0  0
 29 40  1  0  0  0  0
 29 34  1  1  0  0  0
 30 29  1  0  0  0  0
 30 36  1  0  0  0  0
 31 37  1  1  0  0  0
 31 30  1  0  0  0  0
 32 33  1  0  0  0  0
 32 31  1  0  0  0  0
 33 38  1  0  0  0  0
 33 29  1  0  0  0  0
 35 30  1  0  0  0  0
 39 33  1  0  0  0  0
 41 40  1  0  0  0  0
M  END
>  <minimizedAffinity>
-5.44068003

$$$$

 OpenBabel03242511373D

 41 44  0  0  1  0  0  0  0  0999 V2000
   37.2580   28.9240   42.0170 C   0  0  0  0  0  0  0  0  0  0  0  0
   36.0450   28.4850   41.4350 C   0  0  0  0  0  0  0  0  0  0  0  0
   35.3500   29.3090   40.5510 C   0  0  0  0  0  0  0  0  0  0  0  0
   35.9170   30.5130   40.3140 N   0  0  0  0  0  0  0  0  0  0  0  0
   37.0660   30.9200   40.8710 C   0  0  0  0  0  0  0  0  0  0  0  0
   37.7250   30.1430   41.7050 N   0  0  0  0  0  0  0  0  0  0  0  0
   35.6490   27.5000   41.6740 H   0  0  0  0  0  0  0  0  0  0  0  0
   34.4290   28.9820   40.1050 H   0  0  0  0  0  0  0  0  0  0  0  0
   37.6280   32.2590   40.5370 C   0  0  2  0  0  0  0  0  0  0  0  0
   37.1720   33.0750   39.4180 C   0  0  0  0  0  0  0  0  0  0  0  0
   38.4800   32.4190   39.2790 C   0  0  2  0  0  0  0  0  0  0  0  0
   38.0460   32.7470   41.4670 H   0  0  0  0  0  0  0  0  0  0  0  0
   37.1160   34.1870   39.5710 H   0  0  0  0  0  0  0  0  0  0  0  0
   36.3360   32.6780   38.7810 H   0  0  0  0  0  0  0  0  0  0  0  0
   39.3810   33.0560   39.4870 H   0  0  0  0  0  0  0  0  0  0  0  0
   38.7090   31.2520   38.4280 C   0  0  0  0  0  0  0  0  0  0  0  0
   38.0450   30.6970   37.3830 C   0  0  0  0  0  0  0  0  0  0  0  0
   37.1230   31.0990   36.9580 H   0  0  0  0  0  0  0  0  0  0  0  0
   38.6120   29.5940   36.8850 N   0  0  0  0  0  0  0  0  0  0  0  0
   38.2980   29.0040   36.1040 H   0  0  0  0  0  0  0  0  0  0  0  0
   39.7030   29.4360   37.6560 C   0  0  0  0  0  0  0  0  0  0  0  0
   40.4590   28.6610   37.6040 H   0  0  0  0  0  0  0  0  0  0  0  0
   39.7690   30.4070   38.5670 N   0  0  0  0  0  0  0  0  0  0  0  0
   37.9460   28.0150   42.9360 C   0  0  0  0  0  3  0  0  0  0  0  0
   39.2680   27.8860   42.7980 C   0  0  0  0  0  3  0  0  0  0  0  0
   40.0560   26.9920   43.6740 C   0  0  0  0  0  0  0  0  0  0  0  0
   39.4670   26.8280   44.5960 H   0  0  0  0  0  0  0  0  0  0  0  0
   41.0350   27.4610   43.9230 H   0  0  0  0  0  0  0  0  0  0  0  0
   39.7300   24.4490   41.1320 C   0  0  1  0  0  0  0  0  0  0  0  0
   40.4080   25.7690   41.5120 C   0  0  0  0  0  0  0  0  0  0  0  0
   40.3810   25.6700   42.9880 C   0  0  2  0  0  0  0  0  0  0  0  0
   39.4840   24.7000   43.3500 O   0  0  0  0  0  0  0  0  0  0  0  0
   38.7580   24.2980   42.2720 C   0  0  0  0  0  0  0  0  0  0  0  0
   40.4530   23.6210   41.1380 H   0  0  0  0  0  0  0  0  0  0  0  0
   39.7400   26.6000   41.1740 H   0  0  0  0  0  0  0  0  0  0  0  0
   41.4060   25.8440   41.0590 H   0  0  0  0  0  0  0  0  0  0  0  0
   41.3810   25.3630   43.3630 H   0  0  0  0  0  0  0  0  0  0  0  0
   38.5320   23.1980   42.3670 H   0  0  0  0  0  0  0  0  0  0  0  0
   37.7880   24.7760   42.1170 H   0  0  0  0  0  0  0  0  0  0  0  0
   39.0890   24.5840   39.9020 O   0  0  0  0  0  0  0  0  0  0  0  0
   38.5020   23.7950   39.8190 H   0  0  0  0  0  0  0  0  0  0  0  0
  1 24  1  0  0  0  0
  2  7  1  0  0  0  0
  2  1  2  0  0  0  0
  3  2  1  0  0  0  0
  4  3  2  0  0  0  0
  4  5  1  0  0  0  0
  5  6  2  0  0  0  0
  6  1  1  0  0  0  0
  8  3  1  0  0  0  0
  9  5  1  0  0  0  0
  9 12  1  1  0  0  0
 10 13  1  0  0  0  0
 10  9  1  0  0  0  0
 11 10  1  0  0  0  0
 11 15  1  1  0  0  0
 11  9  1  0  0  0  0
 14 10  1  0  0  0  0
 16 23  1  0  0  0  0
 16 11  1  0  0  0  0
 17 16  2  0  0  0  0
 18 17  1  0  0  0  0
 19 17  1  0  0  0  0
 19 21  1  0  0  0  0
 20 19  1  0  0  0  0
 21 23  2  0  0  0  0
 22 21  1  0  0  0  0
 25 24  2  0  0  0  0
 25 26  1  0  0  0  0
 26 28  1  0  0  0  0
 26 27  1  0  0  0  0
 29 34  1  6  0  0  0
 29 30  1  0  0  0  0
 29 33  1  0  0  0  0
 30 31  1  0  0  0  0
 31 32  1  0  0  0  0
 31 37  1  1  0  0  0
 31 26  1  0  0  0  0
 33 38  1  0  0  0  0
 33 32  1  0  0  0  0
 35 30  1  0  0  0  0
 36 30  1  0  0  0  0
 39 33  1  0  0  0  0
 40 29  1  0  0  0  0
 41 40  1  0  0  0  0
M  END
>  <minimizedAffinity>
-5.38347197

$$$$

 OpenBabel03242511373D

 41 44  0  0  1  0  0  0  0  0999 V2000
   35.5790   29.4630   40.2110 C   0  0  0  0  0  0  0  0  0  0  0  0
   36.0620   28.6220   41.2420 C   0  0  0  0  0  0  0  0  0  0  0  0
   37.1000   29.0480   42.0690 C   0  0  0  0  0  0  0  0  0  0  0  0
   37.5810   30.2830   41.8050 N   0  0  0  0  0  0  0  0  0  0  0  0
   37.1170   31.0720   40.8270 C   0  0  0  0  0  0  0  0  0  0  0  0
   36.1350   30.6720   40.0450 N   0  0  0  0  0  0  0  0  0  0  0  0
   35.6230   27.6380   41.3950 H   0  0  0  0  0  0  0  0  0  0  0  0
   37.4710   28.4140   42.8530 H   0  0  0  0  0  0  0  0  0  0  0  0
   37.6960   32.4290   40.6200 C   0  0  2  0  0  0  0  0  0  0  0  0
   37.3800   33.2820   39.4800 C   0  0  0  0  0  0  0  0  0  0  0  0
   38.7050   32.6460   39.4930 C   0  0  2  0  0  0  0  0  0  0  0  0
   37.9800   32.8860   41.6140 H   0  0  0  0  0  0  0  0  0  0  0  0
   37.2860   34.3870   39.6640 H   0  0  0  0  0  0  0  0  0  0  0  0
   36.6410   32.9000   38.7240 H   0  0  0  0  0  0  0  0  0  0  0  0
   39.5600   33.2850   39.8410 H   0  0  0  0  0  0  0  0  0  0  0  0
   39.0630   31.5150   38.6370 C   0  0  0  0  0  0  0  0  0  0  0  0
   38.5580   30.9980   37.4890 C   0  0  0  0  0  0  0  0  0  0  0  0
   37.7000   31.4120   36.9540 H   0  0  0  0  0  0  0  0  0  0  0  0
   39.2000   29.9190   37.0340 N   0  0  0  0  0  0  0  0  0  0  0  0
   39.0050   29.3580   36.1940 H   0  0  0  0  0  0  0  0  0  0  0  0
   40.1740   29.7350   37.9440 C   0  0  0  0  0  0  0  0  0  0  0  0
   40.9370   28.9660   37.9690 H   0  0  0  0  0  0  0  0  0  0  0  0
   40.1010   30.6700   38.8920 N   0  0  0  0  0  0  0  0  0  0  0  0
   34.4840   28.9640   39.3760 C   0  0  0  0  0  3  0  0  0  0  0  0
   34.6260   29.0650   38.0520 C   0  0  0  0  0  3  0  0  0  0  0  0
   33.5780   28.5920   37.1210 C   0  0  0  0  0  0  0  0  0  0  0  0
   32.8280   29.4000   37.0280 H   0  0  0  0  0  0  0  0  0  0  0  0
   33.0990   27.6690   37.5170 H   0  0  0  0  0  0  0  0  0  0  0  0
   36.1320   28.4390   34.5730 C   0  0  1  0  0  0  0  0  0  0  0  0
   35.5630   27.7670   35.8270 C   0  0  0  0  0  0  0  0  0  0  0  0
   34.1570   28.2210   35.7610 C   0  0  2  0  0  0  0  0  0  0  0  0
   34.0730   29.2770   34.8910 O   0  0  0  0  0  0  0  0  0  0  0  0
   35.3160   29.7040   34.5420 C   0  0  0  0  0  0  0  0  0  0  0  0
   35.9290   27.8350   33.6790 H   0  0  0  0  0  0  0  0  0  0  0  0
   36.0690   28.2250   36.7140 H   0  0  0  0  0  0  0  0  0  0  0  0
   35.7130   26.6790   35.7940 H   0  0  0  0  0  0  0  0  0  0  0  0
   33.5160   27.4050   35.3630 H   0  0  0  0  0  0  0  0  0  0  0  0
   35.3000   30.0570   33.4720 H   0  0  0  0  0  0  0  0  0  0  0  0
   35.7350   30.5370   35.1110 H   0  0  0  0  0  0  0  0  0  0  0  0
   37.4920   28.6890   34.7470 O   0  0  0  0  0  0  0  0  0  0  0  0
   37.7460   29.3040   34.0190 H   0  0  0  0  0  0  0  0  0  0  0  0
  1  2  1  0  0  0  0
  2  7  1  0  0  0  0
  2  3  2  0  0  0  0
  3  8  1  0  0  0  0
  4  3  1  0  0  0  0
  5  4  2  0  0  0  0
  6  1  2  0  0  0  0
  6  5  1  0  0  0  0
  9  5  1  0  0  0  0
  9 12  1  1  0  0  0
 10 11  1  0  0  0  0
 10 13  1  0  0  0  0
 10  9  1  0  0  0  0
 11 15  1  1  0  0  0
 11  9  1  0  0  0  0
 14 10  1  0  0  0  0
 16 23  1  0  0  0  0
 16 11  1  0  0  0  0
 17 16  2  0  0  0  0
 18 17  1  0  0  0  0
 19 17  1  0  0  0  0
 19 21  1  0  0  0  0
 20 19  1  0  0  0  0
 21 22  1  0  0  0  0
 21 23  2  0  0  0  0
 24  1  1  0  0  0  0
 25 24  2  0  0  0  0
 26 28  1  0  0  0  0
 26 25  1  0  0  0  0
 27 26  1  0  0  0  0
 29 34  1  6  0  0  0
 29 40  1  0  0  0  0
 29 30  1  0  0  0  0
 30 35  1  0  0  0  0
 31 37  1  6  0  0  0
 31 30  1  0  0  0  0
 31 26  1  0  0  0  0
 32 31  1  0  0  0  0
 33 29  1  0  0  0  0
 33 32  1  0  0  0  0
 33 39  1  0  0  0  0
 36 30  1  0  0  0  0
 38 33  1  0  0  0  0
 41 40  1  0  0  0  0
M  END
>  <minimizedAffinity>
-5.28983784

$$$$

 OpenBabel03242511373D

 41 44  0  0  1  0  0  0  0  0999 V2000
   41.1040   26.7810   41.3210 C   0  0  0  0  0  0  0  0  0  0  0  0
   41.8590   26.8210   42.5180 C   0  0  0  0  0  0  0  0  0  0  0  0
   41.3860   26.1940   43.6690 C   0  0  0  0  0  0  0  0  0  0  0  0
   40.1920   25.5730   43.5420 N   0  0  0  0  0  0  0  0  0  0  0  0
   39.4850   25.5400   42.4040 C   0  0  0  0  0  0  0  0  0  0  0  0
   39.9310   26.1320   41.3140 N   0  0  0  0  0  0  0  0  0  0  0  0
   42.8140   27.3420   42.5440 H   0  0  0  0  0  0  0  0  0  0  0  0
   41.9540   26.2210   44.5810 H   0  0  0  0  0  0  0  0  0  0  0  0
   38.1850   24.8150   42.3500 C   0  0  2  0  0  0  0  0  0  0  0  0
   37.2520   24.9030   41.2330 C   0  0  0  0  0  0  0  0  0  0  0  0
   36.8830   25.6060   42.4700 C   0  0  2  0  0  0  0  0  0  0  0  0
   38.2370   23.8760   42.9770 H   0  0  0  0  0  0  0  0  0  0  0  0
   36.7040   23.9680   40.9340 H   0  0  0  0  0  0  0  0  0  0  0  0
   37.5390   25.5410   40.3540 H   0  0  0  0  0  0  0  0  0  0  0  0
   36.1570   25.0790   43.1450 H   0  0  0  0  0  0  0  0  0  0  0  0
   36.9510   27.0590   42.6210 C   0  0  0  0  0  0  0  0  0  0  0  0
   37.0900   27.8970   43.6790 C   0  0  0  0  0  0  0  0  0  0  0  0
   37.1990   27.5660   44.7150 H   0  0  0  0  0  0  0  0  0  0  0  0
   37.0930   29.1950   43.3650 N   0  0  0  0  0  0  0  0  0  0  0  0
   37.1830   30.0090   43.9880 H   0  0  0  0  0  0  0  0  0  0  0  0
   36.9480   29.1880   42.0280 C   0  0  0  0  0  0  0  0  0  0  0  0
   36.8980   30.0320   41.3500 H   0  0  0  0  0  0  0  0  0  0  0  0
   36.8630   27.9340   41.5810 N   0  0  0  0  0  0  0  0  0  0  0  0
   41.6530   27.4540   40.1420 C   0  0  0  0  0  3  0  0  0  0  0  0
   41.8770   28.7670   40.2330 C   0  0  0  0  0  3  0  0  0  0  0  0
   42.4280   29.5410   39.0990 C   0  0  0  0  0  0  0  0  0  0  0  0
   42.1600   29.0040   38.1700 H   0  0  0  0  0  0  0  0  0  0  0  0
   43.5340   29.6220   39.1890 H   0  0  0  0  0  0  0  0  0  0  0  0
   40.6750   32.3710   37.7000 C   0  0  1  0  0  0  0  0  0  0  0  0
   40.5350   31.0810   38.5150 C   0  0  0  0  0  0  0  0  0  0  0  0
   41.8980   30.9700   39.0790 C   0  0  2  0  0  0  0  0  0  0  0  0
   42.7370   31.7910   38.3720 O   0  0  0  0  0  0  0  0  0  0  0  0
   42.1120   32.2680   37.2630 C   0  0  0  0  0  0  0  0  0  0  0  0
   40.5350   33.2540   38.3380 H   0  0  0  0  0  0  0  0  0  0  0  0
   40.3520   30.2450   37.7940 H   0  0  0  0  0  0  0  0  0  0  0  0
   39.7230   31.1650   39.2500 H   0  0  0  0  0  0  0  0  0  0  0  0
   41.8980   31.3170   40.1350 H   0  0  0  0  0  0  0  0  0  0  0  0
   42.4680   33.3180   37.0590 H   0  0  0  0  0  0  0  0  0  0  0  0
   42.2710   31.7270   36.3280 H   0  0  0  0  0  0  0  0  0  0  0  0
   39.7890   32.3480   36.6240 O   0  0  0  0  0  0  0  0  0  0  0  0
   40.0740   33.0810   36.0280 H   0  0  0  0  0  0  0  0  0  0  0  0
  1  2  1  0  0  0  0
  2  7  1  0  0  0  0
  2  3  2  0  0  0  0
  3  8  1  0  0  0  0
  4  3  1  0  0  0  0
  5  4  2  0  0  0  0
  6  1  2  0  0  0  0
  6  5  1  0  0  0  0
  9  5  1  0  0  0  0
  9 11  1  0  0  0  0
  9 12  1  1  0  0  0
 10  9  1  0  0  0  0
 10 11  1  0  0  0  0
 11 16  1  0  0  0  0
 11 15  1  1  0  0  0
 13 10  1  0  0  0  0
 14 10  1  0  0  0  0
 16 17  2  0  0  0  0
 17 18  1  0  0  0  0
 19 17  1  0  0  0  0
 19 20  1  0  0  0  0
 21 19  1  0  0  0  0
 22 21  1  0  0  0  0
 23 21  2  0  0  0  0
 23 16  1  0  0  0  0
 24 25  2  0  0  0  0
 24  1  1  0  0  0  0
 26 28  1  0  0  0  0
 26 25  1  0  0  0  0
 27 26  1  0  0  0  0
 29 34  1  1  0  0  0
 29 30  1  0  0  0  0
 30 31  1  0  0  0  0
 30 36  1  0  0  0  0
 31 26  1  0  0  0  0
 31 37  1  1  0  0  0
 32 31  1  0  0  0  0
 33 29  1  0  0  0  0
 33 32  1  0  0  0  0
 35 30  1  0  0  0  0
 38 33  1  0  0  0  0
 39 33  1  0  0  0  0
 40 29  1  0  0  0  0
 41 40  1  0  0  0  0
M  END
>  <minimizedAffinity>
-5.26379156

$$$$

 OpenBabel03242511373D

 41 44  0  0  1  0  0  0  0  0999 V2000
   39.6040   29.7890   42.4270 C   0  0  0  0  0  0  0  0  0  0  0  0
   40.9750   30.0750   42.6300 C   0  0  0  0  0  0  0  0  0  0  0  0
   41.5230   31.2670   42.1590 C   0  0  0  0  0  0  0  0  0  0  0  0
   40.6610   32.0880   41.5180 N   0  0  0  0  0  0  0  0  0  0  0  0
   39.3640   31.8080   41.3310 C   0  0  0  0  0  0  0  0  0  0  0  0
   38.8440   30.6830   41.7760 N   0  0  0  0  0  0  0  0  0  0  0  0
   41.6090   29.3640   43.1570 H   0  0  0  0  0  0  0  0  0  0  0  0
   42.5630   31.4900   42.3100 H   0  0  0  0  0  0  0  0  0  0  0  0
   38.4820   32.7810   40.6280 C   0  0  2  0  0  0  0  0  0  0  0  0
   37.1760   32.4410   40.0750 C   0  0  0  0  0  0  0  0  0  0  0  0
   38.2750   32.6460   39.1190 C   0  0  2  0  0  0  0  0  0  0  0  0
   38.6920   33.8300   40.9920 H   0  0  0  0  0  0  0  0  0  0  0  0
   36.3570   33.2060   40.1600 H   0  0  0  0  0  0  0  0  0  0  0  0
   36.8060   31.3880   40.2040 H   0  0  0  0  0  0  0  0  0  0  0  0
   38.3190   33.6500   38.6200 H   0  0  0  0  0  0  0  0  0  0  0  0
   38.9390   31.5530   38.4100 C   0  0  0  0  0  0  0  0  0  0  0  0
   40.1270   31.4230   37.7680 C   0  0  0  0  0  0  0  0  0  0  0  0
   40.8700   32.2200   37.6840 H   0  0  0  0  0  0  0  0  0  0  0  0
   40.3420   30.2180   37.2320 N   0  0  0  0  0  0  0  0  0  0  0  0
   41.1590   29.8850   36.7030 H   0  0  0  0  0  0  0  0  0  0  0  0
   39.2270   29.5380   37.5510 C   0  0  0  0  0  0  0  0  0  0  0  0
   38.9730   28.5110   37.3150 H   0  0  0  0  0  0  0  0  0  0  0  0
   38.3940   30.3150   38.2440 N   0  0  0  0  0  0  0  0  0  0  0  0
   39.0830   28.5240   42.9470 C   0  0  0  0  0  3  0  0  0  0  0  0
   38.0190   27.9990   42.3350 C   0  0  0  0  0  3  0  0  0  0  0  0
   37.4150   26.7250   42.7830 C   0  0  0  0  0  0  0  0  0  0  0  0
   36.5080   26.9750   43.3650 H   0  0  0  0  0  0  0  0  0  0  0  0
   38.1340   26.1600   43.4180 H   0  0  0  0  0  0  0  0  0  0  0  0
   37.6210   23.7100   40.8070 C   0  0  1  0  0  0  0  0  0  0  0  0
   36.9320   24.3940   41.9930 C   0  0  0  0  0  0  0  0  0  0  0  0
   37.0810   25.8140   41.6080 C   0  0  2  0  0  0  0  0  0  0  0  0
   38.0360   25.9100   40.6300 O   0  0  0  0  0  0  0  0  0  0  0  0
   38.6860   24.7240   40.4830 C   0  0  0  0  0  0  0  0  0  0  0  0
   36.9290   23.6030   39.9610 H   0  0  0  0  0  0  0  0  0  0  0  0
   37.5420   24.1800   42.9050 H   0  0  0  0  0  0  0  0  0  0  0  0
   35.8980   24.0380   42.1060 H   0  0  0  0  0  0  0  0  0  0  0  0
   36.1250   26.1920   41.1840 H   0  0  0  0  0  0  0  0  0  0  0  0
   38.9550   24.5810   39.3980 H   0  0  0  0  0  0  0  0  0  0  0  0
   39.6230   24.5980   41.0290 H   0  0  0  0  0  0  0  0  0  0  0  0
   38.1560   22.4890   41.2120 O   0  0  0  0  0  0  0  0  0  0  0  0
   38.7600   22.2080   40.4840 H   0  0  0  0  0  0  0  0  0  0  0  0
  1  2  1  0  0  0  0
  1 24  1  0  0  0  0
  2  7  1  0  0  0  0
  3  8  1  0  0  0  0
  3  2  2  0  0  0  0
  4  3  1  0  0  0  0
  5  4  2  0  0  0  0
  5  6  1  0  0  0  0
  6  1  2  0  0  0  0
  9 12  1  1  0  0  0
  9  5  1  0  0  0  0
 10 13  1  0  0  0  0
 10 14  1  0  0  0  0
 10  9  1  0  0  0  0
 11 15  1  6  0  0  0
 11 10  1  0  0  0  0
 11  9  1  0  0  0  0
 16 11  1  0  0  0  0
 17 16  2  0  0  0  0
 18 17  1  0  0  0  0
 19 21  1  0  0  0  0
 19 17  1  0  0  0  0
 20 19  1  0  0  0  0
 21 23  2  0  0  0  0
 22 21  1  0  0  0  0
 23 16  1  0  0  0  0
 25 26  1  0  0  0  0
 25 24  2  0  0  0  0
 26 27  1  0  0  0  0
 26 28  1  0  0  0  0
 29 34  1  6  0  0  0
 29 40  1  0  0  0  0
 29 30  1  0  0  0  0
 30 36  1  0  0  0  0
 30 35  1  0  0  0  0
 31 37  1  6  0  0  0
 31 30  1  0  0  0  0
 31 26  1  0  0  0  0
 32 31  1  0  0  0  0
 33 32  1  0  0  0  0
 33 29  1  0  0  0  0
 33 39  1  0  0  0  0
 38 33  1  0  0  0  0
 41 40  1  0  0  0  0
M  END
>  <minimizedAffinity>
-5.22043848

$$$$

 OpenBabel03242511373D

 41 44  0  0  1  0  0  0  0  0999 V2000
   39.0490   30.9280   41.4600 C   0  0  0  0  0  0  0  0  0  0  0  0
   38.0470   31.5690   40.6940 C   0  0  0  0  0  0  0  0  0  0  0  0
   36.7260   31.1260   40.7510 C   0  0  0  0  0  0  0  0  0  0  0  0
   36.5030   30.0730   41.5690 N   0  0  0  0  0  0  0  0  0  0  0  0
   37.4590   29.4730   42.2910 C   0  0  0  0  0  0  0  0  0  0  0  0
   38.7080   29.8910   42.2390 N   0  0  0  0  0  0  0  0  0  0  0  0
   38.3020   32.4130   40.0560 H   0  0  0  0  0  0  0  0  0  0  0  0
   35.9610   31.6080   40.1720 H   0  0  0  0  0  0  0  0  0  0  0  0
   37.1190   28.3290   43.1820 C   0  0  2  0  0  0  0  0  0  0  0  0
   38.0860   27.3360   43.6350 C   0  0  0  0  0  0  0  0  0  0  0  0
   37.1210   26.9120   42.6100 C   0  0  2  0  0  0  0  0  0  0  0  0
   36.2240   28.5880   43.8220 H   0  0  0  0  0  0  0  0  0  0  0  0
   37.9910   26.9560   44.6880 H   0  0  0  0  0  0  0  0  0  0  0  0
   39.1550   27.4530   43.3070 H   0  0  0  0  0  0  0  0  0  0  0  0
   36.2310   26.3330   42.9750 H   0  0  0  0  0  0  0  0  0  0  0  0
   37.4730   26.7170   41.2050 C   0  0  0  0  0  0  0  0  0  0  0  0
   36.7680   26.6920   40.0450 C   0  0  0  0  0  0  0  0  0  0  0  0
   35.6880   26.8470   39.9800 H   0  0  0  0  0  0  0  0  0  0  0  0
   37.5020   26.4670   38.9520 N   0  0  0  0  0  0  0  0  0  0  0  0
   37.1950   26.4030   37.9720 H   0  0  0  0  0  0  0  0  0  0  0  0
   38.7490   26.3410   39.4390 C   0  0  0  0  0  0  0  0  0  0  0  0
   39.6680   26.1500   38.8990 H   0  0  0  0  0  0  0  0  0  0  0  0
   38.7420   26.4870   40.7650 N   0  0  0  0  0  0  0  0  0  0  0  0
   40.4180   31.4390   41.3630 C   0  0  0  0  0  3  0  0  0  0  0  0
   40.5750   32.7070   40.9730 C   0  0  0  0  0  3  0  0  0  0  0  0
   41.9150   33.3180   40.8420 C   0  0  0  0  0  0  0  0  0  0  0  0
   42.6310   32.6660   41.3760 H   0  0  0  0  0  0  0  0  0  0  0  0
   41.9190   34.3380   41.2890 H   0  0  0  0  0  0  0  0  0  0  0  0
   41.6900   32.7350   37.2850 C   0  0  1  0  0  0  0  0  0  0  0  0
   41.1600   33.5620   38.4620 C   0  0  0  0  0  0  0  0  0  0  0  0
   42.3160   33.4930   39.3820 C   0  0  2  0  0  0  0  0  0  0  0  0
   43.1430   32.4780   38.9790 O   0  0  0  0  0  0  0  0  0  0  0  0
   42.5410   31.7300   38.0150 C   0  0  0  0  0  0  0  0  0  0  0  0
   42.3140   33.3520   36.6240 H   0  0  0  0  0  0  0  0  0  0  0  0
   40.2920   33.0070   38.8990 H   0  0  0  0  0  0  0  0  0  0  0  0
   40.8710   34.5710   38.1360 H   0  0  0  0  0  0  0  0  0  0  0  0
   42.8950   34.4410   39.3300 H   0  0  0  0  0  0  0  0  0  0  0  0
   43.3210   31.3700   37.2850 H   0  0  0  0  0  0  0  0  0  0  0  0
   42.0160   30.8290   38.3380 H   0  0  0  0  0  0  0  0  0  0  0  0
   40.6280   32.1400   36.6090 O   0  0  0  0  0  0  0  0  0  0  0  0
   41.0330   31.4630   36.0170 H   0  0  0  0  0  0  0  0  0  0  0  0
  1  6  1  0  0  0  0
  2  3  1  0  0  0  0
  2  1  2  0  0  0  0
  3  4  2  0  0  0  0
  4  5  1  0  0  0  0
  5  9  1  0  0  0  0
  6  5  2  0  0  0  0
  7  2  1  0  0  0  0
  8  3  1  0  0  0  0
  9 10  1  0  0  0  0
  9 12  1  1  0  0  0
 10 13  1  0  0  0  0
 11 15  1  1  0  0  0
 11  9  1  0  0  0  0
 11 10  1  0  0  0  0
 14 10  1  0  0  0  0
 16 11  1  0  0  0  0
 17 16  2  0  0  0  0
 18 17  1  0  0  0  0
 19 21  1  0  0  0  0
 19 17  1  0  0  0  0
 20 19  1  0  0  0  0
 21 23  2  0  0  0  0
 22 21  1  0  0  0  0
 23 16  1  0  0  0  0
 24  1  1  0  0  0  0
 25 24  2  0  0  0  0
 26 25  1  0  0  0  0
 26 28  1  0  0  0  0
 26 27  1  0  0  0  0
 29 34  1  6  0  0  0
 29 33  1  0  0  0  0
 29 30  1  0  0  0  0
 30 35  1  0  0  0  0
 30 31  1  0  0  0  0
 31 37  1  6  0  0  0
 31 26  1  0  0  0  0
 32 31  1  0  0  0  0
 33 39  1  0  0  0  0
 33 32  1  0  0  0  0
 36 30  1  0  0  0  0
 38 33  1  0  0  0  0
 40 29  1  0  0  0  0
 41 40  1  0  0  0  0
M  END
>  <minimizedAffinity>
-5.18085384

$$$$

 OpenBabel03242511373D

 41 44  0  0  1  0  0  0  0  0999 V2000
   37.8090   31.8100   39.8450 C   0  0  0  0  0  0  0  0  0  0  0  0
   37.4820   33.1820   39.7270 C   0  0  0  0  0  0  0  0  0  0  0  0
   38.3860   34.1580   40.1430 C   0  0  0  0  0  0  0  0  0  0  0  0
   39.5510   33.6930   40.6480 N   0  0  0  0  0  0  0  0  0  0  0  0
   39.8500   32.3920   40.7560 C   0  0  0  0  0  0  0  0  0  0  0  0
   38.9990   31.4670   40.3630 N   0  0  0  0  0  0  0  0  0  0  0  0
   36.5230   33.4810   39.3090 H   0  0  0  0  0  0  0  0  0  0  0  0
   38.1440   35.2010   40.0560 H   0  0  0  0  0  0  0  0  0  0  0  0
   41.1670   31.9700   41.3090 C   0  0  2  0  0  0  0  0  0  0  0  0
   42.3000   32.8700   41.4880 C   0  0  0  0  0  0  0  0  0  0  0  0
   42.3800   31.9040   40.3820 C   0  0  2  0  0  0  0  0  0  0  0  0
   41.0350   31.0780   41.9910 H   0  0  0  0  0  0  0  0  0  0  0  0
   42.9390   32.7320   42.4020 H   0  0  0  0  0  0  0  0  0  0  0  0
   42.1650   33.9500   41.2080 H   0  0  0  0  0  0  0  0  0  0  0  0
   42.9810   30.9760   40.5760 H   0  0  0  0  0  0  0  0  0  0  0  0
   42.2170   32.2740   38.9770 C   0  0  0  0  0  0  0  0  0  0  0  0
   42.3300   33.4340   38.2830 C   0  0  0  0  0  0  0  0  0  0  0  0
   42.6100   34.3920   38.7280 H   0  0  0  0  0  0  0  0  0  0  0  0
   42.0770   33.3280   36.9750 N   0  0  0  0  0  0  0  0  0  0  0  0
   42.0970   34.0610   36.2530 H   0  0  0  0  0  0  0  0  0  0  0  0
   41.7850   32.0240   36.8240 C   0  0  0  0  0  0  0  0  0  0  0  0
   41.5170   31.4930   35.9180 H   0  0  0  0  0  0  0  0  0  0  0  0
   41.8650   31.3950   37.9970 N   0  0  0  0  0  0  0  0  0  0  0  0
   36.8230   30.8280   39.3890 C   0  0  0  0  0  3  0  0  0  0  0  0
   36.0470   30.2600   40.3140 C   0  0  0  0  0  3  0  0  0  0  0  0
   35.0210   29.2570   39.9570 C   0  0  0  0  0  0  0  0  0  0  0  0
   34.0440   29.6440   40.3030 H   0  0  0  0  0  0  0  0  0  0  0  0
   35.2440   28.2850   40.4510 H   0  0  0  0  0  0  0  0  0  0  0  0
   33.8460   27.6770   36.9300 C   0  0  1  0  0  0  0  0  0  0  0  0
   33.6350   28.8380   37.9080 C   0  0  0  0  0  0  0  0  0  0  0  0
   35.0010   28.9770   38.4590 C   0  0  2  0  0  0  0  0  0  0  0  0
   35.7140   27.8440   38.1660 O   0  0  0  0  0  0  0  0  0  0  0  0
   34.8920   26.8820   37.6650 C   0  0  0  0  0  0  0  0  0  0  0  0
   34.2470   28.0380   35.9740 H   0  0  0  0  0  0  0  0  0  0  0  0
   32.9370   28.4820   38.7060 H   0  0  0  0  0  0  0  0  0  0  0  0
   33.2390   29.7220   37.3900 H   0  0  0  0  0  0  0  0  0  0  0  0
   35.5160   29.8340   37.9750 H   0  0  0  0  0  0  0  0  0  0  0  0
   35.4520   26.2830   36.8920 H   0  0  0  0  0  0  0  0  0  0  0  0
   34.5010   26.1440   38.3690 H   0  0  0  0  0  0  0  0  0  0  0  0
   32.6560   26.9700   36.7730 O   0  0  0  0  0  0  0  0  0  0  0  0
   32.9030   26.1280   36.3200 H   0  0  0  0  0  0  0  0  0  0  0  0
  1  6  1  0  0  0  0
  2  1  2  0  0  0  0
  2  3  1  0  0  0  0
  3  4  2  0  0  0  0
  4  5  1  0  0  0  0
  5  9  1  0  0  0  0
  6  5  2  0  0  0  0
  7  2  1  0  0  0  0
  8  3  1  0  0  0  0
  9 10  1  0  0  0  0
  9 12  1  1  0  0  0
 10 13  1  0  0  0  0
 11 15  1  1  0  0  0
 11  9  1  0  0  0  0
 11 10  1  0  0  0  0
 14 10  1  0  0  0  0
 16 11  1  0  0  0  0
 17 18  1  0  0  0  0
 17 16  2  0  0  0  0
 19 17  1  0  0  0  0
 20 19  1  0  0  0  0
 21 19  1  0  0  0  0
 21 23  2  0  0  0  0
 22 21  1  0  0  0  0
 23 16  1  0  0  0  0
 24  1  1  0  0  0  0
 24 25  2  0  0  0  0
 26 27  1  0  0  0  0
 26 25  1  0  0  0  0
 26 28  1  0  0  0  0
 29 34  1  6  0  0  0
 29 33  1  0  0  0  0
 29 30  1  0  0  0  0
 30 31  1  0  0  0  0
 30 35  1  0  0  0  0
 31 37  1  6  0  0  0
 31 26  1  0  0  0  0
 32 31  1  0  0  0  0
 33 32  1  0  0  0  0
 33 39  1  0  0  0  0
 36 30  1  0  0  0  0
 38 33  1  0  0  0  0
 40 29  1  0  0  0  0
 41 40  1  0  0  0  0
M  END
>  <minimizedAffinity>
-5.09824514

$$$$
