
 OpenBabel03252508343D

 34 36  0  0  1  0  0  0  0  0999 V2000
   45.3610   34.3790   41.9850 N   0  0  0  0  0  0  0  0  0  0  0  0
   46.6110   33.9850   41.3960 C   0  0  1  0  0  0  0  0  0  0  0  0
   46.6280   33.9360   39.9170 C   0  0  0  0  0  0  0  0  0  0  0  0
   45.4570   33.5010   39.2880 N   0  0  0  0  0  0  0  0  0  0  0  0
   44.2200   33.7510   39.9200 C   0  0  0  0  0  0  0  0  0  0  0  0
   44.3550   34.7560   41.0410 C   0  0  0  0  0  0  0  0  0  0  0  0
   46.8860   32.9600   41.7820 H   0  0  0  0  0  0  0  0  0  0  0  0
   47.4940   33.2850   39.6010 H   0  0  0  0  0  0  0  0  0  0  0  0
   46.9040   34.9440   39.5390 H   0  0  0  0  0  0  0  0  0  0  0  0
   45.5300   32.5790   38.8240 H   0  0  0  0  0  0  0  0  0  0  0  0
   43.8260   32.8180   40.3890 H   0  0  0  0  0  0  0  0  0  0  0  0
   43.4290   34.1390   39.2320 H   0  0  0  0  0  0  0  0  0  0  0  0
   44.5800   35.7840   40.6340 H   0  0  0  0  0  0  0  0  0  0  0  0
   43.3900   34.8210   41.5650 H   0  0  0  0  0  0  0  0  0  0  0  0
   44.6710   35.4720   43.9770 C   0  0  0  0  0  0  0  0  0  0  0  0
   45.2640   34.3530   43.3830 C   0  0  0  0  0  0  0  0  0  0  0  0
   45.7040   33.3190   44.2160 C   0  0  0  0  0  0  0  0  0  0  0  0
   45.5470   33.4220   45.5590 N   0  0  0  0  0  0  0  0  0  0  0  0
   44.9760   34.5080   46.0990 C   0  0  0  0  0  0  0  0  0  0  0  0
   44.5380   35.5270   45.3350 N   0  0  0  0  0  0  0  0  0  0  0  0
   44.3160   36.2960   43.3750 H   0  0  0  0  0  0  0  0  0  0  0  0
   46.1550   32.4700   43.7320 H   0  0  0  0  0  0  0  0  0  0  0  0
   44.8070   34.6850   47.1390 H   0  0  0  0  0  0  0  0  0  0  0  0
   47.6680   34.9740   41.8400 C   0  0  0  0  0  0  0  0  0  0  0  0
   47.2700   35.4720   42.7530 H   0  0  0  0  0  0  0  0  0  0  0  0
   47.7560   35.7550   41.0590 H   0  0  0  0  0  0  0  0  0  0  0  0
   48.9600   34.3010   42.1120 C   0  0  0  0  0  0  0  0  0  0  0  0
   50.1660   34.8090   42.5270 C   0  0  0  0  0  0  0  0  0  0  0  0
   50.3600   35.8460   42.7310 H   0  0  0  0  0  0  0  0  0  0  0  0
   51.0460   33.7730   42.6290 N   0  0  0  0  0  0  0  0  0  0  0  0
   52.0480   33.8100   42.9190 H   0  0  0  0  0  0  0  0  0  0  0  0
   50.3970   32.6370   42.2810 C   0  0  0  0  0  0  0  0  0  0  0  0
   50.7420   31.6120   42.2330 H   0  0  0  0  0  0  0  0  0  0  0  0
   49.1310   32.9550   41.9670 N   0  0  0  0  0  0  0  0  0  0  0  0
  1 16  1  0  0  0  0
  2  7  1  1  0  0  0
  2 24  1  0  0  0  0
  2  1  1  0  0  0  0
  3  2  1  0  0  0  0
  4  3  1  0  0  0  0
  4  5  1  0  0  0  0
  5 11  1  0  0  0  0
  5  6  1  0  0  0  0
  6 14  1  0  0  0  0
  6  1  1  0  0  0  0
  8  3  1  0  0  0  0
  9  3  1  0  0  0  0
 10  4  1  0  0  0  0
 12  5  1  0  0  0  0
 13  6  1  0  0  0  0
 15 20  1  0  0  0  0
 16 15  2  0  0  0  0
 16 17  1  0  0  0  0
 17 18  2  0  0  0  0
 18 19  1  0  0  0  0
 19 23  1  0  0  0  0
 20 19  2  0  0  0  0
 21 15  1  0  0  0  0
 22 17  1  0  0  0  0
 24 27  1  0  0  0  0
 24 25  1  0  0  0  0
 26 24  1  0  0  0  0
 27 28  2  0  0  0  0
 28 30  1  0  0  0  0
 28 29  1  0  0  0  0
 30 31  1  0  0  0  0
 32 30  1  0  0  0  0
 33 32  1  0  0  0  0
 34 27  1  0  0  0  0
 34 32  2  0  0  0  0
M  END
>  <minimizedAffinity>
-5.12338257

>  <minimizedRMSD>
1.00140977

$$$$
