
 OpenBabel03252503253D

 46 51  0  0  1  0  0  0  0  0999 V2000
   34.5790   29.1940   37.8730 C   0  0  1  0  0  0  0  0  0  0  0  0
   34.4700   28.5120   36.5860 C   0  0  0  0  0  0  0  0  0  0  0  0
   33.2750   28.5350   37.4610 C   0  0  2  0  0  0  0  0  0  0  0  0
   34.5710   30.2970   37.9190 H   0  0  0  0  0  0  0  0  0  0  0  0
   34.9680   27.4890   36.5530 H   0  0  0  0  0  0  0  0  0  0  0  0
   34.6430   29.0960   35.6980 H   0  0  0  0  0  0  0  0  0  0  0  0
   32.9280   27.6860   38.0600 H   0  0  0  0  0  0  0  0  0  0  0  0
   32.1940   29.4930   37.1050 C   0  0  0  0  0  0  0  0  0  0  0  0
   31.2290   29.9340   37.9850 C   0  0  0  0  0  0  0  0  0  0  0  0
   30.2490   30.8230   37.5840 C   0  0  0  0  0  0  0  0  0  0  0  0
   30.2170   31.2860   36.2920 C   0  0  0  0  0  0  0  0  0  0  0  0
   29.2710   32.1620   35.8640 N   0  0  0  0  0  0  0  0  0  0  0  0
   29.2630   32.6100   34.5750 C   0  0  0  0  0  0  0  0  0  0  0  0
   30.2090   32.2040   33.6330 C   0  0  0  0  0  0  0  0  0  0  0  0
   31.1790   31.3210   34.0250 C   0  0  0  0  0  0  0  0  0  0  0  0
   31.1690   30.8730   35.3520 C   0  0  0  0  0  0  0  0  0  0  0  0
   32.1280   29.9850   35.8020 C   0  0  0  0  0  0  0  0  0  0  0  0
   31.2680   29.5610   38.9990 H   0  0  0  0  0  0  0  0  0  0  0  0
   29.4940   31.1660   38.2790 H   0  0  0  0  0  0  0  0  0  0  0  0
   28.5330   33.3030   34.1990 H   0  0  0  0  0  0  0  0  0  0  0  0
   30.1920   32.5650   32.6200 H   0  0  0  0  0  0  0  0  0  0  0  0
   31.9270   30.9810   33.3300 H   0  0  0  0  0  0  0  0  0  0  0  0
   32.8270   29.7040   35.0270 H   0  0  0  0  0  0  0  0  0  0  0  0
   35.1990   29.1370   40.3130 C   0  0  0  0  0  0  0  0  0  0  0  0
   35.3190   28.5630   39.0050 C   0  0  0  0  0  0  0  0  0  0  0  0
   36.1160   27.4590   38.8550 C   0  0  0  0  0  0  0  0  0  0  0  0
   36.7480   26.9750   39.9600 N   0  0  0  0  0  0  0  0  0  0  0  0
   36.6220   27.5340   41.1930 C   0  0  0  0  0  0  0  0  0  0  0  0
   35.8470   28.6140   41.3650 N   0  0  0  0  0  0  0  0  0  0  0  0
   34.5690   30.0040   40.4190 H   0  0  0  0  0  0  0  0  0  0  0  0
   36.2320   26.9980   37.8850 H   0  0  0  0  0  0  0  0  0  0  0  0
   37.3580   26.9020   42.3170 C   0  0  2  0  0  0  0  0  0  0  0  0
   37.6110   27.5970   43.5660 C   0  0  0  0  0  0  0  0  0  0  0  0
   38.7570   27.5350   42.5850 C   0  0  2  0  0  0  0  0  0  0  0  0
   37.3700   25.7960   42.2470 H   0  0  0  0  0  0  0  0  0  0  0  0
   37.7740   26.9880   44.4760 H   0  0  0  0  0  0  0  0  0  0  0  0
   37.1180   28.5550   43.7480 H   0  0  0  0  0  0  0  0  0  0  0  0
   39.5600   26.8180   42.7400 H   0  0  0  0  0  0  0  0  0  0  0  0
   39.0600   28.8210   41.9050 C   0  0  0  0  0  0  0  0  0  0  0  0
   38.9760   30.0130   42.6340 C   0  0  0  0  0  0  0  0  0  0  0  0
   38.7250   30.2750   43.6630 H   0  0  0  0  0  0  0  0  0  0  0  0
   39.2870   31.0460   41.8300 N   0  0  0  0  0  0  0  0  0  0  0  0
   39.3540   32.0830   41.9390 H   0  0  0  0  0  0  0  0  0  0  0  0
   39.5630   30.5460   40.6250 C   0  0  0  0  0  0  0  0  0  0  0  0
   39.8620   30.8860   39.6250 H   0  0  0  0  0  0  0  0  0  0  0  0
   39.4220   29.2180   40.6920 N   0  0  0  0  0  0  0  0  0  0  0  0
  1  4  1  6  0  0  0
  1 25  1  0  0  0  0
  2  3  1  0  0  0  0
  2  1  1  0  0  0  0
  3  1  1  0  0  0  0
  3  7  1  1  0  0  0
  5  2  1  0  0  0  0
  6  2  1  0  0  0  0
  8  3  1  0  0  0  0
  8  9  1  0  0  0  0
  9 18  1  0  0  0  0
 10  9  2  0  0  0  0
 10 19  1  0  0  0  0
 11 10  1  0  0  0  0
 12 11  1  0  0  0  0
 13 12  2  0  0  0  0
 14 15  2  0  0  0  0
 14 13  1  0  0  0  0
 15 16  1  0  0  0  0
 16 17  1  0  0  0  0
 16 11  2  0  0  0  0
 17  8  2  0  0  0  0
 20 13  1  0  0  0  0
 21 14  1  0  0  0  0
 22 15  1  0  0  0  0
 23 17  1  0  0  0  0
 24 30  1  0  0  0  0
 24 29  1  0  0  0  0
 25 24  2  0  0  0  0
 26 25  1  0  0  0  0
 26 27  2  0  0  0  0
 27 28  1  0  0  0  0
 28 29  2  0  0  0  0
 28 32  1  0  0  0  0
 31 26  1  0  0  0  0
 32 35  1  1  0  0  0
 32 34  1  0  0  0  0
 32 33  1  0  0  0  0
 33 37  1  0  0  0  0
 33 36  1  0  0  0  0
 34 38  1  1  0  0  0
 34 33  1  0  0  0  0
 39 34  1  0  0  0  0
 39 40  2  0  0  0  0
 40 41  1  0  0  0  0
 42 43  1  0  0  0  0
 42 40  1  0  0  0  0
 44 46  2  0  0  0  0
 44 42  1  0  0  0  0
 45 44  1  0  0  0  0
 46 39  1  0  0  0  0
M  END
>  <minimizedAffinity>
-6.65932465

$$$$

 OpenBabel03252503253D

 46 51  0  0  1  0  0  0  0  0999 V2000
   35.1650   28.8400   37.7600 C   0  0  1  0  0  0  0  0  0  0  0  0
   35.2720   28.0020   36.5680 C   0  0  0  0  0  0  0  0  0  0  0  0
   33.9380   28.1450   37.1970 C   0  0  2  0  0  0  0  0  0  0  0  0
   35.1840   29.9400   37.6680 H   0  0  0  0  0  0  0  0  0  0  0  0
   35.7350   26.9790   36.7540 H   0  0  0  0  0  0  0  0  0  0  0  0
   35.6240   28.4680   35.6640 H   0  0  0  0  0  0  0  0  0  0  0  0
   33.4610   27.3820   37.8200 H   0  0  0  0  0  0  0  0  0  0  0  0
   32.9730   29.0600   36.5320 C   0  0  0  0  0  0  0  0  0  0  0  0
   33.0190   29.3970   35.1960 C   0  0  0  0  0  0  0  0  0  0  0  0
   32.0900   30.2600   34.6430 C   0  0  0  0  0  0  0  0  0  0  0  0
   31.0980   30.8030   35.4200 C   0  0  0  0  0  0  0  0  0  0  0  0
   30.1670   31.6510   34.9120 N   0  0  0  0  0  0  0  0  0  0  0  0
   29.1870   32.1750   35.7040 C   0  0  0  0  0  0  0  0  0  0  0  0
   29.0830   31.8760   37.0640 C   0  0  0  0  0  0  0  0  0  0  0  0
   30.0020   31.0260   37.6150 C   0  0  0  0  0  0  0  0  0  0  0  0
   31.0000   30.5000   36.7840 C   0  0  0  0  0  0  0  0  0  0  0  0
   31.9500   29.6330   37.2880 C   0  0  0  0  0  0  0  0  0  0  0  0
   33.8060   28.9620   34.5970 H   0  0  0  0  0  0  0  0  0  0  0  0
   32.1320   30.5210   33.5940 H   0  0  0  0  0  0  0  0  0  0  0  0
   28.4340   32.8480   35.3390 H   0  0  0  0  0  0  0  0  0  0  0  0
   28.3050   32.2960   37.6780 H   0  0  0  0  0  0  0  0  0  0  0  0
   29.9580   30.7700   38.6590 H   0  0  0  0  0  0  0  0  0  0  0  0
   31.8200   29.4460   38.3450 H   0  0  0  0  0  0  0  0  0  0  0  0
   35.4060   29.1360   40.2490 C   0  0  0  0  0  0  0  0  0  0  0  0
   35.6640   28.3500   39.0780 C   0  0  0  0  0  0  0  0  0  0  0  0
   36.3660   27.1830   39.2260 C   0  0  0  0  0  0  0  0  0  0  0  0
   36.7770   26.8410   40.4790 N   0  0  0  0  0  0  0  0  0  0  0  0
   36.5220   27.6010   41.5780 C   0  0  0  0  0  0  0  0  0  0  0  0
   35.8370   28.7470   41.4590 N   0  0  0  0  0  0  0  0  0  0  0  0
   34.8530   30.0520   40.1210 H   0  0  0  0  0  0  0  0  0  0  0  0
   36.5800   26.5630   38.3680 H   0  0  0  0  0  0  0  0  0  0  0  0
   37.0180   27.1100   42.8880 C   0  0  2  0  0  0  0  0  0  0  0  0
   37.2350   27.9960   44.0160 C   0  0  0  0  0  0  0  0  0  0  0  0
   38.4610   27.5910   43.2330 C   0  0  2  0  0  0  0  0  0  0  0  0
   36.8650   26.0200   43.0180 H   0  0  0  0  0  0  0  0  0  0  0  0
   37.1970   27.5610   45.0350 H   0  0  0  0  0  0  0  0  0  0  0  0
   36.8810   29.0280   43.9550 H   0  0  0  0  0  0  0  0  0  0  0  0
   39.1180   26.8180   43.6240 H   0  0  0  0  0  0  0  0  0  0  0  0
   39.0360   28.6670   42.3850 C   0  0  0  0  0  0  0  0  0  0  0  0
   38.9830   29.9910   42.8350 C   0  0  0  0  0  0  0  0  0  0  0  0
   38.5960   30.4910   43.7250 H   0  0  0  0  0  0  0  0  0  0  0  0
   39.5550   30.7930   41.9200 N   0  0  0  0  0  0  0  0  0  0  0  0
   39.7340   31.8190   41.8330 H   0  0  0  0  0  0  0  0  0  0  0  0
   39.9660   30.0220   40.9120 C   0  0  0  0  0  0  0  0  0  0  0  0
   40.4710   30.1080   39.9420 H   0  0  0  0  0  0  0  0  0  0  0  0
   39.6470   28.7580   41.2110 N   0  0  0  0  0  0  0  0  0  0  0  0
  1  4  1  6  0  0  0
  1 25  1  0  0  0  0
  2  5  1  0  0  0  0
  2  3  1  0  0  0  0
  2  1  1  0  0  0  0
  3  1  1  0  0  0  0
  3  7  1  1  0  0  0
  6  2  1  0  0  0  0
  8  3  1  0  0  0  0
  8 17  1  0  0  0  0
  9  8  2  0  0  0  0
 10  9  1  0  0  0  0
 10 11  2  0  0  0  0
 11 16  1  0  0  0  0
 12 11  1  0  0  0  0
 12 13  2  0  0  0  0
 13 14  1  0  0  0  0
 14 15  2  0  0  0  0
 14 21  1  0  0  0  0
 15 22  1  0  0  0  0
 16 17  2  0  0  0  0
 16 15  1  0  0  0  0
 17 23  1  0  0  0  0
 18  9  1  0  0  0  0
 19 10  1  0  0  0  0
 20 13  1  0  0  0  0
 24 29  1  0  0  0  0
 25 26  1  0  0  0  0
 25 24  2  0  0  0  0
 26 27  2  0  0  0  0
 27 28  1  0  0  0  0
 28 32  1  0  0  0  0
 29 28  2  0  0  0  0
 30 24  1  0  0  0  0
 31 26  1  0  0  0  0
 32 35  1  1  0  0  0
 32 34  1  0  0  0  0
 32 33  1  0  0  0  0
 33 36  1  0  0  0  0
 34 38  1  1  0  0  0
 34 33  1  0  0  0  0
 37 33  1  0  0  0  0
 39 40  2  0  0  0  0
 39 34  1  0  0  0  0
 40 41  1  0  0  0  0
 42 40  1  0  0  0  0
 43 42  1  0  0  0  0
 44 46  2  0  0  0  0
 44 42  1  0  0  0  0
 45 44  1  0  0  0  0
 46 39  1  0  0  0  0
M  END
>  <minimizedAffinity>
-6.61310434

$$$$

 OpenBabel03252503253D

 46 51  0  0  1  0  0  0  0  0999 V2000
   35.6050   29.5560   38.0760 C   0  0  1  0  0  0  0  0  0  0  0  0
   35.7400   28.5450   37.0300 C   0  0  0  0  0  0  0  0  0  0  0  0
   34.5170   28.5170   37.8660 C   0  0  2  0  0  0  0  0  0  0  0  0
   35.3410   30.5940   37.8130 H   0  0  0  0  0  0  0  0  0  0  0  0
   36.4610   27.7010   37.2820 H   0  0  0  0  0  0  0  0  0  0  0  0
   35.8320   28.8910   36.0150 H   0  0  0  0  0  0  0  0  0  0  0  0
   34.3370   27.8050   38.6780 H   0  0  0  0  0  0  0  0  0  0  0  0
   33.2710   29.0560   37.2590 C   0  0  0  0  0  0  0  0  0  0  0  0
   33.0810   29.2290   35.9040 C   0  0  0  0  0  0  0  0  0  0  0  0
   31.8960   29.7410   35.4080 C   0  0  0  0  0  0  0  0  0  0  0  0
   30.8810   30.0930   36.2610 C   0  0  0  0  0  0  0  0  0  0  0  0
   29.7030   30.5960   35.8090 N   0  0  0  0  0  0  0  0  0  0  0  0
   28.7050   30.9340   36.6780 C   0  0  0  0  0  0  0  0  0  0  0  0
   28.8320   30.7870   38.0600 C   0  0  0  0  0  0  0  0  0  0  0  0
   30.0040   30.2830   38.5560 C   0  0  0  0  0  0  0  0  0  0  0  0
   31.0150   29.9430   37.6470 C   0  0  0  0  0  0  0  0  0  0  0  0
   32.2160   29.4260   38.0930 C   0  0  0  0  0  0  0  0  0  0  0  0
   33.8900   28.9470   35.2450 H   0  0  0  0  0  0  0  0  0  0  0  0
   31.7530   29.8740   34.3440 H   0  0  0  0  0  0  0  0  0  0  0  0
   27.7610   31.3350   36.3590 H   0  0  0  0  0  0  0  0  0  0  0  0
   28.0380   31.0570   38.7340 H   0  0  0  0  0  0  0  0  0  0  0  0
   30.1430   30.1540   39.6140 H   0  0  0  0  0  0  0  0  0  0  0  0
   32.2550   29.3410   39.1700 H   0  0  0  0  0  0  0  0  0  0  0  0
   37.7570   29.0100   39.2650 C   0  0  0  0  0  0  0  0  0  0  0  0
   36.3950   29.4500   39.3380 C   0  0  0  0  0  0  0  0  0  0  0  0
   35.8770   29.7470   40.5720 C   0  0  0  0  0  0  0  0  0  0  0  0
   36.6910   29.6050   41.6550 N   0  0  0  0  0  0  0  0  0  0  0  0
   37.9810   29.1870   41.5650 C   0  0  0  0  0  0  0  0  0  0  0  0
   38.5110   28.8900   40.3690 N   0  0  0  0  0  0  0  0  0  0  0  0
   38.1540   28.7800   38.2910 H   0  0  0  0  0  0  0  0  0  0  0  0
   34.8550   30.0810   40.6680 H   0  0  0  0  0  0  0  0  0  0  0  0
   38.7640   29.0840   42.8230 C   0  0  2  0  0  0  0  0  0  0  0  0
   39.9840   28.3040   42.9150 C   0  0  0  0  0  0  0  0  0  0  0  0
   38.7320   27.6640   43.4660 C   0  0  2  0  0  0  0  0  0  0  0  0
   38.5360   29.9050   43.5320 H   0  0  0  0  0  0  0  0  0  0  0  0
   40.7210   28.5800   43.6950 H   0  0  0  0  0  0  0  0  0  0  0  0
   40.4270   27.9030   41.9990 H   0  0  0  0  0  0  0  0  0  0  0  0
   38.5620   27.6550   44.5400 H   0  0  0  0  0  0  0  0  0  0  0  0
   38.1870   26.5580   42.6390 C   0  0  0  0  0  0  0  0  0  0  0  0
   39.0730   25.6900   41.9930 C   0  0  0  0  0  0  0  0  0  0  0  0
   40.1600   25.5990   41.9290 H   0  0  0  0  0  0  0  0  0  0  0  0
   38.3720   24.7710   41.3050 N   0  0  0  0  0  0  0  0  0  0  0  0
   38.6060   23.9560   40.6950 H   0  0  0  0  0  0  0  0  0  0  0  0
   37.0780   25.0310   41.4950 C   0  0  0  0  0  0  0  0  0  0  0  0
   36.0930   24.6450   41.2030 H   0  0  0  0  0  0  0  0  0  0  0  0
   36.9900   26.1000   42.2940 N   0  0  0  0  0  0  0  0  0  0  0  0
  1  4  1  6  0  0  0
  1 25  1  0  0  0  0
  2  5  1  0  0  0  0
  2  3  1  0  0  0  0
  2  1  1  0  0  0  0
  3  1  1  0  0  0  0
  3  7  1  1  0  0  0
  6  2  1  0  0  0  0
  8  3  1  0  0  0  0
  8 17  1  0  0  0  0
  9  8  2  0  0  0  0
 10  9  1  0  0  0  0
 10 11  2  0  0  0  0
 11 16  1  0  0  0  0
 12 11  1  0  0  0  0
 12 13  2  0  0  0  0
 13 14  1  0  0  0  0
 14 15  2  0  0  0  0
 14 21  1  0  0  0  0
 15 22  1  0  0  0  0
 16 17  2  0  0  0  0
 16 15  1  0  0  0  0
 17 23  1  0  0  0  0
 18  9  1  0  0  0  0
 19 10  1  0  0  0  0
 20 13  1  0  0  0  0
 24 25  2  0  0  0  0
 24 29  1  0  0  0  0
 25 26  1  0  0  0  0
 26 31  1  0  0  0  0
 26 27  2  0  0  0  0
 28 27  1  0  0  0  0
 28 32  1  0  0  0  0
 29 28  2  0  0  0  0
 30 24  1  0  0  0  0
 32 33  1  0  0  0  0
 32 34  1  0  0  0  0
 32 35  1  1  0  0  0
 33 34  1  0  0  0  0
 33 36  1  0  0  0  0
 34 38  1  1  0  0  0
 37 33  1  0  0  0  0
 39 34  1  0  0  0  0
 40 39  2  0  0  0  0
 41 40  1  0  0  0  0
 42 44  1  0  0  0  0
 42 40  1  0  0  0  0
 43 42  1  0  0  0  0
 44 46  2  0  0  0  0
 45 44  1  0  0  0  0
 46 39  1  0  0  0  0
M  END
>  <minimizedAffinity>
-6.1477828

$$$$

 OpenBabel03252503253D

 46 51  0  0  1  0  0  0  0  0999 V2000
   39.4320   27.9310   41.9480 C   0  0  1  0  0  0  0  0  0  0  0  0
   38.6940   27.8200   43.2040 C   0  0  0  0  0  0  0  0  0  0  0  0
   37.9150   27.8570   41.9440 C   0  0  2  0  0  0  0  0  0  0  0  0
   39.9610   27.0550   41.5350 H   0  0  0  0  0  0  0  0  0  0  0  0
   38.6200   28.7910   43.7920 H   0  0  0  0  0  0  0  0  0  0  0  0
   38.8970   26.9640   43.8240 H   0  0  0  0  0  0  0  0  0  0  0  0
   37.3680   28.7320   41.5790 H   0  0  0  0  0  0  0  0  0  0  0  0
   37.3710   26.5640   41.4490 C   0  0  0  0  0  0  0  0  0  0  0  0
   37.2950   25.4150   42.2060 C   0  0  0  0  0  0  0  0  0  0  0  0
   36.7810   24.2440   41.6780 C   0  0  0  0  0  0  0  0  0  0  0  0
   36.3350   24.2040   40.3800 C   0  0  0  0  0  0  0  0  0  0  0  0
   35.8220   23.0740   39.8300 N   0  0  0  0  0  0  0  0  0  0  0  0
   35.3810   23.0600   38.5380 C   0  0  0  0  0  0  0  0  0  0  0  0
   35.4300   24.1870   37.7170 C   0  0  0  0  0  0  0  0  0  0  0  0
   35.9410   25.3470   38.2340 C   0  0  0  0  0  0  0  0  0  0  0  0
   36.3880   25.3390   39.5610 C   0  0  0  0  0  0  0  0  0  0  0  0
   36.9090   26.4830   40.1350 C   0  0  0  0  0  0  0  0  0  0  0  0
   37.6490   25.4620   43.2250 H   0  0  0  0  0  0  0  0  0  0  0  0
   36.7240   23.3450   42.2770 H   0  0  0  0  0  0  0  0  0  0  0  0
   34.9690   22.1860   38.0680 H   0  0  0  0  0  0  0  0  0  0  0  0
   35.0790   24.1640   36.7000 H   0  0  0  0  0  0  0  0  0  0  0  0
   35.9980   26.2390   37.6350 H   0  0  0  0  0  0  0  0  0  0  0  0
   36.9250   27.3190   39.4490 H   0  0  0  0  0  0  0  0  0  0  0  0
   40.6560   29.3290   40.2480 C   0  0  0  0  0  0  0  0  0  0  0  0
   40.0370   29.2320   41.5370 C   0  0  0  0  0  0  0  0  0  0  0  0
   40.0370   30.3440   42.3380 C   0  0  0  0  0  0  0  0  0  0  0  0
   40.6280   31.4740   41.8590 N   0  0  0  0  0  0  0  0  0  0  0  0
   41.2090   31.5460   40.6330 C   0  0  0  0  0  0  0  0  0  0  0  0
   41.2220   30.4720   39.8300 N   0  0  0  0  0  0  0  0  0  0  0  0
   40.6500   28.4490   39.6260 H   0  0  0  0  0  0  0  0  0  0  0  0
   39.5810   30.3110   43.3160 H   0  0  0  0  0  0  0  0  0  0  0  0
   41.8090   32.8420   40.2260 C   0  0  2  0  0  0  0  0  0  0  0  0
   41.3940   34.1050   40.8090 C   0  0  0  0  0  0  0  0  0  0  0  0
   40.8260   33.7710   39.4490 C   0  0  2  0  0  0  0  0  0  0  0  0
   42.7940   32.7170   39.7340 H   0  0  0  0  0  0  0  0  0  0  0  0
   42.1150   34.9470   40.7930 H   0  0  0  0  0  0  0  0  0  0  0  0
   40.7320   34.0950   41.6780 H   0  0  0  0  0  0  0  0  0  0  0  0
   41.2470   34.2380   38.5620 H   0  0  0  0  0  0  0  0  0  0  0  0
   39.3900   33.3930   39.4550 C   0  0  0  0  0  0  0  0  0  0  0  0
   38.5100   34.0720   40.3050 C   0  0  0  0  0  0  0  0  0  0  0  0
   38.6060   34.8800   41.0330 H   0  0  0  0  0  0  0  0  0  0  0  0
   37.2710   33.5730   40.1500 N   0  0  0  0  0  0  0  0  0  0  0  0
   36.3310   33.7650   40.5650 H   0  0  0  0  0  0  0  0  0  0  0  0
   37.3400   32.6060   39.2340 C   0  0  0  0  0  0  0  0  0  0  0  0
   36.6890   31.8840   38.7260 H   0  0  0  0  0  0  0  0  0  0  0  0
   38.6130   32.5160   38.8330 N   0  0  0  0  0  0  0  0  0  0  0  0
  1  4  1  6  0  0  0
  1  2  1  0  0  0  0
  2  5  1  0  0  0  0
  2  6  1  0  0  0  0
  3  7  1  6  0  0  0
  3  1  1  0  0  0  0
  3  2  1  0  0  0  0
  8  3  1  0  0  0  0
  8  9  1  0  0  0  0
  9 18  1  0  0  0  0
 10  9  2  0  0  0  0
 10 19  1  0  0  0  0
 11 10  1  0  0  0  0
 12 11  1  0  0  0  0
 13 12  2  0  0  0  0
 14 15  2  0  0  0  0
 14 13  1  0  0  0  0
 15 16  1  0  0  0  0
 16 17  1  0  0  0  0
 16 11  2  0  0  0  0
 17  8  2  0  0  0  0
 20 13  1  0  0  0  0
 21 14  1  0  0  0  0
 22 15  1  0  0  0  0
 23 17  1  0  0  0  0
 24 25  1  0  0  0  0
 25  1  1  0  0  0  0
 25 26  2  0  0  0  0
 26 31  1  0  0  0  0
 27 26  1  0  0  0  0
 28 27  2  0  0  0  0
 29 24  2  0  0  0  0
 29 28  1  0  0  0  0
 30 24  1  0  0  0  0
 32 35  1  6  0  0  0
 32 28  1  0  0  0  0
 32 33  1  0  0  0  0
 33 37  1  0  0  0  0
 34 38  1  6  0  0  0
 34 39  1  0  0  0  0
 34 32  1  0  0  0  0
 34 33  1  0  0  0  0
 36 33  1  0  0  0  0
 39 40  2  0  0  0  0
 40 41  1  0  0  0  0
 42 40  1  0  0  0  0
 42 43  1  0  0  0  0
 44 42  1  0  0  0  0
 45 44  1  0  0  0  0
 46 44  2  0  0  0  0
 46 39  1  0  0  0  0
M  END
>  <minimizedAffinity>
-6.06878614

$$$$

 OpenBabel03252503253D

 46 51  0  0  1  0  0  0  0  0999 V2000
   39.6050   28.4540   42.1560 C   0  0  1  0  0  0  0  0  0  0  0  0
   38.6050   28.6530   43.2020 C   0  0  0  0  0  0  0  0  0  0  0  0
   38.1260   28.4520   41.8140 C   0  0  2  0  0  0  0  0  0  0  0  0
   40.1250   27.4850   42.0630 H   0  0  0  0  0  0  0  0  0  0  0  0
   38.4970   29.7320   43.5490 H   0  0  0  0  0  0  0  0  0  0  0  0
   38.5850   27.9440   44.0110 H   0  0  0  0  0  0  0  0  0  0  0  0
   37.7580   29.2520   41.1630 H   0  0  0  0  0  0  0  0  0  0  0  0
   37.5810   27.1100   41.4760 C   0  0  0  0  0  0  0  0  0  0  0  0
   37.5310   26.0500   42.3560 C   0  0  0  0  0  0  0  0  0  0  0  0
   37.0150   24.8260   41.9710 C   0  0  0  0  0  0  0  0  0  0  0  0
   36.5420   24.6410   40.6960 C   0  0  0  0  0  0  0  0  0  0  0  0
   36.0270   23.4540   40.2840 N   0  0  0  0  0  0  0  0  0  0  0  0
   35.5580   23.2960   39.0120 C   0  0  0  0  0  0  0  0  0  0  0  0
   35.5810   24.3270   38.0710 C   0  0  0  0  0  0  0  0  0  0  0  0
   36.0930   25.5390   38.4460 C   0  0  0  0  0  0  0  0  0  0  0  0
   36.5690   25.6790   39.7560 C   0  0  0  0  0  0  0  0  0  0  0  0
   37.0920   26.8820   40.1900 C   0  0  0  0  0  0  0  0  0  0  0  0
   37.9070   26.2110   43.3560 H   0  0  0  0  0  0  0  0  0  0  0  0
   36.9780   23.9970   42.6660 H   0  0  0  0  0  0  0  0  0  0  0  0
   35.1440   22.3740   38.6490 H   0  0  0  0  0  0  0  0  0  0  0  0
   35.2080   24.1890   37.0710 H   0  0  0  0  0  0  0  0  0  0  0  0
   36.1300   26.3600   37.7520 H   0  0  0  0  0  0  0  0  0  0  0  0
   37.0870   27.6380   39.4160 H   0  0  0  0  0  0  0  0  0  0  0  0
   40.6310   30.7270   42.5080 C   0  0  0  0  0  0  0  0  0  0  0  0
   40.4070   29.6040   41.6450 C   0  0  0  0  0  0  0  0  0  0  0  0
   40.9380   29.6450   40.3820 C   0  0  0  0  0  0  0  0  0  0  0  0
   41.6460   30.7520   40.0240 N   0  0  0  0  0  0  0  0  0  0  0  0
   41.8480   31.8070   40.8570 C   0  0  0  0  0  0  0  0  0  0  0  0
   41.3390   31.7910   42.0980 N   0  0  0  0  0  0  0  0  0  0  0  0
   40.2100   30.6840   43.4990 H   0  0  0  0  0  0  0  0  0  0  0  0
   40.7900   28.8190   39.7030 H   0  0  0  0  0  0  0  0  0  0  0  0
   42.6470   32.9490   40.3460 C   0  0  2  0  0  0  0  0  0  0  0  0
   42.5750   34.2720   40.9380 C   0  0  0  0  0  0  0  0  0  0  0  0
   41.7900   34.0590   39.6660 C   0  0  2  0  0  0  0  0  0  0  0  0
   43.5180   32.6200   39.7450 H   0  0  0  0  0  0  0  0  0  0  0  0
   43.4450   34.9460   40.8130 H   0  0  0  0  0  0  0  0  0  0  0  0
   42.0360   34.4020   41.8800 H   0  0  0  0  0  0  0  0  0  0  0  0
   42.1860   34.4260   38.7210 H   0  0  0  0  0  0  0  0  0  0  0  0
   40.3180   33.9870   39.8520 C   0  0  0  0  0  0  0  0  0  0  0  0
   39.6910   34.9160   40.6900 C   0  0  0  0  0  0  0  0  0  0  0  0
   40.0260   35.7570   41.3010 H   0  0  0  0  0  0  0  0  0  0  0  0
   38.3690   34.6690   40.7150 N   0  0  0  0  0  0  0  0  0  0  0  0
   37.5390   35.0920   41.1880 H   0  0  0  0  0  0  0  0  0  0  0  0
   38.1430   33.6210   39.9220 C   0  0  0  0  0  0  0  0  0  0  0  0
   37.3090   33.0010   39.5690 H   0  0  0  0  0  0  0  0  0  0  0  0
   39.3180   33.2300   39.4170 N   0  0  0  0  0  0  0  0  0  0  0  0
  1  4  1  6  0  0  0
  1  2  1  0  0  0  0
  2  5  1  0  0  0  0
  2  6  1  0  0  0  0
  3  7  1  6  0  0  0
  3  1  1  0  0  0  0
  3  2  1  0  0  0  0
  8  3  1  0  0  0  0
  8  9  1  0  0  0  0
  9 18  1  0  0  0  0
 10  9  2  0  0  0  0
 10 19  1  0  0  0  0
 11 10  1  0  0  0  0
 12 11  1  0  0  0  0
 13 12  2  0  0  0  0
 14 15  2  0  0  0  0
 14 13  1  0  0  0  0
 15 16  1  0  0  0  0
 16 17  1  0  0  0  0
 16 11  2  0  0  0  0
 17  8  2  0  0  0  0
 20 13  1  0  0  0  0
 21 14  1  0  0  0  0
 22 15  1  0  0  0  0
 23 17  1  0  0  0  0
 24 30  1  0  0  0  0
 25  1  1  0  0  0  0
 25 24  2  0  0  0  0
 26 25  1  0  0  0  0
 27 26  2  0  0  0  0
 27 28  1  0  0  0  0
 28 29  2  0  0  0  0
 29 24  1  0  0  0  0
 31 26  1  0  0  0  0
 32 35  1  6  0  0  0
 32 28  1  0  0  0  0
 32 33  1  0  0  0  0
 33 37  1  0  0  0  0
 34 38  1  6  0  0  0
 34 39  1  0  0  0  0
 34 32  1  0  0  0  0
 34 33  1  0  0  0  0
 36 33  1  0  0  0  0
 39 40  2  0  0  0  0
 40 42  1  0  0  0  0
 40 41  1  0  0  0  0
 42 43  1  0  0  0  0
 44 42  1  0  0  0  0
 45 44  1  0  0  0  0
 46 39  1  0  0  0  0
 46 44  2  0  0  0  0
M  END
>  <minimizedAffinity>
-5.95214176

$$$$

 OpenBabel03252503253D

 46 51  0  0  1  0  0  0  0  0999 V2000
   35.7990   29.4210   37.4490 C   0  0  1  0  0  0  0  0  0  0  0  0
   35.5980   28.0750   36.9200 C   0  0  0  0  0  0  0  0  0  0  0  0
   34.5720   28.6180   37.8410 C   0  0  2  0  0  0  0  0  0  0  0  0
   35.6170   30.3020   36.8090 H   0  0  0  0  0  0  0  0  0  0  0  0
   36.2450   27.2770   37.4090 H   0  0  0  0  0  0  0  0  0  0  0  0
   35.5270   27.9670   35.8510 H   0  0  0  0  0  0  0  0  0  0  0  0
   34.4710   28.3340   38.8940 H   0  0  0  0  0  0  0  0  0  0  0  0
   33.3060   29.1050   37.2310 C   0  0  0  0  0  0  0  0  0  0  0  0
   33.0870   29.2010   35.8730 C   0  0  0  0  0  0  0  0  0  0  0  0
   31.8850   29.6680   35.3740 C   0  0  0  0  0  0  0  0  0  0  0  0
   30.8800   30.0490   36.2270 C   0  0  0  0  0  0  0  0  0  0  0  0
   29.6860   30.5090   35.7730 N   0  0  0  0  0  0  0  0  0  0  0  0
   28.7000   30.8780   36.6420 C   0  0  0  0  0  0  0  0  0  0  0  0
   28.8550   30.8070   38.0270 C   0  0  0  0  0  0  0  0  0  0  0  0
   30.0440   30.3490   38.5260 C   0  0  0  0  0  0  0  0  0  0  0  0
   31.0430   29.9760   37.6170 C   0  0  0  0  0  0  0  0  0  0  0  0
   32.2610   29.5020   38.0650 C   0  0  0  0  0  0  0  0  0  0  0  0
   33.8880   28.8970   35.2140 H   0  0  0  0  0  0  0  0  0  0  0  0
   31.7190   29.7410   34.3070 H   0  0  0  0  0  0  0  0  0  0  0  0
   27.7430   31.2470   36.3220 H   0  0  0  0  0  0  0  0  0  0  0  0
   28.0700   31.1010   38.7020 H   0  0  0  0  0  0  0  0  0  0  0  0
   30.2060   30.2790   39.5870 H   0  0  0  0  0  0  0  0  0  0  0  0
   32.3220   29.4750   39.1440 H   0  0  0  0  0  0  0  0  0  0  0  0
   36.4390   30.5050   39.6300 C   0  0  0  0  0  0  0  0  0  0  0  0
   36.8050   29.6710   38.5230 C   0  0  0  0  0  0  0  0  0  0  0  0
   38.0700   29.1460   38.5010 C   0  0  0  0  0  0  0  0  0  0  0  0
   38.9050   29.4500   39.5340 N   0  0  0  0  0  0  0  0  0  0  0  0
   38.5390   30.2430   40.5750 C   0  0  0  0  0  0  0  0  0  0  0  0
   37.3060   30.7690   40.6200 N   0  0  0  0  0  0  0  0  0  0  0  0
   35.4420   30.9120   39.6380 H   0  0  0  0  0  0  0  0  0  0  0  0
   38.3830   28.5130   37.6840 H   0  0  0  0  0  0  0  0  0  0  0  0
   39.5410   30.4880   41.6430 C   0  0  2  0  0  0  0  0  0  0  0  0
   40.5080   29.4830   42.0450 C   0  0  0  0  0  0  0  0  0  0  0  0
   39.2990   29.6480   42.9350 C   0  0  2  0  0  0  0  0  0  0  0  0
   39.7030   31.5680   41.8320 H   0  0  0  0  0  0  0  0  0  0  0  0
   41.4520   29.8270   42.5130 H   0  0  0  0  0  0  0  0  0  0  0  0
   40.6070   28.5740   41.4460 H   0  0  0  0  0  0  0  0  0  0  0  0
   39.3870   30.2060   43.8640 H   0  0  0  0  0  0  0  0  0  0  0  0
   38.3110   28.5420   42.8480 C   0  0  0  0  0  0  0  0  0  0  0  0
   37.1260   28.6280   43.5860 C   0  0  0  0  0  0  0  0  0  0  0  0
   36.6920   29.3570   44.2720 H   0  0  0  0  0  0  0  0  0  0  0  0
   36.3840   27.5280   43.3610 N   0  0  0  0  0  0  0  0  0  0  0  0
   35.4570   27.1730   43.6880 H   0  0  0  0  0  0  0  0  0  0  0  0
   37.0600   26.7570   42.5090 C   0  0  0  0  0  0  0  0  0  0  0  0
   36.9630   25.7940   41.9920 H   0  0  0  0  0  0  0  0  0  0  0  0
   38.2060   27.3800   42.2150 N   0  0  0  0  0  0  0  0  0  0  0  0
  1  4  1  6  0  0  0
  1  3  1  0  0  0  0
  1 25  1  0  0  0  0
  2  5  1  0  0  0  0
  2  1  1  0  0  0  0
  2  3  1  0  0  0  0
  3  7  1  1  0  0  0
  6  2  1  0  0  0  0
  8  3  1  0  0  0  0
  8 17  1  0  0  0  0
  9  8  2  0  0  0  0
 10  9  1  0  0  0  0
 10 11  2  0  0  0  0
 11 16  1  0  0  0  0
 12 11  1  0  0  0  0
 12 13  2  0  0  0  0
 13 14  1  0  0  0  0
 14 15  2  0  0  0  0
 14 21  1  0  0  0  0
 15 22  1  0  0  0  0
 16 17  2  0  0  0  0
 16 15  1  0  0  0  0
 17 23  1  0  0  0  0
 18  9  1  0  0  0  0
 19 10  1  0  0  0  0
 20 13  1  0  0  0  0
 24 30  1  0  0  0  0
 24 29  1  0  0  0  0
 25 24  2  0  0  0  0
 26 25  1  0  0  0  0
 26 27  2  0  0  0  0
 27 28  1  0  0  0  0
 28 29  2  0  0  0  0
 28 32  1  0  0  0  0
 31 26  1  0  0  0  0
 32 35  1  1  0  0  0
 32 33  1  0  0  0  0
 32 34  1  0  0  0  0
 33 36  1  0  0  0  0
 33 34  1  0  0  0  0
 34 38  1  1  0  0  0
 37 33  1  0  0  0  0
 39 34  1  0  0  0  0
 39 40  2  0  0  0  0
 40 41  1  0  0  0  0
 42 40  1  0  0  0  0
 42 43  1  0  0  0  0
 44 42  1  0  0  0  0
 45 44  1  0  0  0  0
 46 44  2  0  0  0  0
 46 39  1  0  0  0  0
M  END
>  <minimizedAffinity>
-5.91951513

$$$$

 OpenBabel03252503253D

 46 51  0  0  1  0  0  0  0  0999 V2000
   35.3940   29.4850   38.2910 C   0  0  1  0  0  0  0  0  0  0  0  0
   35.3620   28.4300   37.2820 C   0  0  0  0  0  0  0  0  0  0  0  0
   34.2050   28.5460   38.2000 C   0  0  2  0  0  0  0  0  0  0  0  0
   35.2060   30.5340   38.0030 H   0  0  0  0  0  0  0  0  0  0  0  0
   36.0200   27.5320   37.5210 H   0  0  0  0  0  0  0  0  0  0  0  0
   35.4120   28.7290   36.2490 H   0  0  0  0  0  0  0  0  0  0  0  0
   34.0200   27.8820   39.0510 H   0  0  0  0  0  0  0  0  0  0  0  0
   32.9720   29.1760   37.6560 C   0  0  0  0  0  0  0  0  0  0  0  0
   31.9240   29.6220   38.4320 C   0  0  0  0  0  0  0  0  0  0  0  0
   30.8030   30.1950   37.8580 C   0  0  0  0  0  0  0  0  0  0  0  0
   30.7120   30.3290   36.4960 C   0  0  0  0  0  0  0  0  0  0  0  0
   29.6290   30.8890   35.8980 N   0  0  0  0  0  0  0  0  0  0  0  0
   29.5640   31.0150   34.5400 C   0  0  0  0  0  0  0  0  0  0  0  0
   30.5890   30.5840   33.6960 C   0  0  0  0  0  0  0  0  0  0  0  0
   31.6980   30.0140   34.2600 C   0  0  0  0  0  0  0  0  0  0  0  0
   31.7440   29.8930   35.6550 C   0  0  0  0  0  0  0  0  0  0  0  0
   32.8420   29.3300   36.2760 C   0  0  0  0  0  0  0  0  0  0  0  0
   32.0100   29.5090   39.5030 H   0  0  0  0  0  0  0  0  0  0  0  0
   29.9830   30.5430   38.4720 H   0  0  0  0  0  0  0  0  0  0  0  0
   28.7250   31.4520   34.0310 H   0  0  0  0  0  0  0  0  0  0  0  0
   30.5250   30.6900   32.6280 H   0  0  0  0  0  0  0  0  0  0  0  0
   32.5100   29.6670   33.6460 H   0  0  0  0  0  0  0  0  0  0  0  0
   33.5970   29.0110   35.5710 H   0  0  0  0  0  0  0  0  0  0  0  0
   37.6260   28.9540   39.3310 C   0  0  0  0  0  0  0  0  0  0  0  0
   36.2590   29.3520   39.5000 C   0  0  0  0  0  0  0  0  0  0  0  0
   35.8080   29.5860   40.7730 C   0  0  0  0  0  0  0  0  0  0  0  0
   36.6870   29.4250   41.8000 N   0  0  0  0  0  0  0  0  0  0  0  0
   37.9800   29.0470   41.6190 C   0  0  0  0  0  0  0  0  0  0  0  0
   38.4460   28.8120   40.3830 N   0  0  0  0  0  0  0  0  0  0  0  0
   37.9700   28.7730   38.3260 H   0  0  0  0  0  0  0  0  0  0  0  0
   34.7850   29.8880   40.9410 H   0  0  0  0  0  0  0  0  0  0  0  0
   38.8390   28.9170   42.8240 C   0  0  2  0  0  0  0  0  0  0  0  0
   40.0530   28.1230   42.8280 C   0  0  0  0  0  0  0  0  0  0  0  0
   38.8310   27.4880   43.4470 C   0  0  2  0  0  0  0  0  0  0  0  0
   38.6640   29.7290   43.5570 H   0  0  0  0  0  0  0  0  0  0  0  0
   40.8400   28.3800   43.5660 H   0  0  0  0  0  0  0  0  0  0  0  0
   40.4340   27.7320   41.8810 H   0  0  0  0  0  0  0  0  0  0  0  0
   38.7270   27.4630   44.5300 H   0  0  0  0  0  0  0  0  0  0  0  0
   38.2230   26.4000   42.6390 C   0  0  0  0  0  0  0  0  0  0  0  0
   39.0550   25.5640   41.8860 C   0  0  0  0  0  0  0  0  0  0  0  0
   40.1320   25.4910   41.7170 H   0  0  0  0  0  0  0  0  0  0  0  0
   38.3030   24.6580   41.2360 N   0  0  0  0  0  0  0  0  0  0  0  0
   38.4880   23.8650   40.5820 H   0  0  0  0  0  0  0  0  0  0  0  0
   37.0290   24.8930   41.5550 C   0  0  0  0  0  0  0  0  0  0  0  0
   36.0260   24.5020   41.3440 H   0  0  0  0  0  0  0  0  0  0  0  0
   37.0050   25.9350   42.3920 N   0  0  0  0  0  0  0  0  0  0  0  0
  1  4  1  6  0  0  0
  1 25  1  0  0  0  0
  2  5  1  0  0  0  0
  2  3  1  0  0  0  0
  2  1  1  0  0  0  0
  3  1  1  0  0  0  0
  3  7  1  1  0  0  0
  6  2  1  0  0  0  0
  8  3  1  0  0  0  0
  8  9  1  0  0  0  0
  9 18  1  0  0  0  0
 10  9  2  0  0  0  0
 10 19  1  0  0  0  0
 11 10  1  0  0  0  0
 12 11  1  0  0  0  0
 13 12  2  0  0  0  0
 14 15  2  0  0  0  0
 14 13  1  0  0  0  0
 15 16  1  0  0  0  0
 16 17  1  0  0  0  0
 16 11  2  0  0  0  0
 17  8  2  0  0  0  0
 20 13  1  0  0  0  0
 21 14  1  0  0  0  0
 22 15  1  0  0  0  0
 23 17  1  0  0  0  0
 24 25  2  0  0  0  0
 24 29  1  0  0  0  0
 25 26  1  0  0  0  0
 26 31  1  0  0  0  0
 26 27  2  0  0  0  0
 28 27  1  0  0  0  0
 28 32  1  0  0  0  0
 29 28  2  0  0  0  0
 30 24  1  0  0  0  0
 32 33  1  0  0  0  0
 32 34  1  0  0  0  0
 32 35  1  1  0  0  0
 33 34  1  0  0  0  0
 33 36  1  0  0  0  0
 34 38  1  1  0  0  0
 37 33  1  0  0  0  0
 39 34  1  0  0  0  0
 40 39  2  0  0  0  0
 41 40  1  0  0  0  0
 42 44  1  0  0  0  0
 42 40  1  0  0  0  0
 43 42  1  0  0  0  0
 44 46  2  0  0  0  0
 45 44  1  0  0  0  0
 46 39  1  0  0  0  0
M  END
>  <minimizedAffinity>
-5.87955093

$$$$

 OpenBabel03252503253D

 46 51  0  0  1  0  0  0  0  0999 V2000
   39.1560   29.0360   42.5260 C   0  0  1  0  0  0  0  0  0  0  0  0
   37.8810   29.0670   43.2380 C   0  0  0  0  0  0  0  0  0  0  0  0
   37.8820   28.5680   41.8430 C   0  0  2  0  0  0  0  0  0  0  0  0
   39.8990   28.2530   42.7520 H   0  0  0  0  0  0  0  0  0  0  0  0
   37.4200   30.1030   43.3310 H   0  0  0  0  0  0  0  0  0  0  0  0
   37.8040   28.4860   44.1410 H   0  0  0  0  0  0  0  0  0  0  0  0
   37.5330   29.1430   40.9790 H   0  0  0  0  0  0  0  0  0  0  0  0
   37.8010   27.0960   41.6520 C   0  0  0  0  0  0  0  0  0  0  0  0
   37.0410   26.2540   42.4360 C   0  0  0  0  0  0  0  0  0  0  0  0
   37.0160   24.8900   42.2040 C   0  0  0  0  0  0  0  0  0  0  0  0
   37.7530   24.3460   41.1830 C   0  0  0  0  0  0  0  0  0  0  0  0
   37.7500   23.0120   40.9240 N   0  0  0  0  0  0  0  0  0  0  0  0
   38.4890   22.4950   39.9000 C   0  0  0  0  0  0  0  0  0  0  0  0
   39.2810   23.2900   39.0690 C   0  0  0  0  0  0  0  0  0  0  0  0
   39.3110   24.6390   39.2970 C   0  0  0  0  0  0  0  0  0  0  0  0
   38.5460   25.1490   40.3540 C   0  0  0  0  0  0  0  0  0  0  0  0
   38.5360   26.5040   40.6250 C   0  0  0  0  0  0  0  0  0  0  0  0
   36.4660   26.6970   43.2350 H   0  0  0  0  0  0  0  0  0  0  0  0
   36.4170   24.2340   42.8230 H   0  0  0  0  0  0  0  0  0  0  0  0
   38.5130   21.4470   39.6640 H   0  0  0  0  0  0  0  0  0  0  0  0
   39.8580   22.8690   38.2650 H   0  0  0  0  0  0  0  0  0  0  0  0
   39.9090   25.2870   38.6810 H   0  0  0  0  0  0  0  0  0  0  0  0
   39.1710   27.0640   39.9530 H   0  0  0  0  0  0  0  0  0  0  0  0
   41.1720   30.5060   42.1880 C   0  0  0  0  0  0  0  0  0  0  0  0
   39.7660   30.2960   42.0090 C   0  0  0  0  0  0  0  0  0  0  0  0
   39.0430   31.2720   41.3740 C   0  0  0  0  0  0  0  0  0  0  0  0
   39.7080   32.3840   40.9520 N   0  0  0  0  0  0  0  0  0  0  0  0
   41.0430   32.5640   41.1310 C   0  0  0  0  0  0  0  0  0  0  0  0
   41.7720   31.6240   41.7500 N   0  0  0  0  0  0  0  0  0  0  0  0
   41.7300   29.7320   42.6880 H   0  0  0  0  0  0  0  0  0  0  0  0
   37.9810   31.1510   41.2200 H   0  0  0  0  0  0  0  0  0  0  0  0
   41.6470   33.8190   40.6150 C   0  0  2  0  0  0  0  0  0  0  0  0
   41.0820   34.5470   39.4940 C   0  0  0  0  0  0  0  0  0  0  0  0
   42.2760   33.6720   39.1950 C   0  0  2  0  0  0  0  0  0  0  0  0
   42.3140   34.3030   41.3550 H   0  0  0  0  0  0  0  0  0  0  0  0
   41.2970   35.6310   39.4170 H   0  0  0  0  0  0  0  0  0  0  0  0
   40.1000   34.2550   39.1140 H   0  0  0  0  0  0  0  0  0  0  0  0
   43.2590   34.1240   39.0840 H   0  0  0  0  0  0  0  0  0  0  0  0
   41.9610   32.4330   38.4390 C   0  0  0  0  0  0  0  0  0  0  0  0
   40.9180   32.4510   37.5070 C   0  0  0  0  0  0  0  0  0  0  0  0
   40.2080   33.2010   37.1530 H   0  0  0  0  0  0  0  0  0  0  0  0
   40.8060   31.2340   36.9440 N   0  0  0  0  0  0  0  0  0  0  0  0
   40.1880   30.7990   36.2230 H   0  0  0  0  0  0  0  0  0  0  0  0
   41.7410   30.4540   37.4880 C   0  0  0  0  0  0  0  0  0  0  0  0
   42.1110   29.4230   37.4300 H   0  0  0  0  0  0  0  0  0  0  0  0
   42.4180   31.1890   38.3770 N   0  0  0  0  0  0  0  0  0  0  0  0
  1  4  1  1  0  0  0
  1  2  1  0  0  0  0
  2  5  1  0  0  0  0
  2  6  1  0  0  0  0
  3  7  1  6  0  0  0
  3  1  1  0  0  0  0
  3  2  1  0  0  0  0
  8  3  1  0  0  0  0
  8  9  1  0  0  0  0
  9 18  1  0  0  0  0
 10  9  2  0  0  0  0
 10 19  1  0  0  0  0
 11 10  1  0  0  0  0
 12 11  1  0  0  0  0
 13 12  2  0  0  0  0
 14 15  2  0  0  0  0
 14 13  1  0  0  0  0
 15 16  1  0  0  0  0
 16 17  1  0  0  0  0
 16 11  2  0  0  0  0
 17  8  2  0  0  0  0
 20 13  1  0  0  0  0
 21 14  1  0  0  0  0
 22 15  1  0  0  0  0
 23 17  1  0  0  0  0
 24 30  1  0  0  0  0
 25 24  1  0  0  0  0
 25  1  1  0  0  0  0
 26 25  2  0  0  0  0
 27 28  2  0  0  0  0
 27 26  1  0  0  0  0
 28 29  1  0  0  0  0
 29 24  2  0  0  0  0
 31 26  1  0  0  0  0
 32 28  1  0  0  0  0
 32 35  1  1  0  0  0
 33 32  1  0  0  0  0
 34 38  1  6  0  0  0
 34 33  1  0  0  0  0
 34 32  1  0  0  0  0
 36 33  1  0  0  0  0
 37 33  1  0  0  0  0
 39 34  1  0  0  0  0
 40 39  2  0  0  0  0
 41 40  1  0  0  0  0
 42 44  1  0  0  0  0
 42 40  1  0  0  0  0
 43 42  1  0  0  0  0
 44 46  2  0  0  0  0
 45 44  1  0  0  0  0
 46 39  1  0  0  0  0
M  END
>  <minimizedAffinity>
-5.82479048

$$$$

 OpenBabel03252503253D

 46 51  0  0  1  0  0  0  0  0999 V2000
   37.5940   30.4900   39.8730 C   0  0  1  0  0  0  0  0  0  0  0  0
   36.8630   31.4730   40.6680 C   0  0  0  0  0  0  0  0  0  0  0  0
   38.3160   31.3280   40.9140 C   0  0  2  0  0  0  0  0  0  0  0  0
   37.8460   30.7040   38.8200 H   0  0  0  0  0  0  0  0  0  0  0  0
   36.2320   31.0270   41.5030 H   0  0  0  0  0  0  0  0  0  0  0  0
   36.3640   32.2670   40.1380 H   0  0  0  0  0  0  0  0  0  0  0  0
   38.7510   30.8030   41.7710 H   0  0  0  0  0  0  0  0  0  0  0  0
   39.2060   32.3730   40.3420 C   0  0  0  0  0  0  0  0  0  0  0  0
   39.0200   33.7290   40.5140 C   0  0  0  0  0  0  0  0  0  0  0  0
   39.8850   34.6470   39.9480 C   0  0  0  0  0  0  0  0  0  0  0  0
   40.9530   34.2240   39.1970 C   0  0  0  0  0  0  0  0  0  0  0  0
   41.8250   35.0970   38.6290 N   0  0  0  0  0  0  0  0  0  0  0  0
   42.8820   34.6510   37.8900 C   0  0  0  0  0  0  0  0  0  0  0  0
   43.1290   33.2940   37.6750 C   0  0  0  0  0  0  0  0  0  0  0  0
   42.2730   32.3820   38.2300 C   0  0  0  0  0  0  0  0  0  0  0  0
   41.1940   32.8600   38.9850 C   0  0  0  0  0  0  0  0  0  0  0  0
   40.3020   31.9840   39.5720 C   0  0  0  0  0  0  0  0  0  0  0  0
   38.1750   34.0460   41.1080 H   0  0  0  0  0  0  0  0  0  0  0  0
   39.7340   35.7100   40.0870 H   0  0  0  0  0  0  0  0  0  0  0  0
   43.5920   35.3100   37.4250 H   0  0  0  0  0  0  0  0  0  0  0  0
   43.9660   32.9560   37.0900 H   0  0  0  0  0  0  0  0  0  0  0  0
   42.4260   31.3270   38.0890 H   0  0  0  0  0  0  0  0  0  0  0  0
   40.5420   30.9500   39.3650 H   0  0  0  0  0  0  0  0  0  0  0  0
   38.2470   28.1040   39.4030 C   0  0  0  0  0  0  0  0  0  0  0  0
   37.4630   29.0320   40.1640 C   0  0  0  0  0  0  0  0  0  0  0  0
   36.6220   28.5330   41.1240 C   0  0  0  0  0  0  0  0  0  0  0  0
   36.5810   27.1820   41.2940 N   0  0  0  0  0  0  0  0  0  0  0  0
   37.3330   26.3170   40.5620 C   0  0  0  0  0  0  0  0  0  0  0  0
   38.1640   26.7820   39.6180 N   0  0  0  0  0  0  0  0  0  0  0  0
   38.9050   28.5070   38.6520 H   0  0  0  0  0  0  0  0  0  0  0  0
   36.0160   29.2000   41.7170 H   0  0  0  0  0  0  0  0  0  0  0  0
   37.2020   24.8670   40.8550 C   0  0  2  0  0  0  0  0  0  0  0  0
   36.8820   24.3700   42.1800 C   0  0  0  0  0  0  0  0  0  0  0  0
   38.3340   24.3080   41.7690 C   0  0  2  0  0  0  0  0  0  0  0  0
   37.0210   24.2660   39.9420 H   0  0  0  0  0  0  0  0  0  0  0  0
   36.4020   23.3750   42.2600 H   0  0  0  0  0  0  0  0  0  0  0  0
   36.5780   25.0800   42.9540 H   0  0  0  0  0  0  0  0  0  0  0  0
   38.7600   23.3630   41.4400 H   0  0  0  0  0  0  0  0  0  0  0  0
   39.2110   25.2990   42.4440 C   0  0  0  0  0  0  0  0  0  0  0  0
   40.5390   25.4310   42.0260 C   0  0  0  0  0  0  0  0  0  0  0  0
   41.1620   24.9560   41.2640 H   0  0  0  0  0  0  0  0  0  0  0  0
   41.1460   26.3760   42.7660 N   0  0  0  0  0  0  0  0  0  0  0  0
   42.1030   26.7930   42.8060 H   0  0  0  0  0  0  0  0  0  0  0  0
   40.2470   26.8420   43.6340 C   0  0  0  0  0  0  0  0  0  0  0  0
   40.1660   27.5780   44.4440 H   0  0  0  0  0  0  0  0  0  0  0  0
   39.1000   26.1870   43.4250 N   0  0  0  0  0  0  0  0  0  0  0  0
  1  4  1  6  0  0  0
  1 25  1  0  0  0  0
  1  2  1  0  0  0  0
  1  3  1  0  0  0  0
  2  3  1  0  0  0  0
  2  5  1  0  0  0  0
  3  7  1  1  0  0  0
  6  2  1  0  0  0  0
  8  9  1  0  0  0  0
  8  3  1  0  0  0  0
  9 18  1  0  0  0  0
 10 19  1  0  0  0  0
 10  9  2  0  0  0  0
 11 10  1  0  0  0  0
 12 11  2  0  0  0  0
 13 12  1  0  0  0  0
 14 13  2  0  0  0  0
 14 15  1  0  0  0  0
 15 16  2  0  0  0  0
 16 11  1  0  0  0  0
 16 17  1  0  0  0  0
 17  8  2  0  0  0  0
 20 13  1  0  0  0  0
 21 14  1  0  0  0  0
 22 15  1  0  0  0  0
 23 17  1  0  0  0  0
 24 29  2  0  0  0  0
 24 25  1  0  0  0  0
 25 26  2  0  0  0  0
 26 27  1  0  0  0  0
 26 31  1  0  0  0  0
 28 32  1  0  0  0  0
 28 27  2  0  0  0  0
 29 28  1  0  0  0  0
 30 24  1  0  0  0  0
 32 35  1  6  0  0  0
 32 34  1  0  0  0  0
 32 33  1  0  0  0  0
 33 36  1  0  0  0  0
 33 37  1  0  0  0  0
 34 38  1  6  0  0  0
 34 33  1  0  0  0  0
 34 39  1  0  0  0  0
 39 46  1  0  0  0  0
 40 39  2  0  0  0  0
 40 42  1  0  0  0  0
 41 40  1  0  0  0  0
 42 43  1  0  0  0  0
 42 44  1  0  0  0  0
 44 45  1  0  0  0  0
 46 44  2  0  0  0  0
M  END
>  <minimizedAffinity>
-5.80891752

$$$$
