
 OpenBabel03252509233D

 26 28  0  0  1  0  0  0  0  0999 V2000
   46.5800   34.7500   42.0140 C   0  0  1  0  0  0  0  0  0  0  0  0
   48.0320   35.2960   42.0300 C   0  0  0  0  0  0  0  0  0  0  0  0
   47.6110   33.8330   41.6920 C   0  0  2  0  0  0  0  0  0  0  0  0
   45.9240   35.2640   41.2940 H   0  0  0  0  0  0  0  0  0  0  0  0
   48.2480   35.9450   41.1860 H   0  0  0  0  0  0  0  0  0  0  0  0
   48.5360   35.4580   42.9790 H   0  0  0  0  0  0  0  0  0  0  0  0
   47.9880   33.0980   42.4310 H   0  0  0  0  0  0  0  0  0  0  0  0
   44.5390   35.6030   45.0320 C   0  0  0  0  0  0  0  0  0  0  0  0
   45.0800   35.7080   43.7250 C   0  0  0  0  0  0  0  0  0  0  0  0
   46.0110   34.7480   43.4230 C   0  0  0  0  0  0  0  0  0  0  0  0
   46.3870   33.7670   44.3190 N   0  0  0  0  0  0  0  0  0  0  0  0
   45.8400   33.7170   45.5420 C   0  0  0  0  0  0  0  0  0  0  0  0
   44.9140   34.6320   45.9100 N   0  0  0  0  0  0  0  0  0  0  0  0
   43.8060   36.3120   45.3500 H   0  0  0  0  0  0  0  0  0  0  0  0
   46.1080   32.9660   46.2700 H   0  0  0  0  0  0  0  0  0  0  0  0
   44.6990   36.7320   42.8280 N   0  0  0  0  0  0  0  0  0  0  0  0
   44.3110   36.7040   41.8730 H   0  0  0  0  0  0  0  0  0  0  0  0
   44.8870   37.6280   43.3300 H   0  0  0  0  0  0  0  0  0  0  0  0
   47.7730   33.4540   40.2420 C   0  0  0  0  0  0  0  0  0  0  0  0
   48.8110   32.7890   39.6140 C   0  0  0  0  0  0  0  0  0  0  0  0
   49.6960   32.4340   40.1210 H   0  0  0  0  0  0  0  0  0  0  0  0
   48.4800   32.6940   38.3040 N   0  0  0  0  0  0  0  0  0  0  0  0
   49.0610   32.2430   37.5690 H   0  0  0  0  0  0  0  0  0  0  0  0
   47.2640   33.2790   38.0860 C   0  0  0  0  0  0  0  0  0  0  0  0
   46.7230   33.3680   37.1500 H   0  0  0  0  0  0  0  0  0  0  0  0
   46.8630   33.7320   39.2910 N   0  0  0  0  0  0  0  0  0  0  0  0
  1  4  1  6  0  0  0
  1  2  1  0  0  0  0
  1 10  1  0  0  0  0
  2  6  1  0  0  0  0
  3  1  1  0  0  0  0
  3  2  1  0  0  0  0
  3  7  1  1  0  0  0
  5  2  1  0  0  0  0
  8 14  1  0  0  0  0
  8 13  1  0  0  0  0
  9  8  2  0  0  0  0
 10  9  1  0  0  0  0
 10 11  2  0  0  0  0
 11 12  1  0  0  0  0
 12 13  2  0  0  0  0
 12 15  1  0  0  0  0
 16 18  1  0  0  0  0
 16  9  1  0  0  0  0
 17 16  1  0  0  0  0
 19  3  1  0  0  0  0
 20 21  1  0  0  0  0
 20 19  2  0  0  0  0
 22 20  1  0  0  0  0
 23 22  1  0  0  0  0
 24 22  1  0  0  0  0
 24 26  2  0  0  0  0
 25 24  1  0  0  0  0
 26 19  1  0  0  0  0
M  END
>  <minimizedAffinity>
-4.5395298

>  <minimizedRMSD>
0.537936687

$$$$
