REMARK  Name = 
REMARK  3 active torsions:
REMARK  status: ('A' for Active; 'I' for Inactive)
REMARK    1  A    between atoms: C_2  and  N_10
REMARK    2  A    between atoms: C_3  and  C_7
REMARK    3  A    between atoms: C_9  and  C_19
REMARK                            x       y       z     vdW  Elec       q    Type
REMARK                         _______ _______ _______ _____ _____    ______ ____
ROOT
ATOM      1  C   UNL     1      46.540  34.976  41.938  0.00  0.00    +0.000 C 
ATOM      2  C   UNL     1      48.062  35.275  41.936  0.00  0.00    +0.000 C 
ATOM      3  C   UNL     1      47.387  33.977  41.397  0.00  0.00    +0.000 C 
ATOM      4  H   UNL     1      45.947  35.703  41.360  0.00  0.00    +0.000 HD
ATOM      5  H   UNL     1      48.345  36.017  41.195  0.00  0.00    +0.000 HD
ATOM      6  H   UNL     1      48.628  35.190  42.860  0.00  0.00    +0.000 HD
ATOM      7  H   UNL     1      47.668  33.076  41.978  0.00  0.00    +0.000 HD
ENDROOT
BRANCH   1  10
ATOM      8  C   UNL     1      44.629  35.470  45.117  0.00  0.00    +0.000 A 
ATOM      9  C   UNL     1      45.100  35.716  43.802  0.00  0.00    +0.000 A 
ATOM     10  C   UNL     1      46.043  34.822  43.365  0.00  0.00    +0.000 A 
ATOM     11  N   UNL     1      46.493  33.774  44.145  0.00  0.00    +0.000 NA
ATOM     12  C   UNL     1      46.010  33.591  45.382  0.00  0.00    +0.000 A 
ATOM     13  N   UNL     1      45.076  34.434  45.879  0.00  0.00    +0.000 NA
ATOM     14  H   UNL     1      43.892  36.120  45.535  0.00  0.00    +0.000 HD
ATOM     15  H   UNL     1      46.337  32.784  46.021  0.00  0.00    +0.000 HD
BRANCH   9  16
ATOM     16  N   UNL     1      44.643  36.806  43.026  0.00  0.00    +0.000 N 
ATOM     17  H   UNL     1      44.209  36.855  42.092  0.00  0.00    +0.000 HD
ATOM     18  H   UNL     1      44.829  37.657  43.602  0.00  0.00    +0.000 HD
ENDBRANCH   9  16
ENDBRANCH   1  10
BRANCH   3  19
ATOM     19  C   UNL     1      47.417  33.832  39.897  0.00  0.00    +0.000 A 
ATOM     20  C   UNL     1      48.214  33.025  39.104  0.00  0.00    +0.000 A 
ATOM     21  H   UNL     1      48.965  32.352  39.489  0.00  0.00    +0.000 HD
ATOM     22  N   UNL     1      47.855  33.262  37.820  0.00  0.00    +0.000 N 
ATOM     23  H   UNL     1      48.274  32.804  36.985  0.00  0.00    +0.000 HD
ATOM     24  C   UNL     1      46.856  34.193  37.777  0.00  0.00    +0.000 A 
ATOM     25  H   UNL     1      46.353  34.596  36.905  0.00  0.00    +0.000 HD
ATOM     26  N   UNL     1      46.615  34.519  39.064  0.00  0.00    +0.000 NA
ENDBRANCH   3  19
TORSDOF 3
