
 OpenBabel03242522213D

 27 29  0  0  0  0  0  0  0  0999 V2000
   44.4610   35.9250   44.8110 C   0  0  0  0  0  0  0  0  0  0  0  0
   45.1120   35.8100   43.5750 C   0  0  0  0  0  0  0  0  0  0  0  0
   46.0140   34.7930   43.3250 C   0  0  0  0  0  0  0  0  0  0  0  0
   46.2320   33.9090   44.3450 N   0  0  0  0  0  0  0  0  0  0  0  0
   45.5970   34.0350   45.5210 C   0  0  0  0  0  0  0  0  0  0  0  0
   44.7270   35.0270   45.7490 N   0  0  0  0  0  0  0  0  0  0  0  0
   43.7780   36.7750   44.8680 H   0  0  0  0  0  0  0  0  0  0  0  0
   44.9460   36.5030   42.7650 H   0  0  0  0  0  0  0  0  0  0  0  0
   44.5350   33.1490   41.3950 Cl  0  0  0  0  0  0  0  0  0  0  0  0
   46.0820   33.8930   41.0640 C   0  0  0  0  0  0  0  0  0  0  0  0
   46.7030   34.6590   42.0420 C   0  0  0  0  0  0  0  0  0  0  0  0
   47.9220   35.2300   41.7320 C   0  0  0  0  0  0  0  0  0  0  0  0
   48.5040   35.0470   40.4920 C   0  0  0  0  0  0  0  0  0  0  0  0
   47.8330   34.2690   39.5560 C   0  0  0  0  0  0  0  0  0  0  0  0
   48.5810   34.0460   37.9920 Cl  0  0  0  0  0  0  0  0  0  0  0  0
   46.6050   33.6710   39.8140 C   0  0  0  0  0  0  0  0  0  0  0  0
   48.3810   35.8220   42.5150 H   0  0  0  0  0  0  0  0  0  0  0  0
   49.4620   35.5030   40.2660 H   0  0  0  0  0  0  0  0  0  0  0  0
   46.0930   33.0680   39.0760 H   0  0  0  0  0  0  0  0  0  0  0  0
   45.8390   33.0840   46.6040 C   0  0  0  0  0  0  0  0  0  0  0  0
   46.9410   32.2290   46.5970 C   0  0  0  0  0  0  0  0  0  0  0  0
   47.7330   32.1390   45.8480 H   0  0  0  0  0  0  0  0  0  0  0  0
   46.8970   31.4660   47.7280 N   0  0  0  0  0  0  0  0  0  0  0  0
   47.6170   30.7320   47.9720 H   0  0  0  0  0  0  0  0  0  0  0  0
   45.8050   31.8360   48.4120 C   0  0  0  0  0  0  0  0  0  0  0  0
   45.5420   31.3740   49.3590 H   0  0  0  0  0  0  0  0  0  0  0  0
   45.1560   32.8190   47.7360 N   0  0  0  0  0  0  0  0  0  0  0  0
  1  7  1  0  0  0  0
  1  6  1  0  0  0  0
  2  1  2  0  0  0  0
  3  2  1  0  0  0  0
  3  4  2  0  0  0  0
  4  5  1  0  0  0  0
  5  6  2  0  0  0  0
  5 20  1  0  0  0  0
  8  2  1  0  0  0  0
 10  9  1  0  0  0  0
 10 11  1  0  0  0  0
 11  3  1  0  0  0  0
 12 11  2  0  0  0  0
 12 17  1  0  0  0  0
 13 12  1  0  0  0  0
 14 16  1  0  0  0  0
 14 13  2  0  0  0  0
 15 14  1  0  0  0  0
 16 10  2  0  0  0  0
 18 13  1  0  0  0  0
 19 16  1  0  0  0  0
 20 27  1  0  0  0  0
 21 20  2  0  0  0  0
 21 23  1  0  0  0  0
 22 21  1  0  0  0  0
 23 24  1  0  0  0  0
 23 25  1  0  0  0  0
 25 26  1  0  0  0  0
 27 25  2  0  0  0  0
M  END
>  <minimizedAffinity>
-6.25615311

>  <minimizedRMSD>
0.196822912

$$$$
