
 OpenBabel03252509203D

 24 26  0  0  0  0  0  0  0  0999 V2000
   44.7370   35.6430   45.3800 C   0  0  0  0  0  0  0  0  0  0  0  0
   45.2750   36.0860   44.1620 C   0  0  0  0  0  0  0  0  0  0  0  0
   45.8480   35.0990   43.3880 C   0  0  0  0  0  0  0  0  0  0  0  0
   45.8630   33.7910   43.8350 N   0  0  0  0  0  0  0  0  0  0  0  0
   45.3340   33.4200   45.0110 C   0  0  0  0  0  0  0  0  0  0  0  0
   44.7750   34.3720   45.7650 N   0  0  0  0  0  0  0  0  0  0  0  0
   44.2460   36.2840   46.1110 H   0  0  0  0  0  0  0  0  0  0  0  0
   45.4490   32.3690   45.1680 H   0  0  0  0  0  0  0  0  0  0  0  0
   46.3330   35.4320   41.9930 C   0  0  0  0  0  0  0  0  0  0  0  0
   47.8380   35.1720   41.8910 C   0  0  0  0  0  0  0  0  0  0  0  0
   46.7620   34.3380   41.1440 C   0  0  0  0  0  0  0  0  0  0  0  0
   46.1690   36.4920   41.7100 H   0  0  0  0  0  0  0  0  0  0  0  0
   48.3460   34.5760   42.6720 H   0  0  0  0  0  0  0  0  0  0  0  0
   48.4650   35.8260   41.2930 H   0  0  0  0  0  0  0  0  0  0  0  0
   46.7410   34.5560   40.0390 H   0  0  0  0  0  0  0  0  0  0  0  0
   46.6040   33.3000   41.4450 H   0  0  0  0  0  0  0  0  0  0  0  0
   45.1750   37.4980   43.8750 C   0  0  0  0  0  0  0  0  0  0  0  0
   45.0390   38.2830   42.7790 C   0  0  0  0  0  0  0  0  0  0  0  0
   44.9520   37.9770   41.7730 H   0  0  0  0  0  0  0  0  0  0  0  0
   45.0600   39.5870   43.0750 N   0  0  0  0  0  0  0  0  0  0  0  0
   44.9770   40.4110   42.4480 H   0  0  0  0  0  0  0  0  0  0  0  0
   45.2120   39.6660   44.3970 C   0  0  0  0  0  0  0  0  0  0  0  0
   45.2790   40.5220   45.0540 H   0  0  0  0  0  0  0  0  0  0  0  0
   45.2780   38.4180   44.8500 N   0  0  0  0  0  0  0  0  0  0  0  0
  1  6  1  0  0  0  0
  1  7  1  0  0  0  0
  2  1  2  0  0  0  0
  3  4  2  0  0  0  0
  3  2  1  0  0  0  0
  4  5  1  0  0  0  0
  5  8  1  0  0  0  0
  5  6  2  0  0  0  0
  9  3  1  0  0  0  0
 10  9  1  0  0  0  0
 10 13  1  0  0  0  0
 11 16  1  0  0  0  0
 11 10  1  0  0  0  0
 11  9  1  0  0  0  0
 12  9  1  0  0  0  0
 14 10  1  0  0  0  0
 15 11  1  0  0  0  0
 17  2  1  0  0  0  0
 17 24  1  0  0  0  0
 18 20  1  0  0  0  0
 18 17  2  0  0  0  0
 19 18  1  0  0  0  0
 20 22  1  0  0  0  0
 21 20  1  0  0  0  0
 22 24  2  0  0  0  0
 22 23  1  0  0  0  0
M  END
>  <minimizedAffinity>
-1.99940145

>  <minimizedRMSD>
1.74254084

$$$$
