
 OpenBabel03252500533D

 23 24  0  0  0  0  0  0  0  0999 V2000
   38.3600   27.6170   43.0280 C   0  0  0  0  0  0  0  0  0  0  0  0
   38.5760   28.8440   42.4430 C   0  0  0  0  0  0  0  0  0  0  0  0
   39.9180   29.3130   42.4410 C   0  0  0  0  0  0  0  0  0  0  0  0
   40.9040   28.5560   43.0040 N   0  0  0  0  0  0  0  0  0  0  0  0
   40.6240   27.3700   43.5610 C   0  0  0  0  0  0  0  0  0  0  0  0
   39.3780   26.9130   43.5710 N   0  0  0  0  0  0  0  0  0  0  0  0
   40.3030   30.2320   42.0390 H   0  0  0  0  0  0  0  0  0  0  0  0
   41.3800   26.7610   44.0080 H   0  0  0  0  0  0  0  0  0  0  0  0
   37.6380   29.7520   41.8330 C   0  0  0  0  0  0  0  0  0  0  0  0
   36.2800   29.9170   41.7700 C   0  0  0  0  0  0  0  0  0  0  0  0
   35.5680   29.2620   42.2370 H   0  0  0  0  0  0  0  0  0  0  0  0
   35.8810   30.9850   41.1020 N   0  0  0  0  0  0  0  0  0  0  0  0
   34.9110   31.3150   40.9200 H   0  0  0  0  0  0  0  0  0  0  0  0
   37.0140   31.5740   40.6930 C   0  0  0  0  0  0  0  0  0  0  0  0
   37.1600   32.4770   40.1150 H   0  0  0  0  0  0  0  0  0  0  0  0
   38.0300   30.8300   41.1360 N   0  0  0  0  0  0  0  0  0  0  0  0
   37.0200   27.0460   43.0300 C   0  0  0  0  0  0  0  0  0  0  0  0
   36.7220   26.7600   44.0590 H   0  0  0  0  0  0  0  0  0  0  0  0
   36.2100   27.6510   42.6330 H   0  0  0  0  0  0  0  0  0  0  0  0
   37.0400   25.7190   42.2680 C   0  0  0  0  0  0  0  0  0  0  0  0
   36.1670   25.5900   41.6030 H   0  0  0  0  0  0  0  0  0  0  0  0
   36.9610   24.8430   42.9800 H   0  0  0  0  0  0  0  0  0  0  0  0
   38.0000   25.5440   41.7420 H   0  0  0  0  0  0  0  0  0  0  0  0
  1 17  1  0  0  0  0
  1  6  1  0  0  0  0
  2  1  2  0  0  0  0
  3  2  1  0  0  0  0
  3  4  2  0  0  0  0
  4  5  1  0  0  0  0
  5  6  2  0  0  0  0
  5  8  1  0  0  0  0
  7  3  1  0  0  0  0
  9  2  1  0  0  0  0
 10  9  2  0  0  0  0
 10 11  1  0  0  0  0
 12 10  1  0  0  0  0
 13 12  1  0  0  0  0
 14 12  1  0  0  0  0
 14 16  2  0  0  0  0
 15 14  1  0  0  0  0
 16  9  1  0  0  0  0
 17 18  1  0  0  0  0
 19 17  1  0  0  0  0
 20 22  1  0  0  0  0
 20 17  1  0  0  0  0
 21 20  1  0  0  0  0
 23 20  1  0  0  0  0
M  END
>  <minimizedAffinity>
-4.22959805

$$$$

 OpenBabel03252500533D

 23 24  0  0  0  0  0  0  0  0999 V2000
   36.9570   26.6520   41.9690 C   0  0  0  0  0  0  0  0  0  0  0  0
   36.7080   27.4620   40.8830 C   0  0  0  0  0  0  0  0  0  0  0  0
   36.5900   26.8110   39.6250 C   0  0  0  0  0  0  0  0  0  0  0  0
   36.7290   25.4550   39.5460 N   0  0  0  0  0  0  0  0  0  0  0  0
   36.9740   24.7250   40.6420 C   0  0  0  0  0  0  0  0  0  0  0  0
   37.0850   25.3140   41.8270 N   0  0  0  0  0  0  0  0  0  0  0  0
   36.3970   27.2480   38.6630 H   0  0  0  0  0  0  0  0  0  0  0  0
   37.0870   23.6630   40.6030 H   0  0  0  0  0  0  0  0  0  0  0  0
   36.5590   28.8940   40.8170 C   0  0  0  0  0  0  0  0  0  0  0  0
   35.5470   29.8020   40.6540 C   0  0  0  0  0  0  0  0  0  0  0  0
   34.5170   29.5400   40.5030 H   0  0  0  0  0  0  0  0  0  0  0  0
   35.9210   31.0680   40.7270 N   0  0  0  0  0  0  0  0  0  0  0  0
   35.3390   31.9250   40.6330 H   0  0  0  0  0  0  0  0  0  0  0  0
   37.2420   31.0200   40.9490 C   0  0  0  0  0  0  0  0  0  0  0  0
   37.9550   31.8240   41.0770 H   0  0  0  0  0  0  0  0  0  0  0  0
   37.5910   29.7330   40.9990 N   0  0  0  0  0  0  0  0  0  0  0  0
   37.0460   27.2380   43.2980 C   0  0  0  0  0  0  0  0  0  0  0  0
   36.6590   28.2780   43.2900 H   0  0  0  0  0  0  0  0  0  0  0  0
   36.5380   26.7300   44.1120 H   0  0  0  0  0  0  0  0  0  0  0  0
   38.5190   27.3950   43.6790 C   0  0  0  0  0  0  0  0  0  0  0  0
   38.7270   27.1080   44.7270 H   0  0  0  0  0  0  0  0  0  0  0  0
   38.8350   28.4800   43.6360 H   0  0  0  0  0  0  0  0  0  0  0  0
   39.2010   26.8950   42.9620 H   0  0  0  0  0  0  0  0  0  0  0  0
  1 17  1  0  0  0  0
  2  1  2  0  0  0  0
  3  2  1  0  0  0  0
  4  3  2  0  0  0  0
  4  5  1  0  0  0  0
  5  6  2  0  0  0  0
  6  1  1  0  0  0  0
  7  3  1  0  0  0  0
  8  5  1  0  0  0  0
  9  2  1  0  0  0  0
  9 16  1  0  0  0  0
 10 12  1  0  0  0  0
 10  9  2  0  0  0  0
 11 10  1  0  0  0  0
 12 14  1  0  0  0  0
 13 12  1  0  0  0  0
 14 16  2  0  0  0  0
 14 15  1  0  0  0  0
 17 20  1  0  0  0  0
 17 19  1  0  0  0  0
 18 17  1  0  0  0  0
 20 21  1  0  0  0  0
 22 20  1  0  0  0  0
 23 20  1  0  0  0  0
M  END
>  <minimizedAffinity>
-3.9842782

$$$$

 OpenBabel03252500533D

 23 24  0  0  0  0  0  0  0  0999 V2000
   38.7500   24.8350   42.2000 C   0  0  0  0  0  0  0  0  0  0  0  0
   37.7990   25.7810   41.8890 C   0  0  0  0  0  0  0  0  0  0  0  0
   36.9120   25.4570   40.8270 C   0  0  0  0  0  0  0  0  0  0  0  0
   37.0370   24.2630   40.1770 N   0  0  0  0  0  0  0  0  0  0  0  0
   37.9880   23.3870   40.5280 C   0  0  0  0  0  0  0  0  0  0  0  0
   38.8250   23.6700   41.5190 N   0  0  0  0  0  0  0  0  0  0  0  0
   36.1050   26.0440   40.4280 H   0  0  0  0  0  0  0  0  0  0  0  0
   38.1050   22.4470   40.0330 H   0  0  0  0  0  0  0  0  0  0  0  0
   37.5650   27.0790   42.4710 C   0  0  0  0  0  0  0  0  0  0  0  0
   36.8190   27.6150   43.4860 C   0  0  0  0  0  0  0  0  0  0  0  0
   36.1530   27.0510   44.1120 H   0  0  0  0  0  0  0  0  0  0  0  0
   36.9960   28.9110   43.6790 N   0  0  0  0  0  0  0  0  0  0  0  0
   36.5440   29.5320   44.3810 H   0  0  0  0  0  0  0  0  0  0  0  0
   37.9000   29.2720   42.7570 C   0  0  0  0  0  0  0  0  0  0  0  0
   38.3370   30.2400   42.5550 H   0  0  0  0  0  0  0  0  0  0  0  0
   38.2180   28.1780   42.0630 N   0  0  0  0  0  0  0  0  0  0  0  0
   39.6660   25.0720   43.3070 C   0  0  0  0  0  0  0  0  0  0  0  0
   39.4850   26.0720   43.7510 H   0  0  0  0  0  0  0  0  0  0  0  0
   39.6610   24.3660   44.1310 H   0  0  0  0  0  0  0  0  0  0  0  0
   41.0940   25.1610   42.7640 C   0  0  0  0  0  0  0  0  0  0  0  0
   41.8290   24.6270   43.3930 H   0  0  0  0  0  0  0  0  0  0  0  0
   41.4650   26.2300   42.7750 H   0  0  0  0  0  0  0  0  0  0  0  0
   41.1630   24.8710   41.6960 H   0  0  0  0  0  0  0  0  0  0  0  0
  1 17  1  0  0  0  0
  2  1  1  0  0  0  0
  2  9  1  0  0  0  0
  3  2  2  0  0  0  0
  4  5  2  0  0  0  0
  4  3  1  0  0  0  0
  5  6  1  0  0  0  0
  6  1  2  0  0  0  0
  7  3  1  0  0  0  0
  8  5  1  0  0  0  0
  9 10  2  0  0  0  0
 10 12  1  0  0  0  0
 10 11  1  0  0  0  0
 12 13  1  0  0  0  0
 14 12  1  0  0  0  0
 15 14  1  0  0  0  0
 16  9  1  0  0  0  0
 16 14  2  0  0  0  0
 17 18  1  0  0  0  0
 17 19  1  0  0  0  0
 20 22  1  0  0  0  0
 20 17  1  0  0  0  0
 20 21  1  0  0  0  0
 23 20  1  0  0  0  0
M  END
>  <minimizedAffinity>
-3.93867111

$$$$

 OpenBabel03252500533D

 23 24  0  0  0  0  0  0  0  0999 V2000
   37.5680   28.0300   40.9290 C   0  0  0  0  0  0  0  0  0  0  0  0
   37.6650   29.2230   41.6110 C   0  0  0  0  0  0  0  0  0  0  0  0
   37.9130   29.1310   43.0070 C   0  0  0  0  0  0  0  0  0  0  0  0
   38.0350   27.9070   43.5980 N   0  0  0  0  0  0  0  0  0  0  0  0
   37.9270   26.7830   42.8760 C   0  0  0  0  0  0  0  0  0  0  0  0
   37.6980   26.8470   41.5700 N   0  0  0  0  0  0  0  0  0  0  0  0
   38.0250   29.9290   43.7190 H   0  0  0  0  0  0  0  0  0  0  0  0
   38.0180   25.8140   43.3170 H   0  0  0  0  0  0  0  0  0  0  0  0
   37.5400   30.5740   41.1260 C   0  0  0  0  0  0  0  0  0  0  0  0
   36.5420   31.4130   40.7070 C   0  0  0  0  0  0  0  0  0  0  0  0
   35.5060   31.1380   40.6460 H   0  0  0  0  0  0  0  0  0  0  0  0
   36.9390   32.6360   40.4010 N   0  0  0  0  0  0  0  0  0  0  0  0
   36.3700   33.4390   40.0610 H   0  0  0  0  0  0  0  0  0  0  0  0
   38.2610   32.6310   40.6200 C   0  0  0  0  0  0  0  0  0  0  0  0
   38.9890   33.4220   40.5010 H   0  0  0  0  0  0  0  0  0  0  0  0
   38.5880   31.4090   41.0460 N   0  0  0  0  0  0  0  0  0  0  0  0
   37.3610   28.0400   39.4880 C   0  0  0  0  0  0  0  0  0  0  0  0
   37.5720   29.0470   39.0730 H   0  0  0  0  0  0  0  0  0  0  0  0
   37.9310   27.3370   38.8880 H   0  0  0  0  0  0  0  0  0  0  0  0
   35.8760   27.8220   39.1940 C   0  0  0  0  0  0  0  0  0  0  0  0
   35.6990   27.1280   38.3520 H   0  0  0  0  0  0  0  0  0  0  0  0
   35.3860   28.7820   38.8500 H   0  0  0  0  0  0  0  0  0  0  0  0
   35.2980   27.5430   40.0980 H   0  0  0  0  0  0  0  0  0  0  0  0
  1  6  2  0  0  0  0
  1  2  1  0  0  0  0
  2  3  2  0  0  0  0
  3  4  1  0  0  0  0
  3  7  1  0  0  0  0
  5  8  1  0  0  0  0
  5  4  2  0  0  0  0
  6  5  1  0  0  0  0
  9  2  1  0  0  0  0
 10  9  2  0  0  0  0
 11 10  1  0  0  0  0
 12 14  1  0  0  0  0
 12 10  1  0  0  0  0
 13 12  1  0  0  0  0
 14 16  2  0  0  0  0
 15 14  1  0  0  0  0
 16  9  1  0  0  0  0
 17  1  1  0  0  0  0
 18 17  1  0  0  0  0
 19 17  1  0  0  0  0
 20 17  1  0  0  0  0
 20 23  1  0  0  0  0
 21 20  1  0  0  0  0
 22 20  1  0  0  0  0
M  END
>  <minimizedAffinity>
-3.90463257

$$$$

 OpenBabel03252500533D

 23 24  0  0  0  0  0  0  0  0999 V2000
   36.5620   27.9560   41.8040 C   0  0  0  0  0  0  0  0  0  0  0  0
   36.9320   26.8230   41.1130 C   0  0  0  0  0  0  0  0  0  0  0  0
   36.5580   26.7710   39.7430 C   0  0  0  0  0  0  0  0  0  0  0  0
   35.8670   27.8080   39.1870 N   0  0  0  0  0  0  0  0  0  0  0  0
   35.5360   28.8820   39.9170 C   0  0  0  0  0  0  0  0  0  0  0  0
   35.8770   28.9510   41.1980 N   0  0  0  0  0  0  0  0  0  0  0  0
   36.7460   25.9900   39.0300 H   0  0  0  0  0  0  0  0  0  0  0  0
   34.9940   29.7040   39.5030 H   0  0  0  0  0  0  0  0  0  0  0  0
   37.6390   25.6540   41.5720 C   0  0  0  0  0  0  0  0  0  0  0  0
   37.3360   24.3940   42.0130 C   0  0  0  0  0  0  0  0  0  0  0  0
   36.3380   24.0140   42.1230 H   0  0  0  0  0  0  0  0  0  0  0  0
   38.3840   23.6310   42.2740 N   0  0  0  0  0  0  0  0  0  0  0  0
   38.4050   22.6490   42.6180 H   0  0  0  0  0  0  0  0  0  0  0  0
   39.4440   24.4040   42.0000 C   0  0  0  0  0  0  0  0  0  0  0  0
   40.5010   24.1850   42.0710 H   0  0  0  0  0  0  0  0  0  0  0  0
   38.9790   25.5850   41.5890 N   0  0  0  0  0  0  0  0  0  0  0  0
   36.9480   28.1050   43.2000 C   0  0  0  0  0  0  0  0  0  0  0  0
   36.1630   28.6500   43.7630 H   0  0  0  0  0  0  0  0  0  0  0  0
   37.1610   27.2040   43.7670 H   0  0  0  0  0  0  0  0  0  0  0  0
   38.1700   29.0220   43.2860 C   0  0  0  0  0  0  0  0  0  0  0  0
   38.9290   28.6640   44.0050 H   0  0  0  0  0  0  0  0  0  0  0  0
   37.8840   30.0400   43.6910 H   0  0  0  0  0  0  0  0  0  0  0  0
   38.6040   29.2480   42.2920 H   0  0  0  0  0  0  0  0  0  0  0  0
  1 17  1  0  0  0  0
  2  9  1  0  0  0  0
  2  1  2  0  0  0  0
  3  2  1  0  0  0  0
  4  3  2  0  0  0  0
  4  5  1  0  0  0  0
  5  6  2  0  0  0  0
  6  1  1  0  0  0  0
  7  3  1  0  0  0  0
  8  5  1  0  0  0  0
  9 16  1  0  0  0  0
  9 10  2  0  0  0  0
 10 11  1  0  0  0  0
 10 12  1  0  0  0  0
 12 13  1  0  0  0  0
 14 15  1  0  0  0  0
 14 12  1  0  0  0  0
 16 14  2  0  0  0  0
 17 20  1  0  0  0  0
 17 18  1  0  0  0  0
 17 19  1  0  0  0  0
 20 22  1  0  0  0  0
 20 21  1  0  0  0  0
 23 20  1  0  0  0  0
M  END
>  <minimizedAffinity>
-3.87627935

$$$$

 OpenBabel03252500533D

 23 24  0  0  0  0  0  0  0  0999 V2000
   36.8780   29.7580   40.9560 C   0  0  0  0  0  0  0  0  0  0  0  0
   38.0210   30.4980   41.1620 C   0  0  0  0  0  0  0  0  0  0  0  0
   38.8160   30.1300   42.2810 C   0  0  0  0  0  0  0  0  0  0  0  0
   38.4270   29.0960   43.0820 N   0  0  0  0  0  0  0  0  0  0  0  0
   37.3000   28.4180   42.8270 C   0  0  0  0  0  0  0  0  0  0  0  0
   36.5440   28.7440   41.7850 N   0  0  0  0  0  0  0  0  0  0  0  0
   39.7370   30.5700   42.6180 H   0  0  0  0  0  0  0  0  0  0  0  0
   36.9750   27.6060   43.4410 H   0  0  0  0  0  0  0  0  0  0  0  0
   38.5400   31.6170   40.4170 C   0  0  0  0  0  0  0  0  0  0  0  0
   39.0920   31.8470   39.1850 C   0  0  0  0  0  0  0  0  0  0  0  0
   39.2760   31.0840   38.4520 H   0  0  0  0  0  0  0  0  0  0  0  0
   39.3680   33.1150   38.9290 N   0  0  0  0  0  0  0  0  0  0  0  0
   39.7880   33.5290   38.0720 H   0  0  0  0  0  0  0  0  0  0  0  0
   38.9880   33.7750   40.0320 C   0  0  0  0  0  0  0  0  0  0  0  0
   39.0300   34.8320   40.2580 H   0  0  0  0  0  0  0  0  0  0  0  0
   38.5050   32.8730   40.8890 N   0  0  0  0  0  0  0  0  0  0  0  0
   36.0340   30.0430   39.8040 C   0  0  0  0  0  0  0  0  0  0  0  0
   35.6410   31.0780   39.8590 H   0  0  0  0  0  0  0  0  0  0  0  0
   36.4690   29.9330   38.8160 H   0  0  0  0  0  0  0  0  0  0  0  0
   34.7810   29.1670   39.8730 C   0  0  0  0  0  0  0  0  0  0  0  0
   34.5000   28.7380   38.8940 H   0  0  0  0  0  0  0  0  0  0  0  0
   33.8750   29.7790   40.1620 H   0  0  0  0  0  0  0  0  0  0  0  0
   34.8420   28.3970   40.6690 H   0  0  0  0  0  0  0  0  0  0  0  0
  1  2  2  0  0  0  0
  1  6  1  0  0  0  0
  2  3  1  0  0  0  0
  3  7  1  0  0  0  0
  3  4  2  0  0  0  0
  5  4  1  0  0  0  0
  5  8  1  0  0  0  0
  6  5  2  0  0  0  0
  9 16  1  0  0  0  0
  9  2  1  0  0  0  0
 10  9  2  0  0  0  0
 11 10  1  0  0  0  0
 12 10  1  0  0  0  0
 12 14  1  0  0  0  0
 13 12  1  0  0  0  0
 14 15  1  0  0  0  0
 14 16  2  0  0  0  0
 17 18  1  0  0  0  0
 17 20  1  0  0  0  0
 17  1  1  0  0  0  0
 19 17  1  0  0  0  0
 20 22  1  0  0  0  0
 20 23  1  0  0  0  0
 21 20  1  0  0  0  0
M  END
>  <minimizedAffinity>
-3.79060984

$$$$

 OpenBabel03252500533D

 23 24  0  0  0  0  0  0  0  0999 V2000
   37.9680   28.5710   41.4630 C   0  0  0  0  0  0  0  0  0  0  0  0
   38.1220   29.4710   40.4320 C   0  0  0  0  0  0  0  0  0  0  0  0
   38.5670   28.9380   39.1920 C   0  0  0  0  0  0  0  0  0  0  0  0
   38.8210   27.6020   39.0780 N   0  0  0  0  0  0  0  0  0  0  0  0
   38.6530   26.7800   40.1230 C   0  0  0  0  0  0  0  0  0  0  0  0
   38.2360   27.2580   41.2890 N   0  0  0  0  0  0  0  0  0  0  0  0
   38.7490   29.4580   38.2690 H   0  0  0  0  0  0  0  0  0  0  0  0
   38.8460   25.7310   40.0560 H   0  0  0  0  0  0  0  0  0  0  0  0
   37.9130   30.8970   40.4150 C   0  0  0  0  0  0  0  0  0  0  0  0
   36.8700   31.7670   40.2380 C   0  0  0  0  0  0  0  0  0  0  0  0
   35.8610   31.4680   40.0270 H   0  0  0  0  0  0  0  0  0  0  0  0
   37.1840   33.0440   40.3790 N   0  0  0  0  0  0  0  0  0  0  0  0
   36.5690   33.8780   40.2910 H   0  0  0  0  0  0  0  0  0  0  0  0
   38.4940   33.0430   40.6630 C   0  0  0  0  0  0  0  0  0  0  0  0
   39.1640   33.8710   40.8560 H   0  0  0  0  0  0  0  0  0  0  0  0
   38.8970   31.7710   40.6790 N   0  0  0  0  0  0  0  0  0  0  0  0
   37.4720   29.0320   42.7520 C   0  0  0  0  0  0  0  0  0  0  0  0
   38.2410   29.6420   43.2680 H   0  0  0  0  0  0  0  0  0  0  0  0
   36.5580   29.6170   42.7640 H   0  0  0  0  0  0  0  0  0  0  0  0
   37.2770   27.8260   43.6730 C   0  0  0  0  0  0  0  0  0  0  0  0
   36.3410   27.8760   44.2590 H   0  0  0  0  0  0  0  0  0  0  0  0
   38.0830   27.7890   44.4670 H   0  0  0  0  0  0  0  0  0  0  0  0
   37.3900   26.8600   43.1410 H   0  0  0  0  0  0  0  0  0  0  0  0
  1 17  1  0  0  0  0
  2  1  2  0  0  0  0
  3  2  1  0  0  0  0
  4  3  2  0  0  0  0
  4  5  1  0  0  0  0
  5  6  2  0  0  0  0
  6  1  1  0  0  0  0
  7  3  1  0  0  0  0
  8  5  1  0  0  0  0
  9  2  1  0  0  0  0
  9 16  1  0  0  0  0
 10 12  1  0  0  0  0
 10  9  2  0  0  0  0
 11 10  1  0  0  0  0
 12 14  1  0  0  0  0
 13 12  1  0  0  0  0
 14 16  2  0  0  0  0
 14 15  1  0  0  0  0
 17 19  1  0  0  0  0
 17 18  1  0  0  0  0
 17 20  1  0  0  0  0
 20 21  1  0  0  0  0
 20 22  1  0  0  0  0
 23 20  1  0  0  0  0
M  END
>  <minimizedAffinity>
-3.77030087

$$$$

 OpenBabel03252500533D

 23 24  0  0  0  0  0  0  0  0999 V2000
   36.6970   30.0820   39.1330 C   0  0  0  0  0  0  0  0  0  0  0  0
   36.9900   30.3120   40.4590 C   0  0  0  0  0  0  0  0  0  0  0  0
   37.4570   31.6150   40.7830 C   0  0  0  0  0  0  0  0  0  0  0  0
   37.5960   32.5520   39.8010 N   0  0  0  0  0  0  0  0  0  0  0  0
   37.2950   32.2610   38.5280 C   0  0  0  0  0  0  0  0  0  0  0  0
   36.8560   31.0510   38.2040 N   0  0  0  0  0  0  0  0  0  0  0  0
   37.7370   32.0020   41.7460 H   0  0  0  0  0  0  0  0  0  0  0  0
   37.3980   32.9780   37.7430 H   0  0  0  0  0  0  0  0  0  0  0  0
   36.9100   29.4200   41.5890 C   0  0  0  0  0  0  0  0  0  0  0  0
   36.1870   28.3200   41.9620 C   0  0  0  0  0  0  0  0  0  0  0  0
   35.4080   27.8770   41.3700 H   0  0  0  0  0  0  0  0  0  0  0  0
   36.5370   27.7950   43.1240 N   0  0  0  0  0  0  0  0  0  0  0  0
   36.1360   26.9680   43.6120 H   0  0  0  0  0  0  0  0  0  0  0  0
   37.5400   28.5700   43.5600 C   0  0  0  0  0  0  0  0  0  0  0  0
   38.1250   28.5060   44.4670 H   0  0  0  0  0  0  0  0  0  0  0  0
   37.7400   29.5160   42.6390 N   0  0  0  0  0  0  0  0  0  0  0  0
   36.1700   28.7870   38.7270 C   0  0  0  0  0  0  0  0  0  0  0  0
   36.5660   28.5020   37.7310 H   0  0  0  0  0  0  0  0  0  0  0  0
   36.3470   27.9380   39.3810 H   0  0  0  0  0  0  0  0  0  0  0  0
   34.6610   28.9080   38.5050 C   0  0  0  0  0  0  0  0  0  0  0  0
   34.0940   28.0510   38.9120 H   0  0  0  0  0  0  0  0  0  0  0  0
   34.4110   28.8870   37.4010 H   0  0  0  0  0  0  0  0  0  0  0  0
   34.2560   29.8820   38.8460 H   0  0  0  0  0  0  0  0  0  0  0  0
  1  2  1  0  0  0  0
  2  3  2  0  0  0  0
  2  9  1  0  0  0  0
  3  7  1  0  0  0  0
  4  3  1  0  0  0  0
  5  4  2  0  0  0  0
  6  5  1  0  0  0  0
  6  1  2  0  0  0  0
  8  5  1  0  0  0  0
  9 10  2  0  0  0  0
  9 16  1  0  0  0  0
 10 12  1  0  0  0  0
 11 10  1  0  0  0  0
 12 14  1  0  0  0  0
 12 13  1  0  0  0  0
 14 15  1  0  0  0  0
 16 14  2  0  0  0  0
 17  1  1  0  0  0  0
 17 19  1  0  0  0  0
 18 17  1  0  0  0  0
 20 17  1  0  0  0  0
 20 23  1  0  0  0  0
 20 21  1  0  0  0  0
 22 20  1  0  0  0  0
M  END
>  <minimizedAffinity>
-3.72317266

$$$$

 OpenBabel03252500533D

 23 24  0  0  0  0  0  0  0  0999 V2000
   37.7420   27.9020   42.4740 C   0  0  0  0  0  0  0  0  0  0  0  0
   37.3680   26.9690   41.5330 C   0  0  0  0  0  0  0  0  0  0  0  0
   36.5310   27.4340   40.4830 C   0  0  0  0  0  0  0  0  0  0  0  0
   36.1400   28.7410   40.4530 N   0  0  0  0  0  0  0  0  0  0  0  0
   36.5380   29.5980   41.4020 C   0  0  0  0  0  0  0  0  0  0  0  0
   37.3220   29.1840   42.3910 N   0  0  0  0  0  0  0  0  0  0  0  0
   36.1300   26.8790   39.6540 H   0  0  0  0  0  0  0  0  0  0  0  0
   36.2430   30.6250   41.4000 H   0  0  0  0  0  0  0  0  0  0  0  0
   37.6870   25.5650   41.4500 C   0  0  0  0  0  0  0  0  0  0  0  0
   37.1900   24.3830   41.9290 C   0  0  0  0  0  0  0  0  0  0  0  0
   36.3380   24.3020   42.5770 H   0  0  0  0  0  0  0  0  0  0  0  0
   37.8260   23.3030   41.5070 N   0  0  0  0  0  0  0  0  0  0  0  0
   37.6350   22.3060   41.7340 H   0  0  0  0  0  0  0  0  0  0  0  0
   38.7950   23.7700   40.7070 C   0  0  0  0  0  0  0  0  0  0  0  0
   39.5520   23.2360   40.1480 H   0  0  0  0  0  0  0  0  0  0  0  0
   38.6910   25.1000   40.6900 N   0  0  0  0  0  0  0  0  0  0  0  0
   38.6370   27.5150   43.5550 C   0  0  0  0  0  0  0  0  0  0  0  0
   38.4190   28.1050   44.4690 H   0  0  0  0  0  0  0  0  0  0  0  0
   38.6460   26.4730   43.8590 H   0  0  0  0  0  0  0  0  0  0  0  0
   40.0670   27.9160   43.1890 C   0  0  0  0  0  0  0  0  0  0  0  0
   40.8120   27.1410   43.4450 H   0  0  0  0  0  0  0  0  0  0  0  0
   40.4040   28.8120   43.7920 H   0  0  0  0  0  0  0  0  0  0  0  0
   40.1590   28.2590   42.1380 H   0  0  0  0  0  0  0  0  0  0  0  0
  1 17  1  0  0  0  0
  2  1  2  0  0  0  0
  3  2  1  0  0  0  0
  4  3  2  0  0  0  0
  4  5  1  0  0  0  0
  5  6  2  0  0  0  0
  6  1  1  0  0  0  0
  7  3  1  0  0  0  0
  8  5  1  0  0  0  0
  9  2  1  0  0  0  0
  9 10  2  0  0  0  0
 10 11  1  0  0  0  0
 12 13  1  0  0  0  0
 12 10  1  0  0  0  0
 14 12  1  0  0  0  0
 15 14  1  0  0  0  0
 16 14  2  0  0  0  0
 16  9  1  0  0  0  0
 17 19  1  0  0  0  0
 17 18  1  0  0  0  0
 20 21  1  0  0  0  0
 20 17  1  0  0  0  0
 20 22  1  0  0  0  0
 23 20  1  0  0  0  0
M  END
>  <minimizedAffinity>
-3.7187233

$$$$
