
 OpenBabel03252505183D

 33 36  0  0  0  0  0  0  0  0999 V2000
   46.0960   32.7120   47.0940 C   0  0  0  0  0  0  0  0  0  0  0  0
   44.9910   32.3510   47.8380 C   0  0  0  0  0  0  0  0  0  0  0  0
   45.1340   31.5350   48.9390 C   0  0  0  0  0  0  0  0  0  0  0  0
   46.4060   31.1100   49.2470 C   0  0  0  0  0  0  0  0  0  0  0  0
   47.4960   31.4980   48.4710 C   0  0  0  0  0  0  0  0  0  0  0  0
   47.3440   32.3010   47.3900 N   0  0  0  0  0  0  0  0  0  0  0  0
   43.9870   32.6900   47.5890 H   0  0  0  0  0  0  0  0  0  0  0  0
   44.2720   31.2460   49.5290 H   0  0  0  0  0  0  0  0  0  0  0  0
   46.5240   30.4690   50.1110 H   0  0  0  0  0  0  0  0  0  0  0  0
   44.7560   35.2790   44.8040 C   0  0  0  0  0  0  0  0  0  0  0  0
   45.5670   35.1690   43.6640 C   0  0  0  0  0  0  0  0  0  0  0  0
   46.5540   34.2130   43.7300 C   0  0  0  0  0  0  0  0  0  0  0  0
   46.7050   33.4380   44.8500 N   0  0  0  0  0  0  0  0  0  0  0  0
   45.8930   33.5810   45.9320 C   0  0  0  0  0  0  0  0  0  0  0  0
   44.9260   34.5020   45.8980 N   0  0  0  0  0  0  0  0  0  0  0  0
   43.9780   36.0100   44.7950 H   0  0  0  0  0  0  0  0  0  0  0  0
   45.4290   35.7870   42.8010 H   0  0  0  0  0  0  0  0  0  0  0  0
   47.4680   33.9800   42.5570 C   0  0  0  0  0  0  0  0  0  0  0  0
   47.9580   35.2780   41.9150 C   0  0  0  0  0  0  0  0  0  0  0  0
   48.8730   34.2640   42.6790 C   0  0  0  0  0  0  0  0  0  0  0  0
   47.0790   33.2150   41.8420 H   0  0  0  0  0  0  0  0  0  0  0  0
   47.9800   35.2650   40.8300 H   0  0  0  0  0  0  0  0  0  0  0  0
   47.7880   36.2240   42.4650 H   0  0  0  0  0  0  0  0  0  0  0  0
   49.5530   33.7130   41.9660 H   0  0  0  0  0  0  0  0  0  0  0  0
   49.3570   34.6370   43.5870 H   0  0  0  0  0  0  0  0  0  0  0  0
   48.8480   31.0350   48.8140 C   0  0  0  0  0  0  0  0  0  0  0  0
   49.7750   31.7650   49.5300 C   0  0  0  0  0  0  0  0  0  0  0  0
   49.5810   32.7750   49.9140 H   0  0  0  0  0  0  0  0  0  0  0  0
   50.8890   30.9990   49.6380 N   0  0  0  0  0  0  0  0  0  0  0  0
   51.7010   31.4080   50.1590 H   0  0  0  0  0  0  0  0  0  0  0  0
   50.6660   29.8320   49.0110 C   0  0  0  0  0  0  0  0  0  0  0  0
   51.4370   29.0490   48.9700 H   0  0  0  0  0  0  0  0  0  0  0  0
   49.4050   29.8340   48.4930 N   0  0  0  0  0  0  0  0  0  0  0  0
  1  6  2  0  0  0  0
  1  2  1  0  0  0  0
  2  3  2  0  0  0  0
  3  4  1  0  0  0  0
  3  8  1  0  0  0  0
  4  9  1  0  0  0  0
  5 26  1  0  0  0  0
  5  4  2  0  0  0  0
  6  5  1  0  0  0  0
  7  2  1  0  0  0  0
 10 15  1  0  0  0  0
 11 12  1  0  0  0  0
 11 10  2  0  0  0  0
 12 13  2  0  0  0  0
 13 14  1  0  0  0  0
 14  1  1  0  0  0  0
 15 14  2  0  0  0  0
 16 10  1  0  0  0  0
 17 11  1  0  0  0  0
 18 20  1  0  0  0  0
 18 12  1  0  0  0  0
 19 23  1  0  0  0  0
 19 18  1  0  0  0  0
 19 20  1  0  0  0  0
 20 25  1  0  0  0  0
 21 18  1  0  0  0  0
 22 19  1  0  0  0  0
 24 20  1  0  0  0  0
 26 27  2  0  0  0  0
 27 29  1  0  0  0  0
 27 28  1  0  0  0  0
 29 30  1  0  0  0  0
 31 29  1  0  0  0  0
 32 31  1  0  0  0  0
 33 26  1  0  0  0  0
 33 31  2  0  0  0  0
M  END
>  <minimizedAffinity>
-6.01423168

>  <minimizedRMSD>
1.45902586

$$$$
