
 OpenBabel03252509153D

 24 26  0  0  0  0  0  0  0  0999 V2000
   45.9140   33.1040   46.2170 C   0  0  0  0  0  0  0  0  0  0  0  0
   45.4340   32.9570   47.5440 C   0  0  0  0  0  0  0  0  0  0  0  0
   46.0800   32.0910   48.3470 C   0  0  0  0  0  0  0  0  0  0  0  0
   47.1930   31.3680   47.8610 C   0  0  0  0  0  0  0  0  0  0  0  0
   47.3340   31.9600   46.1390 S   0  0  0  0  0  0  0  0  0  0  0  0
   44.5800   33.5220   47.8890 H   0  0  0  0  0  0  0  0  0  0  0  0
   45.8380   31.8680   49.3670 H   0  0  0  0  0  0  0  0  0  0  0  0
   44.2890   35.9230   44.4360 C   0  0  0  0  0  0  0  0  0  0  0  0
   44.2960   35.4040   43.1140 C   0  0  0  0  0  0  0  0  0  0  0  0
   44.8450   34.1410   42.8990 C   0  0  0  0  0  0  0  0  0  0  0  0
   45.3460   33.4750   43.9800 N   0  0  0  0  0  0  0  0  0  0  0  0
   45.3200   34.0050   45.2240 C   0  0  0  0  0  0  0  0  0  0  0  0
   44.7920   35.2320   45.4610 N   0  0  0  0  0  0  0  0  0  0  0  0
   43.8680   36.8990   44.6180 H   0  0  0  0  0  0  0  0  0  0  0  0
   43.8900   35.9620   42.2810 H   0  0  0  0  0  0  0  0  0  0  0  0
   44.8890   33.6750   41.9290 H   0  0  0  0  0  0  0  0  0  0  0  0
   48.0830   30.4060   48.4050 C   0  0  0  0  0  0  0  0  0  0  0  0
   48.7640   30.5700   49.5890 C   0  0  0  0  0  0  0  0  0  0  0  0
   48.7720   31.3970   50.3060 H   0  0  0  0  0  0  0  0  0  0  0  0
   49.4940   29.4520   49.7530 N   0  0  0  0  0  0  0  0  0  0  0  0
   50.1330   29.2760   50.5810 H   0  0  0  0  0  0  0  0  0  0  0  0
   49.2910   28.5950   48.7100 C   0  0  0  0  0  0  0  0  0  0  0  0
   49.8070   27.6280   48.6760 H   0  0  0  0  0  0  0  0  0  0  0  0
   48.4030   29.2150   47.8780 N   0  0  0  0  0  0  0  0  0  0  0  0
  1  2  2  0  0  0  0
  2  6  1  0  0  0  0
  2  3  1  0  0  0  0
  3  7  1  0  0  0  0
  4  3  2  0  0  0  0
  4 17  1  0  0  0  0
  5  1  1  0  0  0  0
  5  4  1  0  0  0  0
  8 14  1  0  0  0  0
  8 13  1  0  0  0  0
  9  8  2  0  0  0  0
 10  9  1  0  0  0  0
 10 11  2  0  0  0  0
 11 12  1  0  0  0  0
 12 13  2  0  0  0  0
 12  1  1  0  0  0  0
 15  9  1  0  0  0  0
 16 10  1  0  0  0  0
 17 18  2  0  0  0  0
 18 20  1  0  0  0  0
 18 19  1  0  0  0  0
 20 21  1  0  0  0  0
 22 20  1  0  0  0  0
 23 22  1  0  0  0  0
 24 17  1  0  0  0  0
 24 22  2  0  0  0  0
M  END
>  <minimizedAffinity>
-4.40335131

>  <minimizedRMSD>
1.05228567

$$$$
