
 OpenBabel03242511223D

 27 29  0  0  0  0  0  0  0  0999 V2000
   44.8160   33.0940   41.1350 Cl  0  0  0  0  0  0  0  0  0  0  0  0
   46.3260   33.9270   40.9160 C   0  0  0  0  0  0  0  0  0  0  0  0
   46.8330   34.7110   41.9070 C   0  0  0  0  0  0  0  0  0  0  0  0
   48.0470   35.4030   41.7680 C   0  0  0  0  0  0  0  0  0  0  0  0
   48.6940   35.2370   40.5620 C   0  0  0  0  0  0  0  0  0  0  0  0
   48.1900   34.4500   39.5680 C   0  0  0  0  0  0  0  0  0  0  0  0
   46.9970   33.7810   39.7230 C   0  0  0  0  0  0  0  0  0  0  0  0
   48.3930   36.0130   42.5990 H   0  0  0  0  0  0  0  0  0  0  0  0
   49.6300   35.7710   40.4580 H   0  0  0  0  0  0  0  0  0  0  0  0
   48.7150   34.3290   38.6180 H   0  0  0  0  0  0  0  0  0  0  0  0
   45.6070   34.0530   45.3170 C   0  0  0  0  0  0  0  0  0  0  0  0
   44.7140   35.1100   45.5390 C   0  0  0  0  0  0  0  0  0  0  0  0
   44.5420   36.0440   44.5090 C   0  0  0  0  0  0  0  0  0  0  0  0
   45.2440   35.8750   43.3600 N   0  0  0  0  0  0  0  0  0  0  0  0
   46.0920   34.8490   43.1770 C   0  0  0  0  0  0  0  0  0  0  0  0
   46.2820   33.9260   44.1570 N   0  0  0  0  0  0  0  0  0  0  0  0
   45.7340   33.3340   46.1210 H   0  0  0  0  0  0  0  0  0  0  0  0
   44.1550   35.2450   46.4540 H   0  0  0  0  0  0  0  0  0  0  0  0
   43.8750   36.8880   44.5960 H   0  0  0  0  0  0  0  0  0  0  0  0
   46.4230   32.9290   38.6840 C   0  0  0  0  0  0  0  0  0  0  0  0
   46.7190   31.5960   38.4640 C   0  0  0  0  0  0  0  0  0  0  0  0
   47.4000   30.9580   38.9900 H   0  0  0  0  0  0  0  0  0  0  0  0
   45.9920   31.1600   37.4230 N   0  0  0  0  0  0  0  0  0  0  0  0
   45.9580   30.2120   36.9780 H   0  0  0  0  0  0  0  0  0  0  0  0
   45.2570   32.2170   37.0110 C   0  0  0  0  0  0  0  0  0  0  0  0
   44.5410   32.3170   36.2120 H   0  0  0  0  0  0  0  0  0  0  0  0
   45.4940   33.2980   37.7520 N   0  0  0  0  0  0  0  0  0  0  0  0
  2  1  1  0  0  0  0
  2  3  1  0  0  0  0
  3 15  1  0  0  0  0
  4  3  2  0  0  0  0
  4  8  1  0  0  0  0
  5  4  1  0  0  0  0
  6  7  1  0  0  0  0
  6  5  2  0  0  0  0
  7  2  2  0  0  0  0
  9  5  1  0  0  0  0
 10  6  1  0  0  0  0
 11 12  1  0  0  0  0
 11 17  1  0  0  0  0
 12 18  1  0  0  0  0
 13 19  1  0  0  0  0
 13 12  2  0  0  0  0
 14 13  1  0  0  0  0
 15 14  2  0  0  0  0
 15 16  1  0  0  0  0
 16 11  2  0  0  0  0
 20  7  1  0  0  0  0
 21 20  2  0  0  0  0
 21 22  1  0  0  0  0
 23 21  1  0  0  0  0
 24 23  1  0  0  0  0
 25 23  1  0  0  0  0
 25 27  2  0  0  0  0
 26 25  1  0  0  0  0
 27 20  1  0  0  0  0
M  END
>  <minimizedAffinity>
-5.30439854

>  <minimizedRMSD>
0.0874785334

$$$$
