
 OpenBabel03252509173D

 24 26  0  0  0  0  0  0  0  0999 V2000
   36.8760   28.1840   40.8400 C   0  0  0  0  0  0  0  0  0  0  0  0
   35.7070   28.9880   40.8290 C   0  0  0  0  0  0  0  0  0  0  0  0
   35.8680   30.3150   40.6680 C   0  0  0  0  0  0  0  0  0  0  0  0
   37.1620   30.8600   40.5170 C   0  0  0  0  0  0  0  0  0  0  0  0
   38.2320   29.3840   40.6110 S   0  0  0  0  0  0  0  0  0  0  0  0
   34.7290   28.5450   40.9460 H   0  0  0  0  0  0  0  0  0  0  0  0
   35.0890   31.0500   40.6400 H   0  0  0  0  0  0  0  0  0  0  0  0
   37.0850   24.7090   42.1210 C   0  0  0  0  0  0  0  0  0  0  0  0
   36.7590   23.9990   40.9350 C   0  0  0  0  0  0  0  0  0  0  0  0
   36.4890   24.7270   39.7780 C   0  0  0  0  0  0  0  0  0  0  0  0
   36.5540   26.0880   39.8550 N   0  0  0  0  0  0  0  0  0  0  0  0
   36.8680   26.7260   41.0050 C   0  0  0  0  0  0  0  0  0  0  0  0
   37.1350   26.0420   42.1460 N   0  0  0  0  0  0  0  0  0  0  0  0
   37.2970   24.1590   43.0250 H   0  0  0  0  0  0  0  0  0  0  0  0
   36.7170   22.9170   40.9120 H   0  0  0  0  0  0  0  0  0  0  0  0
   36.2360   24.2660   38.8370 H   0  0  0  0  0  0  0  0  0  0  0  0
   37.6890   32.1650   40.3330 C   0  0  0  0  0  0  0  0  0  0  0  0
   37.2370   33.0510   39.3830 C   0  0  0  0  0  0  0  0  0  0  0  0
   36.4480   32.9580   38.6300 H   0  0  0  0  0  0  0  0  0  0  0  0
   37.9830   34.1610   39.5280 N   0  0  0  0  0  0  0  0  0  0  0  0
   37.8730   35.0330   38.9360 H   0  0  0  0  0  0  0  0  0  0  0  0
   38.8860   33.9970   40.5390 C   0  0  0  0  0  0  0  0  0  0  0  0
   39.5810   34.8050   40.8020 H   0  0  0  0  0  0  0  0  0  0  0  0
   38.6830   32.7380   41.0290 N   0  0  0  0  0  0  0  0  0  0  0  0
  1 12  1  0  0  0  0
  2  1  2  0  0  0  0
  2  6  1  0  0  0  0
  3  2  1  0  0  0  0
  4  5  1  0  0  0  0
  4  3  2  0  0  0  0
  5  1  1  0  0  0  0
  7  3  1  0  0  0  0
  8 13  1  0  0  0  0
  8 14  1  0  0  0  0
  9  8  2  0  0  0  0
 10 11  2  0  0  0  0
 10  9  1  0  0  0  0
 11 12  1  0  0  0  0
 12 13  2  0  0  0  0
 15  9  1  0  0  0  0
 16 10  1  0  0  0  0
 17  4  1  0  0  0  0
 17 24  1  0  0  0  0
 18 20  1  0  0  0  0
 18 17  2  0  0  0  0
 19 18  1  0  0  0  0
 20 22  1  0  0  0  0
 21 20  1  0  0  0  0
 22 23  1  0  0  0  0
 22 24  2  0  0  0  0
M  END
>  <minimizedAffinity>
-4.80133152

$$$$

 OpenBabel03252509173D

 24 26  0  0  0  0  0  0  0  0999 V2000
   38.2290   28.1970   41.7990 C   0  0  0  0  0  0  0  0  0  0  0  0
   36.8920   28.6700   41.8040 C   0  0  0  0  0  0  0  0  0  0  0  0
   36.6810   29.9420   41.4180 C   0  0  0  0  0  0  0  0  0  0  0  0
   37.7690   30.7550   41.0270 C   0  0  0  0  0  0  0  0  0  0  0  0
   39.1960   29.6330   41.2200 S   0  0  0  0  0  0  0  0  0  0  0  0
   36.0780   28.0270   42.1080 H   0  0  0  0  0  0  0  0  0  0  0  0
   35.7350   30.4430   41.3700 H   0  0  0  0  0  0  0  0  0  0  0  0
   38.5990   24.5240   42.1600 C   0  0  0  0  0  0  0  0  0  0  0  0
   39.5960   24.4840   43.1700 C   0  0  0  0  0  0  0  0  0  0  0  0
   40.0850   25.6900   43.6690 C   0  0  0  0  0  0  0  0  0  0  0  0
   39.5720   26.8450   43.1530 N   0  0  0  0  0  0  0  0  0  0  0  0
   38.6210   26.8390   42.1910 C   0  0  0  0  0  0  0  0  0  0  0  0
   38.1280   25.6800   41.6870 N   0  0  0  0  0  0  0  0  0  0  0  0
   38.2100   23.5990   41.7640 H   0  0  0  0  0  0  0  0  0  0  0  0
   39.9800   23.5480   43.5560 H   0  0  0  0  0  0  0  0  0  0  0  0
   40.8410   25.7480   44.4350 H   0  0  0  0  0  0  0  0  0  0  0  0
   37.9150   32.0930   40.5780 C   0  0  0  0  0  0  0  0  0  0  0  0
   37.1090   32.6790   39.6290 C   0  0  0  0  0  0  0  0  0  0  0  0
   36.2590   32.2840   39.0640 H   0  0  0  0  0  0  0  0  0  0  0  0
   37.5650   33.9350   39.4820 N   0  0  0  0  0  0  0  0  0  0  0  0
   37.1470   34.6460   38.8150 H   0  0  0  0  0  0  0  0  0  0  0  0
   38.6300   34.1540   40.3080 C   0  0  0  0  0  0  0  0  0  0  0  0
   39.1320   35.1290   40.3240 H   0  0  0  0  0  0  0  0  0  0  0  0
   38.8310   32.9840   40.9850 N   0  0  0  0  0  0  0  0  0  0  0  0
  1  2  2  0  0  0  0
  1 12  1  0  0  0  0
  2  6  1  0  0  0  0
  3  2  1  0  0  0  0
  4  5  1  0  0  0  0
  4  3  2  0  0  0  0
  5  1  1  0  0  0  0
  7  3  1  0  0  0  0
  8  9  1  0  0  0  0
  9 15  1  0  0  0  0
  9 10  2  0  0  0  0
 10 16  1  0  0  0  0
 11 10  1  0  0  0  0
 12 11  2  0  0  0  0
 13  8  2  0  0  0  0
 13 12  1  0  0  0  0
 14  8  1  0  0  0  0
 17 24  1  0  0  0  0
 17  4  1  0  0  0  0
 18 17  2  0  0  0  0
 19 18  1  0  0  0  0
 20 18  1  0  0  0  0
 20 22  1  0  0  0  0
 21 20  1  0  0  0  0
 22 23  1  0  0  0  0
 22 24  2  0  0  0  0
M  END
>  <minimizedAffinity>
-4.72370148

$$$$

 OpenBabel03252509173D

 24 26  0  0  0  0  0  0  0  0999 V2000
   37.7330   29.9280   41.0530 C   0  0  0  0  0  0  0  0  0  0  0  0
   36.5270   29.2220   41.3000 C   0  0  0  0  0  0  0  0  0  0  0  0
   36.6280   27.9410   41.7010 C   0  0  0  0  0  0  0  0  0  0  0  0
   37.8990   27.3460   41.8630 C   0  0  0  0  0  0  0  0  0  0  0  0
   39.0360   28.7010   41.4120 S   0  0  0  0  0  0  0  0  0  0  0  0
   35.5690   29.7020   41.1690 H   0  0  0  0  0  0  0  0  0  0  0  0
   35.8150   27.2800   41.9250 H   0  0  0  0  0  0  0  0  0  0  0  0
   37.1310   33.2260   39.4650 C   0  0  0  0  0  0  0  0  0  0  0  0
   38.2190   33.9550   40.0140 C   0  0  0  0  0  0  0  0  0  0  0  0
   39.0880   33.2980   40.8830 C   0  0  0  0  0  0  0  0  0  0  0  0
   38.8390   31.9840   41.1560 N   0  0  0  0  0  0  0  0  0  0  0  0
   37.7920   31.3250   40.6120 C   0  0  0  0  0  0  0  0  0  0  0  0
   36.9310   31.9400   39.7630 N   0  0  0  0  0  0  0  0  0  0  0  0
   36.4500   33.7200   38.7900 H   0  0  0  0  0  0  0  0  0  0  0  0
   38.3850   34.9980   39.7740 H   0  0  0  0  0  0  0  0  0  0  0  0
   39.9370   33.7780   41.3420 H   0  0  0  0  0  0  0  0  0  0  0  0
   38.3670   26.0650   42.2560 C   0  0  0  0  0  0  0  0  0  0  0  0
   37.6560   24.8990   42.0860 C   0  0  0  0  0  0  0  0  0  0  0  0
   36.6680   24.7160   41.6510 H   0  0  0  0  0  0  0  0  0  0  0  0
   38.4310   23.9180   42.5820 N   0  0  0  0  0  0  0  0  0  0  0  0
   38.1580   22.8940   42.5950 H   0  0  0  0  0  0  0  0  0  0  0  0
   39.6030   24.4330   43.0560 C   0  0  0  0  0  0  0  0  0  0  0  0
   40.3620   23.7750   43.4980 H   0  0  0  0  0  0  0  0  0  0  0  0
   39.5400   25.7810   42.8410 N   0  0  0  0  0  0  0  0  0  0  0  0
  1  2  2  0  0  0  0
  1  5  1  0  0  0  0
  2  3  1  0  0  0  0
  3  4  2  0  0  0  0
  3  7  1  0  0  0  0
  4 17  1  0  0  0  0
  5  4  1  0  0  0  0
  6  2  1  0  0  0  0
  8 13  2  0  0  0  0
  8  9  1  0  0  0  0
  9 10  2  0  0  0  0
 10 11  1  0  0  0  0
 10 16  1  0  0  0  0
 12  1  1  0  0  0  0
 12 11  2  0  0  0  0
 13 12  1  0  0  0  0
 14  8  1  0  0  0  0
 15  9  1  0  0  0  0
 17 24  1  0  0  0  0
 18 17  2  0  0  0  0
 18 20  1  0  0  0  0
 19 18  1  0  0  0  0
 20 21  1  0  0  0  0
 20 22  1  0  0  0  0
 22 23  1  0  0  0  0
 24 22  2  0  0  0  0
M  END
>  <minimizedAffinity>
-4.69956398

$$$$

 OpenBabel03252509173D

 24 26  0  0  0  0  0  0  0  0999 V2000
   37.9270   28.1970   41.4630 C   0  0  0  0  0  0  0  0  0  0  0  0
   36.6580   28.8200   41.5880 C   0  0  0  0  0  0  0  0  0  0  0  0
   36.5790   30.1320   41.2990 C   0  0  0  0  0  0  0  0  0  0  0  0
   37.7310   30.8390   40.8870 C   0  0  0  0  0  0  0  0  0  0  0  0
   39.0230   29.5490   40.9120 S   0  0  0  0  0  0  0  0  0  0  0  0
   35.7940   28.2550   41.9050 H   0  0  0  0  0  0  0  0  0  0  0  0
   35.6980   30.7410   41.3470 H   0  0  0  0  0  0  0  0  0  0  0  0
   39.4360   24.8760   42.1360 C   0  0  0  0  0  0  0  0  0  0  0  0
   38.2540   24.0980   42.2530 C   0  0  0  0  0  0  0  0  0  0  0  0
   37.0230   24.7320   42.1000 C   0  0  0  0  0  0  0  0  0  0  0  0
   37.0280   26.0730   41.8450 N   0  0  0  0  0  0  0  0  0  0  0  0
   38.1770   26.7780   41.7400 C   0  0  0  0  0  0  0  0  0  0  0  0
   39.3880   26.1860   41.8850 N   0  0  0  0  0  0  0  0  0  0  0  0
   40.3970   24.3990   42.2510 H   0  0  0  0  0  0  0  0  0  0  0  0
   38.2890   23.0350   42.4560 H   0  0  0  0  0  0  0  0  0  0  0  0
   36.0800   24.2150   42.1740 H   0  0  0  0  0  0  0  0  0  0  0  0
   38.0090   32.1800   40.5150 C   0  0  0  0  0  0  0  0  0  0  0  0
   37.2290   32.9180   39.6540 C   0  0  0  0  0  0  0  0  0  0  0  0
   36.3100   32.6610   39.1170 H   0  0  0  0  0  0  0  0  0  0  0  0
   37.8200   34.1210   39.5590 N   0  0  0  0  0  0  0  0  0  0  0  0
   37.4540   34.9190   38.9650 H   0  0  0  0  0  0  0  0  0  0  0  0
   38.9450   34.1610   40.3330 C   0  0  0  0  0  0  0  0  0  0  0  0
   39.5570   35.0690   40.3790 H   0  0  0  0  0  0  0  0  0  0  0  0
   39.0420   32.9320   40.9220 N   0  0  0  0  0  0  0  0  0  0  0  0
  1  2  2  0  0  0  0
  1 12  1  0  0  0  0
  2  6  1  0  0  0  0
  3  7  1  0  0  0  0
  3  2  1  0  0  0  0
  4  5  1  0  0  0  0
  4  3  2  0  0  0  0
  5  1  1  0  0  0  0
  8 14  1  0  0  0  0
  8  9  1  0  0  0  0
  9 15  1  0  0  0  0
 10 16  1  0  0  0  0
 10  9  2  0  0  0  0
 11 10  1  0  0  0  0
 12 11  2  0  0  0  0
 12 13  1  0  0  0  0
 13  8  2  0  0  0  0
 17  4  1  0  0  0  0
 17 24  1  0  0  0  0
 18 17  2  0  0  0  0
 19 18  1  0  0  0  0
 20 18  1  0  0  0  0
 20 22  1  0  0  0  0
 21 20  1  0  0  0  0
 22 23  1  0  0  0  0
 22 24  2  0  0  0  0
M  END
>  <minimizedAffinity>
-4.55875349

$$$$

 OpenBabel03252509173D

 24 26  0  0  0  0  0  0  0  0999 V2000
   37.0770   29.0780   39.7860 C   0  0  0  0  0  0  0  0  0  0  0  0
   36.9910   30.4260   39.3520 C   0  0  0  0  0  0  0  0  0  0  0  0
   36.8420   30.6450   38.0320 C   0  0  0  0  0  0  0  0  0  0  0  0
   36.7760   29.5560   37.1340 C   0  0  0  0  0  0  0  0  0  0  0  0
   36.9370   28.1140   38.2420 S   0  0  0  0  0  0  0  0  0  0  0  0
   37.0440   31.2400   40.0600 H   0  0  0  0  0  0  0  0  0  0  0  0
   36.7640   31.6000   37.5520 H   0  0  0  0  0  0  0  0  0  0  0  0
   37.7470   28.9330   43.4320 C   0  0  0  0  0  0  0  0  0  0  0  0
   37.4260   27.5720   43.6780 C   0  0  0  0  0  0  0  0  0  0  0  0
   37.0030   26.7850   42.6080 C   0  0  0  0  0  0  0  0  0  0  0  0
   36.9240   27.3750   41.3790 N   0  0  0  0  0  0  0  0  0  0  0  0
   37.2400   28.6750   41.1870 C   0  0  0  0  0  0  0  0  0  0  0  0
   37.6530   29.4640   42.2100 N   0  0  0  0  0  0  0  0  0  0  0  0
   38.0760   29.5550   44.2490 H   0  0  0  0  0  0  0  0  0  0  0  0
   37.5010   27.1390   44.6670 H   0  0  0  0  0  0  0  0  0  0  0  0
   36.7410   25.7450   42.7090 H   0  0  0  0  0  0  0  0  0  0  0  0
   36.6280   29.4180   35.7300 C   0  0  0  0  0  0  0  0  0  0  0  0
   36.6150   28.2090   35.0720 C   0  0  0  0  0  0  0  0  0  0  0  0
   36.7070   27.1850   35.4480 H   0  0  0  0  0  0  0  0  0  0  0  0
   36.4590   28.5000   33.7690 N   0  0  0  0  0  0  0  0  0  0  0  0
   36.4090   27.7720   32.9990 H   0  0  0  0  0  0  0  0  0  0  0  0
   36.3720   29.8510   33.5900 C   0  0  0  0  0  0  0  0  0  0  0  0
   36.2410   30.2720   32.5860 H   0  0  0  0  0  0  0  0  0  0  0  0
   36.4810   30.4050   34.8340 N   0  0  0  0  0  0  0  0  0  0  0  0
  1 12  1  0  0  0  0
  2  1  2  0  0  0  0
  2  6  1  0  0  0  0
  3  2  1  0  0  0  0
  4  3  2  0  0  0  0
  4  5  1  0  0  0  0
  5  1  1  0  0  0  0
  7  3  1  0  0  0  0
  8  9  1  0  0  0  0
  8 14  1  0  0  0  0
  9 15  1  0  0  0  0
 10 16  1  0  0  0  0
 10  9  2  0  0  0  0
 11 10  1  0  0  0  0
 12 11  2  0  0  0  0
 12 13  1  0  0  0  0
 13  8  2  0  0  0  0
 17  4  1  0  0  0  0
 18 19  1  0  0  0  0
 18 17  2  0  0  0  0
 20 18  1  0  0  0  0
 21 20  1  0  0  0  0
 22 20  1  0  0  0  0
 22 24  2  0  0  0  0
 23 22  1  0  0  0  0
 24 17  1  0  0  0  0
M  END
>  <minimizedAffinity>
-4.19817924

$$$$

 OpenBabel03252509173D

 24 26  0  0  0  0  0  0  0  0999 V2000
   38.6700   30.2820   41.3280 C   0  0  0  0  0  0  0  0  0  0  0  0
   38.7580   29.8170   42.6660 C   0  0  0  0  0  0  0  0  0  0  0  0
   38.4950   28.5170   42.8910 C   0  0  0  0  0  0  0  0  0  0  0  0
   38.1490   27.6660   41.8170 C   0  0  0  0  0  0  0  0  0  0  0  0
   38.1980   28.7940   40.3810 S   0  0  0  0  0  0  0  0  0  0  0  0
   39.0250   30.4900   43.4680 H   0  0  0  0  0  0  0  0  0  0  0  0
   38.5160   28.0190   43.8400 H   0  0  0  0  0  0  0  0  0  0  0  0
   38.4030   33.8170   40.2380 C   0  0  0  0  0  0  0  0  0  0  0  0
   39.7800   34.1610   40.2080 C   0  0  0  0  0  0  0  0  0  0  0  0
   40.7160   33.1880   40.5560 C   0  0  0  0  0  0  0  0  0  0  0  0
   40.2480   31.9550   40.9060 N   0  0  0  0  0  0  0  0  0  0  0  0
   38.9260   31.6680   40.9210 C   0  0  0  0  0  0  0  0  0  0  0  0
   37.9950   32.5950   40.5870 N   0  0  0  0  0  0  0  0  0  0  0  0
   37.6670   34.5590   39.9710 H   0  0  0  0  0  0  0  0  0  0  0  0
   40.1140   35.1510   39.9250 H   0  0  0  0  0  0  0  0  0  0  0  0
   41.7780   33.3670   40.5590 H   0  0  0  0  0  0  0  0  0  0  0  0
   37.8190   26.2920   41.6870 C   0  0  0  0  0  0  0  0  0  0  0  0
   36.9830   25.7890   40.7170 C   0  0  0  0  0  0  0  0  0  0  0  0
   36.4400   26.2860   39.9070 H   0  0  0  0  0  0  0  0  0  0  0  0
   36.9260   24.4630   40.9310 N   0  0  0  0  0  0  0  0  0  0  0  0
   36.3580   23.7890   40.3420 H   0  0  0  0  0  0  0  0  0  0  0  0
   37.6980   24.1200   42.0040 C   0  0  0  0  0  0  0  0  0  0  0  0
   37.7720   23.0740   42.3260 H   0  0  0  0  0  0  0  0  0  0  0  0
   38.2480   25.2840   42.4620 N   0  0  0  0  0  0  0  0  0  0  0  0
  1  2  2  0  0  0  0
  2  3  1  0  0  0  0
  2  6  1  0  0  0  0
  3  7  1  0  0  0  0
  4  3  2  0  0  0  0
  5  1  1  0  0  0  0
  5  4  1  0  0  0  0
  8 13  1  0  0  0  0
  9  8  2  0  0  0  0
  9 10  1  0  0  0  0
 10 16  1  0  0  0  0
 10 11  2  0  0  0  0
 11 12  1  0  0  0  0
 12  1  1  0  0  0  0
 13 12  2  0  0  0  0
 14  8  1  0  0  0  0
 15  9  1  0  0  0  0
 17  4  1  0  0  0  0
 17 24  1  0  0  0  0
 18 20  1  0  0  0  0
 18 17  2  0  0  0  0
 19 18  1  0  0  0  0
 20 22  1  0  0  0  0
 21 20  1  0  0  0  0
 22 23  1  0  0  0  0
 22 24  2  0  0  0  0
M  END
>  <minimizedAffinity>
-4.19210148

$$$$

 OpenBabel03252509173D

 24 26  0  0  0  0  0  0  0  0999 V2000
   35.4840   29.1730   38.8380 C   0  0  0  0  0  0  0  0  0  0  0  0
   35.2250   29.4090   40.2130 C   0  0  0  0  0  0  0  0  0  0  0  0
   35.9300   30.3810   40.8200 C   0  0  0  0  0  0  0  0  0  0  0  0
   36.8880   31.1240   40.0930 C   0  0  0  0  0  0  0  0  0  0  0  0
   36.7800   30.3900   38.4240 S   0  0  0  0  0  0  0  0  0  0  0  0
   34.4870   28.8260   40.7450 H   0  0  0  0  0  0  0  0  0  0  0  0
   35.8520   30.6770   41.8470 H   0  0  0  0  0  0  0  0  0  0  0  0
   33.1880   27.2860   36.6180 C   0  0  0  0  0  0  0  0  0  0  0  0
   33.8030   26.0080   36.6720 C   0  0  0  0  0  0  0  0  0  0  0  0
   34.9510   25.8540   37.4480 C   0  0  0  0  0  0  0  0  0  0  0  0
   35.4160   26.9510   38.1150 N   0  0  0  0  0  0  0  0  0  0  0  0
   34.8000   28.1520   38.0370 C   0  0  0  0  0  0  0  0  0  0  0  0
   33.6830   28.3290   37.2890 N   0  0  0  0  0  0  0  0  0  0  0  0
   32.2990   27.4210   36.0220 H   0  0  0  0  0  0  0  0  0  0  0  0
   33.4050   25.1600   36.1290 H   0  0  0  0  0  0  0  0  0  0  0  0
   35.4770   24.9190   37.5430 H   0  0  0  0  0  0  0  0  0  0  0  0
   37.7820   32.1820   40.3970 C   0  0  0  0  0  0  0  0  0  0  0  0
   38.9090   32.0400   41.1740 C   0  0  0  0  0  0  0  0  0  0  0  0
   39.3260   31.1650   41.6820 H   0  0  0  0  0  0  0  0  0  0  0  0
   39.4790   33.2560   41.2240 N   0  0  0  0  0  0  0  0  0  0  0  0
   40.3730   33.4730   41.7520 H   0  0  0  0  0  0  0  0  0  0  0  0
   38.7470   34.1550   40.5030 C   0  0  0  0  0  0  0  0  0  0  0  0
   39.0640   35.2020   40.4310 H   0  0  0  0  0  0  0  0  0  0  0  0
   37.6870   33.4580   39.9930 N   0  0  0  0  0  0  0  0  0  0  0  0
  1  2  2  0  0  0  0
  2  6  1  0  0  0  0
  2  3  1  0  0  0  0
  3  7  1  0  0  0  0
  4 17  1  0  0  0  0
  4  3  2  0  0  0  0
  5  1  1  0  0  0  0
  5  4  1  0  0  0  0
  8  9  2  0  0  0  0
  8 13  1  0  0  0  0
  9 10  1  0  0  0  0
 10 16  1  0  0  0  0
 10 11  2  0  0  0  0
 12 11  1  0  0  0  0
 12  1  1  0  0  0  0
 13 12  2  0  0  0  0
 14  8  1  0  0  0  0
 15  9  1  0  0  0  0
 17 18  2  0  0  0  0
 18 20  1  0  0  0  0
 18 19  1  0  0  0  0
 20 21  1  0  0  0  0
 22 20  1  0  0  0  0
 23 22  1  0  0  0  0
 24 17  1  0  0  0  0
 24 22  2  0  0  0  0
M  END
>  <minimizedAffinity>
-4.14670324

$$$$

 OpenBabel03252509173D

 24 26  0  0  0  0  0  0  0  0999 V2000
   41.1610   30.7400   38.1190 C   0  0  0  0  0  0  0  0  0  0  0  0
   41.1460   31.5530   39.2810 C   0  0  0  0  0  0  0  0  0  0  0  0
   40.0280   31.5470   40.0300 C   0  0  0  0  0  0  0  0  0  0  0  0
   38.9240   30.7500   39.6510 C   0  0  0  0  0  0  0  0  0  0  0  0
   39.5150   29.9500   38.1200 S   0  0  0  0  0  0  0  0  0  0  0  0
   42.0040   32.1540   39.5480 H   0  0  0  0  0  0  0  0  0  0  0  0
   39.8620   32.1060   40.9290 H   0  0  0  0  0  0  0  0  0  0  0  0
   43.5080   29.8680   35.3820 C   0  0  0  0  0  0  0  0  0  0  0  0
   44.5950   30.7150   35.7230 C   0  0  0  0  0  0  0  0  0  0  0  0
   44.4770   31.5270   36.8490 C   0  0  0  0  0  0  0  0  0  0  0  0
   43.3140   31.4590   37.5610 N   0  0  0  0  0  0  0  0  0  0  0  0
   42.3010   30.6380   37.2020 C   0  0  0  0  0  0  0  0  0  0  0  0
   42.3900   29.8370   36.1110 N   0  0  0  0  0  0  0  0  0  0  0  0
   43.5840   29.2330   34.5130 H   0  0  0  0  0  0  0  0  0  0  0  0
   45.5030   30.7420   35.1340 H   0  0  0  0  0  0  0  0  0  0  0  0
   45.2550   32.1970   37.1770 H   0  0  0  0  0  0  0  0  0  0  0  0
   37.6310   30.5050   40.1810 C   0  0  0  0  0  0  0  0  0  0  0  0
   36.8370   31.4720   40.7540 C   0  0  0  0  0  0  0  0  0  0  0  0
   37.0080   32.5410   40.9130 H   0  0  0  0  0  0  0  0  0  0  0  0
   35.7060   30.8480   41.1280 N   0  0  0  0  0  0  0  0  0  0  0  0
   34.8900   31.3300   41.6030 H   0  0  0  0  0  0  0  0  0  0  0  0
   35.7670   29.5220   40.8080 C   0  0  0  0  0  0  0  0  0  0  0  0
   34.9280   28.8540   41.0390 H   0  0  0  0  0  0  0  0  0  0  0  0
   36.9830   29.3300   40.2150 N   0  0  0  0  0  0  0  0  0  0  0  0
  1  5  1  0  0  0  0
  1  2  2  0  0  0  0
  2  6  1  0  0  0  0
  2  3  1  0  0  0  0
  3  7  1  0  0  0  0
  4  3  2  0  0  0  0
  4 17  1  0  0  0  0
  5  4  1  0  0  0  0
  8  9  2  0  0  0  0
  8 13  1  0  0  0  0
  9 10  1  0  0  0  0
 10 16  1  0  0  0  0
 10 11  2  0  0  0  0
 12 11  1  0  0  0  0
 12  1  1  0  0  0  0
 13 12  2  0  0  0  0
 14  8  1  0  0  0  0
 15  9  1  0  0  0  0
 17 24  1  0  0  0  0
 17 18  2  0  0  0  0
 18 19  1  0  0  0  0
 18 20  1  0  0  0  0
 20 21  1  0  0  0  0
 22 23  1  0  0  0  0
 22 20  1  0  0  0  0
 24 22  2  0  0  0  0
M  END
>  <minimizedAffinity>
-4.10181046

$$$$

 OpenBabel03252509173D

 24 26  0  0  0  0  0  0  0  0999 V2000
   37.5540   29.4150   40.6050 C   0  0  0  0  0  0  0  0  0  0  0  0
   36.4450   28.7650   41.2060 C   0  0  0  0  0  0  0  0  0  0  0  0
   36.6520   27.5470   41.7380 C   0  0  0  0  0  0  0  0  0  0  0  0
   37.9370   26.9590   41.6880 C   0  0  0  0  0  0  0  0  0  0  0  0
   38.9240   28.2280   40.8220 S   0  0  0  0  0  0  0  0  0  0  0  0
   35.4740   29.2380   41.2310 H   0  0  0  0  0  0  0  0  0  0  0  0
   35.9200   26.9320   42.2220 H   0  0  0  0  0  0  0  0  0  0  0  0
   37.2780   33.0460   39.9000 C   0  0  0  0  0  0  0  0  0  0  0  0
   37.4250   33.0250   38.4880 C   0  0  0  0  0  0  0  0  0  0  0  0
   37.6080   31.7960   37.8560 C   0  0  0  0  0  0  0  0  0  0  0  0
   37.6350   30.6790   38.6400 N   0  0  0  0  0  0  0  0  0  0  0  0
   37.4910   30.7420   39.9830 C   0  0  0  0  0  0  0  0  0  0  0  0
   37.3120   31.9250   40.6230 N   0  0  0  0  0  0  0  0  0  0  0  0
   37.1350   33.9900   40.4020 H   0  0  0  0  0  0  0  0  0  0  0  0
   37.3980   33.9330   37.8980 H   0  0  0  0  0  0  0  0  0  0  0  0
   37.7260   31.6930   36.7900 H   0  0  0  0  0  0  0  0  0  0  0  0
   38.5010   25.7350   42.1310 C   0  0  0  0  0  0  0  0  0  0  0  0
   38.1540   24.5010   41.6290 C   0  0  0  0  0  0  0  0  0  0  0  0
   37.4370   24.2160   40.8520 H   0  0  0  0  0  0  0  0  0  0  0  0
   38.9000   23.6060   42.3000 N   0  0  0  0  0  0  0  0  0  0  0  0
   38.8620   22.5590   42.1380 H   0  0  0  0  0  0  0  0  0  0  0  0
   39.7020   24.2400   43.2060 C   0  0  0  0  0  0  0  0  0  0  0  0
   40.3840   23.6650   43.8440 H   0  0  0  0  0  0  0  0  0  0  0  0
   39.4340   25.5740   43.0810 N   0  0  0  0  0  0  0  0  0  0  0  0
  1  5  1  0  0  0  0
  1  2  2  0  0  0  0
  2  6  1  0  0  0  0
  2  3  1  0  0  0  0
  3  7  1  0  0  0  0
  4  3  2  0  0  0  0
  4 17  1  0  0  0  0
  5  4  1  0  0  0  0
  8 14  1  0  0  0  0
  8 13  1  0  0  0  0
  9  8  2  0  0  0  0
 10  9  1  0  0  0  0
 10 11  2  0  0  0  0
 11 12  1  0  0  0  0
 12  1  1  0  0  0  0
 12 13  2  0  0  0  0
 15  9  1  0  0  0  0
 16 10  1  0  0  0  0
 17 24  1  0  0  0  0
 18 17  2  0  0  0  0
 18 20  1  0  0  0  0
 19 18  1  0  0  0  0
 20 22  1  0  0  0  0
 21 20  1  0  0  0  0
 22 23  1  0  0  0  0
 24 22  2  0  0  0  0
M  END
>  <minimizedAffinity>
-4.03038979

$$$$
