
 OpenBabel03252508593D

 44 46  0  0  1  0  0  0  0  0999 V2000
   47.1630   34.1600   43.0910 N   0  0  0  0  0  0  0  0  0  0  0  0
   46.7630   35.3130   42.3570 C   0  0  0  0  0  0  0  0  0  0  0  0
   45.3080   35.6900   42.5080 C   0  0  0  0  0  0  0  0  0  0  0  0
   44.7050   35.3640   43.8480 C   0  0  0  0  0  0  0  0  0  0  0  0
   45.7430   34.8320   44.8070 C   0  0  0  0  0  0  0  0  0  0  0  0
   46.3370   33.5910   44.0440 C   0  0  2  0  0  0  0  0  0  0  0  0
   46.9750   35.3010   41.2880 H   0  0  0  0  0  0  0  0  0  0  0  0
   47.3360   36.1770   42.7710 H   0  0  0  0  0  0  0  0  0  0  0  0
   45.1970   36.7860   42.3640 H   0  0  0  0  0  0  0  0  0  0  0  0
   44.7210   35.2220   41.6640 H   0  0  0  0  0  0  0  0  0  0  0  0
   43.9750   34.5310   43.6840 H   0  0  0  0  0  0  0  0  0  0  0  0
   44.1070   36.1960   44.2740 H   0  0  0  0  0  0  0  0  0  0  0  0
   45.2510   34.5040   45.7280 H   0  0  0  0  0  0  0  0  0  0  0  0
   46.5330   35.5780   44.9240 H   0  0  0  0  0  0  0  0  0  0  0  0
   45.4800   32.9980   43.6650 H   0  0  0  0  0  0  0  0  0  0  0  0
   48.1030   33.3240   42.4000 C   0  0  0  0  0  0  0  0  0  0  0  0
   48.7700   33.9660   41.8210 H   0  0  0  0  0  0  0  0  0  0  0  0
   48.7270   32.7500   43.1180 H   0  0  0  0  0  0  0  0  0  0  0  0
   47.3400   32.3910   41.5060 C   0  0  0  0  0  0  0  0  0  0  0  0
   47.3430   31.3600   41.8830 H   0  0  0  0  0  0  0  0  0  0  0  0
   46.2710   32.6840   41.4270 H   0  0  0  0  0  0  0  0  0  0  0  0
   49.2470   31.3990   38.4210 C   0  0  0  0  0  0  0  0  0  0  0  0
   48.6830   31.3640   39.7100 C   0  0  0  0  0  0  0  0  0  0  0  0
   47.9320   32.4340   40.1410 C   0  0  0  0  0  0  0  0  0  0  0  0
   47.7720   33.4640   39.3030 N   0  0  0  0  0  0  0  0  0  0  0  0
   48.3170   33.4870   38.0680 C   0  0  0  0  0  0  0  0  0  0  0  0
   49.0560   32.4600   37.6190 N   0  0  0  0  0  0  0  0  0  0  0  0
   49.8110   30.5140   38.1910 H   0  0  0  0  0  0  0  0  0  0  0  0
   48.8160   30.5250   40.3860 H   0  0  0  0  0  0  0  0  0  0  0  0
   48.1960   34.3130   37.3810 H   0  0  0  0  0  0  0  0  0  0  0  0
   47.0590   32.9670   45.0500 O   0  0  0  0  0  0  0  0  0  0  0  0
   45.5760   30.8360   44.4670 O   0  0  0  0  0  0  0  0  0  0  0  0
   46.3280   31.5550   45.5960 P   0  0  2  0  0  0  0  0  0  0  0  0
   45.1010   32.0460   46.6840 O   0  0  0  0  0  0  0  0  0  0  0  0
   45.4840   32.6800   47.3530 H   0  0  0  0  0  0  0  0  0  0  0  0
   47.3720   30.5480   46.4070 O   0  0  0  0  0  0  0  0  0  0  0  0
   47.0020   29.2470   46.7310 C   0  0  0  0  0  0  0  0  0  0  0  0
   47.7510   28.2580   47.3730 C   0  0  0  0  0  0  0  0  0  0  0  0
   48.7570   28.3630   47.7220 H   0  0  0  0  0  0  0  0  0  0  0  0
   47.0350   27.1330   47.5000 N   0  0  0  0  0  0  0  0  0  0  0  0
   47.3480   26.2400   47.9410 H   0  0  0  0  0  0  0  0  0  0  0  0
   45.8440   27.4110   46.9420 C   0  0  0  0  0  0  0  0  0  0  0  0
   45.0380   26.6890   46.8910 H   0  0  0  0  0  0  0  0  0  0  0  0
   45.7970   28.6740   46.4730 N   0  0  0  0  0  0  0  0  0  0  0  0
  1  6  1  0  0  0  0
  2  3  1  0  0  0  0
  2  8  1  0  0  0  0
  2  1  1  0  0  0  0
  3  4  1  0  0  0  0
  4 12  1  0  0  0  0
  4  5  1  0  0  0  0
  5 14  1  0  0  0  0
  5 13  1  0  0  0  0
  6 15  1  6  0  0  0
  6  5  1  0  0  0  0
  6 31  1  0  0  0  0
  7  2  1  0  0  0  0
  9  3  1  0  0  0  0
 10  3  1  0  0  0  0
 11  4  1  0  0  0  0
 16  1  1  0  0  0  0
 16 18  1  0  0  0  0
 17 16  1  0  0  0  0
 19 20  1  0  0  0  0
 19 16  1  0  0  0  0
 21 19  1  0  0  0  0
 22 23  1  0  0  0  0
 23 24  2  0  0  0  0
 23 29  1  0  0  0  0
 24 19  1  0  0  0  0
 25 24  1  0  0  0  0
 26 25  2  0  0  0  0
 27 26  1  0  0  0  0
 27 22  2  0  0  0  0
 28 22  1  0  0  0  0
 30 26  1  0  0  0  0
 31 33  1  0  0  0  0
 33 32  2  6  0  0  0
 33 36  1  0  0  0  0
 33 34  1  0  0  0  0
 34 35  1  0  0  0  0
 36 37  1  0  0  0  0
 37 38  2  0  0  0  0
 38 40  1  0  0  0  0
 38 39  1  0  0  0  0
 40 41  1  0  0  0  0
 42 40  1  0  0  0  0
 43 42  1  0  0  0  0
 44 37  1  0  0  0  0
 44 42  2  0  0  0  0
M  END
>  <minimizedAffinity>
-3.66668844

>  <minimizedRMSD>
0.969565392

$$$$
