
 OpenBabel03252502433D

 30 32  0  0  1  0  0  0  0  0999 V2000
   47.6460   35.4390   41.9240 C   0  0  0  0  0  0  0  0  0  0  0  0
   47.3190   36.2210   41.2360 H   0  0  0  0  0  0  0  0  0  0  0  0
   47.8870   35.8670   42.9490 H   0  0  0  0  0  0  0  0  0  0  0  0
   48.9180   34.7650   41.5170 C   0  0  1  0  0  0  0  0  0  0  0  0
   50.0340   34.7610   42.5170 C   0  0  0  0  0  0  0  0  0  0  0  0
   49.2760   33.5250   42.2010 C   0  0  2  0  0  0  0  0  0  0  0  0
   49.1480   34.9660   40.4300 H   0  0  0  0  0  0  0  0  0  0  0  0
   51.0260   34.9560   42.0600 H   0  0  0  0  0  0  0  0  0  0  0  0
   49.9640   35.2990   43.4800 H   0  0  0  0  0  0  0  0  0  0  0  0
   48.7030   32.8720   42.8110 H   0  0  0  0  0  0  0  0  0  0  0  0
   50.0580   32.6180   41.2920 C   0  0  0  0  0  0  0  0  0  0  0  0
   49.6190   31.9840   40.1480 C   0  0  0  0  0  0  0  0  0  0  0  0
   48.6300   32.0280   39.6980 H   0  0  0  0  0  0  0  0  0  0  0  0
   50.6130   31.2400   39.5860 N   0  0  0  0  0  0  0  0  0  0  0  0
   50.5810   30.6560   38.7230 H   0  0  0  0  0  0  0  0  0  0  0  0
   51.6460   31.4450   40.4190 C   0  0  0  0  0  0  0  0  0  0  0  0
   52.6280   31.0240   40.3180 H   0  0  0  0  0  0  0  0  0  0  0  0
   51.3580   32.2550   41.4420 N   0  0  0  0  0  0  0  0  0  0  0  0
   46.6300   34.3220   42.1220 C   0  0  0  0  0  0  0  0  0  0  0  0
   47.2200   33.4340   42.5120 H   0  0  0  0  0  0  0  0  0  0  0  0
   46.0040   34.1130   41.2690 H   0  0  0  0  0  0  0  0  0  0  0  0
   44.4870   35.9220   44.7590 C   0  0  0  0  0  0  0  0  0  0  0  0
   45.1140   35.6910   43.5080 C   0  0  0  0  0  0  0  0  0  0  0  0
   45.9070   34.5790   43.4010 C   0  0  0  0  0  0  0  0  0  0  0  0
   46.0580   33.7550   44.4790 N   0  0  0  0  0  0  0  0  0  0  0  0
   45.4630   33.9880   45.6360 C   0  0  0  0  0  0  0  0  0  0  0  0
   44.6820   35.0620   45.7840 N   0  0  0  0  0  0  0  0  0  0  0  0
   43.8420   36.7710   44.9470 H   0  0  0  0  0  0  0  0  0  0  0  0
   44.8630   36.4350   42.7940 H   0  0  0  0  0  0  0  0  0  0  0  0
   45.5670   33.3520   46.5010 H   0  0  0  0  0  0  0  0  0  0  0  0
  1 19  1  0  0  0  0
  1  3  1  0  0  0  0
  2  1  1  0  0  0  0
  4  7  1  6  0  0  0
  4  1  1  0  0  0  0
  4  6  1  0  0  0  0
  4  5  1  0  0  0  0
  5  9  1  0  0  0  0
  6  5  1  0  0  0  0
  6 10  1  1  0  0  0
  8  5  1  0  0  0  0
 11 18  1  0  0  0  0
 11  6  1  0  0  0  0
 12 11  2  0  0  0  0
 13 12  1  0  0  0  0
 14 12  1  0  0  0  0
 14 16  1  0  0  0  0
 15 14  1  0  0  0  0
 16 18  2  0  0  0  0
 17 16  1  0  0  0  0
 19 20  1  0  0  0  0
 19 24  1  0  0  0  0
 21 19  1  0  0  0  0
 22 28  1  0  0  0  0
 22 27  1  0  0  0  0
 23 22  2  0  0  0  0
 24 23  1  0  0  0  0
 24 25  2  0  0  0  0
 25 26  1  0  0  0  0
 26 27  2  0  0  0  0
 26 30  1  0  0  0  0
 29 23  1  0  0  0  0
M  END
>  <minimizedAffinity>
-4.73958206

>  <minimizedRMSD>
1.08408952

$$$$
