
 OpenBabel03252500003D

 20 21  0  0  0  0  0  0  0  0999 V2000
   40.0660   29.0010   42.5710 C   0  0  0  0  0  0  0  0  0  0  0  0
   39.9050   30.2750   42.0070 C   0  0  0  0  0  0  0  0  0  0  0  0
   38.6230   30.6220   41.5940 C   0  0  0  0  0  0  0  0  0  0  0  0
   37.6130   29.7290   41.7550 N   0  0  0  0  0  0  0  0  0  0  0  0
   37.8090   28.5110   42.3030 C   0  0  0  0  0  0  0  0  0  0  0  0
   39.0410   28.1470   42.7120 N   0  0  0  0  0  0  0  0  0  0  0  0
   41.0490   28.6880   42.9070 H   0  0  0  0  0  0  0  0  0  0  0  0
   40.7220   30.9680   41.8890 H   0  0  0  0  0  0  0  0  0  0  0  0
   38.3300   31.9270   40.9900 C   0  0  0  0  0  0  0  0  0  0  0  0
   37.1410   32.2060   40.3310 C   0  0  0  0  0  0  0  0  0  0  0  0
   36.2810   31.6100   40.1380 H   0  0  0  0  0  0  0  0  0  0  0  0
   37.2190   33.4810   39.9120 N   0  0  0  0  0  0  0  0  0  0  0  0
   36.5690   34.1280   39.3750 H   0  0  0  0  0  0  0  0  0  0  0  0
   38.3970   34.0170   40.2740 C   0  0  0  0  0  0  0  0  0  0  0  0
   38.9320   34.9540   40.1910 H   0  0  0  0  0  0  0  0  0  0  0  0
   39.0600   33.0540   40.9310 N   0  0  0  0  0  0  0  0  0  0  0  0
   36.5800   27.6830   42.3920 C   0  0  0  0  0  0  0  0  0  0  0  0
   36.1970   27.4550   43.6800 F   0  0  0  0  0  0  0  0  0  0  0  0
   36.7860   26.4580   41.7530 F   0  0  0  0  0  0  0  0  0  0  0  0
   35.5600   28.2960   41.6570 F   0  0  0  0  0  0  0  0  0  0  0  0
  1  6  1  0  0  0  0
  1  7  1  0  0  0  0
  2  1  2  0  0  0  0
  3  4  2  0  0  0  0
  3  2  1  0  0  0  0
  4  5  1  0  0  0  0
  5 17  1  0  0  0  0
  5  6  2  0  0  0  0
  8  2  1  0  0  0  0
  9  3  1  0  0  0  0
 10  9  2  0  0  0  0
 11 10  1  0  0  0  0
 12 14  1  0  0  0  0
 12 10  1  0  0  0  0
 13 12  1  0  0  0  0
 14 16  2  0  0  0  0
 15 14  1  0  0  0  0
 16  9  1  0  0  0  0
 17 18  1  0  0  0  0
 19 17  1  0  0  0  0
 20 17  1  0  0  0  0
M  END
>  <minimizedAffinity>
-4.87699318

$$$$

 OpenBabel03252500003D

 20 21  0  0  0  0  0  0  0  0999 V2000
   35.6680   29.0300   39.4370 C   0  0  0  0  0  0  0  0  0  0  0  0
   36.2100   30.3140   39.2820 C   0  0  0  0  0  0  0  0  0  0  0  0
   37.0110   30.7880   40.3140 C   0  0  0  0  0  0  0  0  0  0  0  0
   37.2250   30.0000   41.3990 N   0  0  0  0  0  0  0  0  0  0  0  0
   36.6850   28.7670   41.5120 C   0  0  0  0  0  0  0  0  0  0  0  0
   35.9040   28.2820   40.5260 N   0  0  0  0  0  0  0  0  0  0  0  0
   35.0360   28.6200   38.6570 H   0  0  0  0  0  0  0  0  0  0  0  0
   36.0260   30.9230   38.4110 H   0  0  0  0  0  0  0  0  0  0  0  0
   37.6340   32.1160   40.2660 C   0  0  0  0  0  0  0  0  0  0  0  0
   37.2800   33.0840   39.3370 C   0  0  0  0  0  0  0  0  0  0  0  0
   36.5650   33.0820   38.5490 H   0  0  0  0  0  0  0  0  0  0  0  0
   38.0460   34.1610   39.5870 N   0  0  0  0  0  0  0  0  0  0  0  0
   38.1370   35.1260   39.1520 H   0  0  0  0  0  0  0  0  0  0  0  0
   38.8640   33.9160   40.6250 C   0  0  0  0  0  0  0  0  0  0  0  0
   39.6330   34.4170   41.1980 H   0  0  0  0  0  0  0  0  0  0  0  0
   38.5970   32.6650   41.0250 N   0  0  0  0  0  0  0  0  0  0  0  0
   37.0390   28.0660   42.7720 C   0  0  0  0  0  0  0  0  0  0  0  0
   35.9640   27.4590   43.3480 F   0  0  0  0  0  0  0  0  0  0  0  0
   37.5930   28.9730   43.6790 F   0  0  0  0  0  0  0  0  0  0  0  0
   38.0660   27.1530   42.5160 F   0  0  0  0  0  0  0  0  0  0  0  0
  1  6  1  0  0  0  0
  2  1  2  0  0  0  0
  2  3  1  0  0  0  0
  3  4  2  0  0  0  0
  4  5  1  0  0  0  0
  5 17  1  0  0  0  0
  6  5  2  0  0  0  0
  7  1  1  0  0  0  0
  8  2  1  0  0  0  0
  9  3  1  0  0  0  0
  9 16  1  0  0  0  0
 10 12  1  0  0  0  0
 10  9  2  0  0  0  0
 11 10  1  0  0  0  0
 12 14  1  0  0  0  0
 13 12  1  0  0  0  0
 14 16  2  0  0  0  0
 14 15  1  0  0  0  0
 17 18  1  0  0  0  0
 17 19  1  0  0  0  0
 20 17  1  0  0  0  0
M  END
>  <minimizedAffinity>
-4.73557568

$$$$

 OpenBabel03252500003D

 20 21  0  0  0  0  0  0  0  0999 V2000
   39.7630   27.4000   43.4000 C   0  0  0  0  0  0  0  0  0  0  0  0
   39.2660   28.6190   42.9140 C   0  0  0  0  0  0  0  0  0  0  0  0
   38.1550   28.5570   42.0810 C   0  0  0  0  0  0  0  0  0  0  0  0
   37.6170   27.3450   41.7850 N   0  0  0  0  0  0  0  0  0  0  0  0
   38.1250   26.1930   42.2730 C   0  0  0  0  0  0  0  0  0  0  0  0
   39.2030   26.2230   43.0840 N   0  0  0  0  0  0  0  0  0  0  0  0
   40.6290   27.4010   44.0530 H   0  0  0  0  0  0  0  0  0  0  0  0
   39.7090   29.5700   43.1620 H   0  0  0  0  0  0  0  0  0  0  0  0
   37.5440   29.7630   41.5110 C   0  0  0  0  0  0  0  0  0  0  0  0
   36.1760   29.9090   41.3360 C   0  0  0  0  0  0  0  0  0  0  0  0
   35.3610   29.2580   41.5480 H   0  0  0  0  0  0  0  0  0  0  0  0
   35.9800   31.1260   40.7960 N   0  0  0  0  0  0  0  0  0  0  0  0
   35.1230   31.6730   40.4900 H   0  0  0  0  0  0  0  0  0  0  0  0
   37.1580   31.7500   40.6230 C   0  0  0  0  0  0  0  0  0  0  0  0
   37.5390   32.6910   40.2500 H   0  0  0  0  0  0  0  0  0  0  0  0
   38.0990   30.9040   41.0650 N   0  0  0  0  0  0  0  0  0  0  0  0
   37.3960   24.9770   41.8340 C   0  0  0  0  0  0  0  0  0  0  0  0
   38.2050   23.8830   41.7620 F   0  0  0  0  0  0  0  0  0  0  0  0
   36.8160   25.1990   40.5830 F   0  0  0  0  0  0  0  0  0  0  0  0
   36.3130   24.7570   42.6900 F   0  0  0  0  0  0  0  0  0  0  0  0
  1  7  1  0  0  0  0
  2  8  1  0  0  0  0
  2  1  2  0  0  0  0
  3  2  1  0  0  0  0
  4  3  2  0  0  0  0
  4  5  1  0  0  0  0
  5  6  2  0  0  0  0
  6  1  1  0  0  0  0
  9  3  1  0  0  0  0
 10  9  2  0  0  0  0
 10 11  1  0  0  0  0
 12 10  1  0  0  0  0
 13 12  1  0  0  0  0
 14 12  1  0  0  0  0
 14 16  2  0  0  0  0
 15 14  1  0  0  0  0
 16  9  1  0  0  0  0
 17  5  1  0  0  0  0
 17 20  1  0  0  0  0
 18 17  1  0  0  0  0
 19 17  1  0  0  0  0
M  END
>  <minimizedAffinity>
-4.62208366

$$$$

 OpenBabel03252500003D

 20 21  0  0  0  0  0  0  0  0999 V2000
   36.8310   26.6630   38.8620 C   0  0  0  0  0  0  0  0  0  0  0  0
   36.8390   28.0560   38.6960 C   0  0  0  0  0  0  0  0  0  0  0  0
   36.8910   28.8260   39.8520 C   0  0  0  0  0  0  0  0  0  0  0  0
   36.9300   28.2060   41.0590 N   0  0  0  0  0  0  0  0  0  0  0  0
   36.9190   26.8600   41.1780 C   0  0  0  0  0  0  0  0  0  0  0  0
   36.8700   26.0870   40.0740 N   0  0  0  0  0  0  0  0  0  0  0  0
   36.7910   26.0220   37.9880 H   0  0  0  0  0  0  0  0  0  0  0  0
   36.8080   28.5270   37.7270 H   0  0  0  0  0  0  0  0  0  0  0  0
   36.9050   30.2930   39.8060 C   0  0  0  0  0  0  0  0  0  0  0  0
   36.5180   31.0880   40.8750 C   0  0  0  0  0  0  0  0  0  0  0  0
   36.1650   30.8430   41.8490 H   0  0  0  0  0  0  0  0  0  0  0  0
   36.6580   32.3660   40.4800 N   0  0  0  0  0  0  0  0  0  0  0  0
   36.4900   33.3090   40.9400 H   0  0  0  0  0  0  0  0  0  0  0  0
   37.1140   32.4130   39.2160 C   0  0  0  0  0  0  0  0  0  0  0  0
   37.3830   33.1480   38.4690 H   0  0  0  0  0  0  0  0  0  0  0  0
   37.2590   31.1400   38.8230 N   0  0  0  0  0  0  0  0  0  0  0  0
   36.9670   26.3780   42.5800 C   0  0  0  0  0  0  0  0  0  0  0  0
   36.2200   27.1470   43.4220 F   0  0  0  0  0  0  0  0  0  0  0  0
   38.2890   26.3600   43.0310 F   0  0  0  0  0  0  0  0  0  0  0  0
   36.5650   25.0390   42.6190 F   0  0  0  0  0  0  0  0  0  0  0  0
  1  6  1  0  0  0  0
  2  1  2  0  0  0  0
  2  3  1  0  0  0  0
  3  4  2  0  0  0  0
  4  5  1  0  0  0  0
  5 17  1  0  0  0  0
  6  5  2  0  0  0  0
  7  1  1  0  0  0  0
  8  2  1  0  0  0  0
  9  3  1  0  0  0  0
  9 10  2  0  0  0  0
 10 11  1  0  0  0  0
 12 10  1  0  0  0  0
 12 13  1  0  0  0  0
 14 12  1  0  0  0  0
 15 14  1  0  0  0  0
 16 14  2  0  0  0  0
 16  9  1  0  0  0  0
 17 20  1  0  0  0  0
 17 19  1  0  0  0  0
 17 18  1  0  0  0  0
M  END
>  <minimizedAffinity>
-4.60510588

$$$$

 OpenBabel03252500003D

 20 21  0  0  0  0  0  0  0  0999 V2000
   37.3730   27.4700   39.2200 C   0  0  0  0  0  0  0  0  0  0  0  0
   37.5790   28.8570   39.1900 C   0  0  0  0  0  0  0  0  0  0  0  0
   37.5860   29.5180   40.4130 C   0  0  0  0  0  0  0  0  0  0  0  0
   37.3980   28.8030   41.5520 N   0  0  0  0  0  0  0  0  0  0  0  0
   37.2030   27.4670   41.5400 C   0  0  0  0  0  0  0  0  0  0  0  0
   37.1910   26.7990   40.3680 N   0  0  0  0  0  0  0  0  0  0  0  0
   37.3590   26.9130   38.2900 H   0  0  0  0  0  0  0  0  0  0  0  0
   37.7260   29.4050   38.2730 H   0  0  0  0  0  0  0  0  0  0  0  0
   37.7920   30.9680   40.5090 C   0  0  0  0  0  0  0  0  0  0  0  0
   36.8030   31.8940   40.2130 C   0  0  0  0  0  0  0  0  0  0  0  0
   35.7960   31.7770   39.8880 H   0  0  0  0  0  0  0  0  0  0  0  0
   37.3390   33.1120   40.4090 N   0  0  0  0  0  0  0  0  0  0  0  0
   36.9790   34.1070   40.3150 H   0  0  0  0  0  0  0  0  0  0  0  0
   38.6160   32.9960   40.8140 C   0  0  0  0  0  0  0  0  0  0  0  0
   39.4470   33.6290   41.0930 H   0  0  0  0  0  0  0  0  0  0  0  0
   38.8730   31.6820   40.8690 N   0  0  0  0  0  0  0  0  0  0  0  0
   37.0170   26.8720   42.8860 C   0  0  0  0  0  0  0  0  0  0  0  0
   38.1340   26.9770   43.6610 F   0  0  0  0  0  0  0  0  0  0  0  0
   36.6720   25.5230   42.7650 F   0  0  0  0  0  0  0  0  0  0  0  0
   35.9100   27.4640   43.5020 F   0  0  0  0  0  0  0  0  0  0  0  0
  1  6  1  0  0  0  0
  2  1  2  0  0  0  0
  2  3  1  0  0  0  0
  3  9  1  0  0  0  0
  3  4  2  0  0  0  0
  5  4  1  0  0  0  0
  5 17  1  0  0  0  0
  6  5  2  0  0  0  0
  7  1  1  0  0  0  0
  8  2  1  0  0  0  0
  9 16  1  0  0  0  0
 10 12  1  0  0  0  0
 10  9  2  0  0  0  0
 11 10  1  0  0  0  0
 12 14  1  0  0  0  0
 13 12  1  0  0  0  0
 14 16  2  0  0  0  0
 14 15  1  0  0  0  0
 17 20  1  0  0  0  0
 17 18  1  0  0  0  0
 19 17  1  0  0  0  0
M  END
>  <minimizedAffinity>
-4.59389448

$$$$

 OpenBabel03252500003D

 20 21  0  0  0  0  0  0  0  0999 V2000
   38.3840   28.6870   43.3050 C   0  0  0  0  0  0  0  0  0  0  0  0
   38.4280   27.3100   43.0410 C   0  0  0  0  0  0  0  0  0  0  0  0
   37.6500   26.8460   41.9860 C   0  0  0  0  0  0  0  0  0  0  0  0
   36.9030   27.7310   41.2780 N   0  0  0  0  0  0  0  0  0  0  0  0
   36.8860   29.0510   41.5630 C   0  0  0  0  0  0  0  0  0  0  0  0
   37.6310   29.5290   42.5810 N   0  0  0  0  0  0  0  0  0  0  0  0
   38.9750   29.0920   44.1190 H   0  0  0  0  0  0  0  0  0  0  0  0
   39.0300   26.6250   43.6160 H   0  0  0  0  0  0  0  0  0  0  0  0
   37.6150   25.4270   41.6140 C   0  0  0  0  0  0  0  0  0  0  0  0
   38.3800   24.4590   42.2480 C   0  0  0  0  0  0  0  0  0  0  0  0
   39.0790   24.5200   43.0480 H   0  0  0  0  0  0  0  0  0  0  0  0
   38.0940   23.2870   41.6530 N   0  0  0  0  0  0  0  0  0  0  0  0
   38.4230   22.2860   41.7880 H   0  0  0  0  0  0  0  0  0  0  0  0
   37.1890   23.4720   40.6770 C   0  0  0  0  0  0  0  0  0  0  0  0
   36.6520   22.8920   39.9370 H   0  0  0  0  0  0  0  0  0  0  0  0
   36.9090   24.7820   40.6690 N   0  0  0  0  0  0  0  0  0  0  0  0
   36.0070   29.8510   40.6740 C   0  0  0  0  0  0  0  0  0  0  0  0
   36.5080   29.9650   39.4120 F   0  0  0  0  0  0  0  0  0  0  0  0
   35.8250   31.1280   41.2110 F   0  0  0  0  0  0  0  0  0  0  0  0
   34.7270   29.2870   40.6670 F   0  0  0  0  0  0  0  0  0  0  0  0
  1  7  1  0  0  0  0
  2  1  1  0  0  0  0
  2  8  1  0  0  0  0
  3  2  2  0  0  0  0
  4  5  2  0  0  0  0
  4  3  1  0  0  0  0
  5  6  1  0  0  0  0
  6  1  2  0  0  0  0
  9  3  1  0  0  0  0
  9 10  2  0  0  0  0
 10 11  1  0  0  0  0
 12 13  1  0  0  0  0
 12 10  1  0  0  0  0
 14 12  1  0  0  0  0
 15 14  1  0  0  0  0
 16 14  2  0  0  0  0
 16  9  1  0  0  0  0
 17 19  1  0  0  0  0
 17  5  1  0  0  0  0
 18 17  1  0  0  0  0
 20 17  1  0  0  0  0
M  END
>  <minimizedAffinity>
-4.51704216

$$$$

 OpenBabel03252500003D

 20 21  0  0  0  0  0  0  0  0999 V2000
   39.0590   26.3380   39.2210 C   0  0  0  0  0  0  0  0  0  0  0  0
   38.6190   27.6630   39.3530 C   0  0  0  0  0  0  0  0  0  0  0  0
   37.6550   27.9120   40.3230 C   0  0  0  0  0  0  0  0  0  0  0  0
   37.1970   26.8820   41.0800 N   0  0  0  0  0  0  0  0  0  0  0  0
   37.6460   25.6170   40.9220 C   0  0  0  0  0  0  0  0  0  0  0  0
   38.5810   25.3470   39.9890 N   0  0  0  0  0  0  0  0  0  0  0  0
   39.8100   26.0970   38.4760 H   0  0  0  0  0  0  0  0  0  0  0  0
   38.9970   28.4660   38.7410 H   0  0  0  0  0  0  0  0  0  0  0  0
   37.1180   29.2580   40.5550 C   0  0  0  0  0  0  0  0  0  0  0  0
   35.8610   29.4880   41.0970 C   0  0  0  0  0  0  0  0  0  0  0  0
   35.0990   28.8230   41.4260 H   0  0  0  0  0  0  0  0  0  0  0  0
   35.7060   30.8230   41.1640 N   0  0  0  0  0  0  0  0  0  0  0  0
   34.9280   31.4640   41.4990 H   0  0  0  0  0  0  0  0  0  0  0  0
   36.8010   31.4410   40.6900 C   0  0  0  0  0  0  0  0  0  0  0  0
   37.1710   32.4450   40.5310 H   0  0  0  0  0  0  0  0  0  0  0  0
   37.6500   30.4700   40.3250 N   0  0  0  0  0  0  0  0  0  0  0  0
   37.0230   24.6360   41.8440 C   0  0  0  0  0  0  0  0  0  0  0  0
   37.9280   23.7560   42.3580 F   0  0  0  0  0  0  0  0  0  0  0  0
   36.0240   23.9250   41.1750 F   0  0  0  0  0  0  0  0  0  0  0  0
   36.3470   25.3230   42.8580 F   0  0  0  0  0  0  0  0  0  0  0  0
  1  2  2  0  0  0  0
  1  6  1  0  0  0  0
  2  3  1  0  0  0  0
  3  9  1  0  0  0  0
  3  4  2  0  0  0  0
  5  4  1  0  0  0  0
  5 17  1  0  0  0  0
  6  5  2  0  0  0  0
  7  1  1  0  0  0  0
  8  2  1  0  0  0  0
  9 10  2  0  0  0  0
 10 12  1  0  0  0  0
 10 11  1  0  0  0  0
 12 13  1  0  0  0  0
 14 12  1  0  0  0  0
 15 14  1  0  0  0  0
 16  9  1  0  0  0  0
 16 14  2  0  0  0  0
 17 18  1  0  0  0  0
 17 20  1  0  0  0  0
 19 17  1  0  0  0  0
M  END
>  <minimizedAffinity>
-4.37346649

$$$$

 OpenBabel03252500003D

 20 21  0  0  0  0  0  0  0  0999 V2000
   36.3700   28.1570   37.8730 C   0  0  0  0  0  0  0  0  0  0  0  0
   36.4030   27.8270   39.2360 C   0  0  0  0  0  0  0  0  0  0  0  0
   36.8430   28.8140   40.1110 C   0  0  0  0  0  0  0  0  0  0  0  0
   37.2100   30.0220   39.6140 N   0  0  0  0  0  0  0  0  0  0  0  0
   37.1650   30.3020   38.2930 C   0  0  0  0  0  0  0  0  0  0  0  0
   36.7430   29.3640   37.4210 N   0  0  0  0  0  0  0  0  0  0  0  0
   36.0350   27.4180   37.1540 H   0  0  0  0  0  0  0  0  0  0  0  0
   36.1060   26.8600   39.6090 H   0  0  0  0  0  0  0  0  0  0  0  0
   36.9200   28.5870   41.5590 C   0  0  0  0  0  0  0  0  0  0  0  0
   37.3700   29.5490   42.4530 C   0  0  0  0  0  0  0  0  0  0  0  0
   37.7180   30.5440   42.3070 H   0  0  0  0  0  0  0  0  0  0  0  0
   37.3050   29.0000   43.6790 N   0  0  0  0  0  0  0  0  0  0  0  0
   37.5380   29.3400   44.6580 H   0  0  0  0  0  0  0  0  0  0  0  0
   36.8380   27.7420   43.5990 C   0  0  0  0  0  0  0  0  0  0  0  0
   36.6060   26.9120   44.2530 H   0  0  0  0  0  0  0  0  0  0  0  0
   36.6080   27.5100   42.3000 N   0  0  0  0  0  0  0  0  0  0  0  0
   37.6070   31.6770   37.9510 C   0  0  0  0  0  0  0  0  0  0  0  0
   37.5000   31.9420   36.6190 F   0  0  0  0  0  0  0  0  0  0  0  0
   38.9350   31.8600   38.3470 F   0  0  0  0  0  0  0  0  0  0  0  0
   36.8820   32.5960   38.7160 F   0  0  0  0  0  0  0  0  0  0  0  0
  1  2  1  0  0  0  0
  2  8  1  0  0  0  0
  2  3  2  0  0  0  0
  3  9  1  0  0  0  0
  4  3  1  0  0  0  0
  5  4  2  0  0  0  0
  6  1  2  0  0  0  0
  6  5  1  0  0  0  0
  7  1  1  0  0  0  0
  9 16  1  0  0  0  0
  9 10  2  0  0  0  0
 10 12  1  0  0  0  0
 11 10  1  0  0  0  0
 12 13  1  0  0  0  0
 14 12  1  0  0  0  0
 14 15  1  0  0  0  0
 16 14  2  0  0  0  0
 17  5  1  0  0  0  0
 17 19  1  0  0  0  0
 17 20  1  0  0  0  0
 18 17  1  0  0  0  0
M  END
>  <minimizedAffinity>
-4.21085358

$$$$

 OpenBabel03252500003D

 20 21  0  0  0  0  0  0  0  0999 V2000
   37.4190   27.2180   42.9840 C   0  0  0  0  0  0  0  0  0  0  0  0
   38.6600   27.8390   43.1900 C   0  0  0  0  0  0  0  0  0  0  0  0
   38.8850   29.0340   42.5170 C   0  0  0  0  0  0  0  0  0  0  0  0
   37.9120   29.5310   41.7100 N   0  0  0  0  0  0  0  0  0  0  0  0
   36.7300   28.9020   41.5360 C   0  0  0  0  0  0  0  0  0  0  0  0
   36.4840   27.7410   42.1770 N   0  0  0  0  0  0  0  0  0  0  0  0
   37.2010   26.2830   43.4890 H   0  0  0  0  0  0  0  0  0  0  0  0
   39.4180   27.4260   43.8360 H   0  0  0  0  0  0  0  0  0  0  0  0
   40.1430   29.7760   42.6530 C   0  0  0  0  0  0  0  0  0  0  0  0
   40.2100   31.1620   42.6420 C   0  0  0  0  0  0  0  0  0  0  0  0
   39.4570   31.9070   42.5430 H   0  0  0  0  0  0  0  0  0  0  0  0
   41.5070   31.4900   42.7880 N   0  0  0  0  0  0  0  0  0  0  0  0
   42.0400   32.4070   42.8370 H   0  0  0  0  0  0  0  0  0  0  0  0
   42.2560   30.3790   42.8910 C   0  0  0  0  0  0  0  0  0  0  0  0
   43.2940   30.1000   43.0160 H   0  0  0  0  0  0  0  0  0  0  0  0
   41.4080   29.3450   42.8070 N   0  0  0  0  0  0  0  0  0  0  0  0
   35.8020   29.6050   40.6160 C   0  0  0  0  0  0  0  0  0  0  0  0
   34.5610   29.0410   40.5960 F   0  0  0  0  0  0  0  0  0  0  0  0
   36.3250   29.6020   39.3210 F   0  0  0  0  0  0  0  0  0  0  0  0
   35.7430   30.9580   40.9680 F   0  0  0  0  0  0  0  0  0  0  0  0
  1  2  1  0  0  0  0
  1  7  1  0  0  0  0
  2  8  1  0  0  0  0
  3  9  1  0  0  0  0
  3  2  2  0  0  0  0
  4  3  1  0  0  0  0
  5  4  2  0  0  0  0
  5  6  1  0  0  0  0
  6  1  2  0  0  0  0
  9 16  1  0  0  0  0
 10  9  2  0  0  0  0
 10 12  1  0  0  0  0
 11 10  1  0  0  0  0
 12 13  1  0  0  0  0
 12 14  1  0  0  0  0
 14 15  1  0  0  0  0
 16 14  2  0  0  0  0
 17 20  1  0  0  0  0
 17  5  1  0  0  0  0
 18 17  1  0  0  0  0
 19 17  1  0  0  0  0
M  END
>  <minimizedAffinity>
-4.12664747

$$$$
