
 OpenBabel03242516233D

 28 30  0  0  0  0  0  0  0  0999 V2000
   37.9650   31.2830   41.0070 C   0  0  0  0  0  0  0  0  0  0  0  0
   39.2270   31.8280   41.0910 C   0  0  0  0  0  0  0  0  0  0  0  0
   39.5250   33.0330   40.4740 C   0  0  0  0  0  0  0  0  0  0  0  0
   38.5700   33.7240   39.7560 C   0  0  0  0  0  0  0  0  0  0  0  0
   37.3240   33.1990   39.6660 C   0  0  0  0  0  0  0  0  0  0  0  0
   37.0280   31.9920   40.2850 C   0  0  0  0  0  0  0  0  0  0  0  0
   39.9830   31.2810   41.6590 H   0  0  0  0  0  0  0  0  0  0  0  0
   38.8920   34.6570   39.3070 H   0  0  0  0  0  0  0  0  0  0  0  0
   36.5990   33.7660   39.0960 H   0  0  0  0  0  0  0  0  0  0  0  0
   36.0170   31.5890   40.1980 H   0  0  0  0  0  0  0  0  0  0  0  0
   38.1100   28.5060   43.3790 C   0  0  0  0  0  0  0  0  0  0  0  0
   37.1180   27.6410   42.9510 C   0  0  0  0  0  0  0  0  0  0  0  0
   36.3890   28.0190   41.8300 C   0  0  0  0  0  0  0  0  0  0  0  0
   36.6440   29.2040   41.1760 N   0  0  0  0  0  0  0  0  0  0  0  0
   37.6440   30.0150   41.6550 C   0  0  0  0  0  0  0  0  0  0  0  0
   38.3680   29.6650   42.7490 N   0  0  0  0  0  0  0  0  0  0  0  0
   38.6440   28.1620   44.2550 H   0  0  0  0  0  0  0  0  0  0  0  0
   36.8320   26.7020   43.3770 H   0  0  0  0  0  0  0  0  0  0  0  0
   35.5800   27.4940   41.3380 H   0  0  0  0  0  0  0  0  0  0  0  0
   41.1930   33.6700   40.6340 S   0  0  0  0  0  0  0  0  0  0  0  0
   42.0180   33.6740   39.0390 C   0  0  0  0  0  0  0  0  0  0  0  0
   41.5140   33.4390   37.7910 C   0  0  0  0  0  0  0  0  0  0  0  0
   40.4460   33.2060   37.6720 H   0  0  0  0  0  0  0  0  0  0  0  0
   42.5220   33.5530   36.8900 N   0  0  0  0  0  0  0  0  0  0  0  0
   42.3570   33.4140   35.8740 H   0  0  0  0  0  0  0  0  0  0  0  0
   43.6520   33.8590   37.5760 C   0  0  0  0  0  0  0  0  0  0  0  0
   44.6230   34.0080   37.0860 H   0  0  0  0  0  0  0  0  0  0  0  0
   43.3460   33.9330   38.9030 N   0  0  0  0  0  0  0  0  0  0  0  0
  1  2  1  0  0  0  0
  1 15  1  0  0  0  0
  2  7  1  0  0  0  0
  3 20  1  0  0  0  0
  3  2  2  0  0  0  0
  4  3  1  0  0  0  0
  5  4  2  0  0  0  0
  5  6  1  0  0  0  0
  6  1  2  0  0  0  0
  8  4  1  0  0  0  0
  9  5  1  0  0  0  0
 10  6  1  0  0  0  0
 11 17  1  0  0  0  0
 12 18  1  0  0  0  0
 12 11  1  0  0  0  0
 13 12  2  0  0  0  0
 14 15  2  0  0  0  0
 14 13  1  0  0  0  0
 15 16  1  0  0  0  0
 16 11  2  0  0  0  0
 19 13  1  0  0  0  0
 21 20  1  0  0  0  0
 22 21  2  0  0  0  0
 23 22  1  0  0  0  0
 24 26  1  0  0  0  0
 24 22  1  0  0  0  0
 25 24  1  0  0  0  0
 26 28  2  0  0  0  0
 27 26  1  0  0  0  0
 28 21  1  0  0  0  0
M  END
>  <minimizedAffinity>
-5.18679523

$$$$

 OpenBabel03242516233D

 28 30  0  0  0  0  0  0  0  0999 V2000
   37.3550   28.3860   41.3370 C   0  0  0  0  0  0  0  0  0  0  0  0
   38.2850   29.4000   41.2670 C   0  0  0  0  0  0  0  0  0  0  0  0
   37.9110   30.6860   40.9110 C   0  0  0  0  0  0  0  0  0  0  0  0
   36.5990   30.9920   40.6130 C   0  0  0  0  0  0  0  0  0  0  0  0
   35.6740   30.0040   40.6780 C   0  0  0  0  0  0  0  0  0  0  0  0
   36.0500   28.7160   41.0360 C   0  0  0  0  0  0  0  0  0  0  0  0
   39.3240   29.1580   41.5020 H   0  0  0  0  0  0  0  0  0  0  0  0
   36.3970   32.0230   40.3440 H   0  0  0  0  0  0  0  0  0  0  0  0
   34.6540   30.2780   40.4390 H   0  0  0  0  0  0  0  0  0  0  0  0
   35.2880   27.9370   41.0810 H   0  0  0  0  0  0  0  0  0  0  0  0
   39.2520   25.6490   42.8450 C   0  0  0  0  0  0  0  0  0  0  0  0
   38.5590   24.5100   42.4750 C   0  0  0  0  0  0  0  0  0  0  0  0
   37.4220   24.6870   41.6950 C   0  0  0  0  0  0  0  0  0  0  0  0
   37.0050   25.9420   41.3100 N   0  0  0  0  0  0  0  0  0  0  0  0
   37.7420   27.0300   41.7120 C   0  0  0  0  0  0  0  0  0  0  0  0
   38.8560   26.8800   42.4740 N   0  0  0  0  0  0  0  0  0  0  0  0
   40.1270   25.4530   43.4500 H   0  0  0  0  0  0  0  0  0  0  0  0
   38.7860   23.4920   42.7140 H   0  0  0  0  0  0  0  0  0  0  0  0
   36.7450   23.9380   41.3030 H   0  0  0  0  0  0  0  0  0  0  0  0
   39.1850   31.9450   40.8450 S   0  0  0  0  0  0  0  0  0  0  0  0
   39.7630   32.1650   39.1590 C   0  0  0  0  0  0  0  0  0  0  0  0
   39.1280   31.9130   37.9750 C   0  0  0  0  0  0  0  0  0  0  0  0
   38.1040   31.5130   37.9830 H   0  0  0  0  0  0  0  0  0  0  0  0
   39.9660   32.2370   36.9580 N   0  0  0  0  0  0  0  0  0  0  0  0
   39.6820   32.1230   35.9670 H   0  0  0  0  0  0  0  0  0  0  0  0
   41.1210   32.6900   37.5090 C   0  0  0  0  0  0  0  0  0  0  0  0
   41.9760   33.0220   36.9050 H   0  0  0  0  0  0  0  0  0  0  0  0
   41.0000   32.6470   38.8660 N   0  0  0  0  0  0  0  0  0  0  0  0
  1 15  1  0  0  0  0
  2  1  1  0  0  0  0
  2  7  1  0  0  0  0
  3  2  2  0  0  0  0
  4  5  2  0  0  0  0
  4  3  1  0  0  0  0
  5  6  1  0  0  0  0
  6 10  1  0  0  0  0
  6  1  2  0  0  0  0
  8  4  1  0  0  0  0
  9  5  1  0  0  0  0
 11 17  1  0  0  0  0
 12 18  1  0  0  0  0
 12 11  1  0  0  0  0
 13 12  2  0  0  0  0
 14 13  1  0  0  0  0
 14 15  2  0  0  0  0
 15 16  1  0  0  0  0
 16 11  2  0  0  0  0
 19 13  1  0  0  0  0
 20  3  1  0  0  0  0
 21 20  1  0  0  0  0
 22 23  1  0  0  0  0
 22 21  2  0  0  0  0
 24 26  1  0  0  0  0
 24 22  1  0  0  0  0
 25 24  1  0  0  0  0
 26 28  2  0  0  0  0
 27 26  1  0  0  0  0
 28 21  1  0  0  0  0
M  END
>  <minimizedAffinity>
-5.01403522

$$$$

 OpenBabel03242516233D

 28 30  0  0  0  0  0  0  0  0999 V2000
   37.5220   30.7440   40.8440 C   0  0  0  0  0  0  0  0  0  0  0  0
   37.7870   29.7620   41.7720 C   0  0  0  0  0  0  0  0  0  0  0  0
   36.9390   28.6760   41.9220 C   0  0  0  0  0  0  0  0  0  0  0  0
   35.8020   28.5450   41.1500 C   0  0  0  0  0  0  0  0  0  0  0  0
   35.5290   29.5040   40.2330 C   0  0  0  0  0  0  0  0  0  0  0  0
   36.3810   30.5910   40.0840 C   0  0  0  0  0  0  0  0  0  0  0  0
   38.6860   29.8660   42.3830 H   0  0  0  0  0  0  0  0  0  0  0  0
   35.1970   27.6640   41.3360 H   0  0  0  0  0  0  0  0  0  0  0  0
   34.6310   29.3710   39.6440 H   0  0  0  0  0  0  0  0  0  0  0  0
   36.1400   31.3520   39.3390 H   0  0  0  0  0  0  0  0  0  0  0  0
   38.6310   34.1610   40.1670 C   0  0  0  0  0  0  0  0  0  0  0  0
   40.0030   34.1150   40.3440 C   0  0  0  0  0  0  0  0  0  0  0  0
   40.5540   32.8900   40.7020 C   0  0  0  0  0  0  0  0  0  0  0  0
   39.7670   31.7730   40.8730 N   0  0  0  0  0  0  0  0  0  0  0  0
   38.4110   31.8900   40.6800 C   0  0  0  0  0  0  0  0  0  0  0  0
   37.8520   33.0770   40.3300 N   0  0  0  0  0  0  0  0  0  0  0  0
   38.2570   35.1370   39.8900 H   0  0  0  0  0  0  0  0  0  0  0  0
   40.7090   34.9120   40.2400 H   0  0  0  0  0  0  0  0  0  0  0  0
   41.5910   32.6410   40.8860 H   0  0  0  0  0  0  0  0  0  0  0  0
   37.3600   27.4430   43.1530 S   0  0  0  0  0  0  0  0  0  0  0  0
   37.7540   25.8790   42.3640 C   0  0  0  0  0  0  0  0  0  0  0  0
   36.9560   24.7990   42.1110 C   0  0  0  0  0  0  0  0  0  0  0  0
   35.8980   24.8240   42.4110 H   0  0  0  0  0  0  0  0  0  0  0  0
   37.7000   23.8470   41.4940 N   0  0  0  0  0  0  0  0  0  0  0  0
   37.2870   22.9380   41.2100 H   0  0  0  0  0  0  0  0  0  0  0  0
   38.9600   24.3340   41.3620 C   0  0  0  0  0  0  0  0  0  0  0  0
   39.7710   23.7630   40.8920 H   0  0  0  0  0  0  0  0  0  0  0  0
   38.9980   25.5870   41.8980 N   0  0  0  0  0  0  0  0  0  0  0  0
  1  2  1  0  0  0  0
  2  3  2  0  0  0  0
  2  7  1  0  0  0  0
  3 20  1  0  0  0  0
  4  8  1  0  0  0  0
  4  3  1  0  0  0  0
  5  4  2  0  0  0  0
  6  5  1  0  0  0  0
  6  1  2  0  0  0  0
  9  5  1  0  0  0  0
 10  6  1  0  0  0  0
 11 16  2  0  0  0  0
 11 12  1  0  0  0  0
 12 13  2  0  0  0  0
 13 14  1  0  0  0  0
 13 19  1  0  0  0  0
 15  1  1  0  0  0  0
 15 14  2  0  0  0  0
 16 15  1  0  0  0  0
 17 11  1  0  0  0  0
 18 12  1  0  0  0  0
 21 20  1  0  0  0  0
 22 21  2  0  0  0  0
 22 23  1  0  0  0  0
 24 22  1  0  0  0  0
 25 24  1  0  0  0  0
 26 24  1  0  0  0  0
 26 28  2  0  0  0  0
 27 26  1  0  0  0  0
 28 21  1  0  0  0  0
M  END
>  <minimizedAffinity>
-4.88644266

$$$$

 OpenBabel03242516233D

 28 30  0  0  0  0  0  0  0  0999 V2000
   37.3240   26.8390   41.5860 C   0  0  0  0  0  0  0  0  0  0  0  0
   36.7950   28.0020   41.0740 C   0  0  0  0  0  0  0  0  0  0  0  0
   36.9860   29.2160   41.7170 C   0  0  0  0  0  0  0  0  0  0  0  0
   37.7090   29.2970   42.8900 C   0  0  0  0  0  0  0  0  0  0  0  0
   38.2360   28.1600   43.4050 C   0  0  0  0  0  0  0  0  0  0  0  0
   38.0440   26.9460   42.7590 C   0  0  0  0  0  0  0  0  0  0  0  0
   36.2220   27.9390   40.1460 H   0  0  0  0  0  0  0  0  0  0  0  0
   37.8070   30.2860   43.3240 H   0  0  0  0  0  0  0  0  0  0  0  0
   38.7980   28.2580   44.3250 H   0  0  0  0  0  0  0  0  0  0  0  0
   38.4770   26.0430   43.1930 H   0  0  0  0  0  0  0  0  0  0  0  0
   36.2190   24.4020   39.0960 C   0  0  0  0  0  0  0  0  0  0  0  0
   36.7010   23.1930   39.5670 C   0  0  0  0  0  0  0  0  0  0  0  0
   37.4160   23.2170   40.7580 C   0  0  0  0  0  0  0  0  0  0  0  0
   37.6350   24.3940   41.4380 N   0  0  0  0  0  0  0  0  0  0  0  0
   37.1280   25.5590   40.9140 C   0  0  0  0  0  0  0  0  0  0  0  0
   36.4270   25.5580   39.7520 N   0  0  0  0  0  0  0  0  0  0  0  0
   35.6720   24.3240   38.1670 H   0  0  0  0  0  0  0  0  0  0  0  0
   36.5930   22.2230   39.1270 H   0  0  0  0  0  0  0  0  0  0  0  0
   37.8720   22.3930   41.2920 H   0  0  0  0  0  0  0  0  0  0  0  0
   36.2620   30.6810   40.9820 S   0  0  0  0  0  0  0  0  0  0  0  0
   37.5330   31.6890   40.2110 C   0  0  0  0  0  0  0  0  0  0  0  0
   37.4660   32.9650   39.7270 C   0  0  0  0  0  0  0  0  0  0  0  0
   36.5180   33.5180   39.7850 H   0  0  0  0  0  0  0  0  0  0  0  0
   38.6840   33.3050   39.2360 N   0  0  0  0  0  0  0  0  0  0  0  0
   38.8560   34.2390   38.8170 H   0  0  0  0  0  0  0  0  0  0  0  0
   39.5090   32.2420   39.4160 C   0  0  0  0  0  0  0  0  0  0  0  0
   40.5620   32.2490   39.1050 H   0  0  0  0  0  0  0  0  0  0  0  0
   38.8030   31.2430   40.0160 N   0  0  0  0  0  0  0  0  0  0  0  0
  1  6  1  0  0  0  0
  2  1  2  0  0  0  0
  2  3  1  0  0  0  0
  3  4  2  0  0  0  0
  4  8  1  0  0  0  0
  4  5  1  0  0  0  0
  5  9  1  0  0  0  0
  6 10  1  0  0  0  0
  6  5  2  0  0  0  0
  7  2  1  0  0  0  0
 11 12  2  0  0  0  0
 11 16  1  0  0  0  0
 12 13  1  0  0  0  0
 13 19  1  0  0  0  0
 13 14  2  0  0  0  0
 15 14  1  0  0  0  0
 15  1  1  0  0  0  0
 16 15  2  0  0  0  0
 17 11  1  0  0  0  0
 18 12  1  0  0  0  0
 20  3  1  0  0  0  0
 21 20  1  0  0  0  0
 22 23  1  0  0  0  0
 22 21  2  0  0  0  0
 24 26  1  0  0  0  0
 24 22  1  0  0  0  0
 25 24  1  0  0  0  0
 26 28  2  0  0  0  0
 27 26  1  0  0  0  0
 28 21  1  0  0  0  0
M  END
>  <minimizedAffinity>
-4.87869501

$$$$

 OpenBabel03242516233D

 28 30  0  0  0  0  0  0  0  0999 V2000
   36.6660   28.5340   41.1270 C   0  0  0  0  0  0  0  0  0  0  0  0
   37.7120   29.4290   41.1350 C   0  0  0  0  0  0  0  0  0  0  0  0
   38.4780   29.6210   42.2750 C   0  0  0  0  0  0  0  0  0  0  0  0
   38.2150   28.9240   43.4370 C   0  0  0  0  0  0  0  0  0  0  0  0
   37.1890   28.0400   43.4430 C   0  0  0  0  0  0  0  0  0  0  0  0
   36.4240   27.8490   42.3000 C   0  0  0  0  0  0  0  0  0  0  0  0
   37.9200   29.9810   40.2150 H   0  0  0  0  0  0  0  0  0  0  0  0
   38.8640   29.1380   44.2790 H   0  0  0  0  0  0  0  0  0  0  0  0
   37.0100   27.5110   44.3700 H   0  0  0  0  0  0  0  0  0  0  0  0
   35.6010   27.1320   42.3290 H   0  0  0  0  0  0  0  0  0  0  0  0
   35.4830   27.0710   37.9930 C   0  0  0  0  0  0  0  0  0  0  0  0
   34.3940   27.8500   37.6440 C   0  0  0  0  0  0  0  0  0  0  0  0
   34.0620   28.8930   38.4990 C   0  0  0  0  0  0  0  0  0  0  0  0
   34.7860   29.1390   39.6440 N   0  0  0  0  0  0  0  0  0  0  0  0
   35.8570   28.3260   39.9300 C   0  0  0  0  0  0  0  0  0  0  0  0
   36.1980   27.3010   39.1090 N   0  0  0  0  0  0  0  0  0  0  0  0
   35.6950   26.2740   37.2930 H   0  0  0  0  0  0  0  0  0  0  0  0
   33.7620   27.7530   36.7860 H   0  0  0  0  0  0  0  0  0  0  0  0
   33.2570   29.6130   38.4110 H   0  0  0  0  0  0  0  0  0  0  0  0
   39.8210   30.8050   42.1970 S   0  0  0  0  0  0  0  0  0  0  0  0
   39.5120   32.0200   40.9110 C   0  0  0  0  0  0  0  0  0  0  0  0
   40.0070   32.0950   39.6400 C   0  0  0  0  0  0  0  0  0  0  0  0
   40.7080   31.3270   39.2840 H   0  0  0  0  0  0  0  0  0  0  0  0
   39.4860   33.1940   39.0380 N   0  0  0  0  0  0  0  0  0  0  0  0
   39.7310   33.4420   38.0600 H   0  0  0  0  0  0  0  0  0  0  0  0
   38.6660   33.8010   39.9340 C   0  0  0  0  0  0  0  0  0  0  0  0
   38.1120   34.7200   39.7030 H   0  0  0  0  0  0  0  0  0  0  0  0
   38.6800   33.0810   41.0910 N   0  0  0  0  0  0  0  0  0  0  0  0
  1  2  2  0  0  0  0
  1  6  1  0  0  0  0
  2  3  1  0  0  0  0
  3  4  2  0  0  0  0
  4  5  1  0  0  0  0
  4  8  1  0  0  0  0
  5  9  1  0  0  0  0
  6 10  1  0  0  0  0
  6  5  2  0  0  0  0
  7  2  1  0  0  0  0
 11 16  1  0  0  0  0
 12 11  2  0  0  0  0
 12 13  1  0  0  0  0
 13 14  2  0  0  0  0
 14 15  1  0  0  0  0
 15  1  1  0  0  0  0
 16 15  2  0  0  0  0
 17 11  1  0  0  0  0
 18 12  1  0  0  0  0
 19 13  1  0  0  0  0
 20  3  1  0  0  0  0
 21 28  1  0  0  0  0
 21 20  1  0  0  0  0
 22 21  2  0  0  0  0
 23 22  1  0  0  0  0
 24 22  1  0  0  0  0
 24 26  1  0  0  0  0
 25 24  1  0  0  0  0
 26 28  2  0  0  0  0
 27 26  1  0  0  0  0
M  END
>  <minimizedAffinity>
-4.8585434

$$$$

 OpenBabel03242516233D

 28 30  0  0  0  0  0  0  0  0999 V2000
   38.0770   27.9300   41.6130 C   0  0  0  0  0  0  0  0  0  0  0  0
   37.6910   29.0440   40.9010 C   0  0  0  0  0  0  0  0  0  0  0  0
   38.2240   30.2920   41.1860 C   0  0  0  0  0  0  0  0  0  0  0  0
   39.1550   30.4580   42.1910 C   0  0  0  0  0  0  0  0  0  0  0  0
   39.5440   29.3710   42.8990 C   0  0  0  0  0  0  0  0  0  0  0  0
   39.0090   28.1220   42.6120 C   0  0  0  0  0  0  0  0  0  0  0  0
   36.9540   28.9120   40.1060 H   0  0  0  0  0  0  0  0  0  0  0  0
   39.5170   31.4690   42.3440 H   0  0  0  0  0  0  0  0  0  0  0  0
   40.2750   29.5360   43.6800 H   0  0  0  0  0  0  0  0  0  0  0  0
   39.3370   27.2600   43.1960 H   0  0  0  0  0  0  0  0  0  0  0  0
   36.5020   25.2060   39.7520 C   0  0  0  0  0  0  0  0  0  0  0  0
   36.4470   24.1620   40.6590 C   0  0  0  0  0  0  0  0  0  0  0  0
   36.9590   24.3990   41.9290 C   0  0  0  0  0  0  0  0  0  0  0  0
   37.4980   25.6200   42.2670 N   0  0  0  0  0  0  0  0  0  0  0  0
   37.5210   26.6130   41.3180 C   0  0  0  0  0  0  0  0  0  0  0  0
   37.0260   26.4030   40.0710 N   0  0  0  0  0  0  0  0  0  0  0  0
   36.0910   24.9660   38.7820 H   0  0  0  0  0  0  0  0  0  0  0  0
   36.0550   23.1780   40.5090 H   0  0  0  0  0  0  0  0  0  0  0  0
   37.0120   23.7260   42.7760 H   0  0  0  0  0  0  0  0  0  0  0  0
   37.6660   31.6870   40.2100 S   0  0  0  0  0  0  0  0  0  0  0  0
   38.7740   31.9660   38.8240 C   0  0  0  0  0  0  0  0  0  0  0  0
   38.5550   31.8140   37.4830 C   0  0  0  0  0  0  0  0  0  0  0  0
   37.5720   31.4710   37.1290 H   0  0  0  0  0  0  0  0  0  0  0  0
   39.6910   32.1450   36.8200 N   0  0  0  0  0  0  0  0  0  0  0  0
   39.7440   32.1010   35.7850 H   0  0  0  0  0  0  0  0  0  0  0  0
   40.6160   32.5030   37.7470 C   0  0  0  0  0  0  0  0  0  0  0  0
   41.6330   32.8190   37.4790 H   0  0  0  0  0  0  0  0  0  0  0  0
   40.0540   32.3930   38.9840 N   0  0  0  0  0  0  0  0  0  0  0  0
  1  6  1  0  0  0  0
  2  3  1  0  0  0  0
  2  1  2  0  0  0  0
  3  4  2  0  0  0  0
  4  8  1  0  0  0  0
  4  5  1  0  0  0  0
  5  9  1  0  0  0  0
  6  5  2  0  0  0  0
  6 10  1  0  0  0  0
  7  2  1  0  0  0  0
 11 16  2  0  0  0  0
 11 12  1  0  0  0  0
 12 13  2  0  0  0  0
 13 14  1  0  0  0  0
 13 19  1  0  0  0  0
 15  1  1  0  0  0  0
 15 14  2  0  0  0  0
 16 15  1  0  0  0  0
 17 11  1  0  0  0  0
 18 12  1  0  0  0  0
 20  3  1  0  0  0  0
 21 28  1  0  0  0  0
 21 20  1  0  0  0  0
 22 21  2  0  0  0  0
 23 22  1  0  0  0  0
 24 22  1  0  0  0  0
 24 26  1  0  0  0  0
 25 24  1  0  0  0  0
 26 28  2  0  0  0  0
 27 26  1  0  0  0  0
M  END
>  <minimizedAffinity>
-4.80102539

$$$$

 OpenBabel03242516233D

 28 30  0  0  0  0  0  0  0  0999 V2000
   37.6700   29.6330   41.4890 C   0  0  0  0  0  0  0  0  0  0  0  0
   37.3220   28.6460   40.5940 C   0  0  0  0  0  0  0  0  0  0  0  0
   37.0400   27.3590   41.0270 C   0  0  0  0  0  0  0  0  0  0  0  0
   37.1000   27.0260   42.3650 C   0  0  0  0  0  0  0  0  0  0  0  0
   37.4410   27.9880   43.2560 C   0  0  0  0  0  0  0  0  0  0  0  0
   37.7230   29.2760   42.8210 C   0  0  0  0  0  0  0  0  0  0  0  0
   37.2750   28.9090   39.5350 H   0  0  0  0  0  0  0  0  0  0  0  0
   36.8640   25.9970   42.6120 H   0  0  0  0  0  0  0  0  0  0  0  0
   37.4790   27.6940   44.2970 H   0  0  0  0  0  0  0  0  0  0  0  0
   37.9960   30.0340   43.5570 H   0  0  0  0  0  0  0  0  0  0  0  0
   37.2680   32.8700   39.8400 C   0  0  0  0  0  0  0  0  0  0  0  0
   38.4330   33.5530   40.1410 C   0  0  0  0  0  0  0  0  0  0  0  0
   39.3710   32.8900   40.9240 C   0  0  0  0  0  0  0  0  0  0  0  0
   39.1470   31.6090   41.3780 N   0  0  0  0  0  0  0  0  0  0  0  0
   37.9680   30.9900   41.0400 C   0  0  0  0  0  0  0  0  0  0  0  0
   37.0380   31.6190   40.2770 N   0  0  0  0  0  0  0  0  0  0  0  0
   36.5750   33.4340   39.2300 H   0  0  0  0  0  0  0  0  0  0  0  0
   38.7130   34.5430   39.8470 H   0  0  0  0  0  0  0  0  0  0  0  0
   40.3360   33.2390   41.2690 H   0  0  0  0  0  0  0  0  0  0  0  0
   36.5950   26.1360   39.7950 S   0  0  0  0  0  0  0  0  0  0  0  0
   37.4460   24.5870   40.1140 C   0  0  0  0  0  0  0  0  0  0  0  0
   37.2940   23.6990   41.1430 C   0  0  0  0  0  0  0  0  0  0  0  0
   36.5560   23.9030   41.9310 H   0  0  0  0  0  0  0  0  0  0  0  0
   38.1590   22.6710   40.9560 N   0  0  0  0  0  0  0  0  0  0  0  0
   38.2100   21.8800   41.6260 H   0  0  0  0  0  0  0  0  0  0  0  0
   38.8480   22.9180   39.8130 C   0  0  0  0  0  0  0  0  0  0  0  0
   39.6190   22.2390   39.4260 H   0  0  0  0  0  0  0  0  0  0  0  0
   38.4110   24.0990   39.2910 N   0  0  0  0  0  0  0  0  0  0  0  0
  1  6  1  0  0  0  0
  2  3  1  0  0  0  0
  2  1  2  0  0  0  0
  3  4  2  0  0  0  0
  4  8  1  0  0  0  0
  4  5  1  0  0  0  0
  5  9  1  0  0  0  0
  6  5  2  0  0  0  0
  6 10  1  0  0  0  0
  7  2  1  0  0  0  0
 11 12  2  0  0  0  0
 11 16  1  0  0  0  0
 12 13  1  0  0  0  0
 13 19  1  0  0  0  0
 13 14  2  0  0  0  0
 15 14  1  0  0  0  0
 15  1  1  0  0  0  0
 16 15  2  0  0  0  0
 17 11  1  0  0  0  0
 18 12  1  0  0  0  0
 20 21  1  0  0  0  0
 20  3  1  0  0  0  0
 21 22  2  0  0  0  0
 22 23  1  0  0  0  0
 24 22  1  0  0  0  0
 24 25  1  0  0  0  0
 26 24  1  0  0  0  0
 27 26  1  0  0  0  0
 28 26  2  0  0  0  0
 28 21  1  0  0  0  0
M  END
>  <minimizedAffinity>
-4.71605206

$$$$

 OpenBabel03242516233D

 28 30  0  0  0  0  0  0  0  0999 V2000
   38.1170   24.5940   41.8440 C   0  0  0  0  0  0  0  0  0  0  0  0
   37.5590   25.7800   42.2640 C   0  0  0  0  0  0  0  0  0  0  0  0
   38.2240   26.6020   43.1620 C   0  0  0  0  0  0  0  0  0  0  0  0
   39.4620   26.2560   43.6640 C   0  0  0  0  0  0  0  0  0  0  0  0
   40.0220   25.0910   43.2590 C   0  0  0  0  0  0  0  0  0  0  0  0
   39.3560   24.2710   42.3590 C   0  0  0  0  0  0  0  0  0  0  0  0
   36.5790   26.0540   41.8670 H   0  0  0  0  0  0  0  0  0  0  0  0
   39.9070   26.9580   44.3620 H   0  0  0  0  0  0  0  0  0  0  0  0
   40.9940   24.8510   43.6720 H   0  0  0  0  0  0  0  0  0  0  0  0
   39.8270   23.3370   42.0480 H   0  0  0  0  0  0  0  0  0  0  0  0
   35.5090   23.3340   39.6140 C   0  0  0  0  0  0  0  0  0  0  0  0
   36.0290   22.1540   39.1140 C   0  0  0  0  0  0  0  0  0  0  0  0
   37.2970   21.7870   39.5500 C   0  0  0  0  0  0  0  0  0  0  0  0
   38.0020   22.5650   40.4400 N   0  0  0  0  0  0  0  0  0  0  0  0
   37.4240   23.7250   40.8980 C   0  0  0  0  0  0  0  0  0  0  0  0
   36.1870   24.1020   40.4850 N   0  0  0  0  0  0  0  0  0  0  0  0
   34.5220   23.5710   39.2410 H   0  0  0  0  0  0  0  0  0  0  0  0
   35.5780   21.4740   38.4220 H   0  0  0  0  0  0  0  0  0  0  0  0
   37.8790   20.9130   39.2840 H   0  0  0  0  0  0  0  0  0  0  0  0
   37.4260   28.1280   43.6560 S   0  0  0  0  0  0  0  0  0  0  0  0
   37.8400   29.4500   42.5130 C   0  0  0  0  0  0  0  0  0  0  0  0
   37.1170   29.9740   41.4790 C   0  0  0  0  0  0  0  0  0  0  0  0
   36.1190   29.5700   41.2560 H   0  0  0  0  0  0  0  0  0  0  0  0
   37.8440   30.9610   40.8990 N   0  0  0  0  0  0  0  0  0  0  0  0
   37.4790   31.4970   40.0880 H   0  0  0  0  0  0  0  0  0  0  0  0
   39.0190   31.0530   41.5730 C   0  0  0  0  0  0  0  0  0  0  0  0
   39.8000   31.7790   41.3080 H   0  0  0  0  0  0  0  0  0  0  0  0
   39.0210   30.1220   42.5690 N   0  0  0  0  0  0  0  0  0  0  0  0
  1  2  2  0  0  0  0
  1  6  1  0  0  0  0
  2  3  1  0  0  0  0
  3 20  1  0  0  0  0
  3  4  2  0  0  0  0
  4  8  1  0  0  0  0
  5  4  1  0  0  0  0
  5  9  1  0  0  0  0
  6  5  2  0  0  0  0
  7  2  1  0  0  0  0
 10  6  1  0  0  0  0
 11 16  1  0  0  0  0
 12 13  1  0  0  0  0
 12 11  2  0  0  0  0
 13 14  2  0  0  0  0
 14 15  1  0  0  0  0
 15  1  1  0  0  0  0
 16 15  2  0  0  0  0
 17 11  1  0  0  0  0
 18 12  1  0  0  0  0
 19 13  1  0  0  0  0
 21 28  1  0  0  0  0
 21 20  1  0  0  0  0
 22 21  2  0  0  0  0
 23 22  1  0  0  0  0
 24 22  1  0  0  0  0
 24 26  1  0  0  0  0
 25 24  1  0  0  0  0
 26 28  2  0  0  0  0
 27 26  1  0  0  0  0
M  END
>  <minimizedAffinity>
-4.70751667

$$$$

 OpenBabel03242516233D

 28 30  0  0  0  0  0  0  0  0999 V2000
   37.3250   31.1940   39.0410 C   0  0  0  0  0  0  0  0  0  0  0  0
   38.0380   30.6470   40.0840 C   0  0  0  0  0  0  0  0  0  0  0  0
   38.6690   31.4550   41.0170 C   0  0  0  0  0  0  0  0  0  0  0  0
   38.6060   32.8310   40.9290 C   0  0  0  0  0  0  0  0  0  0  0  0
   37.9080   33.3830   39.9070 C   0  0  0  0  0  0  0  0  0  0  0  0
   37.2760   32.5710   38.9740 C   0  0  0  0  0  0  0  0  0  0  0  0
   38.0880   29.5580   40.1540 H   0  0  0  0  0  0  0  0  0  0  0  0
   39.1300   33.3840   41.7010 H   0  0  0  0  0  0  0  0  0  0  0  0
   37.8780   34.4640   39.8670 H   0  0  0  0  0  0  0  0  0  0  0  0
   36.7200   33.0380   38.1590 H   0  0  0  0  0  0  0  0  0  0  0  0
   34.9630   28.8000   37.6080 C   0  0  0  0  0  0  0  0  0  0  0  0
   35.3280   28.7170   36.2760 C   0  0  0  0  0  0  0  0  0  0  0  0
   36.4030   29.4980   35.8640 C   0  0  0  0  0  0  0  0  0  0  0  0
   37.0720   30.3160   36.7460 N   0  0  0  0  0  0  0  0  0  0  0  0
   36.6570   30.3490   38.0560 C   0  0  0  0  0  0  0  0  0  0  0  0
   35.6100   29.5950   38.4780 N   0  0  0  0  0  0  0  0  0  0  0  0
   34.1220   28.1730   37.8720 H   0  0  0  0  0  0  0  0  0  0  0  0
   34.8850   28.1220   35.5050 H   0  0  0  0  0  0  0  0  0  0  0  0
   36.8440   29.5790   34.8790 H   0  0  0  0  0  0  0  0  0  0  0  0
   39.5750   30.6610   42.3440 S   0  0  0  0  0  0  0  0  0  0  0  0
   38.8160   29.0890   42.7670 C   0  0  0  0  0  0  0  0  0  0  0  0
   39.1760   27.8190   42.4130 C   0  0  0  0  0  0  0  0  0  0  0  0
   40.0540   27.6630   41.7700 H   0  0  0  0  0  0  0  0  0  0  0  0
   38.2990   26.9500   42.9750 N   0  0  0  0  0  0  0  0  0  0  0  0
   38.3880   25.9250   42.8330 H   0  0  0  0  0  0  0  0  0  0  0  0
   37.3950   27.6780   43.6790 C   0  0  0  0  0  0  0  0  0  0  0  0
   36.5680   27.2190   44.2370 H   0  0  0  0  0  0  0  0  0  0  0  0
   37.7110   28.9980   43.5530 N   0  0  0  0  0  0  0  0  0  0  0  0
  1  2  1  0  0  0  0
  2  7  1  0  0  0  0
  2  3  2  0  0  0  0
  3 20  1  0  0  0  0
  4  3  1  0  0  0  0
  4  8  1  0  0  0  0
  5  4  2  0  0  0  0
  6  1  2  0  0  0  0
  6  5  1  0  0  0  0
  9  5  1  0  0  0  0
 10  6  1  0  0  0  0
 11 17  1  0  0  0  0
 11 16  1  0  0  0  0
 12 11  2  0  0  0  0
 13 12  1  0  0  0  0
 13 14  2  0  0  0  0
 14 15  1  0  0  0  0
 15 16  2  0  0  0  0
 15  1  1  0  0  0  0
 18 12  1  0  0  0  0
 19 13  1  0  0  0  0
 20 21  1  0  0  0  0
 21 28  1  0  0  0  0
 22 21  2  0  0  0  0
 22 24  1  0  0  0  0
 23 22  1  0  0  0  0
 24 26  1  0  0  0  0
 25 24  1  0  0  0  0
 26 27  1  0  0  0  0
 28 26  2  0  0  0  0
M  END
>  <minimizedAffinity>
-4.67663383

$$$$
