
 OpenBabel03252500333D

 42 45  0  0  1  0  0  0  0  0999 V2000
   36.6290   29.9820   40.0630 N   0  0  0  0  0  0  0  0  0  0  0  0
   35.5370   29.0990   40.1920 C   0  0  0  0  0  0  0  0  0  0  0  0
   35.4220   28.1400   39.0030 C   0  0  0  0  0  0  0  0  0  0  0  0
   35.0820   29.0010   37.8080 C   0  0  0  0  0  0  0  0  0  0  0  0
   36.2770   29.9170   37.6140 C   0  0  0  0  0  0  0  0  0  0  0  0
   36.6590   30.6760   38.8440 C   0  0  2  0  0  0  0  0  0  0  0  0
   34.6310   29.7730   40.0510 H   0  0  0  0  0  0  0  0  0  0  0  0
   35.3330   28.6550   41.1540 H   0  0  0  0  0  0  0  0  0  0  0  0
   34.6730   27.3650   39.2090 H   0  0  0  0  0  0  0  0  0  0  0  0
   36.4170   27.6730   38.7750 H   0  0  0  0  0  0  0  0  0  0  0  0
   34.1750   29.5680   38.0270 H   0  0  0  0  0  0  0  0  0  0  0  0
   34.9910   28.4060   36.8820 H   0  0  0  0  0  0  0  0  0  0  0  0
   35.9580   30.6660   36.8430 H   0  0  0  0  0  0  0  0  0  0  0  0
   37.1150   29.3400   37.1970 H   0  0  0  0  0  0  0  0  0  0  0  0
   35.8880   31.4930   38.9390 H   0  0  0  0  0  0  0  0  0  0  0  0
   37.9480   31.3520   38.5790 C   0  0  0  0  0  0  0  0  0  0  0  0
   38.4140   32.5430   39.1490 C   0  0  0  0  0  0  0  0  0  0  0  0
   37.8620   33.1430   39.8880 H   0  0  0  0  0  0  0  0  0  0  0  0
   39.6410   32.8470   38.6560 N   0  0  0  0  0  0  0  0  0  0  0  0
   40.2200   33.6860   38.9140 H   0  0  0  0  0  0  0  0  0  0  0  0
   39.9390   31.8610   37.7920 C   0  0  0  0  0  0  0  0  0  0  0  0
   40.8590   31.7710   37.1990 H   0  0  0  0  0  0  0  0  0  0  0  0
   38.9330   30.9700   37.7440 N   0  0  0  0  0  0  0  0  0  0  0  0
   37.8580   29.5530   40.6480 C   0  0  0  0  0  0  0  0  0  0  0  0
   38.7390   29.9820   40.1390 H   0  0  0  0  0  0  0  0  0  0  0  0
   37.9250   28.4340   40.6160 H   0  0  0  0  0  0  0  0  0  0  0  0
   38.1130   28.9650   43.1790 C   0  0  1  0  0  0  0  0  0  0  0  0
   39.1140   29.9120   42.8540 C   0  0  0  0  0  0  0  0  0  0  0  0
   37.8520   29.9980   42.0650 C   0  0  1  0  0  0  0  0  0  0  0  0
   37.5180   29.0860   44.1200 H   0  0  0  0  0  0  0  0  0  0  0  0
   40.0090   29.5810   42.2680 H   0  0  0  0  0  0  0  0  0  0  0  0
   39.3580   30.7590   43.5070 H   0  0  0  0  0  0  0  0  0  0  0  0
   37.0060   30.6380   42.3610 H   0  0  0  0  0  0  0  0  0  0  0  0
   39.3760   26.9290   42.4860 C   0  0  0  0  0  0  0  0  0  0  0  0
   38.1180   27.5320   42.7770 C   0  0  0  0  0  0  0  0  0  0  0  0
   36.9760   26.7800   42.6710 C   0  0  0  0  0  0  0  0  0  0  0  0
   37.1060   25.4740   42.2880 N   0  0  0  0  0  0  0  0  0  0  0  0
   38.3210   24.9160   42.0150 C   0  0  0  0  0  0  0  0  0  0  0  0
   39.4810   25.6360   42.1090 N   0  0  0  0  0  0  0  0  0  0  0  0
   40.2800   27.5140   42.5670 H   0  0  0  0  0  0  0  0  0  0  0  0
   36.0420   27.2400   42.8910 H   0  0  0  0  0  0  0  0  0  0  0  0
   38.3810   23.8710   41.7130 H   0  0  0  0  0  0  0  0  0  0  0  0
  1  2  1  0  0  0  0
  1 24  1  0  0  0  0
  2  8  1  0  0  0  0
  3  9  1  0  0  0  0
  3  2  1  0  0  0  0
  4 11  1  0  0  0  0
  4  3  1  0  0  0  0
  5  4  1  0  0  0  0
  5  6  1  0  0  0  0
  6 15  1  1  0  0  0
  6  1  1  0  0  0  0
  7  2  1  0  0  0  0
 10  3  1  0  0  0  0
 12  4  1  0  0  0  0
 13  5  1  0  0  0  0
 14  5  1  0  0  0  0
 16  6  1  0  0  0  0
 16 17  2  0  0  0  0
 17 18  1  0  0  0  0
 19 20  1  0  0  0  0
 19 17  1  0  0  0  0
 21 19  1  0  0  0  0
 22 21  1  0  0  0  0
 23 21  2  0  0  0  0
 23 16  1  0  0  0  0
 24 29  1  0  0  0  0
 25 24  1  0  0  0  0
 26 24  1  0  0  0  0
 27 30  1  1  0  0  0
 28 27  1  0  0  0  0
 28 32  1  0  0  0  0
 29 33  1  1  0  0  0
 29 28  1  0  0  0  0
 29 27  1  0  0  0  0
 31 28  1  0  0  0  0
 34 40  1  0  0  0  0
 34 35  1  0  0  0  0
 35 27  1  0  0  0  0
 36 35  2  0  0  0  0
 36 41  1  0  0  0  0
 37 36  1  0  0  0  0
 38 39  1  0  0  0  0
 38 37  2  0  0  0  0
 39 34  2  0  0  0  0
 42 38  1  0  0  0  0
M  END
>  <minimizedAffinity>
-5.12001753

$$$$

 OpenBabel03252500333D

 42 45  0  0  1  0  0  0  0  0999 V2000
   37.4640   29.6430   41.8480 N   0  0  0  0  0  0  0  0  0  0  0  0
   38.3770   29.5520   42.9190 C   0  0  0  0  0  0  0  0  0  0  0  0
   39.1650   28.2380   42.9010 C   0  0  0  0  0  0  0  0  0  0  0  0
   38.1520   27.1460   43.1630 C   0  0  0  0  0  0  0  0  0  0  0  0
   37.1950   27.1860   41.9860 C   0  0  0  0  0  0  0  0  0  0  0  0
   36.6080   28.5390   41.7350 C   0  0  2  0  0  0  0  0  0  0  0  0
   37.7080   29.4230   43.8300 H   0  0  0  0  0  0  0  0  0  0  0  0
   38.9540   30.4220   43.1920 H   0  0  0  0  0  0  0  0  0  0  0  0
   39.9740   28.2680   43.6400 H   0  0  0  0  0  0  0  0  0  0  0  0
   39.5760   28.0390   41.8750 H   0  0  0  0  0  0  0  0  0  0  0  0
   37.6390   27.3580   44.1030 H   0  0  0  0  0  0  0  0  0  0  0  0
   38.6150   26.1430   43.1550 H   0  0  0  0  0  0  0  0  0  0  0  0
   36.3530   26.4990   42.2600 H   0  0  0  0  0  0  0  0  0  0  0  0
   37.6930   26.7720   41.0970 H   0  0  0  0  0  0  0  0  0  0  0  0
   35.8260   28.6740   42.5370 H   0  0  0  0  0  0  0  0  0  0  0  0
   35.8760   28.4840   40.4500 C   0  0  0  0  0  0  0  0  0  0  0  0
   36.1420   27.6500   39.3580 C   0  0  0  0  0  0  0  0  0  0  0  0
   36.9540   26.9080   39.3170 H   0  0  0  0  0  0  0  0  0  0  0  0
   35.2550   27.8910   38.3590 N   0  0  0  0  0  0  0  0  0  0  0  0
   35.2270   27.4060   37.4280 H   0  0  0  0  0  0  0  0  0  0  0  0
   34.4460   28.8610   38.8210 C   0  0  0  0  0  0  0  0  0  0  0  0
   33.6020   29.3150   38.2840 H   0  0  0  0  0  0  0  0  0  0  0  0
   34.8140   29.2160   40.0650 N   0  0  0  0  0  0  0  0  0  0  0  0
   37.9470   30.2720   40.6610 C   0  0  0  0  0  0  0  0  0  0  0  0
   37.5990   29.7640   39.7450 H   0  0  0  0  0  0  0  0  0  0  0  0
   39.0680   30.2900   40.6680 H   0  0  0  0  0  0  0  0  0  0  0  0
   38.2530   32.7660   39.9490 C   0  0  1  0  0  0  0  0  0  0  0  0
   37.0500   32.2970   39.3700 C   0  0  0  0  0  0  0  0  0  0  0  0
   37.4400   31.6680   40.6640 C   0  0  1  0  0  0  0  0  0  0  0  0
   38.2780   33.7700   40.4440 H   0  0  0  0  0  0  0  0  0  0  0  0
   37.1000   31.6130   38.4850 H   0  0  0  0  0  0  0  0  0  0  0  0
   36.1300   32.8950   39.3570 H   0  0  0  0  0  0  0  0  0  0  0  0
   37.1010   32.0520   41.6390 H   0  0  0  0  0  0  0  0  0  0  0  0
   39.7980   32.0040   38.1450 C   0  0  0  0  0  0  0  0  0  0  0  0
   39.6250   32.3990   39.5030 C   0  0  0  0  0  0  0  0  0  0  0  0
   40.7150   32.4210   40.3360 C   0  0  0  0  0  0  0  0  0  0  0  0
   41.9250   32.0590   39.8130 N   0  0  0  0  0  0  0  0  0  0  0  0
   42.0680   31.6850   38.5080 C   0  0  0  0  0  0  0  0  0  0  0  0
   41.0040   31.6500   37.6480 N   0  0  0  0  0  0  0  0  0  0  0  0
   38.9460   31.9840   37.4820 H   0  0  0  0  0  0  0  0  0  0  0  0
   40.5750   32.7170   41.3480 H   0  0  0  0  0  0  0  0  0  0  0  0
   43.0500   31.4030   38.1300 H   0  0  0  0  0  0  0  0  0  0  0  0
  1  2  1  0  0  0  0
  2  8  1  0  0  0  0
  2  7  1  0  0  0  0
  3  2  1  0  0  0  0
  3  4  1  0  0  0  0
  3  9  1  0  0  0  0
  4 11  1  0  0  0  0
  5 13  1  0  0  0  0
  5  4  1  0  0  0  0
  6  1  1  0  0  0  0
  6  5  1  0  0  0  0
  6 15  1  1  0  0  0
 10  3  1  0  0  0  0
 12  4  1  0  0  0  0
 14  5  1  0  0  0  0
 16  6  1  0  0  0  0
 17 16  2  0  0  0  0
 18 17  1  0  0  0  0
 19 21  1  0  0  0  0
 19 17  1  0  0  0  0
 20 19  1  0  0  0  0
 21 23  2  0  0  0  0
 22 21  1  0  0  0  0
 23 16  1  0  0  0  0
 24 29  1  0  0  0  0
 24 26  1  0  0  0  0
 24  1  1  0  0  0  0
 25 24  1  0  0  0  0
 27 30  1  1  0  0  0
 27 29  1  0  0  0  0
 28 27  1  0  0  0  0
 28 29  1  0  0  0  0
 29 33  1  1  0  0  0
 31 28  1  0  0  0  0
 32 28  1  0  0  0  0
 34 35  1  0  0  0  0
 35 27  1  0  0  0  0
 35 36  2  0  0  0  0
 36 41  1  0  0  0  0
 37 36  1  0  0  0  0
 38 37  2  0  0  0  0
 39 34  2  0  0  0  0
 39 38  1  0  0  0  0
 40 34  1  0  0  0  0
 42 38  1  0  0  0  0
M  END
>  <minimizedAffinity>
-4.98815966

$$$$

 OpenBabel03252500333D

 42 45  0  0  1  0  0  0  0  0999 V2000
   37.8900   28.6830   42.4400 N   0  0  0  0  0  0  0  0  0  0  0  0
   36.6980   27.9380   42.3260 C   0  0  0  0  0  0  0  0  0  0  0  0
   36.1190   27.9790   40.9080 C   0  0  0  0  0  0  0  0  0  0  0  0
   35.7010   29.4130   40.6750 C   0  0  0  0  0  0  0  0  0  0  0  0
   36.9810   30.2250   40.7290 C   0  0  0  0  0  0  0  0  0  0  0  0
   37.7830   30.0010   41.9720 C   0  0  2  0  0  0  0  0  0  0  0  0
   35.9430   28.5510   42.9160 H   0  0  0  0  0  0  0  0  0  0  0  0
   36.6310   26.9780   42.8160 H   0  0  0  0  0  0  0  0  0  0  0  0
   35.2930   27.2630   40.8130 H   0  0  0  0  0  0  0  0  0  0  0  0
   36.9170   27.7620   40.1500 H   0  0  0  0  0  0  0  0  0  0  0  0
   35.0040   29.7110   41.4610 H   0  0  0  0  0  0  0  0  0  0  0  0
   35.2790   29.5610   39.6640 H   0  0  0  0  0  0  0  0  0  0  0  0
   36.6570   31.2980   40.7270 H   0  0  0  0  0  0  0  0  0  0  0  0
   37.5650   30.0480   39.8140 H   0  0  0  0  0  0  0  0  0  0  0  0
   37.2400   30.5700   42.7800 H   0  0  0  0  0  0  0  0  0  0  0  0
   39.0880   30.6760   41.7980 C   0  0  0  0  0  0  0  0  0  0  0  0
   39.9590   31.1100   42.8040 C   0  0  0  0  0  0  0  0  0  0  0  0
   39.7740   31.0020   43.8840 H   0  0  0  0  0  0  0  0  0  0  0  0
   41.0590   31.6850   42.2540 N   0  0  0  0  0  0  0  0  0  0  0  0
   41.8700   32.0950   42.7810 H   0  0  0  0  0  0  0  0  0  0  0  0
   40.8800   31.6090   40.9240 C   0  0  0  0  0  0  0  0  0  0  0  0
   41.5700   31.9750   40.1520 H   0  0  0  0  0  0  0  0  0  0  0  0
   39.7070   31.0090   40.6490 N   0  0  0  0  0  0  0  0  0  0  0  0
   39.1040   27.9650   42.2220 C   0  0  0  0  0  0  0  0  0  0  0  0
   39.9380   28.6280   41.9320 H   0  0  0  0  0  0  0  0  0  0  0  0
   38.9520   27.1930   41.4240 H   0  0  0  0  0  0  0  0  0  0  0  0
   39.6640   25.7570   43.4980 C   0  0  1  0  0  0  0  0  0  0  0  0
   40.7770   26.6220   43.6260 C   0  0  0  0  0  0  0  0  0  0  0  0
   39.4470   27.2830   43.4960 C   0  0  1  0  0  0  0  0  0  0  0  0
   39.2870   25.2010   44.3940 H   0  0  0  0  0  0  0  0  0  0  0  0
   41.4580   26.7680   42.7480 H   0  0  0  0  0  0  0  0  0  0  0  0
   41.3160   26.7540   44.5720 H   0  0  0  0  0  0  0  0  0  0  0  0
   38.8310   27.5570   44.3670 H   0  0  0  0  0  0  0  0  0  0  0  0
   37.9900   24.4180   42.2230 C   0  0  0  0  0  0  0  0  0  0  0  0
   39.2790   25.0240   42.2610 C   0  0  0  0  0  0  0  0  0  0  0  0
   40.1060   24.9050   41.1720 C   0  0  0  0  0  0  0  0  0  0  0  0
   39.6430   24.2030   40.0950 N   0  0  0  0  0  0  0  0  0  0  0  0
   38.4030   23.6320   40.0790 C   0  0  0  0  0  0  0  0  0  0  0  0
   37.5520   23.7280   41.1470 N   0  0  0  0  0  0  0  0  0  0  0  0
   37.3330   24.5070   43.0760 H   0  0  0  0  0  0  0  0  0  0  0  0
   41.0650   25.3610   41.2110 H   0  0  0  0  0  0  0  0  0  0  0  0
   38.0720   23.0810   39.2000 H   0  0  0  0  0  0  0  0  0  0  0  0
  2  1  1  0  0  0  0
  2  8  1  0  0  0  0
  2  7  1  0  0  0  0
  3  2  1  0  0  0  0
  4  5  1  0  0  0  0
  4  3  1  0  0  0  0
  4 11  1  0  0  0  0
  5  6  1  0  0  0  0
  6  1  1  0  0  0  0
  6 15  1  1  0  0  0
  9  3  1  0  0  0  0
 10  3  1  0  0  0  0
 12  4  1  0  0  0  0
 13  5  1  0  0  0  0
 14  5  1  0  0  0  0
 16  6  1  0  0  0  0
 16 17  2  0  0  0  0
 17 18  1  0  0  0  0
 19 20  1  0  0  0  0
 19 17  1  0  0  0  0
 21 19  1  0  0  0  0
 22 21  1  0  0  0  0
 23 21  2  0  0  0  0
 23 16  1  0  0  0  0
 24  1  1  0  0  0  0
 24 29  1  0  0  0  0
 25 24  1  0  0  0  0
 26 24  1  0  0  0  0
 27 28  1  0  0  0  0
 27 30  1  1  0  0  0
 28 32  1  0  0  0  0
 29 27  1  0  0  0  0
 29 28  1  0  0  0  0
 29 33  1  1  0  0  0
 31 28  1  0  0  0  0
 34 35  1  0  0  0  0
 34 40  1  0  0  0  0
 35 27  1  0  0  0  0
 36 41  1  0  0  0  0
 36 35  2  0  0  0  0
 37 36  1  0  0  0  0
 38 37  2  0  0  0  0
 38 39  1  0  0  0  0
 39 34  2  0  0  0  0
 42 38  1  0  0  0  0
M  END
>  <minimizedAffinity>
-4.95533752

$$$$

 OpenBabel03252500333D

 42 45  0  0  1  0  0  0  0  0999 V2000
   36.2640   29.7430   40.6130 N   0  0  0  0  0  0  0  0  0  0  0  0
   35.1520   28.9650   40.2300 C   0  0  0  0  0  0  0  0  0  0  0  0
   35.3390   28.3220   38.8530 C   0  0  0  0  0  0  0  0  0  0  0  0
   35.3680   29.4650   37.8640 C   0  0  0  0  0  0  0  0  0  0  0  0
   36.5980   30.2800   38.2200 C   0  0  0  0  0  0  0  0  0  0  0  0
   36.6500   30.6930   39.6560 C   0  0  2  0  0  0  0  0  0  0  0  0
   34.3410   29.7380   40.0310 H   0  0  0  0  0  0  0  0  0  0  0  0
   34.6760   28.3330   40.9650 H   0  0  0  0  0  0  0  0  0  0  0  0
   34.5380   27.5980   38.6580 H   0  0  0  0  0  0  0  0  0  0  0  0
   36.3430   27.8250   38.7830 H   0  0  0  0  0  0  0  0  0  0  0  0
   34.4540   30.0510   37.9730 H   0  0  0  0  0  0  0  0  0  0  0  0
   35.5170   29.1110   36.8280 H   0  0  0  0  0  0  0  0  0  0  0  0
   36.5280   31.2140   37.6040 H   0  0  0  0  0  0  0  0  0  0  0  0
   37.5000   29.7360   37.9050 H   0  0  0  0  0  0  0  0  0  0  0  0
   35.9080   31.5380   39.7470 H   0  0  0  0  0  0  0  0  0  0  0  0
   37.9820   31.2840   39.9110 C   0  0  0  0  0  0  0  0  0  0  0  0
   39.1810   30.9860   39.2530 C   0  0  0  0  0  0  0  0  0  0  0  0
   39.2850   30.2520   38.4400 H   0  0  0  0  0  0  0  0  0  0  0  0
   40.1930   31.7320   39.7650 N   0  0  0  0  0  0  0  0  0  0  0  0
   41.1960   31.7080   39.4550 H   0  0  0  0  0  0  0  0  0  0  0  0
   39.6340   32.4860   40.7280 C   0  0  0  0  0  0  0  0  0  0  0  0
   40.1510   33.2180   41.3640 H   0  0  0  0  0  0  0  0  0  0  0  0
   38.3180   32.2210   40.8170 N   0  0  0  0  0  0  0  0  0  0  0  0
   37.2700   29.0730   41.3710 C   0  0  0  0  0  0  0  0  0  0  0  0
   38.0430   29.7650   41.7490 H   0  0  0  0  0  0  0  0  0  0  0  0
   37.7580   28.2840   40.7430 H   0  0  0  0  0  0  0  0  0  0  0  0
   36.8950   26.9450   42.8380 C   0  0  1  0  0  0  0  0  0  0  0  0
   37.4200   27.9580   43.6750 C   0  0  0  0  0  0  0  0  0  0  0  0
   36.5950   28.4250   42.5250 C   0  0  1  0  0  0  0  0  0  0  0  0
   36.0310   26.3250   43.1900 H   0  0  0  0  0  0  0  0  0  0  0  0
   38.5080   28.2150   43.6040 H   0  0  0  0  0  0  0  0  0  0  0  0
   37.0330   28.1490   44.6840 H   0  0  0  0  0  0  0  0  0  0  0  0
   35.5090   28.5930   42.6000 H   0  0  0  0  0  0  0  0  0  0  0  0
   39.0750   26.0840   41.9860 C   0  0  0  0  0  0  0  0  0  0  0  0
   37.6650   26.1860   41.8150 C   0  0  0  0  0  0  0  0  0  0  0  0
   37.0790   25.5940   40.7240 C   0  0  0  0  0  0  0  0  0  0  0  0
   37.8910   24.9270   39.8490 N   0  0  0  0  0  0  0  0  0  0  0  0
   39.2400   24.8400   40.0330 C   0  0  0  0  0  0  0  0  0  0  0  0
   39.8590   25.4190   41.1090 N   0  0  0  0  0  0  0  0  0  0  0  0
   39.5440   26.5470   42.8420 H   0  0  0  0  0  0  0  0  0  0  0  0
   36.0260   25.6770   40.6050 H   0  0  0  0  0  0  0  0  0  0  0  0
   39.8520   24.2990   39.3130 H   0  0  0  0  0  0  0  0  0  0  0  0
  1 24  1  0  0  0  0
  2  1  1  0  0  0  0
  2  8  1  0  0  0  0
  3  2  1  0  0  0  0
  4 11  1  0  0  0  0
  4  5  1  0  0  0  0
  4  3  1  0  0  0  0
  5  6  1  0  0  0  0
  6 15  1  1  0  0  0
  6 16  1  0  0  0  0
  6  1  1  0  0  0  0
  7  2  1  0  0  0  0
  9  3  1  0  0  0  0
 10  3  1  0  0  0  0
 12  4  1  0  0  0  0
 13  5  1  0  0  0  0
 14  5  1  0  0  0  0
 16 23  1  0  0  0  0
 17 19  1  0  0  0  0
 17 16  2  0  0  0  0
 18 17  1  0  0  0  0
 19 21  1  0  0  0  0
 20 19  1  0  0  0  0
 21 23  2  0  0  0  0
 21 22  1  0  0  0  0
 24 25  1  0  0  0  0
 24 29  1  0  0  0  0
 26 24  1  0  0  0  0
 27 30  1  1  0  0  0
 27 28  1  0  0  0  0
 28 32  1  0  0  0  0
 29 33  1  1  0  0  0
 29 27  1  0  0  0  0
 29 28  1  0  0  0  0
 31 28  1  0  0  0  0
 34 40  1  0  0  0  0
 35 34  1  0  0  0  0
 35 27  1  0  0  0  0
 36 35  2  0  0  0  0
 37 38  2  0  0  0  0
 37 36  1  0  0  0  0
 38 39  1  0  0  0  0
 39 34  2  0  0  0  0
 41 36  1  0  0  0  0
 42 38  1  0  0  0  0
M  END
>  <minimizedAffinity>
-4.94068813

$$$$

 OpenBabel03252500333D

 42 45  0  0  1  0  0  0  0  0999 V2000
   37.0240   27.2120   42.1770 N   0  0  0  0  0  0  0  0  0  0  0  0
   37.4220   28.1730   43.1300 C   0  0  0  0  0  0  0  0  0  0  0  0
   38.9420   28.3590   43.1680 C   0  0  0  0  0  0  0  0  0  0  0  0
   39.5050   27.0530   43.6800 C   0  0  0  0  0  0  0  0  0  0  0  0
   39.1420   26.0150   42.6340 C   0  0  0  0  0  0  0  0  0  0  0  0
   37.6840   25.9810   42.3020 C   0  0  2  0  0  0  0  0  0  0  0  0
   37.2130   27.6640   44.1250 H   0  0  0  0  0  0  0  0  0  0  0  0
   36.8510   29.0840   43.2250 H   0  0  0  0  0  0  0  0  0  0  0  0
   39.2050   29.2220   43.7920 H   0  0  0  0  0  0  0  0  0  0  0  0
   39.3500   28.4870   42.1290 H   0  0  0  0  0  0  0  0  0  0  0  0
   39.0490   26.8250   44.6450 H   0  0  0  0  0  0  0  0  0  0  0  0
   40.6090   27.0710   43.7320 H   0  0  0  0  0  0  0  0  0  0  0  0
   39.4060   25.0250   43.0890 H   0  0  0  0  0  0  0  0  0  0  0  0
   39.7730   26.1560   41.7450 H   0  0  0  0  0  0  0  0  0  0  0  0
   37.1950   25.4580   43.1730 H   0  0  0  0  0  0  0  0  0  0  0  0
   37.5060   25.0920   41.1320 C   0  0  0  0  0  0  0  0  0  0  0  0
   36.4660   24.1810   40.9120 C   0  0  0  0  0  0  0  0  0  0  0  0
   35.6270   24.0060   41.6020 H   0  0  0  0  0  0  0  0  0  0  0  0
   36.6470   23.5450   39.7260 N   0  0  0  0  0  0  0  0  0  0  0  0
   36.0150   22.8130   39.3150 H   0  0  0  0  0  0  0  0  0  0  0  0
   37.7810   24.0530   39.2120 C   0  0  0  0  0  0  0  0  0  0  0  0
   38.2440   23.7750   38.2550 H   0  0  0  0  0  0  0  0  0  0  0  0
   38.2950   24.9730   40.0480 N   0  0  0  0  0  0  0  0  0  0  0  0
   36.7170   27.7070   40.8740 C   0  0  0  0  0  0  0  0  0  0  0  0
   36.3660   26.9110   40.1940 H   0  0  0  0  0  0  0  0  0  0  0  0
   37.6210   28.1970   40.4300 H   0  0  0  0  0  0  0  0  0  0  0  0
   35.7990   30.0930   40.3450 C   0  0  1  0  0  0  0  0  0  0  0  0
   34.8780   29.1520   39.8250 C   0  0  0  0  0  0  0  0  0  0  0  0
   35.6420   28.7210   41.0290 C   0  0  1  0  0  0  0  0  0  0  0  0
   35.4240   30.9810   40.9160 H   0  0  0  0  0  0  0  0  0  0  0  0
   35.1350   28.5990   38.8860 H   0  0  0  0  0  0  0  0  0  0  0  0
   33.7920   29.2700   39.9320 H   0  0  0  0  0  0  0  0  0  0  0  0
   35.2730   28.8740   42.0550 H   0  0  0  0  0  0  0  0  0  0  0  0
   38.1060   31.0030   40.6180 C   0  0  0  0  0  0  0  0  0  0  0  0
   37.1340   30.4050   39.7650 C   0  0  0  0  0  0  0  0  0  0  0  0
   37.4620   30.1470   38.4570 C   0  0  0  0  0  0  0  0  0  0  0  0
   38.7190   30.4810   38.0380 N   0  0  0  0  0  0  0  0  0  0  0  0
   39.6340   31.0530   38.8730 C   0  0  0  0  0  0  0  0  0  0  0  0
   39.3430   31.3260   40.1820 N   0  0  0  0  0  0  0  0  0  0  0  0
   37.8560   31.2090   41.6490 H   0  0  0  0  0  0  0  0  0  0  0  0
   36.7300   29.7000   37.8290 H   0  0  0  0  0  0  0  0  0  0  0  0
   40.6260   31.3040   38.4990 H   0  0  0  0  0  0  0  0  0  0  0  0
  1  6  1  0  0  0  0
  1  2  1  0  0  0  0
  2  3  1  0  0  0  0
  2  8  1  0  0  0  0
  2  7  1  0  0  0  0
  3  4  1  0  0  0  0
  3  9  1  0  0  0  0
  4 12  1  0  0  0  0
  4 11  1  0  0  0  0
  5 13  1  0  0  0  0
  5  4  1  0  0  0  0
  6  5  1  0  0  0  0
  6 15  1  1  0  0  0
 10  3  1  0  0  0  0
 14  5  1  0  0  0  0
 16  6  1  0  0  0  0
 17 16  2  0  0  0  0
 17 18  1  0  0  0  0
 19 17  1  0  0  0  0
 20 19  1  0  0  0  0
 21 19  1  0  0  0  0
 21 23  2  0  0  0  0
 22 21  1  0  0  0  0
 23 16  1  0  0  0  0
 24 29  1  0  0  0  0
 24  1  1  0  0  0  0
 25 24  1  0  0  0  0
 26 24  1  0  0  0  0
 27 30  1  1  0  0  0
 27 29  1  0  0  0  0
 28 32  1  0  0  0  0
 28 27  1  0  0  0  0
 28 29  1  0  0  0  0
 29 33  1  1  0  0  0
 31 28  1  0  0  0  0
 34 40  1  0  0  0  0
 35 27  1  0  0  0  0
 35 34  2  0  0  0  0
 36 35  1  0  0  0  0
 37 36  2  0  0  0  0
 37 38  1  0  0  0  0
 38 39  2  0  0  0  0
 39 34  1  0  0  0  0
 41 36  1  0  0  0  0
 42 38  1  0  0  0  0
M  END
>  <minimizedAffinity>
-4.93328762

$$$$

 OpenBabel03252500333D

 42 45  0  0  1  0  0  0  0  0999 V2000
   37.8610   28.5840   39.7520 N   0  0  0  0  0  0  0  0  0  0  0  0
   38.1420   27.3360   39.1570 C   0  0  0  0  0  0  0  0  0  0  0  0
   39.4600   27.3480   38.3760 C   0  0  0  0  0  0  0  0  0  0  0  0
   39.2430   28.2890   37.2140 C   0  0  0  0  0  0  0  0  0  0  0  0
   39.0030   29.6530   37.8340 C   0  0  0  0  0  0  0  0  0  0  0  0
   37.9150   29.6640   38.8600 C   0  0  2  0  0  0  0  0  0  0  0  0
   37.3680   27.2560   38.3280 H   0  0  0  0  0  0  0  0  0  0  0  0
   37.9560   26.4330   39.7190 H   0  0  0  0  0  0  0  0  0  0  0  0
   39.7300   26.3300   38.0690 H   0  0  0  0  0  0  0  0  0  0  0  0
   40.2800   27.8020   38.9940 H   0  0  0  0  0  0  0  0  0  0  0  0
   38.3770   27.9520   36.6420 H   0  0  0  0  0  0  0  0  0  0  0  0
   40.1480   28.3860   36.5870 H   0  0  0  0  0  0  0  0  0  0  0  0
   38.6750   30.3140   36.9890 H   0  0  0  0  0  0  0  0  0  0  0  0
   39.9520   30.0500   38.2220 H   0  0  0  0  0  0  0  0  0  0  0  0
   36.9540   29.6220   38.2710 H   0  0  0  0  0  0  0  0  0  0  0  0
   37.9330   30.9840   39.5280 C   0  0  0  0  0  0  0  0  0  0  0  0
   36.8300   31.7460   39.9290 C   0  0  0  0  0  0  0  0  0  0  0  0
   35.7790   31.4510   39.7930 H   0  0  0  0  0  0  0  0  0  0  0  0
   37.2470   32.9020   40.5080 N   0  0  0  0  0  0  0  0  0  0  0  0
   36.6280   33.6560   40.8980 H   0  0  0  0  0  0  0  0  0  0  0  0
   38.5900   32.8610   40.4700 C   0  0  0  0  0  0  0  0  0  0  0  0
   39.2760   33.6310   40.8500 H   0  0  0  0  0  0  0  0  0  0  0  0
   39.0020   31.7210   39.8870 N   0  0  0  0  0  0  0  0  0  0  0  0
   38.3290   28.7630   41.0890 C   0  0  0  0  0  0  0  0  0  0  0  0
   38.6700   29.7950   41.2800 H   0  0  0  0  0  0  0  0  0  0  0  0
   39.1720   28.0530   41.2950 H   0  0  0  0  0  0  0  0  0  0  0  0
   37.3890   27.3880   43.0990 C   0  0  1  0  0  0  0  0  0  0  0  0
   37.3320   28.7580   43.4500 C   0  0  0  0  0  0  0  0  0  0  0  0
   37.1970   28.4500   41.9980 C   0  0  1  0  0  0  0  0  0  0  0  0
   36.5120   26.7230   43.3090 H   0  0  0  0  0  0  0  0  0  0  0  0
   38.2770   29.2890   43.7290 H   0  0  0  0  0  0  0  0  0  0  0  0
   36.4640   29.2010   43.9540 H   0  0  0  0  0  0  0  0  0  0  0  0
   36.2230   28.2880   41.5110 H   0  0  0  0  0  0  0  0  0  0  0  0
   38.5900   25.3720   42.2520 C   0  0  0  0  0  0  0  0  0  0  0  0
   38.6280   26.5660   43.0290 C   0  0  0  0  0  0  0  0  0  0  0  0
   39.7880   26.9030   43.6790 C   0  0  0  0  0  0  0  0  0  0  0  0
   40.8610   26.0660   43.5440 N   0  0  0  0  0  0  0  0  0  0  0  0
   40.8030   24.9280   42.7930 C   0  0  0  0  0  0  0  0  0  0  0  0
   39.6630   24.5590   42.1310 N   0  0  0  0  0  0  0  0  0  0  0  0
   37.6810   25.1000   41.7370 H   0  0  0  0  0  0  0  0  0  0  0  0
   39.8060   27.7950   44.2570 H   0  0  0  0  0  0  0  0  0  0  0  0
   41.6800   24.2890   42.7100 H   0  0  0  0  0  0  0  0  0  0  0  0
  1 24  1  0  0  0  0
  2  8  1  0  0  0  0
  2  1  1  0  0  0  0
  3 10  1  0  0  0  0
  3  2  1  0  0  0  0
  4  5  1  0  0  0  0
  4  3  1  0  0  0  0
  5 14  1  0  0  0  0
  5  6  1  0  0  0  0
  6 15  1  6  0  0  0
  6 16  1  0  0  0  0
  6  1  1  0  0  0  0
  7  2  1  0  0  0  0
  9  3  1  0  0  0  0
 11  4  1  0  0  0  0
 12  4  1  0  0  0  0
 13  5  1  0  0  0  0
 16 23  1  0  0  0  0
 16 17  2  0  0  0  0
 17 19  1  0  0  0  0
 18 17  1  0  0  0  0
 19 20  1  0  0  0  0
 21 19  1  0  0  0  0
 21 22  1  0  0  0  0
 23 21  2  0  0  0  0
 24 25  1  0  0  0  0
 24 26  1  0  0  0  0
 24 29  1  0  0  0  0
 27 30  1  1  0  0  0
 27 28  1  0  0  0  0
 28 31  1  0  0  0  0
 28 32  1  0  0  0  0
 29 33  1  6  0  0  0
 29 27  1  0  0  0  0
 29 28  1  0  0  0  0
 34 35  1  0  0  0  0
 35 27  1  0  0  0  0
 35 36  2  0  0  0  0
 36 41  1  0  0  0  0
 37 36  1  0  0  0  0
 38 37  2  0  0  0  0
 39 34  2  0  0  0  0
 39 38  1  0  0  0  0
 40 34  1  0  0  0  0
 42 38  1  0  0  0  0
M  END
>  <minimizedAffinity>
-4.92529535

$$$$

 OpenBabel03252500333D

 42 45  0  0  1  0  0  0  0  0999 V2000
   36.9470   27.9290   39.2000 N   0  0  0  0  0  0  0  0  0  0  0  0
   36.3880   27.9510   37.9050 C   0  0  0  0  0  0  0  0  0  0  0  0
   35.5070   29.1830   37.6730 C   0  0  0  0  0  0  0  0  0  0  0  0
   34.3240   29.0250   38.6000 C   0  0  0  0  0  0  0  0  0  0  0  0
   34.8990   29.0630   40.0040 C   0  0  0  0  0  0  0  0  0  0  0  0
   36.0050   28.0820   40.2280 C   0  0  2  0  0  0  0  0  0  0  0  0
   35.6260   27.1070   37.9290 H   0  0  0  0  0  0  0  0  0  0  0  0
   37.0030   27.6680   37.0640 H   0  0  0  0  0  0  0  0  0  0  0  0
   35.2250   29.2560   36.6150 H   0  0  0  0  0  0  0  0  0  0  0  0
   36.0380   30.1150   38.0030 H   0  0  0  0  0  0  0  0  0  0  0  0
   33.8370   28.0700   38.3940 H   0  0  0  0  0  0  0  0  0  0  0  0
   33.6240   29.8760   38.5260 H   0  0  0  0  0  0  0  0  0  0  0  0
   34.0540   28.7770   40.6830 H   0  0  0  0  0  0  0  0  0  0  0  0
   35.1940   30.0940   40.2500 H   0  0  0  0  0  0  0  0  0  0  0  0
   35.4960   27.0810   40.3280 H   0  0  0  0  0  0  0  0  0  0  0  0
   36.6100   28.3730   41.5470 C   0  0  0  0  0  0  0  0  0  0  0  0
   36.9550   29.6270   42.0630 C   0  0  0  0  0  0  0  0  0  0  0  0
   36.8180   30.5830   41.5360 H   0  0  0  0  0  0  0  0  0  0  0  0
   37.4860   29.4910   43.3050 N   0  0  0  0  0  0  0  0  0  0  0  0
   37.8290   30.2710   43.9200 H   0  0  0  0  0  0  0  0  0  0  0  0
   37.4700   28.1710   43.5630 C   0  0  0  0  0  0  0  0  0  0  0  0
   37.8240   27.6820   44.4800 H   0  0  0  0  0  0  0  0  0  0  0  0
   36.9490   27.5030   42.5170 N   0  0  0  0  0  0  0  0  0  0  0  0
   38.2330   28.5310   39.3410 C   0  0  0  0  0  0  0  0  0  0  0  0
   38.9640   27.8540   39.8150 H   0  0  0  0  0  0  0  0  0  0  0  0
   38.1500   29.4680   39.9500 H   0  0  0  0  0  0  0  0  0  0  0  0
   39.1350   30.3310   37.6780 C   0  0  1  0  0  0  0  0  0  0  0  0
   40.1200   29.3220   37.7960 C   0  0  0  0  0  0  0  0  0  0  0  0
   38.7080   28.8800   37.9770 C   0  0  1  0  0  0  0  0  0  0  0  0
   38.8670   30.7310   36.6670 H   0  0  0  0  0  0  0  0  0  0  0  0
   40.7460   29.2770   38.7240 H   0  0  0  0  0  0  0  0  0  0  0  0
   40.6650   28.9260   36.9300 H   0  0  0  0  0  0  0  0  0  0  0  0
   38.0880   28.5110   37.1460 H   0  0  0  0  0  0  0  0  0  0  0  0
   39.8380   31.6950   39.6450 C   0  0  0  0  0  0  0  0  0  0  0  0
   38.8150   31.3510   38.7140 C   0  0  0  0  0  0  0  0  0  0  0  0
   37.5900   31.9610   38.8120 C   0  0  0  0  0  0  0  0  0  0  0  0
   37.4140   32.8800   39.8090 N   0  0  0  0  0  0  0  0  0  0  0  0
   38.4080   33.1950   40.6890 C   0  0  0  0  0  0  0  0  0  0  0  0
   39.6420   32.6060   40.6230 N   0  0  0  0  0  0  0  0  0  0  0  0
   40.8050   31.2190   39.5740 H   0  0  0  0  0  0  0  0  0  0  0  0
   36.8340   31.6970   38.1130 H   0  0  0  0  0  0  0  0  0  0  0  0
   38.2270   33.9330   41.4690 H   0  0  0  0  0  0  0  0  0  0  0  0
  1 24  1  0  0  0  0
  1  6  1  0  0  0  0
  2  7  1  0  0  0  0
  2  1  1  0  0  0  0
  3  2  1  0  0  0  0
  3 10  1  0  0  0  0
  3  4  1  0  0  0  0
  4  5  1  0  0  0  0
  5  6  1  0  0  0  0
  5 14  1  0  0  0  0
  5 13  1  0  0  0  0
  6 15  1  1  0  0  0
  6 16  1  0  0  0  0
  8  2  1  0  0  0  0
  9  3  1  0  0  0  0
 11  4  1  0  0  0  0
 12  4  1  0  0  0  0
 16 17  2  0  0  0  0
 16 23  1  0  0  0  0
 17 19  1  0  0  0  0
 18 17  1  0  0  0  0
 19 21  1  0  0  0  0
 19 20  1  0  0  0  0
 21 22  1  0  0  0  0
 23 21  2  0  0  0  0
 24 25  1  0  0  0  0
 24 26  1  0  0  0  0
 27 30  1  6  0  0  0
 27 28  1  0  0  0  0
 27 29  1  0  0  0  0
 27 35  1  0  0  0  0
 28 29  1  0  0  0  0
 28 31  1  0  0  0  0
 29 33  1  6  0  0  0
 29 24  1  0  0  0  0
 32 28  1  0  0  0  0
 34 39  1  0  0  0  0
 35 36  1  0  0  0  0
 35 34  2  0  0  0  0
 36 37  2  0  0  0  0
 37 38  1  0  0  0  0
 38 42  1  0  0  0  0
 39 38  2  0  0  0  0
 40 34  1  0  0  0  0
 41 36  1  0  0  0  0
M  END
>  <minimizedAffinity>
-4.91496181

$$$$

 OpenBabel03252500333D

 42 45  0  0  1  0  0  0  0  0999 V2000
   37.7020   29.8330   41.6750 N   0  0  0  0  0  0  0  0  0  0  0  0
   36.8440   28.7580   41.9860 C   0  0  0  0  0  0  0  0  0  0  0  0
   36.1160   28.2190   40.7500 C   0  0  0  0  0  0  0  0  0  0  0  0
   35.1950   29.3280   40.2960 C   0  0  0  0  0  0  0  0  0  0  0  0
   36.1050   30.4750   39.8960 C   0  0  0  0  0  0  0  0  0  0  0  0
   37.0820   30.8670   40.9590 C   0  0  2  0  0  0  0  0  0  0  0  0
   36.0010   29.2500   42.5700 H   0  0  0  0  0  0  0  0  0  0  0  0
   37.1800   28.0020   42.6800 H   0  0  0  0  0  0  0  0  0  0  0  0
   35.5900   27.2880   40.9930 H   0  0  0  0  0  0  0  0  0  0  0  0
   36.8400   28.0530   39.9080 H   0  0  0  0  0  0  0  0  0  0  0  0
   34.5420   29.6070   41.1250 H   0  0  0  0  0  0  0  0  0  0  0  0
   34.6270   29.0500   39.3910 H   0  0  0  0  0  0  0  0  0  0  0  0
   35.4270   31.3510   39.7230 H   0  0  0  0  0  0  0  0  0  0  0  0
   36.5960   30.2360   38.9410 H   0  0  0  0  0  0  0  0  0  0  0  0
   36.4780   31.4450   41.7160 H   0  0  0  0  0  0  0  0  0  0  0  0
   38.0340   31.8320   40.3670 C   0  0  0  0  0  0  0  0  0  0  0  0
   38.3670   31.9730   39.0140 C   0  0  0  0  0  0  0  0  0  0  0  0
   37.9510   31.3640   38.1980 H   0  0  0  0  0  0  0  0  0  0  0  0
   39.2790   32.9670   38.8590 N   0  0  0  0  0  0  0  0  0  0  0  0
   39.7010   33.2820   37.9500 H   0  0  0  0  0  0  0  0  0  0  0  0
   39.5100   33.4420   40.0960 C   0  0  0  0  0  0  0  0  0  0  0  0
   40.1960   34.2570   40.3630 H   0  0  0  0  0  0  0  0  0  0  0  0
   38.7710   32.7680   40.9950 N   0  0  0  0  0  0  0  0  0  0  0  0
   39.0540   29.4920   41.3720 C   0  0  0  0  0  0  0  0  0  0  0  0
   39.5340   30.2290   40.7050 H   0  0  0  0  0  0  0  0  0  0  0  0
   39.0930   28.4800   40.8900 H   0  0  0  0  0  0  0  0  0  0  0  0
   40.4820   28.1320   43.0830 C   0  0  1  0  0  0  0  0  0  0  0  0
   41.2690   29.2190   42.6330 C   0  0  0  0  0  0  0  0  0  0  0  0
   39.7960   29.4450   42.6580 C   0  0  1  0  0  0  0  0  0  0  0  0
   40.4500   27.8830   44.1750 H   0  0  0  0  0  0  0  0  0  0  0  0
   41.7180   29.1790   41.6070 H   0  0  0  0  0  0  0  0  0  0  0  0
   41.8840   29.8220   43.3120 H   0  0  0  0  0  0  0  0  0  0  0  0
   39.2740   29.8730   43.5270 H   0  0  0  0  0  0  0  0  0  0  0  0
   39.0860   26.0920   42.7460 C   0  0  0  0  0  0  0  0  0  0  0  0
   40.1540   26.9160   42.2880 C   0  0  0  0  0  0  0  0  0  0  0  0
   40.8340   26.5590   41.1510 C   0  0  0  0  0  0  0  0  0  0  0  0
   40.4440   25.4180   40.5080 N   0  0  0  0  0  0  0  0  0  0  0  0
   39.4160   24.6430   40.9630 C   0  0  0  0  0  0  0  0  0  0  0  0
   38.7170   24.9670   42.0950 N   0  0  0  0  0  0  0  0  0  0  0  0
   38.5470   26.3660   43.6400 H   0  0  0  0  0  0  0  0  0  0  0  0
   41.6290   27.1810   40.8180 H   0  0  0  0  0  0  0  0  0  0  0  0
   39.1370   23.7410   40.4220 H   0  0  0  0  0  0  0  0  0  0  0  0
  1  2  1  0  0  0  0
  2  7  1  0  0  0  0
  2  8  1  0  0  0  0
  3  9  1  0  0  0  0
  3  2  1  0  0  0  0
  4  3  1  0  0  0  0
  4 11  1  0  0  0  0
  5  4  1  0  0  0  0
  5  6  1  0  0  0  0
  6  1  1  0  0  0  0
  6 15  1  1  0  0  0
 10  3  1  0  0  0  0
 12  4  1  0  0  0  0
 13  5  1  0  0  0  0
 14  5  1  0  0  0  0
 16  6  1  0  0  0  0
 16 23  1  0  0  0  0
 17 16  2  0  0  0  0
 18 17  1  0  0  0  0
 19 17  1  0  0  0  0
 19 21  1  0  0  0  0
 20 19  1  0  0  0  0
 21 22  1  0  0  0  0
 21 23  2  0  0  0  0
 24  1  1  0  0  0  0
 24 29  1  0  0  0  0
 25 24  1  0  0  0  0
 26 24  1  0  0  0  0
 27 30  1  1  0  0  0
 28 29  1  0  0  0  0
 28 27  1  0  0  0  0
 28 32  1  0  0  0  0
 29 27  1  0  0  0  0
 29 33  1  1  0  0  0
 31 28  1  0  0  0  0
 34 40  1  0  0  0  0
 35 34  1  0  0  0  0
 35 27  1  0  0  0  0
 36 35  2  0  0  0  0
 37 38  2  0  0  0  0
 37 36  1  0  0  0  0
 38 39  1  0  0  0  0
 39 34  2  0  0  0  0
 41 36  1  0  0  0  0
 42 38  1  0  0  0  0
M  END
>  <minimizedAffinity>
-4.88367939

$$$$

 OpenBabel03252500333D

 42 45  0  0  1  0  0  0  0  0999 V2000
   36.9630   28.7130   40.9680 N   0  0  0  0  0  0  0  0  0  0  0  0
   37.0130   29.5780   42.0810 C   0  0  0  0  0  0  0  0  0  0  0  0
   38.1910   29.2640   43.0090 C   0  0  0  0  0  0  0  0  0  0  0  0
   37.9040   27.9000   43.5940 C   0  0  0  0  0  0  0  0  0  0  0  0
   37.9100   26.9430   42.4170 C   0  0  0  0  0  0  0  0  0  0  0  0
   36.9970   27.3520   41.3050 C   0  0  2  0  0  0  0  0  0  0  0  0
   36.1180   29.2600   42.7060 H   0  0  0  0  0  0  0  0  0  0  0  0
   36.8180   30.6300   41.9360 H   0  0  0  0  0  0  0  0  0  0  0  0
   38.2990   30.0500   43.7660 H   0  0  0  0  0  0  0  0  0  0  0  0
   39.1400   29.1550   42.4180 H   0  0  0  0  0  0  0  0  0  0  0  0
   36.9300   27.9240   44.0850 H   0  0  0  0  0  0  0  0  0  0  0  0
   38.7080   27.5650   44.2730 H   0  0  0  0  0  0  0  0  0  0  0  0
   37.5310   25.9680   42.8210 H   0  0  0  0  0  0  0  0  0  0  0  0
   38.9440   26.7870   42.0770 H   0  0  0  0  0  0  0  0  0  0  0  0
   35.9590   27.1000   41.6670 H   0  0  0  0  0  0  0  0  0  0  0  0
   37.2600   26.4620   40.1510 C   0  0  0  0  0  0  0  0  0  0  0  0
   36.3550   26.0740   39.1570 C   0  0  0  0  0  0  0  0  0  0  0  0
   35.3020   26.3900   39.1080 H   0  0  0  0  0  0  0  0  0  0  0  0
   36.9640   25.2510   38.2660 N   0  0  0  0  0  0  0  0  0  0  0  0
   36.5170   24.8140   37.4230 H   0  0  0  0  0  0  0  0  0  0  0  0
   38.2330   25.1280   38.6960 C   0  0  0  0  0  0  0  0  0  0  0  0
   39.0260   24.5340   38.2230 H   0  0  0  0  0  0  0  0  0  0  0  0
   38.4110   25.8480   39.8190 N   0  0  0  0  0  0  0  0  0  0  0  0
   37.6450   29.1550   39.7950 C   0  0  0  0  0  0  0  0  0  0  0  0
   38.0750   28.3190   39.2180 H   0  0  0  0  0  0  0  0  0  0  0  0
   38.4630   29.8670   40.0760 H   0  0  0  0  0  0  0  0  0  0  0  0
   36.9550   31.3050   38.4830 C   0  0  1  0  0  0  0  0  0  0  0  0
   37.0250   30.2380   37.5550 C   0  0  0  0  0  0  0  0  0  0  0  0
   36.6520   29.8670   38.9500 C   0  0  1  0  0  0  0  0  0  0  0  0
   36.0870   32.0120   38.4520 H   0  0  0  0  0  0  0  0  0  0  0  0
   38.0290   29.8660   37.2260 H   0  0  0  0  0  0  0  0  0  0  0  0
   36.2700   30.0860   36.7740 H   0  0  0  0  0  0  0  0  0  0  0  0
   35.6070   29.8160   39.2940 H   0  0  0  0  0  0  0  0  0  0  0  0
   37.9040   32.6970   40.3220 C   0  0  0  0  0  0  0  0  0  0  0  0
   38.1230   31.9810   39.1100 C   0  0  0  0  0  0  0  0  0  0  0  0
   39.3850   31.9480   38.5720 C   0  0  0  0  0  0  0  0  0  0  0  0
   40.3790   32.6110   39.2370 N   0  0  0  0  0  0  0  0  0  0  0  0
   40.1470   33.2900   40.3980 C   0  0  0  0  0  0  0  0  0  0  0  0
   38.9010   33.3460   40.9630 N   0  0  0  0  0  0  0  0  0  0  0  0
   36.9140   32.7280   40.7520 H   0  0  0  0  0  0  0  0  0  0  0  0
   39.5380   31.4110   37.6680 H   0  0  0  0  0  0  0  0  0  0  0  0
   40.9660   33.8060   40.8970 H   0  0  0  0  0  0  0  0  0  0  0  0
  1  6  1  0  0  0  0
  1  2  1  0  0  0  0
  2  7  1  0  0  0  0
  2  3  1  0  0  0  0
  3  4  1  0  0  0  0
  3  9  1  0  0  0  0
  4 11  1  0  0  0  0
  4 12  1  0  0  0  0
  5 13  1  0  0  0  0
  5  4  1  0  0  0  0
  6 15  1  1  0  0  0
  6  5  1  0  0  0  0
  8  2  1  0  0  0  0
 10  3  1  0  0  0  0
 14  5  1  0  0  0  0
 16  6  1  0  0  0  0
 17 16  2  0  0  0  0
 18 17  1  0  0  0  0
 19 21  1  0  0  0  0
 19 17  1  0  0  0  0
 20 19  1  0  0  0  0
 21 23  2  0  0  0  0
 22 21  1  0  0  0  0
 23 16  1  0  0  0  0
 24 26  1  0  0  0  0
 24  1  1  0  0  0  0
 25 24  1  0  0  0  0
 27 30  1  6  0  0  0
 27 29  1  0  0  0  0
 27 35  1  0  0  0  0
 28 27  1  0  0  0  0
 28 29  1  0  0  0  0
 29 33  1  1  0  0  0
 29 24  1  0  0  0  0
 31 28  1  0  0  0  0
 32 28  1  0  0  0  0
 34 40  1  0  0  0  0
 34 39  1  0  0  0  0
 35 34  2  0  0  0  0
 36 35  1  0  0  0  0
 36 37  2  0  0  0  0
 37 38  1  0  0  0  0
 38 42  1  0  0  0  0
 38 39  2  0  0  0  0
 41 36  1  0  0  0  0
M  END
>  <minimizedAffinity>
-4.88255548

$$$$
