
 OpenBabel03252502453D

 30 32  0  0  1  0  0  0  0  0999 V2000
   37.8310   27.8840   43.6790 C   0  0  0  0  0  0  0  0  0  0  0  0
   37.4560   27.8780   44.7040 H   0  0  0  0  0  0  0  0  0  0  0  0
   38.8410   27.3660   43.6050 H   0  0  0  0  0  0  0  0  0  0  0  0
   38.0990   29.2530   43.1380 C   0  0  1  0  0  0  0  0  0  0  0  0
   39.5070   29.5570   42.7270 C   0  0  0  0  0  0  0  0  0  0  0  0
   38.4320   29.3680   41.7210 C   0  0  2  0  0  0  0  0  0  0  0  0
   37.5080   30.0300   43.7050 H   0  0  0  0  0  0  0  0  0  0  0  0
   39.8370   30.5720   43.0270 H   0  0  0  0  0  0  0  0  0  0  0  0
   40.3360   28.8420   42.8870 H   0  0  0  0  0  0  0  0  0  0  0  0
   38.3280   28.6800   40.9200 H   0  0  0  0  0  0  0  0  0  0  0  0
   37.9630   30.6850   41.1650 C   0  0  0  0  0  0  0  0  0  0  0  0
   36.6670   31.0770   40.9010 C   0  0  0  0  0  0  0  0  0  0  0  0
   35.7530   30.5060   41.0480 H   0  0  0  0  0  0  0  0  0  0  0  0
   36.6300   32.3440   40.4000 N   0  0  0  0  0  0  0  0  0  0  0  0
   35.8000   32.9050   40.1090 H   0  0  0  0  0  0  0  0  0  0  0  0
   37.9260   32.6920   40.3730 C   0  0  0  0  0  0  0  0  0  0  0  0
   38.3170   33.6320   40.0360 H   0  0  0  0  0  0  0  0  0  0  0  0
   38.7480   31.7370   40.8170 N   0  0  0  0  0  0  0  0  0  0  0  0
   36.9010   27.2170   42.6740 C   0  0  0  0  0  0  0  0  0  0  0  0
   37.0530   27.7730   41.6960 H   0  0  0  0  0  0  0  0  0  0  0  0
   35.8750   27.1230   42.9900 H   0  0  0  0  0  0  0  0  0  0  0  0
   37.4990   23.9070   41.0030 C   0  0  0  0  0  0  0  0  0  0  0  0
   36.8640   25.1210   41.3710 C   0  0  0  0  0  0  0  0  0  0  0  0
   37.5490   25.9540   42.2160 C   0  0  0  0  0  0  0  0  0  0  0  0
   38.7890   25.5920   42.6580 N   0  0  0  0  0  0  0  0  0  0  0  0
   39.3630   24.4560   42.3010 C   0  0  0  0  0  0  0  0  0  0  0  0
   38.7290   23.6130   41.4800 N   0  0  0  0  0  0  0  0  0  0  0  0
   37.0430   23.1800   40.3420 H   0  0  0  0  0  0  0  0  0  0  0  0
   35.9120   25.2260   40.9150 H   0  0  0  0  0  0  0  0  0  0  0  0
   40.3410   24.1480   42.6370 H   0  0  0  0  0  0  0  0  0  0  0  0
  1  2  1  0  0  0  0
  3  1  1  0  0  0  0
  4  1  1  0  0  0  0
  4  7  1  1  0  0  0
  5  9  1  0  0  0  0
  5  8  1  0  0  0  0
  5  4  1  0  0  0  0
  6 10  1  6  0  0  0
  6  5  1  0  0  0  0
  6  4  1  0  0  0  0
 11  6  1  0  0  0  0
 12 13  1  0  0  0  0
 12 11  2  0  0  0  0
 14 12  1  0  0  0  0
 15 14  1  0  0  0  0
 16 14  1  0  0  0  0
 16 18  2  0  0  0  0
 17 16  1  0  0  0  0
 18 11  1  0  0  0  0
 19 21  1  0  0  0  0
 19  1  1  0  0  0  0
 20 19  1  0  0  0  0
 22 23  2  0  0  0  0
 22 27  1  0  0  0  0
 23 24  1  0  0  0  0
 24 25  2  0  0  0  0
 24 19  1  0  0  0  0
 26 30  1  0  0  0  0
 26 25  1  0  0  0  0
 27 26  2  0  0  0  0
 28 22  1  0  0  0  0
 29 23  1  0  0  0  0
M  END
>  <minimizedAffinity>
-4.80433083

$$$$

 OpenBabel03252502453D

 30 32  0  0  1  0  0  0  0  0999 V2000
   36.2760   31.0840   40.6480 C   0  0  0  0  0  0  0  0  0  0  0  0
   35.2800   31.4960   40.8160 H   0  0  0  0  0  0  0  0  0  0  0  0
   36.9220   31.1720   41.5790 H   0  0  0  0  0  0  0  0  0  0  0  0
   37.0660   31.8060   39.6030 C   0  0  1  0  0  0  0  0  0  0  0  0
   37.1760   33.2940   39.7430 C   0  0  0  0  0  0  0  0  0  0  0  0
   38.3360   32.4050   40.0070 C   0  0  2  0  0  0  0  0  0  0  0  0
   36.8860   31.3580   38.5830 H   0  0  0  0  0  0  0  0  0  0  0  0
   37.0740   33.8290   38.7770 H   0  0  0  0  0  0  0  0  0  0  0  0
   36.6350   33.8530   40.5290 H   0  0  0  0  0  0  0  0  0  0  0  0
   38.9330   32.2620   40.8730 H   0  0  0  0  0  0  0  0  0  0  0  0
   39.3100   32.4200   38.8620 C   0  0  0  0  0  0  0  0  0  0  0  0
   39.1290   31.9130   37.5920 C   0  0  0  0  0  0  0  0  0  0  0  0
   38.2500   31.4150   37.1900 H   0  0  0  0  0  0  0  0  0  0  0  0
   40.2370   32.1090   36.8220 N   0  0  0  0  0  0  0  0  0  0  0  0
   40.3960   31.8370   35.8280 H   0  0  0  0  0  0  0  0  0  0  0  0
   41.0750   32.7400   37.6610 C   0  0  0  0  0  0  0  0  0  0  0  0
   42.0680   33.0700   37.4270 H   0  0  0  0  0  0  0  0  0  0  0  0
   40.5640   32.9420   38.8780 N   0  0  0  0  0  0  0  0  0  0  0  0
   36.2780   29.6190   40.2290 C   0  0  0  0  0  0  0  0  0  0  0  0
   37.1800   29.4930   39.5500 H   0  0  0  0  0  0  0  0  0  0  0  0
   35.3480   29.2560   39.8220 H   0  0  0  0  0  0  0  0  0  0  0  0
   37.2900   26.7330   42.4090 C   0  0  0  0  0  0  0  0  0  0  0  0
   36.7900   27.4510   41.2930 C   0  0  0  0  0  0  0  0  0  0  0  0
   36.8410   28.8190   41.3550 C   0  0  0  0  0  0  0  0  0  0  0  0
   37.3620   29.4230   42.4630 N   0  0  0  0  0  0  0  0  0  0  0  0
   37.8250   28.7340   43.4920 C   0  0  0  0  0  0  0  0  0  0  0  0
   37.7920   27.3980   43.4740 N   0  0  0  0  0  0  0  0  0  0  0  0
   37.2940   25.6520   42.4600 H   0  0  0  0  0  0  0  0  0  0  0  0
   36.4400   26.8040   40.5280 H   0  0  0  0  0  0  0  0  0  0  0  0
   38.2410   29.1880   44.3770 H   0  0  0  0  0  0  0  0  0  0  0  0
  1  2  1  0  0  0  0
  1  3  1  0  0  0  0
  4  7  1  6  0  0  0
  4  5  1  0  0  0  0
  4  6  1  0  0  0  0
  4  1  1  0  0  0  0
  5  6  1  0  0  0  0
  5  9  1  0  0  0  0
  6 10  1  1  0  0  0
  8  5  1  0  0  0  0
 11 18  1  0  0  0  0
 11  6  1  0  0  0  0
 12 11  2  0  0  0  0
 13 12  1  0  0  0  0
 14 12  1  0  0  0  0
 14 16  1  0  0  0  0
 15 14  1  0  0  0  0
 16 18  2  0  0  0  0
 17 16  1  0  0  0  0
 19  1  1  0  0  0  0
 19 24  1  0  0  0  0
 20 19  1  0  0  0  0
 21 19  1  0  0  0  0
 22 28  1  0  0  0  0
 22 27  1  0  0  0  0
 23 24  1  0  0  0  0
 23 22  2  0  0  0  0
 24 25  2  0  0  0  0
 25 26  1  0  0  0  0
 26 30  1  0  0  0  0
 27 26  2  0  0  0  0
 29 23  1  0  0  0  0
M  END
>  <minimizedAffinity>
-4.73226118

$$$$

 OpenBabel03252502453D

 30 32  0  0  1  0  0  0  0  0999 V2000
   38.1150   29.1370   43.3250 C   0  0  0  0  0  0  0  0  0  0  0  0
   38.5420   29.5260   44.2510 H   0  0  0  0  0  0  0  0  0  0  0  0
   37.0960   29.5970   43.1160 H   0  0  0  0  0  0  0  0  0  0  0  0
   37.8380   27.6680   43.3530 C   0  0  1  0  0  0  0  0  0  0  0  0
   36.4130   27.2490   43.5550 C   0  0  0  0  0  0  0  0  0  0  0  0
   37.0820   27.1000   42.2390 C   0  0  2  0  0  0  0  0  0  0  0  0
   38.6600   27.1150   43.8940 H   0  0  0  0  0  0  0  0  0  0  0  0
   36.3090   26.3870   44.2450 H   0  0  0  0  0  0  0  0  0  0  0  0
   35.6080   27.9790   43.7600 H   0  0  0  0  0  0  0  0  0  0  0  0
   36.8490   27.4910   41.2800 H   0  0  0  0  0  0  0  0  0  0  0  0
   37.4870   25.6740   41.9880 C   0  0  0  0  0  0  0  0  0  0  0  0
   38.5940   25.0110   42.4770 C   0  0  0  0  0  0  0  0  0  0  0  0
   39.3700   25.4000   43.1330 H   0  0  0  0  0  0  0  0  0  0  0  0
   38.6320   23.7230   42.0320 N   0  0  0  0  0  0  0  0  0  0  0  0
   39.3420   22.9860   42.2330 H   0  0  0  0  0  0  0  0  0  0  0  0
   37.5290   23.6380   41.2720 C   0  0  0  0  0  0  0  0  0  0  0  0
   37.2000   22.7680   40.7360 H   0  0  0  0  0  0  0  0  0  0  0  0
   36.8240   24.7720   41.2190 N   0  0  0  0  0  0  0  0  0  0  0  0
   38.9830   29.3720   42.0960 C   0  0  0  0  0  0  0  0  0  0  0  0
   38.5540   28.7050   41.2830 H   0  0  0  0  0  0  0  0  0  0  0  0
   40.0440   29.2690   42.2560 H   0  0  0  0  0  0  0  0  0  0  0  0
   37.0080   31.9230   40.1720 C   0  0  0  0  0  0  0  0  0  0  0  0
   37.3530   30.6980   40.8000 C   0  0  0  0  0  0  0  0  0  0  0  0
   38.5510   30.6520   41.4640 C   0  0  0  0  0  0  0  0  0  0  0  0
   39.3450   31.7620   41.4960 N   0  0  0  0  0  0  0  0  0  0  0  0
   39.0030   32.8930   40.9050 C   0  0  0  0  0  0  0  0  0  0  0  0
   37.8450   32.9820   40.2440 N   0  0  0  0  0  0  0  0  0  0  0  0
   36.0860   32.0620   39.6210 H   0  0  0  0  0  0  0  0  0  0  0  0
   36.6020   29.9600   40.6730 H   0  0  0  0  0  0  0  0  0  0  0  0
   39.6130   33.7830   40.9160 H   0  0  0  0  0  0  0  0  0  0  0  0
  1  4  1  0  0  0  0
  1  2  1  0  0  0  0
  3  1  1  0  0  0  0
  4  5  1  0  0  0  0
  4  7  1  1  0  0  0
  5  9  1  0  0  0  0
  5  8  1  0  0  0  0
  6 10  1  6  0  0  0
  6  4  1  0  0  0  0
  6  5  1  0  0  0  0
 11  6  1  0  0  0  0
 11 12  2  0  0  0  0
 12 13  1  0  0  0  0
 14 15  1  0  0  0  0
 14 12  1  0  0  0  0
 16 14  1  0  0  0  0
 17 16  1  0  0  0  0
 18 16  2  0  0  0  0
 18 11  1  0  0  0  0
 19 21  1  0  0  0  0
 19  1  1  0  0  0  0
 20 19  1  0  0  0  0
 22 27  2  0  0  0  0
 22 23  1  0  0  0  0
 23 24  2  0  0  0  0
 24 25  1  0  0  0  0
 24 19  1  0  0  0  0
 26 30  1  0  0  0  0
 26 25  2  0  0  0  0
 27 26  1  0  0  0  0
 28 22  1  0  0  0  0
 29 23  1  0  0  0  0
M  END
>  <minimizedAffinity>
-4.72239923

$$$$

 OpenBabel03252502453D

 30 32  0  0  1  0  0  0  0  0999 V2000
   39.4790   28.7220   42.9230 C   0  0  0  0  0  0  0  0  0  0  0  0
   40.2370   28.5510   43.6890 H   0  0  0  0  0  0  0  0  0  0  0  0
   39.8010   28.2970   41.9200 H   0  0  0  0  0  0  0  0  0  0  0  0
   39.2280   30.1670   42.6280 C   0  0  1  0  0  0  0  0  0  0  0  0
   40.4260   31.0640   42.5630 C   0  0  0  0  0  0  0  0  0  0  0  0
   39.6790   30.6830   41.3380 C   0  0  2  0  0  0  0  0  0  0  0  0
   38.2940   30.5270   43.1510 H   0  0  0  0  0  0  0  0  0  0  0  0
   40.2600   32.0460   43.0520 H   0  0  0  0  0  0  0  0  0  0  0  0
   41.4450   30.7060   42.8020 H   0  0  0  0  0  0  0  0  0  0  0  0
   39.9830   30.1830   40.4530 H   0  0  0  0  0  0  0  0  0  0  0  0
   38.7900   31.8010   40.8670 C   0  0  0  0  0  0  0  0  0  0  0  0
   37.4370   31.7500   40.6030 C   0  0  0  0  0  0  0  0  0  0  0  0
   36.7710   30.8940   40.6890 H   0  0  0  0  0  0  0  0  0  0  0  0
   36.9710   32.9630   40.1920 N   0  0  0  0  0  0  0  0  0  0  0  0
   35.9990   33.2310   39.9240 H   0  0  0  0  0  0  0  0  0  0  0  0
   38.0730   33.7300   40.2180 C   0  0  0  0  0  0  0  0  0  0  0  0
   38.1210   34.7690   39.9570 H   0  0  0  0  0  0  0  0  0  0  0  0
   39.1710   33.0790   40.6110 N   0  0  0  0  0  0  0  0  0  0  0  0
   38.1170   28.1260   43.2560 C   0  0  0  0  0  0  0  0  0  0  0  0
   37.4330   28.4210   42.3990 H   0  0  0  0  0  0  0  0  0  0  0  0
   37.7410   28.3580   44.2400 H   0  0  0  0  0  0  0  0  0  0  0  0
   39.3250   24.6180   42.6680 C   0  0  0  0  0  0  0  0  0  0  0  0
   39.3250   25.9820   43.0590 C   0  0  0  0  0  0  0  0  0  0  0  0
   38.1530   26.6750   42.9090 C   0  0  0  0  0  0  0  0  0  0  0  0
   37.0560   26.0410   42.4020 N   0  0  0  0  0  0  0  0  0  0  0  0
   37.0780   24.7680   42.0450 C   0  0  0  0  0  0  0  0  0  0  0  0
   38.2010   24.0540   42.1730 N   0  0  0  0  0  0  0  0  0  0  0  0
   40.1990   23.9840   42.7460 H   0  0  0  0  0  0  0  0  0  0  0  0
   40.2670   26.2870   43.4400 H   0  0  0  0  0  0  0  0  0  0  0  0
   36.2250   24.2450   41.6420 H   0  0  0  0  0  0  0  0  0  0  0  0
  1 19  1  0  0  0  0
  1  2  1  0  0  0  0
  3  1  1  0  0  0  0
  4  1  1  0  0  0  0
  4  7  1  1  0  0  0
  5  4  1  0  0  0  0
  5  9  1  0  0  0  0
  5  8  1  0  0  0  0
  6 10  1  6  0  0  0
  6  5  1  0  0  0  0
  6  4  1  0  0  0  0
 11  6  1  0  0  0  0
 12 13  1  0  0  0  0
 12 11  2  0  0  0  0
 14 16  1  0  0  0  0
 14 12  1  0  0  0  0
 15 14  1  0  0  0  0
 16 18  2  0  0  0  0
 17 16  1  0  0  0  0
 18 11  1  0  0  0  0
 19 21  1  0  0  0  0
 20 19  1  0  0  0  0
 22 28  1  0  0  0  0
 22 23  1  0  0  0  0
 23 29  1  0  0  0  0
 24 23  2  0  0  0  0
 24 19  1  0  0  0  0
 25 24  1  0  0  0  0
 26 27  1  0  0  0  0
 26 25  2  0  0  0  0
 27 22  2  0  0  0  0
 30 26  1  0  0  0  0
M  END
>  <minimizedAffinity>
-4.70418167

$$$$

 OpenBabel03252502453D

 30 32  0  0  1  0  0  0  0  0999 V2000
   36.2140   29.0680   39.2480 C   0  0  0  0  0  0  0  0  0  0  0  0
   36.6200   28.0990   38.9550 H   0  0  0  0  0  0  0  0  0  0  0  0
   35.4090   29.4150   38.5240 H   0  0  0  0  0  0  0  0  0  0  0  0
   37.2130   30.1800   39.2200 C   0  0  1  0  0  0  0  0  0  0  0  0
   37.1990   31.0760   38.0190 C   0  0  0  0  0  0  0  0  0  0  0  0
   36.7100   31.5470   39.3400 C   0  0  2  0  0  0  0  0  0  0  0  0
   38.2020   29.8410   39.6470 H   0  0  0  0  0  0  0  0  0  0  0  0
   38.2160   31.3360   37.6600 H   0  0  0  0  0  0  0  0  0  0  0  0
   36.5430   30.8860   37.1500 H   0  0  0  0  0  0  0  0  0  0  0  0
   35.7670   31.9200   39.6510 H   0  0  0  0  0  0  0  0  0  0  0  0
   37.7200   32.4330   40.0150 C   0  0  0  0  0  0  0  0  0  0  0  0
   38.7060   32.0640   40.9060 C   0  0  0  0  0  0  0  0  0  0  0  0
   38.9310   31.0670   41.2790 H   0  0  0  0  0  0  0  0  0  0  0  0
   39.4330   33.1440   41.3110 N   0  0  0  0  0  0  0  0  0  0  0  0
   40.2370   33.1770   41.9740 H   0  0  0  0  0  0  0  0  0  0  0  0
   38.8570   34.1570   40.6420 C   0  0  0  0  0  0  0  0  0  0  0  0
   39.1480   35.1890   40.6930 H   0  0  0  0  0  0  0  0  0  0  0  0
   37.8390   33.7780   39.8650 N   0  0  0  0  0  0  0  0  0  0  0  0
   35.6100   29.0900   40.6460 C   0  0  0  0  0  0  0  0  0  0  0  0
   34.8970   28.2070   40.6890 H   0  0  0  0  0  0  0  0  0  0  0  0
   35.1840   30.0330   40.9490 H   0  0  0  0  0  0  0  0  0  0  0  0
   37.8460   26.6540   42.4300 C   0  0  0  0  0  0  0  0  0  0  0  0
   36.9300   27.1780   41.4800 C   0  0  0  0  0  0  0  0  0  0  0  0
   36.6090   28.5050   41.5880 C   0  0  0  0  0  0  0  0  0  0  0  0
   37.1700   29.2550   42.5810 N   0  0  0  0  0  0  0  0  0  0  0  0
   38.0220   28.7470   43.4540 C   0  0  0  0  0  0  0  0  0  0  0  0
   38.3620   27.4560   43.3870 N   0  0  0  0  0  0  0  0  0  0  0  0
   38.1630   25.6190   42.4320 H   0  0  0  0  0  0  0  0  0  0  0  0
   36.6160   26.4420   40.7820 H   0  0  0  0  0  0  0  0  0  0  0  0
   38.4790   29.3190   44.2470 H   0  0  0  0  0  0  0  0  0  0  0  0
  1 19  1  0  0  0  0
  2  1  1  0  0  0  0
  3  1  1  0  0  0  0
  4  1  1  0  0  0  0
  4  6  1  0  0  0  0
  4  7  1  1  0  0  0
  5  4  1  0  0  0  0
  5  6  1  0  0  0  0
  6 10  1  1  0  0  0
  6 11  1  0  0  0  0
  8  5  1  0  0  0  0
  9  5  1  0  0  0  0
 11 12  2  0  0  0  0
 12 13  1  0  0  0  0
 12 14  1  0  0  0  0
 14 15  1  0  0  0  0
 16 17  1  0  0  0  0
 16 14  1  0  0  0  0
 18 11  1  0  0  0  0
 18 16  2  0  0  0  0
 19 20  1  0  0  0  0
 19 21  1  0  0  0  0
 19 24  1  0  0  0  0
 22 28  1  0  0  0  0
 22 27  1  0  0  0  0
 23 24  1  0  0  0  0
 23 22  2  0  0  0  0
 24 25  2  0  0  0  0
 25 26  1  0  0  0  0
 26 30  1  0  0  0  0
 27 26  2  0  0  0  0
 29 23  1  0  0  0  0
M  END
>  <minimizedAffinity>
-4.65158606

$$$$

 OpenBabel03252502453D

 30 32  0  0  1  0  0  0  0  0999 V2000
   36.7010   28.1870   41.9180 C   0  0  0  0  0  0  0  0  0  0  0  0
   36.4520   27.1740   41.5970 H   0  0  0  0  0  0  0  0  0  0  0  0
   35.9230   28.5950   42.6390 H   0  0  0  0  0  0  0  0  0  0  0  0
   36.7120   29.1910   40.8090 C   0  0  1  0  0  0  0  0  0  0  0  0
   35.3830   29.7010   40.3430 C   0  0  0  0  0  0  0  0  0  0  0  0
   36.3060   30.5580   41.1280 C   0  0  2  0  0  0  0  0  0  0  0  0
   37.5060   28.9380   40.0480 H   0  0  0  0  0  0  0  0  0  0  0  0
   35.3170   29.7940   39.2390 H   0  0  0  0  0  0  0  0  0  0  0  0
   34.4280   29.3020   40.7330 H   0  0  0  0  0  0  0  0  0  0  0  0
   36.1900   31.0530   42.0590 H   0  0  0  0  0  0  0  0  0  0  0  0
   37.0190   31.5480   40.2490 C   0  0  0  0  0  0  0  0  0  0  0  0
   36.9790   31.6370   38.8720 C   0  0  0  0  0  0  0  0  0  0  0  0
   36.4250   31.0100   38.1780 H   0  0  0  0  0  0  0  0  0  0  0  0
   37.7570   32.6630   38.4240 N   0  0  0  0  0  0  0  0  0  0  0  0
   37.9230   32.9740   37.4430 H   0  0  0  0  0  0  0  0  0  0  0  0
   38.2560   33.1770   39.5600 C   0  0  0  0  0  0  0  0  0  0  0  0
   38.9250   34.0120   39.6310 H   0  0  0  0  0  0  0  0  0  0  0  0
   37.8440   32.5440   40.6620 N   0  0  0  0  0  0  0  0  0  0  0  0
   38.0590   28.3060   42.5970 C   0  0  0  0  0  0  0  0  0  0  0  0
   37.8400   28.4770   43.6980 H   0  0  0  0  0  0  0  0  0  0  0  0
   38.7350   29.0180   42.1510 H   0  0  0  0  0  0  0  0  0  0  0  0
   40.2170   25.4280   43.6800 C   0  0  0  0  0  0  0  0  0  0  0  0
   39.7010   26.7460   43.5790 C   0  0  0  0  0  0  0  0  0  0  0  0
   38.6050   26.9300   42.7770 C   0  0  0  0  0  0  0  0  0  0  0  0
   38.0640   25.8610   42.1230 N   0  0  0  0  0  0  0  0  0  0  0  0
   38.5600   24.6400   42.2320 C   0  0  0  0  0  0  0  0  0  0  0  0
   39.6290   24.4170   43.0020 N   0  0  0  0  0  0  0  0  0  0  0  0
   41.0780   25.1780   44.2850 H   0  0  0  0  0  0  0  0  0  0  0  0
   40.2510   27.4350   44.1710 H   0  0  0  0  0  0  0  0  0  0  0  0
   38.1500   23.7800   41.7260 H   0  0  0  0  0  0  0  0  0  0  0  0
  1 19  1  0  0  0  0
  1  3  1  0  0  0  0
  2  1  1  0  0  0  0
  4  7  1  6  0  0  0
  4  6  1  0  0  0  0
  4  1  1  0  0  0  0
  5  9  1  0  0  0  0
  5  4  1  0  0  0  0
  5  6  1  0  0  0  0
  6 10  1  1  0  0  0
  8  5  1  0  0  0  0
 11 18  1  0  0  0  0
 11  6  1  0  0  0  0
 12 11  2  0  0  0  0
 13 12  1  0  0  0  0
 14 12  1  0  0  0  0
 14 16  1  0  0  0  0
 15 14  1  0  0  0  0
 16 17  1  0  0  0  0
 16 18  2  0  0  0  0
 19 24  1  0  0  0  0
 19 20  1  0  0  0  0
 21 19  1  0  0  0  0
 22 28  1  0  0  0  0
 23 22  1  0  0  0  0
 23 29  1  0  0  0  0
 24 23  2  0  0  0  0
 25 26  2  0  0  0  0
 25 24  1  0  0  0  0
 26 27  1  0  0  0  0
 27 22  2  0  0  0  0
 30 26  1  0  0  0  0
M  END
>  <minimizedAffinity>
-4.58767462

$$$$

 OpenBabel03252502453D

 30 32  0  0  1  0  0  0  0  0999 V2000
   36.1110   29.0640   39.4280 C   0  0  0  0  0  0  0  0  0  0  0  0
   36.4500   28.1040   39.0330 H   0  0  0  0  0  0  0  0  0  0  0  0
   35.2510   29.4840   38.8150 H   0  0  0  0  0  0  0  0  0  0  0  0
   37.1440   30.1440   39.3710 C   0  0  1  0  0  0  0  0  0  0  0  0
   37.1910   30.9710   38.1220 C   0  0  0  0  0  0  0  0  0  0  0  0
   36.6790   31.5280   39.3990 C   0  0  2  0  0  0  0  0  0  0  0  0
   38.1090   29.8010   39.8450 H   0  0  0  0  0  0  0  0  0  0  0  0
   38.2260   31.1820   37.7810 H   0  0  0  0  0  0  0  0  0  0  0  0
   36.5560   30.7510   37.2450 H   0  0  0  0  0  0  0  0  0  0  0  0
   35.7380   31.9450   39.6600 H   0  0  0  0  0  0  0  0  0  0  0  0
   37.6950   32.4220   40.0550 C   0  0  0  0  0  0  0  0  0  0  0  0
   38.6860   32.0640   40.9460 C   0  0  0  0  0  0  0  0  0  0  0  0
   38.9110   31.0720   41.3310 H   0  0  0  0  0  0  0  0  0  0  0  0
   39.4160   33.1480   41.3300 N   0  0  0  0  0  0  0  0  0  0  0  0
   40.2250   33.1890   41.9880 H   0  0  0  0  0  0  0  0  0  0  0  0
   38.8390   34.1530   40.6510 C   0  0  0  0  0  0  0  0  0  0  0  0
   39.1320   35.1840   40.6850 H   0  0  0  0  0  0  0  0  0  0  0  0
   37.8150   33.7640   39.8860 N   0  0  0  0  0  0  0  0  0  0  0  0
   35.6520   29.0080   40.8800 C   0  0  0  0  0  0  0  0  0  0  0  0
   34.8220   28.2340   40.9120 H   0  0  0  0  0  0  0  0  0  0  0  0
   35.4040   29.9600   41.3200 H   0  0  0  0  0  0  0  0  0  0  0  0
   38.2080   27.9240   43.4100 C   0  0  0  0  0  0  0  0  0  0  0  0
   37.2410   28.7240   42.7470 C   0  0  0  0  0  0  0  0  0  0  0  0
   36.6360   28.1860   41.6420 C   0  0  0  0  0  0  0  0  0  0  0  0
   36.9770   26.9280   41.2340 N   0  0  0  0  0  0  0  0  0  0  0  0
   37.8790   26.2000   41.8680 C   0  0  0  0  0  0  0  0  0  0  0  0
   38.4960   26.6870   42.9490 N   0  0  0  0  0  0  0  0  0  0  0  0
   38.7430   28.2570   44.2900 H   0  0  0  0  0  0  0  0  0  0  0  0
   37.1070   29.6630   43.2230 H   0  0  0  0  0  0  0  0  0  0  0  0
   38.1650   25.2050   41.5640 H   0  0  0  0  0  0  0  0  0  0  0  0
  1 19  1  0  0  0  0
  2  1  1  0  0  0  0
  3  1  1  0  0  0  0
  4  6  1  0  0  0  0
  4  1  1  0  0  0  0
  4  7  1  1  0  0  0
  5  4  1  0  0  0  0
  5  6  1  0  0  0  0
  6 10  1  1  0  0  0
  6 11  1  0  0  0  0
  8  5  1  0  0  0  0
  9  5  1  0  0  0  0
 11 12  2  0  0  0  0
 12 14  1  0  0  0  0
 12 13  1  0  0  0  0
 14 15  1  0  0  0  0
 16 17  1  0  0  0  0
 16 14  1  0  0  0  0
 18 11  1  0  0  0  0
 18 16  2  0  0  0  0
 19 20  1  0  0  0  0
 19 21  1  0  0  0  0
 19 24  1  0  0  0  0
 22 28  1  0  0  0  0
 23 29  1  0  0  0  0
 23 22  2  0  0  0  0
 24 23  1  0  0  0  0
 25 24  2  0  0  0  0
 25 26  1  0  0  0  0
 26 27  2  0  0  0  0
 27 22  1  0  0  0  0
 30 26  1  0  0  0  0
M  END
>  <minimizedAffinity>
-4.52040339

$$$$

 OpenBabel03252502453D

 30 32  0  0  1  0  0  0  0  0999 V2000
   36.0900   28.5750   41.3520 C   0  0  0  0  0  0  0  0  0  0  0  0
   35.6960   29.5460   41.6560 H   0  0  0  0  0  0  0  0  0  0  0  0
   35.2630   27.7970   41.2840 H   0  0  0  0  0  0  0  0  0  0  0  0
   37.0540   27.9770   42.3260 C   0  0  1  0  0  0  0  0  0  0  0  0
   36.4750   27.3470   43.5560 C   0  0  0  0  0  0  0  0  0  0  0  0
   37.0600   26.5230   42.4690 C   0  0  2  0  0  0  0  0  0  0  0  0
   37.9820   28.6150   42.4150 H   0  0  0  0  0  0  0  0  0  0  0  0
   37.0540   27.5770   44.4750 H   0  0  0  0  0  0  0  0  0  0  0  0
   35.3940   27.3890   43.7860 H   0  0  0  0  0  0  0  0  0  0  0  0
   36.6450   25.7590   41.8610 H   0  0  0  0  0  0  0  0  0  0  0  0
   38.4310   26.0260   42.8350 C   0  0  0  0  0  0  0  0  0  0  0  0
   39.0030   24.8110   42.5150 C   0  0  0  0  0  0  0  0  0  0  0  0
   38.5650   23.9980   41.9400 H   0  0  0  0  0  0  0  0  0  0  0  0
   40.2640   24.7130   43.0220 N   0  0  0  0  0  0  0  0  0  0  0  0
   40.9380   23.9210   42.9440 H   0  0  0  0  0  0  0  0  0  0  0  0
   40.4270   25.8910   43.6460 C   0  0  0  0  0  0  0  0  0  0  0  0
   41.3040   26.2040   44.1780 H   0  0  0  0  0  0  0  0  0  0  0  0
   39.3640   26.6950   43.5600 N   0  0  0  0  0  0  0  0  0  0  0  0
   36.8130   28.5910   40.0110 C   0  0  0  0  0  0  0  0  0  0  0  0
   36.0250   28.3450   39.2320 H   0  0  0  0  0  0  0  0  0  0  0  0
   37.7060   27.9890   39.9630 H   0  0  0  0  0  0  0  0  0  0  0  0
   37.4130   31.6640   37.9350 C   0  0  0  0  0  0  0  0  0  0  0  0
   37.2130   30.3010   38.2760 C   0  0  0  0  0  0  0  0  0  0  0  0
   36.9760   30.0150   39.5950 C   0  0  0  0  0  0  0  0  0  0  0  0
   36.9420   31.0290   40.5080 N   0  0  0  0  0  0  0  0  0  0  0  0
   37.1300   32.2920   40.1680 C   0  0  0  0  0  0  0  0  0  0  0  0
   37.3650   32.6160   38.8930 N   0  0  0  0  0  0  0  0  0  0  0  0
   37.6080   31.9940   36.9230 H   0  0  0  0  0  0  0  0  0  0  0  0
   37.2650   29.6670   37.4270 H   0  0  0  0  0  0  0  0  0  0  0  0
   37.1070   33.1110   40.8700 H   0  0  0  0  0  0  0  0  0  0  0  0
  1  2  1  0  0  0  0
  1  4  1  0  0  0  0
  3  1  1  0  0  0  0
  4  7  1  1  0  0  0
  4  6  1  0  0  0  0
  4  5  1  0  0  0  0
  5  9  1  0  0  0  0
  5  8  1  0  0  0  0
  6 10  1  6  0  0  0
  6 11  1  0  0  0  0
  6  5  1  0  0  0  0
 11 18  1  0  0  0  0
 12 11  2  0  0  0  0
 12 14  1  0  0  0  0
 13 12  1  0  0  0  0
 14 16  1  0  0  0  0
 15 14  1  0  0  0  0
 16 17  1  0  0  0  0
 18 16  2  0  0  0  0
 19  1  1  0  0  0  0
 20 19  1  0  0  0  0
 21 19  1  0  0  0  0
 22 23  2  0  0  0  0
 22 27  1  0  0  0  0
 23 24  1  0  0  0  0
 24 19  1  0  0  0  0
 24 25  2  0  0  0  0
 26 25  1  0  0  0  0
 26 30  1  0  0  0  0
 27 26  2  0  0  0  0
 28 22  1  0  0  0  0
 29 23  1  0  0  0  0
M  END
>  <minimizedAffinity>
-4.45247841

$$$$

 OpenBabel03252502453D

 30 32  0  0  1  0  0  0  0  0999 V2000
   35.7040   28.1840   39.5500 C   0  0  0  0  0  0  0  0  0  0  0  0
   36.0300   27.1730   39.8010 H   0  0  0  0  0  0  0  0  0  0  0  0
   34.6830   28.1780   39.0520 H   0  0  0  0  0  0  0  0  0  0  0  0
   36.5780   28.8740   38.5510 C   0  0  1  0  0  0  0  0  0  0  0  0
   35.9260   29.3330   37.2820 C   0  0  0  0  0  0  0  0  0  0  0  0
   36.3540   30.2990   38.3240 C   0  0  2  0  0  0  0  0  0  0  0  0
   37.5960   28.3890   38.5060 H   0  0  0  0  0  0  0  0  0  0  0  0
   36.5500   29.1480   36.3830 H   0  0  0  0  0  0  0  0  0  0  0  0
   34.8700   29.1050   37.0460 H   0  0  0  0  0  0  0  0  0  0  0  0
   35.8110   31.0190   38.8840 H   0  0  0  0  0  0  0  0  0  0  0  0
   37.6340   30.9900   37.9410 C   0  0  0  0  0  0  0  0  0  0  0  0
   37.8720   31.7730   36.8310 C   0  0  0  0  0  0  0  0  0  0  0  0
   37.1770   32.0330   36.0350 H   0  0  0  0  0  0  0  0  0  0  0  0
   39.1560   32.2300   36.8190 N   0  0  0  0  0  0  0  0  0  0  0  0
   39.6240   32.8390   36.1130 H   0  0  0  0  0  0  0  0  0  0  0  0
   39.6710   31.7020   37.9410 C   0  0  0  0  0  0  0  0  0  0  0  0
   40.6760   31.8310   38.2920 H   0  0  0  0  0  0  0  0  0  0  0  0
   38.8020   30.9610   38.6330 N   0  0  0  0  0  0  0  0  0  0  0  0
   35.6230   29.1230   40.7460 C   0  0  0  0  0  0  0  0  0  0  0  0
   34.7640   28.7410   41.3820 H   0  0  0  0  0  0  0  0  0  0  0  0
   35.5780   30.1730   40.5040 H   0  0  0  0  0  0  0  0  0  0  0  0
   38.6330   29.2430   42.9900 C   0  0  0  0  0  0  0  0  0  0  0  0
   37.6050   29.6720   42.1120 C   0  0  0  0  0  0  0  0  0  0  0  0
   36.6920   28.7330   41.7110 C   0  0  0  0  0  0  0  0  0  0  0  0
   36.8040   27.4500   42.1640 N   0  0  0  0  0  0  0  0  0  0  0  0
   37.7700   27.0710   42.9830 C   0  0  0  0  0  0  0  0  0  0  0  0
   38.6830   27.9550   43.3980 N   0  0  0  0  0  0  0  0  0  0  0  0
   39.4030   29.9060   43.3640 H   0  0  0  0  0  0  0  0  0  0  0  0
   37.6810   30.7070   41.8860 H   0  0  0  0  0  0  0  0  0  0  0  0
   37.8800   26.0640   43.3540 H   0  0  0  0  0  0  0  0  0  0  0  0
  1  2  1  0  0  0  0
  1 19  1  0  0  0  0
  3  1  1  0  0  0  0
  4  7  1  6  0  0  0
  4  1  1  0  0  0  0
  5  6  1  0  0  0  0
  5  4  1  0  0  0  0
  6  4  1  0  0  0  0
  6 10  1  1  0  0  0
  8  5  1  0  0  0  0
  9  5  1  0  0  0  0
 11  6  1  0  0  0  0
 11 18  1  0  0  0  0
 12 11  2  0  0  0  0
 13 12  1  0  0  0  0
 14 12  1  0  0  0  0
 14 16  1  0  0  0  0
 15 14  1  0  0  0  0
 16 17  1  0  0  0  0
 16 18  2  0  0  0  0
 19 20  1  0  0  0  0
 19 24  1  0  0  0  0
 21 19  1  0  0  0  0
 22 28  1  0  0  0  0
 22 27  1  0  0  0  0
 23 22  2  0  0  0  0
 24 23  1  0  0  0  0
 24 25  2  0  0  0  0
 25 26  1  0  0  0  0
 26 30  1  0  0  0  0
 26 27  2  0  0  0  0
 29 23  1  0  0  0  0
M  END
>  <minimizedAffinity>
-4.43924427

$$$$
