
 OpenBabel03252507033D

 46 49  0  0  0  0  0  0  0  0999 V2000
   42.0420   32.6790   41.9230 C   0  0  0  0  0  0  0  0  0  0  0  0
   41.7910   32.2350   42.9100 H   0  0  0  0  0  0  0  0  0  0  0  0
   42.1310   33.7960   42.1570 H   0  0  0  0  0  0  0  0  0  0  0  0
   41.1320   32.4020   40.9800 N   0  0  0  0  0  0  0  0  0  0  0  0
   40.5230   31.1390   40.7130 C   0  0  0  0  0  0  0  0  0  0  0  0
   39.1450   31.4060   41.3100 C   0  0  0  0  0  0  0  0  0  0  0  0
   38.4380   32.5160   40.6950 C   0  0  0  0  0  0  0  0  0  0  0  0
   39.2010   33.5510   40.0310 C   0  0  0  0  0  0  0  0  0  0  0  0
   40.7070   33.5590   40.1580 C   0  0  0  0  0  0  0  0  0  0  0  0
   41.0090   30.3720   41.3590 H   0  0  0  0  0  0  0  0  0  0  0  0
   40.5220   30.7520   39.7110 H   0  0  0  0  0  0  0  0  0  0  0  0
   38.5690   30.4420   41.2150 H   0  0  0  0  0  0  0  0  0  0  0  0
   39.3350   31.5190   42.4080 H   0  0  0  0  0  0  0  0  0  0  0  0
   37.7800   33.0170   41.4630 H   0  0  0  0  0  0  0  0  0  0  0  0
   37.7080   32.1110   39.9340 H   0  0  0  0  0  0  0  0  0  0  0  0
   38.8130   34.3440   39.4570 H   0  0  0  0  0  0  0  0  0  0  0  0
   41.7410   34.7440   39.4650 S   0  0  0  0  0  0  0  0  0  0  0  0
   41.2470   35.5800   38.0160 C   0  0  0  0  0  0  0  0  0  0  0  0
   40.2980   35.9400   37.1050 C   0  0  0  0  0  0  0  0  0  0  0  0
   39.3620   35.5320   37.3780 H   0  0  0  0  0  0  0  0  0  0  0  0
   40.8630   36.6980   36.1630 N   0  0  0  0  0  0  0  0  0  0  0  0
   40.1850   37.0140   35.4210 H   0  0  0  0  0  0  0  0  0  0  0  0
   42.1650   36.8400   36.4430 C   0  0  0  0  0  0  0  0  0  0  0  0
   42.6630   37.4550   35.6950 H   0  0  0  0  0  0  0  0  0  0  0  0
   42.4210   36.1500   37.5950 N   0  0  0  0  0  0  0  0  0  0  0  0
   43.4220   32.2700   41.5580 C   0  0  0  0  0  0  0  0  0  0  0  0
   43.6630   31.3540   42.1550 H   0  0  0  0  0  0  0  0  0  0  0  0
   43.4890   32.0630   40.4640 H   0  0  0  0  0  0  0  0  0  0  0  0
   44.3480   33.3410   41.9650 C   0  0  0  0  0  0  0  0  0  0  0  0
   43.8640   34.5690   42.3510 C   0  0  0  0  0  0  0  0  0  0  0  0
   44.7740   35.5530   42.7170 C   0  0  0  0  0  0  0  0  0  0  0  0
   46.1070   35.2450   42.6750 N   0  0  0  0  0  0  0  0  0  0  0  0
   46.5350   34.0450   42.2980 C   0  0  0  0  0  0  0  0  0  0  0  0
   45.6430   33.1150   41.9480 N   0  0  0  0  0  0  0  0  0  0  0  0
   42.8820   34.9940   42.4650 H   0  0  0  0  0  0  0  0  0  0  0  0
   44.5800   36.5780   43.0470 H   0  0  0  0  0  0  0  0  0  0  0  0
   47.9740   33.7980   42.3100 C   0  0  0  0  0  0  0  0  0  0  0  0
   48.4730   32.5070   42.1540 C   0  0  0  0  0  0  0  0  0  0  0  0
   49.8310   32.2860   42.1770 C   0  0  0  0  0  0  0  0  0  0  0  0
   50.5950   33.4130   42.3610 C   0  0  0  0  0  0  0  0  0  0  0  0
   50.1490   34.7180   42.5210 C   0  0  0  0  0  0  0  0  0  0  0  0
   48.7970   34.8420   42.4850 N   0  0  0  0  0  0  0  0  0  0  0  0
   47.8080   31.6530   42.0120 H   0  0  0  0  0  0  0  0  0  0  0  0
   50.3040   31.3200   42.0640 H   0  0  0  0  0  0  0  0  0  0  0  0
   51.6800   33.2870   42.3870 H   0  0  0  0  0  0  0  0  0  0  0  0
   50.8270   35.5400   42.6590 H   0  0  0  0  0  0  0  0  0  0  0  0
  1  3  1  0  0  0  0
  1  2  1  0  0  0  0
  4  1  1  0  0  0  0
  5  4  1  0  0  0  0
  5  6  1  0  0  0  0
  5 10  1  0  0  0  0
  6 13  1  0  0  0  0
  7  6  1  0  0  0  0
  7 14  1  0  0  0  0
  8  9  2  0  0  0  0
  8  7  1  0  0  0  0
  9  4  1  0  0  0  0
 11  5  1  0  0  0  0
 12  6  1  0  0  0  0
 15  7  1  0  0  0  0
 16  8  1  0  0  0  0
 17  9  1  0  0  0  0
 18 17  1  0  0  0  0
 19 20  1  0  0  0  0
 19 18  2  0  0  0  0
 21 23  1  0  0  0  0
 21 19  1  0  0  0  0
 22 21  1  0  0  0  0
 23 25  2  0  0  0  0
 24 23  1  0  0  0  0
 25 18  1  0  0  0  0
 26  1  1  0  0  0  0
 26 29  1  0  0  0  0
 26 27  1  0  0  0  0
 28 26  1  0  0  0  0
 29 30  1  0  0  0  0
 30 35  1  0  0  0  0
 30 31  2  0  0  0  0
 31 36  1  0  0  0  0
 32 31  1  0  0  0  0
 33 37  1  0  0  0  0
 33 32  2  0  0  0  0
 34 29  2  0  0  0  0
 34 33  1  0  0  0  0
 37 42  1  0  0  0  0
 38 39  1  0  0  0  0
 38 37  2  0  0  0  0
 39 40  2  0  0  0  0
 40 45  1  0  0  0  0
 40 41  1  0  0  0  0
 41 46  1  0  0  0  0
 42 41  2  0  0  0  0
 43 38  1  0  0  0  0
 44 39  1  0  0  0  0
M  END
>  <minimizedAffinity>
-4.45519781

>  <minimizedRMSD>
1.03269279

$$$$
