
 OpenBabel03252508203D

 33 35  0  0  0  0  0  0  0  0999 V2000
   41.6310   33.8310   40.0370 C   0  0  0  0  0  0  0  0  0  0  0  0
   41.2400   35.0660   40.5440 C   0  0  0  0  0  0  0  0  0  0  0  0
   39.9970   35.6560   40.3780 C   0  0  0  0  0  0  0  0  0  0  0  0
   39.0930   34.9190   39.6360 C   0  0  0  0  0  0  0  0  0  0  0  0
   39.4550   33.6990   39.1260 C   0  0  0  0  0  0  0  0  0  0  0  0
   40.7020   33.1180   39.2990 C   0  0  0  0  0  0  0  0  0  0  0  0
   42.0160   35.5910   41.1230 H   0  0  0  0  0  0  0  0  0  0  0  0
   39.8640   36.6170   40.8390 H   0  0  0  0  0  0  0  0  0  0  0  0
   38.1250   35.3710   39.5030 H   0  0  0  0  0  0  0  0  0  0  0  0
   38.6320   33.2540   38.5700 H   0  0  0  0  0  0  0  0  0  0  0  0
   40.8530   31.8240   38.6640 C   0  0  0  0  0  0  0  0  0  0  0  0
   40.4360   30.5520   38.9350 C   0  0  0  0  0  0  0  0  0  0  0  0
   39.8540   30.2490   39.7780 H   0  0  0  0  0  0  0  0  0  0  0  0
   40.7920   29.6500   38.0460 N   0  0  0  0  0  0  0  0  0  0  0  0
   40.6190   28.6350   37.9980 H   0  0  0  0  0  0  0  0  0  0  0  0
   41.4810   30.3460   37.1320 C   0  0  0  0  0  0  0  0  0  0  0  0
   41.9770   30.0480   36.2120 H   0  0  0  0  0  0  0  0  0  0  0  0
   41.5050   31.6260   37.5160 N   0  0  0  0  0  0  0  0  0  0  0  0
   42.9610   33.2670   40.2270 C   0  0  0  0  0  0  0  0  0  0  0  0
   43.6980   34.0890   40.0850 H   0  0  0  0  0  0  0  0  0  0  0  0
   43.2020   32.4300   39.5670 H   0  0  0  0  0  0  0  0  0  0  0  0
   43.1950   32.8520   41.6940 C   0  0  0  0  0  0  0  0  0  0  0  0
   44.2740   32.8270   41.8550 H   0  0  0  0  0  0  0  0  0  0  0  0
   42.6500   33.5180   42.3820 H   0  0  0  0  0  0  0  0  0  0  0  0
   42.7440   29.1000   41.5160 C   0  0  0  0  0  0  0  0  0  0  0  0
   43.3250   30.3810   41.3270 C   0  0  0  0  0  0  0  0  0  0  0  0
   42.6480   31.4740   41.8500 C   0  0  0  0  0  0  0  0  0  0  0  0
   41.4660   31.2240   42.5100 N   0  0  0  0  0  0  0  0  0  0  0  0
   40.9500   30.0140   42.6700 C   0  0  0  0  0  0  0  0  0  0  0  0
   41.5800   28.9430   42.1770 N   0  0  0  0  0  0  0  0  0  0  0  0
   43.3400   28.2980   41.0750 H   0  0  0  0  0  0  0  0  0  0  0  0
   44.2590   30.5070   40.7960 H   0  0  0  0  0  0  0  0  0  0  0  0
   40.0170   29.9240   43.2030 H   0  0  0  0  0  0  0  0  0  0  0  0
  1 19  1  0  0  0  0
  1  2  1  0  0  0  0
  2  7  1  0  0  0  0
  3  2  2  0  0  0  0
  3  8  1  0  0  0  0
  4  3  1  0  0  0  0
  5  6  1  0  0  0  0
  5  4  2  0  0  0  0
  6  1  2  0  0  0  0
  9  4  1  0  0  0  0
 10  5  1  0  0  0  0
 11 12  2  0  0  0  0
 11  6  1  0  0  0  0
 12 13  1  0  0  0  0
 14 12  1  0  0  0  0
 15 14  1  0  0  0  0
 16 18  2  0  0  0  0
 16 14  1  0  0  0  0
 17 16  1  0  0  0  0
 18 11  1  0  0  0  0
 19 22  1  0  0  0  0
 20 19  1  0  0  0  0
 21 19  1  0  0  0  0
 22 27  1  0  0  0  0
 22 23  1  0  0  0  0
 22 24  1  0  0  0  0
 25 30  1  0  0  0  0
 26 25  2  0  0  0  0
 26 27  1  0  0  0  0
 27 28  2  0  0  0  0
 28 29  1  0  0  0  0
 29 33  1  0  0  0  0
 30 29  2  0  0  0  0
 31 25  1  0  0  0  0
 32 26  1  0  0  0  0
M  END
>  <minimizedAffinity>
-3.42821097

>  <minimizedRMSD>
7.12879944

$$$$
