
 OpenBabel03252508203D

 33 35  0  0  0  0  0  0  0  0999 V2000
   45.5470   34.4660   41.2340 C   0  0  0  0  0  0  0  0  0  0  0  0
   46.2140   34.9020   42.3750 C   0  0  0  0  0  0  0  0  0  0  0  0
   45.6330   35.5320   43.4640 C   0  0  0  0  0  0  0  0  0  0  0  0
   44.2680   35.7250   43.3700 C   0  0  0  0  0  0  0  0  0  0  0  0
   43.5890   35.3040   42.2560 C   0  0  0  0  0  0  0  0  0  0  0  0
   44.1800   34.6740   41.1720 C   0  0  0  0  0  0  0  0  0  0  0  0
   47.2980   34.7120   42.3730 H   0  0  0  0  0  0  0  0  0  0  0  0
   46.2980   35.8030   44.2640 H   0  0  0  0  0  0  0  0  0  0  0  0
   43.8100   36.2140   44.2130 H   0  0  0  0  0  0  0  0  0  0  0  0
   42.5280   35.5320   42.3420 H   0  0  0  0  0  0  0  0  0  0  0  0
   43.2600   34.3230   40.1080 C   0  0  0  0  0  0  0  0  0  0  0  0
   42.7800   33.1570   39.5820 C   0  0  0  0  0  0  0  0  0  0  0  0
   43.0410   32.1720   39.9000 H   0  0  0  0  0  0  0  0  0  0  0  0
   41.9120   33.3070   38.6050 N   0  0  0  0  0  0  0  0  0  0  0  0
   41.3990   32.6150   38.0360 H   0  0  0  0  0  0  0  0  0  0  0  0
   41.7990   34.6350   38.4670 C   0  0  0  0  0  0  0  0  0  0  0  0
   41.2060   35.2490   37.7950 H   0  0  0  0  0  0  0  0  0  0  0  0
   42.6030   35.2140   39.3640 N   0  0  0  0  0  0  0  0  0  0  0  0
   46.2130   33.8250   40.1070 C   0  0  0  0  0  0  0  0  0  0  0  0
   45.7490   34.2180   39.1750 H   0  0  0  0  0  0  0  0  0  0  0  0
   46.1730   32.7330   40.1130 H   0  0  0  0  0  0  0  0  0  0  0  0
   47.6780   34.2880   39.9780 C   0  0  0  0  0  0  0  0  0  0  0  0
   47.6630   35.3670   39.8160 H   0  0  0  0  0  0  0  0  0  0  0  0
   48.2690   33.9710   40.8530 H   0  0  0  0  0  0  0  0  0  0  0  0
   48.5670   33.4430   36.3990 C   0  0  0  0  0  0  0  0  0  0  0  0
   47.9960   34.1310   37.5020 C   0  0  0  0  0  0  0  0  0  0  0  0
   48.2410   33.6220   38.7700 C   0  0  0  0  0  0  0  0  0  0  0  0
   49.0210   32.4890   38.8520 N   0  0  0  0  0  0  0  0  0  0  0  0
   49.5390   31.8710   37.8010 C   0  0  0  0  0  0  0  0  0  0  0  0
   49.3190   32.3390   36.5690 N   0  0  0  0  0  0  0  0  0  0  0  0
   48.3250   33.9100   35.4420 H   0  0  0  0  0  0  0  0  0  0  0  0
   47.3920   35.0180   37.3660 H   0  0  0  0  0  0  0  0  0  0  0  0
   50.1350   30.9890   37.9720 H   0  0  0  0  0  0  0  0  0  0  0  0
  1  2  1  0  0  0  0
  2  3  2  0  0  0  0
  3  8  1  0  0  0  0
  4  3  1  0  0  0  0
  4  9  1  0  0  0  0
  5 10  1  0  0  0  0
  5  4  2  0  0  0  0
  6  1  2  0  0  0  0
  6  5  1  0  0  0  0
  7  2  1  0  0  0  0
 11  6  1  0  0  0  0
 12 13  1  0  0  0  0
 12 11  2  0  0  0  0
 14 12  1  0  0  0  0
 15 14  1  0  0  0  0
 16 14  1  0  0  0  0
 16 18  2  0  0  0  0
 17 16  1  0  0  0  0
 18 11  1  0  0  0  0
 19 21  1  0  0  0  0
 19  1  1  0  0  0  0
 20 19  1  0  0  0  0
 22 19  1  0  0  0  0
 22 24  1  0  0  0  0
 23 22  1  0  0  0  0
 25 30  2  0  0  0  0
 25 26  1  0  0  0  0
 26 27  2  0  0  0  0
 27 28  1  0  0  0  0
 27 22  1  0  0  0  0
 29 33  1  0  0  0  0
 29 28  2  0  0  0  0
 30 29  1  0  0  0  0
 31 25  1  0  0  0  0
 32 26  1  0  0  0  0
M  END
>  <minimizedAffinity>
-4.72918606

>  <minimizedRMSD>
6.54570675

$$$$
