
 OpenBabel03252507553D

 43 46  0  0  1  0  0  0  0  0999 V2000
   47.1170   34.8270   42.1080 C   0  0  2  0  0  0  0  0  0  0  0  0
   46.3300   34.3400   40.8910 C   0  0  0  0  0  0  0  0  0  0  0  0
   47.5140   34.1700   39.9220 C   0  0  0  0  0  0  0  0  0  0  0  0
   48.6470   33.6900   40.7750 C   0  0  1  0  0  0  0  0  0  0  0  0
   48.1450   33.7340   42.1890 C   0  0  0  0  0  0  0  0  0  0  0  0
   47.5030   35.8060   41.8320 H   0  0  0  0  0  0  0  0  0  0  0  0
   45.6980   35.1750   40.5410 H   0  0  0  0  0  0  0  0  0  0  0  0
   45.8030   33.4000   41.0800 H   0  0  0  0  0  0  0  0  0  0  0  0
   47.7180   35.1200   39.4010 H   0  0  0  0  0  0  0  0  0  0  0  0
   47.2470   33.3450   39.2040 H   0  0  0  0  0  0  0  0  0  0  0  0
   49.5510   34.3420   40.6720 H   0  0  0  0  0  0  0  0  0  0  0  0
   47.6790   32.8040   42.5130 H   0  0  0  0  0  0  0  0  0  0  0  0
   48.9840   34.0240   42.8610 H   0  0  0  0  0  0  0  0  0  0  0  0
   44.5340   35.7950   44.6730 C   0  0  0  0  0  0  0  0  0  0  0  0
   45.2660   35.8420   43.4920 C   0  0  0  0  0  0  0  0  0  0  0  0
   46.2500   34.8680   43.3200 C   0  0  0  0  0  0  0  0  0  0  0  0
   46.4700   33.8970   44.3090 N   0  0  0  0  0  0  0  0  0  0  0  0
   45.7190   33.9080   45.4400 C   0  0  0  0  0  0  0  0  0  0  0  0
   44.7630   34.8520   45.6130 N   0  0  0  0  0  0  0  0  0  0  0  0
   43.7680   36.5460   44.8170 H   0  0  0  0  0  0  0  0  0  0  0  0
   45.1140   36.5760   42.7260 H   0  0  0  0  0  0  0  0  0  0  0  0
   45.9440   33.1350   46.1520 H   0  0  0  0  0  0  0  0  0  0  0  0
   49.0770   32.2650   40.5010 C   0  0  2  0  0  0  0  0  0  0  0  0
   49.8920   31.6390   41.5330 C   0  0  0  0  0  0  0  0  0  0  0  0
   50.4680   31.9370   40.1840 C   0  0  1  0  0  0  0  0  0  0  0  0
   48.2920   31.6550   40.0210 H   0  0  0  0  0  0  0  0  0  0  0  0
   50.2920   32.2680   42.3730 H   0  0  0  0  0  0  0  0  0  0  0  0
   49.7670   30.5860   41.8550 H   0  0  0  0  0  0  0  0  0  0  0  0
   51.1230   32.7910   39.9700 H   0  0  0  0  0  0  0  0  0  0  0  0
   50.6960   30.8340   39.3250 O   0  0  0  0  0  0  0  0  0  0  0  0
   51.1310   30.3810   36.7950 O   0  0  0  0  0  0  0  0  0  0  0  0
   51.3120   31.4190   37.8740 P   0  0  1  0  0  0  0  0  0  0  0  0
   50.4390   32.8160   37.3900 O   0  0  0  0  0  0  0  0  0  0  0  0
   49.4960   32.7000   37.6590 H   0  0  0  0  0  0  0  0  0  0  0  0
   52.9140   31.8530   37.9270 O   0  0  0  0  0  0  0  0  0  0  0  0
   53.9180   30.9450   38.2630 C   0  0  0  0  0  0  0  0  0  0  0  0
   54.9520   30.8110   37.3330 C   0  0  0  0  0  0  0  0  0  0  0  0
   55.2130   31.2400   36.3630 H   0  0  0  0  0  0  0  0  0  0  0  0
   55.7970   29.8910   37.8650 N   0  0  0  0  0  0  0  0  0  0  0  0
   56.7040   29.4950   37.4940 H   0  0  0  0  0  0  0  0  0  0  0  0
   55.3350   29.4650   39.0530 C   0  0  0  0  0  0  0  0  0  0  0  0
   55.7220   28.7490   39.7640 H   0  0  0  0  0  0  0  0  0  0  0  0
   54.1820   30.1160   39.2890 N   0  0  0  0  0  0  0  0  0  0  0  0
  1  6  1  6  0  0  0
  1  5  1  0  0  0  0
  1 16  1  0  0  0  0
  2  8  1  0  0  0  0
  2  1  1  0  0  0  0
  3  4  1  0  0  0  0
  3  2  1  0  0  0  0
  4 11  1  6  0  0  0
  4  5  1  0  0  0  0
  5 12  1  0  0  0  0
  5 13  1  0  0  0  0
  7  2  1  0  0  0  0
  9  3  1  0  0  0  0
 10  3  1  0  0  0  0
 14 20  1  0  0  0  0
 14 19  1  0  0  0  0
 15 14  2  0  0  0  0
 16 15  1  0  0  0  0
 16 17  2  0  0  0  0
 17 18  1  0  0  0  0
 18 19  2  0  0  0  0
 18 22  1  0  0  0  0
 21 15  1  0  0  0  0
 23 26  1  6  0  0  0
 23  4  1  0  0  0  0
 23 24  1  0  0  0  0
 24 28  1  0  0  0  0
 24 27  1  0  0  0  0
 25 29  1  6  0  0  0
 25 23  1  0  0  0  0
 25 24  1  0  0  0  0
 30 25  1  0  0  0  0
 32 31  2  6  0  0  0
 32 35  1  0  0  0  0
 32 30  1  0  0  0  0
 33 34  1  0  0  0  0
 33 32  1  0  0  0  0
 35 36  1  0  0  0  0
 36 43  1  0  0  0  0
 37 39  1  0  0  0  0
 37 36  2  0  0  0  0
 38 37  1  0  0  0  0
 39 41  1  0  0  0  0
 40 39  1  0  0  0  0
 41 43  2  0  0  0  0
 41 42  1  0  0  0  0
M  END
>  <minimizedAffinity>
-5.31036234

>  <minimizedRMSD>
0.99389112

$$$$
