
 OpenBabel03242518583D

 24 26  0  0  1  0  0  0  0  0999 V2000
   36.2880   28.3150   39.8800 C   0  0  1  0  0  0  0  0  0  0  0  0
   34.9300   28.9700   40.2610 C   0  0  0  0  0  0  0  0  0  0  0  0
   35.7970   29.4980   39.1990 C   0  0  1  0  0  0  0  0  0  0  0  0
   36.1780   27.2550   39.4970 H   0  0  0  0  0  0  0  0  0  0  0  0
   34.0330   28.3890   39.9640 H   0  0  0  0  0  0  0  0  0  0  0  0
   34.8560   29.4420   41.2510 H   0  0  0  0  0  0  0  0  0  0  0  0
   35.4960   29.3360   38.1430 H   0  0  0  0  0  0  0  0  0  0  0  0
   37.2810   28.3580   40.9860 C   0  0  0  0  0  0  0  0  0  0  0  0
   36.8140   28.0410   42.2860 C   0  0  0  0  0  0  0  0  0  0  0  0
   37.7370   28.0610   43.3400 C   0  0  0  0  0  0  0  0  0  0  0  0
   39.0400   28.3860   43.0490 N   0  0  0  0  0  0  0  0  0  0  0  0
   39.4290   28.6800   41.7850 C   0  0  0  0  0  0  0  0  0  0  0  0
   38.5560   28.6670   40.7600 N   0  0  0  0  0  0  0  0  0  0  0  0
   35.7940   27.7880   42.5390 H   0  0  0  0  0  0  0  0  0  0  0  0
   37.4100   27.8230   44.3410 H   0  0  0  0  0  0  0  0  0  0  0  0
   40.4850   28.9190   41.7000 H   0  0  0  0  0  0  0  0  0  0  0  0
   36.4650   30.8000   39.5140 C   0  0  0  0  0  0  0  0  0  0  0  0
   36.4370   31.5930   40.6640 C   0  0  0  0  0  0  0  0  0  0  0  0
   35.8670   31.3250   41.5420 H   0  0  0  0  0  0  0  0  0  0  0  0
   37.2020   32.6800   40.4830 N   0  0  0  0  0  0  0  0  0  0  0  0
   37.3050   33.3920   41.2350 H   0  0  0  0  0  0  0  0  0  0  0  0
   37.7020   32.5790   39.2500 C   0  0  0  0  0  0  0  0  0  0  0  0
   38.3610   33.3660   38.8870 H   0  0  0  0  0  0  0  0  0  0  0  0
   37.2800   31.4610   38.6380 N   0  0  0  0  0  0  0  0  0  0  0  0
  1  4  1  6  0  0  0
  1  2  1  0  0  0  0
  1  8  1  0  0  0  0
  2  6  1  0  0  0  0
  3  7  1  6  0  0  0
  3 17  1  0  0  0  0
  3  1  1  0  0  0  0
  3  2  1  0  0  0  0
  5  2  1  0  0  0  0
  8  9  1  0  0  0  0
  9 14  1  0  0  0  0
  9 10  2  0  0  0  0
 10 15  1  0  0  0  0
 11 10  1  0  0  0  0
 12 11  2  0  0  0  0
 13  8  2  0  0  0  0
 13 12  1  0  0  0  0
 16 12  1  0  0  0  0
 17 18  2  0  0  0  0
 18 19  1  0  0  0  0
 20 18  1  0  0  0  0
 20 21  1  0  0  0  0
 22 20  1  0  0  0  0
 23 22  1  0  0  0  0
 24 22  2  0  0  0  0
 24 17  1  0  0  0  0
M  END
>  <minimizedAffinity>
-4.16093063

$$$$

 OpenBabel03242518583D

 24 26  0  0  1  0  0  0  0  0999 V2000
   36.7560   25.3480   42.3430 C   0  0  1  0  0  0  0  0  0  0  0  0
   36.9480   24.6120   40.9860 C   0  0  0  0  0  0  0  0  0  0  0  0
   37.7160   24.2700   42.1910 C   0  0  1  0  0  0  0  0  0  0  0  0
   35.7130   25.2300   42.7690 H   0  0  0  0  0  0  0  0  0  0  0  0
   36.1090   23.9480   40.6950 H   0  0  0  0  0  0  0  0  0  0  0  0
   37.3790   25.1880   40.1560 H   0  0  0  0  0  0  0  0  0  0  0  0
   37.4580   23.3380   42.7350 H   0  0  0  0  0  0  0  0  0  0  0  0
   37.1220   26.7880   42.2780 C   0  0  0  0  0  0  0  0  0  0  0  0
   37.4290   27.4330   43.5030 C   0  0  0  0  0  0  0  0  0  0  0  0
   37.7900   28.7850   43.4610 C   0  0  0  0  0  0  0  0  0  0  0  0
   37.8260   29.4060   42.2360 N   0  0  0  0  0  0  0  0  0  0  0  0
   37.5230   28.7370   41.0970 C   0  0  0  0  0  0  0  0  0  0  0  0
   37.1720   27.4380   41.1170 N   0  0  0  0  0  0  0  0  0  0  0  0
   37.4010   26.9670   44.4780 H   0  0  0  0  0  0  0  0  0  0  0  0
   38.0290   29.3020   44.3790 H   0  0  0  0  0  0  0  0  0  0  0  0
   37.5920   29.3500   40.2020 H   0  0  0  0  0  0  0  0  0  0  0  0
   39.1660   24.6420   42.1470 C   0  0  0  0  0  0  0  0  0  0  0  0
   39.9970   24.9710   41.0730 C   0  0  0  0  0  0  0  0  0  0  0  0
   39.6480   24.9930   40.0510 H   0  0  0  0  0  0  0  0  0  0  0  0
   41.2320   25.2380   41.5230 N   0  0  0  0  0  0  0  0  0  0  0  0
   41.9950   25.5050   40.8660 H   0  0  0  0  0  0  0  0  0  0  0  0
   41.1860   25.0820   42.8470 C   0  0  0  0  0  0  0  0  0  0  0  0
   42.0920   25.2500   43.4260 H   0  0  0  0  0  0  0  0  0  0  0  0
   39.9580   24.7230   43.2570 N   0  0  0  0  0  0  0  0  0  0  0  0
  1  4  1  1  0  0  0
  2  3  1  0  0  0  0
  2  1  1  0  0  0  0
  3  1  1  0  0  0  0
  3  7  1  1  0  0  0
  5  2  1  0  0  0  0
  6  2  1  0  0  0  0
  8  1  1  0  0  0  0
  8  9  1  0  0  0  0
  9 14  1  0  0  0  0
 10  9  2  0  0  0  0
 10 15  1  0  0  0  0
 11 10  1  0  0  0  0
 12 13  1  0  0  0  0
 12 11  2  0  0  0  0
 13  8  2  0  0  0  0
 16 12  1  0  0  0  0
 17  3  1  0  0  0  0
 17 24  1  0  0  0  0
 18 20  1  0  0  0  0
 18 17  2  0  0  0  0
 19 18  1  0  0  0  0
 20 22  1  0  0  0  0
 21 20  1  0  0  0  0
 22 24  2  0  0  0  0
 22 23  1  0  0  0  0
M  END
>  <minimizedAffinity>
-4.12117815

$$$$

 OpenBabel03242518583D

 24 26  0  0  1  0  0  0  0  0999 V2000
   37.3230   31.4920   37.9860 C   0  0  1  0  0  0  0  0  0  0  0  0
   37.8800   30.0700   37.6910 C   0  0  0  0  0  0  0  0  0  0  0  0
   36.6720   30.2990   38.4950 C   0  0  1  0  0  0  0  0  0  0  0  0
   37.0120   32.0490   37.0500 H   0  0  0  0  0  0  0  0  0  0  0  0
   37.7550   29.7280   36.6430 H   0  0  0  0  0  0  0  0  0  0  0  0
   38.8470   29.8020   38.1420 H   0  0  0  0  0  0  0  0  0  0  0  0
   35.6850   30.0770   38.0390 H   0  0  0  0  0  0  0  0  0  0  0  0
   38.2560   32.3240   38.7900 C   0  0  0  0  0  0  0  0  0  0  0  0
   37.6890   33.3740   39.5550 C   0  0  0  0  0  0  0  0  0  0  0  0
   38.5490   34.1610   40.3320 C   0  0  0  0  0  0  0  0  0  0  0  0
   39.8910   33.8670   40.3060 N   0  0  0  0  0  0  0  0  0  0  0  0
   40.3770   32.8490   39.5550 C   0  0  0  0  0  0  0  0  0  0  0  0
   39.5650   32.0830   38.8020 N   0  0  0  0  0  0  0  0  0  0  0  0
   36.6380   33.6280   39.5860 H   0  0  0  0  0  0  0  0  0  0  0  0
   38.1450   34.9680   40.9250 H   0  0  0  0  0  0  0  0  0  0  0  0
   41.4530   32.7300   39.6290 H   0  0  0  0  0  0  0  0  0  0  0  0
   36.8170   30.0070   39.9560 C   0  0  0  0  0  0  0  0  0  0  0  0
   36.0690   30.4340   41.0570 C   0  0  0  0  0  0  0  0  0  0  0  0
   35.2160   31.0910   40.9620 H   0  0  0  0  0  0  0  0  0  0  0  0
   36.5770   29.9060   42.1800 N   0  0  0  0  0  0  0  0  0  0  0  0
   36.1500   30.1110   43.1080 H   0  0  0  0  0  0  0  0  0  0  0  0
   37.6200   29.1650   41.8030 C   0  0  0  0  0  0  0  0  0  0  0  0
   38.1900   28.6380   42.5660 H   0  0  0  0  0  0  0  0  0  0  0  0
   37.7940   29.2030   40.4720 N   0  0  0  0  0  0  0  0  0  0  0  0
  1  4  1  6  0  0  0
  1  3  1  0  0  0  0
  1  8  1  0  0  0  0
  2  1  1  0  0  0  0
  2  6  1  0  0  0  0
  2  3  1  0  0  0  0
  3  7  1  6  0  0  0
  3 17  1  0  0  0  0
  5  2  1  0  0  0  0
  8 13  2  0  0  0  0
  8  9  1  0  0  0  0
  9 14  1  0  0  0  0
  9 10  2  0  0  0  0
 10 15  1  0  0  0  0
 11 10  1  0  0  0  0
 12 16  1  0  0  0  0
 12 11  2  0  0  0  0
 13 12  1  0  0  0  0
 17 24  1  0  0  0  0
 17 18  2  0  0  0  0
 18 20  1  0  0  0  0
 19 18  1  0  0  0  0
 20 21  1  0  0  0  0
 22 20  1  0  0  0  0
 22 23  1  0  0  0  0
 24 22  2  0  0  0  0
M  END
>  <minimizedAffinity>
-4.11326122

$$$$

 OpenBabel03242518583D

 24 26  0  0  1  0  0  0  0  0999 V2000
   39.5710   25.4950   43.0650 C   0  0  1  0  0  0  0  0  0  0  0  0
   40.7270   26.4750   42.7150 C   0  0  0  0  0  0  0  0  0  0  0  0
   39.6690   26.8060   43.6790 C   0  0  1  0  0  0  0  0  0  0  0  0
   39.9340   24.5310   43.5360 H   0  0  0  0  0  0  0  0  0  0  0  0
   41.7210   26.1820   43.1090 H   0  0  0  0  0  0  0  0  0  0  0  0
   40.7470   26.8900   41.6970 H   0  0  0  0  0  0  0  0  0  0  0  0
   39.9180   26.7960   44.7610 H   0  0  0  0  0  0  0  0  0  0  0  0
   38.6930   25.1980   41.9020 C   0  0  0  0  0  0  0  0  0  0  0  0
   37.4000   24.6860   42.1830 C   0  0  0  0  0  0  0  0  0  0  0  0
   36.5520   24.4130   41.1030 C   0  0  0  0  0  0  0  0  0  0  0  0
   37.0230   24.6580   39.8350 N   0  0  0  0  0  0  0  0  0  0  0  0
   38.2690   25.1470   39.6280 C   0  0  0  0  0  0  0  0  0  0  0  0
   39.0990   25.4150   40.6540 N   0  0  0  0  0  0  0  0  0  0  0  0
   37.0110   24.4810   43.1710 H   0  0  0  0  0  0  0  0  0  0  0  0
   35.5610   24.0240   41.2870 H   0  0  0  0  0  0  0  0  0  0  0  0
   38.5090   25.2920   38.5790 H   0  0  0  0  0  0  0  0  0  0  0  0
   38.6990   27.8530   43.2240 C   0  0  0  0  0  0  0  0  0  0  0  0
   37.4190   28.1780   43.6780 C   0  0  0  0  0  0  0  0  0  0  0  0
   36.9370   27.6530   44.4910 H   0  0  0  0  0  0  0  0  0  0  0  0
   36.9310   29.2000   42.9600 N   0  0  0  0  0  0  0  0  0  0  0  0
   35.9830   29.5850   43.1540 H   0  0  0  0  0  0  0  0  0  0  0  0
   37.8770   29.5150   42.0740 C   0  0  0  0  0  0  0  0  0  0  0  0
   37.6900   30.3310   41.3770 H   0  0  0  0  0  0  0  0  0  0  0  0
   38.9550   28.7240   42.2040 N   0  0  0  0  0  0  0  0  0  0  0  0
  1  4  1  1  0  0  0
  1  3  1  0  0  0  0
  2  1  1  0  0  0  0
  2  5  1  0  0  0  0
  2  3  1  0  0  0  0
  3  7  1  1  0  0  0
  6  2  1  0  0  0  0
  8  9  1  0  0  0  0
  8  1  1  0  0  0  0
  9 14  1  0  0  0  0
 10 15  1  0  0  0  0
 10  9  2  0  0  0  0
 11 10  1  0  0  0  0
 12 11  2  0  0  0  0
 12 13  1  0  0  0  0
 13  8  2  0  0  0  0
 16 12  1  0  0  0  0
 17 18  2  0  0  0  0
 17  3  1  0  0  0  0
 18 19  1  0  0  0  0
 20 21  1  0  0  0  0
 20 18  1  0  0  0  0
 22 24  2  0  0  0  0
 22 20  1  0  0  0  0
 23 22  1  0  0  0  0
 24 17  1  0  0  0  0
M  END
>  <minimizedAffinity>
-4.10233593

$$$$

 OpenBabel03242518583D

 24 26  0  0  1  0  0  0  0  0999 V2000
   35.4470   29.6680   40.2420 C   0  0  1  0  0  0  0  0  0  0  0  0
   35.7880   28.2760   39.6380 C   0  0  0  0  0  0  0  0  0  0  0  0
   35.8030   28.5410   41.0840 C   0  0  1  0  0  0  0  0  0  0  0  0
   34.3870   30.0010   40.0190 H   0  0  0  0  0  0  0  0  0  0  0  0
   34.9220   27.7270   39.2160 H   0  0  0  0  0  0  0  0  0  0  0  0
   36.7100   28.1940   39.0450 H   0  0  0  0  0  0  0  0  0  0  0  0
   34.9720   28.1420   41.7020 H   0  0  0  0  0  0  0  0  0  0  0  0
   36.4100   30.7260   39.8370 C   0  0  0  0  0  0  0  0  0  0  0  0
   36.8130   30.7480   38.4780 C   0  0  0  0  0  0  0  0  0  0  0  0
   37.7090   31.7450   38.0730 C   0  0  0  0  0  0  0  0  0  0  0  0
   38.1430   32.6440   39.0170 N   0  0  0  0  0  0  0  0  0  0  0  0
   37.7230   32.5740   40.3040 C   0  0  0  0  0  0  0  0  0  0  0  0
   36.8630   31.6220   40.7110 N   0  0  0  0  0  0  0  0  0  0  0  0
   36.4900   30.0480   37.7200 H   0  0  0  0  0  0  0  0  0  0  0  0
   38.0320   31.7860   37.0430 H   0  0  0  0  0  0  0  0  0  0  0  0
   38.1450   33.3460   40.9410 H   0  0  0  0  0  0  0  0  0  0  0  0
   37.1610   28.5550   41.7130 C   0  0  0  0  0  0  0  0  0  0  0  0
   37.5860   28.9840   42.9730 C   0  0  0  0  0  0  0  0  0  0  0  0
   36.9080   29.3990   43.7060 H   0  0  0  0  0  0  0  0  0  0  0  0
   38.9080   28.7970   43.0930 N   0  0  0  0  0  0  0  0  0  0  0  0
   39.4080   29.0580   43.9680 H   0  0  0  0  0  0  0  0  0  0  0  0
   39.3120   28.2630   41.9390 C   0  0  0  0  0  0  0  0  0  0  0  0
   40.3680   28.0250   41.8140 H   0  0  0  0  0  0  0  0  0  0  0  0
   38.2880   28.1030   41.0850 N   0  0  0  0  0  0  0  0  0  0  0  0
  1  4  1  6  0  0  0
  1  3  1  0  0  0  0
  2  1  1  0  0  0  0
  2  3  1  0  0  0  0
  3  7  1  1  0  0  0
  3 17  1  0  0  0  0
  5  2  1  0  0  0  0
  6  2  1  0  0  0  0
  8  1  1  0  0  0  0
  8 13  1  0  0  0  0
  9  8  2  0  0  0  0
 10  9  1  0  0  0  0
 10 11  2  0  0  0  0
 11 12  1  0  0  0  0
 12 13  2  0  0  0  0
 12 16  1  0  0  0  0
 14  9  1  0  0  0  0
 15 10  1  0  0  0  0
 17 18  2  0  0  0  0
 18 20  1  0  0  0  0
 18 19  1  0  0  0  0
 20 21  1  0  0  0  0
 22 20  1  0  0  0  0
 23 22  1  0  0  0  0
 24 17  1  0  0  0  0
 24 22  2  0  0  0  0
M  END
>  <minimizedAffinity>
-4.0415554

$$$$

 OpenBabel03242518583D

 24 26  0  0  1  0  0  0  0  0999 V2000
   37.7700   28.4240   43.5670 C   0  0  1  0  0  0  0  0  0  0  0  0
   36.6020   27.4570   43.2240 C   0  0  0  0  0  0  0  0  0  0  0  0
   38.0080   27.0330   43.2280 C   0  0  1  0  0  0  0  0  0  0  0  0
   37.7130   28.8320   44.6230 H   0  0  0  0  0  0  0  0  0  0  0  0
   35.9660   27.1700   44.0860 H   0  0  0  0  0  0  0  0  0  0  0  0
   36.0460   27.6460   42.2950 H   0  0  0  0  0  0  0  0  0  0  0  0
   38.3680   26.4040   44.0690 H   0  0  0  0  0  0  0  0  0  0  0  0
   37.9030   29.5410   42.5940 C   0  0  0  0  0  0  0  0  0  0  0  0
   39.1570   30.1990   42.5340 C   0  0  0  0  0  0  0  0  0  0  0  0
   39.3080   31.2440   41.6140 C   0  0  0  0  0  0  0  0  0  0  0  0
   38.2310   31.5680   40.8230 N   0  0  0  0  0  0  0  0  0  0  0  0
   37.0550   30.9020   40.9260 C   0  0  0  0  0  0  0  0  0  0  0  0
   36.8920   29.8960   41.8050 N   0  0  0  0  0  0  0  0  0  0  0  0
   40.0150   29.9660   43.1490 H   0  0  0  0  0  0  0  0  0  0  0  0
   40.2520   31.7630   41.5450 H   0  0  0  0  0  0  0  0  0  0  0  0
   36.2910   31.2620   40.2430 H   0  0  0  0  0  0  0  0  0  0  0  0
   38.5890   26.7450   41.8780 C   0  0  0  0  0  0  0  0  0  0  0  0
   39.9160   26.6560   41.4490 C   0  0  0  0  0  0  0  0  0  0  0  0
   40.7550   26.8040   42.1140 H   0  0  0  0  0  0  0  0  0  0  0  0
   39.9480   26.3720   40.1390 N   0  0  0  0  0  0  0  0  0  0  0  0
   40.8550   26.2650   39.6370 H   0  0  0  0  0  0  0  0  0  0  0  0
   38.6770   26.2820   39.7470 C   0  0  0  0  0  0  0  0  0  0  0  0
   38.4650   26.0550   38.7030 H   0  0  0  0  0  0  0  0  0  0  0  0
   37.8310   26.5020   40.7680 N   0  0  0  0  0  0  0  0  0  0  0  0
  1  4  1  1  0  0  0
  2  3  1  0  0  0  0
  2  1  1  0  0  0  0
  2  5  1  0  0  0  0
  3  1  1  0  0  0  0
  3  7  1  1  0  0  0
  6  2  1  0  0  0  0
  8  1  1  0  0  0  0
  9  8  1  0  0  0  0
  9 14  1  0  0  0  0
 10  9  2  0  0  0  0
 11 12  2  0  0  0  0
 11 10  1  0  0  0  0
 12 13  1  0  0  0  0
 13  8  2  0  0  0  0
 15 10  1  0  0  0  0
 16 12  1  0  0  0  0
 17  3  1  0  0  0  0
 18 17  2  0  0  0  0
 18 19  1  0  0  0  0
 20 18  1  0  0  0  0
 21 20  1  0  0  0  0
 22 20  1  0  0  0  0
 22 24  2  0  0  0  0
 23 22  1  0  0  0  0
 24 17  1  0  0  0  0
M  END
>  <minimizedAffinity>
-4.00861549

$$$$

 OpenBabel03242518583D

 24 26  0  0  1  0  0  0  0  0999 V2000
   37.3610   27.3590   38.8460 C   0  0  1  0  0  0  0  0  0  0  0  0
   35.8220   27.3520   38.6210 C   0  0  0  0  0  0  0  0  0  0  0  0
   36.6430   28.5600   38.4610 C   0  0  1  0  0  0  0  0  0  0  0  0
   37.9170   26.6800   38.1300 H   0  0  0  0  0  0  0  0  0  0  0  0
   35.4870   26.8230   37.7060 H   0  0  0  0  0  0  0  0  0  0  0  0
   35.1830   27.1860   39.5000 H   0  0  0  0  0  0  0  0  0  0  0  0
   36.8570   28.9210   37.4340 H   0  0  0  0  0  0  0  0  0  0  0  0
   37.7420   27.0450   40.2490 C   0  0  0  0  0  0  0  0  0  0  0  0
   37.0500   25.9830   40.8840 C   0  0  0  0  0  0  0  0  0  0  0  0
   37.4030   25.6620   42.2010 C   0  0  0  0  0  0  0  0  0  0  0  0
   38.4020   26.3940   42.7970 N   0  0  0  0  0  0  0  0  0  0  0  0
   39.0290   27.3990   42.1400 C   0  0  0  0  0  0  0  0  0  0  0  0
   38.7020   27.7230   40.8750 N   0  0  0  0  0  0  0  0  0  0  0  0
   36.2580   25.3980   40.4370 H   0  0  0  0  0  0  0  0  0  0  0  0
   36.8930   24.8570   42.7090 H   0  0  0  0  0  0  0  0  0  0  0  0
   39.7960   27.8920   42.7300 H   0  0  0  0  0  0  0  0  0  0  0  0
   36.4440   29.6080   39.5120 C   0  0  0  0  0  0  0  0  0  0  0  0
   35.4650   29.7430   40.5000 C   0  0  0  0  0  0  0  0  0  0  0  0
   34.6600   29.0320   40.6250 H   0  0  0  0  0  0  0  0  0  0  0  0
   35.6990   30.8510   41.2190 N   0  0  0  0  0  0  0  0  0  0  0  0
   35.0710   31.1200   42.0060 H   0  0  0  0  0  0  0  0  0  0  0  0
   36.7960   31.4040   40.7010 C   0  0  0  0  0  0  0  0  0  0  0  0
   37.1720   32.3280   41.1370 H   0  0  0  0  0  0  0  0  0  0  0  0
   37.2710   30.6830   39.6720 N   0  0  0  0  0  0  0  0  0  0  0  0
  1  4  1  6  0  0  0
  1  8  1  0  0  0  0
  2  1  1  0  0  0  0
  2  6  1  0  0  0  0
  3  7  1  6  0  0  0
  3  2  1  0  0  0  0
  3  1  1  0  0  0  0
  3 17  1  0  0  0  0
  5  2  1  0  0  0  0
  8 13  2  0  0  0  0
  8  9  1  0  0  0  0
  9 10  2  0  0  0  0
 10 15  1  0  0  0  0
 10 11  1  0  0  0  0
 12 16  1  0  0  0  0
 12 11  2  0  0  0  0
 13 12  1  0  0  0  0
 14  9  1  0  0  0  0
 17 24  1  0  0  0  0
 17 18  2  0  0  0  0
 18 19  1  0  0  0  0
 18 20  1  0  0  0  0
 20 21  1  0  0  0  0
 22 23  1  0  0  0  0
 22 20  1  0  0  0  0
 24 22  2  0  0  0  0
M  END
>  <minimizedAffinity>
-3.93989635

$$$$

 OpenBabel03242518583D

 24 26  0  0  1  0  0  0  0  0999 V2000
   38.1890   25.3190   41.0520 C   0  0  1  0  0  0  0  0  0  0  0  0
   37.1870   24.8650   42.1520 C   0  0  0  0  0  0  0  0  0  0  0  0
   36.9650   26.0530   41.3160 C   0  0  1  0  0  0  0  0  0  0  0  0
   38.3190   24.5540   40.2270 H   0  0  0  0  0  0  0  0  0  0  0  0
   36.6190   23.9440   41.9130 H   0  0  0  0  0  0  0  0  0  0  0  0
   37.5200   24.9330   43.1980 H   0  0  0  0  0  0  0  0  0  0  0  0
   36.2050   25.9970   40.5100 H   0  0  0  0  0  0  0  0  0  0  0  0
   39.5150   25.7080   41.6010 C   0  0  0  0  0  0  0  0  0  0  0  0
   40.0630   24.8810   42.6140 C   0  0  0  0  0  0  0  0  0  0  0  0
   41.3170   25.2220   43.1340 C   0  0  0  0  0  0  0  0  0  0  0  0
   41.9430   26.3380   42.6310 N   0  0  0  0  0  0  0  0  0  0  0  0
   41.3690   27.0910   41.6620 C   0  0  0  0  0  0  0  0  0  0  0  0
   40.1640   26.7790   41.1500 N   0  0  0  0  0  0  0  0  0  0  0  0
   39.5870   24.0030   43.0280 H   0  0  0  0  0  0  0  0  0  0  0  0
   41.7590   24.6100   43.9060 H   0  0  0  0  0  0  0  0  0  0  0  0
   41.9730   27.9420   41.3590 H   0  0  0  0  0  0  0  0  0  0  0  0
   37.0910   27.3640   42.0300 C   0  0  0  0  0  0  0  0  0  0  0  0
   37.0690   27.6740   43.3920 C   0  0  0  0  0  0  0  0  0  0  0  0
   36.9420   26.9230   44.1590 H   0  0  0  0  0  0  0  0  0  0  0  0
   37.2230   28.9960   43.5560 N   0  0  0  0  0  0  0  0  0  0  0  0
   37.2330   29.4190   44.5080 H   0  0  0  0  0  0  0  0  0  0  0  0
   37.3400   29.5110   42.3310 C   0  0  0  0  0  0  0  0  0  0  0  0
   37.4760   30.5860   42.2260 H   0  0  0  0  0  0  0  0  0  0  0  0
   37.2650   28.5570   41.3880 N   0  0  0  0  0  0  0  0  0  0  0  0
  1  4  1  6  0  0  0
  1  3  1  0  0  0  0
  1  8  1  0  0  0  0
  1  2  1  0  0  0  0
  2  6  1  0  0  0  0
  3  7  1  6  0  0  0
  3 17  1  0  0  0  0
  3  2  1  0  0  0  0
  5  2  1  0  0  0  0
  8  9  1  0  0  0  0
  9 14  1  0  0  0  0
  9 10  2  0  0  0  0
 10 15  1  0  0  0  0
 11 10  1  0  0  0  0
 12 11  2  0  0  0  0
 13  8  2  0  0  0  0
 13 12  1  0  0  0  0
 16 12  1  0  0  0  0
 17 18  2  0  0  0  0
 18 20  1  0  0  0  0
 18 19  1  0  0  0  0
 20 21  1  0  0  0  0
 22 20  1  0  0  0  0
 23 22  1  0  0  0  0
 24 17  1  0  0  0  0
 24 22  2  0  0  0  0
M  END
>  <minimizedAffinity>
-3.93902159

$$$$

 OpenBabel03242518583D

 24 26  0  0  1  0  0  0  0  0999 V2000
   36.9100   32.1580   40.2680 C   0  0  1  0  0  0  0  0  0  0  0  0
   38.3570   32.7110   40.4090 C   0  0  0  0  0  0  0  0  0  0  0  0
   37.7280   32.4560   39.1060 C   0  0  1  0  0  0  0  0  0  0  0  0
   36.1260   32.8500   40.7020 H   0  0  0  0  0  0  0  0  0  0  0  0
   38.4220   33.7600   40.7630 H   0  0  0  0  0  0  0  0  0  0  0  0
   39.1150   32.0410   40.8390 H   0  0  0  0  0  0  0  0  0  0  0  0
   37.3850   33.3250   38.5070 H   0  0  0  0  0  0  0  0  0  0  0  0
   36.7550   30.7910   40.8330 C   0  0  0  0  0  0  0  0  0  0  0  0
   35.6900   30.0010   40.3310 C   0  0  0  0  0  0  0  0  0  0  0  0
   35.5350   28.7060   40.8390 C   0  0  0  0  0  0  0  0  0  0  0  0
   36.4260   28.2770   41.7940 N   0  0  0  0  0  0  0  0  0  0  0  0
   37.4260   29.0780   42.2360 C   0  0  0  0  0  0  0  0  0  0  0  0
   37.5900   30.3260   41.7600 N   0  0  0  0  0  0  0  0  0  0  0  0
   34.9740   30.3200   39.5850 H   0  0  0  0  0  0  0  0  0  0  0  0
   34.7330   28.0820   40.4750 H   0  0  0  0  0  0  0  0  0  0  0  0
   38.0540   28.6120   42.9900 H   0  0  0  0  0  0  0  0  0  0  0  0
   38.2900   31.2960   38.3450 C   0  0  0  0  0  0  0  0  0  0  0  0
   37.7770   30.5680   37.2690 C   0  0  0  0  0  0  0  0  0  0  0  0
   36.8170   30.7840   36.8240 H   0  0  0  0  0  0  0  0  0  0  0  0
   38.6470   29.6100   36.9160 N   0  0  0  0  0  0  0  0  0  0  0  0
   38.4380   28.9620   36.1280 H   0  0  0  0  0  0  0  0  0  0  0  0
   39.6840   29.7270   37.7460 C   0  0  0  0  0  0  0  0  0  0  0  0
   40.5210   29.0390   37.6390 H   0  0  0  0  0  0  0  0  0  0  0  0
   39.5030   30.7310   38.6200 N   0  0  0  0  0  0  0  0  0  0  0  0
  1  2  1  0  0  0  0
  1  4  1  1  0  0  0
  1  8  1  0  0  0  0
  2  5  1  0  0  0  0
  2  6  1  0  0  0  0
  3  7  1  6  0  0  0
  3  1  1  0  0  0  0
  3  2  1  0  0  0  0
  8 13  1  0  0  0  0
  9  8  2  0  0  0  0
  9 10  1  0  0  0  0
 10 11  2  0  0  0  0
 11 12  1  0  0  0  0
 12 16  1  0  0  0  0
 13 12  2  0  0  0  0
 14  9  1  0  0  0  0
 15 10  1  0  0  0  0
 17 24  1  0  0  0  0
 17  3  1  0  0  0  0
 18 17  2  0  0  0  0
 19 18  1  0  0  0  0
 20 18  1  0  0  0  0
 20 22  1  0  0  0  0
 21 20  1  0  0  0  0
 22 24  2  0  0  0  0
 23 22  1  0  0  0  0
M  END
>  <minimizedAffinity>
-3.93412852

$$$$
