REMARK  Name = 
REMARK  7 active torsions:
REMARK  status: ('A' for Active; 'I' for Inactive)
REMARK    1  A    between atoms: C_1  and  C_8
REMARK    2  A    between atoms: C_4  and  C_12
REMARK    3  A    between atoms: C_14  and  O_15
REMARK    4  A    between atoms: O_15  and  P_17
REMARK    5  A    between atoms: P_17  and  O_18
REMARK    6  A    between atoms: P_17  and  O_19
REMARK    7  A    between atoms: O_19  and  C_36
REMARK                            x       y       z     vdW  Elec       q    Type
REMARK                         _______ _______ _______ _____ _____    ______ ____
ROOT
ATOM      1  C   UNL     1      47.075  34.822  41.961  0.00  0.00    +0.000 C 
ATOM      2  C   UNL     1      46.312  34.210  40.786  0.00  0.00    +0.000 C 
ATOM      3  C   UNL     1      47.507  34.003  39.837  0.00  0.00    +0.000 C 
ATOM      4  C   UNL     1      48.651  33.634  40.730  0.00  0.00    +0.000 C 
ATOM      5  C   UNL     1      48.140  33.776  42.134  0.00  0.00    +0.000 C 
ATOM      6  H   UNL     1      47.428  35.788  41.607  0.00  0.00    +0.000 HD
ATOM      7  H   UNL     1      45.653  34.991  40.368  0.00  0.00    +0.000 HD
ATOM      8  H   UNL     1      45.817  33.271  41.050  0.00  0.00    +0.000 HD
ATOM      9  H   UNL     1      47.680  34.914  39.241  0.00  0.00    +0.000 HD
ATOM     10  H   UNL     1      47.272  33.114  39.188  0.00  0.00    +0.000 HD
ATOM     11  H   UNL     1      49.532  34.307  40.576  0.00  0.00    +0.000 HD
ATOM     12  H   UNL     1      47.705  32.860  42.531  0.00  0.00    +0.000 HD
ATOM     13  H   UNL     1      48.965  34.149  42.782  0.00  0.00    +0.000 HD
ENDROOT
BRANCH   1  16
ATOM     14  C   UNL     1      44.536  35.981  44.490  0.00  0.00    +0.000 A 
ATOM     15  C   UNL     1      45.281  35.969  43.316  0.00  0.00    +0.000 A 
ATOM     16  C   UNL     1      46.201  34.931  43.164  0.00  0.00    +0.000 A 
ATOM     17  N   UNL     1      46.347  33.958  44.164  0.00  0.00    +0.000 NA
ATOM     18  C   UNL     1      45.587  34.029  45.287  0.00  0.00    +0.000 A 
ATOM     19  N   UNL     1      44.693  35.034  45.441  0.00  0.00    +0.000 NA
ATOM     20  H   UNL     1      43.819  36.782  44.619  0.00  0.00    +0.000 HD
ATOM     21  H   UNL     1      45.184  36.703  42.542  0.00  0.00    +0.000 HD
ATOM     22  H   UNL     1      45.755  33.250  46.008  0.00  0.00    +0.000 HD
ENDBRANCH   1  16
BRANCH   4  23
ATOM     23  C   UNL     1      49.132  32.208  40.574  0.00  0.00    +0.000 C 
ATOM     24  C   UNL     1      49.777  31.625  41.742  0.00  0.00    +0.000 C 
ATOM     25  C   UNL     1      50.558  31.890  40.494  0.00  0.00    +0.000 C 
ATOM     26  H   UNL     1      48.439  31.573  39.994  0.00  0.00    +0.000 HD
ATOM     27  H   UNL     1      50.031  32.285  42.615  0.00  0.00    +0.000 HD
ATOM     28  H   UNL     1      49.611  30.580  42.074  0.00  0.00    +0.000 HD
ATOM     29  H   UNL     1      51.232  32.746  40.360  0.00  0.00    +0.000 HD
BRANCH  25  30
ATOM     30  O   UNL     1      50.931  30.764  39.718  0.00  0.00    +0.000 OA
BRANCH  30  32
ATOM     31  O   UNL     1      52.024  30.194  37.421  0.00  0.00    +0.000 OA
ATOM     32  P   UNL     1      51.873  31.302  38.434  0.00  0.00    +0.000 P 
BRANCH  32  33
ATOM     33  O   UNL     1      51.092  32.612  37.645  0.00  0.00    +0.000 OA
ATOM     34  H   UNL     1      50.118  32.453  37.672  0.00  0.00    +0.000 HD
ENDBRANCH  32  33
BRANCH  32  35
ATOM     35  O   UNL     1      53.386  31.837  38.862  0.00  0.00    +0.000 OA
BRANCH  35  36
ATOM     36  C   UNL     1      54.219  31.107  39.709  0.00  0.00    +0.000 A 
ATOM     37  C   UNL     1      53.858  29.773  39.915  0.00  0.00    +0.000 A 
ATOM     38  H   UNL     1      53.063  29.101  39.582  0.00  0.00    +0.000 HD
ATOM     39  N   UNL     1      54.797  29.272  40.758  0.00  0.00    +0.000 N 
ATOM     40  H   UNL     1      54.905  28.306  41.170  0.00  0.00    +0.000 HD
ATOM     41  C   UNL     1      55.697  30.221  41.069  0.00  0.00    +0.000 A 
ATOM     42  H   UNL     1      56.574  30.204  41.700  0.00  0.00    +0.000 HD
ATOM     43  N   UNL     1      55.336  31.342  40.423  0.00  0.00    +0.000 NA
ENDBRANCH  35  36
ENDBRANCH  32  35
ENDBRANCH  30  32
ENDBRANCH  25  30
ENDBRANCH   4  23
TORSDOF 7
