REMARK  Name = 
REMARK  6 active torsions:
REMARK  status: ('A' for Active; 'I' for Inactive)
REMARK    1  A    between atoms: C_1  and  C_2
REMARK    2  A    between atoms: C_1  and  C_14
REMARK    3  A    between atoms: C_6  and  C_8
REMARK    4  A    between atoms: C_14  and  N_15
REMARK    5  A    between atoms: C_20  and  S_21
REMARK    6  A    between atoms: S_21  and  C_39
REMARK                            x       y       z     vdW  Elec       q    Type
REMARK                         _______ _______ _______ _____ _____    ______ ____
ROOT
ATOM      1  C   UNL     1      41.903  33.954  41.212  0.00  0.00    +0.000 C 
ATOM      2  H   UNL     1      41.532  33.925  42.258  0.00  0.00    +0.000 HD
ATOM      3  H   UNL     1      42.182  35.054  41.066  0.00  0.00    +0.000 HD
ENDROOT
BRANCH   1   4
ATOM      4  N   UNL     1      41.001  33.510  40.326  0.00  0.00    +0.000 N 
ATOM      5  C   UNL     1      40.327  32.252  40.339  0.00  0.00    +0.000 C 
ATOM      6  C   UNL     1      38.953  32.721  40.806  0.00  0.00    +0.000 C 
ATOM      7  C   UNL     1      38.326  33.690  39.924  0.00  0.00    +0.000 C 
ATOM      8  C   UNL     1      39.163  34.501  39.066  0.00  0.00    +0.000 C 
ATOM      9  C   UNL     1      40.664  34.462  39.242  0.00  0.00    +0.000 C 
ATOM     10  H   UNL     1      40.752  31.634  41.163  0.00  0.00    +0.000 HD
ATOM     11  H   UNL     1      40.327  31.641  39.455  0.00  0.00    +0.000 HD
ATOM     12  H   UNL     1      38.324  31.792  40.918  0.00  0.00    +0.000 HD
ATOM     13  H   UNL     1      39.123  33.079  41.854  0.00  0.00    +0.000 HD
ATOM     14  H   UNL     1      37.680  34.390  40.530  0.00  0.00    +0.000 HD
ATOM     15  H   UNL     1      37.592  33.156  39.252  0.00  0.00    +0.000 HD
ATOM     16  H   UNL     1      38.835  35.155  38.309  0.00  0.00    +0.000 HD
BRANCH   9  17
ATOM     17  S   UNL     1      41.781  35.397  38.331  0.00  0.00    +0.000 S 
BRANCH  17  18
ATOM     18  C   UNL     1      41.190  36.573  37.186  0.00  0.00    +0.000 A 
ATOM     19  C   UNL     1      40.199  37.364  36.685  0.00  0.00    +0.000 A 
ATOM     20  H   UNL     1      39.316  37.242  37.254  0.00  0.00    +0.000 HD
ATOM     21  N   UNL     1      40.670  38.042  35.636  0.00  0.00    +0.000 N 
ATOM     22  H   UNL     1      39.954  38.677  35.195  0.00  0.00    +0.000 HD
ATOM     23  C   UNL     1      41.952  37.708  35.443  0.00  0.00    +0.000 A 
ATOM     24  H   UNL     1      42.374  38.242  34.593  0.00  0.00    +0.000 HD
ATOM     25  N   UNL     1      42.293  36.793  36.401  0.00  0.00    +0.000 NA
ENDBRANCH  17  18
ENDBRANCH   9  17
ENDBRANCH   1   4
BRANCH   1  26
ATOM     26  C   UNL     1      43.202  33.236  41.150  0.00  0.00    +0.000 C 
ATOM     27  H   UNL     1      43.092  32.304  41.762  0.00  0.00    +0.000 HD
ATOM     28  H   UNL     1      43.461  32.992  40.093  0.00  0.00    +0.000 HD
BRANCH  26  29
ATOM     29  C   UNL     1      44.231  34.081  41.780  0.00  0.00    +0.000 A 
ATOM     30  C   UNL     1      43.881  35.256  42.403  0.00  0.00    +0.000 A 
ATOM     31  C   UNL     1      44.886  36.026  42.974  0.00  0.00    +0.000 A 
ATOM     32  N   UNL     1      46.174  35.572  42.888  0.00  0.00    +0.000 NA
ATOM     33  C   UNL     1      46.472  34.429  42.279  0.00  0.00    +0.000 A 
ATOM     34  N   UNL     1      45.490  33.705  41.735  0.00  0.00    +0.000 NA
ATOM     35  H   UNL     1      42.952  35.767  42.588  0.00  0.00    +0.000 HD
ATOM     36  H   UNL     1      44.801  36.980  43.504  0.00  0.00    +0.000 HD
BRANCH  33  37
ATOM     37  C   UNL     1      47.870  34.009  42.260  0.00  0.00    +0.000 A 
ATOM     38  C   UNL     1      48.208  32.681  42.013  0.00  0.00    +0.000 A 
ATOM     39  C   UNL     1      49.529  32.296  42.007  0.00  0.00    +0.000 A 
ATOM     40  C   UNL     1      50.425  33.307  42.257  0.00  0.00    +0.000 A 
ATOM     41  C   UNL     1      50.141  34.643  42.508  0.00  0.00    +0.000 A 
ATOM     42  N   UNL     1      48.814  34.932  42.495  0.00  0.00    +0.000 NA
ATOM     43  H   UNL     1      47.444  31.925  41.821  0.00  0.00    +0.000 HD
ATOM     44  H   UNL     1      49.881  31.290  41.825  0.00  0.00    +0.000 HD
ATOM     45  H   UNL     1      51.487  33.050  42.263  0.00  0.00    +0.000 HD
ATOM     46  H   UNL     1      50.914  35.366  42.694  0.00  0.00    +0.000 HD
ENDBRANCH  33  37
ENDBRANCH  26  29
ENDBRANCH   1  26
TORSDOF 6
