
 OpenBabel03242519593D

 27 29  0  0  0  0  0  0  0  0999 V2000
   40.3890   29.0130   39.8920 Br  0  0  0  0  0  0  0  0  0  0  0  0
   38.6930   29.7370   40.3960 C   0  0  0  0  0  0  0  0  0  0  0  0
   37.8650   29.1180   41.3220 C   0  0  0  0  0  0  0  0  0  0  0  0
   36.6670   29.7380   41.6010 C   0  0  0  0  0  0  0  0  0  0  0  0
   36.2580   30.9130   41.0230 C   0  0  0  0  0  0  0  0  0  0  0  0
   37.0800   31.5290   40.1030 C   0  0  0  0  0  0  0  0  0  0  0  0
   38.2940   30.9140   39.8110 C   0  0  0  0  0  0  0  0  0  0  0  0
   36.0220   29.2420   42.3320 H   0  0  0  0  0  0  0  0  0  0  0  0
   35.3120   31.3780   41.2610 H   0  0  0  0  0  0  0  0  0  0  0  0
   36.7760   32.4570   39.6350 H   0  0  0  0  0  0  0  0  0  0  0  0
   39.4970   26.6510   43.6780 C   0  0  0  0  0  0  0  0  0  0  0  0
   39.0510   27.8390   43.1080 C   0  0  0  0  0  0  0  0  0  0  0  0
   38.3280   27.8760   41.9130 C   0  0  0  0  0  0  0  0  0  0  0  0
   38.0990   26.6700   41.3610 N   0  0  0  0  0  0  0  0  0  0  0  0
   38.5180   25.5120   41.8930 C   0  0  0  0  0  0  0  0  0  0  0  0
   39.2100   25.5030   43.0400 N   0  0  0  0  0  0  0  0  0  0  0  0
   40.0530   26.6790   44.6060 H   0  0  0  0  0  0  0  0  0  0  0  0
   39.2650   28.7930   43.5980 H   0  0  0  0  0  0  0  0  0  0  0  0
   38.2360   24.6470   41.3020 H   0  0  0  0  0  0  0  0  0  0  0  0
   39.1750   31.5730   38.8250 C   0  0  0  0  0  0  0  0  0  0  0  0
   39.0490   31.5910   37.4730 C   0  0  0  0  0  0  0  0  0  0  0  0
   38.2500   31.0990   36.9440 H   0  0  0  0  0  0  0  0  0  0  0  0
   40.0530   32.2990   36.9230 N   0  0  0  0  0  0  0  0  0  0  0  0
   40.1890   32.4680   35.8890 H   0  0  0  0  0  0  0  0  0  0  0  0
   40.8170   32.7330   37.9150 C   0  0  0  0  0  0  0  0  0  0  0  0
   41.7160   33.3340   37.8770 H   0  0  0  0  0  0  0  0  0  0  0  0
   40.2980   32.3000   39.1000 N   0  0  0  0  0  0  0  0  0  0  0  0
  1  2  1  0  0  0  0
  2  3  1  0  0  0  0
  3  4  2  0  0  0  0
  3 13  1  0  0  0  0
  4  8  1  0  0  0  0
  5  9  1  0  0  0  0
  5  4  1  0  0  0  0
  6  5  2  0  0  0  0
  7  6  1  0  0  0  0
  7  2  2  0  0  0  0
 10  6  1  0  0  0  0
 11 17  1  0  0  0  0
 12 18  1  0  0  0  0
 12 11  1  0  0  0  0
 13 12  2  0  0  0  0
 14 15  2  0  0  0  0
 14 13  1  0  0  0  0
 15 16  1  0  0  0  0
 16 11  2  0  0  0  0
 19 15  1  0  0  0  0
 20 27  1  0  0  0  0
 20  7  1  0  0  0  0
 21 20  2  0  0  0  0
 22 21  1  0  0  0  0
 23 21  1  0  0  0  0
 23 25  1  0  0  0  0
 24 23  1  0  0  0  0
 25 27  2  0  0  0  0
 26 25  1  0  0  0  0
M  END
>  <minimizedAffinity>
-5.02833796

$$$$

 OpenBabel03242519593D

 27 29  0  0  0  0  0  0  0  0999 V2000
   37.5600   28.3290   39.0520 Br  0  0  0  0  0  0  0  0  0  0  0  0
   37.5430   27.9570   40.9270 C   0  0  0  0  0  0  0  0  0  0  0  0
   37.5890   26.6650   41.4300 C   0  0  0  0  0  0  0  0  0  0  0  0
   37.5710   26.5270   42.8010 C   0  0  0  0  0  0  0  0  0  0  0  0
   37.5110   27.5810   43.6770 C   0  0  0  0  0  0  0  0  0  0  0  0
   37.4640   28.8660   43.1780 C   0  0  0  0  0  0  0  0  0  0  0  0
   37.4830   29.0210   41.7950 C   0  0  0  0  0  0  0  0  0  0  0  0
   37.6080   25.5040   43.1860 H   0  0  0  0  0  0  0  0  0  0  0  0
   37.4980   27.4440   44.7480 H   0  0  0  0  0  0  0  0  0  0  0  0
   37.4160   29.7110   43.8530 H   0  0  0  0  0  0  0  0  0  0  0  0
   36.5650   23.8890   39.0740 C   0  0  0  0  0  0  0  0  0  0  0  0
   36.5090   24.9350   39.9900 C   0  0  0  0  0  0  0  0  0  0  0  0
   37.6520   25.5740   40.4750 C   0  0  0  0  0  0  0  0  0  0  0  0
   38.8110   25.0970   39.9820 N   0  0  0  0  0  0  0  0  0  0  0  0
   38.8900   24.0910   39.0980 C   0  0  0  0  0  0  0  0  0  0  0  0
   37.7780   23.4930   38.6490 N   0  0  0  0  0  0  0  0  0  0  0  0
   35.6490   23.4290   38.7310 H   0  0  0  0  0  0  0  0  0  0  0  0
   35.5410   25.2850   40.3590 H   0  0  0  0  0  0  0  0  0  0  0  0
   39.9100   23.8490   38.8210 H   0  0  0  0  0  0  0  0  0  0  0  0
   37.4330   30.3960   41.2600 C   0  0  0  0  0  0  0  0  0  0  0  0
   36.3350   31.1220   40.9230 C   0  0  0  0  0  0  0  0  0  0  0  0
   35.3280   30.7530   41.0130 H   0  0  0  0  0  0  0  0  0  0  0  0
   36.7030   32.3360   40.4730 N   0  0  0  0  0  0  0  0  0  0  0  0
   36.0440   33.0940   40.1450 H   0  0  0  0  0  0  0  0  0  0  0  0
   38.0270   32.3890   40.5210 C   0  0  0  0  0  0  0  0  0  0  0  0
   38.6920   33.1960   40.2440 H   0  0  0  0  0  0  0  0  0  0  0  0
   38.5030   31.2050   41.0040 N   0  0  0  0  0  0  0  0  0  0  0  0
  1  2  1  0  0  0  0
  2  3  2  0  0  0  0
  2  7  1  0  0  0  0
  3  4  1  0  0  0  0
  4  8  1  0  0  0  0
  4  5  2  0  0  0  0
  5  9  1  0  0  0  0
  6  5  1  0  0  0  0
  6 10  1  0  0  0  0
  7  6  2  0  0  0  0
 11 12  1  0  0  0  0
 12 18  1  0  0  0  0
 12 13  2  0  0  0  0
 13  3  1  0  0  0  0
 14 13  1  0  0  0  0
 15 14  2  0  0  0  0
 16 11  2  0  0  0  0
 16 15  1  0  0  0  0
 17 11  1  0  0  0  0
 19 15  1  0  0  0  0
 20  7  1  0  0  0  0
 21 22  1  0  0  0  0
 21 20  2  0  0  0  0
 23 25  1  0  0  0  0
 23 21  1  0  0  0  0
 24 23  1  0  0  0  0
 25 27  2  0  0  0  0
 26 25  1  0  0  0  0
 27 20  1  0  0  0  0
M  END
>  <minimizedAffinity>
-5.01812267

$$$$

 OpenBabel03242519593D

 27 29  0  0  0  0  0  0  0  0999 V2000
   38.2720   27.1350   39.2420 Br  0  0  0  0  0  0  0  0  0  0  0  0
   37.8980   27.7190   41.0240 C   0  0  0  0  0  0  0  0  0  0  0  0
   37.8240   29.0610   41.3670 C   0  0  0  0  0  0  0  0  0  0  0  0
   37.5470   29.3550   42.6850 C   0  0  0  0  0  0  0  0  0  0  0  0
   37.3460   28.4060   43.6560 C   0  0  0  0  0  0  0  0  0  0  0  0
   37.4190   27.0720   43.3150 C   0  0  0  0  0  0  0  0  0  0  0  0
   37.6970   26.7610   41.9870 C   0  0  0  0  0  0  0  0  0  0  0  0
   37.4920   30.4150   42.9440 H   0  0  0  0  0  0  0  0  0  0  0  0
   37.1310   28.6650   44.6820 H   0  0  0  0  0  0  0  0  0  0  0  0
   37.2630   26.3080   44.0670 H   0  0  0  0  0  0  0  0  0  0  0  0
   37.2020   31.5200   38.5610 C   0  0  0  0  0  0  0  0  0  0  0  0
   36.9960   30.5840   39.5710 C   0  0  0  0  0  0  0  0  0  0  0  0
   38.0430   30.0370   40.3150 C   0  0  0  0  0  0  0  0  0  0  0  0
   39.2650   30.4890   39.9780 N   0  0  0  0  0  0  0  0  0  0  0  0
   39.4890   31.3910   39.0100 C   0  0  0  0  0  0  0  0  0  0  0  0
   38.4660   31.9010   38.3090 N   0  0  0  0  0  0  0  0  0  0  0  0
   36.3550   31.9120   38.0150 H   0  0  0  0  0  0  0  0  0  0  0  0
   35.9810   30.2500   39.8050 H   0  0  0  0  0  0  0  0  0  0  0  0
   40.5390   31.6300   38.8860 H   0  0  0  0  0  0  0  0  0  0  0  0
   37.7750   25.3320   41.6230 C   0  0  0  0  0  0  0  0  0  0  0  0
   38.8000   24.4680   41.8450 C   0  0  0  0  0  0  0  0  0  0  0  0
   39.7160   24.7470   42.3380 H   0  0  0  0  0  0  0  0  0  0  0  0
   38.4920   23.2490   41.3640 N   0  0  0  0  0  0  0  0  0  0  0  0
   39.1150   22.3980   41.4070 H   0  0  0  0  0  0  0  0  0  0  0  0
   37.2780   23.3300   40.8370 C   0  0  0  0  0  0  0  0  0  0  0  0
   36.6870   22.5640   40.3540 H   0  0  0  0  0  0  0  0  0  0  0  0
   36.8130   24.6040   40.9830 N   0  0  0  0  0  0  0  0  0  0  0  0
  1  2  1  0  0  0  0
  2  3  2  0  0  0  0
  2  7  1  0  0  0  0
  3  4  1  0  0  0  0
  4  8  1  0  0  0  0
  4  5  2  0  0  0  0
  5  9  1  0  0  0  0
  6  5  1  0  0  0  0
  6 10  1  0  0  0  0
  7  6  2  0  0  0  0
 11 12  1  0  0  0  0
 12 18  1  0  0  0  0
 12 13  2  0  0  0  0
 13  3  1  0  0  0  0
 14 13  1  0  0  0  0
 15 14  2  0  0  0  0
 16 11  2  0  0  0  0
 16 15  1  0  0  0  0
 17 11  1  0  0  0  0
 19 15  1  0  0  0  0
 20 21  2  0  0  0  0
 20  7  1  0  0  0  0
 21 22  1  0  0  0  0
 23 24  1  0  0  0  0
 23 21  1  0  0  0  0
 25 27  2  0  0  0  0
 25 23  1  0  0  0  0
 26 25  1  0  0  0  0
 27 20  1  0  0  0  0
M  END
>  <minimizedAffinity>
-4.81980133

$$$$

 OpenBabel03242519593D

 27 29  0  0  0  0  0  0  0  0999 V2000
   40.1860   29.7280   41.2710 Br  0  0  0  0  0  0  0  0  0  0  0  0
   38.2910   29.5940   41.0540 C   0  0  0  0  0  0  0  0  0  0  0  0
   37.5830   28.4490   41.3900 C   0  0  0  0  0  0  0  0  0  0  0  0
   36.2200   28.4750   41.1870 C   0  0  0  0  0  0  0  0  0  0  0  0
   35.5410   29.5550   40.6800 C   0  0  0  0  0  0  0  0  0  0  0  0
   36.2440   30.6930   40.3460 C   0  0  0  0  0  0  0  0  0  0  0  0
   37.6220   30.6810   40.5460 C   0  0  0  0  0  0  0  0  0  0  0  0
   35.6720   27.5680   41.4540 H   0  0  0  0  0  0  0  0  0  0  0  0
   34.4710   29.5480   40.5310 H   0  0  0  0  0  0  0  0  0  0  0  0
   35.7270   31.5550   39.9450 H   0  0  0  0  0  0  0  0  0  0  0  0
   39.3030   25.0940   41.6860 C   0  0  0  0  0  0  0  0  0  0  0  0
   38.5840   26.1720   41.1790 C   0  0  0  0  0  0  0  0  0  0  0  0
   38.3330   27.3270   41.9230 C   0  0  0  0  0  0  0  0  0  0  0  0
   38.8450   27.3120   43.1680 N   0  0  0  0  0  0  0  0  0  0  0  0
   39.5420   26.2850   43.6780 C   0  0  0  0  0  0  0  0  0  0  0  0
   39.7680   25.1880   42.9440 N   0  0  0  0  0  0  0  0  0  0  0  0
   39.4690   24.2230   41.0670 H   0  0  0  0  0  0  0  0  0  0  0  0
   38.1900   26.1320   40.1590 H   0  0  0  0  0  0  0  0  0  0  0  0
   39.8710   26.4600   44.6960 H   0  0  0  0  0  0  0  0  0  0  0  0
   38.3750   31.9000   40.1890 C   0  0  0  0  0  0  0  0  0  0  0  0
   38.9010   32.2320   38.9810 C   0  0  0  0  0  0  0  0  0  0  0  0
   38.8230   31.6090   38.1070 H   0  0  0  0  0  0  0  0  0  0  0  0
   39.5160   33.4270   39.0570 N   0  0  0  0  0  0  0  0  0  0  0  0
   40.0070   33.9150   38.2590 H   0  0  0  0  0  0  0  0  0  0  0  0
   39.3850   33.8580   40.3040 C   0  0  0  0  0  0  0  0  0  0  0  0
   39.7430   34.7750   40.7540 H   0  0  0  0  0  0  0  0  0  0  0  0
   38.6840   32.9350   41.0230 N   0  0  0  0  0  0  0  0  0  0  0  0
  2  1  1  0  0  0  0
  2  3  1  0  0  0  0
  3 13  1  0  0  0  0
  4  3  2  0  0  0  0
  4  8  1  0  0  0  0
  5  4  1  0  0  0  0
  6  7  1  0  0  0  0
  6  5  2  0  0  0  0
  7  2  2  0  0  0  0
  9  5  1  0  0  0  0
 10  6  1  0  0  0  0
 11 16  1  0  0  0  0
 12 11  2  0  0  0  0
 12 13  1  0  0  0  0
 13 14  2  0  0  0  0
 14 15  1  0  0  0  0
 15 19  1  0  0  0  0
 16 15  2  0  0  0  0
 17 11  1  0  0  0  0
 18 12  1  0  0  0  0
 20  7  1  0  0  0  0
 20 27  1  0  0  0  0
 21 23  1  0  0  0  0
 21 20  2  0  0  0  0
 22 21  1  0  0  0  0
 23 25  1  0  0  0  0
 24 23  1  0  0  0  0
 25 26  1  0  0  0  0
 25 27  2  0  0  0  0
M  END
>  <minimizedAffinity>
-4.77869177

$$$$

 OpenBabel03242519593D

 27 29  0  0  0  0  0  0  0  0999 V2000
   39.7170   28.5320   39.1300 Br  0  0  0  0  0  0  0  0  0  0  0  0
   38.2430   29.4510   39.9290 C   0  0  0  0  0  0  0  0  0  0  0  0
   37.3570   28.8260   40.7950 C   0  0  0  0  0  0  0  0  0  0  0  0
   36.3350   29.5960   41.3060 C   0  0  0  0  0  0  0  0  0  0  0  0
   36.1510   30.9220   41.0070 C   0  0  0  0  0  0  0  0  0  0  0  0
   37.0310   31.5440   40.1460 C   0  0  0  0  0  0  0  0  0  0  0  0
   38.0690   30.7790   39.6230 C   0  0  0  0  0  0  0  0  0  0  0  0
   35.6430   29.0930   41.9870 H   0  0  0  0  0  0  0  0  0  0  0  0
   35.3400   31.5020   41.4220 H   0  0  0  0  0  0  0  0  0  0  0  0
   36.9030   32.5910   39.8980 H   0  0  0  0  0  0  0  0  0  0  0  0
   38.5770   25.6530   42.4520 C   0  0  0  0  0  0  0  0  0  0  0  0
   38.3590   26.9970   42.1670 C   0  0  0  0  0  0  0  0  0  0  0  0
   37.5820   27.4220   41.0880 C   0  0  0  0  0  0  0  0  0  0  0  0
   37.0610   26.4260   40.3470 N   0  0  0  0  0  0  0  0  0  0  0  0
   37.2560   25.1230   40.6020 C   0  0  0  0  0  0  0  0  0  0  0  0
   38.0070   24.7410   41.6440 N   0  0  0  0  0  0  0  0  0  0  0  0
   39.1870   25.3780   43.3010 H   0  0  0  0  0  0  0  0  0  0  0  0
   38.8060   27.7670   42.8020 H   0  0  0  0  0  0  0  0  0  0  0  0
   36.7550   24.4730   39.8940 H   0  0  0  0  0  0  0  0  0  0  0  0
   39.0110   31.4450   38.7010 C   0  0  0  0  0  0  0  0  0  0  0  0
   38.8630   31.6610   37.3680 C   0  0  0  0  0  0  0  0  0  0  0  0
   37.9960   31.3530   36.8090 H   0  0  0  0  0  0  0  0  0  0  0  0
   39.9420   32.3010   36.8800 N   0  0  0  0  0  0  0  0  0  0  0  0
   40.0810   32.5880   35.8730 H   0  0  0  0  0  0  0  0  0  0  0  0
   40.7760   32.4940   37.8920 C   0  0  0  0  0  0  0  0  0  0  0  0
   41.7470   32.9720   37.9000 H   0  0  0  0  0  0  0  0  0  0  0  0
   40.2260   31.9750   39.0280 N   0  0  0  0  0  0  0  0  0  0  0  0
  1  2  1  0  0  0  0
  2  3  1  0  0  0  0
  3 13  1  0  0  0  0
  3  4  2  0  0  0  0
  4  8  1  0  0  0  0
  5  4  1  0  0  0  0
  5  9  1  0  0  0  0
  6  5  2  0  0  0  0
  7  2  2  0  0  0  0
  7  6  1  0  0  0  0
 10  6  1  0  0  0  0
 11 17  1  0  0  0  0
 12 11  1  0  0  0  0
 12 18  1  0  0  0  0
 13 12  2  0  0  0  0
 14 15  2  0  0  0  0
 14 13  1  0  0  0  0
 15 16  1  0  0  0  0
 16 11  2  0  0  0  0
 19 15  1  0  0  0  0
 20 27  1  0  0  0  0
 20  7  1  0  0  0  0
 21 20  2  0  0  0  0
 22 21  1  0  0  0  0
 23 21  1  0  0  0  0
 23 25  1  0  0  0  0
 24 23  1  0  0  0  0
 25 26  1  0  0  0  0
 25 27  2  0  0  0  0
M  END
>  <minimizedAffinity>
-4.77670383

$$$$

 OpenBabel03242519593D

 27 29  0  0  0  0  0  0  0  0999 V2000
   38.2450   27.1370   39.2270 Br  0  0  0  0  0  0  0  0  0  0  0  0
   37.9040   27.7440   41.0080 C   0  0  0  0  0  0  0  0  0  0  0  0
   37.8330   29.0910   41.3350 C   0  0  0  0  0  0  0  0  0  0  0  0
   37.5810   29.4020   42.6530 C   0  0  0  0  0  0  0  0  0  0  0  0
   37.4010   28.4660   43.6410 C   0  0  0  0  0  0  0  0  0  0  0  0
   37.4710   27.1270   43.3170 C   0  0  0  0  0  0  0  0  0  0  0  0
   37.7240   26.7990   41.9880 C   0  0  0  0  0  0  0  0  0  0  0  0
   37.5270   30.4650   42.8990 H   0  0  0  0  0  0  0  0  0  0  0  0
   37.2050   28.7380   44.6670 H   0  0  0  0  0  0  0  0  0  0  0  0
   37.3320   26.3730   44.0820 H   0  0  0  0  0  0  0  0  0  0  0  0
   39.4710   31.5190   38.9420 C   0  0  0  0  0  0  0  0  0  0  0  0
   39.2790   30.5970   39.9670 C   0  0  0  0  0  0  0  0  0  0  0  0
   38.0280   30.0530   40.2650 C   0  0  0  0  0  0  0  0  0  0  0  0
   37.0260   30.4910   39.4810 N   0  0  0  0  0  0  0  0  0  0  0  0
   37.1860   31.3790   38.4880 C   0  0  0  0  0  0  0  0  0  0  0  0
   38.3980   31.8870   38.2220 N   0  0  0  0  0  0  0  0  0  0  0  0
   40.4620   31.9090   38.7530 H   0  0  0  0  0  0  0  0  0  0  0  0
   40.1290   30.2730   40.5740 H   0  0  0  0  0  0  0  0  0  0  0  0
   36.2620   31.6090   37.9700 H   0  0  0  0  0  0  0  0  0  0  0  0
   37.8000   25.3650   41.6410 C   0  0  0  0  0  0  0  0  0  0  0  0
   38.8290   24.5050   41.8630 C   0  0  0  0  0  0  0  0  0  0  0  0
   39.7500   24.7920   42.3410 H   0  0  0  0  0  0  0  0  0  0  0  0
   38.5150   23.2800   41.4020 N   0  0  0  0  0  0  0  0  0  0  0  0
   39.1400   22.4300   41.4490 H   0  0  0  0  0  0  0  0  0  0  0  0
   37.2960   23.3530   40.8880 C   0  0  0  0  0  0  0  0  0  0  0  0
   36.6990   22.5790   40.4230 H   0  0  0  0  0  0  0  0  0  0  0  0
   36.8310   24.6280   41.0230 N   0  0  0  0  0  0  0  0  0  0  0  0
  1  2  1  0  0  0  0
  2  3  2  0  0  0  0
  2  7  1  0  0  0  0
  3  4  1  0  0  0  0
  4  8  1  0  0  0  0
  4  5  2  0  0  0  0
  5  9  1  0  0  0  0
  6  5  1  0  0  0  0
  6 10  1  0  0  0  0
  7  6  2  0  0  0  0
 11 12  1  0  0  0  0
 12 13  2  0  0  0  0
 12 18  1  0  0  0  0
 13  3  1  0  0  0  0
 14 13  1  0  0  0  0
 15 14  2  0  0  0  0
 16 15  1  0  0  0  0
 16 11  2  0  0  0  0
 17 11  1  0  0  0  0
 19 15  1  0  0  0  0
 20 21  2  0  0  0  0
 20  7  1  0  0  0  0
 21 22  1  0  0  0  0
 23 24  1  0  0  0  0
 23 21  1  0  0  0  0
 25 27  2  0  0  0  0
 25 23  1  0  0  0  0
 26 25  1  0  0  0  0
 27 20  1  0  0  0  0
M  END
>  <minimizedAffinity>
-4.72040081

$$$$

 OpenBabel03242519593D

 27 29  0  0  0  0  0  0  0  0999 V2000
   39.7480   26.8890   39.7980 Br  0  0  0  0  0  0  0  0  0  0  0  0
   38.5930   27.2620   41.2750 C   0  0  0  0  0  0  0  0  0  0  0  0
   37.3480   27.8550   41.1160 C   0  0  0  0  0  0  0  0  0  0  0  0
   36.6090   28.0720   42.2570 C   0  0  0  0  0  0  0  0  0  0  0  0
   37.0320   27.7400   43.5200 C   0  0  0  0  0  0  0  0  0  0  0  0
   38.2680   27.1510   43.6790 C   0  0  0  0  0  0  0  0  0  0  0  0
   39.0260   26.9250   42.5340 C   0  0  0  0  0  0  0  0  0  0  0  0
   35.6300   28.5400   42.1200 H   0  0  0  0  0  0  0  0  0  0  0  0
   36.4300   27.9230   44.3980 H   0  0  0  0  0  0  0  0  0  0  0  0
   38.6200   26.8820   44.6680 H   0  0  0  0  0  0  0  0  0  0  0  0
   35.7670   27.6510   37.6860 C   0  0  0  0  0  0  0  0  0  0  0  0
   36.1670   27.3310   38.9800 C   0  0  0  0  0  0  0  0  0  0  0  0
   36.9330   28.1930   39.7660 C   0  0  0  0  0  0  0  0  0  0  0  0
   37.2520   29.3580   39.1720 N   0  0  0  0  0  0  0  0  0  0  0  0
   36.8780   29.6890   37.9260 C   0  0  0  0  0  0  0  0  0  0  0  0
   36.1420   28.8440   37.1920 N   0  0  0  0  0  0  0  0  0  0  0  0
   35.1730   26.9470   37.1200 H   0  0  0  0  0  0  0  0  0  0  0  0
   35.8800   26.3700   39.4160 H   0  0  0  0  0  0  0  0  0  0  0  0
   37.2310   30.6690   37.6230 H   0  0  0  0  0  0  0  0  0  0  0  0
   40.3510   26.2950   42.7050 C   0  0  0  0  0  0  0  0  0  0  0  0
   40.6470   24.9690   42.7410 C   0  0  0  0  0  0  0  0  0  0  0  0
   39.9080   24.1930   42.6450 H   0  0  0  0  0  0  0  0  0  0  0  0
   41.9700   24.7950   42.9130 N   0  0  0  0  0  0  0  0  0  0  0  0
   42.4630   23.8620   42.9760 H   0  0  0  0  0  0  0  0  0  0  0  0
   42.5200   25.9990   42.9860 C   0  0  0  0  0  0  0  0  0  0  0  0
   43.5580   26.2730   43.1210 H   0  0  0  0  0  0  0  0  0  0  0  0
   41.5430   26.9430   42.8600 N   0  0  0  0  0  0  0  0  0  0  0  0
  1  2  1  0  0  0  0
  2  7  1  0  0  0  0
  3  2  2  0  0  0  0
  3  4  1  0  0  0  0
  4  5  2  0  0  0  0
  5  6  1  0  0  0  0
  5  9  1  0  0  0  0
  6 10  1  0  0  0  0
  7 20  1  0  0  0  0
  7  6  2  0  0  0  0
  8  4  1  0  0  0  0
 11 12  1  0  0  0  0
 12 18  1  0  0  0  0
 12 13  2  0  0  0  0
 13  3  1  0  0  0  0
 14 13  1  0  0  0  0
 15 14  2  0  0  0  0
 16 11  2  0  0  0  0
 16 15  1  0  0  0  0
 17 11  1  0  0  0  0
 19 15  1  0  0  0  0
 20 21  2  0  0  0  0
 20 27  1  0  0  0  0
 21 23  1  0  0  0  0
 22 21  1  0  0  0  0
 23 24  1  0  0  0  0
 23 25  1  0  0  0  0
 25 26  1  0  0  0  0
 27 25  2  0  0  0  0
M  END
>  <minimizedAffinity>
-4.56518269

$$$$

 OpenBabel03242519593D

 27 29  0  0  0  0  0  0  0  0999 V2000
   37.5280   30.7310   38.6470 Br  0  0  0  0  0  0  0  0  0  0  0  0
   37.3800   29.8160   40.3200 C   0  0  0  0  0  0  0  0  0  0  0  0
   36.4680   28.7920   40.5300 C   0  0  0  0  0  0  0  0  0  0  0  0
   36.4580   28.2100   41.7790 C   0  0  0  0  0  0  0  0  0  0  0  0
   37.2880   28.5850   42.8060 C   0  0  0  0  0  0  0  0  0  0  0  0
   38.1940   29.6030   42.5970 C   0  0  0  0  0  0  0  0  0  0  0  0
   38.2160   30.1990   41.3400 C   0  0  0  0  0  0  0  0  0  0  0  0
   35.7350   27.4050   41.9330 H   0  0  0  0  0  0  0  0  0  0  0  0
   37.2580   28.1110   43.7760 H   0  0  0  0  0  0  0  0  0  0  0  0
   38.8580   29.9130   43.3950 H   0  0  0  0  0  0  0  0  0  0  0  0
   33.5880   28.7470   38.0780 C   0  0  0  0  0  0  0  0  0  0  0  0
   34.4180   29.0980   39.1390 C   0  0  0  0  0  0  0  0  0  0  0  0
   35.6060   28.4220   39.4220 C   0  0  0  0  0  0  0  0  0  0  0  0
   35.8840   27.4050   38.5850 N   0  0  0  0  0  0  0  0  0  0  0  0
   35.1010   27.0480   37.5550 C   0  0  0  0  0  0  0  0  0  0  0  0
   33.9650   27.7130   37.3050 N   0  0  0  0  0  0  0  0  0  0  0  0
   32.6790   29.3040   37.9030 H   0  0  0  0  0  0  0  0  0  0  0  0
   34.1450   29.9340   39.7900 H   0  0  0  0  0  0  0  0  0  0  0  0
   35.4920   26.2060   36.9960 H   0  0  0  0  0  0  0  0  0  0  0  0
   39.1870   31.2890   41.1170 C   0  0  0  0  0  0  0  0  0  0  0  0
   38.9750   32.6280   41.2070 C   0  0  0  0  0  0  0  0  0  0  0  0
   38.0240   33.0630   41.4630 H   0  0  0  0  0  0  0  0  0  0  0  0
   40.1100   33.2960   40.9310 N   0  0  0  0  0  0  0  0  0  0  0  0
   40.2180   34.3470   40.9300 H   0  0  0  0  0  0  0  0  0  0  0  0
   41.0440   32.3930   40.6660 C   0  0  0  0  0  0  0  0  0  0  0  0
   42.0830   32.5370   40.4010 H   0  0  0  0  0  0  0  0  0  0  0  0
   40.5010   31.1460   40.7740 N   0  0  0  0  0  0  0  0  0  0  0  0
  1  2  1  0  0  0  0
  2  3  2  0  0  0  0
  2  7  1  0  0  0  0
  3  4  1  0  0  0  0
  4  8  1  0  0  0  0
  4  5  2  0  0  0  0
  5  9  1  0  0  0  0
  6  5  1  0  0  0  0
  6 10  1  0  0  0  0
  7  6  2  0  0  0  0
 11 12  1  0  0  0  0
 12 13  2  0  0  0  0
 12 18  1  0  0  0  0
 13  3  1  0  0  0  0
 14 13  1  0  0  0  0
 15 14  2  0  0  0  0
 16 15  1  0  0  0  0
 16 11  2  0  0  0  0
 17 11  1  0  0  0  0
 19 15  1  0  0  0  0
 20 21  2  0  0  0  0
 20  7  1  0  0  0  0
 21 22  1  0  0  0  0
 23 21  1  0  0  0  0
 24 23  1  0  0  0  0
 25 27  2  0  0  0  0
 25 23  1  0  0  0  0
 26 25  1  0  0  0  0
 27 20  1  0  0  0  0
M  END
>  <minimizedAffinity>
-4.54358816

$$$$

 OpenBabel03242519593D

 27 29  0  0  0  0  0  0  0  0999 V2000
   38.9890   29.7850   41.6790 Br  0  0  0  0  0  0  0  0  0  0  0  0
   37.7000   29.7500   40.2670 C   0  0  0  0  0  0  0  0  0  0  0  0
   37.5510   30.7970   39.3680 C   0  0  0  0  0  0  0  0  0  0  0  0
   36.5870   30.6530   38.3950 C   0  0  0  0  0  0  0  0  0  0  0  0
   35.7820   29.5490   38.2710 C   0  0  0  0  0  0  0  0  0  0  0  0
   35.9280   28.5080   39.1640 C   0  0  0  0  0  0  0  0  0  0  0  0
   36.9000   28.6400   40.1520 C   0  0  0  0  0  0  0  0  0  0  0  0
   36.4790   31.4830   37.6930 H   0  0  0  0  0  0  0  0  0  0  0  0
   35.0330   29.4620   37.4980 H   0  0  0  0  0  0  0  0  0  0  0  0
   35.3020   27.6280   39.0830 H   0  0  0  0  0  0  0  0  0  0  0  0
   38.8920   34.1610   40.4610 C   0  0  0  0  0  0  0  0  0  0  0  0
   38.0620   33.0540   40.3040 C   0  0  0  0  0  0  0  0  0  0  0  0
   38.4200   31.9490   39.5290 C   0  0  0  0  0  0  0  0  0  0  0  0
   39.6320   32.0400   38.9500 N   0  0  0  0  0  0  0  0  0  0  0  0
   40.4490   33.0950   39.0870 C   0  0  0  0  0  0  0  0  0  0  0  0
   40.0820   34.1440   39.8350 N   0  0  0  0  0  0  0  0  0  0  0  0
   38.5660   34.9910   41.0720 H   0  0  0  0  0  0  0  0  0  0  0  0
   37.0870   33.0310   40.7970 H   0  0  0  0  0  0  0  0  0  0  0  0
   41.3810   32.9830   38.5450 H   0  0  0  0  0  0  0  0  0  0  0  0
   37.0570   27.5250   41.1090 C   0  0  0  0  0  0  0  0  0  0  0  0
   37.6860   26.3370   40.9110 C   0  0  0  0  0  0  0  0  0  0  0  0
   38.1640   26.0650   39.9860 H   0  0  0  0  0  0  0  0  0  0  0  0
   37.6140   25.5850   42.0250 N   0  0  0  0  0  0  0  0  0  0  0  0
   38.0230   24.6170   42.1380 H   0  0  0  0  0  0  0  0  0  0  0  0
   36.9450   26.2840   42.9300 C   0  0  0  0  0  0  0  0  0  0  0  0
   36.6820   26.0190   43.9460 H   0  0  0  0  0  0  0  0  0  0  0  0
   36.5890   27.4860   42.3910 N   0  0  0  0  0  0  0  0  0  0  0  0
  2  1  1  0  0  0  0
  3 13  1  0  0  0  0
  3  2  2  0  0  0  0
  4  3  1  0  0  0  0
  5  4  2  0  0  0  0
  5  6  1  0  0  0  0
  6  7  2  0  0  0  0
  7  2  1  0  0  0  0
  7 20  1  0  0  0  0
  8  4  1  0  0  0  0
  9  5  1  0  0  0  0
 10  6  1  0  0  0  0
 11 17  1  0  0  0  0
 12 11  1  0  0  0  0
 12 18  1  0  0  0  0
 13 12  2  0  0  0  0
 14 15  2  0  0  0  0
 14 13  1  0  0  0  0
 15 16  1  0  0  0  0
 16 11  2  0  0  0  0
 19 15  1  0  0  0  0
 20 27  1  0  0  0  0
 21 20  2  0  0  0  0
 21 23  1  0  0  0  0
 22 21  1  0  0  0  0
 23 24  1  0  0  0  0
 23 25  1  0  0  0  0
 25 26  1  0  0  0  0
 27 25  2  0  0  0  0
M  END
>  <minimizedAffinity>
-4.52911568

$$$$
