
 OpenBabel03252508203D

 33 35  0  0  0  0  0  0  0  0999 V2000
   45.9710   34.1080   41.0980 C   0  0  0  0  0  0  0  0  0  0  0  0
   46.8450   34.0590   40.0160 C   0  0  0  0  0  0  0  0  0  0  0  0
   48.1230   34.5920   39.9810 C   0  0  0  0  0  0  0  0  0  0  0  0
   48.5290   35.2210   41.1430 C   0  0  0  0  0  0  0  0  0  0  0  0
   47.6850   35.2810   42.2220 C   0  0  0  0  0  0  0  0  0  0  0  0
   46.4080   34.7430   42.2470 C   0  0  0  0  0  0  0  0  0  0  0  0
   46.4480   33.5430   39.1280 H   0  0  0  0  0  0  0  0  0  0  0  0
   48.6640   34.4640   39.0610 H   0  0  0  0  0  0  0  0  0  0  0  0
   49.5210   35.6370   41.1220 H   0  0  0  0  0  0  0  0  0  0  0  0
   48.1560   35.8070   43.0510 H   0  0  0  0  0  0  0  0  0  0  0  0
   45.7020   34.9340   43.4980 C   0  0  0  0  0  0  0  0  0  0  0  0
   44.7690   35.8180   43.9620 C   0  0  0  0  0  0  0  0  0  0  0  0
   44.3470   36.6330   43.4150 H   0  0  0  0  0  0  0  0  0  0  0  0
   44.3690   35.6020   45.1970 N   0  0  0  0  0  0  0  0  0  0  0  0
   43.6890   36.1010   45.7910 H   0  0  0  0  0  0  0  0  0  0  0  0
   45.0640   34.5230   45.5820 C   0  0  0  0  0  0  0  0  0  0  0  0
   45.0820   33.9640   46.5150 H   0  0  0  0  0  0  0  0  0  0  0  0
   45.8430   34.1470   44.5650 N   0  0  0  0  0  0  0  0  0  0  0  0
   44.6270   33.5450   41.0730 C   0  0  0  0  0  0  0  0  0  0  0  0
   43.9470   34.2780   41.5620 H   0  0  0  0  0  0  0  0  0  0  0  0
   44.5310   32.5680   41.5530 H   0  0  0  0  0  0  0  0  0  0  0  0
   44.0700   33.4720   39.6360 C   0  0  0  0  0  0  0  0  0  0  0  0
   44.6290   34.1920   39.0360 H   0  0  0  0  0  0  0  0  0  0  0  0
   44.1070   32.4390   39.2530 H   0  0  0  0  0  0  0  0  0  0  0  0
   40.9220   35.5670   39.7490 C   0  0  0  0  0  0  0  0  0  0  0  0
   42.3030   35.2410   39.6870 C   0  0  0  0  0  0  0  0  0  0  0  0
   42.6420   33.8950   39.7000 C   0  0  0  0  0  0  0  0  0  0  0  0
   41.6100   32.9870   39.7710 N   0  0  0  0  0  0  0  0  0  0  0  0
   40.3300   33.3250   39.8270 C   0  0  0  0  0  0  0  0  0  0  0  0
   39.9730   34.6130   39.8170 N   0  0  0  0  0  0  0  0  0  0  0  0
   40.7440   36.6450   39.7350 H   0  0  0  0  0  0  0  0  0  0  0  0
   43.0640   36.0070   39.6330 H   0  0  0  0  0  0  0  0  0  0  0  0
   39.5970   32.5370   39.8810 H   0  0  0  0  0  0  0  0  0  0  0  0
  1  6  1  0  0  0  0
  2  1  2  0  0  0  0
  3  2  1  0  0  0  0
  3  4  2  0  0  0  0
  4  5  1  0  0  0  0
  5  6  2  0  0  0  0
  5 10  1  0  0  0  0
  6 11  1  0  0  0  0
  7  2  1  0  0  0  0
  8  3  1  0  0  0  0
  9  4  1  0  0  0  0
 11 12  2  0  0  0  0
 11 18  1  0  0  0  0
 12 14  1  0  0  0  0
 13 12  1  0  0  0  0
 14 16  1  0  0  0  0
 14 15  1  0  0  0  0
 16 17  1  0  0  0  0
 18 16  2  0  0  0  0
 19  1  1  0  0  0  0
 19 21  1  0  0  0  0
 19 20  1  0  0  0  0
 22 27  1  0  0  0  0
 22 19  1  0  0  0  0
 23 22  1  0  0  0  0
 24 22  1  0  0  0  0
 25 30  1  0  0  0  0
 26 27  1  0  0  0  0
 26 25  2  0  0  0  0
 27 28  2  0  0  0  0
 28 29  1  0  0  0  0
 29 33  1  0  0  0  0
 30 29  2  0  0  0  0
 31 25  1  0  0  0  0
 32 26  1  0  0  0  0
M  END
>  <minimizedAffinity>
-5.67335415

>  <minimizedRMSD>
1.32759857

$$$$
