
 OpenBabel03252507553D

 43 46  0  0  1  0  0  0  0  0999 V2000
   47.0560   34.8280   41.9580 C   0  0  2  0  0  0  0  0  0  0  0  0
   46.3010   34.1570   40.8100 C   0  0  0  0  0  0  0  0  0  0  0  0
   47.4970   33.9350   39.8660 C   0  0  0  0  0  0  0  0  0  0  0  0
   48.6500   33.6220   40.7680 C   0  0  1  0  0  0  0  0  0  0  0  0
   48.1410   33.8090   42.1670 C   0  0  0  0  0  0  0  0  0  0  0  0
   47.3900   35.7860   41.5650 H   0  0  0  0  0  0  0  0  0  0  0  0
   45.6270   34.9090   40.3640 H   0  0  0  0  0  0  0  0  0  0  0  0
   45.8240   33.2200   41.1120 H   0  0  0  0  0  0  0  0  0  0  0  0
   47.6520   34.8250   39.2340 H   0  0  0  0  0  0  0  0  0  0  0  0
   47.2770   33.0180   39.2520 H   0  0  0  0  0  0  0  0  0  0  0  0
   49.5180   34.3050   40.5850 H   0  0  0  0  0  0  0  0  0  0  0  0
   47.7240   32.9020   42.6010 H   0  0  0  0  0  0  0  0  0  0  0  0
   48.9600   34.2220   42.7980 H   0  0  0  0  0  0  0  0  0  0  0  0
   44.5330   36.0620   44.4670 C   0  0  0  0  0  0  0  0  0  0  0  0
   45.2780   36.0210   43.2940 C   0  0  0  0  0  0  0  0  0  0  0  0
   46.1840   34.9680   43.1580 C   0  0  0  0  0  0  0  0  0  0  0  0
   46.3160   34.0090   44.1740 N   0  0  0  0  0  0  0  0  0  0  0  0
   45.5570   34.1080   45.2950 C   0  0  0  0  0  0  0  0  0  0  0  0
   44.6770   35.1280   45.4330 N   0  0  0  0  0  0  0  0  0  0  0  0
   43.8270   36.8740   44.5830 H   0  0  0  0  0  0  0  0  0  0  0  0
   45.1910   36.7440   42.5080 H   0  0  0  0  0  0  0  0  0  0  0  0
   45.7150   33.3390   46.0290 H   0  0  0  0  0  0  0  0  0  0  0  0
   49.1570   32.2000   40.6660 C   0  0  2  0  0  0  0  0  0  0  0  0
   50.4720   31.9530   41.2410 C   0  0  0  0  0  0  0  0  0  0  0  0
   50.2540   31.8460   39.7650 C   0  0  1  0  0  0  0  0  0  0  0  0
   48.3700   31.4420   40.8280 H   0  0  0  0  0  0  0  0  0  0  0  0
   51.0990   32.8240   41.5700 H   0  0  0  0  0  0  0  0  0  0  0  0
   50.7220   31.0440   41.8260 H   0  0  0  0  0  0  0  0  0  0  0  0
   50.5470   32.6180   39.0420 H   0  0  0  0  0  0  0  0  0  0  0  0
   50.2440   30.5420   39.2100 O   0  0  0  0  0  0  0  0  0  0  0  0
   51.7980   31.9250   37.6390 O   0  0  0  0  0  0  0  0  0  0  0  0
   51.1800   30.5600   37.8130 P   0  0  1  0  0  0  0  0  0  0  0  0
   52.4660   29.4320   37.9570 O   0  0  0  0  0  0  0  0  0  0  0  0
   52.7620   29.4190   38.8990 H   0  0  0  0  0  0  0  0  0  0  0  0
   50.3570   30.1710   36.4240 O   0  0  0  0  0  0  0  0  0  0  0  0
   49.8090   31.1440   35.5890 C   0  0  0  0  0  0  0  0  0  0  0  0
   50.4000   31.2680   34.3300 C   0  0  0  0  0  0  0  0  0  0  0  0
   51.2170   30.7920   33.7820 H   0  0  0  0  0  0  0  0  0  0  0  0
   49.7130   32.2590   33.7050 N   0  0  0  0  0  0  0  0  0  0  0  0
   49.8290   32.6730   32.7400 H   0  0  0  0  0  0  0  0  0  0  0  0
   48.7480   32.7350   34.5110 C   0  0  0  0  0  0  0  0  0  0  0  0
   48.0090   33.5110   34.3710 H   0  0  0  0  0  0  0  0  0  0  0  0
   48.8140   32.0470   35.6630 N   0  0  0  0  0  0  0  0  0  0  0  0
  1  6  1  6  0  0  0
  1  5  1  0  0  0  0
  1 16  1  0  0  0  0
  2  8  1  0  0  0  0
  2  1  1  0  0  0  0
  3  4  1  0  0  0  0
  3  2  1  0  0  0  0
  4 11  1  6  0  0  0
  4  5  1  0  0  0  0
  5 12  1  0  0  0  0
  5 13  1  0  0  0  0
  7  2  1  0  0  0  0
  9  3  1  0  0  0  0
 10  3  1  0  0  0  0
 14 20  1  0  0  0  0
 14 19  1  0  0  0  0
 15 14  2  0  0  0  0
 16 15  1  0  0  0  0
 16 17  2  0  0  0  0
 17 18  1  0  0  0  0
 18 19  2  0  0  0  0
 18 22  1  0  0  0  0
 21 15  1  0  0  0  0
 23  4  1  0  0  0  0
 23 26  1  1  0  0  0
 23 24  1  0  0  0  0
 24 27  1  0  0  0  0
 24 28  1  0  0  0  0
 25 29  1  6  0  0  0
 25 23  1  0  0  0  0
 25 24  1  0  0  0  0
 30 25  1  0  0  0  0
 32 31  2  6  0  0  0
 32 33  1  0  0  0  0
 32 30  1  0  0  0  0
 33 34  1  0  0  0  0
 35 32  1  0  0  0  0
 36 43  1  0  0  0  0
 36 35  1  0  0  0  0
 37 36  2  0  0  0  0
 38 37  1  0  0  0  0
 39 37  1  0  0  0  0
 39 41  1  0  0  0  0
 40 39  1  0  0  0  0
 41 43  2  0  0  0  0
 42 41  1  0  0  0  0
M  END
>  <minimizedAffinity>
-5.11093903

>  <minimizedRMSD>
3.93386745

$$$$
