
 OpenBabel03252502523D

 30 32  0  0  0  0  0  0  0  0999 V2000
   45.9540   29.9880   44.5770 Br  0  0  0  0  0  0  0  0  0  0  0  0
   45.7590   30.6570   46.3820 C   0  0  0  0  0  0  0  0  0  0  0  0
   46.3210   31.8820   46.6300 C   0  0  0  0  0  0  0  0  0  0  0  0
   46.1550   32.3200   47.9410 C   0  0  0  0  0  0  0  0  0  0  0  0
   45.4940   31.6100   48.9140 C   0  0  0  0  0  0  0  0  0  0  0  0
   44.9620   30.3960   48.5920 C   0  0  0  0  0  0  0  0  0  0  0  0
   45.0870   29.8930   47.3010 C   0  0  0  0  0  0  0  0  0  0  0  0
   46.5770   33.2940   48.2260 H   0  0  0  0  0  0  0  0  0  0  0  0
   45.4000   32.0090   49.9210 H   0  0  0  0  0  0  0  0  0  0  0  0
   44.4340   29.8070   49.3300 H   0  0  0  0  0  0  0  0  0  0  0  0
   44.5400   28.5990   46.8870 C   0  0  0  0  0  0  0  0  0  0  0  0
   45.0910   27.3890   47.2920 C   0  0  0  0  0  0  0  0  0  0  0  0
   45.9550   27.2150   47.9350 H   0  0  0  0  0  0  0  0  0  0  0  0
   44.3240   26.4350   46.7150 N   0  0  0  0  0  0  0  0  0  0  0  0
   44.5030   25.3980   46.8450 H   0  0  0  0  0  0  0  0  0  0  0  0
   43.3430   27.0050   45.9880 C   0  0  0  0  0  0  0  0  0  0  0  0
   42.5700   26.5050   45.4090 H   0  0  0  0  0  0  0  0  0  0  0  0
   43.4730   28.3600   46.0900 N   0  0  0  0  0  0  0  0  0  0  0  0
   47.0470   32.7300   45.6800 C   0  0  0  0  0  0  0  0  0  0  0  0
   47.4270   32.0810   44.8550 H   0  0  0  0  0  0  0  0  0  0  0  0
   47.9160   33.1960   46.1500 H   0  0  0  0  0  0  0  0  0  0  0  0
   44.5120   35.4100   45.1690 C   0  0  0  0  0  0  0  0  0  0  0  0
   44.7520   35.7880   43.8360 C   0  0  0  0  0  0  0  0  0  0  0  0
   45.7690   35.1180   43.1570 C   0  0  0  0  0  0  0  0  0  0  0  0
   46.4800   34.1410   43.7920 N   0  0  0  0  0  0  0  0  0  0  0  0
   46.2070   33.8110   45.0870 C   0  0  0  0  0  0  0  0  0  0  0  0
   45.2280   34.4570   45.7390 N   0  0  0  0  0  0  0  0  0  0  0  0
   43.7160   35.9540   45.6590 H   0  0  0  0  0  0  0  0  0  0  0  0
   44.1980   36.5590   43.3190 H   0  0  0  0  0  0  0  0  0  0  0  0
   46.0400   35.3330   42.1140 H   0  0  0  0  0  0  0  0  0  0  0  0
  1  2  1  0  0  0  0
  2  3  2  0  0  0  0
  2  7  1  0  0  0  0
  3  4  1  0  0  0  0
  4  8  1  0  0  0  0
  4  5  2  0  0  0  0
  5  9  1  0  0  0  0
  6  5  1  0  0  0  0
  6 10  1  0  0  0  0
  7  6  2  0  0  0  0
 11 12  2  0  0  0  0
 11  7  1  0  0  0  0
 12 13  1  0  0  0  0
 14 15  1  0  0  0  0
 14 12  1  0  0  0  0
 16 18  2  0  0  0  0
 16 14  1  0  0  0  0
 17 16  1  0  0  0  0
 18 11  1  0  0  0  0
 19 21  1  0  0  0  0
 19  3  1  0  0  0  0
 20 19  1  0  0  0  0
 22 28  1  0  0  0  0
 22 27  1  0  0  0  0
 23 22  2  0  0  0  0
 24 25  2  0  0  0  0
 24 23  1  0  0  0  0
 25 26  1  0  0  0  0
 26 19  1  0  0  0  0
 26 27  2  0  0  0  0
 29 23  1  0  0  0  0
 30 24  1  0  0  0  0
M  END
>  <minimizedAffinity>
-4.94379997

>  <minimizedRMSD>
0.739973009

$$$$
