
 OpenBabel03242514383D

 32 34  0  0  0  0  0  0  0  0999 V2000
   37.8540   31.2030   40.9190 C   0  0  0  0  0  0  0  0  0  0  0  0
   36.7130   31.7440   40.6480 O   0  0  0  0  0  0  0  0  0  0  0  0
   38.8710   32.1350   40.4220 C   0  0  0  0  0  0  0  0  0  0  0  0
   38.9020   33.5500   40.5570 C   0  0  0  0  0  0  0  0  0  0  0  0
   39.9640   34.1790   40.0000 C   0  0  0  0  0  0  0  0  0  0  0  0
   40.9320   33.5110   39.3570 C   0  0  0  0  0  0  0  0  0  0  0  0
   40.3290   31.7000   39.5150 S   0  0  0  0  0  0  0  0  0  0  0  0
   38.0850   34.0140   41.0900 H   0  0  0  0  0  0  0  0  0  0  0  0
   40.0860   35.2550   40.0450 H   0  0  0  0  0  0  0  0  0  0  0  0
   42.1430   33.7600   38.6700 C   0  0  0  0  0  0  0  0  0  0  0  0
   42.3580   33.9500   37.3260 C   0  0  0  0  0  0  0  0  0  0  0  0
   41.6340   33.9450   36.5250 H   0  0  0  0  0  0  0  0  0  0  0  0
   43.7060   34.1470   37.2360 N   0  0  0  0  0  0  0  0  0  0  0  0
   44.2460   34.3270   36.3520 H   0  0  0  0  0  0  0  0  0  0  0  0
   44.2860   34.0800   38.4700 C   0  0  0  0  0  0  0  0  0  0  0  0
   45.3440   34.2030   38.6590 H   0  0  0  0  0  0  0  0  0  0  0  0
   43.2870   33.8350   39.3650 N   0  0  0  0  0  0  0  0  0  0  0  0
   37.7180   30.0130   41.5450 O   0  0  0  0  0  0  0  0  0  0  0  0
   37.0270   28.1350   39.9330 O   0  0  0  0  0  0  0  0  0  0  0  0
   36.6130   28.8210   41.2030 P   0  0  2  0  0  0  0  0  0  0  0  0
   35.1150   29.5220   40.9550 O   0  0  0  0  0  0  0  0  0  0  0  0
   35.1340   29.9800   40.0600 H   0  0  0  0  0  0  0  0  0  0  0  0
   36.5420   27.7010   42.5050 O   0  0  0  0  0  0  0  0  0  0  0  0
   38.6100   27.3480   43.6600 C   0  0  0  0  0  0  0  0  0  0  0  0
   37.6320   26.8750   42.7910 C   0  0  0  0  0  0  0  0  0  0  0  0
   37.7850   25.5990   42.2450 C   0  0  0  0  0  0  0  0  0  0  0  0
   38.8890   24.8800   42.5970 N   0  0  0  0  0  0  0  0  0  0  0  0
   39.8150   25.3690   43.4390 C   0  0  0  0  0  0  0  0  0  0  0  0
   39.6690   26.5890   43.9600 N   0  0  0  0  0  0  0  0  0  0  0  0
   38.5910   28.3100   44.1330 H   0  0  0  0  0  0  0  0  0  0  0  0
   37.0290   25.2330   41.5750 H   0  0  0  0  0  0  0  0  0  0  0  0
   40.6240   24.6520   43.5990 H   0  0  0  0  0  0  0  0  0  0  0  0
  1 18  1  0  0  0  0
  2  1  2  0  0  0  0
  3  4  2  0  0  0  0
  3  1  1  0  0  0  0
  4  8  1  0  0  0  0
  5  9  1  0  0  0  0
  5  4  1  0  0  0  0
  6  7  1  0  0  0  0
  6  5  2  0  0  0  0
  7  3  1  0  0  0  0
 10  6  1  0  0  0  0
 10 17  1  0  0  0  0
 11 10  2  0  0  0  0
 12 11  1  0  0  0  0
 13 11  1  0  0  0  0
 13 15  1  0  0  0  0
 14 13  1  0  0  0  0
 15 16  1  0  0  0  0
 15 17  2  0  0  0  0
 20 19  2  6  0  0  0
 20 18  1  0  0  0  0
 20 23  1  0  0  0  0
 21 20  1  0  0  0  0
 22 21  1  0  0  0  0
 23 25  1  0  0  0  0
 24 29  1  0  0  0  0
 24 30  1  0  0  0  0
 25 24  2  0  0  0  0
 26 27  2  0  0  0  0
 26 25  1  0  0  0  0
 27 28  1  0  0  0  0
 28 32  1  0  0  0  0
 28 29  2  0  0  0  0
 31 26  1  0  0  0  0
M  END
>  <minimizedAffinity>
-5.59808731

$$$$

 OpenBabel03242514383D

 32 34  0  0  0  0  0  0  0  0999 V2000
   36.8620   27.3480   42.5830 C   0  0  0  0  0  0  0  0  0  0  0  0
   36.9390   27.6600   43.8340 O   0  0  0  0  0  0  0  0  0  0  0  0
   36.7980   28.6190   41.8540 C   0  0  0  0  0  0  0  0  0  0  0  0
   35.7920   29.0600   40.9520 C   0  0  0  0  0  0  0  0  0  0  0  0
   35.9750   30.2860   40.4080 C   0  0  0  0  0  0  0  0  0  0  0  0
   37.0420   31.0440   40.7000 C   0  0  0  0  0  0  0  0  0  0  0  0
   37.9910   29.9250   41.9310 S   0  0  0  0  0  0  0  0  0  0  0  0
   34.9630   28.3920   40.7700 H   0  0  0  0  0  0  0  0  0  0  0  0
   35.2690   30.7180   39.7090 H   0  0  0  0  0  0  0  0  0  0  0  0
   37.5900   32.3060   40.3760 C   0  0  0  0  0  0  0  0  0  0  0  0
   37.1700   33.2250   39.4440 C   0  0  0  0  0  0  0  0  0  0  0  0
   36.3290   33.1590   38.7710 H   0  0  0  0  0  0  0  0  0  0  0  0
   38.0670   34.2470   39.5670 N   0  0  0  0  0  0  0  0  0  0  0  0
   38.0680   35.1390   39.0090 H   0  0  0  0  0  0  0  0  0  0  0  0
   38.9930   33.9640   40.5300 C   0  0  0  0  0  0  0  0  0  0  0  0
   39.8070   34.6180   40.8110 H   0  0  0  0  0  0  0  0  0  0  0  0
   38.6790   32.7350   41.0320 N   0  0  0  0  0  0  0  0  0  0  0  0
   36.8680   26.0110   42.3910 O   0  0  0  0  0  0  0  0  0  0  0  0
   37.5850   24.5410   40.4090 O   0  0  0  0  0  0  0  0  0  0  0  0
   38.0800   25.1000   41.7120 P   0  0  2  0  0  0  0  0  0  0  0  0
   38.4360   23.8220   42.7290 O   0  0  0  0  0  0  0  0  0  0  0  0
   37.6840   23.1580   42.6620 H   0  0  0  0  0  0  0  0  0  0  0  0
   39.4740   26.0760   41.4650 O   0  0  0  0  0  0  0  0  0  0  0  0
   41.5760   25.3080   42.3200 C   0  0  0  0  0  0  0  0  0  0  0  0
   40.4720   26.1470   42.4400 C   0  0  0  0  0  0  0  0  0  0  0  0
   40.4120   27.0200   43.5290 C   0  0  0  0  0  0  0  0  0  0  0  0
   41.4450   27.0050   44.4190 N   0  0  0  0  0  0  0  0  0  0  0  0
   42.4960   26.1810   44.2710 C   0  0  0  0  0  0  0  0  0  0  0  0
   42.5530   25.3470   43.2320 N   0  0  0  0  0  0  0  0  0  0  0  0
   41.7210   24.6030   41.5260 H   0  0  0  0  0  0  0  0  0  0  0  0
   39.5600   27.6680   43.6210 H   0  0  0  0  0  0  0  0  0  0  0  0
   43.2180   26.3120   45.0810 H   0  0  0  0  0  0  0  0  0  0  0  0
  1  2  2  0  0  0  0
  3  7  1  0  0  0  0
  3  1  1  0  0  0  0
  4  3  2  0  0  0  0
  5  6  2  0  0  0  0
  5  4  1  0  0  0  0
  6  7  1  0  0  0  0
  8  4  1  0  0  0  0
  9  5  1  0  0  0  0
 10  6  1  0  0  0  0
 10 17  1  0  0  0  0
 11 13  1  0  0  0  0
 11 10  2  0  0  0  0
 12 11  1  0  0  0  0
 13 15  1  0  0  0  0
 14 13  1  0  0  0  0
 15 16  1  0  0  0  0
 15 17  2  0  0  0  0
 18  1  1  0  0  0  0
 20 19  2  6  0  0  0
 20 18  1  0  0  0  0
 20 21  1  0  0  0  0
 22 21  1  0  0  0  0
 23 20  1  0  0  0  0
 23 25  1  0  0  0  0
 24 25  2  0  0  0  0
 24 29  1  0  0  0  0
 25 26  1  0  0  0  0
 26 31  1  0  0  0  0
 26 27  2  0  0  0  0
 28 27  1  0  0  0  0
 28 32  1  0  0  0  0
 29 28  2  0  0  0  0
 30 24  1  0  0  0  0
M  END
>  <minimizedAffinity>
-5.59515142

$$$$

 OpenBabel03242514383D

 32 34  0  0  0  0  0  0  0  0999 V2000
   37.8320   30.2400   41.8640 C   0  0  0  0  0  0  0  0  0  0  0  0
   36.5620   30.2350   41.6300 O   0  0  0  0  0  0  0  0  0  0  0  0
   38.4080   31.2230   40.9400 C   0  0  0  0  0  0  0  0  0  0  0  0
   37.8120   32.4160   40.4480 C   0  0  0  0  0  0  0  0  0  0  0  0
   38.5660   33.1530   39.5990 C   0  0  0  0  0  0  0  0  0  0  0  0
   39.8030   32.7830   39.2400 C   0  0  0  0  0  0  0  0  0  0  0  0
   40.0190   31.1450   40.2070 S   0  0  0  0  0  0  0  0  0  0  0  0
   36.8120   32.6460   40.7860 H   0  0  0  0  0  0  0  0  0  0  0  0
   38.2090   34.0790   39.1660 H   0  0  0  0  0  0  0  0  0  0  0  0
   40.8710   33.2300   38.4260 C   0  0  0  0  0  0  0  0  0  0  0  0
   41.3830   32.6730   37.2780 C   0  0  0  0  0  0  0  0  0  0  0  0
   41.0650   31.7750   36.7710 H   0  0  0  0  0  0  0  0  0  0  0  0
   42.3930   33.5220   36.9270 N   0  0  0  0  0  0  0  0  0  0  0  0
   43.0220   33.4220   36.0900 H   0  0  0  0  0  0  0  0  0  0  0  0
   42.4920   34.5500   37.8210 C   0  0  0  0  0  0  0  0  0  0  0  0
   43.2160   35.3510   37.7580 H   0  0  0  0  0  0  0  0  0  0  0  0
   41.5240   34.3520   38.7610 N   0  0  0  0  0  0  0  0  0  0  0  0
   38.1730   29.3730   42.8420 O   0  0  0  0  0  0  0  0  0  0  0  0
   37.7620   27.1440   41.6310 O   0  0  0  0  0  0  0  0  0  0  0  0
   37.7000   27.7870   42.9860 P   0  0  2  0  0  0  0  0  0  0  0  0
   36.1150   27.7380   43.5170 O   0  0  0  0  0  0  0  0  0  0  0  0
   35.5250   28.0090   42.7490 H   0  0  0  0  0  0  0  0  0  0  0  0
   38.7290   26.9700   44.0950 O   0  0  0  0  0  0  0  0  0  0  0  0
   41.0510   27.4110   43.7020 C   0  0  0  0  0  0  0  0  0  0  0  0
   39.9870   26.5140   43.6920 C   0  0  0  0  0  0  0  0  0  0  0  0
   40.2240   25.2000   43.2800 C   0  0  0  0  0  0  0  0  0  0  0  0
   41.4930   24.8660   42.9100 N   0  0  0  0  0  0  0  0  0  0  0  0
   42.4970   25.7580   42.9310 C   0  0  0  0  0  0  0  0  0  0  0  0
   42.2700   27.0130   43.3240 N   0  0  0  0  0  0  0  0  0  0  0  0
   40.9780   28.4380   43.9990 H   0  0  0  0  0  0  0  0  0  0  0  0
   39.4030   24.5080   43.2730 H   0  0  0  0  0  0  0  0  0  0  0  0
   43.4350   25.3070   42.6000 H   0  0  0  0  0  0  0  0  0  0  0  0
  1 18  1  0  0  0  0
  2  1  2  0  0  0  0
  3  1  1  0  0  0  0
  4  8  1  0  0  0  0
  4  3  2  0  0  0  0
  5  4  1  0  0  0  0
  6  5  2  0  0  0  0
  6  7  1  0  0  0  0
  7  3  1  0  0  0  0
  9  5  1  0  0  0  0
 10 17  1  0  0  0  0
 10  6  1  0  0  0  0
 11 10  2  0  0  0  0
 12 11  1  0  0  0  0
 13 11  1  0  0  0  0
 13 15  1  0  0  0  0
 14 13  1  0  0  0  0
 15 17  2  0  0  0  0
 16 15  1  0  0  0  0
 18 20  1  0  0  0  0
 20 19  2  6  0  0  0
 20 21  1  0  0  0  0
 20 23  1  0  0  0  0
 22 21  1  0  0  0  0
 24 30  1  0  0  0  0
 25 24  1  0  0  0  0
 25 23  1  0  0  0  0
 26 25  2  0  0  0  0
 27 28  2  0  0  0  0
 27 26  1  0  0  0  0
 28 29  1  0  0  0  0
 29 24  2  0  0  0  0
 31 26  1  0  0  0  0
 32 28  1  0  0  0  0
M  END
>  <minimizedAffinity>
-5.46695375

$$$$

 OpenBabel03242514383D

 32 34  0  0  0  0  0  0  0  0999 V2000
   37.7990   30.9100   41.4460 C   0  0  0  0  0  0  0  0  0  0  0  0
   36.5970   31.1710   41.0550 O   0  0  0  0  0  0  0  0  0  0  0  0
   37.7880   29.5070   41.8760 C   0  0  0  0  0  0  0  0  0  0  0  0
   37.6200   28.9980   43.1920 C   0  0  0  0  0  0  0  0  0  0  0  0
   37.6500   27.6500   43.3180 C   0  0  0  0  0  0  0  0  0  0  0  0
   37.8270   26.8400   42.2650 C   0  0  0  0  0  0  0  0  0  0  0  0
   37.9860   28.0940   40.8270 S   0  0  0  0  0  0  0  0  0  0  0  0
   37.4810   29.7160   43.9870 H   0  0  0  0  0  0  0  0  0  0  0  0
   37.5330   27.1570   44.2760 H   0  0  0  0  0  0  0  0  0  0  0  0
   37.9190   25.4600   41.9680 C   0  0  0  0  0  0  0  0  0  0  0  0
   38.8540   24.5400   42.3820 C   0  0  0  0  0  0  0  0  0  0  0  0
   39.7090   24.6970   43.0210 H   0  0  0  0  0  0  0  0  0  0  0  0
   38.4480   23.3770   41.7940 N   0  0  0  0  0  0  0  0  0  0  0  0
   38.9230   22.4420   41.8820 H   0  0  0  0  0  0  0  0  0  0  0  0
   37.3180   23.5780   41.0550 C   0  0  0  0  0  0  0  0  0  0  0  0
   36.8050   22.8080   40.4940 H   0  0  0  0  0  0  0  0  0  0  0  0
   36.9960   24.8970   41.1750 N   0  0  0  0  0  0  0  0  0  0  0  0
   38.6180   31.9780   41.3250 O   0  0  0  0  0  0  0  0  0  0  0  0
   39.2880   34.3730   40.6810 O   0  0  0  0  0  0  0  0  0  0  0  0
   38.5470   33.1700   40.1710 P   0  0  2  0  0  0  0  0  0  0  0  0
   36.9500   33.6010   39.9300 O   0  0  0  0  0  0  0  0  0  0  0  0
   36.6520   34.1360   40.7280 H   0  0  0  0  0  0  0  0  0  0  0  0
   39.2430   32.6050   38.7040 O   0  0  0  0  0  0  0  0  0  0  0  0
   39.6750   30.3290   38.0920 C   0  0  0  0  0  0  0  0  0  0  0  0
   38.8030   31.4120   38.1230 C   0  0  0  0  0  0  0  0  0  0  0  0
   37.5280   31.2590   37.5730 C   0  0  0  0  0  0  0  0  0  0  0  0
   37.2050   30.0490   37.0340 N   0  0  0  0  0  0  0  0  0  0  0  0
   38.0740   29.0240   37.0210 C   0  0  0  0  0  0  0  0  0  0  0  0
   39.2920   29.1710   37.5450 N   0  0  0  0  0  0  0  0  0  0  0  0
   40.6730   30.3400   38.4850 H   0  0  0  0  0  0  0  0  0  0  0  0
   36.8540   32.0950   37.5980 H   0  0  0  0  0  0  0  0  0  0  0  0
   37.6380   28.1410   36.5470 H   0  0  0  0  0  0  0  0  0  0  0  0
  1  3  1  0  0  0  0
  2  1  2  0  0  0  0
  3  4  2  0  0  0  0
  4  5  1  0  0  0  0
  4  8  1  0  0  0  0
  5  9  1  0  0  0  0
  6  5  2  0  0  0  0
  7  3  1  0  0  0  0
  7  6  1  0  0  0  0
 10  6  1  0  0  0  0
 10 11  2  0  0  0  0
 11 12  1  0  0  0  0
 13 14  1  0  0  0  0
 13 11  1  0  0  0  0
 15 17  2  0  0  0  0
 15 13  1  0  0  0  0
 16 15  1  0  0  0  0
 17 10  1  0  0  0  0
 18  1  1  0  0  0  0
 20 19  2  1  0  0  0
 20 18  1  0  0  0  0
 21 20  1  0  0  0  0
 21 22  1  0  0  0  0
 23 20  1  0  0  0  0
 24 25  1  0  0  0  0
 24 30  1  0  0  0  0
 25 23  1  0  0  0  0
 26 31  1  0  0  0  0
 26 25  2  0  0  0  0
 27 26  1  0  0  0  0
 28 27  2  0  0  0  0
 28 29  1  0  0  0  0
 29 24  2  0  0  0  0
 32 28  1  0  0  0  0
M  END
>  <minimizedAffinity>
-5.34992552

$$$$

 OpenBabel03242514383D

 32 34  0  0  0  0  0  0  0  0999 V2000
   38.2340   31.8360   40.1230 C   0  0  0  0  0  0  0  0  0  0  0  0
   37.2170   32.5460   39.7640 O   0  0  0  0  0  0  0  0  0  0  0  0
   39.3570   32.7720   40.2420 C   0  0  0  0  0  0  0  0  0  0  0  0
   39.3400   34.1840   40.0790 C   0  0  0  0  0  0  0  0  0  0  0  0
   40.5260   34.8170   40.2430 C   0  0  0  0  0  0  0  0  0  0  0  0
   41.6520   34.1550   40.5430 C   0  0  0  0  0  0  0  0  0  0  0  0
   41.0330   32.3450   40.6240 S   0  0  0  0  0  0  0  0  0  0  0  0
   38.3930   34.6430   39.8390 H   0  0  0  0  0  0  0  0  0  0  0  0
   40.6250   35.8910   40.1420 H   0  0  0  0  0  0  0  0  0  0  0  0
   43.0220   34.4100   40.7860 C   0  0  0  0  0  0  0  0  0  0  0  0
   43.6100   35.0880   41.8270 C   0  0  0  0  0  0  0  0  0  0  0  0
   43.1330   35.5630   42.6710 H   0  0  0  0  0  0  0  0  0  0  0  0
   44.9450   35.0220   41.5470 N   0  0  0  0  0  0  0  0  0  0  0  0
   45.7190   35.4350   42.1270 H   0  0  0  0  0  0  0  0  0  0  0  0
   45.1600   34.3350   40.3870 C   0  0  0  0  0  0  0  0  0  0  0  0
   46.1340   34.1490   39.9550 H   0  0  0  0  0  0  0  0  0  0  0  0
   43.9370   33.9550   39.9190 N   0  0  0  0  0  0  0  0  0  0  0  0
   37.9210   30.5290   40.2600 O   0  0  0  0  0  0  0  0  0  0  0  0
   36.2420   28.6240   40.6520 O   0  0  0  0  0  0  0  0  0  0  0  0
   36.7900   29.8710   41.2830 P   0  0  2  0  0  0  0  0  0  0  0  0
   35.5330   30.9560   41.4770 O   0  0  0  0  0  0  0  0  0  0  0  0
   34.9950   30.9570   40.6270 H   0  0  0  0  0  0  0  0  0  0  0  0
   37.5130   29.5160   42.8020 O   0  0  0  0  0  0  0  0  0  0  0  0
   38.4180   27.3340   43.2020 C   0  0  0  0  0  0  0  0  0  0  0  0
   38.6240   28.6710   42.8790 C   0  0  0  0  0  0  0  0  0  0  0  0
   39.9300   29.1080   42.6460 C   0  0  0  0  0  0  0  0  0  0  0  0
   40.9380   28.1950   42.7480 N   0  0  0  0  0  0  0  0  0  0  0  0
   40.7020   26.9110   43.0630 C   0  0  0  0  0  0  0  0  0  0  0  0
   39.4540   26.4940   43.2850 N   0  0  0  0  0  0  0  0  0  0  0  0
   37.4590   26.8960   43.4000 H   0  0  0  0  0  0  0  0  0  0  0  0
   40.0890   30.1400   42.3960 H   0  0  0  0  0  0  0  0  0  0  0  0
   41.6290   26.3350   43.0980 H   0  0  0  0  0  0  0  0  0  0  0  0
  1  3  1  0  0  0  0
  1 18  1  0  0  0  0
  2  1  2  0  0  0  0
  3  7  1  0  0  0  0
  4  3  2  0  0  0  0
  4  5  1  0  0  0  0
  5  6  2  0  0  0  0
  6  7  1  0  0  0  0
  6 10  1  0  0  0  0
  8  4  1  0  0  0  0
  9  5  1  0  0  0  0
 10 11  2  0  0  0  0
 11 12  1  0  0  0  0
 13 11  1  0  0  0  0
 13 14  1  0  0  0  0
 15 13  1  0  0  0  0
 16 15  1  0  0  0  0
 17 15  2  0  0  0  0
 17 10  1  0  0  0  0
 18 20  1  0  0  0  0
 20 19  2  6  0  0  0
 20 21  1  0  0  0  0
 20 23  1  0  0  0  0
 22 21  1  0  0  0  0
 23 25  1  0  0  0  0
 24 29  1  0  0  0  0
 24 30  1  0  0  0  0
 25 24  2  0  0  0  0
 26 27  2  0  0  0  0
 26 25  1  0  0  0  0
 27 28  1  0  0  0  0
 28 32  1  0  0  0  0
 28 29  2  0  0  0  0
 31 26  1  0  0  0  0
M  END
>  <minimizedAffinity>
-5.34200335

$$$$

 OpenBabel03242514383D

 32 34  0  0  0  0  0  0  0  0999 V2000
   36.4650   29.5860   41.2850 C   0  0  0  0  0  0  0  0  0  0  0  0
   35.4960   28.8350   40.8790 O   0  0  0  0  0  0  0  0  0  0  0  0
   37.3730   28.7060   42.0280 C   0  0  0  0  0  0  0  0  0  0  0  0
   37.2480   28.2490   43.3680 C   0  0  0  0  0  0  0  0  0  0  0  0
   38.2340   27.4380   43.8170 C   0  0  0  0  0  0  0  0  0  0  0  0
   39.2710   27.0830   43.0450 C   0  0  0  0  0  0  0  0  0  0  0  0
   38.8720   27.9940   41.4090 S   0  0  0  0  0  0  0  0  0  0  0  0
   36.3820   28.5790   43.9240 H   0  0  0  0  0  0  0  0  0  0  0  0
   38.2370   27.0340   44.8220 H   0  0  0  0  0  0  0  0  0  0  0  0
   40.4490   26.3030   43.1110 C   0  0  0  0  0  0  0  0  0  0  0  0
   40.6990   25.0570   42.5880 C   0  0  0  0  0  0  0  0  0  0  0  0
   40.0350   24.4250   42.0180 H   0  0  0  0  0  0  0  0  0  0  0  0
   41.9890   24.8010   42.9570 N   0  0  0  0  0  0  0  0  0  0  0  0
   42.5340   23.9290   42.7340 H   0  0  0  0  0  0  0  0  0  0  0  0
   42.5010   25.8440   43.6740 C   0  0  0  0  0  0  0  0  0  0  0  0
   43.5040   25.8780   44.0780 H   0  0  0  0  0  0  0  0  0  0  0  0
   41.5180   26.7840   43.7630 N   0  0  0  0  0  0  0  0  0  0  0  0
   36.3100   30.8710   40.8990 O   0  0  0  0  0  0  0  0  0  0  0  0
   38.7370   31.6960   40.7260 O   0  0  0  0  0  0  0  0  0  0  0  0
   37.3970   31.8040   40.0580 P   0  0  2  0  0  0  0  0  0  0  0  0
   36.9070   33.4010   40.1200 O   0  0  0  0  0  0  0  0  0  0  0  0
   37.0910   33.7430   41.0480 H   0  0  0  0  0  0  0  0  0  0  0  0
   37.4860   31.2680   38.4260 O   0  0  0  0  0  0  0  0  0  0  0  0
   37.5290   28.9310   37.9000 C   0  0  0  0  0  0  0  0  0  0  0  0
   38.2170   30.1240   38.0940 C   0  0  0  0  0  0  0  0  0  0  0  0
   39.6070   30.1250   37.9470 C   0  0  0  0  0  0  0  0  0  0  0  0
   40.2160   28.9510   37.6190 N   0  0  0  0  0  0  0  0  0  0  0  0
   39.5190   27.8160   37.4390 C   0  0  0  0  0  0  0  0  0  0  0  0
   38.1930   27.8160   37.5800 N   0  0  0  0  0  0  0  0  0  0  0  0
   36.4660   28.8210   37.9870 H   0  0  0  0  0  0  0  0  0  0  0  0
   40.1380   31.0470   38.0970 H   0  0  0  0  0  0  0  0  0  0  0  0
   40.1780   26.9830   37.1840 H   0  0  0  0  0  0  0  0  0  0  0  0
  1  3  1  0  0  0  0
  2  1  2  0  0  0  0
  3  4  2  0  0  0  0
  4  5  1  0  0  0  0
  4  8  1  0  0  0  0
  5  9  1  0  0  0  0
  6 10  1  0  0  0  0
  6  5  2  0  0  0  0
  7  3  1  0  0  0  0
  7  6  1  0  0  0  0
 10 17  1  0  0  0  0
 11 13  1  0  0  0  0
 11 10  2  0  0  0  0
 12 11  1  0  0  0  0
 13 15  1  0  0  0  0
 14 13  1  0  0  0  0
 15 17  2  0  0  0  0
 15 16  1  0  0  0  0
 18  1  1  0  0  0  0
 20 21  1  0  0  0  0
 20 19  2  1  0  0  0
 20 18  1  0  0  0  0
 21 22  1  0  0  0  0
 23 20  1  0  0  0  0
 24 30  1  0  0  0  0
 24 25  1  0  0  0  0
 25 23  1  0  0  0  0
 26 25  2  0  0  0  0
 26 31  1  0  0  0  0
 27 26  1  0  0  0  0
 28 29  1  0  0  0  0
 28 27  2  0  0  0  0
 29 24  2  0  0  0  0
 32 28  1  0  0  0  0
M  END
>  <minimizedAffinity>
-5.24064159

$$$$

 OpenBabel03242514383D

 32 34  0  0  0  0  0  0  0  0999 V2000
   37.9110   31.2670   40.9950 C   0  0  0  0  0  0  0  0  0  0  0  0
   36.8870   31.6410   40.3020 O   0  0  0  0  0  0  0  0  0  0  0  0
   37.6980   29.8470   41.2950 C   0  0  0  0  0  0  0  0  0  0  0  0
   36.4690   29.1330   41.3190 C   0  0  0  0  0  0  0  0  0  0  0  0
   36.5490   27.8180   41.6290 C   0  0  0  0  0  0  0  0  0  0  0  0
   37.7180   27.2200   41.8990 C   0  0  0  0  0  0  0  0  0  0  0  0
   38.9540   28.6690   41.7080 S   0  0  0  0  0  0  0  0  0  0  0  0
   35.5700   29.6870   41.0880 H   0  0  0  0  0  0  0  0  0  0  0  0
   35.6740   27.1810   41.6750 H   0  0  0  0  0  0  0  0  0  0  0  0
   38.2230   25.9460   42.2490 C   0  0  0  0  0  0  0  0  0  0  0  0
   37.6760   24.7030   42.0360 C   0  0  0  0  0  0  0  0  0  0  0  0
   36.7420   24.4570   41.5540 H   0  0  0  0  0  0  0  0  0  0  0  0
   38.5910   23.8460   42.5780 N   0  0  0  0  0  0  0  0  0  0  0  0
   38.5150   22.7980   42.6050 H   0  0  0  0  0  0  0  0  0  0  0  0
   39.6480   24.5360   43.0990 C   0  0  0  0  0  0  0  0  0  0  0  0
   40.5010   24.0800   43.5830 H   0  0  0  0  0  0  0  0  0  0  0  0
   39.4020   25.8600   42.8830 N   0  0  0  0  0  0  0  0  0  0  0  0
   38.7890   32.2750   41.1920 O   0  0  0  0  0  0  0  0  0  0  0  0
   38.3070   34.6160   40.2480 O   0  0  0  0  0  0  0  0  0  0  0  0
   39.2350   33.4450   40.1010 P   0  0  2  0  0  0  0  0  0  0  0  0
   39.0700   32.8360   38.5520 O   0  0  0  0  0  0  0  0  0  0  0  0
   38.0870   32.7930   38.3430 H   0  0  0  0  0  0  0  0  0  0  0  0
   40.8630   33.9190   40.3860 O   0  0  0  0  0  0  0  0  0  0  0  0
   42.6330   32.5600   39.5160 C   0  0  0  0  0  0  0  0  0  0  0  0
   41.8460   33.7030   39.4170 C   0  0  0  0  0  0  0  0  0  0  0  0
   42.0740   34.5810   38.3550 C   0  0  0  0  0  0  0  0  0  0  0  0
   43.0600   34.2690   37.4660 N   0  0  0  0  0  0  0  0  0  0  0  0
   43.8010   33.1560   37.5930 C   0  0  0  0  0  0  0  0  0  0  0  0
   43.5840   32.3170   38.6070 N   0  0  0  0  0  0  0  0  0  0  0  0
   42.5420   31.8230   40.2890 H   0  0  0  0  0  0  0  0  0  0  0  0
   41.4650   35.4630   38.2790 H   0  0  0  0  0  0  0  0  0  0  0  0
   44.5380   33.0770   36.7900 H   0  0  0  0  0  0  0  0  0  0  0  0
  1 18  1  0  0  0  0
  1  3  1  0  0  0  0
  2  1  2  0  0  0  0
  3  4  2  0  0  0  0
  3  7  1  0  0  0  0
  4  5  1  0  0  0  0
  5  9  1  0  0  0  0
  5  6  2  0  0  0  0
  6 10  1  0  0  0  0
  7  6  1  0  0  0  0
  8  4  1  0  0  0  0
 10 17  1  0  0  0  0
 11 10  2  0  0  0  0
 11 13  1  0  0  0  0
 12 11  1  0  0  0  0
 13 14  1  0  0  0  0
 13 15  1  0  0  0  0
 15 16  1  0  0  0  0
 17 15  2  0  0  0  0
 20 19  2  1  0  0  0
 20 23  1  0  0  0  0
 20 18  1  0  0  0  0
 21 20  1  0  0  0  0
 22 21  1  0  0  0  0
 24 30  1  0  0  0  0
 25 24  1  0  0  0  0
 25 23  1  0  0  0  0
 26 25  2  0  0  0  0
 27 28  2  0  0  0  0
 27 26  1  0  0  0  0
 28 29  1  0  0  0  0
 29 24  2  0  0  0  0
 31 26  1  0  0  0  0
 32 28  1  0  0  0  0
M  END
>  <minimizedAffinity>
-5.21762562

$$$$

 OpenBabel03242514383D

 32 34  0  0  0  0  0  0  0  0999 V2000
   39.8800   30.8180   41.7050 C   0  0  0  0  0  0  0  0  0  0  0  0
   40.2810   31.3290   42.8210 O   0  0  0  0  0  0  0  0  0  0  0  0
   39.2640   29.5320   42.0490 C   0  0  0  0  0  0  0  0  0  0  0  0
   38.4160   29.2350   43.1500 C   0  0  0  0  0  0  0  0  0  0  0  0
   37.9800   27.9560   43.2390 C   0  0  0  0  0  0  0  0  0  0  0  0
   38.3240   27.0210   42.3410 C   0  0  0  0  0  0  0  0  0  0  0  0
   39.4410   28.0170   41.1470 S   0  0  0  0  0  0  0  0  0  0  0  0
   38.1840   30.0430   43.8280 H   0  0  0  0  0  0  0  0  0  0  0  0
   37.3300   27.6220   44.0390 H   0  0  0  0  0  0  0  0  0  0  0  0
   38.1070   25.6500   42.0740 C   0  0  0  0  0  0  0  0  0  0  0  0
   38.8370   24.5570   42.4780 C   0  0  0  0  0  0  0  0  0  0  0  0
   39.7290   24.5360   43.0860 H   0  0  0  0  0  0  0  0  0  0  0  0
   38.1700   23.4990   41.9300 N   0  0  0  0  0  0  0  0  0  0  0  0
   38.4360   22.4860   42.0250 H   0  0  0  0  0  0  0  0  0  0  0  0
   37.0840   23.9270   41.2240 C   0  0  0  0  0  0  0  0  0  0  0  0
   36.3980   23.2770   40.6980 H   0  0  0  0  0  0  0  0  0  0  0  0
   37.0570   25.2870   41.3230 N   0  0  0  0  0  0  0  0  0  0  0  0
   40.1550   31.6160   40.6500 O   0  0  0  0  0  0  0  0  0  0  0  0
   40.2510   33.8580   39.3980 O   0  0  0  0  0  0  0  0  0  0  0  0
   39.3200   32.9690   40.1710 P   0  0  2  0  0  0  0  0  0  0  0  0
   38.8060   33.8020   41.5270 O   0  0  0  0  0  0  0  0  0  0  0  0
   39.6100   34.2490   41.9350 H   0  0  0  0  0  0  0  0  0  0  0  0
   37.9740   32.5120   39.2040 O   0  0  0  0  0  0  0  0  0  0  0  0
   37.3830   30.2600   38.6380 C   0  0  0  0  0  0  0  0  0  0  0  0
   37.2540   31.3490   39.4940 C   0  0  0  0  0  0  0  0  0  0  0  0
   36.4120   31.2320   40.6030 C   0  0  0  0  0  0  0  0  0  0  0  0
   35.7600   30.0490   40.7880 N   0  0  0  0  0  0  0  0  0  0  0  0
   35.9080   29.0170   39.9400 C   0  0  0  0  0  0  0  0  0  0  0  0
   36.7110   29.1300   38.8820 N   0  0  0  0  0  0  0  0  0  0  0  0
   38.0000   30.2440   37.7620 H   0  0  0  0  0  0  0  0  0  0  0  0
   36.3130   32.0720   41.2640 H   0  0  0  0  0  0  0  0  0  0  0  0
   35.3070   28.1590   40.2520 H   0  0  0  0  0  0  0  0  0  0  0  0
  1  3  1  0  0  0  0
  1  2  2  0  0  0  0
  3  4  2  0  0  0  0
  4  5  1  0  0  0  0
  4  8  1  0  0  0  0
  5  9  1  0  0  0  0
  6  5  2  0  0  0  0
  7  3  1  0  0  0  0
  7  6  1  0  0  0  0
 10  6  1  0  0  0  0
 10 11  2  0  0  0  0
 11 12  1  0  0  0  0
 13 14  1  0  0  0  0
 13 11  1  0  0  0  0
 15 17  2  0  0  0  0
 15 13  1  0  0  0  0
 16 15  1  0  0  0  0
 17 10  1  0  0  0  0
 18  1  1  0  0  0  0
 20 19  2  6  0  0  0
 20 18  1  0  0  0  0
 20 21  1  0  0  0  0
 21 22  1  0  0  0  0
 23 25  1  0  0  0  0
 23 20  1  0  0  0  0
 24 29  2  0  0  0  0
 24 25  1  0  0  0  0
 25 26  2  0  0  0  0
 26 27  1  0  0  0  0
 26 31  1  0  0  0  0
 28 32  1  0  0  0  0
 28 27  2  0  0  0  0
 29 28  1  0  0  0  0
 30 24  1  0  0  0  0
M  END
>  <minimizedAffinity>
-5.21546364

$$$$

 OpenBabel03242514383D

 32 34  0  0  0  0  0  0  0  0999 V2000
   39.9710   32.0520   38.1890 C   0  0  0  0  0  0  0  0  0  0  0  0
   39.0780   31.4830   37.4500 O   0  0  0  0  0  0  0  0  0  0  0  0
   39.8380   31.4490   39.5190 C   0  0  0  0  0  0  0  0  0  0  0  0
   40.2280   31.9980   40.7710 C   0  0  0  0  0  0  0  0  0  0  0  0
   39.9920   31.2280   41.8590 C   0  0  0  0  0  0  0  0  0  0  0  0
   39.4240   30.0180   41.7660 C   0  0  0  0  0  0  0  0  0  0  0  0
   39.1450   29.8590   39.8790 S   0  0  0  0  0  0  0  0  0  0  0  0
   40.6780   32.9800   40.7620 H   0  0  0  0  0  0  0  0  0  0  0  0
   40.2500   31.5500   42.8610 H   0  0  0  0  0  0  0  0  0  0  0  0
   39.0220   28.9470   42.5980 C   0  0  0  0  0  0  0  0  0  0  0  0
   39.5450   27.6800   42.7000 C   0  0  0  0  0  0  0  0  0  0  0  0
   40.3740   27.2520   42.1570 H   0  0  0  0  0  0  0  0  0  0  0  0
   38.7700   27.0830   43.6520 N   0  0  0  0  0  0  0  0  0  0  0  0
   38.8710   26.0960   44.0020 H   0  0  0  0  0  0  0  0  0  0  0  0
   37.8170   27.9470   44.1100 C   0  0  0  0  0  0  0  0  0  0  0  0
   37.0820   27.7070   44.8660 H   0  0  0  0  0  0  0  0  0  0  0  0
   37.9890   29.1190   43.4350 N   0  0  0  0  0  0  0  0  0  0  0  0
   40.6900   32.9680   37.5040 O   0  0  0  0  0  0  0  0  0  0  0  0
   42.0440   34.4120   39.1420 O   0  0  0  0  0  0  0  0  0  0  0  0
   42.1840   33.5740   37.9040 P   0  0  2  0  0  0  0  0  0  0  0  0
   42.7220   34.5590   36.6640 O   0  0  0  0  0  0  0  0  0  0  0  0
   42.1920   35.4120   36.6970 H   0  0  0  0  0  0  0  0  0  0  0  0
   43.2880   32.2820   38.1650 O   0  0  0  0  0  0  0  0  0  0  0  0
   43.3990   30.8030   36.2830 C   0  0  0  0  0  0  0  0  0  0  0  0
   44.0160   31.7450   37.1000 C   0  0  0  0  0  0  0  0  0  0  0  0
   45.3350   32.1110   36.8190 C   0  0  0  0  0  0  0  0  0  0  0  0
   45.9490   31.5220   35.7530 N   0  0  0  0  0  0  0  0  0  0  0  0
   45.3210   30.6160   34.9860 C   0  0  0  0  0  0  0  0  0  0  0  0
   44.0620   30.2670   35.2540 N   0  0  0  0  0  0  0  0  0  0  0  0
   42.3930   30.4540   36.4100 H   0  0  0  0  0  0  0  0  0  0  0  0
   45.8120   32.8380   37.4500 H   0  0  0  0  0  0  0  0  0  0  0  0
   45.9720   30.2570   34.1840 H   0  0  0  0  0  0  0  0  0  0  0  0
  1  3  1  0  0  0  0
  2  1  2  0  0  0  0
  3  7  1  0  0  0  0
  3  4  2  0  0  0  0
  4  5  1  0  0  0  0
  5  9  1  0  0  0  0
  6  5  2  0  0  0  0
  6 10  1  0  0  0  0
  7  6  1  0  0  0  0
  8  4  1  0  0  0  0
 10 11  2  0  0  0  0
 10 17  1  0  0  0  0
 11 13  1  0  0  0  0
 12 11  1  0  0  0  0
 13 14  1  0  0  0  0
 13 15  1  0  0  0  0
 15 16  1  0  0  0  0
 17 15  2  0  0  0  0
 18 20  1  0  0  0  0
 18  1  1  0  0  0  0
 20 23  1  0  0  0  0
 20 19  2  1  0  0  0
 21 22  1  0  0  0  0
 21 20  1  0  0  0  0
 24 30  1  0  0  0  0
 24 25  1  0  0  0  0
 25 23  1  0  0  0  0
 26 25  2  0  0  0  0
 26 31  1  0  0  0  0
 27 26  1  0  0  0  0
 28 29  1  0  0  0  0
 28 27  2  0  0  0  0
 29 24  2  0  0  0  0
 32 28  1  0  0  0  0
M  END
>  <minimizedAffinity>
-5.16227913

$$$$
