
 OpenBabel03252508223D

 33 35  0  0  0  0  0  0  0  0999 V2000
   36.1710   30.1900   39.0100 C   0  0  0  0  0  0  0  0  0  0  0  0
   35.7460   29.2910   38.0370 C   0  0  0  0  0  0  0  0  0  0  0  0
   36.1450   29.2820   36.7100 C   0  0  0  0  0  0  0  0  0  0  0  0
   37.0460   30.2710   36.3620 C   0  0  0  0  0  0  0  0  0  0  0  0
   37.4800   31.1680   37.3030 C   0  0  0  0  0  0  0  0  0  0  0  0
   37.0740   31.1670   38.6290 C   0  0  0  0  0  0  0  0  0  0  0  0
   35.0290   28.5350   38.3920 H   0  0  0  0  0  0  0  0  0  0  0  0
   35.7170   28.5140   36.0920 H   0  0  0  0  0  0  0  0  0  0  0  0
   37.3610   30.2700   35.3320 H   0  0  0  0  0  0  0  0  0  0  0  0
   38.1820   31.8770   36.8670 H   0  0  0  0  0  0  0  0  0  0  0  0
   37.6650   32.2160   39.4370 C   0  0  0  0  0  0  0  0  0  0  0  0
   37.3860   33.5320   39.6780 C   0  0  0  0  0  0  0  0  0  0  0  0
   36.5840   34.0920   39.2510 H   0  0  0  0  0  0  0  0  0  0  0  0
   38.1970   34.1220   40.5300 N   0  0  0  0  0  0  0  0  0  0  0  0
   38.2230   35.0880   40.8900 H   0  0  0  0  0  0  0  0  0  0  0  0
   39.0600   33.1600   40.8800 C   0  0  0  0  0  0  0  0  0  0  0  0
   39.9110   33.1580   41.5570 H   0  0  0  0  0  0  0  0  0  0  0  0
   38.7280   32.0440   40.2240 N   0  0  0  0  0  0  0  0  0  0  0  0
   35.7030   30.1640   40.3900 C   0  0  0  0  0  0  0  0  0  0  0  0
   34.6580   30.5470   40.3970 H   0  0  0  0  0  0  0  0  0  0  0  0
   36.3150   30.7350   41.0910 H   0  0  0  0  0  0  0  0  0  0  0  0
   35.5380   28.7190   40.9040 C   0  0  0  0  0  0  0  0  0  0  0  0
   34.6300   28.6930   41.5080 H   0  0  0  0  0  0  0  0  0  0  0  0
   35.5460   28.0010   40.0680 H   0  0  0  0  0  0  0  0  0  0  0  0
   38.1760   26.9260   42.9380 C   0  0  0  0  0  0  0  0  0  0  0  0
   37.0450   27.1230   42.1040 C   0  0  0  0  0  0  0  0  0  0  0  0
   36.7120   28.4300   41.7760 C   0  0  0  0  0  0  0  0  0  0  0  0
   37.5100   29.4290   42.2880 N   0  0  0  0  0  0  0  0  0  0  0  0
   38.5610   29.2110   43.0650 C   0  0  0  0  0  0  0  0  0  0  0  0
   38.9040   27.9620   43.3970 N   0  0  0  0  0  0  0  0  0  0  0  0
   38.3670   25.8700   43.1460 H   0  0  0  0  0  0  0  0  0  0  0  0
   36.4600   26.2910   41.7350 H   0  0  0  0  0  0  0  0  0  0  0  0
   39.1210   30.0620   43.4150 H   0  0  0  0  0  0  0  0  0  0  0  0
  1 19  1  0  0  0  0
  2  7  1  0  0  0  0
  2  1  2  0  0  0  0
  3  2  1  0  0  0  0
  4  3  2  0  0  0  0
  4  5  1  0  0  0  0
  5  6  2  0  0  0  0
  6  1  1  0  0  0  0
  6 11  1  0  0  0  0
  8  3  1  0  0  0  0
  9  4  1  0  0  0  0
 10  5  1  0  0  0  0
 11 12  2  0  0  0  0
 11 18  1  0  0  0  0
 12 14  1  0  0  0  0
 13 12  1  0  0  0  0
 14 16  1  0  0  0  0
 14 15  1  0  0  0  0
 16 17  1  0  0  0  0
 18 16  2  0  0  0  0
 19 20  1  0  0  0  0
 19 22  1  0  0  0  0
 19 21  1  0  0  0  0
 22 23  1  0  0  0  0
 22 27  1  0  0  0  0
 24 22  1  0  0  0  0
 25 31  1  0  0  0  0
 25 30  1  0  0  0  0
 26 25  2  0  0  0  0
 27 26  1  0  0  0  0
 27 28  2  0  0  0  0
 28 29  1  0  0  0  0
 29 30  2  0  0  0  0
 29 33  1  0  0  0  0
 32 26  1  0  0  0  0
M  END
>  <minimizedAffinity>
-5.5151968

$$$$

 OpenBabel03252508223D

 33 35  0  0  0  0  0  0  0  0999 V2000
   36.9360   26.3480   39.9470 C   0  0  0  0  0  0  0  0  0  0  0  0
   36.6260   25.1130   39.3860 C   0  0  0  0  0  0  0  0  0  0  0  0
   36.4860   23.9200   40.0760 C   0  0  0  0  0  0  0  0  0  0  0  0
   36.6800   24.0060   41.4420 C   0  0  0  0  0  0  0  0  0  0  0  0
   36.9860   25.2120   42.0180 C   0  0  0  0  0  0  0  0  0  0  0  0
   37.1230   26.4000   41.3170 C   0  0  0  0  0  0  0  0  0  0  0  0
   36.4880   25.1280   38.2940 H   0  0  0  0  0  0  0  0  0  0  0  0
   36.2430   23.0560   39.4840 H   0  0  0  0  0  0  0  0  0  0  0  0
   36.5720   23.0820   41.9840 H   0  0  0  0  0  0  0  0  0  0  0  0
   37.1050   25.1050   43.0950 H   0  0  0  0  0  0  0  0  0  0  0  0
   37.4530   27.5460   42.1410 C   0  0  0  0  0  0  0  0  0  0  0  0
   36.8210   28.2510   43.1270 C   0  0  0  0  0  0  0  0  0  0  0  0
   35.8410   28.0590   43.5050 H   0  0  0  0  0  0  0  0  0  0  0  0
   37.5230   29.2390   43.6380 N   0  0  0  0  0  0  0  0  0  0  0  0
   37.3000   29.9220   44.3790 H   0  0  0  0  0  0  0  0  0  0  0  0
   38.6810   29.1980   42.9690 C   0  0  0  0  0  0  0  0  0  0  0  0
   39.5790   29.8080   43.0310 H   0  0  0  0  0  0  0  0  0  0  0  0
   38.6190   28.1920   42.0910 N   0  0  0  0  0  0  0  0  0  0  0  0
   37.0900   27.5710   39.1690 C   0  0  0  0  0  0  0  0  0  0  0  0
   37.0520   27.2910   38.0930 H   0  0  0  0  0  0  0  0  0  0  0  0
   38.0030   28.1340   39.3770 H   0  0  0  0  0  0  0  0  0  0  0  0
   35.8660   28.4960   39.3220 C   0  0  0  0  0  0  0  0  0  0  0  0
   35.2380   28.3500   38.4420 H   0  0  0  0  0  0  0  0  0  0  0  0
   35.3510   28.3120   40.2800 H   0  0  0  0  0  0  0  0  0  0  0  0
   37.2890   31.8310   38.2430 C   0  0  0  0  0  0  0  0  0  0  0  0
   36.8190   30.4940   38.1580 C   0  0  0  0  0  0  0  0  0  0  0  0
   36.3760   29.8970   39.3300 C   0  0  0  0  0  0  0  0  0  0  0  0
   36.4290   30.6530   40.4800 N   0  0  0  0  0  0  0  0  0  0  0  0
   36.8740   31.9000   40.5250 C   0  0  0  0  0  0  0  0  0  0  0  0
   37.3070   32.5000   39.4120 N   0  0  0  0  0  0  0  0  0  0  0  0
   37.6180   32.2230   37.2780 H   0  0  0  0  0  0  0  0  0  0  0  0
   36.8050   29.9560   37.2190 H   0  0  0  0  0  0  0  0  0  0  0  0
   36.8750   32.4060   41.4760 H   0  0  0  0  0  0  0  0  0  0  0  0
  1  6  1  0  0  0  0
  2  1  2  0  0  0  0
  2  3  1  0  0  0  0
  3  4  2  0  0  0  0
  4  9  1  0  0  0  0
  4  5  1  0  0  0  0
  5 10  1  0  0  0  0
  6  5  2  0  0  0  0
  6 11  1  0  0  0  0
  7  2  1  0  0  0  0
  8  3  1  0  0  0  0
 11 12  2  0  0  0  0
 12 13  1  0  0  0  0
 12 14  1  0  0  0  0
 14 15  1  0  0  0  0
 16 17  1  0  0  0  0
 16 14  1  0  0  0  0
 18 11  1  0  0  0  0
 18 16  2  0  0  0  0
 19 22  1  0  0  0  0
 19 21  1  0  0  0  0
 19  1  1  0  0  0  0
 20 19  1  0  0  0  0
 22 27  1  0  0  0  0
 22 24  1  0  0  0  0
 23 22  1  0  0  0  0
 25 30  1  0  0  0  0
 26 25  2  0  0  0  0
 26 27  1  0  0  0  0
 27 28  2  0  0  0  0
 28 29  1  0  0  0  0
 29 33  1  0  0  0  0
 30 29  2  0  0  0  0
 31 25  1  0  0  0  0
 32 26  1  0  0  0  0
M  END
>  <minimizedAffinity>
-5.11701298

$$$$

 OpenBabel03252508223D

 33 35  0  0  0  0  0  0  0  0999 V2000
   36.7600   28.3410   40.7600 C   0  0  0  0  0  0  0  0  0  0  0  0
   36.7010   27.1090   41.4050 C   0  0  0  0  0  0  0  0  0  0  0  0
   37.0830   26.8590   42.7140 C   0  0  0  0  0  0  0  0  0  0  0  0
   37.5600   27.9570   43.4050 C   0  0  0  0  0  0  0  0  0  0  0  0
   37.6270   29.1810   42.7910 C   0  0  0  0  0  0  0  0  0  0  0  0
   37.2420   29.4190   41.4810 C   0  0  0  0  0  0  0  0  0  0  0  0
   36.3100   26.2860   40.7880 H   0  0  0  0  0  0  0  0  0  0  0  0
   36.9710   25.8460   43.0550 H   0  0  0  0  0  0  0  0  0  0  0  0
   37.8590   27.7700   44.4220 H   0  0  0  0  0  0  0  0  0  0  0  0
   38.0240   29.9330   43.4710 H   0  0  0  0  0  0  0  0  0  0  0  0
   37.4080   30.7930   41.0490 C   0  0  0  0  0  0  0  0  0  0  0  0
   36.5810   31.7670   40.5610 C   0  0  0  0  0  0  0  0  0  0  0  0
   35.5330   31.6680   40.3840 H   0  0  0  0  0  0  0  0  0  0  0  0
   37.1680   32.9180   40.3140 N   0  0  0  0  0  0  0  0  0  0  0  0
   36.7960   33.8080   39.9490 H   0  0  0  0  0  0  0  0  0  0  0  0
   38.4470   32.7120   40.6520 C   0  0  0  0  0  0  0  0  0  0  0  0
   39.3190   33.3620   40.6270 H   0  0  0  0  0  0  0  0  0  0  0  0
   38.5660   31.4530   41.0820 N   0  0  0  0  0  0  0  0  0  0  0  0
   36.3610   28.5430   39.3730 C   0  0  0  0  0  0  0  0  0  0  0  0
   36.5270   27.5840   38.8330 H   0  0  0  0  0  0  0  0  0  0  0  0
   36.8810   29.3560   38.8610 H   0  0  0  0  0  0  0  0  0  0  0  0
   34.8370   28.7440   39.2470 C   0  0  0  0  0  0  0  0  0  0  0  0
   34.3590   27.8320   39.6070 H   0  0  0  0  0  0  0  0  0  0  0  0
   34.5170   29.6590   39.7710 H   0  0  0  0  0  0  0  0  0  0  0  0
   33.0190   29.1380   35.9530 C   0  0  0  0  0  0  0  0  0  0  0  0
   33.2250   28.9780   37.3480 C   0  0  0  0  0  0  0  0  0  0  0  0
   34.5380   28.9100   37.7960 C   0  0  0  0  0  0  0  0  0  0  0  0
   35.5310   29.0020   36.8470 N   0  0  0  0  0  0  0  0  0  0  0  0
   35.3040   29.1510   35.5500 C   0  0  0  0  0  0  0  0  0  0  0  0
   34.0510   29.2200   35.0910 N   0  0  0  0  0  0  0  0  0  0  0  0
   31.9600   29.1820   35.6870 H   0  0  0  0  0  0  0  0  0  0  0  0
   32.3970   28.9110   38.0400 H   0  0  0  0  0  0  0  0  0  0  0  0
   36.1520   29.2130   34.8890 H   0  0  0  0  0  0  0  0  0  0  0  0
  1  2  2  0  0  0  0
  1  6  1  0  0  0  0
  2  3  1  0  0  0  0
  3  8  1  0  0  0  0
  3  4  2  0  0  0  0
  4  9  1  0  0  0  0
  5  4  1  0  0  0  0
  5 10  1  0  0  0  0
  6  5  2  0  0  0  0
  7  2  1  0  0  0  0
 11 18  1  0  0  0  0
 11  6  1  0  0  0  0
 12 11  2  0  0  0  0
 13 12  1  0  0  0  0
 14 12  1  0  0  0  0
 14 16  1  0  0  0  0
 15 14  1  0  0  0  0
 16 18  2  0  0  0  0
 17 16  1  0  0  0  0
 19  1  1  0  0  0  0
 20 19  1  0  0  0  0
 21 19  1  0  0  0  0
 22 19  1  0  0  0  0
 22 23  1  0  0  0  0
 22 24  1  0  0  0  0
 25 26  1  0  0  0  0
 26 27  2  0  0  0  0
 26 32  1  0  0  0  0
 27 22  1  0  0  0  0
 28 27  1  0  0  0  0
 29 28  2  0  0  0  0
 30 29  1  0  0  0  0
 30 25  2  0  0  0  0
 31 25  1  0  0  0  0
 33 29  1  0  0  0  0
M  END
>  <minimizedAffinity>
-5.07645702

$$$$

 OpenBabel03252508223D

 33 35  0  0  0  0  0  0  0  0999 V2000
   36.2890   27.8900   41.3670 C   0  0  0  0  0  0  0  0  0  0  0  0
   35.6410   28.9530   40.7460 C   0  0  0  0  0  0  0  0  0  0  0  0
   35.3470   29.0470   39.3950 C   0  0  0  0  0  0  0  0  0  0  0  0
   35.7500   27.9680   38.6310 C   0  0  0  0  0  0  0  0  0  0  0  0
   36.3900   26.9090   39.2210 C   0  0  0  0  0  0  0  0  0  0  0  0
   36.6790   26.8260   40.5740 C   0  0  0  0  0  0  0  0  0  0  0  0
   35.3530   29.7730   41.4220 H   0  0  0  0  0  0  0  0  0  0  0  0
   34.8390   29.9420   39.0820 H   0  0  0  0  0  0  0  0  0  0  0  0
   35.5240   28.0350   37.5800 H   0  0  0  0  0  0  0  0  0  0  0  0
   36.6390   26.1490   38.4820 H   0  0  0  0  0  0  0  0  0  0  0  0
   37.3660   25.6110   40.9650 C   0  0  0  0  0  0  0  0  0  0  0  0
   37.0500   24.5130   41.7170 C   0  0  0  0  0  0  0  0  0  0  0  0
   36.1230   24.3420   42.2180 H   0  0  0  0  0  0  0  0  0  0  0  0
   37.9970   23.6040   41.7930 N   0  0  0  0  0  0  0  0  0  0  0  0
   38.0330   22.6950   42.2800 H   0  0  0  0  0  0  0  0  0  0  0  0
   38.9960   24.1090   41.0590 C   0  0  0  0  0  0  0  0  0  0  0  0
   39.9880   23.7300   40.8200 H   0  0  0  0  0  0  0  0  0  0  0  0
   38.6030   25.2930   40.5800 N   0  0  0  0  0  0  0  0  0  0  0  0
   36.5910   27.8530   42.7930 C   0  0  0  0  0  0  0  0  0  0  0  0
   37.1000   26.8850   43.0030 H   0  0  0  0  0  0  0  0  0  0  0  0
   35.7240   27.9680   43.4470 H   0  0  0  0  0  0  0  0  0  0  0  0
   37.6660   28.8910   43.1710 C   0  0  0  0  0  0  0  0  0  0  0  0
   37.6570   29.6620   42.3990 H   0  0  0  0  0  0  0  0  0  0  0  0
   37.5020   29.2730   44.1920 H   0  0  0  0  0  0  0  0  0  0  0  0
   41.3080   28.0600   42.5750 C   0  0  0  0  0  0  0  0  0  0  0  0
   40.0900   28.7890   42.5640 C   0  0  0  0  0  0  0  0  0  0  0  0
   38.9800   28.1890   43.1420 C   0  0  0  0  0  0  0  0  0  0  0  0
   39.1540   26.9330   43.6800 N   0  0  0  0  0  0  0  0  0  0  0  0
   40.3060   26.2790   43.6740 C   0  0  0  0  0  0  0  0  0  0  0  0
   41.3910   26.8320   43.1240 N   0  0  0  0  0  0  0  0  0  0  0  0
   42.1290   28.6040   42.1020 H   0  0  0  0  0  0  0  0  0  0  0  0
   40.0240   29.7750   42.1240 H   0  0  0  0  0  0  0  0  0  0  0  0
   40.3370   25.2980   44.1210 H   0  0  0  0  0  0  0  0  0  0  0  0
  1 19  1  0  0  0  0
  2  1  1  0  0  0  0
  2  7  1  0  0  0  0
  3  2  2  0  0  0  0
  4  5  2  0  0  0  0
  4  3  1  0  0  0  0
  5  6  1  0  0  0  0
  6 11  1  0  0  0  0
  6  1  2  0  0  0  0
  8  3  1  0  0  0  0
  9  4  1  0  0  0  0
 10  5  1  0  0  0  0
 11 12  2  0  0  0  0
 12 14  1  0  0  0  0
 12 13  1  0  0  0  0
 14 15  1  0  0  0  0
 16 14  1  0  0  0  0
 17 16  1  0  0  0  0
 18 11  1  0  0  0  0
 18 16  2  0  0  0  0
 19 20  1  0  0  0  0
 19 22  1  0  0  0  0
 19 21  1  0  0  0  0
 22 24  1  0  0  0  0
 23 22  1  0  0  0  0
 25 30  1  0  0  0  0
 26 25  2  0  0  0  0
 26 27  1  0  0  0  0
 27 22  1  0  0  0  0
 27 28  2  0  0  0  0
 29 28  1  0  0  0  0
 29 33  1  0  0  0  0
 30 29  2  0  0  0  0
 31 25  1  0  0  0  0
 32 26  1  0  0  0  0
M  END
>  <minimizedAffinity>
-5.03727913

$$$$

 OpenBabel03252508223D

 33 35  0  0  0  0  0  0  0  0999 V2000
   36.8610   29.3300   41.2020 C   0  0  0  0  0  0  0  0  0  0  0  0
   35.7220   28.7140   40.6940 C   0  0  0  0  0  0  0  0  0  0  0  0
   35.1750   28.9260   39.4390 C   0  0  0  0  0  0  0  0  0  0  0  0
   35.8520   29.8380   38.6510 C   0  0  0  0  0  0  0  0  0  0  0  0
   36.9770   30.4580   39.1300 C   0  0  0  0  0  0  0  0  0  0  0  0
   37.5150   30.2380   40.3880 C   0  0  0  0  0  0  0  0  0  0  0  0
   35.2400   28.0010   41.3820 H   0  0  0  0  0  0  0  0  0  0  0  0
   34.2890   28.3640   39.2070 H   0  0  0  0  0  0  0  0  0  0  0  0
   35.4330   30.0080   37.6740 H   0  0  0  0  0  0  0  0  0  0  0  0
   37.3850   31.1430   38.3880 H   0  0  0  0  0  0  0  0  0  0  0  0
   38.7080   31.0110   40.6730 C   0  0  0  0  0  0  0  0  0  0  0  0
   38.9630   32.2590   41.1700 C   0  0  0  0  0  0  0  0  0  0  0  0
   38.2310   32.9770   41.4670 H   0  0  0  0  0  0  0  0  0  0  0  0
   40.2380   32.5560   41.2910 N   0  0  0  0  0  0  0  0  0  0  0  0
   40.7120   33.4080   41.6300 H   0  0  0  0  0  0  0  0  0  0  0  0
   40.8730   31.4600   40.8560 C   0  0  0  0  0  0  0  0  0  0  0  0
   41.9290   31.2190   40.7630 H   0  0  0  0  0  0  0  0  0  0  0  0
   39.9510   30.5610   40.4980 N   0  0  0  0  0  0  0  0  0  0  0  0
   37.3820   29.0830   42.5410 C   0  0  0  0  0  0  0  0  0  0  0  0
   36.9810   29.8780   43.2090 H   0  0  0  0  0  0  0  0  0  0  0  0
   38.4710   29.0500   42.6090 H   0  0  0  0  0  0  0  0  0  0  0  0
   36.7870   27.7970   43.1500 C   0  0  0  0  0  0  0  0  0  0  0  0
   36.5980   27.9970   44.2060 H   0  0  0  0  0  0  0  0  0  0  0  0
   35.8980   27.4700   42.5860 H   0  0  0  0  0  0  0  0  0  0  0  0
   38.6430   24.6420   42.1950 C   0  0  0  0  0  0  0  0  0  0  0  0
   37.6050   25.6080   42.2580 C   0  0  0  0  0  0  0  0  0  0  0  0
   37.8280   26.7370   43.0340 C   0  0  0  0  0  0  0  0  0  0  0  0
   39.0420   26.8260   43.6790 N   0  0  0  0  0  0  0  0  0  0  0  0
   39.9910   25.9060   43.5990 C   0  0  0  0  0  0  0  0  0  0  0  0
   39.8040   24.8080   42.8590 N   0  0  0  0  0  0  0  0  0  0  0  0
   38.3850   23.7880   41.5640 H   0  0  0  0  0  0  0  0  0  0  0  0
   36.6730   25.4750   41.7250 H   0  0  0  0  0  0  0  0  0  0  0  0
   40.9070   26.0700   44.1430 H   0  0  0  0  0  0  0  0  0  0  0  0
  1 19  1  0  0  0  0
  2  1  1  0  0  0  0
  2  7  1  0  0  0  0
  3  2  2  0  0  0  0
  4  5  2  0  0  0  0
  4  3  1  0  0  0  0
  5  6  1  0  0  0  0
  6 11  1  0  0  0  0
  6  1  2  0  0  0  0
  8  3  1  0  0  0  0
  9  4  1  0  0  0  0
 10  5  1  0  0  0  0
 11 12  2  0  0  0  0
 12 14  1  0  0  0  0
 12 13  1  0  0  0  0
 14 15  1  0  0  0  0
 16 14  1  0  0  0  0
 17 16  1  0  0  0  0
 18 11  1  0  0  0  0
 18 16  2  0  0  0  0
 19 21  1  0  0  0  0
 19 22  1  0  0  0  0
 19 20  1  0  0  0  0
 22 23  1  0  0  0  0
 24 22  1  0  0  0  0
 25 26  2  0  0  0  0
 25 30  1  0  0  0  0
 26 27  1  0  0  0  0
 27 22  1  0  0  0  0
 27 28  2  0  0  0  0
 29 28  1  0  0  0  0
 29 33  1  0  0  0  0
 30 29  2  0  0  0  0
 31 25  1  0  0  0  0
 32 26  1  0  0  0  0
M  END
>  <minimizedAffinity>
-5.00995588

$$$$

 OpenBabel03252508223D

 33 35  0  0  0  0  0  0  0  0999 V2000
   38.5190   26.1720   42.6120 C   0  0  0  0  0  0  0  0  0  0  0  0
   37.1910   25.8160   42.4020 C   0  0  0  0  0  0  0  0  0  0  0  0
   36.7490   24.6440   41.8100 C   0  0  0  0  0  0  0  0  0  0  0  0
   37.7470   23.7780   41.4050 C   0  0  0  0  0  0  0  0  0  0  0  0
   39.0640   24.1080   41.6000 C   0  0  0  0  0  0  0  0  0  0  0  0
   39.4950   25.2830   42.1950 C   0  0  0  0  0  0  0  0  0  0  0  0
   36.4560   26.5570   42.7520 H   0  0  0  0  0  0  0  0  0  0  0  0
   35.6830   24.5280   41.7270 H   0  0  0  0  0  0  0  0  0  0  0  0
   37.4100   22.8660   40.9430 H   0  0  0  0  0  0  0  0  0  0  0  0
   39.7180   23.3220   41.2250 H   0  0  0  0  0  0  0  0  0  0  0  0
   40.9350   25.4130   42.2900 C   0  0  0  0  0  0  0  0  0  0  0  0
   41.9440   25.7290   41.4230 C   0  0  0  0  0  0  0  0  0  0  0  0
   41.8310   25.9570   40.3860 H   0  0  0  0  0  0  0  0  0  0  0  0
   43.1450   25.7550   41.9570 N   0  0  0  0  0  0  0  0  0  0  0  0
   44.0700   25.9570   41.5480 H   0  0  0  0  0  0  0  0  0  0  0  0
   42.9380   25.4440   43.2430 C   0  0  0  0  0  0  0  0  0  0  0  0
   43.6190   25.3390   44.0850 H   0  0  0  0  0  0  0  0  0  0  0  0
   41.6280   25.2470   43.4180 N   0  0  0  0  0  0  0  0  0  0  0  0
   38.9290   27.4300   43.2240 C   0  0  0  0  0  0  0  0  0  0  0  0
   39.5370   27.9850   42.4760 H   0  0  0  0  0  0  0  0  0  0  0  0
   39.4890   27.3230   44.1570 H   0  0  0  0  0  0  0  0  0  0  0  0
   37.7260   28.3680   43.4480 C   0  0  0  0  0  0  0  0  0  0  0  0
   36.8280   27.8140   43.1700 H   0  0  0  0  0  0  0  0  0  0  0  0
   37.7160   28.7560   44.4790 H   0  0  0  0  0  0  0  0  0  0  0  0
   37.0990   31.0010   40.8050 C   0  0  0  0  0  0  0  0  0  0  0  0
   36.8670   29.8930   41.6600 C   0  0  0  0  0  0  0  0  0  0  0  0
   37.8930   29.5210   42.5180 C   0  0  0  0  0  0  0  0  0  0  0  0
   39.0540   30.2610   42.4670 N   0  0  0  0  0  0  0  0  0  0  0  0
   39.2380   31.2920   41.6560 C   0  0  0  0  0  0  0  0  0  0  0  0
   38.2680   31.6720   40.8200 N   0  0  0  0  0  0  0  0  0  0  0  0
   36.2430   31.2250   40.1650 H   0  0  0  0  0  0  0  0  0  0  0  0
   35.9290   29.3540   41.6490 H   0  0  0  0  0  0  0  0  0  0  0  0
   40.1850   31.8060   41.6930 H   0  0  0  0  0  0  0  0  0  0  0  0
  1 19  1  0  0  0  0
  2  1  1  0  0  0  0
  2  7  1  0  0  0  0
  3  2  2  0  0  0  0
  4  5  2  0  0  0  0
  4  3  1  0  0  0  0
  5  6  1  0  0  0  0
  6 11  1  0  0  0  0
  6  1  2  0  0  0  0
  8  3  1  0  0  0  0
  9  4  1  0  0  0  0
 10  5  1  0  0  0  0
 11 18  1  0  0  0  0
 12 14  1  0  0  0  0
 12 11  2  0  0  0  0
 13 12  1  0  0  0  0
 14 16  1  0  0  0  0
 15 14  1  0  0  0  0
 16 18  2  0  0  0  0
 16 17  1  0  0  0  0
 19 22  1  0  0  0  0
 19 21  1  0  0  0  0
 20 19  1  0  0  0  0
 22 24  1  0  0  0  0
 23 22  1  0  0  0  0
 25 30  2  0  0  0  0
 25 26  1  0  0  0  0
 26 27  2  0  0  0  0
 27 22  1  0  0  0  0
 28 27  1  0  0  0  0
 29 33  1  0  0  0  0
 29 28  2  0  0  0  0
 30 29  1  0  0  0  0
 31 25  1  0  0  0  0
 32 26  1  0  0  0  0
M  END
>  <minimizedAffinity>
-4.97779226

$$$$

 OpenBabel03252508223D

 33 35  0  0  0  0  0  0  0  0999 V2000
   36.4730   30.3740   39.2160 C   0  0  0  0  0  0  0  0  0  0  0  0
   36.5700   31.3330   40.2190 C   0  0  0  0  0  0  0  0  0  0  0  0
   37.2900   32.5150   40.1450 C   0  0  0  0  0  0  0  0  0  0  0  0
   37.9570   32.7210   38.9520 C   0  0  0  0  0  0  0  0  0  0  0  0
   37.8760   31.7900   37.9490 C   0  0  0  0  0  0  0  0  0  0  0  0
   37.1520   30.6110   38.0340 C   0  0  0  0  0  0  0  0  0  0  0  0
   36.0110   31.0960   41.1370 H   0  0  0  0  0  0  0  0  0  0  0  0
   37.2570   33.1450   41.0150 H   0  0  0  0  0  0  0  0  0  0  0  0
   38.5190   33.6380   38.8880 H   0  0  0  0  0  0  0  0  0  0  0  0
   38.4570   32.1040   37.0830 H   0  0  0  0  0  0  0  0  0  0  0  0
   37.2180   29.7810   36.8470 C   0  0  0  0  0  0  0  0  0  0  0  0
   37.9570   28.6990   36.4570 C   0  0  0  0  0  0  0  0  0  0  0  0
   38.7180   28.2190   37.0310 H   0  0  0  0  0  0  0  0  0  0  0  0
   37.6610   28.2290   35.2640 N   0  0  0  0  0  0  0  0  0  0  0  0
   38.0490   27.4390   34.7270 H   0  0  0  0  0  0  0  0  0  0  0  0
   36.6790   29.0290   34.8310 C   0  0  0  0  0  0  0  0  0  0  0  0
   36.1070   29.0450   33.9060 H   0  0  0  0  0  0  0  0  0  0  0  0
   36.4330   29.9370   35.7800 N   0  0  0  0  0  0  0  0  0  0  0  0
   35.7140   29.1370   39.3550 C   0  0  0  0  0  0  0  0  0  0  0  0
   36.3360   28.3130   38.9380 H   0  0  0  0  0  0  0  0  0  0  0  0
   34.7330   29.1460   38.8740 H   0  0  0  0  0  0  0  0  0  0  0  0
   35.5610   28.7310   40.8350 C   0  0  0  0  0  0  0  0  0  0  0  0
   35.7780   29.6150   41.4370 H   0  0  0  0  0  0  0  0  0  0  0  0
   34.5680   28.2900   41.0210 H   0  0  0  0  0  0  0  0  0  0  0  0
   37.9250   26.3620   42.5990 C   0  0  0  0  0  0  0  0  0  0  0  0
   36.9360   27.3640   42.4150 C   0  0  0  0  0  0  0  0  0  0  0  0
   36.5920   27.6900   41.1110 C   0  0  0  0  0  0  0  0  0  0  0  0
   37.2400   27.0130   40.1010 N   0  0  0  0  0  0  0  0  0  0  0  0
   38.1590   26.0820   40.3080 C   0  0  0  0  0  0  0  0  0  0  0  0
   38.5100   25.7470   41.5530 N   0  0  0  0  0  0  0  0  0  0  0  0
   38.1350   26.1670   43.6540 H   0  0  0  0  0  0  0  0  0  0  0  0
   36.4660   27.8580   43.2550 H   0  0  0  0  0  0  0  0  0  0  0  0
   38.6080   25.6110   39.4490 H   0  0  0  0  0  0  0  0  0  0  0  0
  1 19  1  0  0  0  0
  1  2  1  0  0  0  0
  2  7  1  0  0  0  0
  3  2  2  0  0  0  0
  3  8  1  0  0  0  0
  4  3  1  0  0  0  0
  5  6  1  0  0  0  0
  5  4  2  0  0  0  0
  6  1  2  0  0  0  0
  9  4  1  0  0  0  0
 10  5  1  0  0  0  0
 11  6  1  0  0  0  0
 12 11  2  0  0  0  0
 12 13  1  0  0  0  0
 14 12  1  0  0  0  0
 15 14  1  0  0  0  0
 16 14  1  0  0  0  0
 16 18  2  0  0  0  0
 17 16  1  0  0  0  0
 18 11  1  0  0  0  0
 19 22  1  0  0  0  0
 20 19  1  0  0  0  0
 21 19  1  0  0  0  0
 22 24  1  0  0  0  0
 22 27  1  0  0  0  0
 22 23  1  0  0  0  0
 25 31  1  0  0  0  0
 26 25  1  0  0  0  0
 26 32  1  0  0  0  0
 27 26  2  0  0  0  0
 28 29  2  0  0  0  0
 28 27  1  0  0  0  0
 29 30  1  0  0  0  0
 30 25  2  0  0  0  0
 33 29  1  0  0  0  0
M  END
>  <minimizedAffinity>
-4.95994663

$$$$

 OpenBabel03252508223D

 33 35  0  0  0  0  0  0  0  0999 V2000
   38.0310   26.4060   42.2810 C   0  0  0  0  0  0  0  0  0  0  0  0
   38.9880   26.6180   43.2680 C   0  0  0  0  0  0  0  0  0  0  0  0
   39.9470   25.7060   43.6790 C   0  0  0  0  0  0  0  0  0  0  0  0
   39.9170   24.4890   43.0250 C   0  0  0  0  0  0  0  0  0  0  0  0
   38.9840   24.2560   42.0480 C   0  0  0  0  0  0  0  0  0  0  0  0
   38.0290   25.1770   41.6440 C   0  0  0  0  0  0  0  0  0  0  0  0
   38.9460   27.6110   43.7420 H   0  0  0  0  0  0  0  0  0  0  0  0
   40.6100   26.0360   44.4580 H   0  0  0  0  0  0  0  0  0  0  0  0
   40.6590   23.7760   43.3400 H   0  0  0  0  0  0  0  0  0  0  0  0
   39.0970   23.2550   41.6370 H   0  0  0  0  0  0  0  0  0  0  0  0
   37.1470   24.7040   40.5960 C   0  0  0  0  0  0  0  0  0  0  0  0
   37.0320   24.9180   39.2500 C   0  0  0  0  0  0  0  0  0  0  0  0
   37.6480   25.5620   38.6630 H   0  0  0  0  0  0  0  0  0  0  0  0
   36.0700   24.2400   38.6630 N   0  0  0  0  0  0  0  0  0  0  0  0
   35.7620   24.2070   37.6790 H   0  0  0  0  0  0  0  0  0  0  0  0
   35.5120   23.5350   39.6560 C   0  0  0  0  0  0  0  0  0  0  0  0
   34.6850   22.8300   39.6710 H   0  0  0  0  0  0  0  0  0  0  0  0
   36.1630   23.8230   40.7860 N   0  0  0  0  0  0  0  0  0  0  0  0
   37.0320   27.3960   41.9010 C   0  0  0  0  0  0  0  0  0  0  0  0
   36.0290   26.9500   42.0850 H   0  0  0  0  0  0  0  0  0  0  0  0
   37.1020   27.7440   40.8670 H   0  0  0  0  0  0  0  0  0  0  0  0
   37.0450   28.6070   42.8560 C   0  0  0  0  0  0  0  0  0  0  0  0
   36.0260   28.7390   43.2240 H   0  0  0  0  0  0  0  0  0  0  0  0
   37.7980   28.4740   43.6490 H   0  0  0  0  0  0  0  0  0  0  0  0
   36.9240   31.5780   40.5170 C   0  0  0  0  0  0  0  0  0  0  0  0
   36.4860   30.4500   41.2600 C   0  0  0  0  0  0  0  0  0  0  0  0
   37.4270   29.7980   42.0450 C   0  0  0  0  0  0  0  0  0  0  0  0
   38.7090   30.3010   42.0380 N   0  0  0  0  0  0  0  0  0  0  0  0
   39.0850   31.3570   41.3330 C   0  0  0  0  0  0  0  0  0  0  0  0
   38.2010   32.0050   40.5670 N   0  0  0  0  0  0  0  0  0  0  0  0
   36.1230   32.0300   39.9270 H   0  0  0  0  0  0  0  0  0  0  0  0
   35.4610   30.1080   41.2190 H   0  0  0  0  0  0  0  0  0  0  0  0
   40.1140   31.6710   41.3960 H   0  0  0  0  0  0  0  0  0  0  0  0
  1  2  1  0  0  0  0
  2  3  2  0  0  0  0
  2  7  1  0  0  0  0
  3  8  1  0  0  0  0
  4  9  1  0  0  0  0
  4  3  1  0  0  0  0
  5  4  2  0  0  0  0
  6  5  1  0  0  0  0
  6  1  2  0  0  0  0
 10  5  1  0  0  0  0
 11 18  1  0  0  0  0
 11  6  1  0  0  0  0
 12 11  2  0  0  0  0
 13 12  1  0  0  0  0
 14 12  1  0  0  0  0
 14 16  1  0  0  0  0
 15 14  1  0  0  0  0
 16 17  1  0  0  0  0
 16 18  2  0  0  0  0
 19 20  1  0  0  0  0
 19  1  1  0  0  0  0
 19 22  1  0  0  0  0
 21 19  1  0  0  0  0
 22 23  1  0  0  0  0
 22 24  1  0  0  0  0
 25 30  2  0  0  0  0
 25 26  1  0  0  0  0
 26 27  2  0  0  0  0
 27 22  1  0  0  0  0
 28 27  1  0  0  0  0
 29 33  1  0  0  0  0
 29 28  2  0  0  0  0
 30 29  1  0  0  0  0
 31 25  1  0  0  0  0
 32 26  1  0  0  0  0
M  END
>  <minimizedAffinity>
-4.9336772

$$$$

 OpenBabel03252508223D

 33 35  0  0  0  0  0  0  0  0999 V2000
   37.1410   27.9370   40.7230 C   0  0  0  0  0  0  0  0  0  0  0  0
   37.0750   26.7010   41.3590 C   0  0  0  0  0  0  0  0  0  0  0  0
   37.1160   26.4890   42.7270 C   0  0  0  0  0  0  0  0  0  0  0  0
   37.2340   27.6330   43.4940 C   0  0  0  0  0  0  0  0  0  0  0  0
   37.3020   28.8620   42.8910 C   0  0  0  0  0  0  0  0  0  0  0  0
   37.2590   29.0620   41.5200 C   0  0  0  0  0  0  0  0  0  0  0  0
   36.9810   25.8400   40.6790 H   0  0  0  0  0  0  0  0  0  0  0  0
   37.0520   25.4660   43.0500 H   0  0  0  0  0  0  0  0  0  0  0  0
   37.2670   27.4750   44.5590 H   0  0  0  0  0  0  0  0  0  0  0  0
   37.3930   29.6520   43.6340 H   0  0  0  0  0  0  0  0  0  0  0  0
   37.3500   30.4510   41.1150 C   0  0  0  0  0  0  0  0  0  0  0  0
   36.4630   31.4040   40.6990 C   0  0  0  0  0  0  0  0  0  0  0  0
   35.4110   31.2700   40.5760 H   0  0  0  0  0  0  0  0  0  0  0  0
   36.9930   32.5820   40.4490 N   0  0  0  0  0  0  0  0  0  0  0  0
   36.5700   33.4660   40.1280 H   0  0  0  0  0  0  0  0  0  0  0  0
   38.2960   32.4170   40.7100 C   0  0  0  0  0  0  0  0  0  0  0  0
   39.1410   33.0990   40.6540 H   0  0  0  0  0  0  0  0  0  0  0  0
   38.4850   31.1530   41.1010 N   0  0  0  0  0  0  0  0  0  0  0  0
   37.1120   28.1000   39.2750 C   0  0  0  0  0  0  0  0  0  0  0  0
   37.5520   27.1820   38.8240 H   0  0  0  0  0  0  0  0  0  0  0  0
   37.6340   28.9860   38.9040 H   0  0  0  0  0  0  0  0  0  0  0  0
   35.6680   28.0850   38.7330 C   0  0  0  0  0  0  0  0  0  0  0  0
   35.2880   27.0700   38.8530 H   0  0  0  0  0  0  0  0  0  0  0  0
   35.0560   28.8580   39.2260 H   0  0  0  0  0  0  0  0  0  0  0  0
   36.9400   28.6230   35.2110 C   0  0  0  0  0  0  0  0  0  0  0  0
   36.9460   28.3000   36.5930 C   0  0  0  0  0  0  0  0  0  0  0  0
   35.7440   28.4080   37.2800 C   0  0  0  0  0  0  0  0  0  0  0  0
   34.6440   28.8220   36.5610 N   0  0  0  0  0  0  0  0  0  0  0  0
   34.6730   29.1160   35.2700 C   0  0  0  0  0  0  0  0  0  0  0  0
   35.8160   29.0200   34.5830 N   0  0  0  0  0  0  0  0  0  0  0  0
   37.9230   28.5110   34.7490 H   0  0  0  0  0  0  0  0  0  0  0  0
   37.8480   27.9810   37.0980 H   0  0  0  0  0  0  0  0  0  0  0  0
   33.7560   29.4310   34.7990 H   0  0  0  0  0  0  0  0  0  0  0  0
  1  2  2  0  0  0  0
  1  6  1  0  0  0  0
  2  3  1  0  0  0  0
  3  8  1  0  0  0  0
  3  4  2  0  0  0  0
  4  9  1  0  0  0  0
  5  4  1  0  0  0  0
  5 10  1  0  0  0  0
  6  5  2  0  0  0  0
  7  2  1  0  0  0  0
 11  6  1  0  0  0  0
 12 11  2  0  0  0  0
 13 12  1  0  0  0  0
 14 12  1  0  0  0  0
 14 16  1  0  0  0  0
 15 14  1  0  0  0  0
 16 18  2  0  0  0  0
 17 16  1  0  0  0  0
 18 11  1  0  0  0  0
 19  1  1  0  0  0  0
 20 19  1  0  0  0  0
 21 19  1  0  0  0  0
 22 23  1  0  0  0  0
 22 24  1  0  0  0  0
 22 19  1  0  0  0  0
 25 26  1  0  0  0  0
 26 32  1  0  0  0  0
 26 27  2  0  0  0  0
 27 22  1  0  0  0  0
 28 27  1  0  0  0  0
 29 28  2  0  0  0  0
 30 25  2  0  0  0  0
 30 29  1  0  0  0  0
 31 25  1  0  0  0  0
 33 29  1  0  0  0  0
M  END
>  <minimizedAffinity>
-4.90198803

$$$$
