
 OpenBabel03252508203D

 33 35  0  0  0  0  0  0  0  0999 V2000
   40.4990   31.7180   39.6000 C   0  0  0  0  0  0  0  0  0  0  0  0
   40.4370   32.7260   38.6430 C   0  0  0  0  0  0  0  0  0  0  0  0
   41.1430   33.9190   38.6730 C   0  0  0  0  0  0  0  0  0  0  0  0
   41.9710   34.0820   39.7670 C   0  0  0  0  0  0  0  0  0  0  0  0
   42.0490   33.1030   40.7230 C   0  0  0  0  0  0  0  0  0  0  0  0
   41.3380   31.9130   40.6830 C   0  0  0  0  0  0  0  0  0  0  0  0
   39.7550   32.5210   37.8030 H   0  0  0  0  0  0  0  0  0  0  0  0
   40.9760   34.5890   37.8490 H   0  0  0  0  0  0  0  0  0  0  0  0
   42.5220   35.0070   39.7970 H   0  0  0  0  0  0  0  0  0  0  0  0
   42.7420   33.3890   41.5130 H   0  0  0  0  0  0  0  0  0  0  0  0
   41.5820   31.0320   41.8080 C   0  0  0  0  0  0  0  0  0  0  0  0
   40.9280   30.7360   42.9710 C   0  0  0  0  0  0  0  0  0  0  0  0
   40.0060   31.1660   43.2990 H   0  0  0  0  0  0  0  0  0  0  0  0
   41.5130   29.8260   43.7180 N   0  0  0  0  0  0  0  0  0  0  0  0
   41.2490   29.4180   44.6280 H   0  0  0  0  0  0  0  0  0  0  0  0
   42.6110   29.4910   43.0280 C   0  0  0  0  0  0  0  0  0  0  0  0
   43.4110   28.7830   43.2300 H   0  0  0  0  0  0  0  0  0  0  0  0
   42.6310   30.2150   41.9050 N   0  0  0  0  0  0  0  0  0  0  0  0
   39.7190   30.4900   39.5270 C   0  0  0  0  0  0  0  0  0  0  0  0
   39.2010   30.3620   40.5040 H   0  0  0  0  0  0  0  0  0  0  0  0
   40.2970   29.5930   39.2900 H   0  0  0  0  0  0  0  0  0  0  0  0
   38.5440   30.6240   38.5360 C   0  0  0  0  0  0  0  0  0  0  0  0
   37.6310   30.3820   39.0830 H   0  0  0  0  0  0  0  0  0  0  0  0
   38.5390   31.6200   38.0660 H   0  0  0  0  0  0  0  0  0  0  0  0
   38.8030   27.3440   36.6690 C   0  0  0  0  0  0  0  0  0  0  0  0
   38.5850   28.2540   37.7360 C   0  0  0  0  0  0  0  0  0  0  0  0
   38.7550   29.6060   37.4690 C   0  0  0  0  0  0  0  0  0  0  0  0
   39.1220   29.9510   36.1870 N   0  0  0  0  0  0  0  0  0  0  0  0
   39.3180   29.0750   35.2120 C   0  0  0  0  0  0  0  0  0  0  0  0
   39.1610   27.7680   35.4410 N   0  0  0  0  0  0  0  0  0  0  0  0
   38.6480   26.3040   36.9650 H   0  0  0  0  0  0  0  0  0  0  0  0
   38.2980   27.9140   38.7220 H   0  0  0  0  0  0  0  0  0  0  0  0
   39.6040   29.4480   34.2430 H   0  0  0  0  0  0  0  0  0  0  0  0
  1  6  1  0  0  0  0
  2  3  1  0  0  0  0
  2  1  2  0  0  0  0
  3  4  2  0  0  0  0
  4  9  1  0  0  0  0
  4  5  1  0  0  0  0
  5 10  1  0  0  0  0
  6  5  2  0  0  0  0
  6 11  1  0  0  0  0
  7  2  1  0  0  0  0
  8  3  1  0  0  0  0
 11 18  1  0  0  0  0
 11 12  2  0  0  0  0
 12 13  1  0  0  0  0
 12 14  1  0  0  0  0
 14 15  1  0  0  0  0
 16 17  1  0  0  0  0
 16 14  1  0  0  0  0
 18 16  2  0  0  0  0
 19  1  1  0  0  0  0
 19 20  1  0  0  0  0
 21 19  1  0  0  0  0
 22 23  1  0  0  0  0
 22 19  1  0  0  0  0
 24 22  1  0  0  0  0
 25 31  1  0  0  0  0
 25 26  1  0  0  0  0
 26 32  1  0  0  0  0
 27 26  2  0  0  0  0
 27 22  1  0  0  0  0
 28 27  1  0  0  0  0
 29 30  1  0  0  0  0
 29 28  2  0  0  0  0
 30 25  2  0  0  0  0
 33 29  1  0  0  0  0
M  END
>  <minimizedAffinity>
-2.9927237

>  <minimizedRMSD>
7.21540117

$$$$
