
     RDKit          3D

 33 35  0  0  0  0  0  0  0  0999 V2000
   43.8642   33.5968   40.6164 C   0  0  0  0  0  0  0  0  0  0  0  0
   40.3800   34.7933   41.4772 C   0  0  0  0  0  0  0  0  0  0  0  0
   41.7474   34.8391   41.0975 C   0  0  0  0  0  0  0  0  0  0  0  0
   42.4273   33.6316   41.0104 C   0  0  0  0  0  0  0  0  0  0  0  0
   41.7173   32.4878   41.3003 N   0  0  0  0  0  0  0  0  0  0  0  0
   40.4403   32.4799   41.6521 C   0  0  0  0  0  0  0  0  0  0  0  0
   39.7596   33.6265   41.7443 N   0  0  0  0  0  0  0  0  0  0  0  0
   44.6804   34.0501   41.8440 C   0  0  0  0  0  0  0  0  0  0  0  0
   46.0489   34.3931   41.4786 C   0  0  0  0  0  0  0  0  0  0  0  0
   46.6333   34.0390   40.2666 C   0  0  0  0  0  0  0  0  0  0  0  0
   47.9214   34.3541   39.8642 C   0  0  0  0  0  0  0  0  0  0  0  0
   48.6583   35.0862   40.7761 C   0  0  0  0  0  0  0  0  0  0  0  0
   48.1043   35.4464   41.9768 C   0  0  0  0  0  0  0  0  0  0  0  0
   46.8143   35.1250   42.3695 C   0  0  0  0  0  0  0  0  0  0  0  0
   44.0353   34.3298   39.8264 H   0  0  0  0  0  0  0  0  0  0  0  0
   44.1188   32.5624   40.3353 H   0  0  0  0  0  0  0  0  0  0  0  0
   39.9216   35.7839   41.5213 H   0  0  0  0  0  0  0  0  0  0  0  0
   42.2452   35.7753   40.8832 H   0  0  0  0  0  0  0  0  0  0  0  0
   39.9747   31.5296   41.8588 H   0  0  0  0  0  0  0  0  0  0  0  0
   44.1673   34.9906   42.1449 H   0  0  0  0  0  0  0  0  0  0  0  0
   44.5910   33.3047   42.6380 H   0  0  0  0  0  0  0  0  0  0  0  0
   45.9824   33.4578   39.5958 H   0  0  0  0  0  0  0  0  0  0  0  0
   48.2127   33.9999   38.8925 H   0  0  0  0  0  0  0  0  0  0  0  0
   49.6605   35.3340   40.4691 H   0  0  0  0  0  0  0  0  0  0  0  0
   48.8143   36.0155   42.5744 H   0  0  0  0  0  0  0  0  0  0  0  0
   46.4476   35.6182   43.6828 C   0  0  0  0  0  0  0  0  0  0  0  0
   47.0054   35.5724   44.9296 C   0  0  0  0  0  0  0  0  0  0  0  0
   47.9260   35.0969   45.1884 H   0  0  0  0  0  0  0  0  0  0  0  0
   46.3205   36.1951   45.8650 N   0  0  0  0  0  0  0  0  0  0  0  0
   46.5006   36.3190   46.8731 H   0  0  0  0  0  0  0  0  0  0  0  0
   45.2531   36.6834   45.2199 C   0  0  0  0  0  0  0  0  0  0  0  0
   44.4025   37.2686   45.5596 H   0  0  0  0  0  0  0  0  0  0  0  0
   45.3487   36.3314   43.9344 N   0  0  0  0  0  0  0  0  0  0  0  0
  1  4  1  0
  1  8  1  0
  2  7  2  0
  3  2  1  0
  4  3  2  0
  4  5  1  0
  5  6  2  0
  6  7  1  0
  9  8  1  0
  9 14  1  0
 10  9  2  0
 11 10  1  0
 11 12  2  0
 12 13  1  0
 13 14  2  0
  1 15  1  0
  1 16  1  0
  2 17  1  0
  3 18  1  0
  6 19  1  0
  8 20  1  0
  8 21  1  0
 10 22  1  0
 11 23  1  0
 12 24  1  0
 13 25  1  0
 26 27  2  0
 27 28  1  0
 27 29  1  0
 29 30  1  0
 29 31  1  0
 31 32  1  0
 31 33  2  0
 33 26  1  0
 14 26  1  0
M  ISO  8  15   8  16   8  17  14  18  14  19  14  20   8  21   8  22  14
M  ISO  6  23  14  24  14  25  14  28  15  30   5  32  14
M  END
>  <DihAtoms>  (1) 
8,13,25,26

>  <DihDeg>  (1) 
9.81888128227704

$$$$
