
     RDKit          3D

 46 49  0  0  0  0  0  0  0  0999 V2000
   43.2022   33.2363   41.1501 C   0  0  0  0  0  0  0  0  0  0  0  0
   44.2313   34.0805   41.7798 C   0  0  0  0  0  0  0  0  0  0  0  0
   43.8806   35.2559   42.4026 C   0  0  0  0  0  0  0  0  0  0  0  0
   44.8859   36.0260   42.9740 C   0  0  0  0  0  0  0  0  0  0  0  0
   46.1741   35.5715   42.8881 N   0  0  0  0  0  0  0  0  0  0  0  0
   46.4718   34.4287   42.2793 C   0  0  0  0  0  0  0  0  0  0  0  0
   45.4898   33.7045   41.7348 N   0  0  0  0  0  0  0  0  0  0  0  0
   47.8698   34.0093   42.2598 C   0  0  0  0  0  0  0  0  0  0  0  0
   48.2082   32.6813   42.0129 C   0  0  0  0  0  0  0  0  0  0  0  0
   49.5290   32.2961   42.0071 C   0  0  0  0  0  0  0  0  0  0  0  0
   50.4249   33.3074   42.2572 C   0  0  0  0  0  0  0  0  0  0  0  0
   50.1410   34.6434   42.5085 C   0  0  0  0  0  0  0  0  0  0  0  0
   48.8140   34.9319   42.4946 N   0  0  0  0  0  0  0  0  0  0  0  0
   41.9033   33.9536   41.2121 C   0  0  0  0  0  0  0  0  0  0  0  0
   41.0011   33.5096   40.3261 N   0  0  0  0  0  0  0  0  0  0  0  0
   40.3273   32.2519   40.3389 C   0  0  0  0  0  0  0  0  0  0  0  0
   38.9535   32.7207   40.8062 C   0  0  0  0  0  0  0  0  0  0  0  0
   38.3263   33.6900   39.9244 C   0  0  0  0  0  0  0  0  0  0  0  0
   39.1625   34.5011   39.0655 C   0  0  0  0  0  0  0  0  0  0  0  0
   40.6641   34.4623   39.2423 C   0  0  0  0  0  0  0  0  0  0  0  0
   41.7813   35.3970   38.3307 S   0  0  0  0  0  0  0  0  0  0  0  0
   43.0922   32.3038   41.7624 H   0  0  0  0  0  0  0  0  0  0  0  0
   43.4610   32.9915   40.0935 H   0  0  0  0  0  0  0  0  0  0  0  0
   42.9516   35.7670   42.5884 H   0  0  0  0  0  0  0  0  0  0  0  0
   44.8010   36.9804   43.5044 H   0  0  0  0  0  0  0  0  0  0  0  0
   47.4440   31.9251   41.8209 H   0  0  0  0  0  0  0  0  0  0  0  0
   49.8813   31.2904   41.8253 H   0  0  0  0  0  0  0  0  0  0  0  0
   51.4868   33.0503   42.2632 H   0  0  0  0  0  0  0  0  0  0  0  0
   50.9141   35.3657   42.6944 H   0  0  0  0  0  0  0  0  0  0  0  0
   41.5317   33.9247   42.2585 H   0  0  0  0  0  0  0  0  0  0  0  0
   42.1822   35.0538   41.0661 H   0  0  0  0  0  0  0  0  0  0  0  0
   40.7525   31.6340   41.1632 H   0  0  0  0  0  0  0  0  0  0  0  0
   40.3272   31.6413   39.4546 H   0  0  0  0  0  0  0  0  0  0  0  0
   38.3240   31.7918   40.9177 H   0  0  0  0  0  0  0  0  0  0  0  0
   39.1227   33.0791   41.8537 H   0  0  0  0  0  0  0  0  0  0  0  0
   37.6803   34.3902   40.5297 H   0  0  0  0  0  0  0  0  0  0  0  0
   37.5923   33.1558   39.2524 H   0  0  0  0  0  0  0  0  0  0  0  0
   38.8351   35.1552   38.3085 H   0  0  0  0  0  0  0  0  0  0  0  0
   41.1904   36.5733   37.1860 C   0  0  0  0  0  0  0  0  0  0  0  0
   40.1989   37.3637   36.6853 C   0  0  0  0  0  0  0  0  0  0  0  0
   39.3159   37.2415   37.2542 H   0  0  0  0  0  0  0  0  0  0  0  0
   40.6699   38.0416   35.6362 N   0  0  0  0  0  0  0  0  0  0  0  0
   39.9542   38.6772   35.1948 H   0  0  0  0  0  0  0  0  0  0  0  0
   41.9519   37.7077   35.4433 C   0  0  0  0  0  0  0  0  0  0  0  0
   42.3744   38.2415   34.5930 H   0  0  0  0  0  0  0  0  0  0  0  0
   42.2931   36.7931   36.4008 N   0  0  0  0  0  0  0  0  0  0  0  0
  1 14  1  0
  1  2  1  0
  2  3  2  0
  3  4  1  0
  5  4  2  0
  6  5  1  0
  7  2  1  0
  7  6  2  0
  8  6  1  0
  8 13  1  0
  9  8  2  0
 10  9  1  0
 10 11  2  0
 11 12  1  0
 13 12  2  0
 15 14  1  0
 16 15  1  0
 16 17  1  0
 18 17  1  0
 19 20  2  0
 19 18  1  0
 20 15  1  0
 21 20  1  0
  1 22  1  0
  1 23  1  0
  3 24  1  0
  4 25  1  0
  9 26  1  0
 10 27  1  0
 11 28  1  0
 12 29  1  0
 14 30  1  0
 14 31  1  0
 16 32  1  0
 16 33  1  0
 17 34  1  0
 17 35  1  0
 18 36  1  0
 18 37  1  0
 19 38  1  0
 39 40  2  0
 40 41  1  0
 40 42  1  0
 42 43  1  0
 42 44  1  0
 44 45  1  0
 44 46  2  0
 46 39  1  0
 21 39  1  0
M  ISO  8  22   8  23   8  24  14  25  14  26  14  27  14  28  14  29  14
M  ISO  8  30   8  31   8  32  13  33  13  34  13  35  13  36  13  37  13
M  ISO  4  38  13  41  15  43   5  45  14
M  END
>  <DihAtoms>  (1) 
19,20,38,39

>  <DihDeg>  (1) 
2.112233287012599

$$$$
