
 OpenBabel03242516483D

 42 45  0  0  1  0  0  0  0  0999 V2000
   47.8530   32.9250   41.8720 C   0  0  1  0  0  0  0  0  0  0  0  0
   47.5670   32.2790   40.5760 C   0  0  0  0  0  0  0  0  0  0  0  0
   48.6080   32.8260   39.5940 C   0  0  0  0  0  0  0  0  0  0  0  0
   48.2430   34.2820   39.3620 C   0  0  0  0  0  0  0  0  0  0  0  0
   48.1600   35.0890   40.6250 C   0  0  0  0  0  0  0  0  0  0  0  0
   47.6380   34.4240   41.8290 C   0  0  1  0  0  0  0  0  0  0  0  0
   48.9630   32.8330   42.0770 H   0  0  0  0  0  0  0  0  0  0  0  0
   46.5710   32.4600   40.1680 H   0  0  0  0  0  0  0  0  0  0  0  0
   47.7050   31.1760   40.6850 H   0  0  0  0  0  0  0  0  0  0  0  0
   49.6190   32.6870   39.9670 H   0  0  0  0  0  0  0  0  0  0  0  0
   48.4010   32.3070   38.6250 H   0  0  0  0  0  0  0  0  0  0  0  0
   48.9420   34.7440   38.6670 H   0  0  0  0  0  0  0  0  0  0  0  0
   47.2010   34.2690   38.9270 H   0  0  0  0  0  0  0  0  0  0  0  0
   49.1810   35.4860   40.8020 H   0  0  0  0  0  0  0  0  0  0  0  0
   47.5170   35.9780   40.4060 H   0  0  0  0  0  0  0  0  0  0  0  0
   48.2030   34.8190   42.7260 H   0  0  0  0  0  0  0  0  0  0  0  0
   45.4060   30.9390   43.9480 C   0  0  0  0  0  0  0  0  0  0  0  0
   46.0920   31.5060   42.8750 C   0  0  0  0  0  0  0  0  0  0  0  0
   47.1770   32.3530   43.0280 C   0  0  0  0  0  0  0  0  0  0  0  0
   47.5450   32.6080   44.2950 N   0  0  0  0  0  0  0  0  0  0  0  0
   46.8870   32.0640   45.3480 C   0  0  0  0  0  0  0  0  0  0  0  0
   45.8480   31.2520   45.1930 N   0  0  0  0  0  0  0  0  0  0  0  0
   44.5630   30.2800   43.8190 H   0  0  0  0  0  0  0  0  0  0  0  0
   45.7010   31.2240   41.9060 H   0  0  0  0  0  0  0  0  0  0  0  0
   47.3120   32.3720   46.2950 H   0  0  0  0  0  0  0  0  0  0  0  0
   46.2380   34.7740   42.1210 C   0  0  0  0  0  0  0  0  0  0  0  0
   45.7430   35.3130   43.3150 C   0  0  0  0  0  0  0  0  0  0  0  0
   44.3730   35.5830   43.3350 C   0  0  0  0  0  0  0  0  0  0  0  0
   43.6270   35.3030   42.1970 C   0  0  0  0  0  0  0  0  0  0  0  0
   44.1350   34.7780   41.0490 C   0  0  0  0  0  0  0  0  0  0  0  0
   45.4690   34.5150   41.0290 N   0  0  0  0  0  0  0  0  0  0  0  0
   46.4460   35.4610   44.0760 H   0  0  0  0  0  0  0  0  0  0  0  0
   43.9860   35.9950   44.2440 H   0  0  0  0  0  0  0  0  0  0  0  0
   42.5610   35.5480   42.3060 H   0  0  0  0  0  0  0  0  0  0  0  0
   43.2580   34.5200   39.9050 C   0  0  0  0  0  0  0  0  0  0  0  0
   43.4290   33.6120   38.8800 C   0  0  0  0  0  0  0  0  0  0  0  0
   44.2550   32.9300   38.7540 H   0  0  0  0  0  0  0  0  0  0  0  0
   42.3390   33.7670   38.0770 N   0  0  0  0  0  0  0  0  0  0  0  0
   42.2520   33.1620   37.2080 H   0  0  0  0  0  0  0  0  0  0  0  0
   41.5140   34.7350   38.5770 C   0  0  0  0  0  0  0  0  0  0  0  0
   40.6160   34.9340   38.0090 H   0  0  0  0  0  0  0  0  0  0  0  0
   42.1100   35.1900   39.7180 N   0  0  0  0  0  0  0  0  0  0  0  0
  1  7  1  1  0  0  0
  1 19  1  0  0  0  0
  2  9  1  0  0  0  0
  2  1  1  0  0  0  0
  3 10  1  0  0  0  0
  3  2  1  0  0  0  0
  4  3  1  0  0  0  0
  4  5  1  0  0  0  0
  5 14  1  0  0  0  0
  5  6  1  0  0  0  0
  6  1  1  0  0  0  0
  6 26  1  0  0  0  0
  6 16  1  1  0  0  0
  8  2  1  0  0  0  0
 11  3  1  0  0  0  0
 12  4  1  0  0  0  0
 13  4  1  0  0  0  0
 15  5  1  0  0  0  0
 17 22  1  0  0  0  0
 18 19  1  0  0  0  0
 18 17  2  0  0  0  0
 19 20  2  0  0  0  0
 20 21  1  0  0  0  0
 21 25  1  0  0  0  0
 22 21  2  0  0  0  0
 23 17  1  0  0  0  0
 24 18  1  0  0  0  0
 26 27  1  0  0  0  0
 27 28  2  0  0  0  0
 27 32  1  0  0  0  0
 28 33  1  0  0  0  0
 29 34  1  0  0  0  0
 29 28  1  0  0  0  0
 30 29  2  0  0  0  0
 31 30  1  0  0  0  0
 31 26  2  0  0  0  0
 35 30  1  0  0  0  0
 36 35  2  0  0  0  0
 37 36  1  0  0  0  0
 38 40  1  0  0  0  0
 38 36  1  0  0  0  0
 39 38  1  0  0  0  0
 40 42  2  0  0  0  0
 41 40  1  0  0  0  0
 42 35  1  0  0  0  0
M  END
>  <minimizedAffinity>
-5.599154

>  <minimizedRMSD>
0.147395864

$$$$
