
 OpenBabel03252506233D

 34 37  0  0  0  0  0  0  0  0999 V2000
   46.4670   30.6690   48.3620 C   0  0  0  0  0  0  0  0  0  0  0  0
   47.2210   29.8620   48.4200 H   0  0  0  0  0  0  0  0  0  0  0  0
   46.5380   31.4110   49.1560 H   0  0  0  0  0  0  0  0  0  0  0  0
   46.2730   32.8770   45.5480 C   0  0  0  0  0  0  0  0  0  0  0  0
   47.1820   31.8990   45.1020 C   0  0  0  0  0  0  0  0  0  0  0  0
   47.3550   30.9740   46.0820 C   0  0  0  0  0  0  0  0  0  0  0  0
   46.5810   31.3710   47.0940 N   0  0  0  0  0  0  0  0  0  0  0  0
   45.9270   32.5090   46.7860 N   0  0  0  0  0  0  0  0  0  0  0  0
   47.6460   31.9260   44.1110 H   0  0  0  0  0  0  0  0  0  0  0  0
   47.9890   30.0890   46.0630 H   0  0  0  0  0  0  0  0  0  0  0  0
   44.5050   35.9170   44.5730 C   0  0  0  0  0  0  0  0  0  0  0  0
   45.0240   36.1990   43.3090 C   0  0  0  0  0  0  0  0  0  0  0  0
   45.9910   35.3280   42.7990 C   0  0  0  0  0  0  0  0  0  0  0  0
   46.3590   34.2710   43.5610 N   0  0  0  0  0  0  0  0  0  0  0  0
   45.8460   34.0220   44.7690 C   0  0  0  0  0  0  0  0  0  0  0  0
   44.9180   34.8520   45.2690 N   0  0  0  0  0  0  0  0  0  0  0  0
   43.7520   36.5930   44.9750 H   0  0  0  0  0  0  0  0  0  0  0  0
   44.6810   37.0620   42.7640 H   0  0  0  0  0  0  0  0  0  0  0  0
   46.4230   35.4990   41.8300 H   0  0  0  0  0  0  0  0  0  0  0  0
   45.1280   30.0160   48.4380 C   0  0  0  0  0  0  0  0  0  0  0  0
   44.3700   30.8550   48.3620 H   0  0  0  0  0  0  0  0  0  0  0  0
   44.9750   29.6530   49.4950 H   0  0  0  0  0  0  0  0  0  0  0  0
   44.1260   28.9280   46.2990 C   0  0  0  0  0  3  0  0  0  0  0  0
   44.8700   28.9610   47.4550 C   0  0  0  0  0  0  0  0  0  0  0  0
   45.5280   27.7750   47.7780 C   0  0  0  0  0  0  0  0  0  0  0  0
   46.1620   27.6200   48.6590 H   0  0  0  0  0  0  0  0  0  0  0  0
   45.4500   26.6320   47.0010 C   0  0  0  0  0  0  0  0  0  0  0  0
   45.9570   25.3870   47.0580 N   0  0  0  0  0  0  0  0  0  0  0  0
   46.5910   25.0370   47.8250 H   0  0  0  0  0  0  0  0  0  0  0  0
   45.5510   24.6510   46.0120 C   0  0  0  0  0  0  0  0  0  0  0  0
   45.8070   23.6070   45.8000 H   0  0  0  0  0  0  0  0  0  0  0  0
   44.7350   25.4210   45.2070 C   0  0  0  0  0  3  0  0  0  0  0  0
   44.6970   26.6340   45.8490 C   0  0  0  0  0  0  0  0  0  0  0  0
   44.0410   27.8010   45.5180 C   0  0  0  0  0  3  0  0  0  0  0  0
  1  2  1  0  0  0  0
  1 20  1  0  0  0  0
  1  3  1  0  0  0  0
  4  8  2  0  0  0  0
  5  4  1  0  0  0  0
  5  6  2  0  0  0  0
  6  7  1  0  0  0  0
  7  1  1  0  0  0  0
  8  7  1  0  0  0  0
  9  5  1  0  0  0  0
 10  6  1  0  0  0  0
 11 17  1  0  0  0  0
 11 16  1  0  0  0  0
 12 11  2  0  0  0  0
 13 12  1  0  0  0  0
 13 14  2  0  0  0  0
 14 15  1  0  0  0  0
 15 16  2  0  0  0  0
 15  4  1  0  0  0  0
 18 12  1  0  0  0  0
 19 13  1  0  0  0  0
 20 22  1  0  0  0  0
 21 20  1  0  0  0  0
 23 24  1  0  0  0  0
 24 25  2  0  0  0  0
 24 20  1  0  0  0  0
 25 26  1  0  0  0  0
 27 28  1  0  0  0  0
 27 25  1  0  0  0  0
 28 29  1  0  0  0  0
 30 28  1  0  0  0  0
 31 30  1  0  0  0  0
 32 33  1  0  0  0  0
 32 30  2  0  0  0  0
 33 27  2  0  0  0  0
 34 33  1  0  0  0  0
 34 23  2  0  0  0  0
M  END
>  <minimizedAffinity>
-4.89406204

>  <minimizedRMSD>
2.08388567

$$$$
