REMARK  Name = 
REMARK  4 active torsions:
REMARK  status: ('A' for Active; 'I' for Inactive)
REMARK    1  A    between atoms: C_1  and  C_10
REMARK    2  A    between atoms: N_4  and  C_12
REMARK    3  A    between atoms: C_12  and  C_13
REMARK    4  A    between atoms: C_13  and  C_24
REMARK                            x       y       z     vdW  Elec       q    Type
REMARK                         _______ _______ _______ _____ _____    ______ ____
ROOT
ATOM      1  C   UNL     1      46.513  31.132  48.968  0.00  0.00    +0.000 C 
ATOM      2  H   UNL     1      46.753  30.052  48.973  0.00  0.00    +0.000 HD
ATOM      3  H   UNL     1      47.178  31.744  49.576  0.00  0.00    +0.000 HD
ENDROOT
BRANCH   1   7
ATOM      4  C   UNL     1      46.226  32.962  45.901  0.00  0.00    +0.000 A 
ATOM      5  C   UNL     1      47.009  31.855  45.520  0.00  0.00    +0.000 A 
ATOM      6  C   UNL     1      47.201  31.055  46.601  0.00  0.00    +0.000 A 
ATOM      7  N   UNL     1      46.561  31.649  47.610  0.00  0.00    +0.000 N 
ATOM      8  N   UNL     1      45.972  32.792  47.203  0.00  0.00    +0.000 NA
ATOM      9  H   UNL     1      47.377  31.710  44.500  0.00  0.00    +0.000 HD
ATOM     10  H   UNL     1      47.759  30.121  46.651  0.00  0.00    +0.000 HD
BRANCH   4  15
ATOM     11  C   UNL     1      44.481  35.894  44.607  0.00  0.00    +0.000 A 
ATOM     12  C   UNL     1      45.032  36.060  43.336  0.00  0.00    +0.000 A 
ATOM     13  C   UNL     1      46.012  35.149  42.932  0.00  0.00    +0.000 A 
ATOM     14  N   UNL     1      46.361  34.168  43.797  0.00  0.00    +0.000 NA
ATOM     15  C   UNL     1      45.818  34.029  45.010  0.00  0.00    +0.000 A 
ATOM     16  N   UNL     1      44.877  34.899  45.408  0.00  0.00    +0.000 NA
ATOM     17  H   UNL     1      43.718  36.602  44.926  0.00  0.00    +0.000 HD
ATOM     18  H   UNL     1      44.702  36.868  42.705  0.00  0.00    +0.000 HD
ATOM     19  H   UNL     1      46.468  35.232  41.963  0.00  0.00    +0.000 HD
ENDBRANCH   4  15
ENDBRANCH   1   7
BRANCH   1  20
ATOM     20  C   UNL     1      45.124  31.270  49.492  0.00  0.00    +0.000 C 
ATOM     21  H   UNL     1      44.915  32.383  49.526  0.00  0.00    +0.000 HD
ATOM     22  H   UNL     1      45.135  30.997  50.587  0.00  0.00    +0.000 HD
BRANCH  20  24
ATOM     23  C   UNL     1      43.071  30.959  47.926  0.00  0.00    +0.000 A 
ATOM     24  C   UNL     1      44.084  30.544  48.758  0.00  0.00    +0.000 A 
ATOM     25  C   UNL     1      44.172  29.167  48.956  0.00  0.00    +0.000 A 
ATOM     26  H   UNL     1      44.913  28.660  49.584  0.00  0.00    +0.000 HD
ATOM     27  C   UNL     1      43.307  28.263  48.363  0.00  0.00    +0.000 A 
ATOM     28  N   UNL     1      43.153  26.927  48.367  0.00  0.00    +0.000 N 
ATOM     29  H   UNL     1      43.764  26.258  48.908  0.00  0.00    +0.000 HD
ATOM     30  C   UNL     1      42.121  26.556  47.593  0.00  0.00    +0.000 A 
ATOM     31  H   UNL     1      41.766  25.536  47.410  0.00  0.00    +0.000 HD
ATOM     32  C   UNL     1      41.546  27.681  47.037  0.00  0.00    +0.000 A 
ATOM     33  C   UNL     1      42.304  28.712  47.535  0.00  0.00    +0.000 A 
ATOM     34  C   UNL     1      42.207  30.073  47.331  0.00  0.00    +0.000 A 
ENDBRANCH  20  24
ENDBRANCH   1  20
TORSDOF 4
