
 OpenBabel03242515093D

 39 42  0  0  0  0  0  0  0  0999 V2000
   47.5260   33.2160   43.9250 N   0  0  0  0  0  0  0  0  0  0  0  0
   47.4470   32.3420   44.5050 H   0  0  0  0  0  0  0  0  0  0  0  0
   45.7340   34.0780   45.3920 C   0  0  0  0  0  0  0  0  0  0  0  0
   44.7410   35.0140   45.4760 C   0  0  0  0  0  0  0  0  0  0  0  0
   44.4330   35.9340   44.4990 C   0  0  0  0  0  0  0  0  0  0  0  0
   45.1720   35.9210   43.3470 C   0  0  0  0  0  0  0  0  0  0  0  0
   46.1740   35.0110   43.2090 C   0  0  0  0  0  0  0  0  0  0  0  0
   46.4530   34.0940   44.2290 C   0  0  0  0  0  0  0  0  0  0  0  0
   44.1300   35.0530   46.3830 H   0  0  0  0  0  0  0  0  0  0  0  0
   43.6330   36.6410   44.6390 H   0  0  0  0  0  0  0  0  0  0  0  0
   44.9110   36.6550   42.5930 H   0  0  0  0  0  0  0  0  0  0  0  0
   46.7270   35.0460   42.2790 H   0  0  0  0  0  0  0  0  0  0  0  0
   47.4390   31.4890   47.3290 C   0  0  0  0  0  0  0  0  0  0  0  0
   46.6180   31.3170   48.4310 C   0  0  0  0  0  0  0  0  0  0  0  0
   45.4610   32.0960   48.5200 C   0  0  0  0  0  0  0  0  0  0  0  0
   45.1620   33.0030   47.5300 N   0  0  0  0  0  0  0  0  0  0  0  0
   46.0080   33.1390   46.4540 C   0  0  0  0  0  0  0  0  0  0  0  0
   47.1140   32.3740   46.3960 N   0  0  0  0  0  0  0  0  0  0  0  0
   48.3300   30.8790   47.2730 H   0  0  0  0  0  0  0  0  0  0  0  0
   46.8900   30.5980   49.1780 H   0  0  0  0  0  0  0  0  0  0  0  0
   44.8450   31.9430   49.3820 H   0  0  0  0  0  0  0  0  0  0  0  0
   48.8510   33.3150   42.8500 S   0  0  0  0  0  0  0  0  0  0  0  0
   48.2860   33.5040   41.4360 O   0  0  0  0  0  0  0  0  0  0  0  0
   47.5050   32.9890   41.1350 H   0  0  0  0  0  0  0  0  0  0  0  0
   49.7890   34.4310   43.1200 O   0  0  0  0  0  0  0  0  0  0  0  0
   49.8690   35.3030   42.6540 H   0  0  0  0  0  0  0  0  0  0  0  0
   49.5670   31.7940   42.8410 O   0  0  0  0  0  0  0  0  0  0  0  0
   51.4260   30.4320   42.6310 C   0  0  0  0  0  0  0  0  0  0  0  0
   50.6460   31.4400   42.0540 C   0  0  0  0  0  0  0  0  0  0  0  0
   50.9930   31.9670   40.8260 C   0  0  0  0  0  0  0  0  0  0  0  0
   50.3410   32.7430   40.4480 H   0  0  0  0  0  0  0  0  0  0  0  0
   52.0980   31.5190   40.1510 C   0  0  0  0  0  0  0  0  0  0  0  0
   52.6470   31.8530   38.9700 N   0  0  0  0  0  0  0  0  0  0  0  0
   52.2810   32.5860   38.3040 H   0  0  0  0  0  0  0  0  0  0  0  0
   53.7510   31.1370   38.7030 C   0  0  0  0  0  0  0  0  0  0  0  0
   54.4070   31.1720   37.8450 H   0  0  0  0  0  0  0  0  0  0  0  0
   53.8770   30.3060   39.8130 C   0  0  0  0  0  0  0  0  0  0  0  0
   52.8650   30.5210   40.7280 C   0  0  0  0  0  0  0  0  0  0  0  0
   52.5550   29.9700   41.9480 C   0  0  0  0  0  0  0  0  0  0  0  0
  1  8  1  0  0  0  0
  1  2  1  0  0  0  0
  3  4  1  0  0  0  0
  3 17  1  0  0  0  0
  4  9  1  0  0  0  0
  5 10  1  0  0  0  0
  5  4  2  0  0  0  0
  6  5  1  0  0  0  0
  7  6  2  0  0  0  0
  7  8  1  0  0  0  0
  8  3  2  0  0  0  0
 11  6  1  0  0  0  0
 12  7  1  0  0  0  0
 13 14  1  0  0  0  0
 14 15  2  0  0  0  0
 14 20  1  0  0  0  0
 15 21  1  0  0  0  0
 16 15  1  0  0  0  0
 17 16  2  0  0  0  0
 18 17  1  0  0  0  0
 18 13  2  0  0  0  0
 19 13  1  0  0  0  0
 22 25  1  0  0  0  0
 22  1  1  0  0  0  0
 23 22  1  0  0  0  0
 24 23  1  0  0  0  0
 26 25  1  0  0  0  0
 27 22  1  0  0  0  0
 29 28  1  0  0  0  0
 29 27  1  0  0  0  0
 30 29  2  0  0  0  0
 31 30  1  0  0  0  0
 32 38  2  0  0  0  0
 32 30  1  0  0  0  0
 33 32  1  0  0  0  0
 34 33  1  0  0  0  0
 35 33  1  0  0  0  0
 35 37  2  0  0  0  0
 36 35  1  0  0  0  0
 37 38  1  0  0  0  0
 38 39  1  0  0  0  0
 39 28  2  0  0  0  0
M  END
>  <minimizedAffinity>
-6.54963779

>  <minimizedRMSD>
2.27427959

$$$$
