
 OpenBabel03252505113D

 47 51  0  0  1  0  0  0  0  0999 V2000
   44.5640   35.6040   44.6180 C   0  0  0  0  0  0  0  0  0  0  0  0
   45.2200   35.6190   43.3630 C   0  0  0  0  0  0  0  0  0  0  0  0
   46.3110   34.7050   43.1710 C   0  0  0  0  0  0  0  0  0  0  0  0
   46.6560   33.8790   44.2040 N   0  0  0  0  0  0  0  0  0  0  0  0
   46.0060   33.9020   45.3720 C   0  0  0  0  0  0  0  0  0  0  0  0
   44.9560   34.7630   45.5910 N   0  0  0  0  0  0  0  0  0  0  0  0
   43.7480   36.3060   44.7210 H   0  0  0  0  0  0  0  0  0  0  0  0
   44.9380   36.2780   42.5510 H   0  0  0  0  0  0  0  0  0  0  0  0
   46.4250   32.9830   46.4650 C   0  0  2  0  0  0  0  0  0  0  0  0
   46.9530   31.7530   45.7580 C   0  0  0  0  0  0  0  0  0  0  0  0
   46.0770   30.5710   45.7680 C   0  0  0  0  0  0  0  0  0  0  0  0
   45.7990   30.2970   47.2420 C   0  0  0  0  0  0  0  0  0  0  0  0
   45.0040   31.3700   47.8620 C   0  0  0  0  0  0  0  0  0  0  0  0
   45.3780   32.7390   47.4150 C   0  0  0  0  0  0  0  0  0  0  0  0
   47.2750   33.5090   46.9670 H   0  0  0  0  0  0  0  0  0  0  0  0
   47.8950   31.4630   46.2740 H   0  0  0  0  0  0  0  0  0  0  0  0
   47.2750   31.9680   44.7110 H   0  0  0  0  0  0  0  0  0  0  0  0
   45.1250   30.7960   45.2770 H   0  0  0  0  0  0  0  0  0  0  0  0
   46.6220   29.7250   45.3550 H   0  0  0  0  0  0  0  0  0  0  0  0
   45.1010   29.4180   47.2140 H   0  0  0  0  0  0  0  0  0  0  0  0
   46.6840   29.9950   47.8020 H   0  0  0  0  0  0  0  0  0  0  0  0
   44.2120   31.4170   48.5610 H   0  0  0  0  0  0  0  0  0  0  0  0
   44.6860   33.8690   47.9330 N   0  0  0  0  0  0  0  0  0  0  0  0
   45.1530   34.4970   48.6420 H   0  0  0  0  0  0  0  0  0  0  0  0
   43.7250   34.2370   47.7360 H   0  0  0  0  0  0  0  0  0  0  0  0
   47.0000   34.6920   41.9050 C   0  0  0  0  0  0  0  0  0  0  0  0
   48.1600   35.3670   41.7810 C   0  0  0  0  0  0  0  0  0  0  0  0
   48.7850   35.3180   40.5230 C   0  0  0  0  0  0  0  0  0  0  0  0
   48.1460   34.5800   39.5360 C   0  0  0  0  0  0  0  0  0  0  0  0
   46.9680   33.8940   39.6650 C   0  0  0  0  0  0  0  0  0  0  0  0
   46.4280   33.9930   40.9130 N   0  0  0  0  0  0  0  0  0  0  0  0
   48.6160   35.9260   42.5790 H   0  0  0  0  0  0  0  0  0  0  0  0
   49.7210   35.8290   40.3260 H   0  0  0  0  0  0  0  0  0  0  0  0
   48.6560   34.5620   38.5740 H   0  0  0  0  0  0  0  0  0  0  0  0
   46.4000   33.1880   38.6360 O   0  0  0  0  0  0  0  0  0  0  0  0
   48.1770   33.3550   36.9260 C   0  0  0  0  0  3  0  0  0  0  0  0
   46.9850   32.9110   37.4370 C   0  0  0  0  0  0  0  0  0  0  0  0
   46.2340   32.0480   36.6390 C   0  0  0  0  0  0  0  0  0  0  0  0
   45.2690   31.6100   36.9050 H   0  0  0  0  0  0  0  0  0  0  0  0
   46.6670   31.6500   35.3840 C   0  0  0  0  0  0  0  0  0  0  0  0
   46.1740   30.8480   34.4110 N   0  0  0  0  0  0  0  0  0  0  0  0
   45.2620   30.3350   34.4680 H   0  0  0  0  0  0  0  0  0  0  0  0
   47.0070   30.8040   33.3770 C   0  0  0  0  0  0  0  0  0  0  0  0
   46.8730   30.2400   32.4500 H   0  0  0  0  0  0  0  0  0  0  0  0
   48.0980   31.5920   33.6380 C   0  0  0  0  0  3  0  0  0  0  0  0
   47.8800   32.1170   34.8950 C   0  0  0  0  0  0  0  0  0  0  0  0
   48.6280   32.9700   35.6730 C   0  0  0  0  0  3  0  0  0  0  0  0
  1  7  1  0  0  0  0
  1  6  1  0  0  0  0
  2  1  2  0  0  0  0
  3  2  1  0  0  0  0
  3  4  2  0  0  0  0
  4  5  1  0  0  0  0
  5  6  2  0  0  0  0
  5  9  1  0  0  0  0
  8  2  1  0  0  0  0
  9 15  1  1  0  0  0
  9 14  1  0  0  0  0
 10 11  1  0  0  0  0
 10 16  1  0  0  0  0
 10  9  1  0  0  0  0
 11 12  1  0  0  0  0
 12 21  1  0  0  0  0
 12 13  1  0  0  0  0
 13 22  1  0  0  0  0
 14 13  2  0  0  0  0
 14 23  1  0  0  0  0
 17 10  1  0  0  0  0
 18 11  1  0  0  0  0
 19 11  1  0  0  0  0
 20 12  1  0  0  0  0
 23 24  1  0  0  0  0
 25 23  1  0  0  0  0
 26  3  1  0  0  0  0
 27 26  1  0  0  0  0
 27 32  1  0  0  0  0
 28 27  2  0  0  0  0
 29 30  2  0  0  0  0
 29 28  1  0  0  0  0
 30 31  1  0  0  0  0
 31 26  2  0  0  0  0
 33 28  1  0  0  0  0
 34 29  1  0  0  0  0
 35 30  1  0  0  0  0
 36 37  1  0  0  0  0
 37 35  1  0  0  0  0
 38 39  1  0  0  0  0
 38 37  2  0  0  0  0
 40 38  1  0  0  0  0
 41 42  1  0  0  0  0
 41 40  1  0  0  0  0
 43 45  2  0  0  0  0
 43 41  1  0  0  0  0
 44 43  1  0  0  0  0
 45 46  1  0  0  0  0
 46 40  2  0  0  0  0
 46 47  1  0  0  0  0
 47 36  2  0  0  0  0
M  END
>  <minimizedAffinity>
-7.86367178

>  <minimizedRMSD>
0.382477492

$$$$
