
 OpenBabel03242523233D

 46 50  0  0  1  0  0  0  0  0999 V2000
   47.3380   32.7160   43.9320 C   0  0  0  0  0  0  0  0  0  0  0  0
   48.2690   33.2300   43.1340 C   0  0  0  0  0  0  0  0  0  0  0  0
   49.0520   32.3110   42.5090 C   0  0  0  0  0  0  0  0  0  0  0  0
   48.8280   30.9450   42.7420 N   0  0  0  0  0  0  0  0  0  0  0  0
   47.8870   30.5030   43.5480 C   0  0  0  0  0  0  0  0  0  0  0  0
   47.0770   31.3980   44.1970 N   0  0  0  0  0  0  0  0  0  0  0  0
   49.8890   32.3730   41.8430 H   0  0  0  0  0  0  0  0  0  0  0  0
   47.7660   29.4130   43.6860 H   0  0  0  0  0  0  0  0  0  0  0  0
   48.5930   34.5950   42.9600 C   0  0  1  0  0  0  0  0  0  0  0  0
   49.5390   35.1690   42.1690 C   0  0  0  0  0  0  0  0  0  0  0  0
   48.1650   35.3260   41.6560 C   0  0  1  0  0  0  0  0  0  0  0  0
   48.4200   35.1960   43.9110 H   0  0  0  0  0  0  0  0  0  0  0  0
   50.2780   34.5460   41.5960 H   0  0  0  0  0  0  0  0  0  0  0  0
   50.0400   36.1780   42.3100 H   0  0  0  0  0  0  0  0  0  0  0  0
   47.5740   36.2440   41.9440 H   0  0  0  0  0  0  0  0  0  0  0  0
   46.6220   33.8460   40.1360 C   0  0  0  0  0  3  0  0  0  0  0  0
   47.7350   34.5930   40.4650 C   0  0  0  0  0  0  0  0  0  0  0  0
   48.6570   34.6460   39.4050 C   0  0  0  0  0  0  0  0  0  0  0  0
   49.5750   35.1680   39.4790 H   0  0  0  0  0  0  0  0  0  0  0  0
   48.4640   34.0260   38.1870 C   0  0  0  0  0  0  0  0  0  0  0  0
   49.1850   33.9400   37.0560 N   0  0  0  0  0  0  0  0  0  0  0  0
   50.1190   34.3780   36.8890 H   0  0  0  0  0  0  0  0  0  0  0  0
   48.5500   33.2090   36.1460 C   0  0  0  0  0  0  0  0  0  0  0  0
   48.8930   32.9710   35.1450 H   0  0  0  0  0  0  0  0  0  0  0  0
   47.3650   32.7850   36.6700 C   0  0  0  0  0  3  0  0  0  0  0  0
   47.3370   33.3070   37.9410 C   0  0  0  0  0  0  0  0  0  0  0  0
   46.3930   33.2140   38.9380 C   0  0  0  0  0  3  0  0  0  0  0  0
   46.3130   33.4650   44.6880 C   0  0  0  0  0  0  0  0  0  0  0  0
   45.7770   33.8470   45.6900 O   0  0  0  0  0  0  0  0  0  0  0  0
   44.4080   31.7690   42.9510 Cl  0  0  0  0  0  0  0  0  0  0  0  0
   44.5040   33.5160   42.8310 C   0  0  0  0  0  0  0  0  0  0  0  0
   45.4160   34.1480   43.7060 C   0  0  0  0  0  0  0  0  0  0  0  0
   45.3900   35.5110   43.5200 C   0  0  0  0  0  0  0  0  0  0  0  0
   44.6800   36.2640   42.6910 C   0  0  0  0  0  0  0  0  0  0  0  0
   43.8100   35.5840   41.8670 C   0  0  0  0  0  0  0  0  0  0  0  0
   43.7080   34.2140   41.9230 C   0  0  0  0  0  0  0  0  0  0  0  0
   46.0420   36.1370   44.1740 H   0  0  0  0  0  0  0  0  0  0  0  0
   44.7280   37.3490   42.6130 H   0  0  0  0  0  0  0  0  0  0  0  0
   43.1990   36.1720   41.1590 H   0  0  0  0  0  0  0  0  0  0  0  0
   42.8150   33.6650   41.0610 O   0  0  0  0  0  0  0  0  0  0  0  0
   40.5170   33.1190   39.9180 O   0  0  0  0  0  0  0  0  0  0  0  0
   41.1650   33.3340   41.2680 P   0  0  0  0  0  0  0  0  0  0  0  0
   40.9960   31.9670   42.2550 O   0  0  0  0  0  0  0  0  0  0  0  0
   40.0440   31.8320   42.4840 H   0  0  0  0  0  0  0  0  0  0  0  0
   40.3800   34.5870   42.0910 O   0  0  0  0  0  0  0  0  0  0  0  0
   39.8280   35.1560   41.5330 H   0  0  0  0  0  0  0  0  0  0  0  0
  1  6  1  0  0  0  0
  1 28  1  0  0  0  0
  2  1  2  0  0  0  0
  3  4  2  0  0  0  0
  3  2  1  0  0  0  0
  4  5  1  0  0  0  0
  5  8  1  0  0  0  0
  5  6  2  0  0  0  0
  7  3  1  0  0  0  0
  9  2  1  0  0  0  0
  9 12  1  1  0  0  0
 10 14  1  0  0  0  0
 10  9  1  0  0  0  0
 11 15  1  1  0  0  0
 11 10  1  0  0  0  0
 11  9  1  0  0  0  0
 13 10  1  0  0  0  0
 16 17  1  0  0  0  0
 17 11  1  0  0  0  0
 18 19  1  0  0  0  0
 18 17  2  0  0  0  0
 20 18  1  0  0  0  0
 21 20  1  0  0  0  0
 22 21  1  0  0  0  0
 23 25  2  0  0  0  0
 23 21  1  0  0  0  0
 24 23  1  0  0  0  0
 25 26  1  0  0  0  0
 26 20  2  0  0  0  0
 26 27  1  0  0  0  0
 27 16  2  0  0  0  0
 28 29  2  0  0  0  0
 31 30  1  0  0  0  0
 31 32  1  0  0  0  0
 32 28  1  0  0  0  0
 33 32  2  0  0  0  0
 33 37  1  0  0  0  0
 34 33  1  0  0  0  0
 35 36  1  0  0  0  0
 35 34  2  0  0  0  0
 36 31  2  0  0  0  0
 38 34  1  0  0  0  0
 39 35  1  0  0  0  0
 40 42  1  0  0  0  0
 40 36  1  0  0  0  0
 41 42  2  0  0  0  0
 42 45  1  0  0  0  0
 42 43  1  0  0  0  0
 43 44  1  0  0  0  0
 46 45  1  0  0  0  0
M  END
>  <minimizedAffinity>
-7.32646704

>  <minimizedRMSD>
0.505373955

$$$$
