REMARK  Name = 
REMARK  3 active torsions:
REMARK  status: ('A' for Active; 'I' for Inactive)
REMARK    1  A    between atoms: C_3  and  C_7
REMARK    2  A    between atoms: C_7  and  C_8
REMARK    3  A    between atoms: C_8  and  C_17
REMARK                            x       y       z     vdW  Elec       q    Type
REMARK                         _______ _______ _______ _____ _____    ______ ____
ROOT
ATOM      1  C   UNL     1      48.188  35.309  41.881  0.00  0.00    +0.000 C 
ATOM      2  H   UNL     1      48.086  36.357  42.178  0.00  0.00    +0.000 HD
ATOM      3  H   UNL     1      48.728  34.721  42.633  0.00  0.00    +0.000 HD
ENDROOT
BRANCH   1   5
ATOM      4  C   UNL     1      48.947  34.135  39.759  0.00  0.00    +0.000 A 
ATOM      5  C   UNL     1      48.938  35.224  40.588  0.00  0.00    +0.000 A 
ATOM      6  C   UNL     1      49.677  36.330  40.198  0.00  0.00    +0.000 A 
ATOM      7  H   UNL     1      49.698  37.208  40.820  0.00  0.00    +0.000 HD
ATOM      8  C   UNL     1      50.405  36.363  39.028  0.00  0.00    +0.000 A 
ATOM      9  N   UNL     1      51.180  37.304  38.459  0.00  0.00    +0.000 N 
ATOM     10  H   UNL     1      51.377  38.264  38.852  0.00  0.00    +0.000 HD
ATOM     11  C   UNL     1      51.677  36.831  37.291  0.00  0.00    +0.000 A 
ATOM     12  H   UNL     1      52.331  37.337  36.594  0.00  0.00    +0.000 HD
ATOM     13  C   UNL     1      51.172  35.539  37.154  0.00  0.00    +0.000 A 
ATOM     14  C   UNL     1      50.374  35.221  38.227  0.00  0.00    +0.000 A 
ATOM     15  C   UNL     1      49.651  34.105  38.582  0.00  0.00    +0.000 A 
ENDBRANCH   1   5
BRANCH   1  16
ATOM     16  C   UNL     1      46.779  34.769  41.721  0.00  0.00    +0.000 C 
ATOM     17  H   UNL     1      46.216  35.319  40.965  0.00  0.00    +0.000 HD
ATOM     18  H   UNL     1      46.796  33.691  41.409  0.00  0.00    +0.000 HD
BRANCH  16  21
ATOM     19  C   UNL     1      44.552  36.044  44.490  0.00  0.00    +0.000 A 
ATOM     20  C   UNL     1      45.222  35.938  43.244  0.00  0.00    +0.000 A 
ATOM     21  C   UNL     1      46.084  34.875  43.020  0.00  0.00    +0.000 A 
ATOM     22  N   UNL     1      46.238  33.977  44.038  0.00  0.00    +0.000 NA
ATOM     23  C   UNL     1      45.596  34.094  45.210  0.00  0.00    +0.000 A 
ATOM     24  N   UNL     1      44.758  35.120  45.437  0.00  0.00    +0.000 NA
ATOM     25  H   UNL     1      43.872  36.858  44.702  0.00  0.00    +0.000 HD
ATOM     26  H   UNL     1      45.040  36.696  42.493  0.00  0.00    +0.000 HD
ATOM     27  H   UNL     1      45.781  33.333  45.958  0.00  0.00    +0.000 HD
ENDBRANCH  16  21
ENDBRANCH   1  16
TORSDOF 3
