
     RDKit          3D

 30 32  0  0  0  0  0  0  0  0999 V2000
   44.5521   36.0436   44.4902 C   0  0  0  0  0  0  0  0  0  0  0  0
   45.2217   35.9375   43.2437 C   0  0  0  0  0  0  0  0  0  0  0  0
   46.0843   34.8749   43.0201 C   0  0  0  0  0  0  0  0  0  0  0  0
   46.2384   33.9765   44.0379 N   0  0  0  0  0  0  0  0  0  0  0  0
   45.5965   34.0938   45.2097 C   0  0  0  0  0  0  0  0  0  0  0  0
   44.7578   35.1205   45.4367 N   0  0  0  0  0  0  0  0  0  0  0  0
   46.7787   34.7688   41.7214 C   0  0  0  0  0  0  0  0  0  0  0  0
   48.1885   35.3094   41.8813 C   0  0  0  0  0  0  0  0  0  0  0  0
   43.8718   36.8578   44.7020 H   0  0  0  0  0  0  0  0  0  0  0  0
   45.0396   36.6964   42.4929 H   0  0  0  0  0  0  0  0  0  0  0  0
   45.7813   33.3331   45.9575 H   0  0  0  0  0  0  0  0  0  0  0  0
   46.2158   35.3191   40.9655 H   0  0  0  0  0  0  0  0  0  0  0  0
   46.7960   33.6910   41.4092 H   0  0  0  0  0  0  0  0  0  0  0  0
   48.0861   36.3567   42.1784 H   0  0  0  0  0  0  0  0  0  0  0  0
   48.7277   34.7208   42.6335 H   0  0  0  0  0  0  0  0  0  0  0  0
   48.9475   34.1352   39.7590 C   0  0  0  0  0  0  0  0  0  0  0  0
   48.9376   35.2239   40.5876 C   0  0  0  0  0  0  0  0  0  0  0  0
   49.6774   36.3298   40.1984 C   0  0  0  0  0  0  0  0  0  0  0  0
   49.6978   37.2078   40.8200 H   0  0  0  0  0  0  0  0  0  0  0  0
   50.4052   36.3627   39.0281 C   0  0  0  0  0  0  0  0  0  0  0  0
   51.1796   37.3044   38.4594 N   0  0  0  0  0  0  0  0  0  0  0  0
   51.3769   38.2644   38.8519 H   0  0  0  0  0  0  0  0  0  0  0  0
   51.6766   36.8313   37.2905 C   0  0  0  0  0  0  0  0  0  0  0  0
   52.3307   37.3371   36.5941 H   0  0  0  0  0  0  0  0  0  0  0  0
   51.1724   35.5392   37.1540 C   0  0  0  0  0  0  0  0  0  0  0  0
   50.3742   35.2208   38.2270 C   0  0  0  0  0  0  0  0  0  0  0  0
   49.6508   34.1055   38.5824 C   0  0  0  0  0  0  0  0  0  0  0  0
   48.3550   33.2641   40.0819 H   0  0  0  0  0  0  0  0  0  0  0  0
   51.3893   34.8949   36.3174 H   0  0  0  0  0  0  0  0  0  0  0  0
   49.6519   33.2349   37.9309 H   0  0  0  0  0  0  0  0  0  0  0  0
  1  6  2  0
  2  1  1  0
  3  2  2  0
  3  4  1  0
  4  5  2  0
  5  6  1  0
  7  8  1  0
  7  3  1  0
  1  9  1  0
  2 10  1  0
  5 11  1  0
  7 12  1  0
  7 13  1  0
  8 14  1  0
  8 15  1  0
 16 17  2  0
 17 18  1  0
 18 19  1  0
 18 20  2  0
 20 21  1  0
 21 22  1  0
 21 23  1  0
 23 24  1  0
 23 25  2  0
 25 26  1  0
 26 27  2  0
 27 16  1  0
 26 20  1  0
 16 28  1  0
 25 29  1  0
 27 30  1  0
  8 17  1  0
M  ISO  8   9  14  10  14  11  14  12   8  13   8  14   8  15   8  19  15
M  ISO  2  22   5  24  14
M  END
>  <DihAtoms>  (1) 
6,7,16,15

>  <DihDeg>  (1) 
89.99980183753912

$$$$
