
 OpenBabel03242522423D

 50 54  0  0  0  0  0  0  0  0999 V2000
   46.7470   32.6870   44.4010 C   0  0  0  0  0  0  0  0  0  0  0  0
   46.5180   32.1700   43.4120 H   0  0  0  0  0  0  0  0  0  0  0  0
   47.7890   32.8270   44.6220 H   0  0  0  0  0  0  0  0  0  0  0  0
   46.2610   34.6320   43.0120 C   0  0  0  0  0  0  0  0  0  0  0  0
   46.0500   33.9670   44.2190 C   0  0  0  0  0  0  0  0  0  0  0  0
   45.2420   34.3880   45.2050 C   0  0  0  0  0  0  0  0  0  0  0  0
   44.5550   35.5690   45.0300 C   0  0  0  0  0  0  0  0  0  0  0  0
   44.6810   36.3030   43.8910 C   0  0  0  0  0  0  0  0  0  0  0  0
   45.5280   35.8200   42.9070 C   0  0  0  0  0  0  0  0  0  0  0  0
   44.9980   33.9730   46.1390 H   0  0  0  0  0  0  0  0  0  0  0  0
   43.8680   36.0300   45.7430 H   0  0  0  0  0  0  0  0  0  0  0  0
   44.1710   37.2470   43.6740 H   0  0  0  0  0  0  0  0  0  0  0  0
   45.6460   36.3890   41.9860 H   0  0  0  0  0  0  0  0  0  0  0  0
   47.2520   34.1260   41.7140 S   0  0  0  0  0  0  0  0  0  0  0  0
   48.4380   35.1490   41.5730 O   0  0  0  0  0  0  0  0  0  0  0  0
   46.5360   34.2960   40.4140 O   0  0  0  0  0  0  0  0  0  0  0  0
   47.8140   31.3880   41.5800 C   0  0  0  0  0  3  0  0  0  0  0  0
   48.2170   32.7110   41.8640 C   0  0  0  0  0  0  0  0  0  0  0  0
   49.5620   32.6760   42.2800 C   0  0  0  0  0  0  0  0  0  0  0  0
   49.9910   33.6620   42.5320 H   0  0  0  0  0  0  0  0  0  0  0  0
   50.3580   31.5640   42.3960 C   0  0  0  0  0  0  0  0  0  0  0  0
   51.6420   31.4750   42.7870 N   0  0  0  0  0  0  0  0  0  0  0  0
   52.3140   32.2210   43.0860 H   0  0  0  0  0  0  0  0  0  0  0  0
   51.9580   30.1690   42.7300 C   0  0  0  0  0  0  0  0  0  0  0  0
   52.8940   29.6800   42.9650 H   0  0  0  0  0  0  0  0  0  0  0  0
   50.8460   29.4480   42.2970 C   0  0  0  0  0  3  0  0  0  0  0  0
   49.8300   30.3550   42.0870 C   0  0  0  0  0  0  0  0  0  0  0  0
   48.5360   30.2380   41.6690 C   0  0  0  0  0  3  0  0  0  0  0  0
   46.1080   31.7230   45.3480 C   0  0  0  0  0  0  0  0  0  0  0  0
   45.0560   31.9860   45.6440 H   0  0  0  0  0  0  0  0  0  0  0  0
   45.9350   30.6910   44.9160 H   0  0  0  0  0  0  0  0  0  0  0  0
   47.1530   32.4940   47.4550 C   0  0  0  0  0  0  0  0  0  0  0  0
   47.0190   31.4960   46.4640 C   0  0  0  0  0  0  0  0  0  0  0  0
   47.7370   30.3260   46.6240 C   0  0  0  0  0  0  0  0  0  0  0  0
   48.5240   30.1970   47.7150 N   0  0  0  0  0  0  0  0  0  0  0  0
   48.6270   31.1530   48.6360 C   0  0  0  0  0  0  0  0  0  0  0  0
   47.9470   32.3160   48.5240 N   0  0  0  0  0  0  0  0  0  0  0  0
   46.6910   33.4620   47.5110 H   0  0  0  0  0  0  0  0  0  0  0  0
   47.6320   29.5680   45.8590 H   0  0  0  0  0  0  0  0  0  0  0  0
   49.5160   30.9170   49.8230 C   0  0  0  0  0  0  0  0  0  0  0  0
   48.9760   31.2150   50.7650 H   0  0  0  0  0  0  0  0  0  0  0  0
   49.6860   29.8280   49.9430 H   0  0  0  0  0  0  0  0  0  0  0  0
   50.7980   31.5950   49.7300 C   0  0  0  0  0  0  0  0  0  0  0  0
   51.9650   31.0510   49.2300 C   0  0  0  0  0  0  0  0  0  0  0  0
   52.9620   31.9860   49.3040 C   0  0  0  0  0  0  0  0  0  0  0  0
   52.3610   33.0840   49.8550 N   0  0  0  0  0  0  0  0  0  0  0  0
   51.0760   32.8580   50.1110 N   0  0  0  0  0  0  0  0  0  0  0  0
   52.1600   30.0580   48.8220 H   0  0  0  0  0  0  0  0  0  0  0  0
   54.0100   32.0200   49.0420 H   0  0  0  0  0  0  0  0  0  0  0  0
   52.7400   34.0400   50.1000 H   0  0  0  0  0  0  0  0  0  0  0  0
  1  3  1  0  0  0  0
  1 29  1  0  0  0  0
  2  1  1  0  0  0  0
  4  5  1  0  0  0  0
  5  1  1  0  0  0  0
  5  6  2  0  0  0  0
  6 10  1  0  0  0  0
  7  6  1  0  0  0  0
  7 11  1  0  0  0  0
  8  7  2  0  0  0  0
  9  4  2  0  0  0  0
  9  8  1  0  0  0  0
 12  8  1  0  0  0  0
 13  9  1  0  0  0  0
 14 18  1  0  0  0  0
 14  4  1  0  0  0  0
 15 14  2  0  0  0  0
 16 14  2  0  0  0  0
 17 28  2  0  0  0  0
 17 18  1  0  0  0  0
 18 19  2  0  0  0  0
 19 21  1  0  0  0  0
 19 20  1  0  0  0  0
 21 22  1  0  0  0  0
 22 23  1  0  0  0  0
 24 22  1  0  0  0  0
 24 25  1  0  0  0  0
 26 24  2  0  0  0  0
 27 26  1  0  0  0  0
 27 21  2  0  0  0  0
 28 27  1  0  0  0  0
 29 30  1  0  0  0  0
 29 33  1  0  0  0  0
 31 29  1  0  0  0  0
 32 38  1  0  0  0  0
 32 37  1  0  0  0  0
 33 34  1  0  0  0  0
 33 32  2  0  0  0  0
 34 35  2  0  0  0  0
 35 36  1  0  0  0  0
 36 40  1  0  0  0  0
 37 36  2  0  0  0  0
 39 34  1  0  0  0  0
 40 42  1  0  0  0  0
 40 41  1  0  0  0  0
 43 40  1  0  0  0  0
 43 47  2  0  0  0  0
 44 45  2  0  0  0  0
 44 43  1  0  0  0  0
 45 46  1  0  0  0  0
 46 50  1  0  0  0  0
 46 47  1  0  0  0  0
 48 44  1  0  0  0  0
 49 45  1  0  0  0  0
M  END
>  <minimizedAffinity>
-6.47588873

>  <minimizedRMSD>
0.577281833

$$$$
