
 OpenBabel03252507293D

 48 52  0  0  1  0  0  0  0  0999 V2000
   51.1260   28.0370   45.5690 C   0  0  2  0  0  0  0  0  0  0  0  0
   51.0770   26.6560   46.1650 C   0  0  0  0  0  0  0  0  0  0  0  0
   51.6500   26.7090   47.5530 C   0  0  0  0  0  0  0  0  0  0  0  0
   51.1020   27.8020   48.4090 C   0  0  0  0  0  0  0  0  0  0  0  0
   51.0700   29.1160   47.7090 C   0  0  0  0  0  0  0  0  0  0  0  0
   50.3490   28.9980   46.3900 C   0  0  2  0  0  0  0  0  0  0  0  0
   52.2120   28.3210   45.6260 H   0  0  0  0  0  0  0  0  0  0  0  0
   50.1590   26.1020   46.0380 H   0  0  0  0  0  0  0  0  0  0  0  0
   51.8460   26.0750   45.5680 H   0  0  0  0  0  0  0  0  0  0  0  0
   52.7500   26.9130   47.4550 H   0  0  0  0  0  0  0  0  0  0  0  0
   51.5530   25.7380   48.0610 H   0  0  0  0  0  0  0  0  0  0  0  0
   51.6540   27.7990   49.3470 H   0  0  0  0  0  0  0  0  0  0  0  0
   50.0450   27.5080   48.6620 H   0  0  0  0  0  0  0  0  0  0  0  0
   50.7020   29.8890   48.3800 H   0  0  0  0  0  0  0  0  0  0  0  0
   52.1440   29.3510   47.4460 H   0  0  0  0  0  0  0  0  0  0  0  0
   50.4320   29.9850   45.8850 H   0  0  0  0  0  0  0  0  0  0  0  0
   50.7690   28.0780   44.1590 C   0  0  0  0  0  0  0  0  0  0  0  0
   49.6040   27.3750   43.7550 C   0  0  0  0  0  0  0  0  0  0  0  0
   49.2760   27.4110   42.3800 C   0  0  0  0  0  0  0  0  0  0  0  0
   50.1000   28.1190   41.5270 N   0  0  0  0  0  0  0  0  0  0  0  0
   51.2000   28.7640   42.0040 C   0  0  0  0  0  0  0  0  0  0  0  0
   51.5320   28.7480   43.2960 N   0  0  0  0  0  0  0  0  0  0  0  0
   48.9470   26.8240   44.3710 H   0  0  0  0  0  0  0  0  0  0  0  0
   48.4070   26.9070   41.9660 H   0  0  0  0  0  0  0  0  0  0  0  0
   52.0350   29.4840   41.0360 C   0  0  0  0  0  0  0  0  0  0  0  0
   52.0160   30.8240   40.9260 C   0  0  0  0  0  0  0  0  0  0  0  0
   52.8070   31.4960   40.0050 C   0  0  0  0  0  0  0  0  0  0  0  0
   53.6240   30.7470   39.1980 C   0  0  0  0  0  0  0  0  0  0  0  0
   53.6520   29.3860   39.3020 C   0  0  0  0  0  0  0  0  0  0  0  0
   52.8620   28.7480   40.2160 N   0  0  0  0  0  0  0  0  0  0  0  0
   51.3850   31.4480   41.5440 H   0  0  0  0  0  0  0  0  0  0  0  0
   52.8220   32.5530   39.8850 H   0  0  0  0  0  0  0  0  0  0  0  0
   54.2850   31.1660   38.4440 H   0  0  0  0  0  0  0  0  0  0  0  0
   54.2360   28.6780   38.7410 H   0  0  0  0  0  0  0  0  0  0  0  0
   49.0060   28.5300   46.5650 N   0  0  0  0  0  0  0  0  0  0  0  0
   48.7980   27.5140   46.3230 H   0  0  0  0  0  0  0  0  0  0  0  0
   46.6880   28.6570   47.4420 C   0  0  0  0  0  3  0  0  0  0  0  0
   47.8650   29.2480   47.0300 C   0  0  0  0  0  0  0  0  0  0  0  0
   47.8470   30.6200   47.0950 C   0  0  0  0  0  0  0  0  0  0  0  0
   48.7290   31.1730   46.7910 H   0  0  0  0  0  0  0  0  0  0  0  0
   46.7670   31.3390   47.5240 C   0  0  0  0  0  0  0  0  0  0  0  0
   46.5910   32.6890   47.6460 N   0  0  0  0  0  0  0  0  0  0  0  0
   47.2680   33.4530   47.4270 H   0  0  0  0  0  0  0  0  0  0  0  0
   45.3430   32.8750   48.1150 C   0  0  0  0  0  0  0  0  0  0  0  0
   44.9280   33.8620   48.3100 H   0  0  0  0  0  0  0  0  0  0  0  0
   44.7020   31.6680   48.3020 C   0  0  0  0  0  3  0  0  0  0  0  0
   45.6200   30.7170   47.9230 C   0  0  0  0  0  0  0  0  0  0  0  0
   45.5850   29.3600   47.8780 C   0  0  0  0  0  3  0  0  0  0  0  0
  1  7  1  1  0  0  0
  1  2  1  0  0  0  0
  1  6  1  0  0  0  0
  2  3  1  0  0  0  0
  3 11  1  0  0  0  0
  3  4  1  0  0  0  0
  4 13  1  0  0  0  0
  4 12  1  0  0  0  0
  5 14  1  0  0  0  0
  5  4  1  0  0  0  0
  6 16  1  6  0  0  0
  6 35  1  0  0  0  0
  6  5  1  0  0  0  0
  8  2  1  0  0  0  0
  9  2  1  0  0  0  0
 10  3  1  0  0  0  0
 15  5  1  0  0  0  0
 17  1  1  0  0  0  0
 18 17  1  0  0  0  0
 18 23  1  0  0  0  0
 19 18  2  0  0  0  0
 20 21  2  0  0  0  0
 20 19  1  0  0  0  0
 21 22  1  0  0  0  0
 22 17  2  0  0  0  0
 24 19  1  0  0  0  0
 25 21  1  0  0  0  0
 26 25  1  0  0  0  0
 26 31  1  0  0  0  0
 27 26  2  0  0  0  0
 28 29  2  0  0  0  0
 28 27  1  0  0  0  0
 29 30  1  0  0  0  0
 30 25  2  0  0  0  0
 32 27  1  0  0  0  0
 33 28  1  0  0  0  0
 34 29  1  0  0  0  0
 35 38  1  0  0  0  0
 36 35  1  0  0  0  0
 37 48  1  0  0  0  0
 38 39  1  0  0  0  0
 38 37  2  0  0  0  0
 39 41  2  0  0  0  0
 40 39  1  0  0  0  0
 41 42  1  0  0  0  0
 41 47  1  0  0  0  0
 42 44  1  0  0  0  0
 43 42  1  0  0  0  0
 44 46  2  0  0  0  0
 44 45  1  0  0  0  0
 47 46  1  0  0  0  0
 48 47  2  0  0  0  0
M  END
>  <minimizedAffinity>
-3.61066723

>  <minimizedRMSD>
6.77293539

$$$$
