REMARK  Name = 
REMARK  2 active torsions:
REMARK  status: ('A' for Active; 'I' for Inactive)
REMARK    1  A    between atoms: C_5  and  C_9
REMARK    2  A    between atoms: C_13  and  C_21
REMARK                            x       y       z     vdW  Elec       q    Type
REMARK                         _______ _______ _______ _____ _____    ______ ____
ROOT
ATOM      1 BR   UNL     1      44.587  33.141  41.187  0.00  0.00    +0.000 Br
ATOM      2  C   UNL     1      46.278  33.990  40.940  0.00  0.00    +0.000 A 
ATOM      3  C   UNL     1      46.825  34.740  41.962  0.00  0.00    +0.000 A 
ATOM      4  C   UNL     1      48.062  35.369  41.802  0.00  0.00    +0.000 A 
ATOM      5  C   UNL     1      48.712  35.222  40.609  0.00  0.00    +0.000 A 
ATOM      6  C   UNL     1      48.129  34.467  39.620  0.00  0.00    +0.000 A 
ATOM      7  C   UNL     1      46.928  33.842  39.745  0.00  0.00    +0.000 A 
ATOM      8  H   UNL     1      48.471  35.957  42.630  0.00  0.00    +0.000 HD
ATOM      9  H   UNL     1      49.671  35.706  40.476  0.00  0.00    +0.000 HD
ATOM     10  H   UNL     1      48.701  34.391  38.696  0.00  0.00    +0.000 HD
ENDROOT
BRANCH   7  12
ATOM     11  C   UNL     1      47.339  32.230  38.009  0.00  0.00    +0.000 A 
ATOM     12  C   UNL     1      46.411  33.067  38.625  0.00  0.00    +0.000 A 
ATOM     13  C   UNL     1      45.133  33.083  38.133  0.00  0.00    +0.000 A 
ATOM     14  H   UNL     1      44.443  33.732  38.623  0.00  0.00    +0.000 HD
ATOM     15  C   UNL     1      44.745  32.306  37.063  0.00  0.00    +0.000 A 
ATOM     16  N   UNL     1      43.530  32.217  36.472  0.00  0.00    +0.000 N 
ATOM     17  H   UNL     1      42.684  32.749  36.762  0.00  0.00    +0.000 HD
ATOM     18  C   UNL     1      43.701  31.317  35.479  0.00  0.00    +0.000 A 
ATOM     19  H   UNL     1      42.892  31.030  34.818  0.00  0.00    +0.000 HD
ATOM     20  C   UNL     1      44.999  30.849  35.446  0.00  0.00    +0.000 A 
ATOM     21  C   UNL     1      45.671  31.481  36.459  0.00  0.00    +0.000 A 
ATOM     22  C   UNL     1      46.980  31.438  36.931  0.00  0.00    +0.000 A 
ENDBRANCH   7  12
BRANCH   3  27
ATOM     23  C   UNL     1      45.607  34.033  45.336  0.00  0.00    +0.000 A 
ATOM     24  C   UNL     1      44.700  35.096  45.589  0.00  0.00    +0.000 A 
ATOM     25  C   UNL     1      44.532  36.038  44.576  0.00  0.00    +0.000 A 
ATOM     26  N   UNL     1      45.228  35.904  43.415  0.00  0.00    +0.000 NA
ATOM     27  C   UNL     1      46.092  34.864  43.212  0.00  0.00    +0.000 A 
ATOM     28  N   UNL     1      46.261  33.949  44.185  0.00  0.00    +0.000 NA
ATOM     29  H   UNL     1      45.823  33.242  46.042  0.00  0.00    +0.000 HD
ATOM     30  H   UNL     1      44.212  35.100  46.534  0.00  0.00    +0.000 HD
ATOM     31  H   UNL     1      43.847  36.848  44.756  0.00  0.00    +0.000 HD
ENDBRANCH   3  27
TORSDOF 2
