REMARK  Name = 
REMARK  8 active torsions:
REMARK  status: ('A' for Active; 'I' for Inactive)
REMARK    1  A    between atoms: C_3  and  C_7
REMARK    2  A    between atoms: C_5  and  O_12
REMARK    3  A    between atoms: C_7  and  C_8
REMARK    4  A    between atoms: C_8  and  C_9
REMARK    5  A    between atoms: C_10  and  C_11
REMARK    6  A    between atoms: O_12  and  C_14
REMARK    7  A    between atoms: C_13  and  S_19
REMARK    8  A    between atoms: S_19  and  C_38
REMARK                            x       y       z     vdW  Elec       q    Type
REMARK                         _______ _______ _______ _____ _____    ______ ____
ROOT
ATOM      1  C   UNL     1      45.439  30.187  47.241  0.00  0.00    +0.000 A 
ATOM      2  C   UNL     1      46.064  31.229  46.647  0.00  0.00    +0.000 A 
ATOM      3  C   UNL     1      46.361  32.340  47.414  0.00  0.00    +0.000 A 
ATOM      4  C   UNL     1      46.048  32.427  48.749  0.00  0.00    +0.000 A 
ATOM      5  C   UNL     1      45.413  31.360  49.344  0.00  0.00    +0.000 A 
ATOM      6  C   UNL     1      45.112  30.242  48.580  0.00  0.00    +0.000 A 
ATOM      7  H   UNL     1      46.858  33.214  47.017  0.00  0.00    +0.000 HD
ATOM      8  H   UNL     1      46.282  33.300  49.348  0.00  0.00    +0.000 HD
ATOM      9  H   UNL     1      45.122  31.321  50.378  0.00  0.00    +0.000 HD
ATOM     10  H   UNL     1      44.606  29.351  48.982  0.00  0.00    +0.000 HD
ENDROOT
BRANCH   1  11
ATOM     11  S   UNL     1      44.998  28.862  46.195  0.00  0.00    +0.000 S 
ATOM     12  O   UNL     1      43.554  28.747  45.932  0.00  0.00    +0.000 OA
ATOM     13  O   UNL     1      45.356  27.583  46.990  0.00  0.00    +0.000 OA
BRANCH  11  15
ATOM     14  C   UNL     1      46.640  27.543  44.363  0.00  0.00    +0.000 A 
ATOM     15  C   UNL     1      46.056  28.708  44.812  0.00  0.00    +0.000 A 
ATOM     16  C   UNL     1      46.383  29.823  44.032  0.00  0.00    +0.000 A 
ATOM     17  H   UNL     1      45.935  30.774  44.360  0.00  0.00    +0.000 HD
ATOM     18  C   UNL     1      47.195  29.846  42.919  0.00  0.00    +0.000 A 
ATOM     19  N   UNL     1      47.554  30.861  42.126  0.00  0.00    +0.000 N 
ATOM     20  H   UNL     1      47.296  31.869  42.177  0.00  0.00    +0.000 HD
ATOM     21  C   UNL     1      48.360  30.294  41.195  0.00  0.00    +0.000 A 
ATOM     22  H   UNL     1      48.841  30.810  40.384  0.00  0.00    +0.000 HD
ATOM     23  C   UNL     1      48.496  28.932  41.416  0.00  0.00    +0.000 A 
ATOM     24  C   UNL     1      47.740  28.644  42.533  0.00  0.00    +0.000 A 
ATOM     25  C   UNL     1      47.460  27.509  43.254  0.00  0.00    +0.000 A 
ENDBRANCH  11  15
ENDBRANCH   1  11
BRANCH   2  26
ATOM     26  O   UNL     1      46.466  31.336  45.317  0.00  0.00    +0.000 OA
BRANCH  26  31
ATOM     27  C   UNL     1      45.312  34.284  43.755  0.00  0.00    +0.000 A 
ATOM     28  C   UNL     1      46.475  34.769  43.129  0.00  0.00    +0.000 A 
ATOM     29  C   UNL     1      47.646  34.072  43.253  0.00  0.00    +0.000 A 
ATOM     30  N   UNL     1      47.591  32.947  43.985  0.00  0.00    +0.000 NA
ATOM     31  C   UNL     1      46.501  32.492  44.572  0.00  0.00    +0.000 A 
ATOM     32  N   UNL     1      45.359  33.161  44.458  0.00  0.00    +0.000 NA
ATOM     33  H   UNL     1      44.394  34.836  43.654  0.00  0.00    +0.000 HD
ATOM     34  H   UNL     1      46.363  35.684  42.574  0.00  0.00    +0.000 HD
BRANCH  29  35
ATOM     35  C   UNL     1      48.912  34.467  42.619  0.00  0.00    +0.000 C 
ATOM     36  H   UNL     1      49.257  33.599  42.004  0.00  0.00    +0.000 HD
ATOM     37  H   UNL     1      49.708  34.635  43.373  0.00  0.00    +0.000 HD
BRANCH  35  38
ATOM     38  C   UNL     1      48.760  35.657  41.718  0.00  0.00    +0.000 C 
ATOM     39  H   UNL     1      49.794  36.135  41.715  0.00  0.00    +0.000 HD
ATOM     40  H   UNL     1      48.108  36.434  42.081  0.00  0.00    +0.000 HD
BRANCH  38  41
ATOM     41  C   UNL     1      48.507  35.305  40.320  0.00  0.00    +0.000 C 
ATOM     42  C   UNL     1      48.269  34.259  39.539  0.00  0.00    +0.000 C 
BRANCH  42  43
ATOM     43  C   UNL     1      48.158  34.267  38.024  0.00  0.00    +0.000 C 
ATOM     44  H   UNL     1      48.254  35.332  37.731  0.00  0.00    +0.000 HD
ATOM     45  H   UNL     1      48.946  33.616  37.610  0.00  0.00    +0.000 HD
ATOM     46  H   UNL     1      47.127  33.947  37.809  0.00  0.00    +0.000 HD
ENDBRANCH  42  43
ENDBRANCH  38  41
ENDBRANCH  35  38
ENDBRANCH  29  35
ENDBRANCH  26  31
ENDBRANCH   2  26
TORSDOF 8
