
 OpenBabel03252506233D

 34 37  0  0  0  0  0  0  0  0999 V2000
   47.3420   30.2050   47.6450 C   0  0  0  0  0  0  0  0  0  0  0  0
   47.7600   29.2160   47.3780 H   0  0  0  0  0  0  0  0  0  0  0  0
   47.9500   30.7770   48.3450 H   0  0  0  0  0  0  0  0  0  0  0  0
   46.5560   32.6620   45.1580 C   0  0  0  0  0  0  0  0  0  0  0  0
   47.2800   31.7050   44.4200 C   0  0  0  0  0  0  0  0  0  0  0  0
   47.6480   30.6930   45.2470 C   0  0  0  0  0  0  0  0  0  0  0  0
   47.1700   31.0150   46.4500 N   0  0  0  0  0  0  0  0  0  0  0  0
   46.5130   32.1920   46.4100 N   0  0  0  0  0  0  0  0  0  0  0  0
   47.4840   31.8100   43.3500 H   0  0  0  0  0  0  0  0  0  0  0  0
   48.2170   29.7980   44.9970 H   0  0  0  0  0  0  0  0  0  0  0  0
   44.5660   35.7030   44.8300 C   0  0  0  0  0  0  0  0  0  0  0  0
   44.9410   36.1980   43.5810 C   0  0  0  0  0  0  0  0  0  0  0  0
   45.8890   35.4710   42.8550 C   0  0  0  0  0  0  0  0  0  0  0  0
   46.3780   34.3370   43.4080 N   0  0  0  0  0  0  0  0  0  0  0  0
   46.0020   33.8820   44.6070 C   0  0  0  0  0  0  0  0  0  0  0  0
   45.0940   34.5730   45.3130 N   0  0  0  0  0  0  0  0  0  0  0  0
   43.8300   36.2670   45.4000 H   0  0  0  0  0  0  0  0  0  0  0  0
   44.5070   37.1100   43.2080 H   0  0  0  0  0  0  0  0  0  0  0  0
   46.2110   35.8090   41.8870 H   0  0  0  0  0  0  0  0  0  0  0  0
   46.0070   29.9590   48.2620 C   0  0  0  0  0  0  0  0  0  0  0  0
   45.4670   30.9550   48.2380 H   0  0  0  0  0  0  0  0  0  0  0  0
   46.1580   29.7980   49.3690 H   0  0  0  0  0  0  0  0  0  0  0  0
   45.1160   27.5420   47.9070 C   0  0  0  0  0  3  0  0  0  0  0  0
   45.2050   28.8910   47.6590 C   0  0  0  0  0  0  0  0  0  0  0  0
   44.3770   29.3720   46.6460 C   0  0  0  0  0  0  0  0  0  0  0  0
   44.3150   30.4140   46.3140 H   0  0  0  0  0  0  0  0  0  0  0  0
   43.5160   28.5600   45.9270 C   0  0  0  0  0  0  0  0  0  0  0  0
   42.6290   28.7330   44.9310 N   0  0  0  0  0  0  0  0  0  0  0  0
   42.4210   29.6600   44.4720 H   0  0  0  0  0  0  0  0  0  0  0  0
   42.0420   27.5730   44.5970 C   0  0  0  0  0  0  0  0  0  0  0  0
   41.2840   27.4150   43.8230 H   0  0  0  0  0  0  0  0  0  0  0  0
   42.5460   26.5660   45.3960 C   0  0  0  0  0  3  0  0  0  0  0  0
   43.4510   27.2130   46.2010 C   0  0  0  0  0  0  0  0  0  0  0  0
   44.2660   26.7260   47.2020 C   0  0  0  0  0  3  0  0  0  0  0  0
  1 20  1  0  0  0  0
  1  3  1  0  0  0  0
  2  1  1  0  0  0  0
  4  8  2  0  0  0  0
  5  4  1  0  0  0  0
  5  6  2  0  0  0  0
  6  7  1  0  0  0  0
  7  1  1  0  0  0  0
  8  7  1  0  0  0  0
  9  5  1  0  0  0  0
 10  6  1  0  0  0  0
 11 16  1  0  0  0  0
 11 17  1  0  0  0  0
 12 11  2  0  0  0  0
 13 14  2  0  0  0  0
 13 12  1  0  0  0  0
 14 15  1  0  0  0  0
 15  4  1  0  0  0  0
 15 16  2  0  0  0  0
 18 12  1  0  0  0  0
 19 13  1  0  0  0  0
 20 22  1  0  0  0  0
 21 20  1  0  0  0  0
 24 23  1  0  0  0  0
 24 20  1  0  0  0  0
 25 24  2  0  0  0  0
 26 25  1  0  0  0  0
 27 33  2  0  0  0  0
 27 25  1  0  0  0  0
 28 27  1  0  0  0  0
 29 28  1  0  0  0  0
 30 28  1  0  0  0  0
 30 32  2  0  0  0  0
 31 30  1  0  0  0  0
 32 33  1  0  0  0  0
 33 34  1  0  0  0  0
 34 23  2  0  0  0  0
M  END
>  <minimizedAffinity>
-5.12808371

>  <minimizedRMSD>
2.12583852

$$$$
