
     RDKit          3D

 34 37  0  0  0  0  0  0  0  0999 V2000
   45.6073   34.0334   45.3360 C   0  0  0  0  0  0  0  0  0  0  0  0
   44.7004   35.0962   45.5885 C   0  0  0  0  0  0  0  0  0  0  0  0
   44.5321   36.0383   44.5759 C   0  0  0  0  0  0  0  0  0  0  0  0
   45.2276   35.9036   43.4146 N   0  0  0  0  0  0  0  0  0  0  0  0
   46.0920   34.8641   43.2115 C   0  0  0  0  0  0  0  0  0  0  0  0
   46.2608   33.9488   44.1849 N   0  0  0  0  0  0  0  0  0  0  0  0
   44.5870   33.1410   41.1866 Br  0  0  0  0  0  0  0  0  0  0  0  0
   46.2781   33.9898   40.9396 C   0  0  0  0  0  0  0  0  0  0  0  0
   46.8252   34.7397   41.9622 C   0  0  0  0  0  0  0  0  0  0  0  0
   48.0615   35.3689   41.8018 C   0  0  0  0  0  0  0  0  0  0  0  0
   48.7123   35.2224   40.6094 C   0  0  0  0  0  0  0  0  0  0  0  0
   48.1293   34.4666   39.6201 C   0  0  0  0  0  0  0  0  0  0  0  0
   46.9284   33.8421   39.7450 C   0  0  0  0  0  0  0  0  0  0  0  0
   45.8226   33.2424   46.0421 H   0  0  0  0  0  0  0  0  0  0  0  0
   44.2118   35.0996   46.5341 H   0  0  0  0  0  0  0  0  0  0  0  0
   43.8473   36.8484   44.7559 H   0  0  0  0  0  0  0  0  0  0  0  0
   48.4715   35.9574   42.6298 H   0  0  0  0  0  0  0  0  0  0  0  0
   49.6714   35.7064   40.4756 H   0  0  0  0  0  0  0  0  0  0  0  0
   48.7010   34.3912   38.6962 H   0  0  0  0  0  0  0  0  0  0  0  0
   47.3390   32.2303   38.0087 C   0  0  0  0  0  0  0  0  0  0  0  0
   46.4111   33.0669   38.6246 C   0  0  0  0  0  0  0  0  0  0  0  0
   45.1335   33.0829   38.1334 C   0  0  0  0  0  0  0  0  0  0  0  0
   44.4431   33.7319   38.6229 H   0  0  0  0  0  0  0  0  0  0  0  0
   44.7455   32.3063   37.0629 C   0  0  0  0  0  0  0  0  0  0  0  0
   43.5302   32.2169   36.4723 N   0  0  0  0  0  0  0  0  0  0  0  0
   42.6842   32.7489   36.7618 H   0  0  0  0  0  0  0  0  0  0  0  0
   43.7012   31.3165   35.4790 C   0  0  0  0  0  0  0  0  0  0  0  0
   42.8924   31.0298   34.8180 H   0  0  0  0  0  0  0  0  0  0  0  0
   44.9995   30.8486   35.4456 C   0  0  0  0  0  0  0  0  0  0  0  0
   45.6709   31.4812   36.4595 C   0  0  0  0  0  0  0  0  0  0  0  0
   46.9796   31.4380   36.9311 C   0  0  0  0  0  0  0  0  0  0  0  0
   48.3731   32.1312   38.3047 H   0  0  0  0  0  0  0  0  0  0  0  0
   45.4482   30.1340   34.7822 H   0  0  0  0  0  0  0  0  0  0  0  0
   47.6529   30.7770   36.4205 H   0  0  0  0  0  0  0  0  0  0  0  0
  1  2  2  0
  3  2  1  0
  4  3  2  0
  5  4  1  0
  5  6  2  0
  6  1  1  0
  8  7  1  0
  8  9  2  0
  9  5  1  0
 10  9  1  0
 11 10  2  0
 12 13  2  0
 12 11  1  0
 13  8  1  0
  1 14  1  0
  2 15  1  0
  3 16  1  0
 10 17  1  0
 11 18  1  0
 12 19  1  0
 20 21  2  0
 21 22  1  0
 22 23  1  0
 22 24  2  0
 24 25  1  0
 25 26  1  0
 25 27  1  0
 27 28  1  0
 27 29  2  0
 29 30  1  0
 30 31  2  0
 31 20  1  0
 30 24  1  0
 20 32  1  0
 29 33  1  0
 31 34  1  0
 13 21  1  0
M  ISO  8  14  14  15  14  16  14  17  14  18  14  19  14  23  15  26   5
M  ISO  1  28  14
M  END
>  <DihAtoms>  (1) 
11,12,20,19

>  <DihDeg>  (1) 
45.01677351094724

$$$$
