REMARK  Name = 
REMARK  5 active torsions:
REMARK  status: ('A' for Active; 'I' for Inactive)
REMARK    1  A    between atoms: C_3  and  C_14
REMARK    2  A    between atoms: C_5  and  C_7
REMARK    3  A    between atoms: C_12  and  N_13
REMARK    4  A    between atoms: C_18  and  O_20
REMARK    5  A    between atoms: O_20  and  C_37
REMARK                            x       y       z     vdW  Elec       q    Type
REMARK                         _______ _______ _______ _____ _____    ______ ____
ROOT
ATOM      1  C   UNL     1      44.561  35.580  44.609  0.00  0.00    +0.000 A 
ATOM      2  C   UNL     1      45.220  35.595  43.356  0.00  0.00    +0.000 A 
ATOM      3  C   UNL     1      46.318  34.689  43.171  0.00  0.00    +0.000 A 
ATOM      4  N   UNL     1      46.666  33.868  44.207  0.00  0.00    +0.000 NA
ATOM      5  C   UNL     1      46.012  33.891  45.373  0.00  0.00    +0.000 A 
ATOM      6  N   UNL     1      44.955  34.745  45.586  0.00  0.00    +0.000 NA
ATOM      7  H   UNL     1      43.739  36.277  44.707  0.00  0.00    +0.000 HD
ATOM      8  H   UNL     1      44.936  36.250  42.541  0.00  0.00    +0.000 HD
ENDROOT
BRANCH   5   9
ATOM      9  C   UNL     1      46.434  32.978  46.471  0.00  0.00    +0.000 C 
ATOM     10  C   UNL     1      46.969  31.748  45.770  0.00  0.00    +0.000 C 
ATOM     11  C   UNL     1      46.099  30.562  45.783  0.00  0.00    +0.000 C 
ATOM     12  C   UNL     1      45.820  30.293  47.258  0.00  0.00    +0.000 C 
ATOM     13  C   UNL     1      45.019  31.364  47.872  0.00  0.00    +0.000 C 
ATOM     14  C   UNL     1      45.387  32.733  47.420  0.00  0.00    +0.000 C 
ATOM     15  H   UNL     1      47.281  33.511  46.972  0.00  0.00    +0.000 HD
ATOM     16  H   UNL     1      47.912  31.465  46.288  0.00  0.00    +0.000 HD
ATOM     17  H   UNL     1      47.291  31.960  44.722  0.00  0.00    +0.000 HD
ATOM     18  H   UNL     1      45.146  30.780  45.290  0.00  0.00    +0.000 HD
ATOM     19  H   UNL     1      46.649  29.717  45.375  0.00  0.00    +0.000 HD
ATOM     20  H   UNL     1      45.126  29.410  47.233  0.00  0.00    +0.000 HD
ATOM     21  H   UNL     1      46.706  29.997  47.820  0.00  0.00    +0.000 HD
ATOM     22  H   UNL     1      44.226  31.410  48.570  0.00  0.00    +0.000 HD
BRANCH  14  23
ATOM     23  N   UNL     1      44.689  33.862  47.933  0.00  0.00    +0.000 N 
ATOM     24  H   UNL     1      45.152  34.495  48.640  0.00  0.00    +0.000 HD
ATOM     25  H   UNL     1      43.726  34.224  47.733  0.00  0.00    +0.000 HD
ENDBRANCH  14  23
ENDBRANCH   5   9
BRANCH   3  26
ATOM     26  C   UNL     1      47.011  34.676  41.907  0.00  0.00    +0.000 A 
ATOM     27  C   UNL     1      48.154  35.380  41.777  0.00  0.00    +0.000 A 
ATOM     28  C   UNL     1      48.784  35.330  40.521  0.00  0.00    +0.000 A 
ATOM     29  C   UNL     1      48.167  34.562  39.543  0.00  0.00    +0.000 A 
ATOM     30  C   UNL     1      47.007  33.847  39.678  0.00  0.00    +0.000 A 
ATOM     31  N   UNL     1      46.461  33.949  40.923  0.00  0.00    +0.000 NA
ATOM     32  H   UNL     1      48.592  35.962  42.568  0.00  0.00    +0.000 HD
ATOM     33  H   UNL     1      49.706  35.863  40.320  0.00  0.00    +0.000 HD
ATOM     34  H   UNL     1      48.681  34.544  38.583  0.00  0.00    +0.000 HD
BRANCH  30  35
ATOM     35  O   UNL     1      46.461  33.112  38.658  0.00  0.00    +0.000 OA
BRANCH  35  37
ATOM     36  C   UNL     1      46.337  33.055  36.188  0.00  0.00    +0.000 A 
ATOM     37  C   UNL     1      46.973  32.984  37.401  0.00  0.00    +0.000 A 
ATOM     38  C   UNL     1      48.348  32.747  37.385  0.00  0.00    +0.000 A 
ATOM     39  H   UNL     1      48.992  32.664  38.264  0.00  0.00    +0.000 HD
ATOM     40  C   UNL     1      49.049  32.590  36.199  0.00  0.00    +0.000 A 
ATOM     41  N   UNL     1      50.343  32.357  35.876  0.00  0.00    +0.000 N 
ATOM     42  H   UNL     1      51.120  32.245  36.570  0.00  0.00    +0.000 HD
ATOM     43  C   UNL     1      50.488  32.291  34.557  0.00  0.00    +0.000 A 
ATOM     44  H   UNL     1      51.417  32.113  34.007  0.00  0.00    +0.000 HD
ATOM     45  C   UNL     1      49.272  32.481  33.955  0.00  0.00    +0.000 A 
ATOM     46  C   UNL     1      48.376  32.667  34.988  0.00  0.00    +0.000 A 
ATOM     47  C   UNL     1      47.020  32.900  34.992  0.00  0.00    +0.000 A 
ENDBRANCH  35  37
ENDBRANCH  30  35
ENDBRANCH   3  26
TORSDOF 5
