REMARK  Name = 
REMARK  5 active torsions:
REMARK  status: ('A' for Active; 'I' for Inactive)
REMARK    1  A    between atoms: C_1  and  C_14
REMARK    2  A    between atoms: C_5  and  C_9
REMARK    3  A    between atoms: C_15  and  C_16
REMARK    4  A    between atoms: C_16  and  N_17
REMARK    5  A    between atoms: N_17  and  C_30
REMARK                            x       y       z     vdW  Elec       q    Type
REMARK                         _______ _______ _______ _____ _____    ______ ____
ROOT
ATOM      1  C   UNL     1      45.144  36.006  43.061  0.00  0.00    +0.000 A 
ATOM      2  C   UNL     1      44.149  35.801  42.090  0.00  0.00    +0.000 A 
ATOM      3  C   UNL     1      44.374  34.812  41.124  0.00  0.00    +0.000 A 
ATOM      4  N   UNL     1      45.533  34.108  41.176  0.00  0.00    +0.000 NA
ATOM      5  C   UNL     1      46.467  34.340  42.132  0.00  0.00    +0.000 A 
ATOM      6  N   UNL     1      46.269  35.289  43.073  0.00  0.00    +0.000 NA
ATOM      7  H   UNL     1      43.240  36.355  42.052  0.00  0.00    +0.000 HD
ATOM      8  H   UNL     1      43.639  34.616  40.356  0.00  0.00    +0.000 HD
ENDROOT
BRANCH   5  11
ATOM      9 CL   UNL     1      48.962  35.802  41.245  0.00  0.00    +0.000 Cl
ATOM     10  C   UNL     1      48.872  34.135  41.708  0.00  0.00    +0.000 A 
ATOM     11  C   UNL     1      47.690  33.527  42.106  0.00  0.00    +0.000 A 
ATOM     12  C   UNL     1      47.595  32.216  42.476  0.00  0.00    +0.000 A 
ATOM     13  C   UNL     1      48.752  31.469  42.445  0.00  0.00    +0.000 A 
ATOM     14  C   UNL     1      49.987  31.974  42.064  0.00  0.00    +0.000 A 
ATOM     15  C   UNL     1      49.976  33.315  41.708  0.00  0.00    +0.000 A 
ATOM     16  H   UNL     1      46.670  31.751  42.784  0.00  0.00    +0.000 HD
ATOM     17  H   UNL     1      48.742  30.418  42.728  0.00  0.00    +0.000 HD
ATOM     18  H   UNL     1      50.892  31.410  42.035  0.00  0.00    +0.000 HD
ATOM     19  H   UNL     1      50.919  33.768  41.399  0.00  0.00    +0.000 HD
ENDBRANCH   5  11
BRANCH   1  20
ATOM     20  C   UNL     1      44.900  37.044  44.070  0.00  0.00    +0.000 C 
ATOM     21  C   UNL     1      45.474  38.207  43.931  0.00  0.00    +0.000 C 
BRANCH  21  22
ATOM     22  C   UNL     1      45.245  39.277  44.937  0.00  0.00    +0.000 C 
ATOM     23  H   UNL     1      46.177  39.556  45.470  0.00  0.00    +0.000 HD
ATOM     24  H   UNL     1      44.520  38.964  45.713  0.00  0.00    +0.000 HD
BRANCH  22  25
ATOM     25  N   UNL     1      44.770  40.460  44.221  0.00  0.00    +0.000 N 
ATOM     26  H   UNL     1      44.644  40.457  43.167  0.00  0.00    +0.000 HD
BRANCH  25  28
ATOM     27  C   UNL     1      43.190  42.252  44.838  0.00  0.00    +0.000 A 
ATOM     28  C   UNL     1      44.450  41.683  44.886  0.00  0.00    +0.000 A 
ATOM     29  C   UNL     1      45.404  42.360  45.617  0.00  0.00    +0.000 A 
ATOM     30  H   UNL     1      46.414  41.996  45.714  0.00  0.00    +0.000 HD
ATOM     31  C   UNL     1      45.178  43.546  46.289  0.00  0.00    +0.000 A 
ATOM     32  N   UNL     1      45.922  44.371  47.047  0.00  0.00    +0.000 N 
ATOM     33  H   UNL     1      46.913  44.255  47.292  0.00  0.00    +0.000 HD
ATOM     34  C   UNL     1      45.166  45.414  47.458  0.00  0.00    +0.000 A 
ATOM     35  H   UNL     1      45.410  46.271  48.075  0.00  0.00    +0.000 HD
ATOM     36  C   UNL     1      43.893  45.255  46.949  0.00  0.00    +0.000 A 
ATOM     37  C   UNL     1      43.889  44.087  46.215  0.00  0.00    +0.000 A 
ATOM     38  C   UNL     1      42.911  43.435  45.491  0.00  0.00    +0.000 A 
ENDBRANCH  25  28
ENDBRANCH  22  25
ENDBRANCH  21  22
ENDBRANCH   1  20
TORSDOF 5
