
 OpenBabel03252502523D

 34 37  0  0  0  0  0  0  0  0999 V2000
   45.9960   30.0090   44.3990 Br  0  0  0  0  0  0  0  0  0  0  0  0
   45.7760   30.6180   46.2150 C   0  0  0  0  0  0  0  0  0  0  0  0
   46.3370   31.8490   46.5160 C   0  0  0  0  0  0  0  0  0  0  0  0
   46.1510   32.2420   47.8360 C   0  0  0  0  0  0  0  0  0  0  0  0
   45.4790   31.5040   48.7880 C   0  0  0  0  0  0  0  0  0  0  0  0
   44.9540   30.2950   48.4080 C   0  0  0  0  0  0  0  0  0  0  0  0
   45.0950   29.8250   47.1020 C   0  0  0  0  0  0  0  0  0  0  0  0
   46.5570   33.1950   48.1610 H   0  0  0  0  0  0  0  0  0  0  0  0
   45.3770   31.8740   49.7860 H   0  0  0  0  0  0  0  0  0  0  0  0
   44.4320   29.7380   49.1770 H   0  0  0  0  0  0  0  0  0  0  0  0
   43.3620   28.6140   46.0170 C   0  0  0  0  0  3  0  0  0  0  0  0
   44.5220   28.5480   46.7640 C   0  0  0  0  0  0  0  0  0  0  0  0
   44.9860   27.2990   47.0920 C   0  0  0  0  0  0  0  0  0  0  0  0
   45.8960   27.2800   47.6750 H   0  0  0  0  0  0  0  0  0  0  0  0
   44.3610   26.1430   46.7170 C   0  0  0  0  0  0  0  0  0  0  0  0
   44.7100   24.8830   46.9700 N   0  0  0  0  0  0  0  0  0  0  0  0
   45.5420   24.5570   47.5120 H   0  0  0  0  0  0  0  0  0  0  0  0
   43.7990   24.0880   46.4040 C   0  0  0  0  0  0  0  0  0  0  0  0
   43.8290   23.0040   46.4480 H   0  0  0  0  0  0  0  0  0  0  0  0
   42.8500   24.8820   45.7750 C   0  0  0  0  0  3  0  0  0  0  0  0
   43.2020   26.2030   45.9710 C   0  0  0  0  0  0  0  0  0  0  0  0
   42.7230   27.4510   45.6340 C   0  0  0  0  0  3  0  0  0  0  0  0
   47.0670   32.7140   45.5990 C   0  0  0  0  0  0  0  0  0  0  0  0
   47.9880   33.1060   46.0700 H   0  0  0  0  0  0  0  0  0  0  0  0
   47.3700   32.0860   44.7130 H   0  0  0  0  0  0  0  0  0  0  0  0
   44.5180   35.4210   45.1540 C   0  0  0  0  0  0  0  0  0  0  0  0
   44.7510   35.8100   43.8280 C   0  0  0  0  0  0  0  0  0  0  0  0
   45.7510   35.1590   43.1250 C   0  0  0  0  0  0  0  0  0  0  0  0
   46.4690   34.1700   43.7350 N   0  0  0  0  0  0  0  0  0  0  0  0
   46.2180   33.8110   45.0320 C   0  0  0  0  0  0  0  0  0  0  0  0
   45.2400   34.4540   45.7100 N   0  0  0  0  0  0  0  0  0  0  0  0
   43.7480   35.9140   45.7140 H   0  0  0  0  0  0  0  0  0  0  0  0
   44.1860   36.5930   43.3400 H   0  0  0  0  0  0  0  0  0  0  0  0
   46.0070   35.3890   42.0940 H   0  0  0  0  0  0  0  0  0  0  0  0
  1  2  1  0  0  0  0
  2  3  2  0  0  0  0
  2  7  1  0  0  0  0
  3  4  1  0  0  0  0
  4  8  1  0  0  0  0
  4  5  2  0  0  0  0
  5  9  1  0  0  0  0
  6  5  1  0  0  0  0
  6 10  1  0  0  0  0
  7  6  2  0  0  0  0
 11 12  1  0  0  0  0
 12 13  2  0  0  0  0
 12  7  1  0  0  0  0
 13 14  1  0  0  0  0
 15 16  1  0  0  0  0
 15 13  1  0  0  0  0
 16 17  1  0  0  0  0
 18 19  1  0  0  0  0
 18 16  1  0  0  0  0
 20 21  1  0  0  0  0
 20 18  2  0  0  0  0
 21 15  2  0  0  0  0
 22 21  1  0  0  0  0
 22 11  2  0  0  0  0
 23 24  1  0  0  0  0
 23  3  1  0  0  0  0
 25 23  1  0  0  0  0
 26 31  1  0  0  0  0
 26 32  1  0  0  0  0
 27 26  2  0  0  0  0
 28 29  2  0  0  0  0
 28 27  1  0  0  0  0
 29 30  1  0  0  0  0
 30 23  1  0  0  0  0
 30 31  2  0  0  0  0
 33 27  1  0  0  0  0
 34 28  1  0  0  0  0
M  END
>  <minimizedAffinity>
-5.61269188

>  <minimizedRMSD>
1.46794069

$$$$
