
 OpenBabel03242522423D

 50 54  0  0  0  0  0  0  0  0999 V2000
   46.2840   32.2510   44.5400 C   0  0  0  0  0  0  0  0  0  0  0  0
   45.8390   31.6120   43.7080 H   0  0  0  0  0  0  0  0  0  0  0  0
   47.3530   32.2140   44.6340 H   0  0  0  0  0  0  0  0  0  0  0  0
   45.9090   33.9190   42.8010 C   0  0  0  0  0  0  0  0  0  0  0  0
   45.8140   33.5880   44.1510 C   0  0  0  0  0  0  0  0  0  0  0  0
   45.3030   34.3770   45.1090 C   0  0  0  0  0  0  0  0  0  0  0  0
   44.8270   35.6190   44.7500 C   0  0  0  0  0  0  0  0  0  0  0  0
   44.8660   36.0490   43.4600 C   0  0  0  0  0  0  0  0  0  0  0  0
   45.4040   35.1930   42.5140 C   0  0  0  0  0  0  0  0  0  0  0  0
   45.1700   34.2340   46.1420 H   0  0  0  0  0  0  0  0  0  0  0  0
   44.3880   36.3620   45.4190 H   0  0  0  0  0  0  0  0  0  0  0  0
   44.5080   37.0170   43.0930 H   0  0  0  0  0  0  0  0  0  0  0  0
   45.4450   35.5130   41.4740 H   0  0  0  0  0  0  0  0  0  0  0  0
   46.5210   32.9420   41.5380 S   0  0  0  0  0  0  0  0  0  0  0  0
   46.7700   33.8570   40.2840 O   0  0  0  0  0  0  0  0  0  0  0  0
   45.4650   32.0100   41.0420 O   0  0  0  0  0  0  0  0  0  0  0  0
   48.6190   31.4770   42.6720 C   0  0  0  0  0  3  0  0  0  0  0  0
   48.1110   32.2950   41.6390 C   0  0  0  0  0  0  0  0  0  0  0  0
   49.1330   32.4800   40.6880 C   0  0  0  0  0  0  0  0  0  0  0  0
   48.8500   33.1080   39.8260 H   0  0  0  0  0  0  0  0  0  0  0  0
   50.4050   31.9660   40.7390 C   0  0  0  0  0  0  0  0  0  0  0  0
   51.4150   32.1100   39.8620 N   0  0  0  0  0  0  0  0  0  0  0  0
   51.4590   32.6390   38.9590 H   0  0  0  0  0  0  0  0  0  0  0  0
   52.4480   31.4130   40.3670 C   0  0  0  0  0  0  0  0  0  0  0  0
   53.4430   31.2760   39.9660 H   0  0  0  0  0  0  0  0  0  0  0  0
   52.0610   30.8310   41.5740 C   0  0  0  0  0  3  0  0  0  0  0  0
   50.7500   31.1950   41.7970 C   0  0  0  0  0  0  0  0  0  0  0  0
   49.8580   30.9310   42.7970 C   0  0  0  0  0  3  0  0  0  0  0  0
   45.6050   31.6390   45.7240 C   0  0  0  0  0  0  0  0  0  0  0  0
   44.6970   32.1940   46.0810 H   0  0  0  0  0  0  0  0  0  0  0  0
   45.1460   30.6230   45.5240 H   0  0  0  0  0  0  0  0  0  0  0  0
   47.1060   32.4630   47.5110 C   0  0  0  0  0  0  0  0  0  0  0  0
   46.6090   31.3810   46.7510 C   0  0  0  0  0  0  0  0  0  0  0  0
   47.0750   30.1150   47.0480 C   0  0  0  0  0  0  0  0  0  0  0  0
   47.9750   29.9770   48.0470 N   0  0  0  0  0  0  0  0  0  0  0  0
   48.4230   31.0150   48.7500 C   0  0  0  0  0  0  0  0  0  0  0  0
   47.9990   32.2740   48.4970 N   0  0  0  0  0  0  0  0  0  0  0  0
   46.8770   33.5100   47.4330 H   0  0  0  0  0  0  0  0  0  0  0  0
   46.6920   29.2920   46.4590 H   0  0  0  0  0  0  0  0  0  0  0  0
   49.4130   30.7660   49.8510 C   0  0  0  0  0  0  0  0  0  0  0  0
   48.9610   31.0560   50.8400 H   0  0  0  0  0  0  0  0  0  0  0  0
   49.5910   29.6760   49.9450 H   0  0  0  0  0  0  0  0  0  0  0  0
   50.6840   31.4430   49.6500 C   0  0  0  0  0  0  0  0  0  0  0  0
   51.7820   30.9210   48.9930 C   0  0  0  0  0  0  0  0  0  0  0  0
   52.7900   31.8460   49.0040 C   0  0  0  0  0  0  0  0  0  0  0  0
   52.2670   32.9150   49.6770 N   0  0  0  0  0  0  0  0  0  0  0  0
   51.0160   32.6820   50.0640 N   0  0  0  0  0  0  0  0  0  0  0  0
   51.9190   29.9510   48.5140 H   0  0  0  0  0  0  0  0  0  0  0  0
   53.8030   31.8900   48.6280 H   0  0  0  0  0  0  0  0  0  0  0  0
   52.6810   33.8550   49.9280 H   0  0  0  0  0  0  0  0  0  0  0  0
  1  3  1  0  0  0  0
  1 29  1  0  0  0  0
  2  1  1  0  0  0  0
  4  5  1  0  0  0  0
  5  1  1  0  0  0  0
  5  6  2  0  0  0  0
  6 10  1  0  0  0  0
  7  6  1  0  0  0  0
  7 11  1  0  0  0  0
  8  7  2  0  0  0  0
  9  4  2  0  0  0  0
  9  8  1  0  0  0  0
 12  8  1  0  0  0  0
 13  9  1  0  0  0  0
 14 18  1  0  0  0  0
 14  4  1  0  0  0  0
 15 14  2  0  0  0  0
 16 14  2  0  0  0  0
 17 28  1  0  0  0  0
 18 17  2  0  0  0  0
 19 21  2  0  0  0  0
 19 18  1  0  0  0  0
 20 19  1  0  0  0  0
 21 27  1  0  0  0  0
 22 24  1  0  0  0  0
 22 21  1  0  0  0  0
 23 22  1  0  0  0  0
 24 26  2  0  0  0  0
 25 24  1  0  0  0  0
 26 27  1  0  0  0  0
 27 28  2  0  0  0  0
 29 30  1  0  0  0  0
 29 33  1  0  0  0  0
 31 29  1  0  0  0  0
 32 37  1  0  0  0  0
 33 34  1  0  0  0  0
 33 32  2  0  0  0  0
 34 35  2  0  0  0  0
 35 36  1  0  0  0  0
 36 40  1  0  0  0  0
 37 36  2  0  0  0  0
 38 32  1  0  0  0  0
 39 34  1  0  0  0  0
 40 42  1  0  0  0  0
 40 41  1  0  0  0  0
 43 40  1  0  0  0  0
 43 47  2  0  0  0  0
 44 45  2  0  0  0  0
 44 43  1  0  0  0  0
 45 46  1  0  0  0  0
 46 50  1  0  0  0  0
 46 47  1  0  0  0  0
 48 44  1  0  0  0  0
 49 45  1  0  0  0  0
M  END
>  <minimizedAffinity>
-6.21510935

>  <minimizedRMSD>
0.925155759

$$$$
