
 OpenBabel03252502523D

 34 37  0  0  0  0  0  0  0  0999 V2000
   45.8790   29.9780   44.5670 Br  0  0  0  0  0  0  0  0  0  0  0  0
   45.7440   30.6550   46.3660 C   0  0  0  0  0  0  0  0  0  0  0  0
   46.3450   31.8820   46.6020 C   0  0  0  0  0  0  0  0  0  0  0  0
   46.2200   32.3260   47.9130 C   0  0  0  0  0  0  0  0  0  0  0  0
   45.5670   31.6380   48.9150 C   0  0  0  0  0  0  0  0  0  0  0  0
   45.0000   30.4310   48.5990 C   0  0  0  0  0  0  0  0  0  0  0  0
   45.0780   29.9120   47.3060 C   0  0  0  0  0  0  0  0  0  0  0  0
   46.6610   33.2790   48.1880 H   0  0  0  0  0  0  0  0  0  0  0  0
   45.5140   32.0460   49.9020 H   0  0  0  0  0  0  0  0  0  0  0  0
   44.4940   29.9150   49.4070 H   0  0  0  0  0  0  0  0  0  0  0  0
   44.9160   27.5990   47.8210 C   0  0  0  0  0  3  0  0  0  0  0  0
   44.4620   28.6390   47.0360 C   0  0  0  0  0  0  0  0  0  0  0  0
   43.4940   28.3470   46.1070 C   0  0  0  0  0  0  0  0  0  0  0  0
   43.1590   29.1820   45.5070 H   0  0  0  0  0  0  0  0  0  0  0  0
   42.9740   27.0970   45.9320 C   0  0  0  0  0  0  0  0  0  0  0  0
   42.0410   26.6890   45.0730 N   0  0  0  0  0  0  0  0  0  0  0  0
   41.5360   27.2760   44.3690 H   0  0  0  0  0  0  0  0  0  0  0  0
   41.8540   25.3820   45.2640 C   0  0  0  0  0  0  0  0  0  0  0  0
   41.1480   24.7810   44.7000 H   0  0  0  0  0  0  0  0  0  0  0  0
   42.7010   24.9590   46.2790 C   0  0  0  0  0  3  0  0  0  0  0  0
   43.4250   26.0520   46.7140 C   0  0  0  0  0  0  0  0  0  0  0  0
   44.3960   26.3300   47.6520 C   0  0  0  0  0  3  0  0  0  0  0  0
   47.0600   32.6950   45.6260 C   0  0  0  0  0  0  0  0  0  0  0  0
   48.0100   33.0760   46.0470 H   0  0  0  0  0  0  0  0  0  0  0  0
   47.3090   32.0300   44.7510 H   0  0  0  0  0  0  0  0  0  0  0  0
   44.5230   35.4110   45.1730 C   0  0  0  0  0  0  0  0  0  0  0  0
   44.7670   35.8050   43.8510 C   0  0  0  0  0  0  0  0  0  0  0  0
   45.7700   35.1540   43.1530 C   0  0  0  0  0  0  0  0  0  0  0  0
   46.4810   34.1600   43.7640 N   0  0  0  0  0  0  0  0  0  0  0  0
   46.2190   33.7970   45.0570 C   0  0  0  0  0  0  0  0  0  0  0  0
   45.2370   34.4390   45.7310 N   0  0  0  0  0  0  0  0  0  0  0  0
   43.7500   35.9040   45.7290 H   0  0  0  0  0  0  0  0  0  0  0  0
   44.2070   36.5920   43.3610 H   0  0  0  0  0  0  0  0  0  0  0  0
   46.0350   35.3870   42.1240 H   0  0  0  0  0  0  0  0  0  0  0  0
  1  2  1  0  0  0  0
  2  3  2  0  0  0  0
  2  7  1  0  0  0  0
  3  4  1  0  0  0  0
  4  8  1  0  0  0  0
  4  5  2  0  0  0  0
  5  9  1  0  0  0  0
  6  5  1  0  0  0  0
  6 10  1  0  0  0  0
  7  6  2  0  0  0  0
 12  7  1  0  0  0  0
 12 11  2  0  0  0  0
 13 12  1  0  0  0  0
 14 13  1  0  0  0  0
 15 13  2  0  0  0  0
 15 21  1  0  0  0  0
 16 18  1  0  0  0  0
 16 15  1  0  0  0  0
 17 16  1  0  0  0  0
 18 20  2  0  0  0  0
 19 18  1  0  0  0  0
 20 21  1  0  0  0  0
 21 22  2  0  0  0  0
 22 11  1  0  0  0  0
 23 24  1  0  0  0  0
 23  3  1  0  0  0  0
 25 23  1  0  0  0  0
 26 32  1  0  0  0  0
 26 31  1  0  0  0  0
 27 26  2  0  0  0  0
 28 29  2  0  0  0  0
 28 27  1  0  0  0  0
 29 30  1  0  0  0  0
 30 23  1  0  0  0  0
 30 31  2  0  0  0  0
 33 27  1  0  0  0  0
 34 28  1  0  0  0  0
M  END
>  <minimizedAffinity>
-5.89820957

>  <minimizedRMSD>
0.865049422

$$$$
