
 OpenBabel03242522423D

 50 54  0  0  0  0  0  0  0  0999 V2000
   46.7470   32.6870   44.4010 C   0  0  0  0  0  0  0  0  0  0  0  0
   46.5180   32.1710   43.4120 H   0  0  0  0  0  0  0  0  0  0  0  0
   47.7890   32.8270   44.6220 H   0  0  0  0  0  0  0  0  0  0  0  0
   46.2610   34.6330   43.0130 C   0  0  0  0  0  0  0  0  0  0  0  0
   46.0500   33.9680   44.2190 C   0  0  0  0  0  0  0  0  0  0  0  0
   45.2420   34.3890   45.2050 C   0  0  0  0  0  0  0  0  0  0  0  0
   44.5550   35.5700   45.0300 C   0  0  0  0  0  0  0  0  0  0  0  0
   44.6810   36.3040   43.8910 C   0  0  0  0  0  0  0  0  0  0  0  0
   45.5280   35.8210   42.9080 C   0  0  0  0  0  0  0  0  0  0  0  0
   44.9980   33.9740   46.1400 H   0  0  0  0  0  0  0  0  0  0  0  0
   43.8680   36.0310   45.7430 H   0  0  0  0  0  0  0  0  0  0  0  0
   44.1710   37.2480   43.6740 H   0  0  0  0  0  0  0  0  0  0  0  0
   45.6460   36.3890   41.9860 H   0  0  0  0  0  0  0  0  0  0  0  0
   47.2520   34.1260   41.7140 S   0  0  0  0  0  0  0  0  0  0  0  0
   48.4380   35.1490   41.5730 O   0  0  0  0  0  0  0  0  0  0  0  0
   46.5360   34.2960   40.4140 O   0  0  0  0  0  0  0  0  0  0  0  0
   47.8140   31.3880   41.5810 C   0  0  0  0  0  3  0  0  0  0  0  0
   48.2170   32.7110   41.8640 C   0  0  0  0  0  0  0  0  0  0  0  0
   49.5630   32.6760   42.2810 C   0  0  0  0  0  0  0  0  0  0  0  0
   49.9910   33.6630   42.5310 H   0  0  0  0  0  0  0  0  0  0  0  0
   50.3580   31.5640   42.3960 C   0  0  0  0  0  0  0  0  0  0  0  0
   51.6430   31.4750   42.7870 N   0  0  0  0  0  0  0  0  0  0  0  0
   52.3140   32.2200   43.0860 H   0  0  0  0  0  0  0  0  0  0  0  0
   51.9580   30.1690   42.7300 C   0  0  0  0  0  0  0  0  0  0  0  0
   52.8940   29.6800   42.9650 H   0  0  0  0  0  0  0  0  0  0  0  0
   50.8460   29.4470   42.2960 C   0  0  0  0  0  3  0  0  0  0  0  0
   49.8300   30.3550   42.0870 C   0  0  0  0  0  0  0  0  0  0  0  0
   48.5360   30.2390   41.6690 C   0  0  0  0  0  3  0  0  0  0  0  0
   46.1070   31.7240   45.3490 C   0  0  0  0  0  0  0  0  0  0  0  0
   45.0560   31.9870   45.6450 H   0  0  0  0  0  0  0  0  0  0  0  0
   45.9340   30.6910   44.9160 H   0  0  0  0  0  0  0  0  0  0  0  0
   47.1510   32.4930   47.4560 C   0  0  0  0  0  0  0  0  0  0  0  0
   47.0190   31.4960   46.4640 C   0  0  0  0  0  0  0  0  0  0  0  0
   47.7380   30.3270   46.6230 C   0  0  0  0  0  0  0  0  0  0  0  0
   48.5250   30.1970   47.7140 N   0  0  0  0  0  0  0  0  0  0  0  0
   48.6270   31.1530   48.6360 C   0  0  0  0  0  0  0  0  0  0  0  0
   47.9450   32.3160   48.5260 N   0  0  0  0  0  0  0  0  0  0  0  0
   46.6880   33.4610   47.5130 H   0  0  0  0  0  0  0  0  0  0  0  0
   47.6340   29.5700   45.8570 H   0  0  0  0  0  0  0  0  0  0  0  0
   49.5160   30.9160   49.8230 C   0  0  0  0  0  0  0  0  0  0  0  0
   48.9760   31.2140   50.7650 H   0  0  0  0  0  0  0  0  0  0  0  0
   49.6870   29.8280   49.9420 H   0  0  0  0  0  0  0  0  0  0  0  0
   50.7980   31.5950   49.7300 C   0  0  0  0  0  0  0  0  0  0  0  0
   51.9660   31.0500   49.2320 C   0  0  0  0  0  0  0  0  0  0  0  0
   52.9620   31.9860   49.3060 C   0  0  0  0  0  0  0  0  0  0  0  0
   52.3610   33.0850   49.8540 N   0  0  0  0  0  0  0  0  0  0  0  0
   51.0750   32.8590   50.1090 N   0  0  0  0  0  0  0  0  0  0  0  0
   52.1620   30.0570   48.8260 H   0  0  0  0  0  0  0  0  0  0  0  0
   54.0110   32.0190   49.0450 H   0  0  0  0  0  0  0  0  0  0  0  0
   52.7390   34.0410   50.0970 H   0  0  0  0  0  0  0  0  0  0  0  0
  1  3  1  0  0  0  0
  1 29  1  0  0  0  0
  2  1  1  0  0  0  0
  4  5  1  0  0  0  0
  5  1  1  0  0  0  0
  5  6  2  0  0  0  0
  6 10  1  0  0  0  0
  7  6  1  0  0  0  0
  7 11  1  0  0  0  0
  8  7  2  0  0  0  0
  9  4  2  0  0  0  0
  9  8  1  0  0  0  0
 12  8  1  0  0  0  0
 13  9  1  0  0  0  0
 14 18  1  0  0  0  0
 14  4  1  0  0  0  0
 15 14  2  0  0  0  0
 16 14  2  0  0  0  0
 17 28  2  0  0  0  0
 17 18  1  0  0  0  0
 18 19  2  0  0  0  0
 19 21  1  0  0  0  0
 19 20  1  0  0  0  0
 21 22  1  0  0  0  0
 22 23  1  0  0  0  0
 24 22  1  0  0  0  0
 24 25  1  0  0  0  0
 26 24  2  0  0  0  0
 27 26  1  0  0  0  0
 27 21  2  0  0  0  0
 28 27  1  0  0  0  0
 29 30  1  0  0  0  0
 29 33  1  0  0  0  0
 31 29  1  0  0  0  0
 32 38  1  0  0  0  0
 32 37  1  0  0  0  0
 33 34  1  0  0  0  0
 33 32  2  0  0  0  0
 34 35  2  0  0  0  0
 35 36  1  0  0  0  0
 36 40  1  0  0  0  0
 37 36  2  0  0  0  0
 39 34  1  0  0  0  0
 40 42  1  0  0  0  0
 40 41  1  0  0  0  0
 43 40  1  0  0  0  0
 43 47  2  0  0  0  0
 44 45  2  0  0  0  0
 44 43  1  0  0  0  0
 45 46  1  0  0  0  0
 46 50  1  0  0  0  0
 46 47  1  0  0  0  0
 48 44  1  0  0  0  0
 49 45  1  0  0  0  0
M  END
>  <minimizedAffinity>
-6.47586155

>  <minimizedRMSD>
0.625017047

$$$$
