
 OpenBabel03252505103D

 47 51  0  0  1  0  0  0  0  0999 V2000
   44.5750   35.5640   44.5690 C   0  0  0  0  0  0  0  0  0  0  0  0
   45.2470   35.5760   43.3230 C   0  0  0  0  0  0  0  0  0  0  0  0
   46.3490   34.6710   43.1530 C   0  0  0  0  0  0  0  0  0  0  0  0
   46.6870   33.8540   44.1950 N   0  0  0  0  0  0  0  0  0  0  0  0
   46.0210   33.8800   45.3540 C   0  0  0  0  0  0  0  0  0  0  0  0
   44.9600   34.7330   45.5530 N   0  0  0  0  0  0  0  0  0  0  0  0
   43.7510   36.2600   44.6560 H   0  0  0  0  0  0  0  0  0  0  0  0
   44.9710   36.2280   42.5030 H   0  0  0  0  0  0  0  0  0  0  0  0
   46.4330   32.9710   46.4600 C   0  0  2  0  0  0  0  0  0  0  0  0
   46.9620   31.7330   45.7690 C   0  0  0  0  0  0  0  0  0  0  0  0
   46.0840   30.5530   45.7860 C   0  0  0  0  0  0  0  0  0  0  0  0
   45.7980   30.2960   47.2620 C   0  0  0  0  0  0  0  0  0  0  0  0
   45.0020   31.3760   47.8660 C   0  0  0  0  0  0  0  0  0  0  0  0
   45.3810   32.7400   47.4060 C   0  0  0  0  0  0  0  0  0  0  0  0
   47.2820   33.5020   46.9600 H   0  0  0  0  0  0  0  0  0  0  0  0
   47.9010   31.4470   46.2920 H   0  0  0  0  0  0  0  0  0  0  0  0
   47.2890   31.9360   44.7200 H   0  0  0  0  0  0  0  0  0  0  0  0
   45.1340   30.7740   45.2880 H   0  0  0  0  0  0  0  0  0  0  0  0
   46.6290   29.7020   45.3860 H   0  0  0  0  0  0  0  0  0  0  0  0
   45.0980   29.4170   47.2400 H   0  0  0  0  0  0  0  0  0  0  0  0
   46.6800   29.9970   47.8290 H   0  0  0  0  0  0  0  0  0  0  0  0
   44.2070   31.4320   48.5610 H   0  0  0  0  0  0  0  0  0  0  0  0
   44.6890   33.8770   47.9100 N   0  0  0  0  0  0  0  0  0  0  0  0
   45.1530   34.5110   48.6140 H   0  0  0  0  0  0  0  0  0  0  0  0
   43.7290   34.2440   47.7040 H   0  0  0  0  0  0  0  0  0  0  0  0
   47.0550   34.6550   41.8960 C   0  0  0  0  0  0  0  0  0  0  0  0
   48.1400   35.4420   41.7420 C   0  0  0  0  0  0  0  0  0  0  0  0
   48.7860   35.3840   40.4950 C   0  0  0  0  0  0  0  0  0  0  0  0
   48.2440   34.5250   39.5490 C   0  0  0  0  0  0  0  0  0  0  0  0
   47.1430   33.7260   39.7090 C   0  0  0  0  0  0  0  0  0  0  0  0
   46.5760   33.8420   40.9440 N   0  0  0  0  0  0  0  0  0  0  0  0
   48.5210   36.0930   42.5080 H   0  0  0  0  0  0  0  0  0  0  0  0
   49.6650   35.9800   40.2760 H   0  0  0  0  0  0  0  0  0  0  0  0
   48.7690   34.5040   38.5950 H   0  0  0  0  0  0  0  0  0  0  0  0
   46.6690   32.9030   38.7210 O   0  0  0  0  0  0  0  0  0  0  0  0
   48.5630   31.8020   37.5740 C   0  0  0  0  0  3  0  0  0  0  0  0
   47.3690   32.4750   37.6320 C   0  0  0  0  0  0  0  0  0  0  0  0
   46.7530   32.7830   36.4190 C   0  0  0  0  0  0  0  0  0  0  0  0
   45.8050   33.3130   36.3020 H   0  0  0  0  0  0  0  0  0  0  0  0
   47.3160   32.4290   35.2030 C   0  0  0  0  0  0  0  0  0  0  0  0
   46.9650   32.5850   33.9040 N   0  0  0  0  0  0  0  0  0  0  0  0
   46.0930   33.0660   33.5760 H   0  0  0  0  0  0  0  0  0  0  0  0
   47.8800   32.0450   33.1080 C   0  0  0  0  0  0  0  0  0  0  0  0
   47.8650   32.0200   32.0130 H   0  0  0  0  0  0  0  0  0  0  0  0
   48.8840   31.5040   33.8680 C   0  0  0  0  0  3  0  0  0  0  0  0
   48.5240   31.7480   35.1770 C   0  0  0  0  0  0  0  0  0  0  0  0
   49.1410   31.4380   36.3680 C   0  0  0  0  0  3  0  0  0  0  0  0
  1  7  1  0  0  0  0
  1  6  1  0  0  0  0
  2  1  2  0  0  0  0
  3  2  1  0  0  0  0
  3  4  2  0  0  0  0
  4  5  1  0  0  0  0
  5  6  2  0  0  0  0
  5  9  1  0  0  0  0
  8  2  1  0  0  0  0
  9 15  1  1  0  0  0
  9 14  1  0  0  0  0
 10 11  1  0  0  0  0
 10 16  1  0  0  0  0
 10  9  1  0  0  0  0
 11 12  1  0  0  0  0
 12 21  1  0  0  0  0
 12 13  1  0  0  0  0
 13 22  1  0  0  0  0
 14 13  2  0  0  0  0
 14 23  1  0  0  0  0
 17 10  1  0  0  0  0
 18 11  1  0  0  0  0
 19 11  1  0  0  0  0
 20 12  1  0  0  0  0
 23 24  1  0  0  0  0
 25 23  1  0  0  0  0
 26  3  1  0  0  0  0
 27 26  1  0  0  0  0
 27 32  1  0  0  0  0
 28 27  2  0  0  0  0
 29 30  2  0  0  0  0
 29 28  1  0  0  0  0
 30 31  1  0  0  0  0
 31 26  2  0  0  0  0
 33 28  1  0  0  0  0
 34 29  1  0  0  0  0
 35 30  1  0  0  0  0
 36 37  1  0  0  0  0
 37 35  1  0  0  0  0
 38 37  2  0  0  0  0
 39 38  1  0  0  0  0
 40 38  1  0  0  0  0
 41 40  1  0  0  0  0
 42 41  1  0  0  0  0
 43 45  2  0  0  0  0
 43 41  1  0  0  0  0
 44 43  1  0  0  0  0
 45 46  1  0  0  0  0
 46 40  2  0  0  0  0
 46 47  1  0  0  0  0
 47 36  2  0  0  0  0
M  END
>  <minimizedAffinity>
-7.85353088

>  <minimizedRMSD>
0.744466782

$$$$
