
 OpenBabel03242521433D

 41 44  0  0  1  0  0  0  0  0999 V2000
   45.5900   34.8930   43.8030 C   0  0  0  0  0  0  0  0  0  0  0  0
   46.6850   34.2140   43.2750 C   0  0  0  0  0  0  0  0  0  0  0  0
   47.3320   33.2360   44.0300 C   0  0  0  0  0  0  0  0  0  0  0  0
   46.8510   33.0000   45.2500 N   0  0  0  0  0  0  0  0  0  0  0  0
   45.7880   33.6590   45.7610 C   0  0  0  0  0  0  0  0  0  0  0  0
   45.1500   34.6060   45.0470 N   0  0  0  0  0  0  0  0  0  0  0  0
   46.9700   34.4940   42.2930 H   0  0  0  0  0  0  0  0  0  0  0  0
   45.4610   33.4010   46.7680 H   0  0  0  0  0  0  0  0  0  0  0  0
   49.3050   33.4300   42.5330 C   0  0  2  0  0  0  0  0  0  0  0  0
   48.4680   32.5700   43.4140 C   0  0  2  0  0  0  0  0  0  0  0  0
   48.1100   31.5270   42.5100 O   0  0  0  0  0  0  0  0  0  0  0  0
   49.3250   31.1570   41.9870 C   0  0  0  0  0  0  0  0  0  0  0  0
   50.2600   32.3390   42.0060 C   0  0  1  0  0  0  0  0  0  0  0  0
   48.7210   33.7230   41.6430 H   0  0  0  0  0  0  0  0  0  0  0  0
   49.0250   32.0430   44.2150 H   0  0  0  0  0  0  0  0  0  0  0  0
   49.1640   30.9140   40.8970 H   0  0  0  0  0  0  0  0  0  0  0  0
   49.7580   30.2420   42.4210 H   0  0  0  0  0  0  0  0  0  0  0  0
   51.0700   32.1290   42.7120 H   0  0  0  0  0  0  0  0  0  0  0  0
   49.9350   34.4580   43.1660 O   0  0  0  0  0  0  0  0  0  0  0  0
   50.7820   34.6450   42.7030 H   0  0  0  0  0  0  0  0  0  0  0  0
   50.7140   32.7210   40.7450 O   0  0  0  0  0  0  0  0  0  0  0  0
   50.0190   33.2330   40.2690 H   0  0  0  0  0  0  0  0  0  0  0  0
   44.9120   35.9490   42.9720 C   0  0  0  0  0  0  0  0  0  0  0  0
   45.5220   36.1590   42.0960 H   0  0  0  0  0  0  0  0  0  0  0  0
   43.9020   35.5310   42.7310 H   0  0  0  0  0  0  0  0  0  0  0  0
   45.4930   38.2960   43.8420 C   0  0  0  0  0  0  0  0  0  0  0  0
   46.4730   38.3420   43.0190 O   0  0  0  0  0  0  0  0  0  0  0  0
   44.7360   37.1050   43.8250 N   0  0  0  0  0  0  0  0  0  0  0  0
   43.9510   37.0460   44.5110 H   0  0  0  0  0  0  0  0  0  0  0  0
   45.1710   39.4010   46.1120 C   0  0  0  0  0  3  0  0  0  0  0  0
   45.1910   39.4070   44.7350 C   0  0  0  0  0  0  0  0  0  0  0  0
   44.8790   40.6350   44.1430 C   0  0  0  0  0  0  0  0  0  0  0  0
   44.8780   40.7040   43.0510 H   0  0  0  0  0  0  0  0  0  0  0  0
   44.5690   41.7840   44.8430 C   0  0  0  0  0  0  0  0  0  0  0  0
   44.2510   43.0290   44.4690 N   0  0  0  0  0  0  0  0  0  0  0  0
   44.1890   43.3220   43.4680 H   0  0  0  0  0  0  0  0  0  0  0  0
   44.0420   43.7660   45.5920 C   0  0  0  0  0  0  0  0  0  0  0  0
   43.7660   44.8270   45.5680 H   0  0  0  0  0  0  0  0  0  0  0  0
   44.2290   42.9860   46.7080 C   0  0  0  0  0  3  0  0  0  0  0  0
   44.5610   41.7390   46.2200 C   0  0  0  0  0  0  0  0  0  0  0  0
   44.8640   40.5390   46.8270 C   0  0  0  0  0  3  0  0  0  0  0  0
  1  6  1  0  0  0  0
  2  1  2  0  0  0  0
  2  3  1  0  0  0  0
  3  4  2  0  0  0  0
  4  5  1  0  0  0  0
  5  8  1  0  0  0  0
  6  5  2  0  0  0  0
  7  2  1  0  0  0  0
  9 14  1  6  0  0  0
  9 19  1  0  0  0  0
  9 10  1  0  0  0  0
 10  3  1  0  0  0  0
 10 15  1  1  0  0  0
 11 10  1  0  0  0  0
 12 13  1  0  0  0  0
 12 17  1  0  0  0  0
 12 11  1  0  0  0  0
 13  9  1  0  0  0  0
 13 18  1  1  0  0  0
 16 12  1  0  0  0  0
 20 19  1  0  0  0  0
 21 13  1  0  0  0  0
 22 21  1  0  0  0  0
 23  1  1  0  0  0  0
 23 28  1  0  0  0  0
 24 23  1  0  0  0  0
 25 23  1  0  0  0  0
 26 31  1  0  0  0  0
 27 26  2  0  0  0  0
 28 26  1  0  0  0  0
 28 29  1  0  0  0  0
 30 41  1  0  0  0  0
 31 30  2  0  0  0  0
 32 31  1  0  0  0  0
 32 34  2  0  0  0  0
 33 32  1  0  0  0  0
 34 40  1  0  0  0  0
 35 34  1  0  0  0  0
 35 37  1  0  0  0  0
 36 35  1  0  0  0  0
 37 39  2  0  0  0  0
 38 37  1  0  0  0  0
 40 39  1  0  0  0  0
 40 41  2  0  0  0  0
M  END
>  <minimizedAffinity>
-3.26216912

>  <minimizedRMSD>
1.29538059

$$$$
