
 OpenBabel03242516523D

 48 52  0  0  1  0  0  0  0  0999 V2000
   47.8260   32.8800   41.7980 C   0  0  1  0  0  0  0  0  0  0  0  0
   47.5120   32.2740   40.5040 C   0  0  0  0  0  0  0  0  0  0  0  0
   48.5540   32.8200   39.5250 C   0  0  0  0  0  0  0  0  0  0  0  0
   48.2100   34.2880   39.3180 C   0  0  0  0  0  0  0  0  0  0  0  0
   48.1510   35.0770   40.5900 C   0  0  0  0  0  0  0  0  0  0  0  0
   47.6270   34.4000   41.7840 C   0  0  1  0  0  0  0  0  0  0  0  0
   48.9430   32.7920   41.9720 H   0  0  0  0  0  0  0  0  0  0  0  0
   47.6730   31.1830   40.5550 H   0  0  0  0  0  0  0  0  0  0  0  0
   46.5110   32.5220   40.0970 H   0  0  0  0  0  0  0  0  0  0  0  0
   49.5490   32.7990   40.0200 H   0  0  0  0  0  0  0  0  0  0  0  0
   48.5160   32.3310   38.5530 H   0  0  0  0  0  0  0  0  0  0  0  0
   47.1810   34.3070   38.8940 H   0  0  0  0  0  0  0  0  0  0  0  0
   48.8890   34.7840   38.6180 H   0  0  0  0  0  0  0  0  0  0  0  0
   49.1780   35.4740   40.7730 H   0  0  0  0  0  0  0  0  0  0  0  0
   47.5410   35.9920   40.3690 H   0  0  0  0  0  0  0  0  0  0  0  0
   48.2080   34.7580   42.6880 H   0  0  0  0  0  0  0  0  0  0  0  0
   45.3720   30.9070   43.8880 C   0  0  0  0  0  0  0  0  0  0  0  0
   46.0660   31.4810   42.8200 C   0  0  0  0  0  0  0  0  0  0  0  0
   47.1710   32.3240   42.9630 C   0  0  0  0  0  0  0  0  0  0  0  0
   47.5430   32.5660   44.2190 N   0  0  0  0  0  0  0  0  0  0  0  0
   46.8860   32.0230   45.2780 C   0  0  0  0  0  0  0  0  0  0  0  0
   45.8350   31.2180   45.1310 N   0  0  0  0  0  0  0  0  0  0  0  0
   44.5330   30.2710   43.6420 H   0  0  0  0  0  0  0  0  0  0  0  0
   45.7510   31.2720   41.8060 H   0  0  0  0  0  0  0  0  0  0  0  0
   47.1540   32.1910   46.3050 H   0  0  0  0  0  0  0  0  0  0  0  0
   46.2450   34.7690   42.0880 C   0  0  0  0  0  0  0  0  0  0  0  0
   45.7940   35.3270   43.2960 C   0  0  0  0  0  0  0  0  0  0  0  0
   44.4340   35.6140   43.3560 C   0  0  0  0  0  0  0  0  0  0  0  0
   43.6530   35.3360   42.2510 C   0  0  0  0  0  0  0  0  0  0  0  0
   44.1170   34.7850   41.0670 C   0  0  0  0  0  0  0  0  0  0  0  0
   45.4580   34.5060   41.0190 N   0  0  0  0  0  0  0  0  0  0  0  0
   46.5150   35.4810   44.0520 H   0  0  0  0  0  0  0  0  0  0  0  0
   44.0650   36.0390   44.2640 H   0  0  0  0  0  0  0  0  0  0  0  0
   42.5910   35.5610   42.3030 H   0  0  0  0  0  0  0  0  0  0  0  0
   43.2160   34.5320   39.9480 C   0  0  0  0  0  0  0  0  0  0  0  0
   42.2640   35.3490   39.7770 O   0  0  0  0  0  0  0  0  0  0  0  0
   44.4600   33.1540   38.3720 C   0  0  0  0  0  3  0  0  0  0  0  0
   43.2530   33.4470   38.9750 C   0  0  0  0  0  0  0  0  0  0  0  0
   42.1550   32.6940   38.6150 C   0  0  0  0  0  0  0  0  0  0  0  0
   41.2460   32.9600   39.1070 H   0  0  0  0  0  0  0  0  0  0  0  0
   42.1830   31.6670   37.6940 C   0  0  0  0  0  0  0  0  0  0  0  0
   41.2780   30.8110   37.1880 N   0  0  0  0  0  0  0  0  0  0  0  0
   40.2680   30.7870   37.4530 H   0  0  0  0  0  0  0  0  0  0  0  0
   41.9000   29.9990   36.2890 C   0  0  0  0  0  0  0  0  0  0  0  0
   41.4530   29.1910   35.6970 H   0  0  0  0  0  0  0  0  0  0  0  0
   43.2520   30.3420   36.2130 C   0  0  0  0  0  3  0  0  0  0  0  0
   43.4080   31.3990   37.1080 C   0  0  0  0  0  0  0  0  0  0  0  0
   44.5380   32.1200   37.4300 C   0  0  0  0  0  3  0  0  0  0  0  0
  1  7  1  1  0  0  0
  1 19  1  0  0  0  0
  2  8  1  0  0  0  0
  2  1  1  0  0  0  0
  3 10  1  0  0  0  0
  3  2  1  0  0  0  0
  4  3  1  0  0  0  0
  4  5  1  0  0  0  0
  5 14  1  0  0  0  0
  5  6  1  0  0  0  0
  6  1  1  0  0  0  0
  6 26  1  0  0  0  0
  6 16  1  1  0  0  0
  9  2  1  0  0  0  0
 11  3  1  0  0  0  0
 12  4  1  0  0  0  0
 13  4  1  0  0  0  0
 15  5  1  0  0  0  0
 17 22  1  0  0  0  0
 18 19  1  0  0  0  0
 18 17  2  0  0  0  0
 19 20  2  0  0  0  0
 20 21  1  0  0  0  0
 21 25  1  0  0  0  0
 22 21  2  0  0  0  0
 23 17  1  0  0  0  0
 24 18  1  0  0  0  0
 26 27  1  0  0  0  0
 27 28  2  0  0  0  0
 27 32  1  0  0  0  0
 28 33  1  0  0  0  0
 29 34  1  0  0  0  0
 29 28  1  0  0  0  0
 30 29  2  0  0  0  0
 31 30  1  0  0  0  0
 31 26  2  0  0  0  0
 35 30  1  0  0  0  0
 36 35  2  0  0  0  0
 37 38  1  0  0  0  0
 38 35  1  0  0  0  0
 39 38  2  0  0  0  0
 39 40  1  0  0  0  0
 41 39  1  0  0  0  0
 42 43  1  0  0  0  0
 42 41  1  0  0  0  0
 44 42  1  0  0  0  0
 45 44  1  0  0  0  0
 46 44  2  0  0  0  0
 46 47  1  0  0  0  0
 47 48  1  0  0  0  0
 47 41  2  0  0  0  0
 48 37  2  0  0  0  0
M  END
>  <minimizedAffinity>
-5.86438608

>  <minimizedRMSD>
0.576573372

$$$$
