REMARK  Name = 
REMARK  10 active torsions:
REMARK  status: ('A' for Active; 'I' for Inactive)
REMARK    1  A    between atoms: C_1  and  O_12
REMARK    2  A    between atoms: C_2  and  C_3
REMARK    3  A    between atoms: C_3  and  O_4
REMARK    4  A    between atoms: O_4  and  P_6
REMARK    5  A    between atoms: P_6  and  O_7
REMARK    6  A    between atoms: P_6  and  O_8
REMARK    7  A    between atoms: O_8  and  C_9
REMARK    8  A    between atoms: O_12  and  C_13
REMARK    9  A    between atoms: C_13  and  C_15
REMARK   10  A    between atoms: C_18  and  C_35
REMARK                            x       y       z     vdW  Elec       q    Type
REMARK                         _______ _______ _______ _____ _____    ______ ____
ROOT
ATOM      1  C   UNL     1      41.439  35.664  41.224  0.00  0.00    +0.000 C 
ATOM      2  H   UNL     1      41.410  35.653  42.353  0.00  0.00    +0.000 HD
ATOM      3  H   UNL     1      41.104  36.686  40.950  0.00  0.00    +0.000 HD
ENDROOT
BRANCH   1   5
ATOM      4  C   UNL     1      40.284  33.535  41.583  0.00  0.00    +0.000 A 
ATOM      5  C   UNL     1      40.311  34.747  40.850  0.00  0.00    +0.000 A 
ATOM      6  C   UNL     1      39.343  34.942  39.925  0.00  0.00    +0.000 A 
ATOM      7  N   UNL     1      38.443  33.983  39.776  0.00  0.00    +0.000 NA
ATOM      8  C   UNL     1      38.404  32.846  40.453  0.00  0.00    +0.000 A 
ATOM      9  N   UNL     1      39.368  32.575  41.422  0.00  0.00    +0.000 NA
ATOM     10  H   UNL     1      41.019  33.299  42.340  0.00  0.00    +0.000 HD
ATOM     11  H   UNL     1      39.405  35.880  39.391  0.00  0.00    +0.000 HD
BRANCH   8  13
ATOM     12  C   UNL     1      36.225  31.914  40.986  0.00  0.00    +0.000 A 
ATOM     13  C   UNL     1      37.380  31.833  40.235  0.00  0.00    +0.000 A 
ATOM     14  C   UNL     1      37.544  30.820  39.313  0.00  0.00    +0.000 A 
ATOM     15  H   UNL     1      38.432  30.750  38.730  0.00  0.00    +0.000 HD
ATOM     16  C   UNL     1      36.516  29.896  39.170  0.00  0.00    +0.000 A 
ATOM     17  N   UNL     1      36.480  28.828  38.321  0.00  0.00    +0.000 N 
ATOM     18  H   UNL     1      37.212  28.530  37.645  0.00  0.00    +0.000 HD
ATOM     19  C   UNL     1      35.275  28.232  38.550  0.00  0.00    +0.000 A 
ATOM     20  H   UNL     1      34.890  27.336  38.050  0.00  0.00    +0.000 HD
ATOM     21  C   UNL     1      34.568  28.910  39.523  0.00  0.00    +0.000 A 
ATOM     22  C   UNL     1      35.353  29.973  39.922  0.00  0.00    +0.000 A 
ATOM     23  C   UNL     1      35.201  30.996  40.845  0.00  0.00    +0.000 A 
ENDBRANCH   8  13
ENDBRANCH   1   5
BRANCH   1  24
ATOM     24  O   UNL     1      42.611  35.344  40.628  0.00  0.00    +0.000 OA
BRANCH  24  25
ATOM     25  C   UNL     1      43.868  35.235  41.198  0.00  0.00    +0.000 C 
ATOM     26  C   UNL     1      43.959  35.578  42.478  0.00  0.00    +0.000 C 
BRANCH  26  27
ATOM     27  C   UNL     1      45.231  35.535  43.305  0.00  0.00    +0.000 C 
ATOM     28  H   UNL     1      46.062  35.163  42.665  0.00  0.00    +0.000 HD
ATOM     29  H   UNL     1      45.487  36.539  43.674  0.00  0.00    +0.000 HD
BRANCH  27  30
ATOM     30  O   UNL     1      45.013  34.658  44.345  0.00  0.00    +0.000 OA
BRANCH  30  32
ATOM     31  O   UNL     1      45.697  32.491  42.955  0.00  0.00    +0.000 OA
ATOM     32  P   UNL     1      45.999  33.297  44.195  0.00  0.00    +0.000 P 
BRANCH  32  33
ATOM     33  O   UNL     1      47.634  33.769  44.086  0.00  0.00    +0.000 OA
ATOM     34  H   UNL     1      48.200  33.002  44.363  0.00  0.00    +0.000 HD
ENDBRANCH  32  33
BRANCH  32  35
ATOM     35  O   UNL     1      45.856  32.326  45.568  0.00  0.00    +0.000 OA
BRANCH  35  36
ATOM     36  C   UNL     1      46.209  32.997  46.722  0.00  0.00    +0.000 C 
ATOM     37  C   UNL     1      47.048  32.291  47.741  0.00  0.00    +0.000 C 
ATOM     38  C   UNL     1      45.572  32.474  47.990  0.00  0.00    +0.000 C 
ATOM     39  H   UNL     1      46.446  34.078  46.649  0.00  0.00    +0.000 HD
ATOM     40  H   UNL     1      47.784  32.843  48.356  0.00  0.00    +0.000 HD
ATOM     41  H   UNL     1      47.321  31.250  47.464  0.00  0.00    +0.000 HD
ATOM     42  H   UNL     1      45.319  33.234  48.770  0.00  0.00    +0.000 HD
ATOM     43  H   UNL     1      44.889  31.614  47.931  0.00  0.00    +0.000 HD
ENDBRANCH  35  36
ENDBRANCH  32  35
ENDBRANCH  30  32
ENDBRANCH  27  30
ENDBRANCH  26  27
ENDBRANCH  24  25
ENDBRANCH   1  24
TORSDOF 10
