
 OpenBabel03242516523D

 48 52  0  0  1  0  0  0  0  0999 V2000
   47.8590   32.8960   41.8440 C   0  0  1  0  0  0  0  0  0  0  0  0
   47.5440   32.2940   40.5480 C   0  0  0  0  0  0  0  0  0  0  0  0
   48.5890   32.8390   39.5720 C   0  0  0  0  0  0  0  0  0  0  0  0
   48.2500   34.3080   39.3680 C   0  0  0  0  0  0  0  0  0  0  0  0
   48.1920   35.0950   40.6420 C   0  0  0  0  0  0  0  0  0  0  0  0
   47.6650   34.4160   41.8340 C   0  0  1  0  0  0  0  0  0  0  0  0
   48.9760   32.8040   42.0190 H   0  0  0  0  0  0  0  0  0  0  0  0
   47.7020   31.2020   40.5970 H   0  0  0  0  0  0  0  0  0  0  0  0
   46.5440   32.5460   40.1410 H   0  0  0  0  0  0  0  0  0  0  0  0
   49.5830   32.8130   40.0680 H   0  0  0  0  0  0  0  0  0  0  0  0
   48.5500   32.3520   38.5990 H   0  0  0  0  0  0  0  0  0  0  0  0
   47.2210   34.3310   38.9430 H   0  0  0  0  0  0  0  0  0  0  0  0
   48.9310   34.8030   38.6700 H   0  0  0  0  0  0  0  0  0  0  0  0
   49.2200   35.4880   40.8270 H   0  0  0  0  0  0  0  0  0  0  0  0
   47.5850   36.0120   40.4230 H   0  0  0  0  0  0  0  0  0  0  0  0
   48.2460   34.7710   42.7390 H   0  0  0  0  0  0  0  0  0  0  0  0
   45.4180   30.8990   43.9260 C   0  0  0  0  0  0  0  0  0  0  0  0
   46.1140   31.4740   42.8600 C   0  0  0  0  0  0  0  0  0  0  0  0
   47.2010   32.3390   43.0070 C   0  0  0  0  0  0  0  0  0  0  0  0
   47.5560   32.5990   44.2650 N   0  0  0  0  0  0  0  0  0  0  0  0
   46.8960   32.0540   45.3220 C   0  0  0  0  0  0  0  0  0  0  0  0
   45.8610   31.2300   45.1710 N   0  0  0  0  0  0  0  0  0  0  0  0
   44.5930   30.2460   43.6780 H   0  0  0  0  0  0  0  0  0  0  0  0
   45.8140   31.2500   41.8450 H   0  0  0  0  0  0  0  0  0  0  0  0
   47.1500   32.2370   46.3500 H   0  0  0  0  0  0  0  0  0  0  0  0
   46.2840   34.7890   42.1370 C   0  0  0  0  0  0  0  0  0  0  0  0
   45.8440   35.4040   43.3210 C   0  0  0  0  0  0  0  0  0  0  0  0
   44.4820   35.6820   43.3860 C   0  0  0  0  0  0  0  0  0  0  0  0
   43.6900   35.3420   42.3070 C   0  0  0  0  0  0  0  0  0  0  0  0
   44.1430   34.7360   41.1460 C   0  0  0  0  0  0  0  0  0  0  0  0
   45.4850   34.4660   41.0940 N   0  0  0  0  0  0  0  0  0  0  0  0
   46.5740   35.6020   44.0590 H   0  0  0  0  0  0  0  0  0  0  0  0
   44.1220   36.1500   44.2760 H   0  0  0  0  0  0  0  0  0  0  0  0
   42.6270   35.5610   42.3620 H   0  0  0  0  0  0  0  0  0  0  0  0
   43.2300   34.4190   40.0540 C   0  0  0  0  0  0  0  0  0  0  0  0
   42.5510   35.3740   39.5730 O   0  0  0  0  0  0  0  0  0  0  0  0
   42.5120   32.0970   40.2070 C   0  0  0  0  0  3  0  0  0  0  0  0
   42.9780   33.1300   39.4200 C   0  0  0  0  0  0  0  0  0  0  0  0
   43.1790   32.8770   38.0790 C   0  0  0  0  0  0  0  0  0  0  0  0
   43.5430   33.7070   37.5130 H   0  0  0  0  0  0  0  0  0  0  0  0
   42.9430   31.6600   37.4730 C   0  0  0  0  0  0  0  0  0  0  0  0
   43.0570   31.1760   36.2240 N   0  0  0  0  0  0  0  0  0  0  0  0
   43.3880   31.7260   35.4000 H   0  0  0  0  0  0  0  0  0  0  0  0
   42.6700   29.8700   36.2250 C   0  0  0  0  0  0  0  0  0  0  0  0
   42.6420   29.1800   35.3710 H   0  0  0  0  0  0  0  0  0  0  0  0
   42.2960   29.4990   37.5180 C   0  0  0  0  0  3  0  0  0  0  0  0
   42.4760   30.6450   38.2890 C   0  0  0  0  0  0  0  0  0  0  0  0
   42.2570   30.8420   39.6360 C   0  0  0  0  0  3  0  0  0  0  0  0
  1  7  1  1  0  0  0
  1 19  1  0  0  0  0
  2  8  1  0  0  0  0
  2  1  1  0  0  0  0
  3 10  1  0  0  0  0
  3  2  1  0  0  0  0
  4  3  1  0  0  0  0
  4  5  1  0  0  0  0
  5 14  1  0  0  0  0
  5  6  1  0  0  0  0
  6  1  1  0  0  0  0
  6 26  1  0  0  0  0
  6 16  1  1  0  0  0
  9  2  1  0  0  0  0
 11  3  1  0  0  0  0
 12  4  1  0  0  0  0
 13  4  1  0  0  0  0
 15  5  1  0  0  0  0
 17 22  1  0  0  0  0
 18 19  1  0  0  0  0
 18 17  2  0  0  0  0
 19 20  2  0  0  0  0
 20 21  1  0  0  0  0
 21 25  1  0  0  0  0
 22 21  2  0  0  0  0
 23 17  1  0  0  0  0
 24 18  1  0  0  0  0
 26 27  1  0  0  0  0
 27 28  2  0  0  0  0
 27 32  1  0  0  0  0
 28 33  1  0  0  0  0
 29 34  1  0  0  0  0
 29 28  1  0  0  0  0
 30 29  2  0  0  0  0
 31 30  1  0  0  0  0
 31 26  2  0  0  0  0
 35 30  1  0  0  0  0
 36 35  2  0  0  0  0
 38 35  1  0  0  0  0
 38 37  2  0  0  0  0
 39 38  1  0  0  0  0
 40 39  1  0  0  0  0
 41 39  2  0  0  0  0
 41 47  1  0  0  0  0
 42 44  1  0  0  0  0
 42 41  1  0  0  0  0
 43 42  1  0  0  0  0
 44 46  2  0  0  0  0
 45 44  1  0  0  0  0
 46 47  1  0  0  0  0
 47 48  2  0  0  0  0
 48 37  1  0  0  0  0
M  END
>  <minimizedAffinity>
-5.59965754

>  <minimizedRMSD>
0.534707189

$$$$
