REMARK  Name = 
REMARK  4 active torsions:
REMARK  status: ('A' for Active; 'I' for Inactive)
REMARK    1  A    between atoms: C_1  and  C_9
REMARK    2  A    between atoms: C_6  and  C_13
REMARK    3  A    between atoms: C_17  and  C_19
REMARK    4  A    between atoms: C_19  and  C_38
REMARK                            x       y       z     vdW  Elec       q    Type
REMARK                         _______ _______ _______ _____ _____    ______ ____
ROOT
ATOM      1  C   UNL     1      47.872  32.918  41.819  0.00  0.00    +0.000 C 
ATOM      2  C   UNL     1      47.569  32.179  40.593  0.00  0.00    +0.000 C 
ATOM      3  C   UNL     1      48.605  32.637  39.564  0.00  0.00    +0.000 C 
ATOM      4  C   UNL     1      48.240  34.071  39.209  0.00  0.00    +0.000 C 
ATOM      5  C   UNL     1      48.168  34.985  40.394  0.00  0.00    +0.000 C 
ATOM      6  C   UNL     1      47.652  34.425  41.651  0.00  0.00    +0.000 C 
ATOM      7  H   UNL     1      48.990  32.864  42.001  0.00  0.00    +0.000 HD
ATOM      8  H   UNL     1      47.745  31.101  40.755  0.00  0.00    +0.000 HD
ATOM      9  H   UNL     1      46.565  32.370  40.163  0.00  0.00    +0.000 HD
ATOM     10  H   UNL     1      49.599  32.681  40.059  0.00  0.00    +0.000 HD
ATOM     11  H   UNL     1      48.575  32.051  38.647  0.00  0.00    +0.000 HD
ATOM     12  H   UNL     1      47.212  34.032  38.785  0.00  0.00    +0.000 HD
ATOM     13  H   UNL     1      48.913  34.503  38.462  0.00  0.00    +0.000 HD
ATOM     14  H   UNL     1      49.189  35.413  40.536  0.00  0.00    +0.000 HD
ATOM     15  H   UNL     1      47.545  35.864  40.081  0.00  0.00    +0.000 HD
ATOM     16  H   UNL     1      48.226  34.882  42.513  0.00  0.00    +0.000 HD
ENDROOT
BRANCH   1  19
ATOM     17  C   UNL     1      45.473  31.096  44.101  0.00  0.00    +0.000 A 
ATOM     18  C   UNL     1      46.159  31.570  42.980  0.00  0.00    +0.000 A 
ATOM     19  C   UNL     1      47.223  32.474  43.034  0.00  0.00    +0.000 A 
ATOM     20  N   UNL     1      47.564  32.879  44.257  0.00  0.00    +0.000 NA
ATOM     21  C   UNL     1      46.914  32.435  45.366  0.00  0.00    +0.000 A 
ATOM     22  N   UNL     1      45.901  31.572  45.303  0.00  0.00    +0.000 NA
ATOM     23  H   UNL     1      44.667  30.398  43.923  0.00  0.00    +0.000 HD
ATOM     24  H   UNL     1      45.870  31.229  41.995  0.00  0.00    +0.000 HD
ATOM     25  H   UNL     1      47.157  32.735  46.368  0.00  0.00    +0.000 HD
ENDBRANCH   1  19
BRANCH   6  26
ATOM     26  C   UNL     1      46.264  34.804  41.915  0.00  0.00    +0.000 A 
ATOM     27  C   UNL     1      45.807  35.497  43.048  0.00  0.00    +0.000 A 
ATOM     28  C   UNL     1      44.442  35.764  43.081  0.00  0.00    +0.000 A 
ATOM     29  C   UNL     1      43.663  35.339  42.023  0.00  0.00    +0.000 A 
ATOM     30  C   UNL     1      44.133  34.656  40.912  0.00  0.00    +0.000 A 
ATOM     31  N   UNL     1      45.478  34.398  40.891  0.00  0.00    +0.000 NA
ATOM     32  H   UNL     1      46.528  35.755  43.776  0.00  0.00    +0.000 HD
ATOM     33  H   UNL     1      44.068  36.290  43.932  0.00  0.00    +0.000 HD
ATOM     34  H   UNL     1      42.597  35.550  42.053  0.00  0.00    +0.000 HD
BRANCH  30  35
ATOM     35  C   UNL     1      43.233  34.252  39.838  0.00  0.00    +0.000 C 
ATOM     36  O   UNL     1      42.367  35.096  39.461  0.00  0.00    +0.000 OA
BRANCH  35  38
ATOM     37  C   UNL     1      43.036  31.825  39.848  0.00  0.00    +0.000 A 
ATOM     38  C   UNL     1      43.184  32.986  39.117  0.00  0.00    +0.000 A 
ATOM     39  C   UNL     1      43.277  32.873  37.745  0.00  0.00    +0.000 A 
ATOM     40  H   UNL     1      43.392  33.799  37.224  0.00  0.00    +0.000 HD
ATOM     41  C   UNL     1      43.231  31.679  37.057  0.00  0.00    +0.000 A 
ATOM     42  N   UNL     1      43.298  31.317  35.763  0.00  0.00    +0.000 N 
ATOM     43  H   UNL     1      43.410  31.981  34.965  0.00  0.00    +0.000 HD
ATOM     44  C   UNL     1      43.195  29.962  35.683  0.00  0.00    +0.000 A 
ATOM     45  H   UNL     1      43.212  29.343  34.778  0.00  0.00    +0.000 HD
ATOM     46  C   UNL     1      43.057  29.431  36.968  0.00  0.00    +0.000 A 
ATOM     47  C   UNL     1      43.083  30.534  37.819  0.00  0.00    +0.000 A 
ATOM     48  C   UNL     1      42.985  30.587  39.194  0.00  0.00    +0.000 A 
ENDBRANCH  35  38
ENDBRANCH  30  35
ENDBRANCH   6  26
TORSDOF 4
