
 OpenBabel03242516523D

 48 52  0  0  1  0  0  0  0  0999 V2000
   47.7890   32.7520   41.6330 C   0  0  1  0  0  0  0  0  0  0  0  0
   47.4080   32.1550   40.3520 C   0  0  0  0  0  0  0  0  0  0  0  0
   48.4340   32.6600   39.3360 C   0  0  0  0  0  0  0  0  0  0  0  0
   48.1360   34.1390   39.1370 C   0  0  0  0  0  0  0  0  0  0  0  0
   48.1520   34.9330   40.4070 C   0  0  0  0  0  0  0  0  0  0  0  0
   47.6460   34.2770   41.6210 C   0  0  1  0  0  0  0  0  0  0  0  0
   48.9070   32.6230   41.7670 H   0  0  0  0  0  0  0  0  0  0  0  0
   47.5300   31.0590   40.4010 H   0  0  0  0  0  0  0  0  0  0  0  0
   46.4020   32.4390   39.9800 H   0  0  0  0  0  0  0  0  0  0  0  0
   49.4440   32.6040   39.7960 H   0  0  0  0  0  0  0  0  0  0  0  0
   48.3430   32.1710   38.3670 H   0  0  0  0  0  0  0  0  0  0  0  0
   47.0950   34.1950   38.7490 H   0  0  0  0  0  0  0  0  0  0  0  0
   48.8080   34.6090   38.4110 H   0  0  0  0  0  0  0  0  0  0  0  0
   49.1980   35.2920   40.5530 H   0  0  0  0  0  0  0  0  0  0  0  0
   47.5680   35.8690   40.2050 H   0  0  0  0  0  0  0  0  0  0  0  0
   48.2710   34.6160   42.5020 H   0  0  0  0  0  0  0  0  0  0  0  0
   45.3190   30.9030   43.8160 C   0  0  0  0  0  0  0  0  0  0  0  0
   45.9980   31.4460   42.7220 C   0  0  0  0  0  0  0  0  0  0  0  0
   47.1550   32.2220   42.8210 C   0  0  0  0  0  0  0  0  0  0  0  0
   47.5970   32.4280   44.0620 N   0  0  0  0  0  0  0  0  0  0  0  0
   46.9580   31.9130   45.1450 C   0  0  0  0  0  0  0  0  0  0  0  0
   45.8550   31.1730   45.0390 N   0  0  0  0  0  0  0  0  0  0  0  0
   44.4350   30.3200   43.6040 H   0  0  0  0  0  0  0  0  0  0  0  0
   45.6260   31.2670   41.7220 H   0  0  0  0  0  0  0  0  0  0  0  0
   47.2800   32.0540   46.1600 H   0  0  0  0  0  0  0  0  0  0  0  0
   46.2890   34.6980   41.9720 C   0  0  0  0  0  0  0  0  0  0  0  0
   45.9040   35.2820   43.1900 C   0  0  0  0  0  0  0  0  0  0  0  0
   44.5580   35.6170   43.2980 C   0  0  0  0  0  0  0  0  0  0  0  0
   43.7270   35.3570   42.2260 C   0  0  0  0  0  0  0  0  0  0  0  0
   44.1270   34.7790   41.0300 C   0  0  0  0  0  0  0  0  0  0  0  0
   45.4540   34.4530   40.9360 N   0  0  0  0  0  0  0  0  0  0  0  0
   46.6580   35.4180   43.9170 H   0  0  0  0  0  0  0  0  0  0  0  0
   44.2370   36.0630   44.2140 H   0  0  0  0  0  0  0  0  0  0  0  0
   42.6760   35.6200   42.3140 H   0  0  0  0  0  0  0  0  0  0  0  0
   43.1760   34.5480   39.9490 C   0  0  0  0  0  0  0  0  0  0  0  0
   42.2470   35.3960   39.8040 O   0  0  0  0  0  0  0  0  0  0  0  0
   44.3060   33.1250   38.3270 C   0  0  0  0  0  3  0  0  0  0  0  0
   43.1390   33.4540   38.9860 C   0  0  0  0  0  0  0  0  0  0  0  0
   42.0070   32.7240   38.6880 C   0  0  0  0  0  0  0  0  0  0  0  0
   41.1290   33.0170   39.2230 H   0  0  0  0  0  0  0  0  0  0  0  0
   41.9640   31.6890   37.7780 C   0  0  0  0  0  0  0  0  0  0  0  0
   41.0160   30.8500   37.3260 N   0  0  0  0  0  0  0  0  0  0  0  0
   40.0200   30.8520   37.6420 H   0  0  0  0  0  0  0  0  0  0  0  0
   41.5730   30.0140   36.4070 C   0  0  0  0  0  0  0  0  0  0  0  0
   41.0770   29.2120   35.8470 H   0  0  0  0  0  0  0  0  0  0  0  0
   42.9270   30.3240   36.2590 C   0  0  0  0  0  3  0  0  0  0  0  0
   43.1520   31.3850   37.1350 C   0  0  0  0  0  0  0  0  0  0  0  0
   44.3140   32.0810   37.3930 C   0  0  0  0  0  3  0  0  0  0  0  0
  1  7  1  1  0  0  0
  1 19  1  0  0  0  0
  2  8  1  0  0  0  0
  2  1  1  0  0  0  0
  3 10  1  0  0  0  0
  3  2  1  0  0  0  0
  4  3  1  0  0  0  0
  4  5  1  0  0  0  0
  5 14  1  0  0  0  0
  5  6  1  0  0  0  0
  6  1  1  0  0  0  0
  6 26  1  0  0  0  0
  6 16  1  1  0  0  0
  9  2  1  0  0  0  0
 11  3  1  0  0  0  0
 12  4  1  0  0  0  0
 13  4  1  0  0  0  0
 15  5  1  0  0  0  0
 17 22  1  0  0  0  0
 18 19  1  0  0  0  0
 18 17  2  0  0  0  0
 19 20  2  0  0  0  0
 20 21  1  0  0  0  0
 21 25  1  0  0  0  0
 22 21  2  0  0  0  0
 23 17  1  0  0  0  0
 24 18  1  0  0  0  0
 26 27  1  0  0  0  0
 27 28  2  0  0  0  0
 27 32  1  0  0  0  0
 28 33  1  0  0  0  0
 29 34  1  0  0  0  0
 29 28  1  0  0  0  0
 30 29  2  0  0  0  0
 31 30  1  0  0  0  0
 31 26  2  0  0  0  0
 35 30  1  0  0  0  0
 36 35  2  0  0  0  0
 37 38  1  0  0  0  0
 38 35  1  0  0  0  0
 39 38  2  0  0  0  0
 39 40  1  0  0  0  0
 41 39  1  0  0  0  0
 42 43  1  0  0  0  0
 42 41  1  0  0  0  0
 44 42  1  0  0  0  0
 45 44  1  0  0  0  0
 46 44  2  0  0  0  0
 46 47  1  0  0  0  0
 47 48  1  0  0  0  0
 47 41  2  0  0  0  0
 48 37  2  0  0  0  0
M  END
>  <minimizedAffinity>
-5.86359978

>  <minimizedRMSD>
0.643932343

$$$$
