
 OpenBabel03242516523D

 48 52  0  0  1  0  0  0  0  0999 V2000
   47.7710   32.7490   41.6310 C   0  0  1  0  0  0  0  0  0  0  0  0
   47.3820   32.1450   40.3570 C   0  0  0  0  0  0  0  0  0  0  0  0
   48.4010   32.6470   39.3300 C   0  0  0  0  0  0  0  0  0  0  0  0
   48.0980   34.1240   39.1250 C   0  0  0  0  0  0  0  0  0  0  0  0
   48.1210   34.9250   40.3920 C   0  0  0  0  0  0  0  0  0  0  0  0
   47.6250   34.2740   41.6130 C   0  0  1  0  0  0  0  0  0  0  0  0
   48.8910   32.6240   41.7590 H   0  0  0  0  0  0  0  0  0  0  0  0
   47.5070   31.0490   40.4110 H   0  0  0  0  0  0  0  0  0  0  0  0
   46.3740   32.4250   39.9900 H   0  0  0  0  0  0  0  0  0  0  0  0
   49.4140   32.5950   39.7830 H   0  0  0  0  0  0  0  0  0  0  0  0
   48.3040   32.1530   38.3650 H   0  0  0  0  0  0  0  0  0  0  0  0
   47.0540   34.1760   38.7450 H   0  0  0  0  0  0  0  0  0  0  0  0
   48.7640   34.5920   38.3930 H   0  0  0  0  0  0  0  0  0  0  0  0
   49.1680   35.2870   40.5280 H   0  0  0  0  0  0  0  0  0  0  0  0
   47.5340   35.8590   40.1890 H   0  0  0  0  0  0  0  0  0  0  0  0
   48.2550   34.6190   42.4880 H   0  0  0  0  0  0  0  0  0  0  0  0
   45.3280   30.8980   43.8410 C   0  0  0  0  0  0  0  0  0  0  0  0
   45.9970   31.4370   42.7390 C   0  0  0  0  0  0  0  0  0  0  0  0
   47.1470   32.2250   42.8270 C   0  0  0  0  0  0  0  0  0  0  0  0
   47.5920   32.4460   44.0640 N   0  0  0  0  0  0  0  0  0  0  0  0
   46.9620   31.9350   45.1550 C   0  0  0  0  0  0  0  0  0  0  0  0
   45.8650   31.1840   45.0590 N   0  0  0  0  0  0  0  0  0  0  0  0
   44.4480   30.3040   43.6370 H   0  0  0  0  0  0  0  0  0  0  0  0
   45.6230   31.2450   41.7430 H   0  0  0  0  0  0  0  0  0  0  0  0
   47.2870   32.0880   46.1660 H   0  0  0  0  0  0  0  0  0  0  0  0
   46.2700   34.6940   41.9710 C   0  0  0  0  0  0  0  0  0  0  0  0
   45.8970   35.3100   43.1770 C   0  0  0  0  0  0  0  0  0  0  0  0
   44.5500   35.6370   43.2950 C   0  0  0  0  0  0  0  0  0  0  0  0
   43.7070   35.3400   42.2430 C   0  0  0  0  0  0  0  0  0  0  0  0
   44.0940   34.7320   41.0590 C   0  0  0  0  0  0  0  0  0  0  0  0
   45.4220   34.4140   40.9540 N   0  0  0  0  0  0  0  0  0  0  0  0
   46.6600   35.4710   43.8900 H   0  0  0  0  0  0  0  0  0  0  0  0
   44.2390   36.1060   44.2030 H   0  0  0  0  0  0  0  0  0  0  0  0
   42.6550   35.5970   42.3390 H   0  0  0  0  0  0  0  0  0  0  0  0
   43.1310   34.4630   39.9980 C   0  0  0  0  0  0  0  0  0  0  0  0
   42.6990   35.4570   39.3420 O   0  0  0  0  0  0  0  0  0  0  0  0
   41.7630   33.1650   38.4580 C   0  0  0  0  0  3  0  0  0  0  0  0
   42.5780   33.1830   39.5710 C   0  0  0  0  0  0  0  0  0  0  0  0
   42.8170   31.9850   40.2120 C   0  0  0  0  0  0  0  0  0  0  0  0
   43.4510   32.0510   41.0680 H   0  0  0  0  0  0  0  0  0  0  0  0
   42.2950   30.7710   39.8130 C   0  0  0  0  0  0  0  0  0  0  0  0
   42.3770   29.5040   40.2550 N   0  0  0  0  0  0  0  0  0  0  0  0
   42.9270   29.1980   41.0890 H   0  0  0  0  0  0  0  0  0  0  0  0
   41.6320   28.7080   39.4390 C   0  0  0  0  0  0  0  0  0  0  0  0
   41.4830   27.6240   39.5170 H   0  0  0  0  0  0  0  0  0  0  0  0
   41.0500   29.4880   38.4370 C   0  0  0  0  0  3  0  0  0  0  0  0
   41.4840   30.7880   38.6930 C   0  0  0  0  0  0  0  0  0  0  0  0
   41.2100   31.9570   38.0140 C   0  0  0  0  0  3  0  0  0  0  0  0
  1  7  1  1  0  0  0
  1 19  1  0  0  0  0
  2  8  1  0  0  0  0
  2  1  1  0  0  0  0
  3 10  1  0  0  0  0
  3  2  1  0  0  0  0
  4  3  1  0  0  0  0
  4  5  1  0  0  0  0
  5 14  1  0  0  0  0
  5  6  1  0  0  0  0
  6  1  1  0  0  0  0
  6 26  1  0  0  0  0
  6 16  1  1  0  0  0
  9  2  1  0  0  0  0
 11  3  1  0  0  0  0
 12  4  1  0  0  0  0
 13  4  1  0  0  0  0
 15  5  1  0  0  0  0
 17 22  1  0  0  0  0
 18 19  1  0  0  0  0
 18 17  2  0  0  0  0
 19 20  2  0  0  0  0
 20 21  1  0  0  0  0
 21 25  1  0  0  0  0
 22 21  2  0  0  0  0
 23 17  1  0  0  0  0
 24 18  1  0  0  0  0
 26 27  1  0  0  0  0
 27 28  2  0  0  0  0
 27 32  1  0  0  0  0
 28 33  1  0  0  0  0
 29 34  1  0  0  0  0
 29 28  1  0  0  0  0
 30 29  2  0  0  0  0
 31 30  1  0  0  0  0
 31 26  2  0  0  0  0
 35 30  1  0  0  0  0
 36 35  2  0  0  0  0
 37 38  1  0  0  0  0
 38 35  1  0  0  0  0
 38 39  2  0  0  0  0
 39 40  1  0  0  0  0
 41 39  1  0  0  0  0
 41 42  1  0  0  0  0
 42 43  1  0  0  0  0
 44 45  1  0  0  0  0
 44 42  1  0  0  0  0
 46 47  1  0  0  0  0
 46 44  2  0  0  0  0
 47 41  2  0  0  0  0
 48 37  2  0  0  0  0
 48 47  1  0  0  0  0
M  END
>  <minimizedAffinity>
-5.45427847

>  <minimizedRMSD>
0.993624926

$$$$
