
     RDKit          3D

 51 55  0  0  0  0  0  0  0  0999 V2000
   47.8723   32.9179   41.8189 C   0  0  1  0  0  0  0  0  0  0  0  0
   47.5693   32.1794   40.5930 C   0  0  0  0  0  0  0  0  0  0  0  0
   48.6048   32.6371   39.5637 C   0  0  0  0  0  0  0  0  0  0  0  0
   48.2400   34.0706   39.2086 C   0  0  0  0  0  0  0  0  0  0  0  0
   48.1678   34.9848   40.3944 C   0  0  0  0  0  0  0  0  0  0  0  0
   47.6519   34.4249   41.6509 C   0  0  1  0  0  0  0  0  0  0  0  0
   45.4728   31.0961   44.1014 C   0  0  0  0  0  0  0  0  0  0  0  0
   46.1591   31.5696   42.9801 C   0  0  0  0  0  0  0  0  0  0  0  0
   47.2228   32.4736   43.0337 C   0  0  0  0  0  0  0  0  0  0  0  0
   47.5640   32.8785   44.2574 N   0  0  0  0  0  0  0  0  0  0  0  0
   46.9141   32.4347   45.3657 C   0  0  0  0  0  0  0  0  0  0  0  0
   45.9010   31.5724   45.3032 N   0  0  0  0  0  0  0  0  0  0  0  0
   46.2643   34.8039   41.9146 C   0  0  0  0  0  0  0  0  0  0  0  0
   45.8075   35.4966   43.0485 C   0  0  0  0  0  0  0  0  0  0  0  0
   44.4418   35.7644   43.0813 C   0  0  0  0  0  0  0  0  0  0  0  0
   43.6631   35.3386   42.0227 C   0  0  0  0  0  0  0  0  0  0  0  0
   44.1335   34.6560   40.9124 C   0  0  0  0  0  0  0  0  0  0  0  0
   45.4778   34.3979   40.8907 N   0  0  0  0  0  0  0  0  0  0  0  0
   43.2335   34.2516   39.8382 C   0  0  0  0  0  0  0  0  0  0  0  0
   42.3667   35.0965   39.4606 O   0  0  0  0  0  0  0  0  0  0  0  0
   48.9900   32.8637   42.0012 H   0  0  0  0  0  0  0  0  0  0  0  0
   47.7446   31.1010   40.7553 H   0  0  0  0  0  0  0  0  0  0  0  0
   46.5653   32.3697   40.1628 H   0  0  0  0  0  0  0  0  0  0  0  0
   49.5985   32.6813   40.0585 H   0  0  0  0  0  0  0  0  0  0  0  0
   48.5755   32.0509   38.6467 H   0  0  0  0  0  0  0  0  0  0  0  0
   47.2123   34.0318   38.7845 H   0  0  0  0  0  0  0  0  0  0  0  0
   48.9135   34.5034   38.4624 H   0  0  0  0  0  0  0  0  0  0  0  0
   49.1890   35.4126   40.5361 H   0  0  0  0  0  0  0  0  0  0  0  0
   47.5452   35.8637   40.0815 H   0  0  0  0  0  0  0  0  0  0  0  0
   48.2262   34.8819   42.5126 H   0  0  0  0  0  0  0  0  0  0  0  0
   44.6666   30.3976   43.9227 H   0  0  0  0  0  0  0  0  0  0  0  0
   45.8703   31.2290   41.9955 H   0  0  0  0  0  0  0  0  0  0  0  0
   47.1565   32.7350   46.3678 H   0  0  0  0  0  0  0  0  0  0  0  0
   46.5284   35.7551   43.7757 H   0  0  0  0  0  0  0  0  0  0  0  0
   44.0683   36.2899   43.9325 H   0  0  0  0  0  0  0  0  0  0  0  0
   42.5968   35.5503   42.0530 H   0  0  0  0  0  0  0  0  0  0  0  0
   42.1779   32.8028   38.1908 C   0  0  0  0  0  0  0  0  0  0  0  0
   43.1842   32.9862   39.1170 C   0  0  0  0  0  0  0  0  0  0  0  0
   44.0822   31.9547   39.3016 C   0  0  0  0  0  0  0  0  0  0  0  0
   44.8411   32.1438   40.0297 H   0  0  0  0  0  0  0  0  0  0  0  0
   44.0405   30.7550   38.6229 C   0  0  0  0  0  0  0  0  0  0  0  0
   44.7764   29.6293   38.6235 N   0  0  0  0  0  0  0  0  0  0  0  0
   45.6146   29.4669   39.2250 H   0  0  0  0  0  0  0  0  0  0  0  0
   44.2456   28.7599   37.7198 C   0  0  0  0  0  0  0  0  0  0  0  0
   44.6027   27.7528   37.4723 H   0  0  0  0  0  0  0  0  0  0  0  0
   43.1297   29.3439   37.1159 C   0  0  0  0  0  0  0  0  0  0  0  0
   43.0193   30.6034   37.7017 C   0  0  0  0  0  0  0  0  0  0  0  0
   42.0938   31.6007   37.4762 C   0  0  0  0  0  0  0  0  0  0  0  0
   41.4212   33.5530   37.9715 H   0  0  0  0  0  0  0  0  0  0  0  0
   42.4943   28.8858   36.3473 H   0  0  0  0  0  0  0  0  0  0  0  0
   41.3153   31.4465   36.7533 H   0  0  0  0  0  0  0  0  0  0  0  0
  1  9  1  0
  2  1  1  0
  3  2  1  0
  4  3  1  0
  4  5  1  0
  5  6  1  0
  6  1  1  0
  6 13  1  0
  7 12  2  0
  8  9  2  0
  8  7  1  0
  9 10  1  0
 10 11  2  0
 12 11  1  0
 13 14  2  0
 14 15  1  0
 16 15  2  0
 17 16  1  0
 18 17  2  0
 18 13  1  0
 19 17  1  0
 20 19  2  0
  1 21  1  1
  2 22  1  0
  2 23  1  0
  3 24  1  0
  3 25  1  0
  4 26  1  0
  4 27  1  0
  5 28  1  0
  5 29  1  0
  6 30  1  1
  7 31  1  0
  8 32  1  0
 11 33  1  0
 14 34  1  0
 15 35  1  0
 16 36  1  0
 37 38  2  0
 38 39  1  0
 39 40  1  0
 39 41  2  0
 41 42  1  0
 42 43  1  0
 42 44  1  0
 44 45  1  0
 44 46  2  0
 46 47  1  0
 47 48  2  0
 48 37  1  0
 47 41  1  0
 37 49  1  0
 46 50  1  0
 48 51  1  0
 19 38  1  0
M  ISO  8  21  13  22  13  23  13  24  13  25  13  26  13  27  13  28  13
M  ISO  8  29  13  30  13  31  14  32  14  33  14  34  14  35  14  36  14
M  ISO  3  40  15  43   5  45  14
M  END
>  <DihAtoms>  (1) 
16,18,37,36

>  <DihDeg>  (1) 
-154.1935199634618

$$$$
