
 OpenBabel03252504343D

 43 46  0  0  0  0  0  0  0  0999 V2000
   38.2630   34.3040   40.1480 C   0  0  0  0  0  0  0  0  0  0  0  0
   37.2320   34.6960   40.3940 H   0  0  0  0  0  0  0  0  0  0  0  0
   38.2910   34.2840   39.0380 H   0  0  0  0  0  0  0  0  0  0  0  0
   37.0360   32.1850   40.1290 C   0  0  0  0  0  0  0  0  0  0  0  0
   38.1900   32.8700   40.5840 C   0  0  0  0  0  0  0  0  0  0  0  0
   39.0750   32.1760   41.3350 C   0  0  0  0  0  0  0  0  0  0  0  0
   38.7950   30.9070   41.5860 N   0  0  0  0  0  0  0  0  0  0  0  0
   37.7230   30.2530   41.1680 C   0  0  0  0  0  0  0  0  0  0  0  0
   36.7670   30.9020   40.3900 N   0  0  0  0  0  0  0  0  0  0  0  0
   36.2780   32.6640   39.5240 H   0  0  0  0  0  0  0  0  0  0  0  0
   39.9390   32.7400   41.6590 H   0  0  0  0  0  0  0  0  0  0  0  0
   37.3160   28.5110   42.8120 C   0  0  0  0  0  3  0  0  0  0  0  0
   37.4800   28.8520   41.4850 C   0  0  0  0  0  0  0  0  0  0  0  0
   37.4120   27.8860   40.5030 C   0  0  0  0  0  0  0  0  0  0  0  0
   37.5370   28.1390   39.4760 H   0  0  0  0  0  0  0  0  0  0  0  0
   37.1780   26.5730   40.8950 C   0  0  0  0  0  0  0  0  0  0  0  0
   37.0760   25.4770   40.0860 N   0  0  0  0  0  0  0  0  0  0  0  0
   37.1570   25.4430   39.0500 H   0  0  0  0  0  0  0  0  0  0  0  0
   36.8430   24.4320   40.9320 C   0  0  0  0  0  0  0  0  0  0  0  0
   36.7050   23.3850   40.6430 H   0  0  0  0  0  0  0  0  0  0  0  0
   36.8000   24.8620   42.2430 C   0  0  0  0  0  3  0  0  0  0  0  0
   37.0130   26.2260   42.2270 C   0  0  0  0  0  0  0  0  0  0  0  0
   37.0820   27.2060   43.2040 C   0  0  0  0  0  3  0  0  0  0  0  0
   39.3220   34.9690   40.6640 O   0  0  0  0  0  0  0  0  0  0  0  0
   40.5300   35.2720   40.0590 C   0  0  0  0  0  3  0  0  0  0  0  0
   41.4760   34.3450   40.1500 C   0  0  0  0  0  3  0  0  0  0  0  0
   42.8710   34.4600   39.5620 C   0  0  0  0  0  0  0  0  0  0  0  0
   42.8450   35.1870   38.7200 H   0  0  0  0  0  0  0  0  0  0  0  0
   43.5830   34.8160   40.3200 H   0  0  0  0  0  0  0  0  0  0  0  0
   43.2200   33.2130   39.0920 O   0  0  0  0  0  0  0  0  0  0  0  0
   41.1420   32.6040   37.5410 O   0  0  0  0  0  0  0  0  0  0  0  0
   42.6070   32.9660   37.5390 P   0  0  1  0  0  0  0  0  0  0  0  0
   42.7570   34.3940   36.6180 O   0  0  0  0  0  0  0  0  0  0  0  0
   42.7460   34.1480   35.6570 H   0  0  0  0  0  0  0  0  0  0  0  0
   43.5000   31.7730   36.7480 O   0  0  0  0  0  0  0  0  0  0  0  0
   42.7130   30.7120   36.3450 C   0  0  0  0  0  0  0  0  0  0  0  0
   43.1330   29.3220   36.7070 C   0  0  0  0  0  0  0  0  0  0  0  0
   43.3320   29.8150   35.2960 C   0  0  0  0  0  0  0  0  0  0  0  0
   41.6120   30.8420   36.3560 H   0  0  0  0  0  0  0  0  0  0  0  0
   42.3830   28.5350   36.9160 H   0  0  0  0  0  0  0  0  0  0  0  0
   44.0770   29.2680   37.2910 H   0  0  0  0  0  0  0  0  0  0  0  0
   42.6330   29.3740   34.5430 H   0  0  0  0  0  0  0  0  0  0  0  0
   44.3420   30.0420   34.9260 H   0  0  0  0  0  0  0  0  0  0  0  0
  1  2  1  0  0  0  0
  1  5  1  0  0  0  0
  1 24  1  0  0  0  0
  3  1  1  0  0  0  0
  4  9  2  0  0  0  0
  4  5  1  0  0  0  0
  5  6  2  0  0  0  0
  6  7  1  0  0  0  0
  6 11  1  0  0  0  0
  8 13  1  0  0  0  0
  8  7  2  0  0  0  0
  9  8  1  0  0  0  0
 10  4  1  0  0  0  0
 12 23  1  0  0  0  0
 13 12  2  0  0  0  0
 14 16  2  0  0  0  0
 14 13  1  0  0  0  0
 15 14  1  0  0  0  0
 16 22  1  0  0  0  0
 17 16  1  0  0  0  0
 17 19  1  0  0  0  0
 18 17  1  0  0  0  0
 19 21  2  0  0  0  0
 20 19  1  0  0  0  0
 22 21  1  0  0  0  0
 22 23  2  0  0  0  0
 25 26  2  0  0  0  0
 25 24  1  0  0  0  0
 27 26  1  0  0  0  0
 27 29  1  0  0  0  0
 28 27  1  0  0  0  0
 30 27  1  0  0  0  0
 32 31  2  1  0  0  0
 32 30  1  0  0  0  0
 33 32  1  0  0  0  0
 34 33  1  0  0  0  0
 35 32  1  0  0  0  0
 36 39  1  0  0  0  0
 36 37  1  0  0  0  0
 36 35  1  0  0  0  0
 37 40  1  0  0  0  0
 37 41  1  0  0  0  0
 38 36  1  0  0  0  0
 38 37  1  0  0  0  0
 42 38  1  0  0  0  0
 43 38  1  0  0  0  0
M  END
>  <minimizedAffinity>
-6.24595404

$$$$

 OpenBabel03252504343D

 43 46  0  0  0  0  0  0  0  0999 V2000
   37.0650   33.3690   39.2980 C   0  0  0  0  0  0  0  0  0  0  0  0
   35.9580   33.5660   39.1930 H   0  0  0  0  0  0  0  0  0  0  0  0
   37.4730   33.5440   38.2800 H   0  0  0  0  0  0  0  0  0  0  0  0
   36.9030   31.4880   40.8570 C   0  0  0  0  0  0  0  0  0  0  0  0
   37.1230   31.8850   39.5150 C   0  0  0  0  0  0  0  0  0  0  0  0
   37.3490   30.9120   38.6020 C   0  0  0  0  0  0  0  0  0  0  0  0
   37.3470   29.6610   39.0350 N   0  0  0  0  0  0  0  0  0  0  0  0
   37.1420   29.2740   40.2840 C   0  0  0  0  0  0  0  0  0  0  0  0
   36.9030   30.2190   41.2790 N   0  0  0  0  0  0  0  0  0  0  0  0
   36.7150   32.2000   41.6480 H   0  0  0  0  0  0  0  0  0  0  0  0
   37.5120   31.2630   37.5930 H   0  0  0  0  0  0  0  0  0  0  0  0
   36.9970   27.5910   42.0290 C   0  0  0  0  0  3  0  0  0  0  0  0
   37.1540   27.8740   40.6880 C   0  0  0  0  0  0  0  0  0  0  0  0
   37.3160   26.8550   39.7740 C   0  0  0  0  0  0  0  0  0  0  0  0
   37.4380   27.0640   38.7370 H   0  0  0  0  0  0  0  0  0  0  0  0
   37.3160   25.5480   40.2470 C   0  0  0  0  0  0  0  0  0  0  0  0
   37.4600   24.4060   39.5130 N   0  0  0  0  0  0  0  0  0  0  0  0
   37.5940   24.3240   38.4860 H   0  0  0  0  0  0  0  0  0  0  0  0
   37.3910   23.3900   40.4210 C   0  0  0  0  0  0  0  0  0  0  0  0
   37.4670   22.3190   40.2000 H   0  0  0  0  0  0  0  0  0  0  0  0
   37.2070   23.8820   41.6970 C   0  0  0  0  0  3  0  0  0  0  0  0
   37.1580   25.2580   41.5940 C   0  0  0  0  0  0  0  0  0  0  0  0
   36.9960   26.2920   42.5030 C   0  0  0  0  0  3  0  0  0  0  0  0
   37.7380   34.0750   40.2360 O   0  0  0  0  0  0  0  0  0  0  0  0
   38.8950   34.8210   40.0900 C   0  0  0  0  0  3  0  0  0  0  0  0
   40.0350   34.1790   40.3200 C   0  0  0  0  0  3  0  0  0  0  0  0
   41.4190   34.7940   40.2170 C   0  0  0  0  0  0  0  0  0  0  0  0
   41.4650   35.6850   40.8830 H   0  0  0  0  0  0  0  0  0  0  0  0
   42.1870   34.0720   40.5330 H   0  0  0  0  0  0  0  0  0  0  0  0
   41.5990   35.1790   38.9070 O   0  0  0  0  0  0  0  0  0  0  0  0
   41.1790   32.8970   37.5980 O   0  0  0  0  0  0  0  0  0  0  0  0
   42.2280   33.9080   37.9920 P   0  0  1  0  0  0  0  0  0  0  0  0
   42.8990   34.5070   36.5430 O   0  0  0  0  0  0  0  0  0  0  0  0
   43.5620   33.8470   36.2090 H   0  0  0  0  0  0  0  0  0  0  0  0
   43.4770   33.1500   38.8380 O   0  0  0  0  0  0  0  0  0  0  0  0
   44.7080   33.3530   38.2470 C   0  0  0  0  0  0  0  0  0  0  0  0
   45.6780   32.2150   38.1880 C   0  0  0  0  0  0  0  0  0  0  0  0
   45.8880   33.3210   39.1910 C   0  0  0  0  0  0  0  0  0  0  0  0
   44.7580   34.0040   37.3500 H   0  0  0  0  0  0  0  0  0  0  0  0
   46.3760   32.1030   37.3360 H   0  0  0  0  0  0  0  0  0  0  0  0
   45.3040   31.2740   38.6440 H   0  0  0  0  0  0  0  0  0  0  0  0
   46.7330   34.0140   38.9560 H   0  0  0  0  0  0  0  0  0  0  0  0
   45.7120   33.1400   40.2620 H   0  0  0  0  0  0  0  0  0  0  0  0
  1  5  1  0  0  0  0
  1 24  1  0  0  0  0
  2  1  1  0  0  0  0
  3  1  1  0  0  0  0
  4  9  1  0  0  0  0
  4 10  1  0  0  0  0
  5  4  2  0  0  0  0
  6  7  2  0  0  0  0
  6  5  1  0  0  0  0
  7  8  1  0  0  0  0
  8 13  1  0  0  0  0
  8  9  2  0  0  0  0
 11  6  1  0  0  0  0
 12 23  1  0  0  0  0
 13 12  2  0  0  0  0
 14 16  2  0  0  0  0
 14 13  1  0  0  0  0
 15 14  1  0  0  0  0
 16 22  1  0  0  0  0
 17 16  1  0  0  0  0
 17 19  1  0  0  0  0
 18 17  1  0  0  0  0
 19 21  2  0  0  0  0
 20 19  1  0  0  0  0
 22 21  1  0  0  0  0
 22 23  2  0  0  0  0
 25 24  1  0  0  0  0
 25 26  2  0  0  0  0
 27 26  1  0  0  0  0
 27 29  1  0  0  0  0
 27 28  1  0  0  0  0
 30 27  1  0  0  0  0
 32 31  2  6  0  0  0
 32 35  1  0  0  0  0
 32 30  1  0  0  0  0
 33 32  1  0  0  0  0
 34 33  1  0  0  0  0
 36 35  1  0  0  0  0
 36 38  1  0  0  0  0
 37 36  1  0  0  0  0
 37 41  1  0  0  0  0
 37 38  1  0  0  0  0
 38 43  1  0  0  0  0
 39 36  1  0  0  0  0
 40 37  1  0  0  0  0
 42 38  1  0  0  0  0
M  END
>  <minimizedAffinity>
-5.95675564

$$$$

 OpenBabel03252504343D

 43 46  0  0  0  0  0  0  0  0999 V2000
   38.5400   34.3060   40.2220 C   0  0  0  0  0  0  0  0  0  0  0  0
   37.6190   34.7740   40.6780 H   0  0  0  0  0  0  0  0  0  0  0  0
   38.3430   34.3180   39.1300 H   0  0  0  0  0  0  0  0  0  0  0  0
   37.2150   32.2470   40.2670 C   0  0  0  0  0  0  0  0  0  0  0  0
   38.4300   32.8690   40.6440 C   0  0  0  0  0  0  0  0  0  0  0  0
   39.3350   32.1220   41.3180 C   0  0  0  0  0  0  0  0  0  0  0  0
   39.0130   30.8630   41.5740 N   0  0  0  0  0  0  0  0  0  0  0  0
   37.8820   30.2680   41.2280 C   0  0  0  0  0  0  0  0  0  0  0  0
   36.9040   30.9740   40.5320 N   0  0  0  0  0  0  0  0  0  0  0  0
   36.4380   32.7710   39.7270 H   0  0  0  0  0  0  0  0  0  0  0  0
   40.2460   32.6390   41.5840 H   0  0  0  0  0  0  0  0  0  0  0  0
   37.4340   28.5370   42.8720 C   0  0  0  0  0  3  0  0  0  0  0  0
   37.5960   28.8750   41.5440 C   0  0  0  0  0  0  0  0  0  0  0  0
   37.4870   27.9140   40.5610 C   0  0  0  0  0  0  0  0  0  0  0  0
   37.6110   28.1660   39.5330 H   0  0  0  0  0  0  0  0  0  0  0  0
   37.2130   26.6090   40.9520 C   0  0  0  0  0  0  0  0  0  0  0  0
   37.0670   25.5190   40.1420 N   0  0  0  0  0  0  0  0  0  0  0  0
   37.1370   25.4850   39.1060 H   0  0  0  0  0  0  0  0  0  0  0  0
   36.8090   24.4800   40.9880 C   0  0  0  0  0  0  0  0  0  0  0  0
   36.6330   23.4390   40.6980 H   0  0  0  0  0  0  0  0  0  0  0  0
   36.7920   24.9070   42.3000 C   0  0  0  0  0  3  0  0  0  0  0  0
   37.0490   26.2640   42.2850 C   0  0  0  0  0  0  0  0  0  0  0  0
   37.1600   27.2390   43.2640 C   0  0  0  0  0  3  0  0  0  0  0  0
   39.7360   34.8640   40.5220 O   0  0  0  0  0  0  0  0  0  0  0  0
   40.7070   35.3410   39.6580 C   0  0  0  0  0  3  0  0  0  0  0  0
   41.3390   34.4270   38.9300 C   0  0  0  0  0  3  0  0  0  0  0  0
   42.4330   34.7200   37.9200 C   0  0  0  0  0  0  0  0  0  0  0  0
   41.9960   35.3040   37.0790 H   0  0  0  0  0  0  0  0  0  0  0  0
   43.2390   35.3080   38.3820 H   0  0  0  0  0  0  0  0  0  0  0  0
   42.8970   33.5080   37.4570 O   0  0  0  0  0  0  0  0  0  0  0  0
   44.8740   31.9340   38.2980 O   0  0  0  0  0  0  0  0  0  0  0  0
   44.5360   33.3220   37.8100 P   0  0  1  0  0  0  0  0  0  0  0  0
   45.4700   33.5890   36.4090 O   0  0  0  0  0  0  0  0  0  0  0  0
   46.3900   33.8360   36.6880 H   0  0  0  0  0  0  0  0  0  0  0  0
   45.0150   34.4710   38.9490 O   0  0  0  0  0  0  0  0  0  0  0  0
   45.2500   33.9120   40.1890 C   0  0  0  0  0  0  0  0  0  0  0  0
   44.2140   34.0620   41.2590 C   0  0  0  0  0  0  0  0  0  0  0  0
   45.4640   34.9030   41.3120 C   0  0  0  0  0  0  0  0  0  0  0  0
   45.7700   32.9330   40.2340 H   0  0  0  0  0  0  0  0  0  0  0  0
   44.0500   33.2670   42.0110 H   0  0  0  0  0  0  0  0  0  0  0  0
   43.3140   34.6330   40.9430 H   0  0  0  0  0  0  0  0  0  0  0  0
   46.1950   34.6070   42.1050 H   0  0  0  0  0  0  0  0  0  0  0  0
   45.4180   35.9790   41.0910 H   0  0  0  0  0  0  0  0  0  0  0  0
  1 24  1  0  0  0  0
  1  5  1  0  0  0  0
  1  2  1  0  0  0  0
  3  1  1  0  0  0  0
  4  9  2  0  0  0  0
  4  5  1  0  0  0  0
  5  6  2  0  0  0  0
  6  7  1  0  0  0  0
  6 11  1  0  0  0  0
  8 13  1  0  0  0  0
  8  7  2  0  0  0  0
  9  8  1  0  0  0  0
 10  4  1  0  0  0  0
 12 23  1  0  0  0  0
 13 12  2  0  0  0  0
 14 16  2  0  0  0  0
 14 13  1  0  0  0  0
 15 14  1  0  0  0  0
 16 22  1  0  0  0  0
 17 16  1  0  0  0  0
 17 19  1  0  0  0  0
 18 17  1  0  0  0  0
 19 21  2  0  0  0  0
 20 19  1  0  0  0  0
 22 21  1  0  0  0  0
 22 23  2  0  0  0  0
 25 24  1  0  0  0  0
 26 25  2  0  0  0  0
 27 29  1  0  0  0  0
 27 26  1  0  0  0  0
 28 27  1  0  0  0  0
 30 32  1  0  0  0  0
 30 27  1  0  0  0  0
 32 31  2  1  0  0  0
 32 35  1  0  0  0  0
 33 34  1  0  0  0  0
 33 32  1  0  0  0  0
 35 36  1  0  0  0  0
 36 39  1  0  0  0  0
 36 37  1  0  0  0  0
 36 38  1  0  0  0  0
 37 38  1  0  0  0  0
 37 40  1  0  0  0  0
 38 42  1  0  0  0  0
 41 37  1  0  0  0  0
 43 38  1  0  0  0  0
M  END
>  <minimizedAffinity>
-5.93235874

$$$$

 OpenBabel03252504343D

 43 46  0  0  0  0  0  0  0  0999 V2000
   35.2210   28.3770   38.9330 C   0  0  0  0  0  0  0  0  0  0  0  0
   34.7740   28.6700   37.9380 H   0  0  0  0  0  0  0  0  0  0  0  0
   34.3480   28.2940   39.6130 H   0  0  0  0  0  0  0  0  0  0  0  0
   36.8130   30.1470   38.3580 C   0  0  0  0  0  0  0  0  0  0  0  0
   35.9510   29.6200   39.3510 C   0  0  0  0  0  0  0  0  0  0  0  0
   35.8780   30.2790   40.5310 C   0  0  0  0  0  0  0  0  0  0  0  0
   36.6190   31.3670   40.6660 N   0  0  0  0  0  0  0  0  0  0  0  0
   37.4290   31.8720   39.7480 C   0  0  0  0  0  0  0  0  0  0  0  0
   37.5560   31.2480   38.5080 N   0  0  0  0  0  0  0  0  0  0  0  0
   36.9310   29.6830   37.3880 H   0  0  0  0  0  0  0  0  0  0  0  0
   35.2080   29.8400   41.2580 H   0  0  0  0  0  0  0  0  0  0  0  0
   37.6250   34.2920   39.6870 C   0  0  0  0  0  3  0  0  0  0  0  0
   38.2170   33.0770   39.9670 C   0  0  0  0  0  0  0  0  0  0  0  0
   39.5110   33.0230   40.4390 C   0  0  0  0  0  0  0  0  0  0  0  0
   39.9760   32.0910   40.6590 H   0  0  0  0  0  0  0  0  0  0  0  0
   40.1900   34.2230   40.6190 C   0  0  0  0  0  0  0  0  0  0  0  0
   41.4680   34.3870   41.0720 N   0  0  0  0  0  0  0  0  0  0  0  0
   42.1400   33.6470   41.3570 H   0  0  0  0  0  0  0  0  0  0  0  0
   41.6730   35.7360   41.0730 C   0  0  0  0  0  0  0  0  0  0  0  0
   42.5920   36.2490   41.3780 H   0  0  0  0  0  0  0  0  0  0  0  0
   40.5510   36.4050   40.6300 C   0  0  0  0  0  3  0  0  0  0  0  0
   39.6010   35.4460   40.3380 C   0  0  0  0  0  0  0  0  0  0  0  0
   38.2990   35.4860   39.8650 C   0  0  0  0  0  3  0  0  0  0  0  0
   35.9920   27.2650   38.9670 O   0  0  0  0  0  0  0  0  0  0  0  0
   36.6910   26.7320   40.0360 C   0  0  0  0  0  3  0  0  0  0  0  0
   38.0140   26.7160   39.9170 C   0  0  0  0  0  3  0  0  0  0  0  0
   38.9780   26.1840   40.9610 C   0  0  0  0  0  0  0  0  0  0  0  0
   38.4480   26.1160   41.9370 H   0  0  0  0  0  0  0  0  0  0  0  0
   39.3380   25.1830   40.6810 H   0  0  0  0  0  0  0  0  0  0  0  0
   40.0170   27.0830   41.0540 O   0  0  0  0  0  0  0  0  0  0  0  0
   41.0700   28.5200   43.0350 O   0  0  0  0  0  0  0  0  0  0  0  0
   39.7810   28.1370   42.3510 P   0  0  1  0  0  0  0  0  0  0  0  0
   39.0670   29.5850   41.8040 O   0  0  0  0  0  0  0  0  0  0  0  0
   38.6110   30.0190   42.5720 H   0  0  0  0  0  0  0  0  0  0  0  0
   38.7140   27.4510   43.4650 O   0  0  0  0  0  0  0  0  0  0  0  0
   37.5640   28.1990   43.6170 C   0  0  0  0  0  0  0  0  0  0  0  0
   36.7660   28.0510   44.8750 C   0  0  0  0  0  0  0  0  0  0  0  0
   36.2750   27.4070   43.6020 C   0  0  0  0  0  0  0  0  0  0  0  0
   37.5580   29.2370   43.2270 H   0  0  0  0  0  0  0  0  0  0  0  0
   36.2160   28.9100   45.3060 H   0  0  0  0  0  0  0  0  0  0  0  0
   37.1900   27.3240   45.6000 H   0  0  0  0  0  0  0  0  0  0  0  0
   35.3900   27.9060   43.1360 H   0  0  0  0  0  0  0  0  0  0  0  0
   36.3190   26.3150   43.4810 H   0  0  0  0  0  0  0  0  0  0  0  0
  1 24  1  0  0  0  0
  1  5  1  0  0  0  0
  1  3  1  0  0  0  0
  2  1  1  0  0  0  0
  4  9  2  0  0  0  0
  4  5  1  0  0  0  0
  5  6  2  0  0  0  0
  6  7  1  0  0  0  0
  6 11  1  0  0  0  0
  8 13  1  0  0  0  0
  8  7  2  0  0  0  0
  9  8  1  0  0  0  0
 10  4  1  0  0  0  0
 12 23  2  0  0  0  0
 12 13  1  0  0  0  0
 13 14  2  0  0  0  0
 14 16  1  0  0  0  0
 14 15  1  0  0  0  0
 16 17  1  0  0  0  0
 17 19  1  0  0  0  0
 17 18  1  0  0  0  0
 19 20  1  0  0  0  0
 21 19  2  0  0  0  0
 22 16  2  0  0  0  0
 22 21  1  0  0  0  0
 23 22  1  0  0  0  0
 24 25  1  0  0  0  0
 26 25  2  0  0  0  0
 26 27  1  0  0  0  0
 27 30  1  0  0  0  0
 27 28  1  0  0  0  0
 29 27  1  0  0  0  0
 30 32  1  0  0  0  0
 32 31  2  1  0  0  0
 32 35  1  0  0  0  0
 33 32  1  0  0  0  0
 33 34  1  0  0  0  0
 35 36  1  0  0  0  0
 36 37  1  0  0  0  0
 37 40  1  0  0  0  0
 37 41  1  0  0  0  0
 38 36  1  0  0  0  0
 38 37  1  0  0  0  0
 39 36  1  0  0  0  0
 42 38  1  0  0  0  0
 43 38  1  0  0  0  0
M  END
>  <minimizedAffinity>
-5.83460855

$$$$

 OpenBabel03252504343D

 43 46  0  0  0  0  0  0  0  0999 V2000
   37.1310   33.2550   39.0350 C   0  0  0  0  0  0  0  0  0  0  0  0
   36.0750   33.4110   38.6680 H   0  0  0  0  0  0  0  0  0  0  0  0
   37.7300   33.1410   38.1070 H   0  0  0  0  0  0  0  0  0  0  0  0
   37.6110   30.8610   38.8440 C   0  0  0  0  0  0  0  0  0  0  0  0
   37.0730   31.8890   39.6560 C   0  0  0  0  0  0  0  0  0  0  0  0
   36.5850   31.5400   40.8680 C   0  0  0  0  0  0  0  0  0  0  0  0
   36.6480   30.2610   41.2030 N   0  0  0  0  0  0  0  0  0  0  0  0
   37.1490   29.2890   40.4560 C   0  0  0  0  0  0  0  0  0  0  0  0
   37.6700   29.5730   39.1950 N   0  0  0  0  0  0  0  0  0  0  0  0
   38.0220   31.0530   37.8620 H   0  0  0  0  0  0  0  0  0  0  0  0
   36.1840   32.3570   41.4510 H   0  0  0  0  0  0  0  0  0  0  0  0
   36.9480   27.6370   42.2250 C   0  0  0  0  0  3  0  0  0  0  0  0
   37.1860   27.8990   40.8920 C   0  0  0  0  0  0  0  0  0  0  0  0
   37.4470   26.8690   40.0130 C   0  0  0  0  0  0  0  0  0  0  0  0
   37.6320   27.0630   38.9820 H   0  0  0  0  0  0  0  0  0  0  0  0
   37.4640   25.5730   40.5140 C   0  0  0  0  0  0  0  0  0  0  0  0
   37.7010   24.4230   39.8170 N   0  0  0  0  0  0  0  0  0  0  0  0
   37.9070   24.3270   38.8030 H   0  0  0  0  0  0  0  0  0  0  0  0
   37.6090   23.4230   40.7410 C   0  0  0  0  0  0  0  0  0  0  0  0
   37.7400   22.3520   40.5490 H   0  0  0  0  0  0  0  0  0  0  0  0
   37.3200   23.9330   41.9900 C   0  0  0  0  0  3  0  0  0  0  0  0
   37.2270   25.3030   41.8530 C   0  0  0  0  0  0  0  0  0  0  0  0
   36.9640   26.3480   42.7260 C   0  0  0  0  0  3  0  0  0  0  0  0
   37.6520   34.1960   39.8550 O   0  0  0  0  0  0  0  0  0  0  0  0
   38.9720   34.3820   40.2290 C   0  0  0  0  0  3  0  0  0  0  0  0
   39.4410   35.6190   40.1160 C   0  0  0  0  0  3  0  0  0  0  0  0
   40.8520   36.0540   40.4690 C   0  0  0  0  0  0  0  0  0  0  0  0
   41.4370   36.1700   39.5290 H   0  0  0  0  0  0  0  0  0  0  0  0
   40.8390   37.0150   41.0020 H   0  0  0  0  0  0  0  0  0  0  0  0
   41.4050   35.0570   41.2430 O   0  0  0  0  0  0  0  0  0  0  0  0
   42.2300   32.7680   40.1600 O   0  0  0  0  0  0  0  0  0  0  0  0
   42.5870   34.2170   40.3810 P   0  0  1  0  0  0  0  0  0  0  0  0
   42.7890   34.9130   38.8370 O   0  0  0  0  0  0  0  0  0  0  0  0
   43.6900   34.6700   38.5000 H   0  0  0  0  0  0  0  0  0  0  0  0
   44.0730   34.3350   41.1730 O   0  0  0  0  0  0  0  0  0  0  0  0
   44.0630   35.2980   42.1620 C   0  0  0  0  0  0  0  0  0  0  0  0
   45.3290   36.0380   42.4640 C   0  0  0  0  0  0  0  0  0  0  0  0
   44.8590   34.9540   43.4010 C   0  0  0  0  0  0  0  0  0  0  0  0
   43.1610   35.9350   42.2660 H   0  0  0  0  0  0  0  0  0  0  0  0
   45.3080   37.0960   42.7880 H   0  0  0  0  0  0  0  0  0  0  0  0
   46.1950   35.7330   41.8380 H   0  0  0  0  0  0  0  0  0  0  0  0
   44.4490   35.3220   44.3740 H   0  0  0  0  0  0  0  0  0  0  0  0
   45.3900   33.9920   43.4470 H   0  0  0  0  0  0  0  0  0  0  0  0
  1  5  1  0  0  0  0
  1 24  1  0  0  0  0
  2  1  1  0  0  0  0
  3  1  1  0  0  0  0
  4  9  2  0  0  0  0
  4  5  1  0  0  0  0
  5  6  2  0  0  0  0
  6  7  1  0  0  0  0
  6 11  1  0  0  0  0
  8 13  1  0  0  0  0
  8  7  2  0  0  0  0
  9  8  1  0  0  0  0
 10  4  1  0  0  0  0
 12 23  1  0  0  0  0
 13 12  2  0  0  0  0
 14 16  2  0  0  0  0
 14 13  1  0  0  0  0
 15 14  1  0  0  0  0
 16 22  1  0  0  0  0
 17 16  1  0  0  0  0
 17 19  1  0  0  0  0
 18 17  1  0  0  0  0
 19 21  2  0  0  0  0
 20 19  1  0  0  0  0
 22 21  1  0  0  0  0
 22 23  2  0  0  0  0
 24 25  1  0  0  0  0
 26 25  2  0  0  0  0
 26 27  1  0  0  0  0
 27 29  1  0  0  0  0
 27 30  1  0  0  0  0
 28 27  1  0  0  0  0
 32 31  2  6  0  0  0
 32 35  1  0  0  0  0
 32 30  1  0  0  0  0
 33 32  1  0  0  0  0
 34 33  1  0  0  0  0
 35 36  1  0  0  0  0
 36 39  1  0  0  0  0
 36 37  1  0  0  0  0
 36 38  1  0  0  0  0
 37 40  1  0  0  0  0
 37 38  1  0  0  0  0
 38 43  1  0  0  0  0
 38 42  1  0  0  0  0
 41 37  1  0  0  0  0
M  END
>  <minimizedAffinity>
-5.80941582

$$$$

 OpenBabel03252504343D

 43 46  0  0  0  0  0  0  0  0999 V2000
   36.6690   26.4250   40.1510 C   0  0  0  0  0  0  0  0  0  0  0  0
   35.9780   26.2900   39.2680 H   0  0  0  0  0  0  0  0  0  0  0  0
   35.9940   26.4170   41.0320 H   0  0  0  0  0  0  0  0  0  0  0  0
   36.5980   28.7330   40.9650 C   0  0  0  0  0  0  0  0  0  0  0  0
   37.1340   27.8440   40.0010 C   0  0  0  0  0  0  0  0  0  0  0  0
   37.9840   28.3550   39.0810 C   0  0  0  0  0  0  0  0  0  0  0  0
   38.2510   29.6490   39.1530 N   0  0  0  0  0  0  0  0  0  0  0  0
   37.7600   30.4920   40.0480 C   0  0  0  0  0  0  0  0  0  0  0  0
   36.8780   30.0390   41.0260 N   0  0  0  0  0  0  0  0  0  0  0  0
   35.9120   28.4080   41.7350 H   0  0  0  0  0  0  0  0  0  0  0  0
   38.3660   27.6400   38.3660 H   0  0  0  0  0  0  0  0  0  0  0  0
   37.1760   32.7990   39.5590 C   0  0  0  0  0  3  0  0  0  0  0  0
   38.1000   31.9090   40.0670 C   0  0  0  0  0  0  0  0  0  0  0  0
   39.3000   32.3620   40.5720 C   0  0  0  0  0  0  0  0  0  0  0  0
   40.0200   31.6820   40.9660 H   0  0  0  0  0  0  0  0  0  0  0  0
   39.5430   33.7300   40.5500 C   0  0  0  0  0  0  0  0  0  0  0  0
   40.6590   34.3770   40.9980 N   0  0  0  0  0  0  0  0  0  0  0  0
   41.5070   33.9560   41.4270 H   0  0  0  0  0  0  0  0  0  0  0  0
   40.4210   35.7000   40.7620 C   0  0  0  0  0  0  0  0  0  0  0  0
   41.0980   36.5290   40.9930 H   0  0  0  0  0  0  0  0  0  0  0  0
   39.1830   35.8800   40.1790 C   0  0  0  0  0  3  0  0  0  0  0  0
   38.6180   34.6290   40.0410 C   0  0  0  0  0  0  0  0  0  0  0  0
   37.4140   34.1610   39.5370 C   0  0  0  0  0  3  0  0  0  0  0  0
   37.6830   25.5400   40.2890 O   0  0  0  0  0  0  0  0  0  0  0  0
   38.1000   24.8740   41.4300 C   0  0  0  0  0  3  0  0  0  0  0  0
   39.3330   25.1440   41.8440 C   0  0  0  0  0  3  0  0  0  0  0  0
   39.9950   24.5370   43.0670 C   0  0  0  0  0  0  0  0  0  0  0  0
   39.2920   23.8080   43.5300 H   0  0  0  0  0  0  0  0  0  0  0  0
   40.9190   24.0110   42.7860 H   0  0  0  0  0  0  0  0  0  0  0  0
   40.2490   25.5660   43.9470 O   0  0  0  0  0  0  0  0  0  0  0  0
   42.3650   26.7390   45.0630 O   0  0  0  0  0  0  0  0  0  0  0  0
   41.8440   26.0970   43.7990 P   0  0  1  0  0  0  0  0  0  0  0  0
   42.8700   24.7790   43.4610 O   0  0  0  0  0  0  0  0  0  0  0  0
   43.6930   25.1260   43.0270 H   0  0  0  0  0  0  0  0  0  0  0  0
   41.9760   27.1720   42.5050 O   0  0  0  0  0  0  0  0  0  0  0  0
   41.4730   28.4210   42.8080 C   0  0  0  0  0  0  0  0  0  0  0  0
   40.0240   28.6980   42.5530 C   0  0  0  0  0  0  0  0  0  0  0  0
   41.0650   29.2570   41.6160 C   0  0  0  0  0  0  0  0  0  0  0  0
   41.8520   28.9340   43.7160 H   0  0  0  0  0  0  0  0  0  0  0  0
   39.4490   29.3800   43.2090 H   0  0  0  0  0  0  0  0  0  0  0  0
   39.4640   27.8380   42.1260 H   0  0  0  0  0  0  0  0  0  0  0  0
   41.2290   30.3590   41.7010 H   0  0  0  0  0  0  0  0  0  0  0  0
   41.1810   28.8400   40.6050 H   0  0  0  0  0  0  0  0  0  0  0  0
  1 24  1  0  0  0  0
  1  3  1  0  0  0  0
  2  1  1  0  0  0  0
  4  9  1  0  0  0  0
  4 10  1  0  0  0  0
  5  1  1  0  0  0  0
  5  4  2  0  0  0  0
  6  7  2  0  0  0  0
  6  5  1  0  0  0  0
  7  8  1  0  0  0  0
  8 13  1  0  0  0  0
  8  9  2  0  0  0  0
 11  6  1  0  0  0  0
 12 13  1  0  0  0  0
 13 14  2  0  0  0  0
 14 15  1  0  0  0  0
 16 14  1  0  0  0  0
 16 17  1  0  0  0  0
 17 18  1  0  0  0  0
 19 20  1  0  0  0  0
 19 17  1  0  0  0  0
 21 19  2  0  0  0  0
 22 21  1  0  0  0  0
 22 16  2  0  0  0  0
 23 12  2  0  0  0  0
 23 22  1  0  0  0  0
 24 25  1  0  0  0  0
 25 26  2  0  0  0  0
 26 27  1  0  0  0  0
 27 28  1  0  0  0  0
 27 30  1  0  0  0  0
 29 27  1  0  0  0  0
 32 30  1  0  0  0  0
 32 31  2  1  0  0  0
 33 32  1  0  0  0  0
 34 33  1  0  0  0  0
 35 36  1  0  0  0  0
 35 32  1  0  0  0  0
 36 39  1  0  0  0  0
 37 36  1  0  0  0  0
 37 40  1  0  0  0  0
 38 42  1  0  0  0  0
 38 37  1  0  0  0  0
 38 36  1  0  0  0  0
 41 37  1  0  0  0  0
 43 38  1  0  0  0  0
M  END
>  <minimizedAffinity>
-5.74773932

$$$$

 OpenBabel03252504343D

 43 46  0  0  0  0  0  0  0  0999 V2000
   36.5340   30.0870   37.4020 C   0  0  0  0  0  0  0  0  0  0  0  0
   36.8760   30.3010   36.3470 H   0  0  0  0  0  0  0  0  0  0  0  0
   35.4740   30.4170   37.4190 H   0  0  0  0  0  0  0  0  0  0  0  0
   38.6070   31.3430   37.7440 C   0  0  0  0  0  0  0  0  0  0  0  0
   37.2930   31.0960   38.2130 C   0  0  0  0  0  0  0  0  0  0  0  0
   36.8780   31.7800   39.3040 C   0  0  0  0  0  0  0  0  0  0  0  0
   37.7330   32.6290   39.8500 N   0  0  0  0  0  0  0  0  0  0  0  0
   38.9630   32.8720   39.4240 C   0  0  0  0  0  0  0  0  0  0  0  0
   39.4600   32.2050   38.3060 N   0  0  0  0  0  0  0  0  0  0  0  0
   39.0190   30.8400   36.8800 H   0  0  0  0  0  0  0  0  0  0  0  0
   35.8690   31.5570   39.6240 H   0  0  0  0  0  0  0  0  0  0  0  0
   39.4820   35.1540   40.0740 C   0  0  0  0  0  3  0  0  0  0  0  0
   39.8500   33.8240   40.0780 C   0  0  0  0  0  0  0  0  0  0  0  0
   41.0230   33.4260   40.6850 C   0  0  0  0  0  0  0  0  0  0  0  0
   41.3150   32.4020   40.6930 H   0  0  0  0  0  0  0  0  0  0  0  0
   41.8110   34.4020   41.2850 C   0  0  0  0  0  0  0  0  0  0  0  0
   42.9980   34.2190   41.9340 N   0  0  0  0  0  0  0  0  0  0  0  0
   43.5060   33.3250   42.0860 H   0  0  0  0  0  0  0  0  0  0  0  0
   43.3750   35.4650   42.3420 C   0  0  0  0  0  0  0  0  0  0  0  0
   44.2840   35.7140   42.8990 H   0  0  0  0  0  0  0  0  0  0  0  0
   42.4460   36.4100   41.9580 C   0  0  0  0  0  3  0  0  0  0  0  0
   41.4450   35.7390   41.2830 C   0  0  0  0  0  0  0  0  0  0  0  0
   40.2640   36.1260   40.6690 C   0  0  0  0  0  3  0  0  0  0  0  0
   36.6710   28.8200   37.8560 O   0  0  0  0  0  0  0  0  0  0  0  0
   37.1530   28.3890   39.0800 C   0  0  0  0  0  3  0  0  0  0  0  0
   36.5710   27.3080   39.5880 C   0  0  0  0  0  3  0  0  0  0  0  0
   36.9380   26.6590   40.9110 C   0  0  0  0  0  0  0  0  0  0  0  0
   36.4200   25.6770   40.9830 H   0  0  0  0  0  0  0  0  0  0  0  0
   38.0240   26.4960   40.9740 H   0  0  0  0  0  0  0  0  0  0  0  0
   36.4960   27.4950   41.9130 O   0  0  0  0  0  0  0  0  0  0  0  0
   38.7830   28.8590   41.9580 O   0  0  0  0  0  0  0  0  0  0  0  0
   37.7950   28.0960   42.8060 P   0  0  1  0  0  0  0  0  0  0  0  0
   37.2340   29.1780   43.9980 O   0  0  0  0  0  0  0  0  0  0  0  0
   37.9160   29.2310   44.7180 H   0  0  0  0  0  0  0  0  0  0  0  0
   38.5740   26.8340   43.6120 O   0  0  0  0  0  0  0  0  0  0  0  0
   39.9040   26.7290   43.2560 C   0  0  0  0  0  0  0  0  0  0  0  0
   40.2810   25.8210   42.1270 C   0  0  0  0  0  0  0  0  0  0  0  0
   40.5440   25.3900   43.5480 C   0  0  0  0  0  0  0  0  0  0  0  0
   40.5320   27.6420   43.2970 H   0  0  0  0  0  0  0  0  0  0  0  0
   41.1290   26.0630   41.4580 H   0  0  0  0  0  0  0  0  0  0  0  0
   39.4210   25.2940   41.6600 H   0  0  0  0  0  0  0  0  0  0  0  0
   41.6200   25.4080   43.8520 H   0  0  0  0  0  0  0  0  0  0  0  0
   39.9380   24.5960   44.0080 H   0  0  0  0  0  0  0  0  0  0  0  0
  1  3  1  0  0  0  0
  1 24  1  0  0  0  0
  1  5  1  0  0  0  0
  2  1  1  0  0  0  0
  4  5  2  0  0  0  0
  4  9  1  0  0  0  0
  5  6  1  0  0  0  0
  6 11  1  0  0  0  0
  6  7  2  0  0  0  0
  8  7  1  0  0  0  0
  8 13  1  0  0  0  0
  9  8  2  0  0  0  0
 10  4  1  0  0  0  0
 12 13  2  0  0  0  0
 12 23  1  0  0  0  0
 13 14  1  0  0  0  0
 14 15  1  0  0  0  0
 14 16  2  0  0  0  0
 16 17  1  0  0  0  0
 17 18  1  0  0  0  0
 17 19  1  0  0  0  0
 19 20  1  0  0  0  0
 21 19  2  0  0  0  0
 22 16  1  0  0  0  0
 22 21  1  0  0  0  0
 23 22  2  0  0  0  0
 24 25  1  0  0  0  0
 25 26  2  0  0  0  0
 26 27  1  0  0  0  0
 27 29  1  0  0  0  0
 27 28  1  0  0  0  0
 27 30  1  0  0  0  0
 30 32  1  0  0  0  0
 32 31  2  6  0  0  0
 32 35  1  0  0  0  0
 32 33  1  0  0  0  0
 33 34  1  0  0  0  0
 36 39  1  0  0  0  0
 36 38  1  0  0  0  0
 36 35  1  0  0  0  0
 37 36  1  0  0  0  0
 37 38  1  0  0  0  0
 38 42  1  0  0  0  0
 38 43  1  0  0  0  0
 40 37  1  0  0  0  0
 41 37  1  0  0  0  0
M  END
>  <minimizedAffinity>
-5.68813038

$$$$

 OpenBabel03252504343D

 43 46  0  0  0  0  0  0  0  0999 V2000
   36.6360   25.5820   39.4560 C   0  0  0  0  0  0  0  0  0  0  0  0
   36.4500   25.4370   38.3520 H   0  0  0  0  0  0  0  0  0  0  0  0
   35.6220   25.5920   39.9070 H   0  0  0  0  0  0  0  0  0  0  0  0
   36.1190   27.9530   39.7870 C   0  0  0  0  0  0  0  0  0  0  0  0
   37.1330   26.9970   39.5310 C   0  0  0  0  0  0  0  0  0  0  0  0
   38.4010   27.4490   39.3910 C   0  0  0  0  0  0  0  0  0  0  0  0
   38.5960   28.7530   39.5050 N   0  0  0  0  0  0  0  0  0  0  0  0
   37.6610   29.6580   39.7450 C   0  0  0  0  0  0  0  0  0  0  0  0
   36.3320   29.2670   39.9000 N   0  0  0  0  0  0  0  0  0  0  0  0
   35.0810   27.6770   39.9120 H   0  0  0  0  0  0  0  0  0  0  0  0
   39.1390   26.6830   39.1960 H   0  0  0  0  0  0  0  0  0  0  0  0
   36.9840   31.9700   39.4350 C   0  0  0  0  0  3  0  0  0  0  0  0
   37.9510   31.0810   39.8580 C   0  0  0  0  0  0  0  0  0  0  0  0
   39.1460   31.5410   40.3690 C   0  0  0  0  0  0  0  0  0  0  0  0
   39.8980   30.8620   40.6990 H   0  0  0  0  0  0  0  0  0  0  0  0
   39.3390   32.9160   40.4400 C   0  0  0  0  0  0  0  0  0  0  0  0
   40.4420   33.5700   40.9100 N   0  0  0  0  0  0  0  0  0  0  0  0
   41.3140   33.1510   41.2900 H   0  0  0  0  0  0  0  0  0  0  0  0
   40.1520   34.8960   40.7740 C   0  0  0  0  0  0  0  0  0  0  0  0
   40.8050   35.7320   41.0490 H   0  0  0  0  0  0  0  0  0  0  0  0
   38.8960   35.0720   40.2310 C   0  0  0  0  0  3  0  0  0  0  0  0
   38.3720   33.8130   40.0160 C   0  0  0  0  0  0  0  0  0  0  0  0
   37.1740   33.3380   39.5040 C   0  0  0  0  0  3  0  0  0  0  0  0
   37.4500   24.6940   40.0720 O   0  0  0  0  0  0  0  0  0  0  0  0
   37.7440   24.5830   41.4210 C   0  0  0  0  0  3  0  0  0  0  0  0
   39.0300   24.4560   41.7290 C   0  0  0  0  0  3  0  0  0  0  0  0
   39.5810   24.3230   43.1360 C   0  0  0  0  0  0  0  0  0  0  0  0
   38.9070   24.8630   43.8380 H   0  0  0  0  0  0  0  0  0  0  0  0
   39.6320   23.2650   43.4340 H   0  0  0  0  0  0  0  0  0  0  0  0
   40.8290   24.9070   43.1440 O   0  0  0  0  0  0  0  0  0  0  0  0
   41.7000   26.9560   44.6060 O   0  0  0  0  0  0  0  0  0  0  0  0
   40.7190   26.5450   43.5350 P   0  0  1  0  0  0  0  0  0  0  0  0
   41.0620   27.4980   42.1640 O   0  0  0  0  0  0  0  0  0  0  0  0
   40.6510   28.3920   42.2930 H   0  0  0  0  0  0  0  0  0  0  0  0
   39.1450   26.9190   44.0150 O   0  0  0  0  0  0  0  0  0  0  0  0
   38.4760   27.6730   43.0710 C   0  0  0  0  0  0  0  0  0  0  0  0
   37.9150   29.0020   43.4720 C   0  0  0  0  0  0  0  0  0  0  0  0
   36.9890   27.8230   43.3050 C   0  0  0  0  0  0  0  0  0  0  0  0
   38.8550   27.6670   42.0290 H   0  0  0  0  0  0  0  0  0  0  0  0
   37.8730   29.8430   42.7550 H   0  0  0  0  0  0  0  0  0  0  0  0
   38.0970   29.2710   44.5350 H   0  0  0  0  0  0  0  0  0  0  0  0
   36.3430   27.8610   42.3930 H   0  0  0  0  0  0  0  0  0  0  0  0
   36.5340   27.3470   44.1860 H   0  0  0  0  0  0  0  0  0  0  0  0
  1  5  1  0  0  0  0
  1  3  1  0  0  0  0
  1 24  1  0  0  0  0
  2  1  1  0  0  0  0
  4  9  1  0  0  0  0
  4 10  1  0  0  0  0
  5  4  2  0  0  0  0
  6  7  2  0  0  0  0
  6  5  1  0  0  0  0
  7  8  1  0  0  0  0
  8 13  1  0  0  0  0
  8  9  2  0  0  0  0
 11  6  1  0  0  0  0
 12 23  2  0  0  0  0
 12 13  1  0  0  0  0
 13 14  2  0  0  0  0
 14 16  1  0  0  0  0
 14 15  1  0  0  0  0
 16 17  1  0  0  0  0
 17 18  1  0  0  0  0
 19 17  1  0  0  0  0
 19 20  1  0  0  0  0
 21 19  2  0  0  0  0
 22 21  1  0  0  0  0
 22 16  2  0  0  0  0
 23 22  1  0  0  0  0
 24 25  1  0  0  0  0
 25 26  2  0  0  0  0
 26 27  1  0  0  0  0
 27 30  1  0  0  0  0
 27 29  1  0  0  0  0
 27 28  1  0  0  0  0
 30 32  1  0  0  0  0
 32 35  1  0  0  0  0
 32 31  2  1  0  0  0
 33 34  1  0  0  0  0
 33 32  1  0  0  0  0
 36 38  1  0  0  0  0
 36 37  1  0  0  0  0
 36 35  1  0  0  0  0
 37 41  1  0  0  0  0
 38 37  1  0  0  0  0
 38 43  1  0  0  0  0
 39 36  1  0  0  0  0
 40 37  1  0  0  0  0
 42 38  1  0  0  0  0
M  END
>  <minimizedAffinity>
-5.67074776

$$$$

 OpenBabel03252504343D

 43 46  0  0  0  0  0  0  0  0999 V2000
   36.8280   27.4160   42.9630 C   0  0  0  0  0  0  0  0  0  0  0  0
   35.7940   27.7420   43.2790 H   0  0  0  0  0  0  0  0  0  0  0  0
   37.3710   27.2560   43.9180 H   0  0  0  0  0  0  0  0  0  0  0  0
   38.4540   29.2390   43.1260 C   0  0  0  0  0  0  0  0  0  0  0  0
   37.4060   28.6660   42.3650 C   0  0  0  0  0  0  0  0  0  0  0  0
   37.0550   29.2850   41.2150 C   0  0  0  0  0  0  0  0  0  0  0  0
   37.7200   30.3820   40.8880 N   0  0  0  0  0  0  0  0  0  0  0  0
   38.7010   30.9300   41.5880 C   0  0  0  0  0  0  0  0  0  0  0  0
   39.1180   30.3480   42.7830 N   0  0  0  0  0  0  0  0  0  0  0  0
   38.7970   28.8090   44.0570 H   0  0  0  0  0  0  0  0  0  0  0  0
   36.2510   28.8120   40.6690 H   0  0  0  0  0  0  0  0  0  0  0  0
   40.7690   32.1220   41.1370 C   0  0  0  0  0  3  0  0  0  0  0  0
   39.3900   32.1420   41.1650 C   0  0  0  0  0  0  0  0  0  0  0  0
   38.7010   33.2800   40.8010 C   0  0  0  0  0  0  0  0  0  0  0  0
   37.6370   33.3050   40.8190 H   0  0  0  0  0  0  0  0  0  0  0  0
   39.4380   34.3920   40.4120 C   0  0  0  0  0  0  0  0  0  0  0  0
   38.9530   35.6060   40.0180 N   0  0  0  0  0  0  0  0  0  0  0  0
   37.9580   35.8980   39.9440 H   0  0  0  0  0  0  0  0  0  0  0  0
   40.0580   36.3560   39.7390 C   0  0  0  0  0  0  0  0  0  0  0  0
   40.0630   37.3950   39.3910 H   0  0  0  0  0  0  0  0  0  0  0  0
   41.2120   35.6310   39.9540 C   0  0  0  0  0  3  0  0  0  0  0  0
   40.8240   34.3770   40.3830 C   0  0  0  0  0  0  0  0  0  0  0  0
   41.5050   33.2260   40.7500 C   0  0  0  0  0  3  0  0  0  0  0  0
   36.9200   26.3390   42.1480 O   0  0  0  0  0  0  0  0  0  0  0  0
   38.0000   25.4970   41.9490 C   0  0  0  0  0  3  0  0  0  0  0  0
   38.7920   25.3070   42.9990 C   0  0  0  0  0  3  0  0  0  0  0  0
   40.0280   24.4250   43.0120 C   0  0  0  0  0  0  0  0  0  0  0  0
   40.4220   24.3760   44.0520 H   0  0  0  0  0  0  0  0  0  0  0  0
   39.7800   23.4070   42.6760 H   0  0  0  0  0  0  0  0  0  0  0  0
   40.9590   25.0140   42.1860 O   0  0  0  0  0  0  0  0  0  0  0  0
   41.6670   26.3570   44.3740 O   0  0  0  0  0  0  0  0  0  0  0  0
   42.1780   25.7510   43.0900 P   0  0  1  0  0  0  0  0  0  0  0  0
   43.3580   24.6000   43.5270 O   0  0  0  0  0  0  0  0  0  0  0  0
   44.2060   25.0790   43.7200 H   0  0  0  0  0  0  0  0  0  0  0  0
   42.9560   26.9260   42.1620 O   0  0  0  0  0  0  0  0  0  0  0  0
   42.2070   28.0800   42.0450 C   0  0  0  0  0  0  0  0  0  0  0  0
   41.2570   28.2130   40.8950 C   0  0  0  0  0  0  0  0  0  0  0  0
   42.5650   28.9630   40.8700 C   0  0  0  0  0  0  0  0  0  0  0  0
   41.8240   28.5530   42.9720 H   0  0  0  0  0  0  0  0  0  0  0  0
   40.3050   28.7670   41.0020 H   0  0  0  0  0  0  0  0  0  0  0  0
   41.2420   27.3350   40.2140 H   0  0  0  0  0  0  0  0  0  0  0  0
   42.4760   30.0660   41.0310 H   0  0  0  0  0  0  0  0  0  0  0  0
   43.3710   28.6490   40.1910 H   0  0  0  0  0  0  0  0  0  0  0  0
  1  2  1  0  0  0  0
  1  3  1  0  0  0  0
  4 10  1  0  0  0  0
  5  1  1  0  0  0  0
  5  4  2  0  0  0  0
  6  5  1  0  0  0  0
  7  6  2  0  0  0  0
  7  8  1  0  0  0  0
  8  9  2  0  0  0  0
  9  4  1  0  0  0  0
 11  6  1  0  0  0  0
 12 13  1  0  0  0  0
 13  8  1  0  0  0  0
 14 15  1  0  0  0  0
 14 13  2  0  0  0  0
 16 14  1  0  0  0  0
 17 16  1  0  0  0  0
 18 17  1  0  0  0  0
 19 21  2  0  0  0  0
 19 17  1  0  0  0  0
 20 19  1  0  0  0  0
 21 22  1  0  0  0  0
 22 16  2  0  0  0  0
 22 23  1  0  0  0  0
 23 12  2  0  0  0  0
 24  1  1  0  0  0  0
 25 24  1  0  0  0  0
 25 26  2  0  0  0  0
 26 27  1  0  0  0  0
 27 28  1  0  0  0  0
 29 27  1  0  0  0  0
 30 27  1  0  0  0  0
 30 32  1  0  0  0  0
 32 33  1  0  0  0  0
 32 31  2  1  0  0  0
 33 34  1  0  0  0  0
 35 32  1  0  0  0  0
 36 35  1  0  0  0  0
 36 39  1  0  0  0  0
 37 40  1  0  0  0  0
 37 36  1  0  0  0  0
 38 37  1  0  0  0  0
 38 42  1  0  0  0  0
 38 36  1  0  0  0  0
 41 37  1  0  0  0  0
 43 38  1  0  0  0  0
M  END
>  <minimizedAffinity>
-5.58217382

$$$$
