
 OpenBabel03242521473D

 50 54  0  0  1  0  0  0  0  0999 V2000
   37.7840   34.3730   39.9080 C   0  0  0  0  0  0  0  0  0  0  0  0
   37.5110   34.4180   38.8480 H   0  0  0  0  0  0  0  0  0  0  0  0
   37.2200   35.0420   40.5760 H   0  0  0  0  0  0  0  0  0  0  0  0
   39.2500   34.6560   40.1410 C   0  0  0  0  0  0  0  0  0  0  0  0
   40.1920   33.8450   39.4910 C   0  0  0  0  0  0  0  0  0  0  0  0
   41.5640   34.0980   39.6890 C   0  0  0  0  0  0  0  0  0  0  0  0
   41.8930   35.0970   40.4870 N   0  0  0  0  0  0  0  0  0  0  0  0
   40.9730   35.8690   41.1070 C   0  0  0  0  0  0  0  0  0  0  0  0
   39.6460   35.6480   40.9340 N   0  0  0  0  0  0  0  0  0  0  0  0
   39.7950   33.0630   38.8680 H   0  0  0  0  0  0  0  0  0  0  0  0
   41.3000   36.6720   41.7480 H   0  0  0  0  0  0  0  0  0  0  0  0
   42.2700   33.0910   37.5250 C   0  0  2  0  0  0  0  0  0  0  0  0
   42.4740   33.2100   38.9780 C   0  0  2  0  0  0  0  0  0  0  0  0
   42.3820   31.8340   39.3960 O   0  0  0  0  0  0  0  0  0  0  0  0
   43.2900   31.2490   38.5170 C   0  0  0  0  0  0  0  0  0  0  0  0
   43.3350   32.0070   37.2420 C   0  0  1  0  0  0  0  0  0  0  0  0
   41.3050   32.5760   37.2700 H   0  0  0  0  0  0  0  0  0  0  0  0
   43.5380   33.4480   39.2100 H   0  0  0  0  0  0  0  0  0  0  0  0
   43.0800   30.1790   38.3720 H   0  0  0  0  0  0  0  0  0  0  0  0
   44.2980   31.3310   38.9990 H   0  0  0  0  0  0  0  0  0  0  0  0
   44.2710   32.5650   37.0560 H   0  0  0  0  0  0  0  0  0  0  0  0
   42.4250   34.2250   36.8090 O   0  0  0  0  0  0  0  0  0  0  0  0
   41.9490   34.2720   35.9630 H   0  0  0  0  0  0  0  0  0  0  0  0
   42.9360   31.2650   36.1250 O   0  0  0  0  0  0  0  0  0  0  0  0
   42.6470   30.3780   36.4950 H   0  0  0  0  0  0  0  0  0  0  0  0
   37.2070   31.8610   39.6280 C   0  0  0  0  0  0  0  0  0  0  0  0
   37.1820   32.0190   38.3840 O   0  0  0  0  0  0  0  0  0  0  0  0
   37.5470   33.0200   40.3870 N   0  0  0  0  0  0  0  0  0  0  0  0
   37.6400   32.8830   41.4360 H   0  0  0  0  0  0  0  0  0  0  0  0
   36.9170   30.5990   40.3190 C   0  0  0  0  0  0  0  0  0  0  0  0
   35.6820   30.0470   40.2310 C   0  0  0  0  0  0  0  0  0  0  0  0
   35.5030   28.8440   40.9230 C   0  0  0  0  0  0  0  0  0  0  0  0
   36.5090   28.2220   41.6710 C   0  0  0  0  0  0  0  0  0  0  0  0
   37.7130   28.8580   41.6980 C   0  0  0  0  0  0  0  0  0  0  0  0
   37.9120   30.0030   41.0480 N   0  0  0  0  0  0  0  0  0  0  0  0
   34.8740   30.4670   39.6800 H   0  0  0  0  0  0  0  0  0  0  0  0
   34.5410   28.3550   40.8900 H   0  0  0  0  0  0  0  0  0  0  0  0
   36.3450   27.3090   42.1870 H   0  0  0  0  0  0  0  0  0  0  0  0
   38.7170   27.2220   43.2290 C   0  0  0  0  0  3  0  0  0  0  0  0
   38.8620   28.3380   42.4310 C   0  0  0  0  0  0  0  0  0  0  0  0
   40.1250   28.8950   42.3860 C   0  0  0  0  0  0  0  0  0  0  0  0
   40.2910   29.7560   41.7880 H   0  0  0  0  0  0  0  0  0  0  0  0
   41.1840   28.3800   43.0900 C   0  0  0  0  0  0  0  0  0  0  0  0
   42.4840   28.7390   43.2060 N   0  0  0  0  0  0  0  0  0  0  0  0
   42.9300   29.5600   42.7210 H   0  0  0  0  0  0  0  0  0  0  0  0
   43.1350   27.8820   44.0450 C   0  0  0  0  0  0  0  0  0  0  0  0
   44.1710   27.9540   44.2990 H   0  0  0  0  0  0  0  0  0  0  0  0
   42.2250   26.9210   44.4980 C   0  0  0  0  0  3  0  0  0  0  0  0
   41.0390   27.2660   43.8860 C   0  0  0  0  0  0  0  0  0  0  0  0
   39.7900   26.6870   43.9510 C   0  0  0  0  0  3  0  0  0  0  0  0
  1  4  1  0  0  0  0
  1 28  1  0  0  0  0
  1  3  1  0  0  0  0
  2  1  1  0  0  0  0
  4  9  1  0  0  0  0
  5  6  1  0  0  0  0
  5  4  2  0  0  0  0
  6  7  2  0  0  0  0
  7  8  1  0  0  0  0
  8 11  1  0  0  0  0
  9  8  2  0  0  0  0
 10  5  1  0  0  0  0
 12 17  1  6  0  0  0
 12 13  1  0  0  0  0
 13 18  1  1  0  0  0
 13 14  1  0  0  0  0
 13  6  1  0  0  0  0
 15 20  1  0  0  0  0
 15 14  1  0  0  0  0
 16 21  1  6  0  0  0
 16 12  1  0  0  0  0
 16 15  1  0  0  0  0
 19 15  1  0  0  0  0
 22 12  1  0  0  0  0
 23 22  1  0  0  0  0
 24 25  1  0  0  0  0
 24 16  1  0  0  0  0
 26 30  1  0  0  0  0
 26 28  1  0  0  0  0
 27 26  2  0  0  0  0
 28 29  1  0  0  0  0
 30 35  1  0  0  0  0
 31 30  2  0  0  0  0
 31 32  1  0  0  0  0
 32 33  2  0  0  0  0
 33 34  1  0  0  0  0
 33 38  1  0  0  0  0
 34 40  1  0  0  0  0
 35 34  2  0  0  0  0
 36 31  1  0  0  0  0
 37 32  1  0  0  0  0
 39 50  1  0  0  0  0
 40 39  2  0  0  0  0
 41 40  1  0  0  0  0
 41 43  2  0  0  0  0
 42 41  1  0  0  0  0
 43 44  1  0  0  0  0
 43 49  1  0  0  0  0
 44 46  1  0  0  0  0
 45 44  1  0  0  0  0
 46 47  1  0  0  0  0
 46 48  2  0  0  0  0
 49 50  2  0  0  0  0
 49 48  1  0  0  0  0
M  END
>  <minimizedAffinity>
-8.1370697

$$$$

 OpenBabel03242521473D

 50 54  0  0  1  0  0  0  0  0999 V2000
   37.5520   33.0310   40.0330 C   0  0  0  0  0  0  0  0  0  0  0  0
   37.0520   32.8500   39.0760 H   0  0  0  0  0  0  0  0  0  0  0  0
   36.9280   33.4780   40.8220 H   0  0  0  0  0  0  0  0  0  0  0  0
   38.7730   33.9120   39.8900 C   0  0  0  0  0  0  0  0  0  0  0  0
   39.9690   33.3190   39.4570 C   0  0  0  0  0  0  0  0  0  0  0  0
   41.1160   34.1240   39.3100 C   0  0  0  0  0  0  0  0  0  0  0  0
   41.0020   35.4080   39.5910 N   0  0  0  0  0  0  0  0  0  0  0  0
   39.8430   35.9640   40.0080 C   0  0  0  0  0  0  0  0  0  0  0  0
   38.7240   35.2130   40.1590 N   0  0  0  0  0  0  0  0  0  0  0  0
   39.9300   32.2620   39.2610 H   0  0  0  0  0  0  0  0  0  0  0  0
   39.8090   37.0200   40.2250 H   0  0  0  0  0  0  0  0  0  0  0  0
   42.4970   33.3230   37.3990 C   0  0  2  0  0  0  0  0  0  0  0  0
   42.3140   33.4300   38.8570 C   0  0  2  0  0  0  0  0  0  0  0  0
   42.3660   32.0460   39.2560 O   0  0  0  0  0  0  0  0  0  0  0  0
   43.5500   31.6560   38.6350 C   0  0  0  0  0  0  0  0  0  0  0  0
   43.7730   32.4500   37.4010 C   0  0  1  0  0  0  0  0  0  0  0  0
   41.7300   32.6570   36.9210 H   0  0  0  0  0  0  0  0  0  0  0  0
   43.2290   33.8420   39.3410 H   0  0  0  0  0  0  0  0  0  0  0  0
   43.5740   30.5720   38.4560 H   0  0  0  0  0  0  0  0  0  0  0  0
   44.3790   31.8970   39.3500 H   0  0  0  0  0  0  0  0  0  0  0  0
   44.6120   33.1680   37.4450 H   0  0  0  0  0  0  0  0  0  0  0  0
   42.6200   34.4890   36.7300 O   0  0  0  0  0  0  0  0  0  0  0  0
   42.3660   34.4790   35.7920 H   0  0  0  0  0  0  0  0  0  0  0  0
   43.7960   31.6860   36.2300 O   0  0  0  0  0  0  0  0  0  0  0  0
   43.5860   30.7510   36.5280 H   0  0  0  0  0  0  0  0  0  0  0  0
   37.2560   30.6920   41.1090 C   0  0  0  0  0  0  0  0  0  0  0  0
   36.0120   30.8460   41.0700 O   0  0  0  0  0  0  0  0  0  0  0  0
   38.0240   31.7590   40.5550 N   0  0  0  0  0  0  0  0  0  0  0  0
   39.0750   31.6100   40.5190 H   0  0  0  0  0  0  0  0  0  0  0  0
   37.9380   29.5200   41.6700 C   0  0  0  0  0  0  0  0  0  0  0  0
   38.8530   29.6770   42.6570 C   0  0  0  0  0  0  0  0  0  0  0  0
   39.4500   28.5020   43.1270 C   0  0  0  0  0  0  0  0  0  0  0  0
   39.1470   27.2270   42.6340 C   0  0  0  0  0  0  0  0  0  0  0  0
   38.2150   27.1760   41.6420 C   0  0  0  0  0  0  0  0  0  0  0  0
   37.6320   28.2800   41.1760 N   0  0  0  0  0  0  0  0  0  0  0  0
   39.1300   30.6150   43.0770 H   0  0  0  0  0  0  0  0  0  0  0  0
   40.1860   28.5620   43.9140 H   0  0  0  0  0  0  0  0  0  0  0  0
   39.6150   26.3520   43.0090 H   0  0  0  0  0  0  0  0  0  0  0  0
   36.7770   25.9360   40.0860 C   0  0  0  0  0  3  0  0  0  0  0  0
   37.7900   25.9250   41.0230 C   0  0  0  0  0  0  0  0  0  0  0  0
   38.3400   24.6930   41.3130 C   0  0  0  0  0  0  0  0  0  0  0  0
   39.1220   24.6300   42.0280 H   0  0  0  0  0  0  0  0  0  0  0  0
   37.9150   23.5350   40.7130 C   0  0  0  0  0  0  0  0  0  0  0  0
   38.2880   22.2390   40.8270 N   0  0  0  0  0  0  0  0  0  0  0  0
   39.0440   21.8820   41.4650 H   0  0  0  0  0  0  0  0  0  0  0  0
   37.5390   21.4600   39.9930 C   0  0  0  0  0  0  0  0  0  0  0  0
   37.6430   20.4000   39.9000 H   0  0  0  0  0  0  0  0  0  0  0  0
   36.6390   22.2780   39.3030 C   0  0  0  0  0  3  0  0  0  0  0  0
   36.9050   23.5460   39.7780 C   0  0  0  0  0  0  0  0  0  0  0  0
   36.3350   24.7620   39.4660 C   0  0  0  0  0  3  0  0  0  0  0  0
  1 28  1  0  0  0  0
  1  3  1  0  0  0  0
  2  1  1  0  0  0  0
  4  1  1  0  0  0  0
  4  9  1  0  0  0  0
  5  4  2  0  0  0  0
  6  5  1  0  0  0  0
  6  7  2  0  0  0  0
  7  8  1  0  0  0  0
  8  9  2  0  0  0  0
  8 11  1  0  0  0  0
 10  5  1  0  0  0  0
 12 17  1  6  0  0  0
 12 16  1  0  0  0  0
 12 13  1  0  0  0  0
 13 14  1  0  0  0  0
 13  6  1  0  0  0  0
 13 18  1  1  0  0  0
 15 14  1  0  0  0  0
 15 20  1  0  0  0  0
 16 21  1  1  0  0  0
 16 15  1  0  0  0  0
 19 15  1  0  0  0  0
 22 12  1  0  0  0  0
 23 22  1  0  0  0  0
 24 25  1  0  0  0  0
 24 16  1  0  0  0  0
 26 30  1  0  0  0  0
 27 26  2  0  0  0  0
 28 26  1  0  0  0  0
 29 28  1  0  0  0  0
 30 31  1  0  0  0  0
 31 36  1  0  0  0  0
 31 32  2  0  0  0  0
 32 37  1  0  0  0  0
 33 38  1  0  0  0  0
 33 32  1  0  0  0  0
 34 33  2  0  0  0  0
 35 34  1  0  0  0  0
 35 30  2  0  0  0  0
 39 40  1  0  0  0  0
 40 41  2  0  0  0  0
 40 34  1  0  0  0  0
 41 42  1  0  0  0  0
 43 44  1  0  0  0  0
 43 41  1  0  0  0  0
 44 45  1  0  0  0  0
 46 44  1  0  0  0  0
 47 46  1  0  0  0  0
 48 49  1  0  0  0  0
 48 46  2  0  0  0  0
 49 43  2  0  0  0  0
 50 49  1  0  0  0  0
 50 39  2  0  0  0  0
M  END
>  <minimizedAffinity>
-8.12001514

$$$$

 OpenBabel03242521473D

 50 54  0  0  1  0  0  0  0  0999 V2000
   37.6130   31.6410   38.6880 C   0  0  0  0  0  0  0  0  0  0  0  0
   37.9190   31.3110   37.6890 H   0  0  0  0  0  0  0  0  0  0  0  0
   36.5680   31.9710   38.7830 H   0  0  0  0  0  0  0  0  0  0  0  0
   38.4770   32.7630   39.2170 C   0  0  0  0  0  0  0  0  0  0  0  0
   39.8580   32.7030   38.9780 C   0  0  0  0  0  0  0  0  0  0  0  0
   40.6800   33.7440   39.4560 C   0  0  0  0  0  0  0  0  0  0  0  0
   40.0980   34.7310   40.1110 N   0  0  0  0  0  0  0  0  0  0  0  0
   38.7650   34.7730   40.3340 C   0  0  0  0  0  0  0  0  0  0  0  0
   37.9510   33.7860   39.8850 N   0  0  0  0  0  0  0  0  0  0  0  0
   40.2090   31.8450   38.4330 H   0  0  0  0  0  0  0  0  0  0  0  0
   38.3440   35.6050   40.8760 H   0  0  0  0  0  0  0  0  0  0  0  0
   42.5880   34.2690   37.9470 C   0  0  2  0  0  0  0  0  0  0  0  0
   42.1010   33.6040   39.1670 C   0  0  2  0  0  0  0  0  0  0  0  0
   42.5120   32.2420   38.9370 O   0  0  0  0  0  0  0  0  0  0  0  0
   43.8550   32.4400   38.6290 C   0  0  0  0  0  0  0  0  0  0  0  0
   44.0490   33.7660   37.9920 C   0  0  1  0  0  0  0  0  0  0  0  0
   42.1820   33.7970   37.0120 H   0  0  0  0  0  0  0  0  0  0  0  0
   42.7240   33.8850   40.0470 H   0  0  0  0  0  0  0  0  0  0  0  0
   44.2580   31.6130   38.0260 H   0  0  0  0  0  0  0  0  0  0  0  0
   44.4080   32.4460   39.6030 H   0  0  0  0  0  0  0  0  0  0  0  0
   44.5910   34.5100   38.6030 H   0  0  0  0  0  0  0  0  0  0  0  0
   42.4620   35.6120   37.9130 O   0  0  0  0  0  0  0  0  0  0  0  0
   42.4110   36.0210   37.0320 H   0  0  0  0  0  0  0  0  0  0  0  0
   44.5430   33.7030   36.6850 O   0  0  0  0  0  0  0  0  0  0  0  0
   44.5880   32.7220   36.4740 H   0  0  0  0  0  0  0  0  0  0  0  0
   37.0240   30.2390   40.7880 C   0  0  0  0  0  0  0  0  0  0  0  0
   36.0530   31.0030   41.0080 O   0  0  0  0  0  0  0  0  0  0  0  0
   37.7770   30.5290   39.6110 N   0  0  0  0  0  0  0  0  0  0  0  0
   38.5580   29.8490   39.3750 H   0  0  0  0  0  0  0  0  0  0  0  0
   37.4120   29.1090   41.6390 C   0  0  0  0  0  0  0  0  0  0  0  0
   36.4950   28.1730   41.9820 C   0  0  0  0  0  0  0  0  0  0  0  0
   36.9600   27.1340   42.7960 C   0  0  0  0  0  0  0  0  0  0  0  0
   38.2820   27.0350   43.2500 C   0  0  0  0  0  0  0  0  0  0  0  0
   39.1250   28.0280   42.8510 C   0  0  0  0  0  0  0  0  0  0  0  0
   38.7090   29.0270   42.0750 N   0  0  0  0  0  0  0  0  0  0  0  0
   35.4770   28.1870   41.6720 H   0  0  0  0  0  0  0  0  0  0  0  0
   36.2770   26.3570   43.1020 H   0  0  0  0  0  0  0  0  0  0  0  0
   38.6070   26.2360   43.8670 H   0  0  0  0  0  0  0  0  0  0  0  0
   41.3230   29.1200   42.8240 C   0  0  0  0  0  3  0  0  0  0  0  0
   40.5310   28.0690   43.2370 C   0  0  0  0  0  0  0  0  0  0  0  0
   41.1490   27.1050   44.0090 C   0  0  0  0  0  0  0  0  0  0  0  0
   40.5850   26.2740   44.3520 H   0  0  0  0  0  0  0  0  0  0  0  0
   42.4760   27.1750   44.3530 C   0  0  0  0  0  0  0  0  0  0  0  0
   43.2890   26.3740   45.0810 N   0  0  0  0  0  0  0  0  0  0  0  0
   42.9960   25.4770   45.5450 H   0  0  0  0  0  0  0  0  0  0  0  0
   44.5480   26.9010   45.1270 C   0  0  0  0  0  0  0  0  0  0  0  0
   45.3720   26.4550   45.6410 H   0  0  0  0  0  0  0  0  0  0  0  0
   44.5600   28.0960   44.3990 C   0  0  0  0  0  3  0  0  0  0  0  0
   43.2660   28.2240   43.9410 C   0  0  0  0  0  0  0  0  0  0  0  0
   42.6770   29.2030   43.1700 C   0  0  0  0  0  3  0  0  0  0  0  0
  1  3  1  0  0  0  0
  1  4  1  0  0  0  0
  1 28  1  0  0  0  0
  2  1  1  0  0  0  0
  4  9  1  0  0  0  0
  5  4  2  0  0  0  0
  5  6  1  0  0  0  0
  6  7  2  0  0  0  0
  7  8  1  0  0  0  0
  8 11  1  0  0  0  0
  9  8  2  0  0  0  0
 10  5  1  0  0  0  0
 12 17  1  6  0  0  0
 12 16  1  0  0  0  0
 12 13  1  0  0  0  0
 13  6  1  0  0  0  0
 13 18  1  1  0  0  0
 14 13  1  0  0  0  0
 15 14  1  0  0  0  0
 15 20  1  0  0  0  0
 16 21  1  1  0  0  0
 16 15  1  0  0  0  0
 19 15  1  0  0  0  0
 22 12  1  0  0  0  0
 23 22  1  0  0  0  0
 24 16  1  0  0  0  0
 25 24  1  0  0  0  0
 26 27  2  0  0  0  0
 26 30  1  0  0  0  0
 28 26  1  0  0  0  0
 29 28  1  0  0  0  0
 30 31  2  0  0  0  0
 30 35  1  0  0  0  0
 31 32  1  0  0  0  0
 32 37  1  0  0  0  0
 32 33  2  0  0  0  0
 33 38  1  0  0  0  0
 34 40  1  0  0  0  0
 34 33  1  0  0  0  0
 35 34  2  0  0  0  0
 36 31  1  0  0  0  0
 39 50  2  0  0  0  0
 39 40  1  0  0  0  0
 40 41  2  0  0  0  0
 41 42  1  0  0  0  0
 41 43  1  0  0  0  0
 43 44  1  0  0  0  0
 44 46  1  0  0  0  0
 44 45  1  0  0  0  0
 46 47  1  0  0  0  0
 48 46  2  0  0  0  0
 49 43  2  0  0  0  0
 49 48  1  0  0  0  0
 50 49  1  0  0  0  0
M  END
>  <minimizedAffinity>
-7.91178036

$$$$

 OpenBabel03242521473D

 50 54  0  0  1  0  0  0  0  0999 V2000
   37.3420   28.3390   43.4810 C   0  0  0  0  0  0  0  0  0  0  0  0
   37.6220   28.8850   44.3880 H   0  0  0  0  0  0  0  0  0  0  0  0
   36.3150   27.9440   43.4590 H   0  0  0  0  0  0  0  0  0  0  0  0
   38.2640   27.1740   43.1990 C   0  0  0  0  0  0  0  0  0  0  0  0
   39.6280   27.3240   43.4920 C   0  0  0  0  0  0  0  0  0  0  0  0
   40.5030   26.2480   43.2430 C   0  0  0  0  0  0  0  0  0  0  0  0
   39.9850   25.1430   42.7410 N   0  0  0  0  0  0  0  0  0  0  0  0
   38.6680   25.0140   42.4630 C   0  0  0  0  0  0  0  0  0  0  0  0
   37.8040   26.0330   42.6930 N   0  0  0  0  0  0  0  0  0  0  0  0
   39.9240   28.2760   43.8970 H   0  0  0  0  0  0  0  0  0  0  0  0
   38.3010   24.0870   42.0530 H   0  0  0  0  0  0  0  0  0  0  0  0
   42.8360   25.3830   43.3000 C   0  0  2  0  0  0  0  0  0  0  0  0
   41.9010   26.4870   43.5740 C   0  0  2  0  0  0  0  0  0  0  0  0
   42.1310   26.7170   44.9780 O   0  0  0  0  0  0  0  0  0  0  0  0
   43.5170   26.8380   44.9830 C   0  0  0  0  0  0  0  0  0  0  0  0
   44.1120   26.0230   43.8940 C   0  0  1  0  0  0  0  0  0  0  0  0
   42.6580   24.4970   43.9660 H   0  0  0  0  0  0  0  0  0  0  0  0
   42.2680   27.4380   43.1250 H   0  0  0  0  0  0  0  0  0  0  0  0
   43.9400   26.6050   45.9720 H   0  0  0  0  0  0  0  0  0  0  0  0
   43.7440   27.9140   44.7670 H   0  0  0  0  0  0  0  0  0  0  0  0
   44.5590   26.5980   43.0640 H   0  0  0  0  0  0  0  0  0  0  0  0
   42.9500   25.0110   42.0080 O   0  0  0  0  0  0  0  0  0  0  0  0
   43.2360   24.0960   41.8440 H   0  0  0  0  0  0  0  0  0  0  0  0
   44.9580   25.0050   44.3440 O   0  0  0  0  0  0  0  0  0  0  0  0
   44.9010   25.0450   45.3450 H   0  0  0  0  0  0  0  0  0  0  0  0
   36.6110   29.3350   41.2030 C   0  0  0  0  0  0  0  0  0  0  0  0
   35.5960   28.5980   41.2210 O   0  0  0  0  0  0  0  0  0  0  0  0
   37.4600   29.2390   42.3460 N   0  0  0  0  0  0  0  0  0  0  0  0
   38.2840   29.9080   42.3750 H   0  0  0  0  0  0  0  0  0  0  0  0
   36.9600   30.2550   40.1140 C   0  0  0  0  0  0  0  0  0  0  0  0
   36.5430   29.9970   38.8510 C   0  0  0  0  0  0  0  0  0  0  0  0
   36.9250   30.9320   37.8810 C   0  0  0  0  0  0  0  0  0  0  0  0
   37.6890   32.0710   38.1600 C   0  0  0  0  0  0  0  0  0  0  0  0
   38.0590   32.2380   39.4600 C   0  0  0  0  0  0  0  0  0  0  0  0
   37.7090   31.3650   40.4030 N   0  0  0  0  0  0  0  0  0  0  0  0
   35.9600   29.1520   38.5700 H   0  0  0  0  0  0  0  0  0  0  0  0
   36.6220   30.7820   36.8560 H   0  0  0  0  0  0  0  0  0  0  0  0
   37.9650   32.7630   37.4050 H   0  0  0  0  0  0  0  0  0  0  0  0
   38.3350   34.6480   39.8350 C   0  0  0  0  0  3  0  0  0  0  0  0
   38.8560   33.3730   39.9130 C   0  0  0  0  0  0  0  0  0  0  0  0
   40.1320   33.2660   40.4290 C   0  0  0  0  0  0  0  0  0  0  0  0
   40.5790   32.3070   40.5100 H   0  0  0  0  0  0  0  0  0  0  0  0
   40.8540   34.3560   40.8450 C   0  0  0  0  0  0  0  0  0  0  0  0
   42.0920   34.5030   41.3720 N   0  0  0  0  0  0  0  0  0  0  0  0
   42.7640   33.7170   41.5650 H   0  0  0  0  0  0  0  0  0  0  0  0
   42.3430   35.8220   41.6190 C   0  0  0  0  0  0  0  0  0  0  0  0
   43.2530   36.1960   42.0360 H   0  0  0  0  0  0  0  0  0  0  0  0
   41.2240   36.5700   41.2380 C   0  0  0  0  0  3  0  0  0  0  0  0
   40.3340   35.6280   40.7680 C   0  0  0  0  0  0  0  0  0  0  0  0
   39.0610   35.7680   40.2570 C   0  0  0  0  0  3  0  0  0  0  0  0
  1  2  1  0  0  0  0
  3  1  1  0  0  0  0
  4  1  1  0  0  0  0
  4  5  1  0  0  0  0
  5 10  1  0  0  0  0
  6  5  2  0  0  0  0
  6 13  1  0  0  0  0
  7  6  1  0  0  0  0
  8  9  1  0  0  0  0
  8  7  2  0  0  0  0
  9  4  2  0  0  0  0
 11  8  1  0  0  0  0
 12 13  1  0  0  0  0
 12 16  1  0  0  0  0
 12 17  1  1  0  0  0
 13 18  1  6  0  0  0
 13 14  1  0  0  0  0
 14 15  1  0  0  0  0
 15 19  1  0  0  0  0
 16 21  1  6  0  0  0
 16 24  1  0  0  0  0
 16 15  1  0  0  0  0
 20 15  1  0  0  0  0
 22 12  1  0  0  0  0
 23 22  1  0  0  0  0
 24 25  1  0  0  0  0
 26 27  2  0  0  0  0
 26 28  1  0  0  0  0
 28 29  1  0  0  0  0
 28  1  1  0  0  0  0
 30 35  1  0  0  0  0
 30 26  1  0  0  0  0
 31 30  2  0  0  0  0
 32 33  2  0  0  0  0
 32 31  1  0  0  0  0
 33 34  1  0  0  0  0
 34 40  1  0  0  0  0
 34 35  2  0  0  0  0
 36 31  1  0  0  0  0
 37 32  1  0  0  0  0
 38 33  1  0  0  0  0
 39 40  2  0  0  0  0
 39 50  1  0  0  0  0
 40 41  1  0  0  0  0
 41 42  1  0  0  0  0
 41 43  2  0  0  0  0
 43 44  1  0  0  0  0
 44 45  1  0  0  0  0
 44 46  1  0  0  0  0
 46 47  1  0  0  0  0
 48 46  2  0  0  0  0
 49 43  1  0  0  0  0
 49 48  1  0  0  0  0
 50 49  2  0  0  0  0
M  END
>  <minimizedAffinity>
-7.74117374

$$$$

 OpenBabel03242521473D

 50 54  0  0  1  0  0  0  0  0999 V2000
   43.5920   31.8940   41.1500 C   0  0  0  0  0  0  0  0  0  0  0  0
   44.3590   32.5290   41.6080 H   0  0  0  0  0  0  0  0  0  0  0  0
   43.8890   31.3800   40.2230 H   0  0  0  0  0  0  0  0  0  0  0  0
   42.3220   32.6530   40.8420 C   0  0  0  0  0  0  0  0  0  0  0  0
   41.1470   31.9160   40.6270 C   0  0  0  0  0  0  0  0  0  0  0  0
   39.9500   32.6050   40.3460 C   0  0  0  0  0  0  0  0  0  0  0  0
   39.9990   33.9230   40.2990 N   0  0  0  0  0  0  0  0  0  0  0  0
   41.1400   34.6190   40.5080 C   0  0  0  0  0  0  0  0  0  0  0  0
   42.3050   33.9820   40.7810 N   0  0  0  0  0  0  0  0  0  0  0  0
   41.2400   30.8470   40.6920 H   0  0  0  0  0  0  0  0  0  0  0  0
   41.1210   35.6950   40.4570 H   0  0  0  0  0  0  0  0  0  0  0  0
   37.5050   32.2740   40.6710 C   0  0  2  0  0  0  0  0  0  0  0  0
   38.7790   31.7650   40.1350 C   0  0  2  0  0  0  0  0  0  0  0  0
   38.8670   30.4780   40.7770 O   0  0  0  0  0  0  0  0  0  0  0  0
   37.6150   29.9590   40.4600 C   0  0  0  0  0  0  0  0  0  0  0  0
   36.6200   31.0530   40.3300 C   0  0  1  0  0  0  0  0  0  0  0  0
   37.4920   32.2960   41.7930 H   0  0  0  0  0  0  0  0  0  0  0  0
   38.6720   31.4790   39.0640 H   0  0  0  0  0  0  0  0  0  0  0  0
   37.3060   29.1830   41.1750 H   0  0  0  0  0  0  0  0  0  0  0  0
   37.7170   29.4700   39.4570 H   0  0  0  0  0  0  0  0  0  0  0  0
   36.2540   31.2400   39.3040 H   0  0  0  0  0  0  0  0  0  0  0  0
   37.0670   33.4410   40.1520 O   0  0  0  0  0  0  0  0  0  0  0  0
   36.4780   33.9710   40.7140 H   0  0  0  0  0  0  0  0  0  0  0  0
   35.5740   30.9830   41.2550 O   0  0  0  0  0  0  0  0  0  0  0  0
   35.8030   30.2030   41.8450 H   0  0  0  0  0  0  0  0  0  0  0  0
   44.0660   30.1790   43.0350 C   0  0  0  0  0  0  0  0  0  0  0  0
   45.2500   30.5910   43.0940 O   0  0  0  0  0  0  0  0  0  0  0  0
   43.2280   30.8540   42.0980 N   0  0  0  0  0  0  0  0  0  0  0  0
   42.2070   30.5620   42.0880 H   0  0  0  0  0  0  0  0  0  0  0  0
   43.5180   29.0840   43.8440 C   0  0  0  0  0  0  0  0  0  0  0  0
   44.1540   28.6950   44.9750 C   0  0  0  0  0  0  0  0  0  0  0  0
   43.5550   27.6440   45.6790 C   0  0  0  0  0  0  0  0  0  0  0  0
   42.3750   27.0090   45.2700 C   0  0  0  0  0  0  0  0  0  0  0  0
   41.8160   27.4740   44.1190 C   0  0  0  0  0  0  0  0  0  0  0  0
   42.3640   28.4730   43.4300 N   0  0  0  0  0  0  0  0  0  0  0  0
   45.0510   29.1340   45.3420 H   0  0  0  0  0  0  0  0  0  0  0  0
   44.0130   27.2890   46.5890 H   0  0  0  0  0  0  0  0  0  0  0  0
   41.9430   26.2140   45.8240 H   0  0  0  0  0  0  0  0  0  0  0  0
   39.5130   27.7490   43.3150 C   0  0  0  0  0  3  0  0  0  0  0  0
   40.5870   26.9190   43.5610 C   0  0  0  0  0  0  0  0  0  0  0  0
   40.4110   25.5850   43.2520 C   0  0  0  0  0  0  0  0  0  0  0  0
   41.2070   24.9040   43.4230 H   0  0  0  0  0  0  0  0  0  0  0  0
   39.2400   25.0970   42.7280 C   0  0  0  0  0  0  0  0  0  0  0  0
   38.8350   23.8610   42.3520 N   0  0  0  0  0  0  0  0  0  0  0  0
   39.4220   22.9900   42.4110 H   0  0  0  0  0  0  0  0  0  0  0  0
   37.5540   23.9090   41.8850 C   0  0  0  0  0  0  0  0  0  0  0  0
   37.0090   23.0620   41.5270 H   0  0  0  0  0  0  0  0  0  0  0  0
   37.1000   25.2300   41.9570 C   0  0  0  0  0  3  0  0  0  0  0  0
   38.1690   25.9250   42.4820 C   0  0  0  0  0  0  0  0  0  0  0  0
   38.3140   27.2630   42.7800 C   0  0  0  0  0  3  0  0  0  0  0  0
  1  2  1  0  0  0  0
  1 28  1  0  0  0  0
  3  1  1  0  0  0  0
  4  1  1  0  0  0  0
  5 10  1  0  0  0  0
  5  4  2  0  0  0  0
  6  5  1  0  0  0  0
  7  6  2  0  0  0  0
  7  8  1  0  0  0  0
  8  9  2  0  0  0  0
  9  4  1  0  0  0  0
 11  8  1  0  0  0  0
 12 17  1  1  0  0  0
 13 18  1  6  0  0  0
 13  6  1  0  0  0  0
 13 12  1  0  0  0  0
 13 14  1  0  0  0  0
 15 14  1  0  0  0  0
 15 19  1  0  0  0  0
 16 21  1  6  0  0  0
 16 15  1  0  0  0  0
 16 12  1  0  0  0  0
 16 24  1  0  0  0  0
 20 15  1  0  0  0  0
 22 12  1  0  0  0  0
 22 23  1  0  0  0  0
 24 25  1  0  0  0  0
 26 27  2  0  0  0  0
 26 30  1  0  0  0  0
 28 26  1  0  0  0  0
 29 28  1  0  0  0  0
 30 31  1  0  0  0  0
 31 36  1  0  0  0  0
 31 32  2  0  0  0  0
 32 37  1  0  0  0  0
 33 32  1  0  0  0  0
 33 38  1  0  0  0  0
 34 33  2  0  0  0  0
 35 30  2  0  0  0  0
 35 34  1  0  0  0  0
 39 40  1  0  0  0  0
 40 34  1  0  0  0  0
 41 42  1  0  0  0  0
 41 40  2  0  0  0  0
 43 41  1  0  0  0  0
 44 45  1  0  0  0  0
 44 43  1  0  0  0  0
 46 48  2  0  0  0  0
 46 44  1  0  0  0  0
 47 46  1  0  0  0  0
 48 49  1  0  0  0  0
 49 43  2  0  0  0  0
 49 50  1  0  0  0  0
 50 39  2  0  0  0  0
M  END
>  <minimizedAffinity>
-7.58788538

$$$$

 OpenBabel03242521473D

 50 54  0  0  1  0  0  0  0  0999 V2000
   37.7020   34.3000   39.8180 C   0  0  0  0  0  0  0  0  0  0  0  0
   37.5650   34.2980   38.7310 H   0  0  0  0  0  0  0  0  0  0  0  0
   37.0300   34.9630   40.3830 H   0  0  0  0  0  0  0  0  0  0  0  0
   39.1130   34.6610   40.2220 C   0  0  0  0  0  0  0  0  0  0  0  0
   40.0710   33.6370   40.2640 C   0  0  0  0  0  0  0  0  0  0  0  0
   41.3940   33.9530   40.6310 C   0  0  0  0  0  0  0  0  0  0  0  0
   41.6640   35.2120   40.9190 N   0  0  0  0  0  0  0  0  0  0  0  0
   40.7290   36.1880   40.8740 C   0  0  0  0  0  0  0  0  0  0  0  0
   39.4490   35.9120   40.5240 N   0  0  0  0  0  0  0  0  0  0  0  0
   39.7240   32.6510   40.0090 H   0  0  0  0  0  0  0  0  0  0  0  0
   41.0080   37.2000   41.1200 H   0  0  0  0  0  0  0  0  0  0  0  0
   42.8530   32.4450   41.9700 C   0  0  2  0  0  0  0  0  0  0  0  0
   42.3250   32.8320   40.6510 C   0  0  2  0  0  0  0  0  0  0  0  0
   43.5390   33.0770   39.9150 O   0  0  0  0  0  0  0  0  0  0  0  0
   44.2250   31.8930   40.1730 C   0  0  0  0  0  0  0  0  0  0  0  0
   43.8370   31.3490   41.4990 C   0  0  1  0  0  0  0  0  0  0  0  0
   43.5290   33.2280   42.4060 H   0  0  0  0  0  0  0  0  0  0  0  0
   41.9070   31.9480   40.1170 H   0  0  0  0  0  0  0  0  0  0  0  0
   45.3110   32.0230   40.0650 H   0  0  0  0  0  0  0  0  0  0  0  0
   43.8960   31.1580   39.3940 H   0  0  0  0  0  0  0  0  0  0  0  0
   43.2420   30.4190   41.4730 H   0  0  0  0  0  0  0  0  0  0  0  0
   41.9430   32.0240   42.8740 O   0  0  0  0  0  0  0  0  0  0  0  0
   42.1820   32.1260   43.8100 H   0  0  0  0  0  0  0  0  0  0  0  0
   44.8940   31.2710   42.4120 O   0  0  0  0  0  0  0  0  0  0  0  0
   45.6770   31.6800   41.9350 H   0  0  0  0  0  0  0  0  0  0  0  0
   37.1690   31.7760   39.5690 C   0  0  0  0  0  0  0  0  0  0  0  0
   37.1910   31.9080   38.3220 O   0  0  0  0  0  0  0  0  0  0  0  0
   37.4650   32.9550   40.3160 N   0  0  0  0  0  0  0  0  0  0  0  0
   37.5190   32.8400   41.3700 H   0  0  0  0  0  0  0  0  0  0  0  0
   36.8690   30.5250   40.2750 C   0  0  0  0  0  0  0  0  0  0  0  0
   35.6350   29.9730   40.1800 C   0  0  0  0  0  0  0  0  0  0  0  0
   35.4460   28.7810   40.8880 C   0  0  0  0  0  0  0  0  0  0  0  0
   36.4430   28.1670   41.6560 C   0  0  0  0  0  0  0  0  0  0  0  0
   37.6470   28.8010   41.6870 C   0  0  0  0  0  0  0  0  0  0  0  0
   37.8550   29.9370   41.0220 N   0  0  0  0  0  0  0  0  0  0  0  0
   34.8340   30.3860   39.6150 H   0  0  0  0  0  0  0  0  0  0  0  0
   34.4840   28.2930   40.8510 H   0  0  0  0  0  0  0  0  0  0  0  0
   36.2710   27.2620   42.1830 H   0  0  0  0  0  0  0  0  0  0  0  0
   38.6580   27.1270   43.1710 C   0  0  0  0  0  3  0  0  0  0  0  0
   38.7880   28.2900   42.4400 C   0  0  0  0  0  0  0  0  0  0  0  0
   40.0250   28.9000   42.4790 C   0  0  0  0  0  0  0  0  0  0  0  0
   40.1770   29.7990   41.9350 H   0  0  0  0  0  0  0  0  0  0  0  0
   41.0770   28.3920   43.1990 C   0  0  0  0  0  0  0  0  0  0  0  0
   42.3540   28.7980   43.3900 N   0  0  0  0  0  0  0  0  0  0  0  0
   42.7830   29.6610   42.9680 H   0  0  0  0  0  0  0  0  0  0  0  0
   43.0070   27.9230   44.2090 C   0  0  0  0  0  0  0  0  0  0  0  0
   44.0280   28.0240   44.5110 H   0  0  0  0  0  0  0  0  0  0  0  0
   42.1220   26.9020   44.5710 C   0  0  0  0  0  3  0  0  0  0  0  0
   40.9480   27.2320   43.9280 C   0  0  0  0  0  0  0  0  0  0  0  0
   39.7230   26.5980   43.9080 C   0  0  0  0  0  3  0  0  0  0  0  0
  1  4  1  0  0  0  0
  1 28  1  0  0  0  0
  1  3  1  0  0  0  0
  2  1  1  0  0  0  0
  4  5  2  0  0  0  0
  4  9  1  0  0  0  0
  5  6  1  0  0  0  0
  6 13  1  0  0  0  0
  6  7  2  0  0  0  0
  8  7  1  0  0  0  0
  8 11  1  0  0  0  0
  9  8  2  0  0  0  0
 10  5  1  0  0  0  0
 12 17  1  1  0  0  0
 12 22  1  0  0  0  0
 13 18  1  6  0  0  0
 13 12  1  0  0  0  0
 14 15  1  0  0  0  0
 14 13  1  0  0  0  0
 15 16  1  0  0  0  0
 16 21  1  6  0  0  0
 16 12  1  0  0  0  0
 16 24  1  0  0  0  0
 19 15  1  0  0  0  0
 20 15  1  0  0  0  0
 22 23  1  0  0  0  0
 25 24  1  0  0  0  0
 26 30  1  0  0  0  0
 26 28  1  0  0  0  0
 27 26  2  0  0  0  0
 28 29  1  0  0  0  0
 30 35  1  0  0  0  0
 31 30  2  0  0  0  0
 31 32  1  0  0  0  0
 32 33  2  0  0  0  0
 33 34  1  0  0  0  0
 33 38  1  0  0  0  0
 34 40  1  0  0  0  0
 35 34  2  0  0  0  0
 36 31  1  0  0  0  0
 37 32  1  0  0  0  0
 39 50  1  0  0  0  0
 40 41  1  0  0  0  0
 40 39  2  0  0  0  0
 41 43  2  0  0  0  0
 42 41  1  0  0  0  0
 43 44  1  0  0  0  0
 43 49  1  0  0  0  0
 44 46  1  0  0  0  0
 45 44  1  0  0  0  0
 46 47  1  0  0  0  0
 46 48  2  0  0  0  0
 49 48  1  0  0  0  0
 50 49  2  0  0  0  0
M  END
>  <minimizedAffinity>
-7.58544731

$$$$

 OpenBabel03242521473D

 50 54  0  0  1  0  0  0  0  0999 V2000
   35.9640   30.5300   40.8800 C   0  0  0  0  0  0  0  0  0  0  0  0
   35.1200   30.8130   41.5180 H   0  0  0  0  0  0  0  0  0  0  0  0
   35.7070   30.2320   39.8520 H   0  0  0  0  0  0  0  0  0  0  0  0
   36.7840   29.4060   41.4700 C   0  0  0  0  0  0  0  0  0  0  0  0
   36.6870   28.1370   40.8790 C   0  0  0  0  0  0  0  0  0  0  0  0
   37.4490   27.0760   41.4090 C   0  0  0  0  0  0  0  0  0  0  0  0
   38.2220   27.3380   42.4460 N   0  0  0  0  0  0  0  0  0  0  0  0
   38.3040   28.5660   43.0050 C   0  0  0  0  0  0  0  0  0  0  0  0
   37.5820   29.6040   42.5150 N   0  0  0  0  0  0  0  0  0  0  0  0
   36.0200   28.0540   40.0400 H   0  0  0  0  0  0  0  0  0  0  0  0
   38.9530   28.7210   43.8520 H   0  0  0  0  0  0  0  0  0  0  0  0
   37.3440   24.5960   41.5950 C   0  0  2  0  0  0  0  0  0  0  0  0
   37.2890   25.7930   40.7390 C   0  0  2  0  0  0  0  0  0  0  0  0
   38.3270   25.5090   39.7800 O   0  0  0  0  0  0  0  0  0  0  0  0
   37.9460   24.2320   39.3770 C   0  0  0  0  0  0  0  0  0  0  0  0
   37.2530   23.5260   40.4830 C   0  0  1  0  0  0  0  0  0  0  0  0
   38.3650   24.4290   42.0300 H   0  0  0  0  0  0  0  0  0  0  0  0
   36.3780   25.7800   40.0990 H   0  0  0  0  0  0  0  0  0  0  0  0
   38.7980   23.6640   38.9750 H   0  0  0  0  0  0  0  0  0  0  0  0
   37.2090   24.3670   38.5440 H   0  0  0  0  0  0  0  0  0  0  0  0
   36.1710   23.3580   40.3330 H   0  0  0  0  0  0  0  0  0  0  0  0
   36.3860   24.5000   42.5410 O   0  0  0  0  0  0  0  0  0  0  0  0
   36.6020   23.9650   43.3240 H   0  0  0  0  0  0  0  0  0  0  0  0
   37.9070   22.3690   40.9180 O   0  0  0  0  0  0  0  0  0  0  0  0
   38.7570   22.3380   40.3850 H   0  0  0  0  0  0  0  0  0  0  0  0
   37.4300   32.2290   39.5830 C   0  0  0  0  0  0  0  0  0  0  0  0
   37.0520   31.7110   38.5040 O   0  0  0  0  0  0  0  0  0  0  0  0
   36.8580   31.6710   40.7650 N   0  0  0  0  0  0  0  0  0  0  0  0
   37.1150   32.1460   41.6790 H   0  0  0  0  0  0  0  0  0  0  0  0
   38.3890   33.3340   39.6910 C   0  0  0  0  0  0  0  0  0  0  0  0
   37.9580   34.5750   40.0240 C   0  0  0  0  0  0  0  0  0  0  0  0
   38.9480   35.5620   40.1020 C   0  0  0  0  0  0  0  0  0  0  0  0
   40.3060   35.3210   39.8590 C   0  0  0  0  0  0  0  0  0  0  0  0
   40.6350   34.0410   39.5310 C   0  0  0  0  0  0  0  0  0  0  0  0
   39.7140   33.0820   39.4490 N   0  0  0  0  0  0  0  0  0  0  0  0
   36.9440   34.8260   40.2220 H   0  0  0  0  0  0  0  0  0  0  0  0
   38.6670   36.5710   40.3630 H   0  0  0  0  0  0  0  0  0  0  0  0
   41.0340   36.0890   39.9250 H   0  0  0  0  0  0  0  0  0  0  0  0
   42.6670   32.8020   40.1330 C   0  0  0  0  0  3  0  0  0  0  0  0
   42.0060   33.6280   39.2490 C   0  0  0  0  0  0  0  0  0  0  0  0
   42.7140   34.0140   38.1290 C   0  0  0  0  0  0  0  0  0  0  0  0
   42.2520   34.6510   37.4160 H   0  0  0  0  0  0  0  0  0  0  0  0
   44.0040   33.6070   37.8940 C   0  0  0  0  0  0  0  0  0  0  0  0
   44.8860   33.8450   36.8950 N   0  0  0  0  0  0  0  0  0  0  0  0
   44.6960   34.4450   36.0520 H   0  0  0  0  0  0  0  0  0  0  0  0
   46.0590   33.1920   37.1400 C   0  0  0  0  0  0  0  0  0  0  0  0
   46.9130   33.2230   36.4970 H   0  0  0  0  0  0  0  0  0  0  0  0
   45.9420   32.4980   38.3490 C   0  0  0  0  0  3  0  0  0  0  0  0
   44.6630   32.7820   38.7770 C   0  0  0  0  0  0  0  0  0  0  0  0
   43.9810   32.3790   39.9060 C   0  0  0  0  0  3  0  0  0  0  0  0
  1  4  1  0  0  0  0
  1  2  1  0  0  0  0
  3  1  1  0  0  0  0
  4  9  1  0  0  0  0
  5  6  1  0  0  0  0
  5  4  2  0  0  0  0
  6  7  2  0  0  0  0
  7  8  1  0  0  0  0
  8 11  1  0  0  0  0
  9  8  2  0  0  0  0
 10  5  1  0  0  0  0
 12 17  1  1  0  0  0
 12 22  1  0  0  0  0
 13 18  1  6  0  0  0
 13  6  1  0  0  0  0
 13 12  1  0  0  0  0
 14 13  1  0  0  0  0
 15 14  1  0  0  0  0
 15 16  1  0  0  0  0
 16 21  1  6  0  0  0
 16 24  1  0  0  0  0
 16 12  1  0  0  0  0
 19 15  1  0  0  0  0
 20 15  1  0  0  0  0
 22 23  1  0  0  0  0
 25 24  1  0  0  0  0
 26 30  1  0  0  0  0
 26 28  1  0  0  0  0
 27 26  2  0  0  0  0
 28  1  1  0  0  0  0
 28 29  1  0  0  0  0
 30 31  1  0  0  0  0
 31 32  2  0  0  0  0
 31 36  1  0  0  0  0
 32 37  1  0  0  0  0
 33 38  1  0  0  0  0
 33 32  1  0  0  0  0
 34 33  2  0  0  0  0
 35 34  1  0  0  0  0
 35 30  2  0  0  0  0
 40 34  1  0  0  0  0
 40 39  2  0  0  0  0
 41 40  1  0  0  0  0
 42 41  1  0  0  0  0
 43 41  2  0  0  0  0
 43 49  1  0  0  0  0
 44 46  1  0  0  0  0
 44 43  1  0  0  0  0
 45 44  1  0  0  0  0
 46 48  2  0  0  0  0
 47 46  1  0  0  0  0
 48 49  1  0  0  0  0
 49 50  2  0  0  0  0
 50 39  1  0  0  0  0
M  END
>  <minimizedAffinity>
-7.56126118

$$$$

 OpenBabel03242521473D

 50 54  0  0  1  0  0  0  0  0999 V2000
   36.3820   30.2400   41.4600 C   0  0  0  0  0  0  0  0  0  0  0  0
   35.3250   30.0840   41.2190 H   0  0  0  0  0  0  0  0  0  0  0  0
   36.5850   30.9050   42.3130 H   0  0  0  0  0  0  0  0  0  0  0  0
   37.1690   30.7800   40.2870 C   0  0  0  0  0  0  0  0  0  0  0  0
   37.7670   32.0420   40.4180 C   0  0  0  0  0  0  0  0  0  0  0  0
   38.5110   32.5610   39.3390 C   0  0  0  0  0  0  0  0  0  0  0  0
   38.6060   31.8210   38.2500 N   0  0  0  0  0  0  0  0  0  0  0  0
   38.0220   30.6060   38.1400 C   0  0  0  0  0  0  0  0  0  0  0  0
   37.3010   30.0840   39.1620 N   0  0  0  0  0  0  0  0  0  0  0  0
   37.6150   32.5450   41.3560 H   0  0  0  0  0  0  0  0  0  0  0  0
   38.1330   30.0470   37.2250 H   0  0  0  0  0  0  0  0  0  0  0  0
   40.5610   33.9710   39.4190 C   0  0  2  0  0  0  0  0  0  0  0  0
   39.0980   33.8760   39.5570 C   0  0  2  0  0  0  0  0  0  0  0  0
   38.9010   34.3830   40.8920 O   0  0  0  0  0  0  0  0  0  0  0  0
   39.6100   35.5780   40.8080 C   0  0  0  0  0  0  0  0  0  0  0  0
   40.7260   35.4500   39.8370 C   0  0  1  0  0  0  0  0  0  0  0  0
   41.1030   33.4130   40.2280 H   0  0  0  0  0  0  0  0  0  0  0  0
   38.5910   34.6540   38.9410 H   0  0  0  0  0  0  0  0  0  0  0  0
   39.9420   35.9220   41.7980 H   0  0  0  0  0  0  0  0  0  0  0  0
   38.8970   36.3440   40.4080 H   0  0  0  0  0  0  0  0  0  0  0  0
   40.6090   36.0280   38.9030 H   0  0  0  0  0  0  0  0  0  0  0  0
   41.0620   33.6780   38.2000 O   0  0  0  0  0  0  0  0  0  0  0  0
   41.9830   33.3670   38.1730 H   0  0  0  0  0  0  0  0  0  0  0  0
   41.9930   35.6180   40.4030 O   0  0  0  0  0  0  0  0  0  0  0  0
   41.8240   35.7300   41.3860 H   0  0  0  0  0  0  0  0  0  0  0  0
   38.0820   28.6880   42.6510 C   0  0  0  0  0  0  0  0  0  0  0  0
   38.5540   29.6850   43.2490 O   0  0  0  0  0  0  0  0  0  0  0  0
   36.9750   28.9540   41.7920 N   0  0  0  0  0  0  0  0  0  0  0  0
   36.5220   28.1090   41.3350 H   0  0  0  0  0  0  0  0  0  0  0  0
   38.5870   27.3160   42.7820 C   0  0  0  0  0  0  0  0  0  0  0  0
   39.5730   27.0400   43.6690 C   0  0  0  0  0  0  0  0  0  0  0  0
   39.9870   25.7040   43.7210 C   0  0  0  0  0  0  0  0  0  0  0  0
   39.4430   24.6900   42.9230 C   0  0  0  0  0  0  0  0  0  0  0  0
   38.4590   25.0720   42.0630 C   0  0  0  0  0  0  0  0  0  0  0  0
   38.0450   26.3360   41.9930 N   0  0  0  0  0  0  0  0  0  0  0  0
   40.0290   27.7600   44.3050 H   0  0  0  0  0  0  0  0  0  0  0  0
   40.7690   25.4200   44.4090 H   0  0  0  0  0  0  0  0  0  0  0  0
   39.7770   23.6850   42.9830 H   0  0  0  0  0  0  0  0  0  0  0  0
   36.5120   24.4070   40.7240 C   0  0  0  0  0  3  0  0  0  0  0  0
   37.7910   24.1360   41.1650 C   0  0  0  0  0  0  0  0  0  0  0  0
   38.3580   22.9640   40.7080 C   0  0  0  0  0  0  0  0  0  0  0  0
   39.3410   22.7080   41.0180 H   0  0  0  0  0  0  0  0  0  0  0  0
   37.7010   22.1050   39.8640 C   0  0  0  0  0  0  0  0  0  0  0  0
   38.0370   20.9250   39.2930 N   0  0  0  0  0  0  0  0  0  0  0  0
   38.9570   20.4300   39.4250 H   0  0  0  0  0  0  0  0  0  0  0  0
   37.0100   20.4670   38.5200 C   0  0  0  0  0  0  0  0  0  0  0  0
   37.0310   19.5540   37.9640 H   0  0  0  0  0  0  0  0  0  0  0  0
   35.9560   21.3850   38.5860 C   0  0  0  0  0  3  0  0  0  0  0  0
   36.4250   22.3750   39.4240 C   0  0  0  0  0  0  0  0  0  0  0  0
   35.8310   23.5400   39.8620 C   0  0  0  0  0  3  0  0  0  0  0  0
  1 28  1  0  0  0  0
  1  3  1  0  0  0  0
  2  1  1  0  0  0  0
  4  5  1  0  0  0  0
  4  1  1  0  0  0  0
  5 10  1  0  0  0  0
  6 13  1  0  0  0  0
  6  5  2  0  0  0  0
  7  6  1  0  0  0  0
  8  7  2  0  0  0  0
  8  9  1  0  0  0  0
  9  4  2  0  0  0  0
 11  8  1  0  0  0  0
 12 13  1  0  0  0  0
 12 16  1  0  0  0  0
 12 17  1  1  0  0  0
 13 18  1  6  0  0  0
 13 14  1  0  0  0  0
 15 14  1  0  0  0  0
 15 19  1  0  0  0  0
 16 21  1  6  0  0  0
 16 24  1  0  0  0  0
 16 15  1  0  0  0  0
 20 15  1  0  0  0  0
 22 12  1  0  0  0  0
 23 22  1  0  0  0  0
 24 25  1  0  0  0  0
 26 30  1  0  0  0  0
 26 27  2  0  0  0  0
 28 26  1  0  0  0  0
 29 28  1  0  0  0  0
 30 31  1  0  0  0  0
 31 32  2  0  0  0  0
 31 36  1  0  0  0  0
 32 37  1  0  0  0  0
 33 38  1  0  0  0  0
 33 32  1  0  0  0  0
 34 33  2  0  0  0  0
 35 34  1  0  0  0  0
 35 30  2  0  0  0  0
 39 40  1  0  0  0  0
 40 34  1  0  0  0  0
 41 42  1  0  0  0  0
 41 40  2  0  0  0  0
 43 41  1  0  0  0  0
 44 45  1  0  0  0  0
 44 43  1  0  0  0  0
 46 48  2  0  0  0  0
 46 44  1  0  0  0  0
 47 46  1  0  0  0  0
 48 49  1  0  0  0  0
 49 50  1  0  0  0  0
 49 43  2  0  0  0  0
 50 39  2  0  0  0  0
M  END
>  <minimizedAffinity>
-7.40769768

$$$$

 OpenBabel03242521473D

 50 54  0  0  1  0  0  0  0  0999 V2000
   43.7100   32.1410   42.7380 C   0  0  0  0  0  0  0  0  0  0  0  0
   44.5600   32.3160   42.0700 H   0  0  0  0  0  0  0  0  0  0  0  0
   43.7770   32.6100   43.7310 H   0  0  0  0  0  0  0  0  0  0  0  0
   43.4460   30.6700   42.9650 C   0  0  0  0  0  0  0  0  0  0  0  0
   42.1220   30.2150   42.8840 C   0  0  0  0  0  0  0  0  0  0  0  0
   41.8560   28.8460   43.0850 C   0  0  0  0  0  0  0  0  0  0  0  0
   42.8810   28.0550   43.3430 N   0  0  0  0  0  0  0  0  0  0  0  0
   44.1520   28.5090   43.4180 C   0  0  0  0  0  0  0  0  0  0  0  0
   44.4360   29.8210   43.2290 N   0  0  0  0  0  0  0  0  0  0  0  0
   41.3770   30.9600   42.6680 H   0  0  0  0  0  0  0  0  0  0  0  0
   44.9500   27.8170   43.6330 H   0  0  0  0  0  0  0  0  0  0  0  0
   40.1510   27.0390   43.2330 C   0  0  2  0  0  0  0  0  0  0  0  0
   40.4550   28.4580   42.9840 C   0  0  2  0  0  0  0  0  0  0  0  0
   39.8970   28.6460   41.6690 O   0  0  0  0  0  0  0  0  0  0  0  0
   38.6170   28.1370   41.8710 C   0  0  0  0  0  0  0  0  0  0  0  0
   38.6390   27.0790   42.9110 C   0  0  1  0  0  0  0  0  0  0  0  0
   40.5660   26.3660   42.4360 H   0  0  0  0  0  0  0  0  0  0  0  0
   39.8050   29.1170   43.6040 H   0  0  0  0  0  0  0  0  0  0  0  0
   38.1620   27.8000   40.9280 H   0  0  0  0  0  0  0  0  0  0  0  0
   37.9950   28.9840   42.2590 H   0  0  0  0  0  0  0  0  0  0  0  0
   38.1480   27.3430   43.8650 H   0  0  0  0  0  0  0  0  0  0  0  0
   40.4450   26.5770   44.4670 O   0  0  0  0  0  0  0  0  0  0  0  0
   40.6140   25.6220   44.5440 H   0  0  0  0  0  0  0  0  0  0  0  0
   38.2440   25.8200   42.4500 O   0  0  0  0  0  0  0  0  0  0  0  0
   38.0940   25.9410   41.4640 H   0  0  0  0  0  0  0  0  0  0  0  0
   42.4060   33.7780   41.2080 C   0  0  0  0  0  0  0  0  0  0  0  0
   43.4940   34.2950   40.8570 O   0  0  0  0  0  0  0  0  0  0  0  0
   42.5130   32.6790   42.1110 N   0  0  0  0  0  0  0  0  0  0  0  0
   41.6050   32.1880   42.3610 H   0  0  0  0  0  0  0  0  0  0  0  0
   41.0830   34.2240   40.7580 C   0  0  0  0  0  0  0  0  0  0  0  0
   40.8070   35.5480   40.6720 C   0  0  0  0  0  0  0  0  0  0  0  0
   39.5190   35.8740   40.2340 C   0  0  0  0  0  0  0  0  0  0  0  0
   38.5490   34.9220   39.8970 C   0  0  0  0  0  0  0  0  0  0  0  0
   38.9250   33.6190   40.0190 C   0  0  0  0  0  0  0  0  0  0  0  0
   40.1450   33.2800   40.4330 N   0  0  0  0  0  0  0  0  0  0  0  0
   41.4970   36.3220   40.9110 H   0  0  0  0  0  0  0  0  0  0  0  0
   39.2400   36.9130   40.1440 H   0  0  0  0  0  0  0  0  0  0  0  0
   37.5790   35.1980   39.5680 H   0  0  0  0  0  0  0  0  0  0  0  0
   37.9720   32.0200   38.4180 C   0  0  0  0  0  3  0  0  0  0  0  0
   38.0310   32.5090   39.7070 C   0  0  0  0  0  0  0  0  0  0  0  0
   37.2130   31.8910   40.6320 C   0  0  0  0  0  0  0  0  0  0  0  0
   37.2200   32.2290   41.6380 H   0  0  0  0  0  0  0  0  0  0  0  0
   36.3830   30.8480   40.3040 C   0  0  0  0  0  0  0  0  0  0  0  0
   35.5090   30.0980   41.0150 N   0  0  0  0  0  0  0  0  0  0  0  0
   35.3110   30.2120   42.0420 H   0  0  0  0  0  0  0  0  0  0  0  0
   34.9220   29.1690   40.2060 C   0  0  0  0  0  0  0  0  0  0  0  0
   34.1940   28.4570   40.5320 H   0  0  0  0  0  0  0  0  0  0  0  0
   35.4300   29.3170   38.9110 C   0  0  0  0  0  3  0  0  0  0  0  0
   36.3250   30.3610   39.0180 C   0  0  0  0  0  0  0  0  0  0  0  0
   37.1300   30.9570   38.0710 C   0  0  0  0  0  3  0  0  0  0  0  0
  1  4  1  0  0  0  0
  1  3  1  0  0  0  0
  2  1  1  0  0  0  0
  4  9  1  0  0  0  0
  5  4  2  0  0  0  0
  5  6  1  0  0  0  0
  6  7  2  0  0  0  0
  7  8  1  0  0  0  0
  8 11  1  0  0  0  0
  9  8  2  0  0  0  0
 10  5  1  0  0  0  0
 12 17  1  6  0  0  0
 12 22  1  0  0  0  0
 13  6  1  0  0  0  0
 13 12  1  0  0  0  0
 13 18  1  1  0  0  0
 14 15  1  0  0  0  0
 14 13  1  0  0  0  0
 15 20  1  0  0  0  0
 15 16  1  0  0  0  0
 16 12  1  0  0  0  0
 16 21  1  1  0  0  0
 19 15  1  0  0  0  0
 22 23  1  0  0  0  0
 24 16  1  0  0  0  0
 25 24  1  0  0  0  0
 26 28  1  0  0  0  0
 27 26  2  0  0  0  0
 28 29  1  0  0  0  0
 28  1  1  0  0  0  0
 30 26  1  0  0  0  0
 31 30  1  0  0  0  0
 31 36  1  0  0  0  0
 32 31  2  0  0  0  0
 33 34  2  0  0  0  0
 33 32  1  0  0  0  0
 34 35  1  0  0  0  0
 35 30  2  0  0  0  0
 37 32  1  0  0  0  0
 38 33  1  0  0  0  0
 39 40  1  0  0  0  0
 40 34  1  0  0  0  0
 40 41  2  0  0  0  0
 41 42  1  0  0  0  0
 43 41  1  0  0  0  0
 43 44  1  0  0  0  0
 44 45  1  0  0  0  0
 46 47  1  0  0  0  0
 46 44  1  0  0  0  0
 48 49  1  0  0  0  0
 48 46  2  0  0  0  0
 49 43  2  0  0  0  0
 50 39  2  0  0  0  0
 50 49  1  0  0  0  0
M  END
>  <minimizedAffinity>
-7.39051056

$$$$
