
 OpenBabel03252507593D

 32 35  0  0  1  0  0  0  0  0999 V2000
   45.5740   33.9700   43.1150 C   0  0  0  0  0  0  0  0  0  0  0  0
   45.5030   35.4020   43.1070 C   0  0  0  0  0  0  0  0  0  0  0  0
   44.4820   35.9710   42.3180 C   0  0  0  0  0  0  0  0  0  0  0  0
   43.6540   35.1450   41.6350 N   0  0  0  0  0  0  0  0  0  0  0  0
   43.7950   33.7900   41.7000 C   0  0  0  0  0  0  0  0  0  0  0  0
   44.7240   33.1880   42.4150 N   0  0  0  0  0  0  0  0  0  0  0  0
   46.1800   36.0320   43.6650 H   0  0  0  0  0  0  0  0  0  0  0  0
   44.4230   37.0460   42.3100 H   0  0  0  0  0  0  0  0  0  0  0  0
   42.8250   32.9520   40.9160 C   0  0  1  0  0  0  0  0  0  0  0  0
   41.8660   32.0530   41.6640 C   0  0  0  0  0  0  0  0  0  0  0  0
   41.4070   33.3490   41.0460 C   0  0  1  0  0  0  0  0  0  0  0  0
   43.1590   32.5980   39.9170 H   0  0  0  0  0  0  0  0  0  0  0  0
   42.1150   31.9870   42.7420 H   0  0  0  0  0  0  0  0  0  0  0  0
   41.6420   31.1060   41.1750 H   0  0  0  0  0  0  0  0  0  0  0  0
   40.6730   33.2390   40.2500 H   0  0  0  0  0  0  0  0  0  0  0  0
   41.0310   34.3340   42.0760 N   0  0  0  0  0  0  0  0  0  0  0  0
   40.7780   35.2450   41.6850 H   0  0  0  0  0  0  0  0  0  0  0  0
   40.3620   33.8590   42.6890 H   0  0  0  0  0  0  0  0  0  0  0  0
   46.6320   33.4930   43.9560 C   0  0  0  0  0  0  0  0  0  0  0  0
   47.8430   33.3330   43.5670 O   0  0  0  0  0  0  0  0  0  0  0  0
   45.4090   33.9830   46.1930 C   0  0  0  0  0  3  0  0  0  0  0  0
   46.1120   33.2230   45.2890 C   0  0  0  0  0  0  0  0  0  0  0  0
   46.3770   31.8900   45.6400 C   0  0  0  0  0  0  0  0  0  0  0  0
   46.9180   31.1830   45.0180 H   0  0  0  0  0  0  0  0  0  0  0  0
   45.9610   31.3360   46.8320 C   0  0  0  0  0  0  0  0  0  0  0  0
   46.0830   30.0920   47.3830 N   0  0  0  0  0  0  0  0  0  0  0  0
   46.5650   29.2730   46.9460 H   0  0  0  0  0  0  0  0  0  0  0  0
   45.4760   30.0860   48.5840 C   0  0  0  0  0  0  0  0  0  0  0  0
   45.3930   29.2640   49.2770 H   0  0  0  0  0  0  0  0  0  0  0  0
   44.9370   31.3500   48.8430 C   0  0  0  0  0  3  0  0  0  0  0  0
   45.2560   32.1090   47.7310 C   0  0  0  0  0  0  0  0  0  0  0  0
   44.9980   33.4320   47.3780 C   0  0  0  0  0  3  0  0  0  0  0  0
  1 19  1  0  0  0  0
  2  1  1  0  0  0  0
  2  7  1  0  0  0  0
  3  2  2  0  0  0  0
  4  5  2  0  0  0  0
  4  3  1  0  0  0  0
  5  6  1  0  0  0  0
  6  1  2  0  0  0  0
  8  3  1  0  0  0  0
  9 12  1  6  0  0  0
  9 11  1  0  0  0  0
  9 10  1  0  0  0  0
  9  5  1  0  0  0  0
 10 13  1  0  0  0  0
 11 15  1  6  0  0  0
 11 10  1  0  0  0  0
 11 16  1  0  0  0  0
 14 10  1  0  0  0  0
 16 18  1  0  0  0  0
 17 16  1  0  0  0  0
 19 22  1  0  0  0  0
 20 19  2  0  0  0  0
 21 32  1  0  0  0  0
 22 23  1  0  0  0  0
 22 21  2  0  0  0  0
 23 25  2  0  0  0  0
 24 23  1  0  0  0  0
 25 26  1  0  0  0  0
 25 31  1  0  0  0  0
 26 28  1  0  0  0  0
 27 26  1  0  0  0  0
 28 30  2  0  0  0  0
 28 29  1  0  0  0  0
 31 30  1  0  0  0  0
 32 31  2  0  0  0  0
M  END
>  <minimizedAffinity>
-5.26145601

>  <minimizedRMSD>
6.97483635

$$$$
