
 OpenBabel03252507593D

 32 35  0  0  1  0  0  0  0  0999 V2000
   47.5690   34.2200   43.1580 C   0  0  0  0  0  0  0  0  0  0  0  0
   46.4030   34.9440   42.7450 C   0  0  0  0  0  0  0  0  0  0  0  0
   45.2130   34.6640   43.4500 C   0  0  0  0  0  0  0  0  0  0  0  0
   45.2500   33.7500   44.4480 N   0  0  0  0  0  0  0  0  0  0  0  0
   46.4070   33.1060   44.7750 C   0  0  0  0  0  0  0  0  0  0  0  0
   47.5560   33.3150   44.1620 N   0  0  0  0  0  0  0  0  0  0  0  0
   46.4070   35.6670   41.9440 H   0  0  0  0  0  0  0  0  0  0  0  0
   44.3350   35.2070   43.1440 H   0  0  0  0  0  0  0  0  0  0  0  0
   46.3580   32.1150   45.9030 C   0  0  1  0  0  0  0  0  0  0  0  0
   47.0140   32.4710   47.2180 C   0  0  0  0  0  0  0  0  0  0  0  0
   45.5160   32.5150   47.0510 C   0  0  1  0  0  0  0  0  0  0  0  0
   46.3520   31.0390   45.6260 H   0  0  0  0  0  0  0  0  0  0  0  0
   47.6280   33.3900   47.1390 H   0  0  0  0  0  0  0  0  0  0  0  0
   47.4800   31.6390   47.7430 H   0  0  0  0  0  0  0  0  0  0  0  0
   44.9680   31.8110   47.6730 H   0  0  0  0  0  0  0  0  0  0  0  0
   45.0070   33.8970   47.1180 N   0  0  0  0  0  0  0  0  0  0  0  0
   44.0020   33.9610   46.9420 H   0  0  0  0  0  0  0  0  0  0  0  0
   45.3810   34.2930   47.9850 H   0  0  0  0  0  0  0  0  0  0  0  0
   48.7240   34.5860   42.3930 C   0  0  0  0  0  0  0  0  0  0  0  0
   49.7380   35.2060   42.8740 O   0  0  0  0  0  0  0  0  0  0  0  0
   48.1780   34.8060   39.8650 C   0  0  0  0  0  3  0  0  0  0  0  0
   48.5540   34.1530   41.0140 C   0  0  0  0  0  0  0  0  0  0  0  0
   48.9060   32.7980   40.8960 C   0  0  0  0  0  0  0  0  0  0  0  0
   49.2220   32.1670   41.7210 H   0  0  0  0  0  0  0  0  0  0  0  0
   48.8870   32.1250   39.6930 C   0  0  0  0  0  0  0  0  0  0  0  0
   49.1880   30.8440   39.3290 N   0  0  0  0  0  0  0  0  0  0  0  0
   49.5120   30.0840   39.9700 H   0  0  0  0  0  0  0  0  0  0  0  0
   49.0050   30.7130   38.0030 C   0  0  0  0  0  0  0  0  0  0  0  0
   49.1520   29.8310   37.3990 H   0  0  0  0  0  0  0  0  0  0  0  0
   48.5730   31.9300   37.4660 C   0  0  0  0  0  3  0  0  0  0  0  0
   48.5090   32.7930   38.5460 C   0  0  0  0  0  0  0  0  0  0  0  0
   48.1600   34.1370   38.6710 C   0  0  0  0  0  3  0  0  0  0  0  0
  1  6  1  0  0  0  0
  2  1  2  0  0  0  0
  2  3  1  0  0  0  0
  3  4  2  0  0  0  0
  4  5  1  0  0  0  0
  5  9  1  0  0  0  0
  6  5  2  0  0  0  0
  7  2  1  0  0  0  0
  8  3  1  0  0  0  0
  9 12  1  6  0  0  0
  9 11  1  0  0  0  0
  9 10  1  0  0  0  0
 10 14  1  0  0  0  0
 11 16  1  0  0  0  0
 11 10  1  0  0  0  0
 11 15  1  1  0  0  0
 13 10  1  0  0  0  0
 16 18  1  0  0  0  0
 17 16  1  0  0  0  0
 19 20  2  0  0  0  0
 19  1  1  0  0  0  0
 21 22  1  0  0  0  0
 22 19  1  0  0  0  0
 23 22  2  0  0  0  0
 23 24  1  0  0  0  0
 25 23  1  0  0  0  0
 26 25  1  0  0  0  0
 26 27  1  0  0  0  0
 28 26  1  0  0  0  0
 29 28  1  0  0  0  0
 30 28  2  0  0  0  0
 30 31  1  0  0  0  0
 31 32  1  0  0  0  0
 31 25  2  0  0  0  0
 32 21  2  0  0  0  0
M  END
>  <minimizedAffinity>
-5.52397966

>  <minimizedRMSD>
2.99512172

$$$$
