REMARK  Name = 
REMARK  3 active torsions:
REMARK  status: ('A' for Active; 'I' for Inactive)
REMARK    1  A    between atoms: C_2  and  C_13
REMARK    2  A    between atoms: C_3  and  C_7
REMARK    3  A    between atoms: C_13  and  C_22
REMARK                            x       y       z     vdW  Elec       q    Type
REMARK                         _______ _______ _______ _____ _____    ______ ____
ROOT
ATOM      1  C   UNL     1      45.270  36.164  43.173  0.00  0.00    +0.000 A 
ATOM      2  C   UNL     1      45.864  34.914  42.908  0.00  0.00    +0.000 A 
ATOM      3  C   UNL     1      45.825  33.946  43.894  0.00  0.00    +0.000 A 
ATOM      4  N   UNL     1      45.226  34.231  45.060  0.00  0.00    +0.000 NA
ATOM      5  C   UNL     1      44.649  35.438  45.322  0.00  0.00    +0.000 A 
ATOM      6  N   UNL     1      44.687  36.376  44.367  0.00  0.00    +0.000 NA
ATOM      7  H   UNL     1      45.264  36.968  42.447  0.00  0.00    +0.000 HD
ATOM      8  H   UNL     1      44.221  35.471  46.315  0.00  0.00    +0.000 HD
ENDROOT
BRANCH   3   9
ATOM      9  C   UNL     1      46.436  32.653  43.629  0.00  0.00    +0.000 A 
ATOM     10  C   UNL     1      45.668  31.568  43.296  0.00  0.00    +0.000 A 
ATOM     11  C   UNL     1      46.269  30.360  43.050  0.00  0.00    +0.000 A 
ATOM     12  C   UNL     1      47.660  30.190  43.127  0.00  0.00    +0.000 A 
ATOM     13  C   UNL     1      48.385  31.312  43.464  0.00  0.00    +0.000 A 
ATOM     14  N   UNL     1      47.773  32.488  43.702  0.00  0.00    +0.000 NA
ATOM     15  H   UNL     1      44.605  31.612  43.217  0.00  0.00    +0.000 HD
ATOM     16  H   UNL     1      45.738  29.449  42.781  0.00  0.00    +0.000 HD
ATOM     17  H   UNL     1      48.235  29.292  42.956  0.00  0.00    +0.000 HD
ATOM     18  H   UNL     1      49.474  31.399  43.578  0.00  0.00    +0.000 HD
ENDBRANCH   3   9
BRANCH   2  19
ATOM     19  C   UNL     1      46.487  34.684  41.636  0.00  0.00    +0.000 C 
ATOM     20  O   UNL     1      47.670  35.134  41.482  0.00  0.00    +0.000 OA
BRANCH  19  22
ATOM     21  C   UNL     1      46.569  33.877  39.289  0.00  0.00    +0.000 A 
ATOM     22  C   UNL     1      45.908  33.987  40.496  0.00  0.00    +0.000 A 
ATOM     23  C   UNL     1      44.637  33.439  40.698  0.00  0.00    +0.000 A 
ATOM     24  H   UNL     1      44.114  33.523  41.642  0.00  0.00    +0.000 HD
ATOM     25  C   UNL     1      44.049  32.768  39.624  0.00  0.00    +0.000 A 
ATOM     26  N   UNL     1      42.844  32.141  39.516  0.00  0.00    +0.000 N 
ATOM     27  H   UNL     1      42.098  32.039  40.245  0.00  0.00    +0.000 HD
ATOM     28  C   UNL     1      42.749  31.644  38.260  0.00  0.00    +0.000 A 
ATOM     29  H   UNL     1      41.904  31.091  37.865  0.00  0.00    +0.000 HD
ATOM     30  C   UNL     1      43.911  31.954  37.542  0.00  0.00    +0.000 A 
ATOM     31  C   UNL     1      44.737  32.670  38.417  0.00  0.00    +0.000 A 
ATOM     32  C   UNL     1      45.996  33.217  38.228  0.00  0.00    +0.000 A 
ENDBRANCH  19  22
ENDBRANCH   2  19
TORSDOF 3
