
 OpenBabel03252507593D

 32 35  0  0  1  0  0  0  0  0999 V2000
   46.1480   34.7170   43.2770 C   0  0  0  0  0  0  0  0  0  0  0  0
   45.2610   35.7870   43.6240 C   0  0  0  0  0  0  0  0  0  0  0  0
   44.6300   35.6920   44.8830 C   0  0  0  0  0  0  0  0  0  0  0  0
   44.9000   34.6180   45.6630 N   0  0  0  0  0  0  0  0  0  0  0  0
   45.7610   33.6430   45.2510 C   0  0  0  0  0  0  0  0  0  0  0  0
   46.3850   33.6650   44.0910 N   0  0  0  0  0  0  0  0  0  0  0  0
   45.0670   36.6310   42.9780 H   0  0  0  0  0  0  0  0  0  0  0  0
   43.9630   36.4940   45.1490 H   0  0  0  0  0  0  0  0  0  0  0  0
   46.0080   32.4930   46.1860 C   0  0  1  0  0  0  0  0  0  0  0  0
   46.8410   32.7260   47.4270 C   0  0  0  0  0  0  0  0  0  0  0  0
   45.3410   32.6010   47.5010 C   0  0  1  0  0  0  0  0  0  0  0  0
   46.0650   31.4800   45.7330 H   0  0  0  0  0  0  0  0  0  0  0  0
   47.3350   33.7180   47.4130 H   0  0  0  0  0  0  0  0  0  0  0  0
   47.4740   31.8910   47.7220 H   0  0  0  0  0  0  0  0  0  0  0  0
   44.9830   31.7450   48.0690 H   0  0  0  0  0  0  0  0  0  0  0  0
   44.7120   33.8790   47.8820 N   0  0  0  0  0  0  0  0  0  0  0  0
   43.6900   33.8380   47.8760 H   0  0  0  0  0  0  0  0  0  0  0  0
   45.1870   34.1820   48.7360 H   0  0  0  0  0  0  0  0  0  0  0  0
   46.7470   34.9170   41.9900 C   0  0  0  0  0  0  0  0  0  0  0  0
   47.8430   35.5540   41.7990 O   0  0  0  0  0  0  0  0  0  0  0  0
   46.1780   33.3520   39.9990 C   0  0  0  0  0  3  0  0  0  0  0  0
   45.9220   34.2950   40.9650 C   0  0  0  0  0  0  0  0  0  0  0  0
   44.6020   34.7610   41.0720 C   0  0  0  0  0  0  0  0  0  0  0  0
   44.2630   35.5020   41.7910 H   0  0  0  0  0  0  0  0  0  0  0  0
   43.5830   34.3110   40.2580 C   0  0  0  0  0  0  0  0  0  0  0  0
   42.2510   34.5960   40.1760 N   0  0  0  0  0  0  0  0  0  0  0  0
   41.7310   35.2760   40.7770 H   0  0  0  0  0  0  0  0  0  0  0  0
   41.7050   33.8550   39.1950 C   0  0  0  0  0  0  0  0  0  0  0  0
   40.6770   33.8420   38.8700 H   0  0  0  0  0  0  0  0  0  0  0  0
   42.6920   33.0560   38.6070 C   0  0  0  0  0  3  0  0  0  0  0  0
   43.8540   33.3630   39.2920 C   0  0  0  0  0  0  0  0  0  0  0  0
   45.1670   32.9050   39.1920 C   0  0  0  0  0  3  0  0  0  0  0  0
  1  2  2  0  0  0  0
  1  6  1  0  0  0  0
  2  3  1  0  0  0  0
  3  8  1  0  0  0  0
  3  4  2  0  0  0  0
  5  4  1  0  0  0  0
  5  9  1  0  0  0  0
  6  5  2  0  0  0  0
  7  2  1  0  0  0  0
  9 12  1  6  0  0  0
  9 10  1  0  0  0  0
  9 11  1  0  0  0  0
 10 11  1  0  0  0  0
 10 14  1  0  0  0  0
 11 16  1  0  0  0  0
 11 15  1  1  0  0  0
 13 10  1  0  0  0  0
 16 18  1  0  0  0  0
 17 16  1  0  0  0  0
 19  1  1  0  0  0  0
 20 19  2  0  0  0  0
 21 22  1  0  0  0  0
 22 23  2  0  0  0  0
 22 19  1  0  0  0  0
 23 24  1  0  0  0  0
 25 23  1  0  0  0  0
 26 25  1  0  0  0  0
 26 27  1  0  0  0  0
 28 26  1  0  0  0  0
 29 28  1  0  0  0  0
 30 28  2  0  0  0  0
 30 31  1  0  0  0  0
 31 25  2  0  0  0  0
 32 31  1  0  0  0  0
 32 21  2  0  0  0  0
M  END
>  <minimizedAffinity>
-6.21197605

>  <minimizedRMSD>
0.868665397

$$$$
