
 OpenBabel03252507593D

 32 35  0  0  1  0  0  0  0  0999 V2000
   46.2360   34.6180   43.3370 C   0  0  0  0  0  0  0  0  0  0  0  0
   45.2900   35.6180   43.7370 C   0  0  0  0  0  0  0  0  0  0  0  0
   44.6970   35.4430   45.0060 C   0  0  0  0  0  0  0  0  0  0  0  0
   45.0550   34.3670   45.7450 N   0  0  0  0  0  0  0  0  0  0  0  0
   45.9660   33.4620   45.2840 C   0  0  0  0  0  0  0  0  0  0  0  0
   46.5600   33.5600   44.1120 N   0  0  0  0  0  0  0  0  0  0  0  0
   45.0270   36.4660   43.1220 H   0  0  0  0  0  0  0  0  0  0  0  0
   43.9870   36.1930   45.3120 H   0  0  0  0  0  0  0  0  0  0  0  0
   46.3090   32.3040   46.1770 C   0  0  1  0  0  0  0  0  0  0  0  0
   47.0470   32.5700   47.4690 C   0  0  0  0  0  0  0  0  0  0  0  0
   45.5720   32.2600   47.4580 C   0  0  1  0  0  0  0  0  0  0  0  0
   46.5120   31.3300   45.6810 H   0  0  0  0  0  0  0  0  0  0  0  0
   47.4150   33.6140   47.5280 H   0  0  0  0  0  0  0  0  0  0  0  0
   47.7640   31.8030   47.7590 H   0  0  0  0  0  0  0  0  0  0  0  0
   45.2960   31.3390   47.9660 H   0  0  0  0  0  0  0  0  0  0  0  0
   44.7720   33.4310   47.8640 N   0  0  0  0  0  0  0  0  0  0  0  0
   43.7650   33.2680   47.8010 H   0  0  0  0  0  0  0  0  0  0  0  0
   45.1660   33.7440   48.7550 H   0  0  0  0  0  0  0  0  0  0  0  0
   46.7900   34.8950   42.0440 C   0  0  0  0  0  0  0  0  0  0  0  0
   47.8630   35.5700   41.8520 O   0  0  0  0  0  0  0  0  0  0  0  0
   44.5880   34.2380   40.8370 C   0  0  0  0  0  3  0  0  0  0  0  0
   45.9490   34.3010   41.0150 C   0  0  0  0  0  0  0  0  0  0  0  0
   46.7550   33.7390   40.0120 C   0  0  0  0  0  0  0  0  0  0  0  0
   47.8400   33.7220   40.0280 H   0  0  0  0  0  0  0  0  0  0  0  0
   46.2330   33.1420   38.8830 C   0  0  0  0  0  0  0  0  0  0  0  0
   46.7950   32.5490   37.7890 N   0  0  0  0  0  0  0  0  0  0  0  0
   47.8180   32.4340   37.6120 H   0  0  0  0  0  0  0  0  0  0  0  0
   45.8140   32.1350   36.9660 C   0  0  0  0  0  0  0  0  0  0  0  0
   45.9170   31.6290   36.0190 H   0  0  0  0  0  0  0  0  0  0  0  0
   44.5710   32.4590   37.5180 C   0  0  0  0  0  3  0  0  0  0  0  0
   44.8640   33.0860   38.7160 C   0  0  0  0  0  0  0  0  0  0  0  0
   44.0700   33.6460   39.7160 C   0  0  0  0  0  3  0  0  0  0  0  0
  1  2  2  0  0  0  0
  1  6  1  0  0  0  0
  2  3  1  0  0  0  0
  3  8  1  0  0  0  0
  3  4  2  0  0  0  0
  5  4  1  0  0  0  0
  5  9  1  0  0  0  0
  6  5  2  0  0  0  0
  7  2  1  0  0  0  0
  9 12  1  6  0  0  0
  9 11  1  0  0  0  0
  9 10  1  0  0  0  0
 10 13  1  0  0  0  0
 10 14  1  0  0  0  0
 11 10  1  0  0  0  0
 11 16  1  0  0  0  0
 11 15  1  1  0  0  0
 16 18  1  0  0  0  0
 17 16  1  0  0  0  0
 19  1  1  0  0  0  0
 20 19  2  0  0  0  0
 21 22  1  0  0  0  0
 22 19  1  0  0  0  0
 23 24  1  0  0  0  0
 23 22  2  0  0  0  0
 25 23  1  0  0  0  0
 26 25  1  0  0  0  0
 27 26  1  0  0  0  0
 28 30  2  0  0  0  0
 28 26  1  0  0  0  0
 29 28  1  0  0  0  0
 30 31  1  0  0  0  0
 31 25  2  0  0  0  0
 31 32  1  0  0  0  0
 32 21  2  0  0  0  0
M  END
>  <minimizedAffinity>
-6.07588005

>  <minimizedRMSD>
0.436765969

$$$$
