
 OpenBabel03252507593D

 32 35  0  0  1  0  0  0  0  0999 V2000
   46.3020   34.7040   43.2790 C   0  0  0  0  0  0  0  0  0  0  0  0
   45.3370   35.7270   43.5560 C   0  0  0  0  0  0  0  0  0  0  0  0
   44.6290   35.6040   44.7700 C   0  0  0  0  0  0  0  0  0  0  0  0
   44.9030   34.5510   45.5770 N   0  0  0  0  0  0  0  0  0  0  0  0
   45.8400   33.6220   45.2330 C   0  0  0  0  0  0  0  0  0  0  0  0
   46.5400   33.6710   44.1170 N   0  0  0  0  0  0  0  0  0  0  0  0
   45.1430   36.5550   42.8910 H   0  0  0  0  0  0  0  0  0  0  0  0
   43.9040   36.3710   44.9840 H   0  0  0  0  0  0  0  0  0  0  0  0
   46.0850   32.4920   46.1930 C   0  0  1  0  0  0  0  0  0  0  0  0
   46.8860   32.7600   47.4470 C   0  0  0  0  0  0  0  0  0  0  0  0
   45.3870   32.6110   47.4910 C   0  0  1  0  0  0  0  0  0  0  0  0
   46.1680   31.4730   45.7590 H   0  0  0  0  0  0  0  0  0  0  0  0
   47.3650   33.7590   47.4270 H   0  0  0  0  0  0  0  0  0  0  0  0
   47.5260   31.9400   47.7720 H   0  0  0  0  0  0  0  0  0  0  0  0
   45.0300   31.7590   48.0660 H   0  0  0  0  0  0  0  0  0  0  0  0
   44.7290   33.8850   47.8360 N   0  0  0  0  0  0  0  0  0  0  0  0
   43.7080   33.8280   47.8080 H   0  0  0  0  0  0  0  0  0  0  0  0
   45.1800   34.2110   48.6940 H   0  0  0  0  0  0  0  0  0  0  0  0
   46.9750   34.9280   42.0340 C   0  0  0  0  0  0  0  0  0  0  0  0
   47.9660   35.7280   41.8860 O   0  0  0  0  0  0  0  0  0  0  0  0
   45.0900   34.0780   40.4650 C   0  0  0  0  0  3  0  0  0  0  0  0
   46.3580   34.1200   40.9930 C   0  0  0  0  0  0  0  0  0  0  0  0
   47.3180   33.2660   40.4250 C   0  0  0  0  0  0  0  0  0  0  0  0
   48.3530   33.2000   40.7440 H   0  0  0  0  0  0  0  0  0  0  0  0
   47.0310   32.4120   39.3800 C   0  0  0  0  0  0  0  0  0  0  0  0
   47.7760   31.5170   38.6670 N   0  0  0  0  0  0  0  0  0  0  0  0
   48.7890   31.3070   38.8160 H   0  0  0  0  0  0  0  0  0  0  0  0
   46.9950   30.9450   37.7330 C   0  0  0  0  0  0  0  0  0  0  0  0
   47.2720   30.1960   37.0090 H   0  0  0  0  0  0  0  0  0  0  0  0
   45.7010   31.4680   37.8210 C   0  0  0  0  0  3  0  0  0  0  0  0
   45.7540   32.3820   38.8580 C   0  0  0  0  0  0  0  0  0  0  0  0
   44.8060   33.2310   39.4270 C   0  0  0  0  0  3  0  0  0  0  0  0
  1  2  2  0  0  0  0
  1  6  1  0  0  0  0
  2  3  1  0  0  0  0
  3  8  1  0  0  0  0
  3  4  2  0  0  0  0
  5  4  1  0  0  0  0
  5  9  1  0  0  0  0
  6  5  2  0  0  0  0
  7  2  1  0  0  0  0
  9 12  1  6  0  0  0
  9 10  1  0  0  0  0
  9 11  1  0  0  0  0
 10 11  1  0  0  0  0
 10 14  1  0  0  0  0
 11 16  1  0  0  0  0
 11 15  1  1  0  0  0
 13 10  1  0  0  0  0
 16 18  1  0  0  0  0
 17 16  1  0  0  0  0
 19  1  1  0  0  0  0
 20 19  2  0  0  0  0
 21 22  1  0  0  0  0
 22 19  1  0  0  0  0
 23 24  1  0  0  0  0
 23 22  2  0  0  0  0
 25 23  1  0  0  0  0
 26 27  1  0  0  0  0
 26 25  1  0  0  0  0
 28 30  2  0  0  0  0
 28 26  1  0  0  0  0
 29 28  1  0  0  0  0
 30 31  1  0  0  0  0
 31 25  2  0  0  0  0
 31 32  1  0  0  0  0
 32 21  2  0  0  0  0
M  END
>  <minimizedAffinity>
-5.62379932

>  <minimizedRMSD>
1.10248137

$$$$
