
 OpenBabel03252507593D

 32 35  0  0  1  0  0  0  0  0999 V2000
   46.0130   34.6550   43.4310 C   0  0  0  0  0  0  0  0  0  0  0  0
   45.1410   35.6920   43.8980 C   0  0  0  0  0  0  0  0  0  0  0  0
   44.6120   35.5250   45.1950 C   0  0  0  0  0  0  0  0  0  0  0  0
   44.9550   34.4190   45.8980 N   0  0  0  0  0  0  0  0  0  0  0  0
   45.7940   33.4800   45.3730 C   0  0  0  0  0  0  0  0  0  0  0  0
   46.3260   33.5690   44.1710 N   0  0  0  0  0  0  0  0  0  0  0  0
   44.8870   36.5620   43.3110 H   0  0  0  0  0  0  0  0  0  0  0  0
   43.9570   36.3020   45.5510 H   0  0  0  0  0  0  0  0  0  0  0  0
   46.1280   32.2910   46.2280 C   0  0  1  0  0  0  0  0  0  0  0  0
   47.0500   32.4770   47.4120 C   0  0  0  0  0  0  0  0  0  0  0  0
   45.5620   32.3220   47.5930 C   0  0  1  0  0  0  0  0  0  0  0  0
   46.1650   31.3020   45.7210 H   0  0  0  0  0  0  0  0  0  0  0  0
   47.5280   33.4770   47.4110 H   0  0  0  0  0  0  0  0  0  0  0  0
   47.7150   31.6400   47.6170 H   0  0  0  0  0  0  0  0  0  0  0  0
   45.2600   31.4330   48.1430 H   0  0  0  0  0  0  0  0  0  0  0  0
   44.9450   33.5680   48.0840 N   0  0  0  0  0  0  0  0  0  0  0  0
   43.9270   33.5100   48.1540 H   0  0  0  0  0  0  0  0  0  0  0  0
   45.4800   33.8380   48.9140 H   0  0  0  0  0  0  0  0  0  0  0  0
   46.5070   34.9270   42.1130 C   0  0  0  0  0  0  0  0  0  0  0  0
   47.6170   35.5210   41.8710 O   0  0  0  0  0  0  0  0  0  0  0  0
   45.6250   33.4330   40.1830 C   0  0  0  0  0  3  0  0  0  0  0  0
   45.5610   34.4320   41.1250 C   0  0  0  0  0  0  0  0  0  0  0  0
   44.3470   35.1250   41.2420 C   0  0  0  0  0  0  0  0  0  0  0  0
   44.1600   35.9320   41.9440 H   0  0  0  0  0  0  0  0  0  0  0  0
   43.2450   34.8390   40.4610 C   0  0  0  0  0  0  0  0  0  0  0  0
   41.9810   35.3510   40.3970 N   0  0  0  0  0  0  0  0  0  0  0  0
   41.6040   36.1270   40.9880 H   0  0  0  0  0  0  0  0  0  0  0  0
   41.2910   34.6910   39.4500 C   0  0  0  0  0  0  0  0  0  0  0  0
   40.2680   34.8500   39.1460 H   0  0  0  0  0  0  0  0  0  0  0  0
   42.1080   33.7170   38.8680 C   0  0  0  0  0  3  0  0  0  0  0  0
   43.3230   33.8320   39.5200 C   0  0  0  0  0  0  0  0  0  0  0  0
   44.5330   33.1490   39.4080 C   0  0  0  0  0  3  0  0  0  0  0  0
  1  2  2  0  0  0  0
  1  6  1  0  0  0  0
  2  3  1  0  0  0  0
  3  8  1  0  0  0  0
  3  4  2  0  0  0  0
  5  4  1  0  0  0  0
  5  9  1  0  0  0  0
  6  5  2  0  0  0  0
  7  2  1  0  0  0  0
  9 12  1  6  0  0  0
  9 10  1  0  0  0  0
  9 11  1  0  0  0  0
 10 11  1  0  0  0  0
 10 14  1  0  0  0  0
 11 16  1  0  0  0  0
 11 15  1  1  0  0  0
 13 10  1  0  0  0  0
 16 17  1  0  0  0  0
 16 18  1  0  0  0  0
 19  1  1  0  0  0  0
 20 19  2  0  0  0  0
 21 22  1  0  0  0  0
 22 23  2  0  0  0  0
 22 19  1  0  0  0  0
 23 24  1  0  0  0  0
 25 23  1  0  0  0  0
 26 25  1  0  0  0  0
 26 27  1  0  0  0  0
 28 26  1  0  0  0  0
 29 28  1  0  0  0  0
 30 28  2  0  0  0  0
 30 31  1  0  0  0  0
 31 25  2  0  0  0  0
 32 31  1  0  0  0  0
 32 21  2  0  0  0  0
M  END
>  <minimizedAffinity>
-6.31769514

>  <minimizedRMSD>
0.585968733

$$$$
