
 OpenBabel03252508013D

 32 35  0  0  1  0  0  0  0  0999 V2000
   40.8120   31.7270   41.2480 C   0  0  0  0  0  0  0  0  0  0  0  0
   41.6980   32.8340   41.0420 C   0  0  0  0  0  0  0  0  0  0  0  0
   41.4340   33.6450   39.9180 C   0  0  0  0  0  0  0  0  0  0  0  0
   40.3820   33.3300   39.1250 N   0  0  0  0  0  0  0  0  0  0  0  0
   39.5890   32.2540   39.3960 C   0  0  0  0  0  0  0  0  0  0  0  0
   39.7740   31.4530   40.4260 N   0  0  0  0  0  0  0  0  0  0  0  0
   42.5280   33.0580   41.6950 H   0  0  0  0  0  0  0  0  0  0  0  0
   42.0960   34.4790   39.7600 H   0  0  0  0  0  0  0  0  0  0  0  0
   38.4390   31.9850   38.4670 C   0  0  1  0  0  0  0  0  0  0  0  0
   37.2470   31.2120   38.9840 C   0  0  0  0  0  0  0  0  0  0  0  0
   37.1900   32.7070   38.7920 C   0  0  1  0  0  0  0  0  0  0  0  0
   38.6820   31.8610   37.3890 H   0  0  0  0  0  0  0  0  0  0  0  0
   37.4420   30.7680   39.9800 H   0  0  0  0  0  0  0  0  0  0  0  0
   36.7740   30.5510   38.2590 H   0  0  0  0  0  0  0  0  0  0  0  0
   36.4740   33.0430   38.0450 H   0  0  0  0  0  0  0  0  0  0  0  0
   37.0860   33.4120   40.0830 N   0  0  0  0  0  0  0  0  0  0  0  0
   37.1120   34.4290   39.9850 H   0  0  0  0  0  0  0  0  0  0  0  0
   36.2960   32.9850   40.5740 H   0  0  0  0  0  0  0  0  0  0  0  0
   41.1560   30.9780   42.4200 C   0  0  0  0  0  0  0  0  0  0  0  0
   41.9960   31.3730   43.3040 O   0  0  0  0  0  0  0  0  0  0  0  0
   40.7360   28.4400   42.0750 C   0  0  0  0  0  3  0  0  0  0  0  0
   40.4140   29.7260   42.4360 C   0  0  0  0  0  0  0  0  0  0  0  0
   39.1390   29.9380   42.9850 C   0  0  0  0  0  0  0  0  0  0  0  0
   38.7580   30.9010   43.3130 H   0  0  0  0  0  0  0  0  0  0  0  0
   38.2270   28.9190   43.1680 C   0  0  0  0  0  0  0  0  0  0  0  0
   36.9610   28.8720   43.6790 N   0  0  0  0  0  0  0  0  0  0  0  0
   36.4190   29.6860   44.0480 H   0  0  0  0  0  0  0  0  0  0  0  0
   36.5200   27.6020   43.6330 C   0  0  0  0  0  0  0  0  0  0  0  0
   35.5630   27.2230   43.9560 H   0  0  0  0  0  0  0  0  0  0  0  0
   37.5100   26.7810   43.0830 C   0  0  0  0  0  3  0  0  0  0  0  0
   38.5640   27.6320   42.8020 C   0  0  0  0  0  0  0  0  0  0  0  0
   39.8310   27.4290   42.2570 C   0  0  0  0  0  3  0  0  0  0  0  0
  1 19  1  0  0  0  0
  2  1  1  0  0  0  0
  2  7  1  0  0  0  0
  3  2  2  0  0  0  0
  4  5  2  0  0  0  0
  4  3  1  0  0  0  0
  5  6  1  0  0  0  0
  6  1  2  0  0  0  0
  8  3  1  0  0  0  0
  9 12  1  6  0  0  0
  9 11  1  0  0  0  0
  9 10  1  0  0  0  0
  9  5  1  0  0  0  0
 10 13  1  0  0  0  0
 11 15  1  6  0  0  0
 11 10  1  0  0  0  0
 11 16  1  0  0  0  0
 14 10  1  0  0  0  0
 16 18  1  0  0  0  0
 17 16  1  0  0  0  0
 19 22  1  0  0  0  0
 19 20  2  0  0  0  0
 21 32  2  0  0  0  0
 21 22  1  0  0  0  0
 22 23  2  0  0  0  0
 23 25  1  0  0  0  0
 23 24  1  0  0  0  0
 25 26  1  0  0  0  0
 26 27  1  0  0  0  0
 28 26  1  0  0  0  0
 28 29  1  0  0  0  0
 30 28  2  0  0  0  0
 31 30  1  0  0  0  0
 31 25  2  0  0  0  0
 32 31  1  0  0  0  0
M  END
>  <minimizedAffinity>
-6.07409239

$$$$

 OpenBabel03252508013D

 32 35  0  0  1  0  0  0  0  0999 V2000
   37.0290   30.1710   39.9110 C   0  0  0  0  0  0  0  0  0  0  0  0
   36.6100   31.4670   40.3590 C   0  0  0  0  0  0  0  0  0  0  0  0
   37.5690   32.4970   40.2750 C   0  0  0  0  0  0  0  0  0  0  0  0
   38.7970   32.2010   39.7860 N   0  0  0  0  0  0  0  0  0  0  0  0
   39.1110   30.9370   39.3820 C   0  0  0  0  0  0  0  0  0  0  0  0
   38.2680   29.9260   39.4300 N   0  0  0  0  0  0  0  0  0  0  0  0
   35.6210   31.6690   40.7440 H   0  0  0  0  0  0  0  0  0  0  0  0
   37.2580   33.4720   40.6100 H   0  0  0  0  0  0  0  0  0  0  0  0
   40.4940   30.7030   38.8430 C   0  0  1  0  0  0  0  0  0  0  0  0
   40.6520   30.0000   37.5130 C   0  0  0  0  0  0  0  0  0  0  0  0
   40.8400   31.4910   37.6410 C   0  0  1  0  0  0  0  0  0  0  0  0
   41.3030   30.5420   39.5880 H   0  0  0  0  0  0  0  0  0  0  0  0
   39.6950   29.5700   37.1560 H   0  0  0  0  0  0  0  0  0  0  0  0
   41.5180   29.3450   37.4360 H   0  0  0  0  0  0  0  0  0  0  0  0
   41.8450   31.8430   37.4180 H   0  0  0  0  0  0  0  0  0  0  0  0
   39.7750   32.2300   36.9390 N   0  0  0  0  0  0  0  0  0  0  0  0
   39.8420   33.2430   37.0650 H   0  0  0  0  0  0  0  0  0  0  0  0
   39.7510   31.8540   35.9880 H   0  0  0  0  0  0  0  0  0  0  0  0
   35.9800   29.2020   40.0230 C   0  0  0  0  0  0  0  0  0  0  0  0
   34.8260   29.3260   39.4790 O   0  0  0  0  0  0  0  0  0  0  0  0
   36.6760   27.9450   42.1850 C   0  0  0  0  0  3  0  0  0  0  0  0
   36.4320   28.0860   40.8400 C   0  0  0  0  0  0  0  0  0  0  0  0
   36.5830   26.9420   40.0380 C   0  0  0  0  0  0  0  0  0  0  0  0
   36.4210   26.9140   38.9650 H   0  0  0  0  0  0  0  0  0  0  0  0
   36.9590   25.7180   40.5500 C   0  0  0  0  0  0  0  0  0  0  0  0
   37.1570   24.4870   39.9900 N   0  0  0  0  0  0  0  0  0  0  0  0
   37.0520   24.2500   38.9770 H   0  0  0  0  0  0  0  0  0  0  0  0
   37.5130   23.6220   40.9560 C   0  0  0  0  0  0  0  0  0  0  0  0
   37.7430   22.5730   40.8510 H   0  0  0  0  0  0  0  0  0  0  0  0
   37.5500   24.2830   42.1880 C   0  0  0  0  0  3  0  0  0  0  0  0
   37.2000   25.5910   41.9010 C   0  0  0  0  0  0  0  0  0  0  0  0
   37.0490   26.7300   42.6910 C   0  0  0  0  0  3  0  0  0  0  0  0
  1 19  1  0  0  0  0
  1  2  1  0  0  0  0
  2  7  1  0  0  0  0
  3  2  2  0  0  0  0
  3  8  1  0  0  0  0
  4  3  1  0  0  0  0
  5  6  1  0  0  0  0
  5  4  2  0  0  0  0
  6  1  2  0  0  0  0
  9  5  1  0  0  0  0
  9 12  1  1  0  0  0
 10 11  1  0  0  0  0
 10  9  1  0  0  0  0
 11 15  1  6  0  0  0
 11  9  1  0  0  0  0
 13 10  1  0  0  0  0
 14 10  1  0  0  0  0
 16 17  1  0  0  0  0
 16 11  1  0  0  0  0
 18 16  1  0  0  0  0
 19 22  1  0  0  0  0
 20 19  2  0  0  0  0
 21 32  1  0  0  0  0
 22 21  2  0  0  0  0
 23 25  2  0  0  0  0
 23 22  1  0  0  0  0
 24 23  1  0  0  0  0
 25 31  1  0  0  0  0
 26 25  1  0  0  0  0
 26 28  1  0  0  0  0
 27 26  1  0  0  0  0
 28 30  2  0  0  0  0
 29 28  1  0  0  0  0
 31 30  1  0  0  0  0
 31 32  2  0  0  0  0
M  END
>  <minimizedAffinity>
-5.84760523

$$$$

 OpenBabel03252508013D

 32 35  0  0  1  0  0  0  0  0999 V2000
   36.5950   29.8920   39.4390 C   0  0  0  0  0  0  0  0  0  0  0  0
   36.4460   29.9450   38.0150 C   0  0  0  0  0  0  0  0  0  0  0  0
   37.3970   30.7170   37.3160 C   0  0  0  0  0  0  0  0  0  0  0  0
   38.3680   31.3440   38.0220 N   0  0  0  0  0  0  0  0  0  0  0  0
   38.4340   31.2390   39.3800 C   0  0  0  0  0  0  0  0  0  0  0  0
   37.5820   30.5370   40.0990 N   0  0  0  0  0  0  0  0  0  0  0  0
   35.6590   29.4320   37.4820 H   0  0  0  0  0  0  0  0  0  0  0  0
   37.2900   30.7590   36.2450 H   0  0  0  0  0  0  0  0  0  0  0  0
   39.5510   31.9610   40.0800 C   0  0  1  0  0  0  0  0  0  0  0  0
   40.0500   33.2680   39.5060 C   0  0  0  0  0  0  0  0  0  0  0  0
   39.1660   33.2330   40.7260 C   0  0  1  0  0  0  0  0  0  0  0  0
   40.3000   31.3340   40.6100 H   0  0  0  0  0  0  0  0  0  0  0  0
   39.6320   33.4640   38.4980 H   0  0  0  0  0  0  0  0  0  0  0  0
   41.1200   33.4410   39.6110 H   0  0  0  0  0  0  0  0  0  0  0  0
   39.6290   33.6140   41.6340 H   0  0  0  0  0  0  0  0  0  0  0  0
   37.8370   33.8060   40.4450 N   0  0  0  0  0  0  0  0  0  0  0  0
   37.1960   33.7350   41.2390 H   0  0  0  0  0  0  0  0  0  0  0  0
   38.0080   34.7260   40.0330 H   0  0  0  0  0  0  0  0  0  0  0  0
   35.5910   29.0720   40.0510 C   0  0  0  0  0  0  0  0  0  0  0  0
   34.3300   29.2420   39.8920 O   0  0  0  0  0  0  0  0  0  0  0  0
   36.5270   27.9620   42.2030 C   0  0  0  0  0  3  0  0  0  0  0  0
   36.2270   28.0470   40.8640 C   0  0  0  0  0  0  0  0  0  0  0  0
   36.5260   26.9290   40.0690 C   0  0  0  0  0  0  0  0  0  0  0  0
   36.3400   26.8620   39.0010 H   0  0  0  0  0  0  0  0  0  0  0  0
   37.0950   25.7800   40.5800 C   0  0  0  0  0  0  0  0  0  0  0  0
   37.4590   24.5860   40.0250 N   0  0  0  0  0  0  0  0  0  0  0  0
   37.3620   24.3230   39.0180 H   0  0  0  0  0  0  0  0  0  0  0  0
   37.9660   23.7960   40.9880 C   0  0  0  0  0  0  0  0  0  0  0  0
   38.3480   22.7920   40.8860 H   0  0  0  0  0  0  0  0  0  0  0  0
   37.9380   24.4720   42.2120 C   0  0  0  0  0  3  0  0  0  0  0  0
   37.3890   25.7090   41.9250 C   0  0  0  0  0  0  0  0  0  0  0  0
   37.0910   26.8230   42.7090 C   0  0  0  0  0  3  0  0  0  0  0  0
  1 19  1  0  0  0  0
  1  6  1  0  0  0  0
  2  1  2  0  0  0  0
  3  2  1  0  0  0  0
  3  4  2  0  0  0  0
  4  5  1  0  0  0  0
  5  9  1  0  0  0  0
  5  6  2  0  0  0  0
  7  2  1  0  0  0  0
  8  3  1  0  0  0  0
  9 12  1  1  0  0  0
  9 11  1  0  0  0  0
 10 14  1  0  0  0  0
 10  9  1  0  0  0  0
 10 11  1  0  0  0  0
 11 15  1  1  0  0  0
 13 10  1  0  0  0  0
 16 11  1  0  0  0  0
 16 17  1  0  0  0  0
 18 16  1  0  0  0  0
 19 22  1  0  0  0  0
 20 19  2  0  0  0  0
 21 32  1  0  0  0  0
 22 21  2  0  0  0  0
 23 25  2  0  0  0  0
 23 22  1  0  0  0  0
 24 23  1  0  0  0  0
 25 31  1  0  0  0  0
 26 25  1  0  0  0  0
 26 28  1  0  0  0  0
 27 26  1  0  0  0  0
 28 30  2  0  0  0  0
 29 28  1  0  0  0  0
 31 30  1  0  0  0  0
 31 32  2  0  0  0  0
M  END
>  <minimizedAffinity>
-5.80023718

$$$$

 OpenBabel03252508013D

 32 35  0  0  1  0  0  0  0  0999 V2000
   37.8500   31.0030   40.9630 C   0  0  0  0  0  0  0  0  0  0  0  0
   39.1990   31.4820   41.0470 C   0  0  0  0  0  0  0  0  0  0  0  0
   40.0040   30.9060   42.0510 C   0  0  0  0  0  0  0  0  0  0  0  0
   39.4620   29.9580   42.8530 N   0  0  0  0  0  0  0  0  0  0  0  0
   38.1660   29.5620   42.7020 C   0  0  0  0  0  0  0  0  0  0  0  0
   37.3550   30.0540   41.7880 N   0  0  0  0  0  0  0  0  0  0  0  0
   39.6000   32.2400   40.3910 H   0  0  0  0  0  0  0  0  0  0  0  0
   41.0190   31.2620   42.1170 H   0  0  0  0  0  0  0  0  0  0  0  0
   37.6520   28.4970   43.6300 C   0  0  1  0  0  0  0  0  0  0  0  0
   36.6540   27.4890   43.1040 C   0  0  0  0  0  0  0  0  0  0  0  0
   38.1010   27.1240   43.3170 C   0  0  1  0  0  0  0  0  0  0  0  0
   37.5670   28.7650   44.7050 H   0  0  0  0  0  0  0  0  0  0  0  0
   36.2730   27.7690   42.1020 H   0  0  0  0  0  0  0  0  0  0  0  0
   35.9000   27.1690   43.8210 H   0  0  0  0  0  0  0  0  0  0  0  0
   38.2710   26.3570   44.0690 H   0  0  0  0  0  0  0  0  0  0  0  0
   38.7860   26.8690   42.0360 N   0  0  0  0  0  0  0  0  0  0  0  0
   39.7850   26.6830   42.1470 H   0  0  0  0  0  0  0  0  0  0  0  0
   38.2100   26.1830   41.5410 H   0  0  0  0  0  0  0  0  0  0  0  0
   37.1230   31.6390   39.9050 C   0  0  0  0  0  0  0  0  0  0  0  0
   37.0020   32.9080   39.7770 O   0  0  0  0  0  0  0  0  0  0  0  0
   35.5520   29.7010   39.1850 C   0  0  0  0  0  3  0  0  0  0  0  0
   36.5560   30.6270   39.0260 C   0  0  0  0  0  0  0  0  0  0  0  0
   37.1680   30.6970   37.7640 C   0  0  0  0  0  0  0  0  0  0  0  0
   37.9700   31.3830   37.5030 H   0  0  0  0  0  0  0  0  0  0  0  0
   36.8010   29.8860   36.7110 C   0  0  0  0  0  0  0  0  0  0  0  0
   37.2280   29.7760   35.4180 N   0  0  0  0  0  0  0  0  0  0  0  0
   37.9850   30.3430   34.9710 H   0  0  0  0  0  0  0  0  0  0  0  0
   36.5140   28.8150   34.8040 C   0  0  0  0  0  0  0  0  0  0  0  0
   36.6010   28.4780   33.7830 H   0  0  0  0  0  0  0  0  0  0  0  0
   35.5890   28.2730   35.7020 C   0  0  0  0  0  3  0  0  0  0  0  0
   35.7920   28.9620   36.8840 C   0  0  0  0  0  0  0  0  0  0  0  0
   35.1890   28.8960   38.1390 C   0  0  0  0  0  3  0  0  0  0  0  0
  1  2  2  0  0  0  0
  1  6  1  0  0  0  0
  2  3  1  0  0  0  0
  3  8  1  0  0  0  0
  3  4  2  0  0  0  0
  5  4  1  0  0  0  0
  5  9  1  0  0  0  0
  6  5  2  0  0  0  0
  7  2  1  0  0  0  0
  9 12  1  1  0  0  0
 10 11  1  0  0  0  0
 10  9  1  0  0  0  0
 10 14  1  0  0  0  0
 11  9  1  0  0  0  0
 11 15  1  1  0  0  0
 13 10  1  0  0  0  0
 16 17  1  0  0  0  0
 16 11  1  0  0  0  0
 18 16  1  0  0  0  0
 19  1  1  0  0  0  0
 20 19  2  0  0  0  0
 22 21  1  0  0  0  0
 22 19  1  0  0  0  0
 23 22  2  0  0  0  0
 24 23  1  0  0  0  0
 25 31  2  0  0  0  0
 25 23  1  0  0  0  0
 26 25  1  0  0  0  0
 27 26  1  0  0  0  0
 28 26  1  0  0  0  0
 28 30  2  0  0  0  0
 29 28  1  0  0  0  0
 30 31  1  0  0  0  0
 31 32  1  0  0  0  0
 32 21  2  0  0  0  0
M  END
>  <minimizedAffinity>
-5.7194047

$$$$

 OpenBabel03252508013D

 32 35  0  0  1  0  0  0  0  0999 V2000
   37.7630   28.5270   42.2140 C   0  0  0  0  0  0  0  0  0  0  0  0
   38.6140   29.2100   43.1430 C   0  0  0  0  0  0  0  0  0  0  0  0
   39.2510   30.3750   42.6640 C   0  0  0  0  0  0  0  0  0  0  0  0
   39.0200   30.7610   41.3870 N   0  0  0  0  0  0  0  0  0  0  0  0
   38.1930   30.0480   40.5710 C   0  0  0  0  0  0  0  0  0  0  0  0
   37.5650   28.9520   40.9470 N   0  0  0  0  0  0  0  0  0  0  0  0
   38.7760   28.8750   44.1560 H   0  0  0  0  0  0  0  0  0  0  0  0
   39.8900   30.8930   43.3590 H   0  0  0  0  0  0  0  0  0  0  0  0
   37.9880   30.5570   39.1720 C   0  0  1  0  0  0  0  0  0  0  0  0
   36.5780   30.7860   38.6770 C   0  0  0  0  0  0  0  0  0  0  0  0
   37.4660   31.9370   39.0780 C   0  0  1  0  0  0  0  0  0  0  0  0
   38.7370   30.2500   38.4100 H   0  0  0  0  0  0  0  0  0  0  0  0
   35.8220   30.3730   39.3740 H   0  0  0  0  0  0  0  0  0  0  0  0
   36.4150   30.5640   37.6230 H   0  0  0  0  0  0  0  0  0  0  0  0
   37.7140   32.6230   38.2710 H   0  0  0  0  0  0  0  0  0  0  0  0
   36.9700   32.6000   40.2980 N   0  0  0  0  0  0  0  0  0  0  0  0
   37.5910   33.3420   40.6290 H   0  0  0  0  0  0  0  0  0  0  0  0
   35.9880   32.8230   40.1180 H   0  0  0  0  0  0  0  0  0  0  0  0
   37.1540   27.3690   42.8010 C   0  0  0  0  0  0  0  0  0  0  0  0
   36.2210   27.4160   43.6780 O   0  0  0  0  0  0  0  0  0  0  0  0
   38.9970   25.5870   42.3980 C   0  0  0  0  0  3  0  0  0  0  0  0
   37.7600   26.1660   42.2500 C   0  0  0  0  0  0  0  0  0  0  0  0
   36.8240   25.4850   41.4560 C   0  0  0  0  0  0  0  0  0  0  0  0
   35.8130   25.8290   41.2580 H   0  0  0  0  0  0  0  0  0  0  0  0
   37.1040   24.2830   40.8390 C   0  0  0  0  0  0  0  0  0  0  0  0
   36.3740   23.4420   40.0460 N   0  0  0  0  0  0  0  0  0  0  0  0
   35.3850   23.5910   39.7420 H   0  0  0  0  0  0  0  0  0  0  0  0
   37.1370   22.3840   39.7180 C   0  0  0  0  0  0  0  0  0  0  0  0
   36.8660   21.5400   39.1030 H   0  0  0  0  0  0  0  0  0  0  0  0
   38.4000   22.5160   40.3030 C   0  0  0  0  0  3  0  0  0  0  0  0
   38.3490   23.7120   40.9970 C   0  0  0  0  0  0  0  0  0  0  0  0
   39.2740   24.3950   41.7850 C   0  0  0  0  0  3  0  0  0  0  0  0
  1 19  1  0  0  0  0
  1  2  1  0  0  0  0
  2  7  1  0  0  0  0
  3  2  2  0  0  0  0
  3  8  1  0  0  0  0
  4  3  1  0  0  0  0
  5  6  1  0  0  0  0
  5  4  2  0  0  0  0
  6  1  2  0  0  0  0
  9 12  1  6  0  0  0
  9  5  1  0  0  0  0
 10 11  1  0  0  0  0
 10  9  1  0  0  0  0
 10 13  1  0  0  0  0
 11 15  1  6  0  0  0
 11  9  1  0  0  0  0
 11 16  1  0  0  0  0
 14 10  1  0  0  0  0
 16 17  1  0  0  0  0
 18 16  1  0  0  0  0
 19 20  2  0  0  0  0
 22 21  1  0  0  0  0
 22 19  1  0  0  0  0
 23 22  2  0  0  0  0
 24 23  1  0  0  0  0
 25 31  2  0  0  0  0
 25 23  1  0  0  0  0
 26 25  1  0  0  0  0
 27 26  1  0  0  0  0
 28 26  1  0  0  0  0
 28 30  2  0  0  0  0
 29 28  1  0  0  0  0
 30 31  1  0  0  0  0
 31 32  1  0  0  0  0
 32 21  2  0  0  0  0
M  END
>  <minimizedAffinity>
-5.71723366

$$$$

 OpenBabel03252508013D

 32 35  0  0  1  0  0  0  0  0999 V2000
   36.9620   28.9050   41.6170 C   0  0  0  0  0  0  0  0  0  0  0  0
   38.1020   29.3420   42.3680 C   0  0  0  0  0  0  0  0  0  0  0  0
   38.8190   28.3400   43.0550 C   0  0  0  0  0  0  0  0  0  0  0  0
   38.3910   27.0580   42.9610 N   0  0  0  0  0  0  0  0  0  0  0  0
   37.2920   26.7310   42.2230 C   0  0  0  0  0  0  0  0  0  0  0  0
   36.5740   27.6120   41.5550 N   0  0  0  0  0  0  0  0  0  0  0  0
   38.4160   30.3740   42.4220 H   0  0  0  0  0  0  0  0  0  0  0  0
   39.6770   28.6630   43.6190 H   0  0  0  0  0  0  0  0  0  0  0  0
   36.8970   25.2830   42.1680 C   0  0  1  0  0  0  0  0  0  0  0  0
   36.7990   24.6020   40.8210 C   0  0  0  0  0  0  0  0  0  0  0  0
   37.9680   24.3570   41.7410 C   0  0  1  0  0  0  0  0  0  0  0  0
   36.2040   24.9210   42.9580 H   0  0  0  0  0  0  0  0  0  0  0  0
   36.8680   25.3270   39.9850 H   0  0  0  0  0  0  0  0  0  0  0  0
   36.0070   23.8590   40.7340 H   0  0  0  0  0  0  0  0  0  0  0  0
   38.0590   23.3340   42.0980 H   0  0  0  0  0  0  0  0  0  0  0  0
   39.2160   24.9130   41.1870 N   0  0  0  0  0  0  0  0  0  0  0  0
   40.0120   24.8180   41.8220 H   0  0  0  0  0  0  0  0  0  0  0  0
   39.2950   24.5360   40.2390 H   0  0  0  0  0  0  0  0  0  0  0  0
   36.3150   29.9940   40.9470 C   0  0  0  0  0  0  0  0  0  0  0  0
   36.2140   31.1770   41.4300 O   0  0  0  0  0  0  0  0  0  0  0  0
   34.6170   28.9580   39.2790 C   0  0  0  0  0  3  0  0  0  0  0  0
   35.8010   29.5410   39.6630 C   0  0  0  0  0  0  0  0  0  0  0  0
   36.7310   29.8310   38.6510 C   0  0  0  0  0  0  0  0  0  0  0  0
   37.7000   30.2920   38.8160 H   0  0  0  0  0  0  0  0  0  0  0  0
   36.4950   29.5560   37.3200 C   0  0  0  0  0  0  0  0  0  0  0  0
   37.2200   29.7500   36.1790 N   0  0  0  0  0  0  0  0  0  0  0  0
   38.1720   30.1770   36.1230 H   0  0  0  0  0  0  0  0  0  0  0  0
   36.5080   29.3000   35.1300 C   0  0  0  0  0  0  0  0  0  0  0  0
   36.7920   29.3030   34.0890 H   0  0  0  0  0  0  0  0  0  0  0  0
   35.2810   28.7980   35.5760 C   0  0  0  0  0  3  0  0  0  0  0  0
   35.3020   28.9710   36.9490 C   0  0  0  0  0  0  0  0  0  0  0  0
   34.3840   28.6840   37.9580 C   0  0  0  0  0  3  0  0  0  0  0  0
  1  2  1  0  0  0  0
  2  7  1  0  0  0  0
  2  3  2  0  0  0  0
  3  8  1  0  0  0  0
  4  3  1  0  0  0  0
  5  4  2  0  0  0  0
  6  1  2  0  0  0  0
  6  5  1  0  0  0  0
  9  5  1  0  0  0  0
  9 12  1  1  0  0  0
 10 11  1  0  0  0  0
 10  9  1  0  0  0  0
 11 15  1  1  0  0  0
 11  9  1  0  0  0  0
 13 10  1  0  0  0  0
 14 10  1  0  0  0  0
 16 11  1  0  0  0  0
 16 17  1  0  0  0  0
 18 16  1  0  0  0  0
 19 20  2  0  0  0  0
 19  1  1  0  0  0  0
 21 22  1  0  0  0  0
 22 19  1  0  0  0  0
 23 24  1  0  0  0  0
 23 22  2  0  0  0  0
 25 23  1  0  0  0  0
 26 25  1  0  0  0  0
 27 26  1  0  0  0  0
 28 30  2  0  0  0  0
 28 26  1  0  0  0  0
 29 28  1  0  0  0  0
 30 31  1  0  0  0  0
 31 25  2  0  0  0  0
 31 32  1  0  0  0  0
 32 21  2  0  0  0  0
M  END
>  <minimizedAffinity>
-5.65440321

$$$$

 OpenBabel03252508013D

 32 35  0  0  1  0  0  0  0  0999 V2000
   37.7830   29.6570   41.6770 C   0  0  0  0  0  0  0  0  0  0  0  0
   38.7940   29.5940   42.6920 C   0  0  0  0  0  0  0  0  0  0  0  0
   39.8210   30.5570   42.6100 C   0  0  0  0  0  0  0  0  0  0  0  0
   39.7850   31.4590   41.6010 N   0  0  0  0  0  0  0  0  0  0  0  0
   38.7830   31.4460   40.6760 C   0  0  0  0  0  0  0  0  0  0  0  0
   37.7910   30.5780   40.6880 N   0  0  0  0  0  0  0  0  0  0  0  0
   38.7930   28.8600   43.4840 H   0  0  0  0  0  0  0  0  0  0  0  0
   40.5820   30.5140   43.3710 H   0  0  0  0  0  0  0  0  0  0  0  0
   38.8180   32.4900   39.5960 C   0  0  1  0  0  0  0  0  0  0  0  0
   37.6360   33.4210   39.4410 C   0  0  0  0  0  0  0  0  0  0  0  0
   38.9220   33.8840   40.0770 C   0  0  1  0  0  0  0  0  0  0  0  0
   39.3750   32.2360   38.6690 H   0  0  0  0  0  0  0  0  0  0  0  0
   36.7730   33.1000   40.0560 H   0  0  0  0  0  0  0  0  0  0  0  0
   37.4020   33.7040   38.4150 H   0  0  0  0  0  0  0  0  0  0  0  0
   39.4390   34.6740   39.5360 H   0  0  0  0  0  0  0  0  0  0  0  0
   38.7420   34.1610   41.5140 N   0  0  0  0  0  0  0  0  0  0  0  0
   39.6140   34.4140   41.9850 H   0  0  0  0  0  0  0  0  0  0  0  0
   37.9450   34.7990   41.5800 H   0  0  0  0  0  0  0  0  0  0  0  0
   36.7810   28.6480   41.8580 C   0  0  0  0  0  0  0  0  0  0  0  0
   36.6550   27.9440   42.9220 O   0  0  0  0  0  0  0  0  0  0  0  0
   34.8580   29.2590   40.2250 C   0  0  0  0  0  3  0  0  0  0  0  0
   35.9570   28.5580   40.6620 C   0  0  0  0  0  0  0  0  0  0  0  0
   36.4710   27.5720   39.8050 C   0  0  0  0  0  0  0  0  0  0  0  0
   37.3330   26.9500   40.0260 H   0  0  0  0  0  0  0  0  0  0  0  0
   35.9200   27.2950   38.5710 C   0  0  0  0  0  0  0  0  0  0  0  0
   36.2390   26.4140   37.5770 N   0  0  0  0  0  0  0  0  0  0  0  0
   37.0300   25.7310   37.5940 H   0  0  0  0  0  0  0  0  0  0  0  0
   35.3660   26.5650   36.5650 C   0  0  0  0  0  0  0  0  0  0  0  0
   35.3350   26.0240   35.6320 H   0  0  0  0  0  0  0  0  0  0  0  0
   34.4460   27.5690   36.8850 C   0  0  0  0  0  3  0  0  0  0  0  0
   34.8180   28.0060   38.1450 C   0  0  0  0  0  0  0  0  0  0  0  0
   34.3110   28.9830   39.0000 C   0  0  0  0  0  3  0  0  0  0  0  0
  1 19  1  0  0  0  0
  1  2  1  0  0  0  0
  2  7  1  0  0  0  0
  3  2  2  0  0  0  0
  3  8  1  0  0  0  0
  4  3  1  0  0  0  0
  5  6  1  0  0  0  0
  5  4  2  0  0  0  0
  6  1  2  0  0  0  0
  9 12  1  6  0  0  0
  9 11  1  0  0  0  0
  9  5  1  0  0  0  0
 10  9  1  0  0  0  0
 10 13  1  0  0  0  0
 10 11  1  0  0  0  0
 11 15  1  6  0  0  0
 11 16  1  0  0  0  0
 14 10  1  0  0  0  0
 16 18  1  0  0  0  0
 16 17  1  0  0  0  0
 19 20  2  0  0  0  0
 21 22  1  0  0  0  0
 22 19  1  0  0  0  0
 23 24  1  0  0  0  0
 23 22  2  0  0  0  0
 25 23  1  0  0  0  0
 26 27  1  0  0  0  0
 26 25  1  0  0  0  0
 28 30  2  0  0  0  0
 28 26  1  0  0  0  0
 29 28  1  0  0  0  0
 30 31  1  0  0  0  0
 31 25  2  0  0  0  0
 31 32  1  0  0  0  0
 32 21  2  0  0  0  0
M  END
>  <minimizedAffinity>
-5.64269161

$$$$

 OpenBabel03252508013D

 32 35  0  0  1  0  0  0  0  0999 V2000
   37.1220   28.8380   41.3940 C   0  0  0  0  0  0  0  0  0  0  0  0
   35.7410   28.5990   41.0970 C   0  0  0  0  0  0  0  0  0  0  0  0
   35.2040   29.3200   40.0090 C   0  0  0  0  0  0  0  0  0  0  0  0
   36.0120   30.1710   39.3330 N   0  0  0  0  0  0  0  0  0  0  0  0
   37.3190   30.3360   39.6870 C   0  0  0  0  0  0  0  0  0  0  0  0
   37.8890   29.6980   40.6890 N   0  0  0  0  0  0  0  0  0  0  0  0
   35.1230   27.9130   41.6570 H   0  0  0  0  0  0  0  0  0  0  0  0
   34.1660   29.1430   39.7800 H   0  0  0  0  0  0  0  0  0  0  0  0
   38.1440   31.2940   38.8740 C   0  0  1  0  0  0  0  0  0  0  0  0
   37.4390   32.3480   38.0500 C   0  0  0  0  0  0  0  0  0  0  0  0
   38.1240   32.6940   39.3470 C   0  0  1  0  0  0  0  0  0  0  0  0
   39.1070   30.9120   38.4730 H   0  0  0  0  0  0  0  0  0  0  0  0
   36.3450   32.1760   38.0050 H   0  0  0  0  0  0  0  0  0  0  0  0
   37.9160   32.5870   37.1000 H   0  0  0  0  0  0  0  0  0  0  0  0
   38.9660   33.3770   39.2490 H   0  0  0  0  0  0  0  0  0  0  0  0
   37.1510   33.0870   40.3820 N   0  0  0  0  0  0  0  0  0  0  0  0
   37.5840   33.2640   41.2910 H   0  0  0  0  0  0  0  0  0  0  0  0
   36.5740   33.8200   39.9620 H   0  0  0  0  0  0  0  0  0  0  0  0
   37.5730   28.0480   42.5030 C   0  0  0  0  0  0  0  0  0  0  0  0
   37.9390   28.5360   43.6300 O   0  0  0  0  0  0  0  0  0  0  0  0
   36.7700   25.5800   42.5390 C   0  0  0  0  0  3  0  0  0  0  0  0
   37.5500   26.6390   42.1400 C   0  0  0  0  0  0  0  0  0  0  0  0
   38.5080   26.3900   41.1450 C   0  0  0  0  0  0  0  0  0  0  0  0
   39.1860   27.1350   40.7380 H   0  0  0  0  0  0  0  0  0  0  0  0
   38.6830   25.1470   40.5730 C   0  0  0  0  0  0  0  0  0  0  0  0
   39.5190   24.6690   39.6040 N   0  0  0  0  0  0  0  0  0  0  0  0
   40.2410   25.2220   39.0890 H   0  0  0  0  0  0  0  0  0  0  0  0
   39.2630   23.3620   39.4150 C   0  0  0  0  0  0  0  0  0  0  0  0
   39.7460   22.6870   38.7250 H   0  0  0  0  0  0  0  0  0  0  0  0
   38.2340   22.9560   40.2710 C   0  0  0  0  0  3  0  0  0  0  0  0
   37.8930   24.0940   40.9820 C   0  0  0  0  0  0  0  0  0  0  0  0
   36.9440   24.3470   41.9710 C   0  0  0  0  0  3  0  0  0  0  0  0
  1 19  1  0  0  0  0
  2  1  1  0  0  0  0
  2  7  1  0  0  0  0
  3  2  2  0  0  0  0
  4  5  2  0  0  0  0
  4  3  1  0  0  0  0
  5  6  1  0  0  0  0
  6  1  2  0  0  0  0
  8  3  1  0  0  0  0
  9 12  1  6  0  0  0
  9 11  1  0  0  0  0
  9  5  1  0  0  0  0
 10  9  1  0  0  0  0
 10 11  1  0  0  0  0
 11 15  1  6  0  0  0
 11 16  1  0  0  0  0
 13 10  1  0  0  0  0
 14 10  1  0  0  0  0
 16 17  1  0  0  0  0
 18 16  1  0  0  0  0
 19 20  2  0  0  0  0
 22 19  1  0  0  0  0
 22 21  1  0  0  0  0
 23 22  2  0  0  0  0
 24 23  1  0  0  0  0
 25 31  2  0  0  0  0
 25 23  1  0  0  0  0
 26 25  1  0  0  0  0
 27 26  1  0  0  0  0
 28 26  1  0  0  0  0
 28 30  2  0  0  0  0
 29 28  1  0  0  0  0
 30 31  1  0  0  0  0
 31 32  1  0  0  0  0
 32 21  2  0  0  0  0
M  END
>  <minimizedAffinity>
-5.51968575

$$$$

 OpenBabel03252508013D

 32 35  0  0  1  0  0  0  0  0999 V2000
   38.3080   30.6970   40.9520 C   0  0  0  0  0  0  0  0  0  0  0  0
   37.1410   31.4960   40.7180 C   0  0  0  0  0  0  0  0  0  0  0  0
   37.3120   32.6210   39.8840 C   0  0  0  0  0  0  0  0  0  0  0  0
   38.5410   32.8660   39.3700 N   0  0  0  0  0  0  0  0  0  0  0  0
   39.5980   32.0500   39.6460 C   0  0  0  0  0  0  0  0  0  0  0  0
   39.5140   30.9830   40.4150 N   0  0  0  0  0  0  0  0  0  0  0  0
   36.1740   31.2730   41.1440 H   0  0  0  0  0  0  0  0  0  0  0  0
   36.4380   33.2240   39.7050 H   0  0  0  0  0  0  0  0  0  0  0  0
   40.9230   32.3930   39.0240 C   0  0  1  0  0  0  0  0  0  0  0  0
   41.6040   31.3680   38.1450 C   0  0  0  0  0  0  0  0  0  0  0  0
   40.8990   32.5630   37.5550 C   0  0  1  0  0  0  0  0  0  0  0  0
   41.5860   33.0740   39.5980 H   0  0  0  0  0  0  0  0  0  0  0  0
   41.1090   30.3780   38.2020 H   0  0  0  0  0  0  0  0  0  0  0  0
   42.6910   31.3530   38.2100 H   0  0  0  0  0  0  0  0  0  0  0  0
   41.5450   33.2520   37.0170 H   0  0  0  0  0  0  0  0  0  0  0  0
   39.6930   32.1620   36.8070 N   0  0  0  0  0  0  0  0  0  0  0  0
   39.1600   32.9590   36.4520 H   0  0  0  0  0  0  0  0  0  0  0  0
   39.9980   31.4410   36.1480 H   0  0  0  0  0  0  0  0  0  0  0  0
   38.0250   29.5740   41.7960 C   0  0  0  0  0  0  0  0  0  0  0  0
   38.1930   29.5700   43.0670 O   0  0  0  0  0  0  0  0  0  0  0  0
   37.1870   28.3540   39.6630 C   0  0  0  0  0  3  0  0  0  0  0  0
   37.5330   28.4680   40.9890 C   0  0  0  0  0  0  0  0  0  0  0  0
   37.4660   27.3030   41.7700 C   0  0  0  0  0  0  0  0  0  0  0  0
   37.7130   27.2530   42.8270 H   0  0  0  0  0  0  0  0  0  0  0  0
   37.0760   26.0830   41.2590 C   0  0  0  0  0  0  0  0  0  0  0  0
   36.9460   24.8360   41.8010 N   0  0  0  0  0  0  0  0  0  0  0  0
   37.1350   24.5770   42.7970 H   0  0  0  0  0  0  0  0  0  0  0  0
   36.5340   23.9860   40.8440 C   0  0  0  0  0  0  0  0  0  0  0  0
   36.3330   22.9300   40.9390 H   0  0  0  0  0  0  0  0  0  0  0  0
   36.3870   24.6750   39.6360 C   0  0  0  0  0  3  0  0  0  0  0  0
   36.7330   25.9830   39.9270 C   0  0  0  0  0  0  0  0  0  0  0  0
   36.8000   27.1430   39.1570 C   0  0  0  0  0  3  0  0  0  0  0  0
  1 19  1  0  0  0  0
  2  1  1  0  0  0  0
  2  7  1  0  0  0  0
  3  2  2  0  0  0  0
  4  5  2  0  0  0  0
  4  3  1  0  0  0  0
  5  6  1  0  0  0  0
  6  1  2  0  0  0  0
  8  3  1  0  0  0  0
  9 12  1  1  0  0  0
  9  5  1  0  0  0  0
 10 13  1  0  0  0  0
 10 14  1  0  0  0  0
 10  9  1  0  0  0  0
 11 15  1  6  0  0  0
 11 10  1  0  0  0  0
 11  9  1  0  0  0  0
 16 11  1  0  0  0  0
 17 16  1  0  0  0  0
 18 16  1  0  0  0  0
 19 20  2  0  0  0  0
 21 22  1  0  0  0  0
 22 23  2  0  0  0  0
 22 19  1  0  0  0  0
 23 24  1  0  0  0  0
 25 23  1  0  0  0  0
 25 26  1  0  0  0  0
 26 27  1  0  0  0  0
 28 29  1  0  0  0  0
 28 26  1  0  0  0  0
 30 31  1  0  0  0  0
 30 28  2  0  0  0  0
 31 25  2  0  0  0  0
 32 21  2  0  0  0  0
 32 31  1  0  0  0  0
M  END
>  <minimizedAffinity>
-5.48718452

$$$$
