
 OpenBabel03252507593D

 32 35  0  0  1  0  0  0  0  0999 V2000
   46.3660   34.6450   43.2910 C   0  0  0  0  0  0  0  0  0  0  0  0
   45.3910   35.6320   43.6510 C   0  0  0  0  0  0  0  0  0  0  0  0
   44.7360   35.4420   44.8860 C   0  0  0  0  0  0  0  0  0  0  0  0
   45.0660   34.3620   45.6340 N   0  0  0  0  0  0  0  0  0  0  0  0
   46.0070   33.4700   45.2130 C   0  0  0  0  0  0  0  0  0  0  0  0
   46.6600   33.5830   44.0730 N   0  0  0  0  0  0  0  0  0  0  0  0
   45.1520   36.4830   43.0310 H   0  0  0  0  0  0  0  0  0  0  0  0
   44.0040   36.1820   45.1620 H   0  0  0  0  0  0  0  0  0  0  0  0
   46.3160   32.3060   46.1120 C   0  0  1  0  0  0  0  0  0  0  0  0
   47.0560   32.5590   47.4060 C   0  0  0  0  0  0  0  0  0  0  0  0
   45.5730   32.2890   47.3900 C   0  0  1  0  0  0  0  0  0  0  0  0
   46.4940   31.3250   45.6210 H   0  0  0  0  0  0  0  0  0  0  0  0
   47.4520   33.5920   47.4620 H   0  0  0  0  0  0  0  0  0  0  0  0
   47.7510   31.7740   47.7030 H   0  0  0  0  0  0  0  0  0  0  0  0
   45.2710   31.3780   47.9010 H   0  0  0  0  0  0  0  0  0  0  0  0
   44.8040   33.4830   47.7880 N   0  0  0  0  0  0  0  0  0  0  0  0
   43.7930   33.3470   47.7220 H   0  0  0  0  0  0  0  0  0  0  0  0
   45.2020   33.7900   48.6790 H   0  0  0  0  0  0  0  0  0  0  0  0
   46.9820   34.9380   42.0310 C   0  0  0  0  0  0  0  0  0  0  0  0
   48.0340   35.6590   41.8960 O   0  0  0  0  0  0  0  0  0  0  0  0
   46.5910   33.4660   39.9300 C   0  0  0  0  0  3  0  0  0  0  0  0
   46.2310   34.3010   40.9600 C   0  0  0  0  0  0  0  0  0  0  0  0
   44.8660   34.6030   41.0940 C   0  0  0  0  0  0  0  0  0  0  0  0
   44.4470   35.2460   41.8620 H   0  0  0  0  0  0  0  0  0  0  0  0
   43.9040   34.0990   40.2430 C   0  0  0  0  0  0  0  0  0  0  0  0
   42.5460   34.2330   40.1760 N   0  0  0  0  0  0  0  0  0  0  0  0
   41.9540   34.8040   40.8220 H   0  0  0  0  0  0  0  0  0  0  0  0
   42.0870   33.5080   39.1420 C   0  0  0  0  0  0  0  0  0  0  0  0
   41.0660   33.3990   38.8120 H   0  0  0  0  0  0  0  0  0  0  0  0
   43.1570   32.8730   38.5030 C   0  0  0  0  0  3  0  0  0  0  0  0
   44.2790   33.2600   39.2140 C   0  0  0  0  0  0  0  0  0  0  0  0
   45.6350   32.9650   39.0860 C   0  0  0  0  0  3  0  0  0  0  0  0
  1  2  2  0  0  0  0
  1  6  1  0  0  0  0
  2  3  1  0  0  0  0
  3  8  1  0  0  0  0
  3  4  2  0  0  0  0
  5  4  1  0  0  0  0
  5  9  1  0  0  0  0
  6  5  2  0  0  0  0
  7  2  1  0  0  0  0
  9 12  1  6  0  0  0
  9 11  1  0  0  0  0
  9 10  1  0  0  0  0
 10 13  1  0  0  0  0
 10 14  1  0  0  0  0
 11 10  1  0  0  0  0
 11 16  1  0  0  0  0
 11 15  1  1  0  0  0
 16 18  1  0  0  0  0
 17 16  1  0  0  0  0
 19  1  1  0  0  0  0
 20 19  2  0  0  0  0
 21 22  1  0  0  0  0
 22 23  2  0  0  0  0
 22 19  1  0  0  0  0
 23 24  1  0  0  0  0
 25 23  1  0  0  0  0
 26 25  1  0  0  0  0
 26 27  1  0  0  0  0
 28 26  1  0  0  0  0
 29 28  1  0  0  0  0
 30 28  2  0  0  0  0
 30 31  1  0  0  0  0
 31 25  2  0  0  0  0
 32 31  1  0  0  0  0
 32 21  2  0  0  0  0
M  END
>  <minimizedAffinity>
-6.21177006

>  <minimizedRMSD>
0.933752716

$$$$
