
 OpenBabel03242515373D

 39 43  0  0  0  0  0  0  0  0999 V2000
   44.2970   34.8780   41.2840 C   0  0  0  0  0  0  0  0  0  0  0  0
   44.2320   34.1660   40.0970 C   0  0  0  0  0  0  0  0  0  0  0  0
   45.4040   33.5670   39.6370 C   0  0  0  0  0  0  0  0  0  0  0  0
   46.5260   33.7170   40.3720 N   0  0  0  0  0  0  0  0  0  0  0  0
   46.5570   34.4190   41.5280 C   0  0  0  0  0  0  0  0  0  0  0  0
   45.4350   34.9770   41.9450 N   0  0  0  0  0  0  0  0  0  0  0  0
   43.3260   34.0580   39.5240 H   0  0  0  0  0  0  0  0  0  0  0  0
   45.8040   31.4780   38.4990 C   0  0  0  0  0  0  0  0  0  0  0  0
   45.4860   32.8000   38.4240 C   0  0  0  0  0  0  0  0  0  0  0  0
   45.2620   33.3160   37.1660 C   0  0  0  0  0  0  0  0  0  0  0  0
   45.0110   34.3400   37.0450 H   0  0  0  0  0  0  0  0  0  0  0  0
   45.3590   32.5190   36.0470 C   0  0  0  0  0  0  0  0  0  0  0  0
   45.1810   32.8200   34.7460 N   0  0  0  0  0  0  0  0  0  0  0  0
   44.9330   33.7070   34.2660 H   0  0  0  0  0  0  0  0  0  0  0  0
   45.3790   31.7150   33.9840 C   0  0  0  0  0  0  0  0  0  0  0  0
   45.3210   31.5890   32.9080 H   0  0  0  0  0  0  0  0  0  0  0  0
   45.6890   30.7010   34.8560 C   0  0  0  0  0  0  0  0  0  0  0  0
   45.6810   31.1820   36.1430 C   0  0  0  0  0  0  0  0  0  0  0  0
   45.9130   30.6340   37.4000 C   0  0  0  0  0  0  0  0  0  0  0  0
   42.7450   35.6300   41.8290 S   0  0  0  0  0  0  0  0  0  0  0  0
   40.5270   35.3550   40.3250 C   0  0  0  0  0  0  0  0  0  0  0  0
   41.3440   34.6960   41.2340 C   0  0  0  0  0  0  0  0  0  0  0  0
   41.0630   33.4180   41.6240 C   0  0  0  0  0  0  0  0  0  0  0  0
   39.9690   32.7210   41.1450 C   0  0  0  0  0  0  0  0  0  0  0  0
   39.1430   33.3910   40.2250 C   0  0  0  0  0  0  0  0  0  0  0  0
   39.3990   34.6830   39.8090 C   0  0  0  0  0  0  0  0  0  0  0  0
   38.1110   32.4960   39.8840 O   0  0  0  0  0  0  0  0  0  0  0  0
   38.1360   31.4650   40.8290 C   0  0  0  0  0  0  0  0  0  0  0  0
   39.4450   31.4430   41.3570 O   0  0  0  0  0  0  0  0  0  0  0  0
   40.6710   36.3670   39.9580 H   0  0  0  0  0  0  0  0  0  0  0  0
   41.7250   32.9230   42.3430 H   0  0  0  0  0  0  0  0  0  0  0  0
   38.7510   35.1730   39.1030 H   0  0  0  0  0  0  0  0  0  0  0  0
   38.0020   30.4890   40.2900 H   0  0  0  0  0  0  0  0  0  0  0  0
   37.3640   31.5760   41.6220 H   0  0  0  0  0  0  0  0  0  0  0  0
   47.6710   34.5970   42.3070 O   0  0  0  0  0  0  0  0  0  0  0  0
   48.9070   34.8460   41.7020 C   0  0  0  0  0  0  0  0  0  0  0  0
   49.5120   33.7420   41.1970 F   0  0  0  0  0  0  0  0  0  0  0  0
   48.6430   35.8140   40.7140 F   0  0  0  0  0  0  0  0  0  0  0  0
   49.7400   35.3980   42.6780 F   0  0  0  0  0  0  0  0  0  0  0  0
  1 20  1  0  0  0  0
  1  6  1  0  0  0  0
  2  1  2  0  0  0  0
  3  2  1  0  0  0  0
  3  4  2  0  0  0  0
  4  5  1  0  0  0  0
  5  6  2  0  0  0  0
  5 35  1  0  0  0  0
  7  2  1  0  0  0  0
  9  8  1  0  0  0  0
  9  3  1  0  0  0  0
 10  9  2  0  0  0  0
 11 10  1  0  0  0  0
 12 18  2  0  0  0  0
 12 10  1  0  0  0  0
 13 12  1  0  0  0  0
 14 13  1  0  0  0  0
 15 13  1  0  0  0  0
 15 17  2  0  0  0  0
 16 15  1  0  0  0  0
 17 18  1  0  0  0  0
 18 19  1  0  0  0  0
 19  8  2  0  0  0  0
 21 22  1  0  0  0  0
 22 23  2  0  0  0  0
 22 20  1  0  0  0  0
 23 31  1  0  0  0  0
 24 29  1  0  0  0  0
 24 23  1  0  0  0  0
 25 24  2  0  0  0  0
 26 25  1  0  0  0  0
 26 21  2  0  0  0  0
 27 25  1  0  0  0  0
 27 28  1  0  0  0  0
 28 29  1  0  0  0  0
 28 34  1  0  0  0  0
 30 21  1  0  0  0  0
 32 26  1  0  0  0  0
 33 28  1  0  0  0  0
 36 35  1  0  0  0  0
 36 39  1  0  0  0  0
 37 36  1  0  0  0  0
 38 36  1  0  0  0  0
M  END
>  <minimizedAffinity>
-6.62392759

>  <minimizedRMSD>
0.902346313

$$$$
