
 OpenBabel03252501593D

 37 41  0  0  0  0  0  0  0  0999 V2000
   47.2610   32.3670   48.0040 C   0  0  0  0  0  0  0  0  0  0  0  0
   46.8870   31.0340   48.0460 C   0  0  0  0  0  0  0  0  0  0  0  0
   46.1660   30.5770   46.9830 C   0  0  0  0  0  0  0  0  0  0  0  0
   45.8560   31.3950   45.9730 N   0  0  0  0  0  0  0  0  0  0  0  0
   46.2120   32.6700   45.9300 C   0  0  0  0  0  0  0  0  0  0  0  0
   46.9140   33.1150   46.9650 N   0  0  0  0  0  0  0  0  0  0  0  0
   47.8420   32.7280   48.8640 H   0  0  0  0  0  0  0  0  0  0  0  0
   45.9810   33.7220   44.9410 C   0  0  0  0  0  0  0  0  0  0  0  0
   44.9830   34.6320   45.0140 N   0  0  0  0  0  0  0  0  0  0  0  0
   44.7480   35.5980   44.1330 C   0  0  0  0  0  0  0  0  0  0  0  0
   45.5440   35.7300   43.0510 N   0  0  0  0  0  0  0  0  0  0  0  0
   46.5800   34.8830   42.8610 C   0  0  0  0  0  0  0  0  0  0  0  0
   47.3980   35.0190   41.7490 C   0  0  0  0  0  0  0  0  0  0  0  0
   48.4510   34.1710   41.5390 C   0  0  0  0  0  0  0  0  0  0  0  0
   48.6600   33.1860   42.4720 C   0  0  0  0  0  0  0  0  0  0  0  0
   47.8260   33.0830   43.5630 C   0  0  0  0  0  0  0  0  0  0  0  0
   46.7510   33.9150   43.8180 C   0  0  0  0  0  0  0  0  0  0  0  0
   43.9120   36.2800   44.2890 H   0  0  0  0  0  0  0  0  0  0  0  0
   47.1450   35.8270   41.0760 H   0  0  0  0  0  0  0  0  0  0  0  0
   49.0600   34.3010   40.6780 H   0  0  0  0  0  0  0  0  0  0  0  0
   49.4790   32.4840   42.3590 H   0  0  0  0  0  0  0  0  0  0  0  0
   48.0430   32.2740   44.2770 H   0  0  0  0  0  0  0  0  0  0  0  0
   46.4540   28.0920   47.2720 C   0  0  0  0  0  3  0  0  0  0  0  0
   45.7220   29.2060   46.9160 C   0  0  0  0  0  0  0  0  0  0  0  0
   44.4150   29.0410   46.4410 C   0  0  0  0  0  0  0  0  0  0  0  0
   43.7980   29.8630   46.1510 H   0  0  0  0  0  0  0  0  0  0  0  0
   43.8900   27.7700   46.3380 C   0  0  0  0  0  0  0  0  0  0  0  0
   42.7030   27.2850   45.9300 N   0  0  0  0  0  0  0  0  0  0  0  0
   41.8900   27.8390   45.5870 H   0  0  0  0  0  0  0  0  0  0  0  0
   42.6320   25.9500   46.0010 C   0  0  0  0  0  0  0  0  0  0  0  0
   41.8050   25.3080   45.7400 H   0  0  0  0  0  0  0  0  0  0  0  0
   43.8570   25.4910   46.4920 C   0  0  0  0  0  3  0  0  0  0  0  0
   44.6010   26.6380   46.6870 C   0  0  0  0  0  0  0  0  0  0  0  0
   45.8980   26.8580   47.1540 C   0  0  0  0  0  3  0  0  0  0  0  0
   47.2450   30.2240   49.1380 N   0  0  0  0  0  0  0  0  0  0  0  0
   47.1710   30.5680   50.1390 H   0  0  0  0  0  0  0  0  0  0  0  0
   47.5980   29.2500   48.9660 H   0  0  0  0  0  0  0  0  0  0  0  0
  1  2  1  0  0  0  0
  1  7  1  0  0  0  0
  2 35  1  0  0  0  0
  3  2  2  0  0  0  0
  4  3  1  0  0  0  0
  5  4  2  0  0  0  0
  5  6  1  0  0  0  0
  6  1  2  0  0  0  0
  8  9  1  0  0  0  0
  8  5  1  0  0  0  0
 10 18  1  0  0  0  0
 10  9  2  0  0  0  0
 11 10  1  0  0  0  0
 12 11  2  0  0  0  0
 12 17  1  0  0  0  0
 13 12  1  0  0  0  0
 14 13  2  0  0  0  0
 14 15  1  0  0  0  0
 15 16  2  0  0  0  0
 16 17  1  0  0  0  0
 16 22  1  0  0  0  0
 17  8  2  0  0  0  0
 19 13  1  0  0  0  0
 20 14  1  0  0  0  0
 21 15  1  0  0  0  0
 24  3  1  0  0  0  0
 24 23  2  0  0  0  0
 25 24  1  0  0  0  0
 26 25  1  0  0  0  0
 27 25  2  0  0  0  0
 27 33  1  0  0  0  0
 28 30  1  0  0  0  0
 28 27  1  0  0  0  0
 29 28  1  0  0  0  0
 30 32  2  0  0  0  0
 31 30  1  0  0  0  0
 32 33  1  0  0  0  0
 33 34  2  0  0  0  0
 34 23  1  0  0  0  0
 35 36  1  0  0  0  0
 37 35  1  0  0  0  0
M  END
>  <minimizedAffinity>
-6.74316692

>  <minimizedRMSD>
0.54925406

$$$$
