
 OpenBabel03252502463D

 48 52  0  0  1  0  0  0  0  0999 V2000
   48.1110   35.7810   42.0560 C   0  0  0  0  0  0  0  0  0  0  0  0
   48.3090   35.8900   43.1420 H   0  0  0  0  0  0  0  0  0  0  0  0
   48.1510   36.8210   41.6530 H   0  0  0  0  0  0  0  0  0  0  0  0
   49.1540   34.8900   41.4660 C   0  0  1  0  0  0  0  0  0  0  0  0
   50.2010   34.3410   42.3860 C   0  0  0  0  0  0  0  0  0  0  0  0
   49.1250   33.4800   41.8330 C   0  0  2  0  0  0  0  0  0  0  0  0
   49.5300   35.2320   40.5070 H   0  0  0  0  0  0  0  0  0  0  0  0
   51.2510   34.2630   42.0480 H   0  0  0  0  0  0  0  0  0  0  0  0
   50.1460   34.6660   43.4540 H   0  0  0  0  0  0  0  0  0  0  0  0
   48.4750   33.0290   42.5730 H   0  0  0  0  0  0  0  0  0  0  0  0
   49.5900   32.5990   40.7640 N   0  0  0  0  0  0  0  0  0  0  0  0
   48.7510   32.5610   39.6220 C   0  0  0  0  0  0  0  0  0  0  0  0
   49.4060   31.5860   38.6590 C   0  0  0  0  0  0  0  0  0  0  0  0
   49.4590   30.2720   39.1950 N   0  0  0  0  0  0  0  0  0  0  0  0
   49.5240   30.2200   40.6430 C   0  0  0  0  0  0  0  0  0  0  0  0
   50.2710   31.4460   41.1700 C   0  0  0  0  0  0  0  0  0  0  0  0
   48.7530   33.5540   39.1140 H   0  0  0  0  0  0  0  0  0  0  0  0
   47.7310   32.2600   39.8990 H   0  0  0  0  0  0  0  0  0  0  0  0
   48.8160   31.5980   37.7120 H   0  0  0  0  0  0  0  0  0  0  0  0
   50.3830   32.0380   38.3980 H   0  0  0  0  0  0  0  0  0  0  0  0
   50.1760   29.6880   38.7320 H   0  0  0  0  0  0  0  0  0  0  0  0
   48.5190   30.2630   41.0880 H   0  0  0  0  0  0  0  0  0  0  0  0
   50.0290   29.2880   40.9050 H   0  0  0  0  0  0  0  0  0  0  0  0
   50.3800   31.3780   42.2530 H   0  0  0  0  0  0  0  0  0  0  0  0
   51.3080   31.3840   40.7380 H   0  0  0  0  0  0  0  0  0  0  0  0
   46.7870   35.1020   41.8450 C   0  0  0  0  0  0  0  0  0  0  0  0
   46.1210   35.8800   41.3720 H   0  0  0  0  0  0  0  0  0  0  0  0
   46.7670   34.2570   41.1760 H   0  0  0  0  0  0  0  0  0  0  0  0
   44.6350   35.5170   44.8870 C   0  0  0  0  0  0  0  0  0  0  0  0
   45.2150   35.7460   43.6200 C   0  0  0  0  0  0  0  0  0  0  0  0
   46.1590   34.8680   43.1850 C   0  0  0  0  0  0  0  0  0  0  0  0
   46.5090   33.8120   43.9750 N   0  0  0  0  0  0  0  0  0  0  0  0
   45.9630   33.6080   45.1520 C   0  0  0  0  0  0  0  0  0  0  0  0
   45.0240   34.4520   45.6230 N   0  0  0  0  0  0  0  0  0  0  0  0
   43.8830   36.1810   45.2780 H   0  0  0  0  0  0  0  0  0  0  0  0
   44.8600   36.6150   43.0830 H   0  0  0  0  0  0  0  0  0  0  0  0
   46.9820   32.6740   47.1970 C   0  0  0  0  0  3  0  0  0  0  0  0
   46.3590   32.4600   45.9840 C   0  0  0  0  0  0  0  0  0  0  0  0
   46.1110   31.1620   45.5590 C   0  0  0  0  0  0  0  0  0  0  0  0
   45.6320   31.0100   44.6240 H   0  0  0  0  0  0  0  0  0  0  0  0
   46.5210   30.1460   46.4140 C   0  0  0  0  0  0  0  0  0  0  0  0
   46.3610   28.8330   46.1610 N   0  0  0  0  0  0  0  0  0  0  0  0
   45.9250   28.3390   45.3270 H   0  0  0  0  0  0  0  0  0  0  0  0
   46.8670   28.1490   47.1870 C   0  0  0  0  0  0  0  0  0  0  0  0
   46.9100   27.0750   47.3240 H   0  0  0  0  0  0  0  0  0  0  0  0
   47.3690   29.0460   48.1300 C   0  0  0  0  0  3  0  0  0  0  0  0
   47.1430   30.3230   47.6250 C   0  0  0  0  0  0  0  0  0  0  0  0
   47.3820   31.6270   48.0340 C   0  0  0  0  0  3  0  0  0  0  0  0
  1  2  1  0  0  0  0
  3  1  1  0  0  0  0
  4  7  1  6  0  0  0
  4  6  1  0  0  0  0
  4  1  1  0  0  0  0
  4  5  1  0  0  0  0
  5  9  1  0  0  0  0
  6  5  1  0  0  0  0
  6 10  1  1  0  0  0
  8  5  1  0  0  0  0
 11 16  1  0  0  0  0
 11  6  1  0  0  0  0
 12 18  1  0  0  0  0
 12 11  1  0  0  0  0
 13 14  1  0  0  0  0
 13 12  1  0  0  0  0
 14 15  1  0  0  0  0
 15 23  1  0  0  0  0
 15 22  1  0  0  0  0
 15 16  1  0  0  0  0
 16 24  1  0  0  0  0
 17 12  1  0  0  0  0
 19 13  1  0  0  0  0
 20 13  1  0  0  0  0
 21 14  1  0  0  0  0
 25 16  1  0  0  0  0
 26  1  1  0  0  0  0
 26 31  1  0  0  0  0
 27 26  1  0  0  0  0
 28 26  1  0  0  0  0
 29 35  1  0  0  0  0
 29 34  1  0  0  0  0
 30 29  2  0  0  0  0
 31 30  1  0  0  0  0
 31 32  2  0  0  0  0
 32 33  1  0  0  0  0
 33 34  2  0  0  0  0
 33 38  1  0  0  0  0
 36 30  1  0  0  0  0
 37 48  1  0  0  0  0
 38 37  2  0  0  0  0
 39 38  1  0  0  0  0
 39 41  2  0  0  0  0
 40 39  1  0  0  0  0
 41 47  1  0  0  0  0
 42 41  1  0  0  0  0
 42 44  1  0  0  0  0
 43 42  1  0  0  0  0
 44 45  1  0  0  0  0
 44 46  2  0  0  0  0
 47 48  2  0  0  0  0
 47 46  1  0  0  0  0
M  END
>  <minimizedAffinity>
-5.47465944

>  <minimizedRMSD>
1.69017696

$$$$
