
 OpenBabel03242514123D

 49 53  0  0  1  0  0  0  0  0999 V2000
   37.2010   26.5250   40.8020 C   0  0  0  0  0  0  0  0  0  0  0  0
   37.2280   25.9610   42.0530 C   0  0  0  0  0  0  0  0  0  0  0  0
   36.9560   24.6280   42.3010 C   0  0  0  0  0  0  0  0  0  0  0  0
   36.6450   23.8800   41.1580 C   0  0  0  0  0  0  0  0  0  0  0  0
   36.6180   24.4560   39.8770 C   0  0  0  0  0  0  0  0  0  0  0  0
   36.8930   25.7630   39.7130 N   0  0  0  0  0  0  0  0  0  0  0  0
   37.4800   26.6240   42.8740 H   0  0  0  0  0  0  0  0  0  0  0  0
   36.9870   24.2280   43.2900 H   0  0  0  0  0  0  0  0  0  0  0  0
   36.4390   22.8490   41.4100 H   0  0  0  0  0  0  0  0  0  0  0  0
   36.3040   23.6180   38.7280 C   0  0  1  0  0  0  0  0  0  0  0  0
   34.8140   23.8720   38.2510 C   0  0  0  0  0  0  0  0  0  0  0  0
   34.5490   22.6120   37.3730 C   0  0  0  0  0  0  0  0  0  0  0  0
   35.3400   22.8950   36.0990 C   0  0  0  0  0  0  0  0  0  0  0  0
   36.7950   22.9760   36.3690 C   0  0  0  0  0  0  0  0  0  0  0  0
   37.2110   23.6540   37.6210 C   0  0  2  0  0  0  0  0  0  0  0  0
   36.1810   22.5700   39.1340 H   0  0  0  0  0  0  0  0  0  0  0  0
   34.1560   23.8510   39.1230 H   0  0  0  0  0  0  0  0  0  0  0  0
   34.7950   24.7720   37.6370 H   0  0  0  0  0  0  0  0  0  0  0  0
   33.4900   22.5890   37.0580 H   0  0  0  0  0  0  0  0  0  0  0  0
   34.8830   21.7120   37.8960 H   0  0  0  0  0  0  0  0  0  0  0  0
   35.1440   22.0970   35.3580 H   0  0  0  0  0  0  0  0  0  0  0  0
   34.9430   23.8270   35.6660 H   0  0  0  0  0  0  0  0  0  0  0  0
   37.1690   21.9110   36.3310 H   0  0  0  0  0  0  0  0  0  0  0  0
   37.2820   23.4430   35.4860 H   0  0  0  0  0  0  0  0  0  0  0  0
   37.4060   24.7310   37.3280 H   0  0  0  0  0  0  0  0  0  0  0  0
   38.7410   22.8240   38.1620 S   0  0  0  0  0  0  0  0  0  0  0  0
   38.5180   21.9980   39.2550 H   0  0  0  0  0  0  0  0  0  0  0  0
   38.8470   29.6960   40.0050 C   0  0  0  0  0  0  0  0  0  0  0  0
   37.9080   30.6490   40.3630 C   0  0  0  0  0  0  0  0  0  0  0  0
   36.7210   30.1930   40.8690 C   0  0  0  0  0  0  0  0  0  0  0  0
   36.5310   28.8410   40.9930 N   0  0  0  0  0  0  0  0  0  0  0  0
   37.5060   27.9350   40.6190 C   0  0  0  0  0  0  0  0  0  0  0  0
   38.6190   28.3670   40.1430 N   0  0  0  0  0  0  0  0  0  0  0  0
   35.6580   30.9990   41.2690 N   0  0  0  0  0  0  0  0  0  0  0  0
   39.7980   30.0470   39.5990 H   0  0  0  0  0  0  0  0  0  0  0  0
   34.7140   30.9100   40.8300 H   0  0  0  0  0  0  0  0  0  0  0  0
   35.9980   31.6310   42.0200 H   0  0  0  0  0  0  0  0  0  0  0  0
   37.2110   32.9450   39.6230 C   0  0  0  0  0  3  0  0  0  0  0  0
   38.1150   32.0870   40.2300 C   0  0  0  0  0  0  0  0  0  0  0  0
   39.3050   32.5870   40.7580 C   0  0  0  0  0  0  0  0  0  0  0  0
   40.0530   31.9810   41.2430 H   0  0  0  0  0  0  0  0  0  0  0  0
   39.5710   33.9400   40.6690 C   0  0  0  0  0  0  0  0  0  0  0  0
   40.6190   34.6800   41.0840 N   0  0  0  0  0  0  0  0  0  0  0  0
   41.4730   34.3170   41.5830 H   0  0  0  0  0  0  0  0  0  0  0  0
   40.3780   35.9620   40.7470 C   0  0  0  0  0  0  0  0  0  0  0  0
   41.0350   36.7870   40.9470 H   0  0  0  0  0  0  0  0  0  0  0  0
   39.1410   36.0300   40.1010 C   0  0  0  0  0  3  0  0  0  0  0  0
   38.6400   34.7420   40.0570 C   0  0  0  0  0  0  0  0  0  0  0  0
   37.4600   34.3060   39.5240 C   0  0  0  0  0  3  0  0  0  0  0  0
  1  2  1  0  0  0  0
  2  3  2  0  0  0  0
  2  7  1  0  0  0  0
  3  8  1  0  0  0  0
  4  9  1  0  0  0  0
  4  3  1  0  0  0  0
  5  4  2  0  0  0  0
  6  5  1  0  0  0  0
  6  1  2  0  0  0  0
 10 16  1  1  0  0  0
 10  5  1  0  0  0  0
 11 10  1  0  0  0  0
 11 17  1  0  0  0  0
 12 20  1  0  0  0  0
 12 11  1  0  0  0  0
 13 14  1  0  0  0  0
 13 12  1  0  0  0  0
 14 15  1  0  0  0  0
 15 25  1  6  0  0  0
 15 26  1  0  0  0  0
 15 10  1  0  0  0  0
 18 11  1  0  0  0  0
 19 12  1  0  0  0  0
 21 13  1  0  0  0  0
 22 13  1  0  0  0  0
 23 14  1  0  0  0  0
 24 14  1  0  0  0  0
 26 27  1  0  0  0  0
 28 33  2  0  0  0  0
 28 29  1  0  0  0  0
 29 30  2  0  0  0  0
 30 31  1  0  0  0  0
 30 34  1  0  0  0  0
 32  1  1  0  0  0  0
 32 31  2  0  0  0  0
 33 32  1  0  0  0  0
 34 37  1  0  0  0  0
 35 28  1  0  0  0  0
 36 34  1  0  0  0  0
 38 39  1  0  0  0  0
 39 29  1  0  0  0  0
 39 40  2  0  0  0  0
 40 41  1  0  0  0  0
 42 40  1  0  0  0  0
 42 43  1  0  0  0  0
 43 44  1  0  0  0  0
 45 46  1  0  0  0  0
 45 43  1  0  0  0  0
 47 45  2  0  0  0  0
 48 47  1  0  0  0  0
 48 42  2  0  0  0  0
 49 38  2  0  0  0  0
 49 48  1  0  0  0  0
M  END
>  <minimizedAffinity>
-7.49200678

$$$$

 OpenBabel03242514123D

 49 53  0  0  1  0  0  0  0  0999 V2000
   37.5100   26.4610   40.8780 C   0  0  0  0  0  0  0  0  0  0  0  0
   37.2250   25.9710   42.1270 C   0  0  0  0  0  0  0  0  0  0  0  0
   36.9920   24.6350   42.3950 C   0  0  0  0  0  0  0  0  0  0  0  0
   37.0690   23.8000   41.2720 C   0  0  0  0  0  0  0  0  0  0  0  0
   37.3610   24.3010   39.9920 C   0  0  0  0  0  0  0  0  0  0  0  0
   37.5770   25.6160   39.8080 N   0  0  0  0  0  0  0  0  0  0  0  0
   37.1870   26.6990   42.9320 H   0  0  0  0  0  0  0  0  0  0  0  0
   36.7730   24.2950   43.3820 H   0  0  0  0  0  0  0  0  0  0  0  0
   36.8770   22.7700   41.5380 H   0  0  0  0  0  0  0  0  0  0  0  0
   37.4450   23.3750   38.8700 C   0  0  1  0  0  0  0  0  0  0  0  0
   38.7880   22.5380   38.9450 C   0  0  0  0  0  0  0  0  0  0  0  0
   38.8940   21.9890   37.4900 C   0  0  0  0  0  0  0  0  0  0  0  0
   37.8400   20.8880   37.4490 C   0  0  0  0  0  0  0  0  0  0  0  0
   36.4750   21.4340   37.6420 C   0  0  0  0  0  0  0  0  0  0  0  0
   36.3200   22.5210   38.6390 C   0  0  2  0  0  0  0  0  0  0  0  0
   37.6820   24.0080   37.9650 H   0  0  0  0  0  0  0  0  0  0  0  0
   39.6200   23.2220   39.1360 H   0  0  0  0  0  0  0  0  0  0  0  0
   38.6480   21.7190   39.6500 H   0  0  0  0  0  0  0  0  0  0  0  0
   39.8610   21.4710   37.3530 H   0  0  0  0  0  0  0  0  0  0  0  0
   38.7080   22.7910   36.7710 H   0  0  0  0  0  0  0  0  0  0  0  0
   37.8950   20.3600   36.4780 H   0  0  0  0  0  0  0  0  0  0  0  0
   38.1070   20.1490   38.2210 H   0  0  0  0  0  0  0  0  0  0  0  0
   36.1330   21.7610   36.6170 H   0  0  0  0  0  0  0  0  0  0  0  0
   35.7960   20.5850   37.8720 H   0  0  0  0  0  0  0  0  0  0  0  0
   36.0350   22.0030   39.6050 H   0  0  0  0  0  0  0  0  0  0  0  0
   34.9670   23.5790   38.0280 S   0  0  0  0  0  0  0  0  0  0  0  0
   35.4440   24.7770   37.5150 H   0  0  0  0  0  0  0  0  0  0  0  0
   39.0020   29.6910   40.0150 C   0  0  0  0  0  0  0  0  0  0  0  0
   38.0320   30.6070   40.3870 C   0  0  0  0  0  0  0  0  0  0  0  0
   36.8780   30.1070   40.9260 C   0  0  0  0  0  0  0  0  0  0  0  0
   36.7480   28.7490   41.0660 N   0  0  0  0  0  0  0  0  0  0  0  0
   37.7510   27.8810   40.6760 C   0  0  0  0  0  0  0  0  0  0  0  0
   38.8330   28.3550   40.1690 N   0  0  0  0  0  0  0  0  0  0  0  0
   35.7910   30.8710   41.3440 N   0  0  0  0  0  0  0  0  0  0  0  0
   39.9270   30.0780   39.5830 H   0  0  0  0  0  0  0  0  0  0  0  0
   34.8420   30.7380   40.9290 H   0  0  0  0  0  0  0  0  0  0  0  0
   36.1220   31.5240   42.0820 H   0  0  0  0  0  0  0  0  0  0  0  0
   37.2460   32.8580   39.5990 C   0  0  0  0  0  3  0  0  0  0  0  0
   38.1750   32.0510   40.2380 C   0  0  0  0  0  0  0  0  0  0  0  0
   39.3290   32.6130   40.7830 C   0  0  0  0  0  0  0  0  0  0  0  0
   40.0940   32.0500   41.2930 H   0  0  0  0  0  0  0  0  0  0  0  0
   39.5340   33.9750   40.6800 C   0  0  0  0  0  0  0  0  0  0  0  0
   40.5380   34.7700   41.1070 N   0  0  0  0  0  0  0  0  0  0  0  0
   41.3970   34.4530   41.6290 H   0  0  0  0  0  0  0  0  0  0  0  0
   40.2450   36.0340   40.7460 C   0  0  0  0  0  0  0  0  0  0  0  0
   40.8590   36.8920   40.9470 H   0  0  0  0  0  0  0  0  0  0  0  0
   39.0200   36.0350   40.0730 C   0  0  0  0  0  3  0  0  0  0  0  0
   38.5810   34.7250   40.0380 C   0  0  0  0  0  0  0  0  0  0  0  0
   37.4340   34.2280   39.4860 C   0  0  0  0  0  3  0  0  0  0  0  0
  1  2  1  0  0  0  0
  2  3  2  0  0  0  0
  2  7  1  0  0  0  0
  3  8  1  0  0  0  0
  4  9  1  0  0  0  0
  4  3  1  0  0  0  0
  5  4  2  0  0  0  0
  6  5  1  0  0  0  0
  6  1  2  0  0  0  0
 10 16  1  6  0  0  0
 10 11  1  0  0  0  0
 10  5  1  0  0  0  0
 11 17  1  0  0  0  0
 11 18  1  0  0  0  0
 12 11  1  0  0  0  0
 13 12  1  0  0  0  0
 13 14  1  0  0  0  0
 13 22  1  0  0  0  0
 14 24  1  0  0  0  0
 14 15  1  0  0  0  0
 15 10  1  0  0  0  0
 15 25  1  1  0  0  0
 19 12  1  0  0  0  0
 20 12  1  0  0  0  0
 21 13  1  0  0  0  0
 23 14  1  0  0  0  0
 26 15  1  0  0  0  0
 27 26  1  0  0  0  0
 28 33  2  0  0  0  0
 28 29  1  0  0  0  0
 29 30  2  0  0  0  0
 30 31  1  0  0  0  0
 30 34  1  0  0  0  0
 32  1  1  0  0  0  0
 32 31  2  0  0  0  0
 33 32  1  0  0  0  0
 34 37  1  0  0  0  0
 35 28  1  0  0  0  0
 36 34  1  0  0  0  0
 38 39  1  0  0  0  0
 39 29  1  0  0  0  0
 39 40  2  0  0  0  0
 40 41  1  0  0  0  0
 42 40  1  0  0  0  0
 42 43  1  0  0  0  0
 43 44  1  0  0  0  0
 45 46  1  0  0  0  0
 45 43  1  0  0  0  0
 47 45  2  0  0  0  0
 48 47  1  0  0  0  0
 48 42  2  0  0  0  0
 49 38  2  0  0  0  0
 49 48  1  0  0  0  0
M  END
>  <minimizedAffinity>
-7.37644434

$$$$

 OpenBabel03242514123D

 49 53  0  0  1  0  0  0  0  0999 V2000
   39.9600   33.4790   40.7700 C   0  0  0  0  0  0  0  0  0  0  0  0
   39.1980   34.5350   40.3380 C   0  0  0  0  0  0  0  0  0  0  0  0
   39.6980   35.8060   40.1210 C   0  0  0  0  0  0  0  0  0  0  0  0
   41.0680   35.9390   40.3820 C   0  0  0  0  0  0  0  0  0  0  0  0
   41.8490   34.8580   40.8250 C   0  0  0  0  0  0  0  0  0  0  0  0
   41.2920   33.6490   41.0140 N   0  0  0  0  0  0  0  0  0  0  0  0
   38.1470   34.3310   40.1630 H   0  0  0  0  0  0  0  0  0  0  0  0
   39.0710   36.6010   39.7840 H   0  0  0  0  0  0  0  0  0  0  0  0
   41.4040   36.9510   40.2000 H   0  0  0  0  0  0  0  0  0  0  0  0
   43.2720   35.0610   41.0610 C   0  0  1  0  0  0  0  0  0  0  0  0
   43.5320   35.4290   42.5800 C   0  0  0  0  0  0  0  0  0  0  0  0
   44.9670   36.0330   42.5130 C   0  0  0  0  0  0  0  0  0  0  0  0
   45.8580   34.8100   42.3300 C   0  0  0  0  0  0  0  0  0  0  0  0
   45.5820   34.1220   41.0460 C   0  0  0  0  0  0  0  0  0  0  0  0
   44.1640   34.0300   40.6230 C   0  0  2  0  0  0  0  0  0  0  0  0
   43.5240   36.0580   40.5930 H   0  0  0  0  0  0  0  0  0  0  0  0
   42.8250   36.2070   42.8810 H   0  0  0  0  0  0  0  0  0  0  0  0
   43.5350   34.5100   43.1650 H   0  0  0  0  0  0  0  0  0  0  0  0
   45.2460   36.4510   43.4970 H   0  0  0  0  0  0  0  0  0  0  0  0
   45.0370   36.7460   41.6860 H   0  0  0  0  0  0  0  0  0  0  0  0
   46.9210   35.1170   42.3650 H   0  0  0  0  0  0  0  0  0  0  0  0
   45.6960   34.1520   43.1990 H   0  0  0  0  0  0  0  0  0  0  0  0
   46.2090   34.6590   40.2750 H   0  0  0  0  0  0  0  0  0  0  0  0
   46.0490   33.1150   41.0880 H   0  0  0  0  0  0  0  0  0  0  0  0
   43.8010   33.0290   41.0100 H   0  0  0  0  0  0  0  0  0  0  0  0
   44.1740   34.0760   38.8010 S   0  0  0  0  0  0  0  0  0  0  0  0
   43.7330   35.3000   38.3160 H   0  0  0  0  0  0  0  0  0  0  0  0
   37.7030   30.5970   40.7340 C   0  0  0  0  0  0  0  0  0  0  0  0
   38.3880   29.6380   41.4620 C   0  0  0  0  0  0  0  0  0  0  0  0
   39.6160   29.9900   41.9530 C   0  0  0  0  0  0  0  0  0  0  0  0
   40.0920   31.2510   41.7020 N   0  0  0  0  0  0  0  0  0  0  0  0
   39.3630   32.1680   40.9680 C   0  0  0  0  0  0  0  0  0  0  0  0
   38.2100   31.8330   40.5070 N   0  0  0  0  0  0  0  0  0  0  0  0
   40.4520   29.1570   42.6930 N   0  0  0  0  0  0  0  0  0  0  0  0
   36.7230   30.3280   40.3360 H   0  0  0  0  0  0  0  0  0  0  0  0
   41.4150   28.9230   42.3640 H   0  0  0  0  0  0  0  0  0  0  0  0
   39.9400   28.8660   43.5490 H   0  0  0  0  0  0  0  0  0  0  0  0
   37.1410   27.9600   42.8530 C   0  0  0  0  0  3  0  0  0  0  0  0
   37.8780   28.2970   41.7270 C   0  0  0  0  0  0  0  0  0  0  0  0
   38.1710   27.3290   40.7680 C   0  0  0  0  0  0  0  0  0  0  0  0
   38.7370   27.5180   39.8710 H   0  0  0  0  0  0  0  0  0  0  0  0
   37.7210   26.0350   40.9510 C   0  0  0  0  0  0  0  0  0  0  0  0
   37.8540   24.9210   40.2020 N   0  0  0  0  0  0  0  0  0  0  0  0
   38.3650   24.8530   39.2820 H   0  0  0  0  0  0  0  0  0  0  0  0
   37.2210   23.9170   40.8390 C   0  0  0  0  0  0  0  0  0  0  0  0
   37.1550   22.9060   40.4860 H   0  0  0  0  0  0  0  0  0  0  0  0
   36.6720   24.4150   42.0240 C   0  0  0  0  0  3  0  0  0  0  0  0
   36.9970   25.7580   42.0830 C   0  0  0  0  0  0  0  0  0  0  0  0
   36.6810   26.6660   43.0540 C   0  0  0  0  0  3  0  0  0  0  0  0
  1 32  1  0  0  0  0
  1  6  1  0  0  0  0
  2  1  2  0  0  0  0
  3  2  1  0  0  0  0
  3  4  2  0  0  0  0
  4  5  1  0  0  0  0
  5  6  2  0  0  0  0
  5 10  1  0  0  0  0
  7  2  1  0  0  0  0
  8  3  1  0  0  0  0
  9  4  1  0  0  0  0
 10 16  1  6  0  0  0
 10 11  1  0  0  0  0
 11 17  1  0  0  0  0
 11 18  1  0  0  0  0
 12 11  1  0  0  0  0
 12 19  1  0  0  0  0
 13 21  1  0  0  0  0
 13 12  1  0  0  0  0
 13 22  1  0  0  0  0
 14 24  1  0  0  0  0
 14 13  1  0  0  0  0
 15 25  1  1  0  0  0
 15 14  1  0  0  0  0
 15 10  1  0  0  0  0
 20 12  1  0  0  0  0
 23 14  1  0  0  0  0
 26 15  1  0  0  0  0
 27 26  1  0  0  0  0
 28 29  1  0  0  0  0
 29 39  1  0  0  0  0
 29 30  2  0  0  0  0
 30 34  1  0  0  0  0
 31 30  1  0  0  0  0
 32 31  2  0  0  0  0
 33 28  2  0  0  0  0
 33 32  1  0  0  0  0
 34 37  1  0  0  0  0
 35 28  1  0  0  0  0
 36 34  1  0  0  0  0
 38 49  1  0  0  0  0
 39 38  2  0  0  0  0
 40 42  2  0  0  0  0
 40 39  1  0  0  0  0
 41 40  1  0  0  0  0
 42 48  1  0  0  0  0
 43 45  1  0  0  0  0
 43 42  1  0  0  0  0
 44 43  1  0  0  0  0
 45 47  2  0  0  0  0
 46 45  1  0  0  0  0
 47 48  1  0  0  0  0
 48 49  2  0  0  0  0
M  END
>  <minimizedAffinity>
-7.19263363

$$$$

 OpenBabel03242514123D

 49 53  0  0  1  0  0  0  0  0999 V2000
   39.5950   32.6560   40.5710 C   0  0  0  0  0  0  0  0  0  0  0  0
   38.6730   33.6720   40.5250 C   0  0  0  0  0  0  0  0  0  0  0  0
   39.0070   35.0140   40.5030 C   0  0  0  0  0  0  0  0  0  0  0  0
   40.3850   35.2650   40.5330 C   0  0  0  0  0  0  0  0  0  0  0  0
   41.3300   34.2260   40.5800 C   0  0  0  0  0  0  0  0  0  0  0  0
   40.9290   32.9420   40.5990 N   0  0  0  0  0  0  0  0  0  0  0  0
   37.6300   33.3740   40.5050 H   0  0  0  0  0  0  0  0  0  0  0  0
   38.2590   35.7740   40.4670 H   0  0  0  0  0  0  0  0  0  0  0  0
   40.5890   36.3270   40.5180 H   0  0  0  0  0  0  0  0  0  0  0  0
   42.7490   34.5570   40.5920 C   0  0  1  0  0  0  0  0  0  0  0  0
   43.2950   34.5890   42.0790 C   0  0  0  0  0  0  0  0  0  0  0  0
   44.6270   35.3790   41.9040 C   0  0  0  0  0  0  0  0  0  0  0  0
   45.5580   34.3640   41.2490 C   0  0  0  0  0  0  0  0  0  0  0  0
   45.0720   33.9680   39.9050 C   0  0  0  0  0  0  0  0  0  0  0  0
   43.6090   33.7880   39.7450 C   0  0  2  0  0  0  0  0  0  0  0  0
   42.8110   35.6610   40.3580 H   0  0  0  0  0  0  0  0  0  0  0  0
   42.6060   35.1720   42.6950 H   0  0  0  0  0  0  0  0  0  0  0  0
   43.5000   33.5670   42.3950 H   0  0  0  0  0  0  0  0  0  0  0  0
   45.0740   35.5870   42.8930 H   0  0  0  0  0  0  0  0  0  0  0  0
   44.4590   36.2690   41.2910 H   0  0  0  0  0  0  0  0  0  0  0  0
   46.5740   34.7950   41.1640 H   0  0  0  0  0  0  0  0  0  0  0  0
   45.6410   33.5050   41.9330 H   0  0  0  0  0  0  0  0  0  0  0  0
   45.4730   34.7510   39.1970 H   0  0  0  0  0  0  0  0  0  0  0  0
   45.6200   33.0510   39.5990 H   0  0  0  0  0  0  0  0  0  0  0  0
   43.4220   32.6840   39.9200 H   0  0  0  0  0  0  0  0  0  0  0  0
   43.2260   34.2630   38.0270 S   0  0  0  0  0  0  0  0  0  0  0  0
   42.5910   35.4950   37.9650 H   0  0  0  0  0  0  0  0  0  0  0  0
   39.4260   29.0210   40.1780 C   0  0  0  0  0  0  0  0  0  0  0  0
   38.1730   28.6980   40.6740 C   0  0  0  0  0  0  0  0  0  0  0  0
   37.4040   29.7290   41.1400 C   0  0  0  0  0  0  0  0  0  0  0  0
   37.9060   31.0040   41.0900 N   0  0  0  0  0  0  0  0  0  0  0  0
   39.1650   31.2670   40.5840 C   0  0  0  0  0  0  0  0  0  0  0  0
   39.8860   30.2950   40.1480 N   0  0  0  0  0  0  0  0  0  0  0  0
   36.1290   29.5960   41.6850 N   0  0  0  0  0  0  0  0  0  0  0  0
   40.0500   28.2070   39.8050 H   0  0  0  0  0  0  0  0  0  0  0  0
   35.9190   29.9100   42.6590 H   0  0  0  0  0  0  0  0  0  0  0  0
   35.5160   29.1620   40.9670 H   0  0  0  0  0  0  0  0  0  0  0  0
   37.7190   26.5210   41.8400 C   0  0  0  0  0  3  0  0  0  0  0  0
   37.6420   27.3400   40.7240 C   0  0  0  0  0  0  0  0  0  0  0  0
   37.0290   26.8780   39.5600 C   0  0  0  0  0  0  0  0  0  0  0  0
   36.9320   27.4580   38.6570 H   0  0  0  0  0  0  0  0  0  0  0  0
   36.5020   25.6020   39.5320 C   0  0  0  0  0  0  0  0  0  0  0  0
   35.8670   24.9110   38.5630 N   0  0  0  0  0  0  0  0  0  0  0  0
   35.6540   25.2620   37.5920 H   0  0  0  0  0  0  0  0  0  0  0  0
   35.5560   23.6960   39.0570 C   0  0  0  0  0  0  0  0  0  0  0  0
   35.0460   22.9220   38.5170 H   0  0  0  0  0  0  0  0  0  0  0  0
   36.0100   23.6210   40.3770 C   0  0  0  0  0  3  0  0  0  0  0  0
   36.6070   24.8350   40.6650 C   0  0  0  0  0  0  0  0  0  0  0  0
   37.1970   25.2360   41.8310 C   0  0  0  0  0  3  0  0  0  0  0  0
  1 32  1  0  0  0  0
  1  6  1  0  0  0  0
  2  1  2  0  0  0  0
  3  2  1  0  0  0  0
  3  4  2  0  0  0  0
  4  5  1  0  0  0  0
  5 10  1  0  0  0  0
  5  6  2  0  0  0  0
  7  2  1  0  0  0  0
  8  3  1  0  0  0  0
  9  4  1  0  0  0  0
 10 16  1  6  0  0  0
 10 11  1  0  0  0  0
 11 18  1  0  0  0  0
 11 17  1  0  0  0  0
 12 11  1  0  0  0  0
 12 19  1  0  0  0  0
 13 12  1  0  0  0  0
 13 22  1  0  0  0  0
 14 13  1  0  0  0  0
 15 14  1  0  0  0  0
 15 25  1  1  0  0  0
 15 10  1  0  0  0  0
 20 12  1  0  0  0  0
 21 13  1  0  0  0  0
 23 14  1  0  0  0  0
 24 14  1  0  0  0  0
 26 15  1  0  0  0  0
 27 26  1  0  0  0  0
 28 29  1  0  0  0  0
 29 39  1  0  0  0  0
 29 30  2  0  0  0  0
 30 34  1  0  0  0  0
 31 30  1  0  0  0  0
 32 31  2  0  0  0  0
 33 28  2  0  0  0  0
 33 32  1  0  0  0  0
 34 36  1  0  0  0  0
 35 28  1  0  0  0  0
 37 34  1  0  0  0  0
 39 38  2  0  0  0  0
 40 39  1  0  0  0  0
 41 40  1  0  0  0  0
 42 40  2  0  0  0  0
 42 48  1  0  0  0  0
 43 45  1  0  0  0  0
 43 42  1  0  0  0  0
 44 43  1  0  0  0  0
 45 47  2  0  0  0  0
 46 45  1  0  0  0  0
 47 48  1  0  0  0  0
 48 49  2  0  0  0  0
 49 38  1  0  0  0  0
M  END
>  <minimizedAffinity>
-7.07264042

$$$$

 OpenBabel03242514123D

 49 53  0  0  1  0  0  0  0  0999 V2000
   39.4910   33.7080   39.9020 C   0  0  0  0  0  0  0  0  0  0  0  0
   38.8450   34.8840   40.1840 C   0  0  0  0  0  0  0  0  0  0  0  0
   39.4870   36.0330   40.6080 C   0  0  0  0  0  0  0  0  0  0  0  0
   40.8770   35.9040   40.7330 C   0  0  0  0  0  0  0  0  0  0  0  0
   41.5410   34.6990   40.4440 C   0  0  0  0  0  0  0  0  0  0  0  0
   40.8470   33.6210   40.0360 N   0  0  0  0  0  0  0  0  0  0  0  0
   37.7670   34.8830   40.0570 H   0  0  0  0  0  0  0  0  0  0  0  0
   38.9470   36.9290   40.8170 H   0  0  0  0  0  0  0  0  0  0  0  0
   41.3270   36.8270   41.0690 H   0  0  0  0  0  0  0  0  0  0  0  0
   42.9900   34.6370   40.5780 C   0  0  1  0  0  0  0  0  0  0  0  0
   43.4020   34.6260   42.1070 C   0  0  0  0  0  0  0  0  0  0  0  0
   44.9090   35.0160   42.0260 C   0  0  0  0  0  0  0  0  0  0  0  0
   45.5770   33.7460   41.5120 C   0  0  0  0  0  0  0  0  0  0  0  0
   45.1110   33.4010   40.1470 C   0  0  0  0  0  0  0  0  0  0  0  0
   43.6730   33.6080   39.8540 C   0  0  2  0  0  0  0  0  0  0  0  0
   43.3690   35.6650   40.3010 H   0  0  0  0  0  0  0  0  0  0  0  0
   42.8510   35.4140   42.6270 H   0  0  0  0  0  0  0  0  0  0  0  0
   43.2940   33.6120   42.4890 H   0  0  0  0  0  0  0  0  0  0  0  0
   45.3140   35.1660   43.0430 H   0  0  0  0  0  0  0  0  0  0  0  0
   45.0410   35.8730   41.3600 H   0  0  0  0  0  0  0  0  0  0  0  0
   46.6750   33.8820   41.5060 H   0  0  0  0  0  0  0  0  0  0  0  0
   45.3670   32.9460   42.2390 H   0  0  0  0  0  0  0  0  0  0  0  0
   45.7670   33.9960   39.4450 H   0  0  0  0  0  0  0  0  0  0  0  0
   45.4110   32.3520   39.9370 H   0  0  0  0  0  0  0  0  0  0  0  0
   43.1780   32.6100   40.0610 H   0  0  0  0  0  0  0  0  0  0  0  0
   43.5730   34.0470   38.0870 S   0  0  0  0  0  0  0  0  0  0  0  0
   43.3070   35.3970   37.9080 H   0  0  0  0  0  0  0  0  0  0  0  0
   38.3240   30.7780   38.0440 C   0  0  0  0  0  0  0  0  0  0  0  0
   37.2000   30.3740   38.7460 C   0  0  0  0  0  0  0  0  0  0  0  0
   36.8590   31.1070   39.8490 C   0  0  0  0  0  0  0  0  0  0  0  0
   37.6340   32.1850   40.1920 N   0  0  0  0  0  0  0  0  0  0  0  0
   38.7460   32.5430   39.4530 C   0  0  0  0  0  0  0  0  0  0  0  0
   39.0650   31.8500   38.4170 N   0  0  0  0  0  0  0  0  0  0  0  0
   35.7740   30.8450   40.6830 N   0  0  0  0  0  0  0  0  0  0  0  0
   38.6070   30.1990   37.1620 H   0  0  0  0  0  0  0  0  0  0  0  0
   35.9070   30.6540   41.7010 H   0  0  0  0  0  0  0  0  0  0  0  0
   34.9100   30.8840   40.1080 H   0  0  0  0  0  0  0  0  0  0  0  0
   36.5440   27.9550   38.9020 C   0  0  0  0  0  3  0  0  0  0  0  0
   36.3770   29.2270   38.3770 C   0  0  0  0  0  0  0  0  0  0  0  0
   35.3760   29.4680   37.4370 C   0  0  0  0  0  0  0  0  0  0  0  0
   35.1870   30.4290   36.9860 H   0  0  0  0  0  0  0  0  0  0  0  0
   34.5560   28.4300   37.0380 C   0  0  0  0  0  0  0  0  0  0  0  0
   33.5290   28.3790   36.1640 N   0  0  0  0  0  0  0  0  0  0  0  0
   33.1570   29.1870   35.6000 H   0  0  0  0  0  0  0  0  0  0  0  0
   33.0680   27.1130   36.1440 C   0  0  0  0  0  0  0  0  0  0  0  0
   32.2520   26.7630   35.5410 H   0  0  0  0  0  0  0  0  0  0  0  0
   33.8270   26.3460   37.0310 C   0  0  0  0  0  3  0  0  0  0  0  0
   34.7670   27.1920   37.5910 C   0  0  0  0  0  0  0  0  0  0  0  0
   35.7320   26.9000   38.5130 C   0  0  0  0  0  3  0  0  0  0  0  0
  1  6  2  0  0  0  0
  1  2  1  0  0  0  0
  2  3  2  0  0  0  0
  3  4  1  0  0  0  0
  3  8  1  0  0  0  0
  4  9  1  0  0  0  0
  5 10  1  0  0  0  0
  5  4  2  0  0  0  0
  6  5  1  0  0  0  0
  7  2  1  0  0  0  0
 10 16  1  6  0  0  0
 10 11  1  0  0  0  0
 11 18  1  0  0  0  0
 11 17  1  0  0  0  0
 12 11  1  0  0  0  0
 12 19  1  0  0  0  0
 13 12  1  0  0  0  0
 13 22  1  0  0  0  0
 14 13  1  0  0  0  0
 15 25  1  1  0  0  0
 15 14  1  0  0  0  0
 15 10  1  0  0  0  0
 20 12  1  0  0  0  0
 21 13  1  0  0  0  0
 23 14  1  0  0  0  0
 24 14  1  0  0  0  0
 26 15  1  0  0  0  0
 27 26  1  0  0  0  0
 28 33  2  0  0  0  0
 28 29  1  0  0  0  0
 29 30  2  0  0  0  0
 30 31  1  0  0  0  0
 30 34  1  0  0  0  0
 32  1  1  0  0  0  0
 32 31  2  0  0  0  0
 33 32  1  0  0  0  0
 34 36  1  0  0  0  0
 35 28  1  0  0  0  0
 37 34  1  0  0  0  0
 39 29  1  0  0  0  0
 39 38  2  0  0  0  0
 40 39  1  0  0  0  0
 41 40  1  0  0  0  0
 42 40  2  0  0  0  0
 42 48  1  0  0  0  0
 43 42  1  0  0  0  0
 44 43  1  0  0  0  0
 45 43  1  0  0  0  0
 45 47  2  0  0  0  0
 46 45  1  0  0  0  0
 47 48  1  0  0  0  0
 48 49  2  0  0  0  0
 49 38  1  0  0  0  0
M  END
>  <minimizedAffinity>
-6.87458992

$$$$

 OpenBabel03242514123D

 49 53  0  0  1  0  0  0  0  0999 V2000
   35.4550   28.9670   38.1130 C   0  0  0  0  0  0  0  0  0  0  0  0
   35.8810   27.6670   38.2230 C   0  0  0  0  0  0  0  0  0  0  0  0
   35.1690   26.5810   37.7480 C   0  0  0  0  0  0  0  0  0  0  0  0
   33.9530   26.9130   37.1350 C   0  0  0  0  0  0  0  0  0  0  0  0
   33.5160   28.2440   37.0220 C   0  0  0  0  0  0  0  0  0  0  0  0
   34.2650   29.2500   37.5090 N   0  0  0  0  0  0  0  0  0  0  0  0
   36.8370   27.5140   38.7150 H   0  0  0  0  0  0  0  0  0  0  0  0
   35.5350   25.5850   37.8540 H   0  0  0  0  0  0  0  0  0  0  0  0
   33.4370   26.0290   36.7860 H   0  0  0  0  0  0  0  0  0  0  0  0
   32.2500   28.5210   36.3570 C   0  0  1  0  0  0  0  0  0  0  0  0
   31.4430   29.6320   37.1480 C   0  0  0  0  0  0  0  0  0  0  0  0
   30.0080   29.4440   36.5710 C   0  0  0  0  0  0  0  0  0  0  0  0
   30.1020   30.0560   35.1780 C   0  0  0  0  0  0  0  0  0  0  0  0
   31.0500   29.3080   34.3180 C   0  0  0  0  0  0  0  0  0  0  0  0
   32.2940   28.8170   34.9570 C   0  0  2  0  0  0  0  0  0  0  0  0
   31.5860   27.6330   36.5750 H   0  0  0  0  0  0  0  0  0  0  0  0
   31.4440   29.3780   38.2110 H   0  0  0  0  0  0  0  0  0  0  0  0
   31.8370   30.6090   36.8710 H   0  0  0  0  0  0  0  0  0  0  0  0
   29.2940   30.0830   37.1220 H   0  0  0  0  0  0  0  0  0  0  0  0
   29.7430   28.3820   36.5590 H   0  0  0  0  0  0  0  0  0  0  0  0
   29.1000   30.0610   34.7080 H   0  0  0  0  0  0  0  0  0  0  0  0
   30.3930   31.1110   35.3020 H   0  0  0  0  0  0  0  0  0  0  0  0
   30.4510   28.4600   33.8740 H   0  0  0  0  0  0  0  0  0  0  0  0
   31.2810   29.9390   33.4330 H   0  0  0  0  0  0  0  0  0  0  0  0
   33.0670   29.6240   34.7670 H   0  0  0  0  0  0  0  0  0  0  0  0
   32.7270   27.2670   34.1000 S   0  0  0  0  0  0  0  0  0  0  0  0
   32.4610   26.1550   34.8860 H   0  0  0  0  0  0  0  0  0  0  0  0
   36.9930   31.4930   40.2710 C   0  0  0  0  0  0  0  0  0  0  0  0
   37.8670   32.1550   39.4260 C   0  0  0  0  0  0  0  0  0  0  0  0
   37.9210   31.7260   38.1270 C   0  0  0  0  0  0  0  0  0  0  0  0
   37.1200   30.6820   37.7420 N   0  0  0  0  0  0  0  0  0  0  0  0
   36.2650   30.0580   38.6310 C   0  0  0  0  0  0  0  0  0  0  0  0
   36.2180   30.4630   39.8510 N   0  0  0  0  0  0  0  0  0  0  0  0
   38.7460   32.2600   37.1400 N   0  0  0  0  0  0  0  0  0  0  0  0
   36.9410   31.8250   41.3100 H   0  0  0  0  0  0  0  0  0  0  0  0
   39.4490   31.6690   36.6420 H   0  0  0  0  0  0  0  0  0  0  0  0
   38.5140   33.2670   37.0370 H   0  0  0  0  0  0  0  0  0  0  0  0
   38.3210   34.5950   39.8090 C   0  0  0  0  0  3  0  0  0  0  0  0
   38.7160   33.2660   39.8390 C   0  0  0  0  0  0  0  0  0  0  0  0
   39.9940   32.9290   40.2850 C   0  0  0  0  0  0  0  0  0  0  0  0
   40.3700   31.9200   40.3360 H   0  0  0  0  0  0  0  0  0  0  0  0
   40.8560   33.9280   40.6920 C   0  0  0  0  0  0  0  0  0  0  0  0
   42.1210   33.8900   41.1590 N   0  0  0  0  0  0  0  0  0  0  0  0
   42.7030   33.0220   41.2990 H   0  0  0  0  0  0  0  0  0  0  0  0
   42.5060   35.1570   41.4130 C   0  0  0  0  0  0  0  0  0  0  0  0
   43.4660   35.4460   41.7950 H   0  0  0  0  0  0  0  0  0  0  0  0
   41.4500   36.0160   41.0960 C   0  0  0  0  0  3  0  0  0  0  0  0
   40.4120   35.2250   40.6410 C   0  0  0  0  0  0  0  0  0  0  0  0
   39.1730   35.6120   40.2140 C   0  0  0  0  0  3  0  0  0  0  0  0
  1  2  1  0  0  0  0
  1 32  1  0  0  0  0
  2  7  1  0  0  0  0
  3  8  1  0  0  0  0
  3  2  2  0  0  0  0
  4  3  1  0  0  0  0
  5  4  2  0  0  0  0
  5  6  1  0  0  0  0
  6  1  2  0  0  0  0
  9  4  1  0  0  0  0
 10 16  1  1  0  0  0
 10  5  1  0  0  0  0
 10 11  1  0  0  0  0
 11 17  1  0  0  0  0
 12 19  1  0  0  0  0
 12 11  1  0  0  0  0
 13 22  1  0  0  0  0
 13 12  1  0  0  0  0
 14 15  1  0  0  0  0
 14 13  1  0  0  0  0
 15 25  1  6  0  0  0
 15 10  1  0  0  0  0
 18 11  1  0  0  0  0
 20 12  1  0  0  0  0
 21 13  1  0  0  0  0
 23 14  1  0  0  0  0
 24 14  1  0  0  0  0
 26 27  1  0  0  0  0
 26 15  1  0  0  0  0
 28 35  1  0  0  0  0
 29 39  1  0  0  0  0
 29 28  2  0  0  0  0
 30 29  1  0  0  0  0
 31 30  2  0  0  0  0
 31 32  1  0  0  0  0
 32 33  2  0  0  0  0
 33 28  1  0  0  0  0
 34 30  1  0  0  0  0
 36 34  1  0  0  0  0
 37 34  1  0  0  0  0
 38 39  2  0  0  0  0
 38 49  1  0  0  0  0
 39 40  1  0  0  0  0
 40 41  1  0  0  0  0
 40 42  2  0  0  0  0
 42 43  1  0  0  0  0
 43 44  1  0  0  0  0
 43 45  1  0  0  0  0
 45 46  1  0  0  0  0
 47 45  2  0  0  0  0
 48 42  1  0  0  0  0
 48 47  1  0  0  0  0
 49 48  2  0  0  0  0
M  END
>  <minimizedAffinity>
-6.7470665

$$$$

 OpenBabel03242514123D

 49 53  0  0  1  0  0  0  0  0999 V2000
   38.9270   33.5030   39.7750 C   0  0  0  0  0  0  0  0  0  0  0  0
   38.3790   34.7310   40.0440 C   0  0  0  0  0  0  0  0  0  0  0  0
   39.1240   35.8520   40.3630 C   0  0  0  0  0  0  0  0  0  0  0  0
   40.5080   35.6360   40.3910 C   0  0  0  0  0  0  0  0  0  0  0  0
   41.0700   34.3780   40.1150 C   0  0  0  0  0  0  0  0  0  0  0  0
   40.2800   33.3320   39.8130 N   0  0  0  0  0  0  0  0  0  0  0  0
   37.2970   34.7970   39.9970 H   0  0  0  0  0  0  0  0  0  0  0  0
   38.6580   36.7910   40.5660 H   0  0  0  0  0  0  0  0  0  0  0  0
   41.0400   36.5420   40.6480 H   0  0  0  0  0  0  0  0  0  0  0  0
   42.5180   34.2260   40.1450 C   0  0  1  0  0  0  0  0  0  0  0  0
   43.0100   33.9200   41.6200 C   0  0  0  0  0  0  0  0  0  0  0  0
   44.5300   34.2480   41.5150 C   0  0  0  0  0  0  0  0  0  0  0  0
   45.0960   33.0610   40.7430 C   0  0  0  0  0  0  0  0  0  0  0  0
   44.5400   32.9900   39.3700 C   0  0  0  0  0  0  0  0  0  0  0  0
   43.1020   33.3130   39.2090 C   0  0  2  0  0  0  0  0  0  0  0  0
   42.9410   35.2680   40.0320 H   0  0  0  0  0  0  0  0  0  0  0  0
   42.5330   34.6270   42.3040 H   0  0  0  0  0  0  0  0  0  0  0  0
   42.8640   32.8600   41.8220 H   0  0  0  0  0  0  0  0  0  0  0  0
   44.9970   34.1930   42.5150 H   0  0  0  0  0  0  0  0  0  0  0  0
   44.6750   35.2040   41.0040 H   0  0  0  0  0  0  0  0  0  0  0  0
   46.1990   33.1450   40.6930 H   0  0  0  0  0  0  0  0  0  0  0  0
   44.8790   32.1540   41.3290 H   0  0  0  0  0  0  0  0  0  0  0  0
   45.1900   33.6700   38.7460 H   0  0  0  0  0  0  0  0  0  0  0  0
   44.7680   31.9820   38.9600 H   0  0  0  0  0  0  0  0  0  0  0  0
   42.5630   32.3190   39.2670 H   0  0  0  0  0  0  0  0  0  0  0  0
   42.9340   34.0670   37.5580 S   0  0  0  0  0  0  0  0  0  0  0  0
   42.7360   35.4380   37.6370 H   0  0  0  0  0  0  0  0  0  0  0  0
   36.5180   30.7490   39.9050 C   0  0  0  0  0  0  0  0  0  0  0  0
   36.5570   30.2220   38.6250 C   0  0  0  0  0  0  0  0  0  0  0  0
   37.4050   30.8190   37.7310 C   0  0  0  0  0  0  0  0  0  0  0  0
   38.1580   31.8870   38.1470 N   0  0  0  0  0  0  0  0  0  0  0  0
   38.0770   32.3710   39.4400 C   0  0  0  0  0  0  0  0  0  0  0  0
   37.2780   31.8080   40.2760 N   0  0  0  0  0  0  0  0  0  0  0  0
   37.5680   30.4370   36.4020 N   0  0  0  0  0  0  0  0  0  0  0  0
   35.8440   30.2830   40.6260 H   0  0  0  0  0  0  0  0  0  0  0  0
   37.3820   31.1030   35.6200 H   0  0  0  0  0  0  0  0  0  0  0  0
   37.8830   29.4470   36.3880 H   0  0  0  0  0  0  0  0  0  0  0  0
   34.4980   29.2000   37.6130 C   0  0  0  0  0  3  0  0  0  0  0  0
   35.7550   29.0850   38.1870 C   0  0  0  0  0  0  0  0  0  0  0  0
   36.3230   27.8250   38.3750 C   0  0  0  0  0  0  0  0  0  0  0  0
   37.2930   27.6590   38.8140 H   0  0  0  0  0  0  0  0  0  0  0  0
   35.6230   26.7000   37.9850 C   0  0  0  0  0  0  0  0  0  0  0  0
   35.9230   25.3860   38.0470 N   0  0  0  0  0  0  0  0  0  0  0  0
   36.8120   24.9730   38.4340 H   0  0  0  0  0  0  0  0  0  0  0  0
   34.8860   24.7010   37.5270 C   0  0  0  0  0  0  0  0  0  0  0  0
   34.8330   23.6320   37.4410 H   0  0  0  0  0  0  0  0  0  0  0  0
   33.9040   25.6110   37.1270 C   0  0  0  0  0  3  0  0  0  0  0  0
   34.3830   26.8740   37.4230 C   0  0  0  0  0  0  0  0  0  0  0  0
   33.7790   28.0820   37.2150 C   0  0  0  0  0  3  0  0  0  0  0  0
  1  6  2  0  0  0  0
  1  2  1  0  0  0  0
  2  3  2  0  0  0  0
  3  4  1  0  0  0  0
  3  8  1  0  0  0  0
  4  9  1  0  0  0  0
  5 10  1  0  0  0  0
  5  4  2  0  0  0  0
  6  5  1  0  0  0  0
  7  2  1  0  0  0  0
 10 16  1  6  0  0  0
 10 11  1  0  0  0  0
 11 18  1  0  0  0  0
 11 17  1  0  0  0  0
 12 11  1  0  0  0  0
 12 19  1  0  0  0  0
 13 22  1  0  0  0  0
 13 12  1  0  0  0  0
 14 13  1  0  0  0  0
 15 25  1  1  0  0  0
 15 14  1  0  0  0  0
 15 10  1  0  0  0  0
 20 12  1  0  0  0  0
 21 13  1  0  0  0  0
 23 14  1  0  0  0  0
 24 14  1  0  0  0  0
 26 27  1  0  0  0  0
 26 15  1  0  0  0  0
 28 33  1  0  0  0  0
 28 35  1  0  0  0  0
 29 28  2  0  0  0  0
 30 31  2  0  0  0  0
 30 29  1  0  0  0  0
 31 32  1  0  0  0  0
 32  1  1  0  0  0  0
 32 33  2  0  0  0  0
 34 30  1  0  0  0  0
 36 34  1  0  0  0  0
 37 34  1  0  0  0  0
 38 39  1  0  0  0  0
 39 40  2  0  0  0  0
 39 29  1  0  0  0  0
 40 41  1  0  0  0  0
 42 43  1  0  0  0  0
 42 40  1  0  0  0  0
 43 44  1  0  0  0  0
 45 43  1  0  0  0  0
 46 45  1  0  0  0  0
 47 48  1  0  0  0  0
 47 45  2  0  0  0  0
 48 42  2  0  0  0  0
 49 48  1  0  0  0  0
 49 38  2  0  0  0  0
M  END
>  <minimizedAffinity>
-6.68306923

$$$$

 OpenBabel03242514123D

 49 53  0  0  1  0  0  0  0  0999 V2000
   38.9540   28.7120   42.4970 C   0  0  0  0  0  0  0  0  0  0  0  0
   38.1000   28.8870   43.5570 C   0  0  0  0  0  0  0  0  0  0  0  0
   37.0420   28.0420   43.8400 C   0  0  0  0  0  0  0  0  0  0  0  0
   36.9040   26.9720   42.9460 C   0  0  0  0  0  0  0  0  0  0  0  0
   37.7780   26.7920   41.8600 C   0  0  0  0  0  0  0  0  0  0  0  0
   38.7860   27.6570   41.6480 N   0  0  0  0  0  0  0  0  0  0  0  0
   38.2910   29.7460   44.1920 H   0  0  0  0  0  0  0  0  0  0  0  0
   36.4000   28.2140   44.6750 H   0  0  0  0  0  0  0  0  0  0  0  0
   36.0620   26.3470   43.2120 H   0  0  0  0  0  0  0  0  0  0  0  0
   37.5880   25.6480   40.9790 C   0  0  1  0  0  0  0  0  0  0  0  0
   37.3740   24.3280   41.8280 C   0  0  0  0  0  0  0  0  0  0  0  0
   37.6510   23.2240   40.7630 C   0  0  0  0  0  0  0  0  0  0  0  0
   36.3970   23.2460   39.8950 C   0  0  0  0  0  0  0  0  0  0  0  0
   36.2450   24.5430   39.1930 C   0  0  0  0  0  0  0  0  0  0  0  0
   36.5960   25.7660   39.9530 C   0  0  2  0  0  0  0  0  0  0  0  0
   38.6080   25.4170   40.5490 H   0  0  0  0  0  0  0  0  0  0  0  0
   38.1390   24.2810   42.6070 H   0  0  0  0  0  0  0  0  0  0  0  0
   36.3340   24.2890   42.1520 H   0  0  0  0  0  0  0  0  0  0  0  0
   37.6540   22.2290   41.2440 H   0  0  0  0  0  0  0  0  0  0  0  0
   38.5640   23.4570   40.2080 H   0  0  0  0  0  0  0  0  0  0  0  0
   36.4460   22.4260   39.1540 H   0  0  0  0  0  0  0  0  0  0  0  0
   35.5400   23.0230   40.5500 H   0  0  0  0  0  0  0  0  0  0  0  0
   36.8610   24.4510   38.2510 H   0  0  0  0  0  0  0  0  0  0  0  0
   35.2050   24.6030   38.8050 H   0  0  0  0  0  0  0  0  0  0  0  0
   35.6230   26.1250   40.4110 H   0  0  0  0  0  0  0  0  0  0  0  0
   37.2360   26.9580   38.7310 S   0  0  0  0  0  0  0  0  0  0  0  0
   38.6150   27.0930   38.8190 H   0  0  0  0  0  0  0  0  0  0  0  0
   42.2600   30.2660   42.2630 C   0  0  0  0  0  0  0  0  0  0  0  0
   41.9890   31.5400   41.7910 C   0  0  0  0  0  0  0  0  0  0  0  0
   40.6760   31.8490   41.5550 C   0  0  0  0  0  0  0  0  0  0  0  0
   39.7190   30.8970   41.7960 N   0  0  0  0  0  0  0  0  0  0  0  0
   40.0500   29.6400   42.2690 C   0  0  0  0  0  0  0  0  0  0  0  0
   41.2840   29.3530   42.4880 N   0  0  0  0  0  0  0  0  0  0  0  0
   40.2150   33.0700   41.0680 N   0  0  0  0  0  0  0  0  0  0  0  0
   43.3040   30.0070   42.4540 H   0  0  0  0  0  0  0  0  0  0  0  0
   39.6740   33.1290   40.1770 H   0  0  0  0  0  0  0  0  0  0  0  0
   40.5070   33.8120   41.7330 H   0  0  0  0  0  0  0  0  0  0  0  0
   43.6650   32.6980   40.3230 C   0  0  0  0  0  3  0  0  0  0  0  0
   43.0100   32.5500   41.5360 C   0  0  0  0  0  0  0  0  0  0  0  0
   43.3150   33.3950   42.6020 C   0  0  0  0  0  0  0  0  0  0  0  0
   42.8480   33.3390   43.5720 H   0  0  0  0  0  0  0  0  0  0  0  0
   44.2730   34.3760   42.4370 C   0  0  0  0  0  0  0  0  0  0  0  0
   44.7580   35.3130   43.2780 N   0  0  0  0  0  0  0  0  0  0  0  0
   44.4600   35.4580   44.2790 H   0  0  0  0  0  0  0  0  0  0  0  0
   45.6880   36.0250   42.6120 C   0  0  0  0  0  0  0  0  0  0  0  0
   46.2500   36.8420   43.0220 H   0  0  0  0  0  0  0  0  0  0  0  0
   45.7910   35.5220   41.3130 C   0  0  0  0  0  3  0  0  0  0  0  0
   44.8900   34.4770   41.2150 C   0  0  0  0  0  0  0  0  0  0  0  0
   44.6300   33.6770   40.1380 C   0  0  0  0  0  3  0  0  0  0  0  0
  1  2  1  0  0  0  0
  2  3  2  0  0  0  0
  2  7  1  0  0  0  0
  3  8  1  0  0  0  0
  4  9  1  0  0  0  0
  4  3  1  0  0  0  0
  5  4  2  0  0  0  0
  6  5  1  0  0  0  0
  6  1  2  0  0  0  0
 10 16  1  6  0  0  0
 10 11  1  0  0  0  0
 10  5  1  0  0  0  0
 11 18  1  0  0  0  0
 11 17  1  0  0  0  0
 12 19  1  0  0  0  0
 12 11  1  0  0  0  0
 13 22  1  0  0  0  0
 13 12  1  0  0  0  0
 14 13  1  0  0  0  0
 14 15  1  0  0  0  0
 15 25  1  1  0  0  0
 15 10  1  0  0  0  0
 20 12  1  0  0  0  0
 21 13  1  0  0  0  0
 23 14  1  0  0  0  0
 24 14  1  0  0  0  0
 26 27  1  0  0  0  0
 26 15  1  0  0  0  0
 28 35  1  0  0  0  0
 28 33  1  0  0  0  0
 29 28  2  0  0  0  0
 30 29  1  0  0  0  0
 30 31  2  0  0  0  0
 31 32  1  0  0  0  0
 32 33  2  0  0  0  0
 32  1  1  0  0  0  0
 34 30  1  0  0  0  0
 34 37  1  0  0  0  0
 36 34  1  0  0  0  0
 38 39  1  0  0  0  0
 39 29  1  0  0  0  0
 39 40  2  0  0  0  0
 40 41  1  0  0  0  0
 42 40  1  0  0  0  0
 42 43  1  0  0  0  0
 43 44  1  0  0  0  0
 45 46  1  0  0  0  0
 45 43  1  0  0  0  0
 47 45  2  0  0  0  0
 48 47  1  0  0  0  0
 48 42  2  0  0  0  0
 49 38  2  0  0  0  0
 49 48  1  0  0  0  0
M  END
>  <minimizedAffinity>
-6.61784935

$$$$

 OpenBabel03242514123D

 49 53  0  0  1  0  0  0  0  0999 V2000
   38.8860   32.9680   39.5130 C   0  0  0  0  0  0  0  0  0  0  0  0
   38.4010   34.1450   40.0250 C   0  0  0  0  0  0  0  0  0  0  0  0
   39.1990   35.2140   40.3860 C   0  0  0  0  0  0  0  0  0  0  0  0
   40.5700   35.0020   40.1880 C   0  0  0  0  0  0  0  0  0  0  0  0
   41.0680   33.7970   39.6640 C   0  0  0  0  0  0  0  0  0  0  0  0
   40.2280   32.7990   39.3350 N   0  0  0  0  0  0  0  0  0  0  0  0
   37.3230   34.2110   40.1400 H   0  0  0  0  0  0  0  0  0  0  0  0
   38.7820   36.1130   40.7810 H   0  0  0  0  0  0  0  0  0  0  0  0
   41.1470   35.8660   40.4890 H   0  0  0  0  0  0  0  0  0  0  0  0
   42.5040   33.6490   39.4670 C   0  0  1  0  0  0  0  0  0  0  0  0
   42.9330   34.2540   38.0660 C   0  0  0  0  0  0  0  0  0  0  0  0
   44.3350   33.6040   37.8630 C   0  0  0  0  0  0  0  0  0  0  0  0
   45.2280   34.3780   38.8260 C   0  0  0  0  0  0  0  0  0  0  0  0
   44.8180   34.1680   40.2360 C   0  0  0  0  0  0  0  0  0  0  0  0
   43.3630   34.1160   40.5130 C   0  0  2  0  0  0  0  0  0  0  0  0
   42.6740   32.5540   39.2440 H   0  0  0  0  0  0  0  0  0  0  0  0
   42.2470   33.8870   37.2980 H   0  0  0  0  0  0  0  0  0  0  0  0
   43.0280   35.3340   38.1700 H   0  0  0  0  0  0  0  0  0  0  0  0
   44.7180   33.8440   36.8540 H   0  0  0  0  0  0  0  0  0  0  0  0
   44.2890   32.5340   38.0820 H   0  0  0  0  0  0  0  0  0  0  0  0
   46.2790   34.0580   38.6940 H   0  0  0  0  0  0  0  0  0  0  0  0
   45.1860   35.4390   38.5330 H   0  0  0  0  0  0  0  0  0  0  0  0
   45.3360   33.2190   40.5630 H   0  0  0  0  0  0  0  0  0  0  0  0
   45.3120   34.9470   40.8560 H   0  0  0  0  0  0  0  0  0  0  0  0
   43.0730   35.1750   40.7930 H   0  0  0  0  0  0  0  0  0  0  0  0
   43.1550   32.9740   41.9190 S   0  0  0  0  0  0  0  0  0  0  0  0
   42.6300   31.7540   41.5160 H   0  0  0  0  0  0  0  0  0  0  0  0
   36.2390   30.4390   39.5230 C   0  0  0  0  0  0  0  0  0  0  0  0
   36.3730   29.8230   38.2900 C   0  0  0  0  0  0  0  0  0  0  0  0
   37.3660   30.2840   37.4690 C   0  0  0  0  0  0  0  0  0  0  0  0
   38.1610   31.3120   37.9060 N   0  0  0  0  0  0  0  0  0  0  0  0
   37.9800   31.8900   39.1490 C   0  0  0  0  0  0  0  0  0  0  0  0
   37.0460   31.4540   39.9170 N   0  0  0  0  0  0  0  0  0  0  0  0
   37.6410   29.7980   36.1930 N   0  0  0  0  0  0  0  0  0  0  0  0
   35.4490   30.0810   40.1870 H   0  0  0  0  0  0  0  0  0  0  0  0
   37.6040   30.4210   35.3560 H   0  0  0  0  0  0  0  0  0  0  0  0
   37.8650   28.7870   36.2750 H   0  0  0  0  0  0  0  0  0  0  0  0
   35.8240   27.3870   38.0190 C   0  0  0  0  0  3  0  0  0  0  0  0
   35.5260   28.7280   37.8300 C   0  0  0  0  0  0  0  0  0  0  0  0
   34.3560   29.0950   37.1650 C   0  0  0  0  0  0  0  0  0  0  0  0
   34.0590   30.1150   36.9810 H   0  0  0  0  0  0  0  0  0  0  0  0
   33.5040   28.1130   36.6990 C   0  0  0  0  0  0  0  0  0  0  0  0
   32.3310   28.1790   36.0360 N   0  0  0  0  0  0  0  0  0  0  0  0
   31.8360   29.0620   35.7430 H   0  0  0  0  0  0  0  0  0  0  0  0
   31.9090   26.9190   35.8170 C   0  0  0  0  0  0  0  0  0  0  0  0
   31.0020   26.6500   35.3090 H   0  0  0  0  0  0  0  0  0  0  0  0
   32.8440   26.0330   36.3590 C   0  0  0  0  0  3  0  0  0  0  0  0
   33.8500   26.8030   36.9140 C   0  0  0  0  0  0  0  0  0  0  0  0
   34.9810   26.3860   37.5580 C   0  0  0  0  0  3  0  0  0  0  0  0
  1  2  1  0  0  0  0
  2  7  1  0  0  0  0
  2  3  2  0  0  0  0
  3  8  1  0  0  0  0
  4  3  1  0  0  0  0
  4  9  1  0  0  0  0
  5  4  2  0  0  0  0
  6  1  2  0  0  0  0
  6  5  1  0  0  0  0
 10 16  1  6  0  0  0
 10  5  1  0  0  0  0
 10 15  1  0  0  0  0
 11 18  1  0  0  0  0
 11 10  1  0  0  0  0
 12 11  1  0  0  0  0
 12 20  1  0  0  0  0
 12 13  1  0  0  0  0
 13 14  1  0  0  0  0
 14 15  1  0  0  0  0
 14 23  1  0  0  0  0
 14 24  1  0  0  0  0
 15 25  1  1  0  0  0
 15 26  1  0  0  0  0
 17 11  1  0  0  0  0
 19 12  1  0  0  0  0
 21 13  1  0  0  0  0
 22 13  1  0  0  0  0
 27 26  1  0  0  0  0
 28 33  1  0  0  0  0
 28 35  1  0  0  0  0
 29 28  2  0  0  0  0
 30 31  2  0  0  0  0
 30 29  1  0  0  0  0
 31 32  1  0  0  0  0
 32  1  1  0  0  0  0
 32 33  2  0  0  0  0
 34 37  1  0  0  0  0
 34 30  1  0  0  0  0
 36 34  1  0  0  0  0
 39 38  1  0  0  0  0
 39 29  1  0  0  0  0
 40 39  2  0  0  0  0
 41 40  1  0  0  0  0
 42 48  2  0  0  0  0
 42 40  1  0  0  0  0
 43 42  1  0  0  0  0
 44 43  1  0  0  0  0
 45 43  1  0  0  0  0
 45 47  2  0  0  0  0
 46 45  1  0  0  0  0
 47 48  1  0  0  0  0
 48 49  1  0  0  0  0
 49 38  2  0  0  0  0
M  END
>  <minimizedAffinity>
-6.52438402

$$$$
