
 OpenBabel03252502003D

 37 41  0  0  0  0  0  0  0  0999 V2000
   47.2620   32.3660   48.0040 C   0  0  0  0  0  0  0  0  0  0  0  0
   46.8870   31.0340   48.0460 C   0  0  0  0  0  0  0  0  0  0  0  0
   46.1660   30.5770   46.9830 C   0  0  0  0  0  0  0  0  0  0  0  0
   45.8560   31.3950   45.9730 N   0  0  0  0  0  0  0  0  0  0  0  0
   46.2120   32.6700   45.9300 C   0  0  0  0  0  0  0  0  0  0  0  0
   46.9140   33.1150   46.9650 N   0  0  0  0  0  0  0  0  0  0  0  0
   47.8420   32.7280   48.8630 H   0  0  0  0  0  0  0  0  0  0  0  0
   45.9820   33.7220   44.9400 C   0  0  0  0  0  0  0  0  0  0  0  0
   44.9840   34.6320   45.0130 N   0  0  0  0  0  0  0  0  0  0  0  0
   44.7490   35.5980   44.1330 C   0  0  0  0  0  0  0  0  0  0  0  0
   45.5450   35.7300   43.0510 N   0  0  0  0  0  0  0  0  0  0  0  0
   46.5810   34.8830   42.8600 C   0  0  0  0  0  0  0  0  0  0  0  0
   47.3990   35.0180   41.7490 C   0  0  0  0  0  0  0  0  0  0  0  0
   48.4520   34.1710   41.5390 C   0  0  0  0  0  0  0  0  0  0  0  0
   48.6610   33.1860   42.4720 C   0  0  0  0  0  0  0  0  0  0  0  0
   47.8260   33.0830   43.5620 C   0  0  0  0  0  0  0  0  0  0  0  0
   46.7520   33.9140   43.8180 C   0  0  0  0  0  0  0  0  0  0  0  0
   43.9120   36.2800   44.2880 H   0  0  0  0  0  0  0  0  0  0  0  0
   47.1460   35.8270   41.0760 H   0  0  0  0  0  0  0  0  0  0  0  0
   49.0610   34.3000   40.6780 H   0  0  0  0  0  0  0  0  0  0  0  0
   49.4800   32.4840   42.3590 H   0  0  0  0  0  0  0  0  0  0  0  0
   48.0430   32.2740   44.2770 H   0  0  0  0  0  0  0  0  0  0  0  0
   46.4540   28.0920   47.2720 C   0  0  0  0  0  3  0  0  0  0  0  0
   45.7220   29.2060   46.9160 C   0  0  0  0  0  0  0  0  0  0  0  0
   44.4150   29.0410   46.4410 C   0  0  0  0  0  0  0  0  0  0  0  0
   43.7980   29.8640   46.1500 H   0  0  0  0  0  0  0  0  0  0  0  0
   43.8890   27.7710   46.3370 C   0  0  0  0  0  0  0  0  0  0  0  0
   42.7030   27.2860   45.9300 N   0  0  0  0  0  0  0  0  0  0  0  0
   41.8910   27.8390   45.5860 H   0  0  0  0  0  0  0  0  0  0  0  0
   42.6310   25.9500   46.0010 C   0  0  0  0  0  0  0  0  0  0  0  0
   41.8040   25.3090   45.7390 H   0  0  0  0  0  0  0  0  0  0  0  0
   43.8560   25.4920   46.4920 C   0  0  0  0  0  3  0  0  0  0  0  0
   44.6010   26.6380   46.6850 C   0  0  0  0  0  0  0  0  0  0  0  0
   45.8970   26.8580   47.1540 C   0  0  0  0  0  3  0  0  0  0  0  0
   47.2450   30.2240   49.1380 N   0  0  0  0  0  0  0  0  0  0  0  0
   47.1710   30.5680   50.1390 H   0  0  0  0  0  0  0  0  0  0  0  0
   47.5980   29.2500   48.9660 H   0  0  0  0  0  0  0  0  0  0  0  0
  1  2  1  0  0  0  0
  1  7  1  0  0  0  0
  2 35  1  0  0  0  0
  3  2  2  0  0  0  0
  4  3  1  0  0  0  0
  5  4  2  0  0  0  0
  5  6  1  0  0  0  0
  6  1  2  0  0  0  0
  8  9  1  0  0  0  0
  8  5  1  0  0  0  0
 10 18  1  0  0  0  0
 10  9  2  0  0  0  0
 11 10  1  0  0  0  0
 12 11  2  0  0  0  0
 12 17  1  0  0  0  0
 13 12  1  0  0  0  0
 14 13  2  0  0  0  0
 14 15  1  0  0  0  0
 15 16  2  0  0  0  0
 16 17  1  0  0  0  0
 16 22  1  0  0  0  0
 17  8  2  0  0  0  0
 19 13  1  0  0  0  0
 20 14  1  0  0  0  0
 21 15  1  0  0  0  0
 24  3  1  0  0  0  0
 24 23  2  0  0  0  0
 25 24  1  0  0  0  0
 26 25  1  0  0  0  0
 27 25  2  0  0  0  0
 27 33  1  0  0  0  0
 28 30  1  0  0  0  0
 28 27  1  0  0  0  0
 29 28  1  0  0  0  0
 30 32  2  0  0  0  0
 31 30  1  0  0  0  0
 32 33  1  0  0  0  0
 33 34  2  0  0  0  0
 34 23  1  0  0  0  0
 35 36  1  0  0  0  0
 37 35  1  0  0  0  0
M  END
>  <minimizedAffinity>
-6.73990965

>  <minimizedRMSD>
0.545052946

$$$$
