
 OpenBabel03252502453D

 48 52  0  0  1  0  0  0  0  0999 V2000
   48.4260   35.5540   41.8230 C   0  0  0  0  0  0  0  0  0  0  0  0
   48.5170   35.7760   42.9070 H   0  0  0  0  0  0  0  0  0  0  0  0
   48.6830   36.5130   41.3140 H   0  0  0  0  0  0  0  0  0  0  0  0
   49.3640   34.4450   41.4800 C   0  0  1  0  0  0  0  0  0  0  0  0
   50.4500   34.1240   42.4610 C   0  0  0  0  0  0  0  0  0  0  0  0
   49.2860   33.2230   42.2710 C   0  0  2  0  0  0  0  0  0  0  0  0
   49.6800   34.4450   40.4410 H   0  0  0  0  0  0  0  0  0  0  0  0
   51.4630   33.8630   42.1010 H   0  0  0  0  0  0  0  0  0  0  0  0
   50.5020   34.7650   43.3750 H   0  0  0  0  0  0  0  0  0  0  0  0
   48.6740   33.0750   43.1520 H   0  0  0  0  0  0  0  0  0  0  0  0
   49.6100   32.0220   41.5040 N   0  0  0  0  0  0  0  0  0  0  0  0
   49.4690   32.1590   40.1000 C   0  0  0  0  0  0  0  0  0  0  0  0
   49.8360   30.8080   39.5130 C   0  0  0  0  0  0  0  0  0  0  0  0
   48.9410   29.7890   39.9350 N   0  0  0  0  0  0  0  0  0  0  0  0
   48.3390   30.0240   41.2340 C   0  0  0  0  0  0  0  0  0  0  0  0
   49.3140   30.8010   42.1210 C   0  0  0  0  0  0  0  0  0  0  0  0
   50.2210   32.8860   39.7110 H   0  0  0  0  0  0  0  0  0  0  0  0
   48.4480   32.4700   39.8420 H   0  0  0  0  0  0  0  0  0  0  0  0
   49.8190   30.9070   38.4020 H   0  0  0  0  0  0  0  0  0  0  0  0
   50.9010   30.6500   39.7740 H   0  0  0  0  0  0  0  0  0  0  0  0
   49.3480   28.8440   39.8370 H   0  0  0  0  0  0  0  0  0  0  0  0
   47.4410   30.6530   41.1480 H   0  0  0  0  0  0  0  0  0  0  0  0
   48.0950   29.0460   41.6520 H   0  0  0  0  0  0  0  0  0  0  0  0
   48.8920   30.9230   43.1190 H   0  0  0  0  0  0  0  0  0  0  0  0
   50.2200   30.1440   42.2320 H   0  0  0  0  0  0  0  0  0  0  0  0
   47.0390   35.0620   41.5190 C   0  0  0  0  0  0  0  0  0  0  0  0
   46.5630   35.8710   40.8940 H   0  0  0  0  0  0  0  0  0  0  0  0
   46.9530   34.1580   40.9390 H   0  0  0  0  0  0  0  0  0  0  0  0
   44.5670   36.0680   44.1530 C   0  0  0  0  0  0  0  0  0  0  0  0
   45.3070   36.0570   42.9500 C   0  0  0  0  0  0  0  0  0  0  0  0
   46.2430   35.0830   42.7880 C   0  0  0  0  0  0  0  0  0  0  0  0
   46.4340   34.1630   43.7780 N   0  0  0  0  0  0  0  0  0  0  0  0
   45.7410   34.1830   44.8930 C   0  0  0  0  0  0  0  0  0  0  0  0
   44.8020   35.1290   45.0970 N   0  0  0  0  0  0  0  0  0  0  0  0
   43.8140   36.8160   44.3300 H   0  0  0  0  0  0  0  0  0  0  0  0
   45.0690   36.8340   42.2370 H   0  0  0  0  0  0  0  0  0  0  0  0
   46.9980   32.2720   45.8200 C   0  0  0  0  0  3  0  0  0  0  0  0
   45.9660   33.1790   45.9460 C   0  0  0  0  0  0  0  0  0  0  0  0
   45.1470   33.1360   47.0670 C   0  0  0  0  0  0  0  0  0  0  0  0
   44.3570   33.8390   47.1530 H   0  0  0  0  0  0  0  0  0  0  0  0
   45.4390   32.1530   48.0050 C   0  0  0  0  0  0  0  0  0  0  0  0
   44.7520   31.9680   49.1470 N   0  0  0  0  0  0  0  0  0  0  0  0
   43.9130   32.4890   49.5390 H   0  0  0  0  0  0  0  0  0  0  0  0
   45.3030   30.9450   49.8010 C   0  0  0  0  0  0  0  0  0  0  0  0
   45.0090   30.5200   50.7530 H   0  0  0  0  0  0  0  0  0  0  0  0
   46.3780   30.4550   49.0600 C   0  0  0  0  0  3  0  0  0  0  0  0
   46.4570   31.2370   47.9100 C   0  0  0  0  0  0  0  0  0  0  0  0
   47.2660   31.2930   46.7850 C   0  0  0  0  0  3  0  0  0  0  0  0
  1  2  1  0  0  0  0
  3  1  1  0  0  0  0
  4  7  1  6  0  0  0
  4  1  1  0  0  0  0
  4  6  1  0  0  0  0
  4  5  1  0  0  0  0
  5  9  1  0  0  0  0
  6  5  1  0  0  0  0
  6 10  1  1  0  0  0
  8  5  1  0  0  0  0
 11 16  1  0  0  0  0
 11  6  1  0  0  0  0
 12 11  1  0  0  0  0
 13 20  1  0  0  0  0
 13 14  1  0  0  0  0
 13 12  1  0  0  0  0
 14 15  1  0  0  0  0
 15 23  1  0  0  0  0
 15 16  1  0  0  0  0
 16 25  1  0  0  0  0
 16 24  1  0  0  0  0
 17 12  1  0  0  0  0
 18 12  1  0  0  0  0
 19 13  1  0  0  0  0
 21 14  1  0  0  0  0
 22 15  1  0  0  0  0
 26  1  1  0  0  0  0
 26 31  1  0  0  0  0
 27 26  1  0  0  0  0
 28 26  1  0  0  0  0
 29 35  1  0  0  0  0
 29 34  1  0  0  0  0
 30 29  2  0  0  0  0
 31 30  1  0  0  0  0
 31 32  2  0  0  0  0
 32 33  1  0  0  0  0
 33 34  2  0  0  0  0
 33 38  1  0  0  0  0
 36 30  1  0  0  0  0
 37 38  2  0  0  0  0
 37 48  1  0  0  0  0
 38 39  1  0  0  0  0
 39 40  1  0  0  0  0
 39 41  2  0  0  0  0
 41 42  1  0  0  0  0
 42 43  1  0  0  0  0
 42 44  1  0  0  0  0
 44 45  1  0  0  0  0
 46 44  2  0  0  0  0
 47 41  1  0  0  0  0
 47 46  1  0  0  0  0
 48 47  2  0  0  0  0
M  END
>  <minimizedAffinity>
-5.97399855

>  <minimizedRMSD>
1.10431898

$$$$
