
 OpenBabel03252502453D

 48 52  0  0  1  0  0  0  0  0999 V2000
   46.6230   35.3190   42.4560 C   0  0  0  0  0  0  0  0  0  0  0  0
   46.9810   35.6120   43.4650 H   0  0  0  0  0  0  0  0  0  0  0  0
   46.1000   36.2240   42.0650 H   0  0  0  0  0  0  0  0  0  0  0  0
   47.7990   34.9240   41.6260 C   0  0  1  0  0  0  0  0  0  0  0  0
   48.9730   35.8540   41.5960 C   0  0  0  0  0  0  0  0  0  0  0  0
   49.0270   34.5600   42.3220 C   0  0  2  0  0  0  0  0  0  0  0  0
   47.5330   34.5030   40.6620 H   0  0  0  0  0  0  0  0  0  0  0  0
   49.5230   36.0230   40.6510 H   0  0  0  0  0  0  0  0  0  0  0  0
   48.8720   36.8040   42.1780 H   0  0  0  0  0  0  0  0  0  0  0  0
   49.2010   34.6410   43.3880 H   0  0  0  0  0  0  0  0  0  0  0  0
   49.8040   33.5410   41.6200 N   0  0  0  0  0  0  0  0  0  0  0  0
   49.0370   32.6570   40.8210 C   0  0  0  0  0  0  0  0  0  0  0  0
   50.0300   31.6870   40.2060 C   0  0  0  0  0  0  0  0  0  0  0  0
   50.6870   30.9080   41.1950 N   0  0  0  0  0  0  0  0  0  0  0  0
   50.8150   31.5630   42.4830 C   0  0  0  0  0  0  0  0  0  0  0  0
   50.9450   33.0740   42.2830 C   0  0  0  0  0  0  0  0  0  0  0  0
   48.5740   33.2140   39.9730 H   0  0  0  0  0  0  0  0  0  0  0  0
   48.2710   32.1520   41.4270 H   0  0  0  0  0  0  0  0  0  0  0  0
   49.4670   31.0290   39.5020 H   0  0  0  0  0  0  0  0  0  0  0  0
   50.6890   32.3030   39.5650 H   0  0  0  0  0  0  0  0  0  0  0  0
   51.5750   30.5040   40.8520 H   0  0  0  0  0  0  0  0  0  0  0  0
   49.9130   31.4160   43.0960 H   0  0  0  0  0  0  0  0  0  0  0  0
   51.6940   31.1380   42.9700 H   0  0  0  0  0  0  0  0  0  0  0  0
   51.1070   33.5650   43.2430 H   0  0  0  0  0  0  0  0  0  0  0  0
   51.8840   33.2250   41.6810 H   0  0  0  0  0  0  0  0  0  0  0  0
   45.7380   34.1090   42.5620 C   0  0  0  0  0  0  0  0  0  0  0  0
   44.6950   34.4780   42.3400 H   0  0  0  0  0  0  0  0  0  0  0  0
   45.9160   33.3050   41.8660 H   0  0  0  0  0  0  0  0  0  0  0  0
   45.1400   34.2050   46.2630 C   0  0  0  0  0  0  0  0  0  0  0  0
   45.1960   34.6010   44.9080 C   0  0  0  0  0  0  0  0  0  0  0  0
   45.6680   33.7010   44.0020 C   0  0  0  0  0  0  0  0  0  0  0  0
   46.0650   32.4670   44.4250 N   0  0  0  0  0  0  0  0  0  0  0  0
   46.0090   32.1090   45.6880 C   0  0  0  0  0  0  0  0  0  0  0  0
   45.5480   32.9670   46.6200 N   0  0  0  0  0  0  0  0  0  0  0  0
   44.7740   34.8780   47.0190 H   0  0  0  0  0  0  0  0  0  0  0  0
   44.8540   35.6030   44.6890 H   0  0  0  0  0  0  0  0  0  0  0  0
   47.7180   30.3320   45.8190 C   0  0  0  0  0  3  0  0  0  0  0  0
   46.4440   30.7700   46.1180 C   0  0  0  0  0  0  0  0  0  0  0  0
   45.5830   29.9410   46.8250 C   0  0  0  0  0  0  0  0  0  0  0  0
   44.6050   30.2890   47.0500 H   0  0  0  0  0  0  0  0  0  0  0  0
   46.0850   28.6970   47.1870 C   0  0  0  0  0  0  0  0  0  0  0  0
   45.3890   27.7720   47.8730 N   0  0  0  0  0  0  0  0  0  0  0  0
   44.3960   27.7930   48.2500 H   0  0  0  0  0  0  0  0  0  0  0  0
   46.1740   26.7080   48.0440 C   0  0  0  0  0  0  0  0  0  0  0  0
   45.9440   25.7770   48.5510 H   0  0  0  0  0  0  0  0  0  0  0  0
   47.4130   26.9540   47.4520 C   0  0  0  0  0  3  0  0  0  0  0  0
   47.3440   28.2320   46.9060 C   0  0  0  0  0  0  0  0  0  0  0  0
   48.1930   29.0720   46.1990 C   0  0  0  0  0  3  0  0  0  0  0  0
  1 26  1  0  0  0  0
  1  2  1  0  0  0  0
  3  1  1  0  0  0  0
  4  7  1  6  0  0  0
  4  6  1  0  0  0  0
  4  1  1  0  0  0  0
  5  4  1  0  0  0  0
  5  9  1  0  0  0  0
  5  6  1  0  0  0  0
  6 10  1  1  0  0  0
  8  5  1  0  0  0  0
 11 16  1  0  0  0  0
 11  6  1  0  0  0  0
 12 18  1  0  0  0  0
 12 11  1  0  0  0  0
 13 12  1  0  0  0  0
 13 14  1  0  0  0  0
 14 15  1  0  0  0  0
 15 23  1  0  0  0  0
 15 22  1  0  0  0  0
 16 15  1  0  0  0  0
 16 24  1  0  0  0  0
 17 12  1  0  0  0  0
 19 13  1  0  0  0  0
 20 13  1  0  0  0  0
 21 14  1  0  0  0  0
 25 16  1  0  0  0  0
 26 31  1  0  0  0  0
 27 26  1  0  0  0  0
 28 26  1  0  0  0  0
 29 34  1  0  0  0  0
 29 35  1  0  0  0  0
 30 29  2  0  0  0  0
 31 32  2  0  0  0  0
 31 30  1  0  0  0  0
 32 33  1  0  0  0  0
 33 38  1  0  0  0  0
 33 34  2  0  0  0  0
 36 30  1  0  0  0  0
 37 38  2  0  0  0  0
 37 48  1  0  0  0  0
 38 39  1  0  0  0  0
 39 40  1  0  0  0  0
 39 41  2  0  0  0  0
 41 42  1  0  0  0  0
 42 44  1  0  0  0  0
 42 43  1  0  0  0  0
 44 45  1  0  0  0  0
 46 44  2  0  0  0  0
 47 41  1  0  0  0  0
 47 46  1  0  0  0  0
 48 47  2  0  0  0  0
M  END
>  <minimizedAffinity>
-5.373631

>  <minimizedRMSD>
2.68060279

$$$$
