
 OpenBabel03252502453D

 48 52  0  0  1  0  0  0  0  0999 V2000
   48.2110   35.7050   41.8150 C   0  0  0  0  0  0  0  0  0  0  0  0
   48.2950   36.0480   42.8660 H   0  0  0  0  0  0  0  0  0  0  0  0
   48.2440   36.6400   41.2070 H   0  0  0  0  0  0  0  0  0  0  0  0
   49.3460   34.7800   41.5200 C   0  0  1  0  0  0  0  0  0  0  0  0
   50.3400   34.5290   42.6120 C   0  0  0  0  0  0  0  0  0  0  0  0
   49.3620   33.4910   42.2000 C   0  0  2  0  0  0  0  0  0  0  0  0
   49.7820   34.9230   40.5360 H   0  0  0  0  0  0  0  0  0  0  0  0
   51.4170   34.4520   42.3740 H   0  0  0  0  0  0  0  0  0  0  0  0
   50.1790   35.0820   43.5700 H   0  0  0  0  0  0  0  0  0  0  0  0
   48.6770   33.1740   42.9760 H   0  0  0  0  0  0  0  0  0  0  0  0
   49.9610   32.4270   41.3960 N   0  0  0  0  0  0  0  0  0  0  0  0
   49.2360   32.0890   40.2260 C   0  0  0  0  0  0  0  0  0  0  0  0
   50.0190   30.9690   39.5640 C   0  0  0  0  0  0  0  0  0  0  0  0
   50.0740   29.8090   40.3820 N   0  0  0  0  0  0  0  0  0  0  0  0
   50.0030   30.0800   41.8050 C   0  0  0  0  0  0  0  0  0  0  0  0
   50.6470   31.4340   42.1060 C   0  0  0  0  0  0  0  0  0  0  0  0
   49.2460   32.9460   39.5110 H   0  0  0  0  0  0  0  0  0  0  0  0
   48.2080   31.7960   40.4770 H   0  0  0  0  0  0  0  0  0  0  0  0
   49.5210   30.7380   38.5920 H   0  0  0  0  0  0  0  0  0  0  0  0
   50.9970   31.4110   39.2910 H   0  0  0  0  0  0  0  0  0  0  0  0
   50.8540   29.1820   40.1220 H   0  0  0  0  0  0  0  0  0  0  0  0
   48.9590   30.1590   42.1440 H   0  0  0  0  0  0  0  0  0  0  0  0
   50.5180   29.2600   42.3100 H   0  0  0  0  0  0  0  0  0  0  0  0
   50.6550   31.6120   43.1820 H   0  0  0  0  0  0  0  0  0  0  0  0
   51.7210   31.3420   41.7860 H   0  0  0  0  0  0  0  0  0  0  0  0
   46.9460   34.9140   41.6370 C   0  0  0  0  0  0  0  0  0  0  0  0
   46.3190   35.5060   40.9100 H   0  0  0  0  0  0  0  0  0  0  0  0
   47.0370   33.9290   41.2070 H   0  0  0  0  0  0  0  0  0  0  0  0
   44.6680   36.1340   44.3540 C   0  0  0  0  0  0  0  0  0  0  0  0
   45.3960   36.0810   43.1440 C   0  0  0  0  0  0  0  0  0  0  0  0
   46.1650   34.9820   42.9140 C   0  0  0  0  0  0  0  0  0  0  0  0
   46.2070   33.9840   43.8430 N   0  0  0  0  0  0  0  0  0  0  0  0
   45.5270   34.0440   44.9650 C   0  0  0  0  0  0  0  0  0  0  0  0
   44.7510   35.1130   45.2360 N   0  0  0  0  0  0  0  0  0  0  0  0
   44.0440   36.9810   44.5850 H   0  0  0  0  0  0  0  0  0  0  0  0
   45.2850   36.9290   42.4830 H   0  0  0  0  0  0  0  0  0  0  0  0
   45.2580   33.1980   47.2690 C   0  0  0  0  0  3  0  0  0  0  0  0
   45.5900   32.9540   45.9520 C   0  0  0  0  0  0  0  0  0  0  0  0
   45.9840   31.6780   45.5690 C   0  0  0  0  0  0  0  0  0  0  0  0
   46.2360   31.5020   44.5530 H   0  0  0  0  0  0  0  0  0  0  0  0
   46.0120   30.7160   46.5720 C   0  0  0  0  0  0  0  0  0  0  0  0
   46.3670   29.4330   46.3800 N   0  0  0  0  0  0  0  0  0  0  0  0
   46.6740   28.9270   45.4970 H   0  0  0  0  0  0  0  0  0  0  0  0
   46.2810   28.8000   47.5490 C   0  0  0  0  0  0  0  0  0  0  0  0
   46.4910   27.7590   47.7670 H   0  0  0  0  0  0  0  0  0  0  0  0
   45.8570   29.7010   48.5260 C   0  0  0  0  0  3  0  0  0  0  0  0
   45.6880   30.9270   47.8890 C   0  0  0  0  0  0  0  0  0  0  0  0
   45.2970   32.2060   48.2540 C   0  0  0  0  0  3  0  0  0  0  0  0
  1  2  1  0  0  0  0
  3  1  1  0  0  0  0
  4  7  1  6  0  0  0
  4  1  1  0  0  0  0
  4  6  1  0  0  0  0
  4  5  1  0  0  0  0
  5  9  1  0  0  0  0
  6  5  1  0  0  0  0
  6 10  1  1  0  0  0
  8  5  1  0  0  0  0
 11 16  1  0  0  0  0
 11  6  1  0  0  0  0
 12 18  1  0  0  0  0
 12 11  1  0  0  0  0
 13 12  1  0  0  0  0
 13 14  1  0  0  0  0
 14 15  1  0  0  0  0
 15 16  1  0  0  0  0
 15 22  1  0  0  0  0
 15 23  1  0  0  0  0
 16 24  1  0  0  0  0
 17 12  1  0  0  0  0
 19 13  1  0  0  0  0
 20 13  1  0  0  0  0
 21 14  1  0  0  0  0
 25 16  1  0  0  0  0
 26  1  1  0  0  0  0
 26 31  1  0  0  0  0
 27 26  1  0  0  0  0
 28 26  1  0  0  0  0
 29 35  1  0  0  0  0
 29 34  1  0  0  0  0
 30 29  2  0  0  0  0
 31 30  1  0  0  0  0
 31 32  2  0  0  0  0
 32 33  1  0  0  0  0
 33 34  2  0  0  0  0
 33 38  1  0  0  0  0
 36 30  1  0  0  0  0
 37 48  1  0  0  0  0
 38 37  2  0  0  0  0
 39 38  1  0  0  0  0
 39 41  2  0  0  0  0
 40 39  1  0  0  0  0
 41 47  1  0  0  0  0
 42 41  1  0  0  0  0
 42 44  1  0  0  0  0
 43 42  1  0  0  0  0
 44 45  1  0  0  0  0
 44 46  2  0  0  0  0
 47 48  2  0  0  0  0
 47 46  1  0  0  0  0
M  END
>  <minimizedAffinity>
-5.73066187

>  <minimizedRMSD>
1.00335717

$$$$
