
 OpenBabel03242518373D

 38 42  0  0  1  0  0  0  0  0999 V2000
   40.2990   30.3600   41.8600 C   0  0  0  0  0  0  0  0  0  0  0  0
   41.0630   30.1520   40.7140 C   0  0  0  0  0  0  0  0  0  0  0  0
   41.0560   31.3120   39.9510 C   0  0  0  0  0  0  0  0  0  0  0  0
   40.2780   32.1740   40.6790 C   0  0  0  0  0  0  0  0  0  0  0  0
   39.8510   31.6060   41.7750 O   0  0  0  0  0  0  0  0  0  0  0  0
   41.5550   29.2020   40.5230 H   0  0  0  0  0  0  0  0  0  0  0  0
   41.5730   31.4240   39.0070 H   0  0  0  0  0  0  0  0  0  0  0  0
   39.9620   33.5550   40.2930 C   0  0  2  0  0  0  0  0  0  0  0  0
   38.8310   34.2640   40.9190 C   0  0  0  0  0  0  0  0  0  0  0  0
   38.5970   33.7060   39.5800 C   0  0  2  0  0  0  0  0  0  0  0  0
   40.7760   34.1900   39.8460 H   0  0  0  0  0  0  0  0  0  0  0  0
   38.8640   35.3810   40.9960 H   0  0  0  0  0  0  0  0  0  0  0  0
   38.3200   33.8070   41.8030 H   0  0  0  0  0  0  0  0  0  0  0  0
   38.6780   34.3780   38.6730 H   0  0  0  0  0  0  0  0  0  0  0  0
   37.7700   31.7980   38.1340 C   0  0  0  0  0  3  0  0  0  0  0  0
   37.8170   32.4980   39.3210 C   0  0  0  0  0  0  0  0  0  0  0  0
   37.0150   31.9470   40.3080 C   0  0  0  0  0  0  0  0  0  0  0  0
   36.9670   32.4060   41.2840 H   0  0  0  0  0  0  0  0  0  0  0  0
   36.2500   30.8170   40.1140 C   0  0  0  0  0  0  0  0  0  0  0  0
   35.4210   30.1460   40.9410 N   0  0  0  0  0  0  0  0  0  0  0  0
   35.2130   30.3930   41.9270 H   0  0  0  0  0  0  0  0  0  0  0  0
   34.8960   29.0980   40.3040 C   0  0  0  0  0  0  0  0  0  0  0  0
   34.1860   28.3860   40.7540 H   0  0  0  0  0  0  0  0  0  0  0  0
   35.3950   29.0800   39.0180 C   0  0  0  0  0  3  0  0  0  0  0  0
   36.2440   30.1590   38.9020 C   0  0  0  0  0  0  0  0  0  0  0  0
   37.0250   30.6650   37.8870 C   0  0  0  0  0  3  0  0  0  0  0  0
   39.9960   29.5130   42.9370 O   0  0  0  0  0  0  0  0  0  0  0  0
   38.8020   28.7580   42.9200 C   0  0  0  0  0  0  0  0  0  0  0  0
   37.7440   29.4130   42.9350 O   0  0  0  0  0  0  0  0  0  0  0  0
   38.9590   27.3410   42.8920 C   0  0  0  0  0  0  0  0  0  0  0  0
   39.9680   26.8590   43.6810 C   0  0  0  0  0  0  0  0  0  0  0  0
   40.1810   25.4810   43.7040 C   0  0  0  0  0  0  0  0  0  0  0  0
   39.3800   24.6940   42.9460 N   0  0  0  0  0  0  0  0  0  0  0  0
   38.4070   25.2020   42.1900 C   0  0  0  0  0  0  0  0  0  0  0  0
   38.2120   26.5240   42.1760 N   0  0  0  0  0  0  0  0  0  0  0  0
   40.6200   27.4690   44.2940 H   0  0  0  0  0  0  0  0  0  0  0  0
   40.9840   25.0610   44.3280 H   0  0  0  0  0  0  0  0  0  0  0  0
   37.8220   24.4860   41.6210 H   0  0  0  0  0  0  0  0  0  0  0  0
  1 27  1  0  0  0  0
  2  1  2  0  0  0  0
  3  4  2  0  0  0  0
  3  2  1  0  0  0  0
  4  5  1  0  0  0  0
  5  1  1  0  0  0  0
  6  2  1  0  0  0  0
  7  3  1  0  0  0  0
  8 11  1  6  0  0  0
  8  4  1  0  0  0  0
  8  9  1  0  0  0  0
  9 12  1  0  0  0  0
  9 13  1  0  0  0  0
 10 14  1  6  0  0  0
 10  8  1  0  0  0  0
 10  9  1  0  0  0  0
 15 16  1  0  0  0  0
 16 10  1  0  0  0  0
 16 17  2  0  0  0  0
 17 18  1  0  0  0  0
 19 17  1  0  0  0  0
 19 20  1  0  0  0  0
 20 21  1  0  0  0  0
 22 23  1  0  0  0  0
 22 20  1  0  0  0  0
 24 22  2  0  0  0  0
 25 24  1  0  0  0  0
 25 19  2  0  0  0  0
 26 15  2  0  0  0  0
 26 25  1  0  0  0  0
 28 29  2  0  0  0  0
 28 27  1  0  0  0  0
 30 28  1  0  0  0  0
 30 31  1  0  0  0  0
 31 32  2  0  0  0  0
 31 36  1  0  0  0  0
 32 37  1  0  0  0  0
 33 32  1  0  0  0  0
 34 33  2  0  0  0  0
 35 34  1  0  0  0  0
 35 30  2  0  0  0  0
 38 34  1  0  0  0  0
M  END
>  <minimizedAffinity>
-6.40146446

$$$$

 OpenBabel03242518373D

 38 42  0  0  1  0  0  0  0  0999 V2000
   37.7020   28.6370   41.7440 C   0  0  0  0  0  0  0  0  0  0  0  0
   36.6810   28.1540   42.5600 C   0  0  0  0  0  0  0  0  0  0  0  0
   37.2340   27.3290   43.5310 C   0  0  0  0  0  0  0  0  0  0  0  0
   38.5750   27.3520   43.2520 C   0  0  0  0  0  0  0  0  0  0  0  0
   38.8240   28.1120   42.2180 O   0  0  0  0  0  0  0  0  0  0  0  0
   35.6430   28.4280   42.3940 H   0  0  0  0  0  0  0  0  0  0  0  0
   36.6610   26.8210   44.2960 H   0  0  0  0  0  0  0  0  0  0  0  0
   39.6060   26.6300   44.0070 C   0  0  2  0  0  0  0  0  0  0  0  0
   40.9240   26.3640   43.4030 C   0  0  0  0  0  0  0  0  0  0  0  0
   39.9660   25.2500   43.4060 C   0  0  2  0  0  0  0  0  0  0  0  0
   39.5510   26.6310   45.1310 H   0  0  0  0  0  0  0  0  0  0  0  0
   41.8170   26.2570   44.0710 H   0  0  0  0  0  0  0  0  0  0  0  0
   41.1930   26.8560   42.4360 H   0  0  0  0  0  0  0  0  0  0  0  0
   40.0350   24.4560   44.2100 H   0  0  0  0  0  0  0  0  0  0  0  0
   38.0070   24.1640   42.2240 C   0  0  0  0  0  3  0  0  0  0  0  0
   39.2310   24.7980   42.2270 C   0  0  0  0  0  0  0  0  0  0  0  0
   39.7520   24.9790   40.9550 C   0  0  0  0  0  0  0  0  0  0  0  0
   40.7080   25.4650   40.8270 H   0  0  0  0  0  0  0  0  0  0  0  0
   39.1070   24.5620   39.8100 C   0  0  0  0  0  0  0  0  0  0  0  0
   39.4520   24.6480   38.5080 N   0  0  0  0  0  0  0  0  0  0  0  0
   40.3220   25.0730   38.1360 H   0  0  0  0  0  0  0  0  0  0  0  0
   38.5010   24.1010   37.7500 C   0  0  0  0  0  0  0  0  0  0  0  0
   38.5360   24.0410   36.6510 H   0  0  0  0  0  0  0  0  0  0  0  0
   37.4990   23.6400   38.5800 C   0  0  0  0  0  3  0  0  0  0  0  0
   37.8820   23.9310   39.8710 C   0  0  0  0  0  0  0  0  0  0  0  0
   37.3200   23.7280   41.1120 C   0  0  0  0  0  3  0  0  0  0  0  0
   37.6720   29.4960   40.6350 O   0  0  0  0  0  0  0  0  0  0  0  0
   37.2630   30.8380   40.7980 C   0  0  0  0  0  0  0  0  0  0  0  0
   36.0510   31.0130   41.0240 O   0  0  0  0  0  0  0  0  0  0  0  0
   38.2870   31.8220   40.6810 C   0  0  0  0  0  0  0  0  0  0  0  0
   37.8580   33.0490   40.2520 C   0  0  0  0  0  0  0  0  0  0  0  0
   38.8050   34.0640   40.1140 C   0  0  0  0  0  0  0  0  0  0  0  0
   40.0960   33.7820   40.4110 N   0  0  0  0  0  0  0  0  0  0  0  0
   40.4750   32.5750   40.8260 C   0  0  0  0  0  0  0  0  0  0  0  0
   39.5590   31.6090   40.9550 N   0  0  0  0  0  0  0  0  0  0  0  0
   36.8310   33.2960   40.0090 H   0  0  0  0  0  0  0  0  0  0  0  0
   38.4920   35.0610   39.7710 H   0  0  0  0  0  0  0  0  0  0  0  0
   41.5320   32.4530   41.0380 H   0  0  0  0  0  0  0  0  0  0  0  0
  1  5  1  0  0  0  0
  1  2  2  0  0  0  0
  2  3  1  0  0  0  0
  3  7  1  0  0  0  0
  4  3  2  0  0  0  0
  4  8  1  0  0  0  0
  5  4  1  0  0  0  0
  6  2  1  0  0  0  0
  8 11  1  1  0  0  0
  9 10  1  0  0  0  0
  9  8  1  0  0  0  0
  9 12  1  0  0  0  0
 10  8  1  0  0  0  0
 10 14  1  1  0  0  0
 13  9  1  0  0  0  0
 15 16  1  0  0  0  0
 16 10  1  0  0  0  0
 17 16  2  0  0  0  0
 18 17  1  0  0  0  0
 19 25  2  0  0  0  0
 19 17  1  0  0  0  0
 20 19  1  0  0  0  0
 21 20  1  0  0  0  0
 22 20  1  0  0  0  0
 22 24  2  0  0  0  0
 23 22  1  0  0  0  0
 24 25  1  0  0  0  0
 25 26  1  0  0  0  0
 26 15  2  0  0  0  0
 27 28  1  0  0  0  0
 27  1  1  0  0  0  0
 28 29  2  0  0  0  0
 30 28  1  0  0  0  0
 30 35  1  0  0  0  0
 31 30  2  0  0  0  0
 32 31  1  0  0  0  0
 32 33  2  0  0  0  0
 33 34  1  0  0  0  0
 34 35  2  0  0  0  0
 34 38  1  0  0  0  0
 36 31  1  0  0  0  0
 37 32  1  0  0  0  0
M  END
>  <minimizedAffinity>
-6.0798316

$$$$

 OpenBabel03242518373D

 38 42  0  0  1  0  0  0  0  0999 V2000
   40.5300   29.5870   42.2730 C   0  0  0  0  0  0  0  0  0  0  0  0
   41.0480   28.3020   42.1240 C   0  0  0  0  0  0  0  0  0  0  0  0
   40.0920   27.3810   42.5330 C   0  0  0  0  0  0  0  0  0  0  0  0
   39.0310   28.1610   42.9140 C   0  0  0  0  0  0  0  0  0  0  0  0
   39.3050   29.4290   42.7570 O   0  0  0  0  0  0  0  0  0  0  0  0
   42.0500   28.1340   41.7410 H   0  0  0  0  0  0  0  0  0  0  0  0
   40.2350   26.3090   42.5200 H   0  0  0  0  0  0  0  0  0  0  0  0
   37.7530   27.6540   43.4280 C   0  0  2  0  0  0  0  0  0  0  0  0
   36.9900   26.6480   42.6670 C   0  0  0  0  0  0  0  0  0  0  0  0
   36.5340   28.0410   42.5570 C   0  0  2  0  0  0  0  0  0  0  0  0
   37.5540   27.7150   44.5340 H   0  0  0  0  0  0  0  0  0  0  0  0
   36.3160   25.9440   43.2200 H   0  0  0  0  0  0  0  0  0  0  0  0
   37.4650   26.1530   41.7840 H   0  0  0  0  0  0  0  0  0  0  0  0
   35.6690   28.3970   43.1940 H   0  0  0  0  0  0  0  0  0  0  0  0
   37.1100   28.4550   40.1260 C   0  0  0  0  0  3  0  0  0  0  0  0
   36.7620   28.8870   41.3880 C   0  0  0  0  0  0  0  0  0  0  0  0
   36.6480   30.2660   41.4780 C   0  0  0  0  0  0  0  0  0  0  0  0
   36.3800   30.7260   42.4170 H   0  0  0  0  0  0  0  0  0  0  0  0
   36.8640   31.1110   40.4100 C   0  0  0  0  0  0  0  0  0  0  0  0
   36.8010   32.4550   40.3080 N   0  0  0  0  0  0  0  0  0  0  0  0
   36.5630   33.1140   41.0730 H   0  0  0  0  0  0  0  0  0  0  0  0
   37.0920   32.8280   39.0600 C   0  0  0  0  0  0  0  0  0  0  0  0
   37.1120   33.8720   38.7100 H   0  0  0  0  0  0  0  0  0  0  0  0
   37.3550   31.6940   38.3200 C   0  0  0  0  0  3  0  0  0  0  0  0
   37.2100   30.6190   39.1700 C   0  0  0  0  0  0  0  0  0  0  0  0
   37.3360   29.2540   39.0270 C   0  0  0  0  0  3  0  0  0  0  0  0
   41.0870   30.8460   42.0050 O   0  0  0  0  0  0  0  0  0  0  0  0
   40.4070   31.7470   41.1570 C   0  0  0  0  0  0  0  0  0  0  0  0
   39.5980   32.5130   41.7140 O   0  0  0  0  0  0  0  0  0  0  0  0
   40.7290   31.6660   39.7710 C   0  0  0  0  0  0  0  0  0  0  0  0
   40.8770   32.8740   39.1440 C   0  0  0  0  0  0  0  0  0  0  0  0
   41.1940   32.8730   37.7860 C   0  0  0  0  0  0  0  0  0  0  0  0
   41.3370   31.6810   37.1600 N   0  0  0  0  0  0  0  0  0  0  0  0
   41.1840   30.5250   37.8050 C   0  0  0  0  0  0  0  0  0  0  0  0
   40.8810   30.5370   39.1070 N   0  0  0  0  0  0  0  0  0  0  0  0
   40.7680   33.8380   39.6250 H   0  0  0  0  0  0  0  0  0  0  0  0
   41.3200   33.8270   37.2520 H   0  0  0  0  0  0  0  0  0  0  0  0
   41.3200   29.6260   37.2130 H   0  0  0  0  0  0  0  0  0  0  0  0
  1  5  1  0  0  0  0
  2  1  2  0  0  0  0
  2  3  1  0  0  0  0
  3  4  2  0  0  0  0
  4  8  1  0  0  0  0
  5  4  1  0  0  0  0
  6  2  1  0  0  0  0
  7  3  1  0  0  0  0
  8 11  1  1  0  0  0
  9 12  1  0  0  0  0
  9  8  1  0  0  0  0
 10  9  1  0  0  0  0
 10 14  1  1  0  0  0
 10  8  1  0  0  0  0
 13  9  1  0  0  0  0
 15 16  1  0  0  0  0
 16 17  2  0  0  0  0
 16 10  1  0  0  0  0
 17 18  1  0  0  0  0
 19 17  1  0  0  0  0
 20 19  1  0  0  0  0
 20 21  1  0  0  0  0
 22 20  1  0  0  0  0
 23 22  1  0  0  0  0
 24 22  2  0  0  0  0
 24 25  1  0  0  0  0
 25 19  2  0  0  0  0
 26 25  1  0  0  0  0
 26 15  2  0  0  0  0
 27  1  1  0  0  0  0
 28 29  2  0  0  0  0
 28 27  1  0  0  0  0
 30 28  1  0  0  0  0
 31 36  1  0  0  0  0
 31 30  1  0  0  0  0
 32 31  2  0  0  0  0
 33 32  1  0  0  0  0
 33 34  2  0  0  0  0
 34 35  1  0  0  0  0
 35 30  2  0  0  0  0
 37 32  1  0  0  0  0
 38 34  1  0  0  0  0
M  END
>  <minimizedAffinity>
-6.01356983

$$$$

 OpenBabel03242518373D

 38 42  0  0  1  0  0  0  0  0999 V2000
   39.1130   29.6630   39.9670 C   0  0  0  0  0  0  0  0  0  0  0  0
   40.0880   28.9390   40.6500 C   0  0  0  0  0  0  0  0  0  0  0  0
   39.5790   28.5510   41.8830 C   0  0  0  0  0  0  0  0  0  0  0  0
   38.3080   29.0650   41.8860 C   0  0  0  0  0  0  0  0  0  0  0  0
   38.0600   29.7030   40.7730 O   0  0  0  0  0  0  0  0  0  0  0  0
   41.0660   28.7530   40.2160 H   0  0  0  0  0  0  0  0  0  0  0  0
   40.1290   27.9750   42.6150 H   0  0  0  0  0  0  0  0  0  0  0  0
   37.3440   28.9230   42.9840 C   0  0  2  0  0  0  0  0  0  0  0  0
   37.5730   27.9350   44.0540 C   0  0  0  0  0  0  0  0  0  0  0  0
   36.6180   27.5560   43.0020 C   0  0  2  0  0  0  0  0  0  0  0  0
   36.6720   29.7920   43.2280 H   0  0  0  0  0  0  0  0  0  0  0  0
   37.1450   28.1260   45.0710 H   0  0  0  0  0  0  0  0  0  0  0  0
   38.5600   27.4130   44.1160 H   0  0  0  0  0  0  0  0  0  0  0  0
   35.5090   27.6810   43.1840 H   0  0  0  0  0  0  0  0  0  0  0  0
   36.6070   26.7590   40.5980 C   0  0  0  0  0  3  0  0  0  0  0  0
   36.9130   26.6040   41.9340 C   0  0  0  0  0  0  0  0  0  0  0  0
   37.5490   25.4040   42.2090 C   0  0  0  0  0  0  0  0  0  0  0  0
   37.8400   25.1660   43.2220 H   0  0  0  0  0  0  0  0  0  0  0  0
   37.8400   24.4660   41.2420 C   0  0  0  0  0  0  0  0  0  0  0  0
   38.4440   23.2610   41.3180 N   0  0  0  0  0  0  0  0  0  0  0  0
   38.8110   22.8170   42.1810 H   0  0  0  0  0  0  0  0  0  0  0  0
   38.5050   22.7070   40.1060 C   0  0  0  0  0  0  0  0  0  0  0  0
   38.9500   21.7230   39.8910 H   0  0  0  0  0  0  0  0  0  0  0  0
   37.9240   23.5750   39.2050 C   0  0  0  0  0  3  0  0  0  0  0  0
   37.5090   24.6770   39.9200 C   0  0  0  0  0  0  0  0  0  0  0  0
   36.8750   25.8560   39.5930 C   0  0  0  0  0  3  0  0  0  0  0  0
   39.1260   30.2670   38.7010 O   0  0  0  0  0  0  0  0  0  0  0  0
   38.4610   31.4970   38.5040 C   0  0  0  0  0  0  0  0  0  0  0  0
   37.4510   31.4590   37.7760 O   0  0  0  0  0  0  0  0  0  0  0  0
   39.0300   32.6280   39.1590 C   0  0  0  0  0  0  0  0  0  0  0  0
   40.3350   32.8830   38.8350 C   0  0  0  0  0  0  0  0  0  0  0  0
   40.9590   33.9760   39.4370 C   0  0  0  0  0  0  0  0  0  0  0  0
   40.2430   34.7230   40.3110 N   0  0  0  0  0  0  0  0  0  0  0  0
   38.9740   34.4420   40.6010 C   0  0  0  0  0  0  0  0  0  0  0  0
   38.3850   33.3930   40.0170 N   0  0  0  0  0  0  0  0  0  0  0  0
   40.9260   32.2990   38.1400 H   0  0  0  0  0  0  0  0  0  0  0  0
   42.0070   34.2080   39.1980 H   0  0  0  0  0  0  0  0  0  0  0  0
   38.4890   35.1030   41.3130 H   0  0  0  0  0  0  0  0  0  0  0  0
  1  2  2  0  0  0  0
  1  5  1  0  0  0  0
  2  3  1  0  0  0  0
  3  4  2  0  0  0  0
  3  7  1  0  0  0  0
  4  8  1  0  0  0  0
  5  4  1  0  0  0  0
  6  2  1  0  0  0  0
  8 10  1  0  0  0  0
  8 11  1  1  0  0  0
  8  9  1  0  0  0  0
  9 13  1  0  0  0  0
  9 12  1  0  0  0  0
 10 14  1  1  0  0  0
 10  9  1  0  0  0  0
 15 16  1  0  0  0  0
 16 17  2  0  0  0  0
 16 10  1  0  0  0  0
 17 18  1  0  0  0  0
 19 20  1  0  0  0  0
 19 17  1  0  0  0  0
 20 21  1  0  0  0  0
 22 20  1  0  0  0  0
 23 22  1  0  0  0  0
 24 25  1  0  0  0  0
 24 22  2  0  0  0  0
 25 19  2  0  0  0  0
 26 25  1  0  0  0  0
 26 15  2  0  0  0  0
 27  1  1  0  0  0  0
 28 27  1  0  0  0  0
 28 30  1  0  0  0  0
 29 28  2  0  0  0  0
 30 35  1  0  0  0  0
 31 30  2  0  0  0  0
 31 32  1  0  0  0  0
 32 33  2  0  0  0  0
 33 34  1  0  0  0  0
 34 38  1  0  0  0  0
 35 34  2  0  0  0  0
 36 31  1  0  0  0  0
 37 32  1  0  0  0  0
M  END
>  <minimizedAffinity>
-6.00676823

$$$$

 OpenBabel03242518373D

 38 42  0  0  1  0  0  0  0  0999 V2000
   39.5200   30.7050   42.1420 C   0  0  0  0  0  0  0  0  0  0  0  0
   40.4790   29.6980   42.0430 C   0  0  0  0  0  0  0  0  0  0  0  0
   39.9320   28.5090   42.5090 C   0  0  0  0  0  0  0  0  0  0  0  0
   38.6570   28.8580   42.8710 C   0  0  0  0  0  0  0  0  0  0  0  0
   38.4400   30.1280   42.6520 O   0  0  0  0  0  0  0  0  0  0  0  0
   41.4730   29.8960   41.6530 H   0  0  0  0  0  0  0  0  0  0  0  0
   40.4630   27.5670   42.5430 H   0  0  0  0  0  0  0  0  0  0  0  0
   37.6580   27.9380   43.4280 C   0  0  2  0  0  0  0  0  0  0  0  0
   37.4730   26.5960   42.8460 C   0  0  0  0  0  0  0  0  0  0  0  0
   36.4940   27.6220   42.4580 C   0  0  2  0  0  0  0  0  0  0  0  0
   37.3290   28.0800   44.4950 H   0  0  0  0  0  0  0  0  0  0  0  0
   37.0960   25.7680   43.4980 H   0  0  0  0  0  0  0  0  0  0  0  0
   38.2060   26.2220   42.0890 H   0  0  0  0  0  0  0  0  0  0  0  0
   35.4940   27.6670   42.9860 H   0  0  0  0  0  0  0  0  0  0  0  0
   35.7600   29.4200   40.8330 C   0  0  0  0  0  3  0  0  0  0  0  0
   36.4780   28.2890   41.1590 C   0  0  0  0  0  0  0  0  0  0  0  0
   37.2200   27.7940   40.0980 C   0  0  0  0  0  0  0  0  0  0  0  0
   37.8250   26.9090   40.2290 H   0  0  0  0  0  0  0  0  0  0  0  0
   37.2310   28.3770   38.8490 C   0  0  0  0  0  0  0  0  0  0  0  0
   37.8800   28.0430   37.7130 N   0  0  0  0  0  0  0  0  0  0  0  0
   38.5190   27.2350   37.5920 H   0  0  0  0  0  0  0  0  0  0  0  0
   37.5800   28.9140   36.7480 C   0  0  0  0  0  0  0  0  0  0  0  0
   37.9770   28.8690   35.7220 H   0  0  0  0  0  0  0  0  0  0  0  0
   36.7070   29.8490   37.2660 C   0  0  0  0  0  3  0  0  0  0  0  0
   36.4920   29.5090   38.5830 C   0  0  0  0  0  0  0  0  0  0  0  0
   35.7360   30.0430   39.6040 C   0  0  0  0  0  3  0  0  0  0  0  0
   39.5710   32.0660   41.8070 O   0  0  0  0  0  0  0  0  0  0  0  0
   38.9790   32.5150   40.6060 C   0  0  0  0  0  0  0  0  0  0  0  0
   37.7490   32.7030   40.6430 O   0  0  0  0  0  0  0  0  0  0  0  0
   39.8640   32.6950   39.5030 C   0  0  0  0  0  0  0  0  0  0  0  0
   39.7090   31.7860   38.4900 C   0  0  0  0  0  0  0  0  0  0  0  0
   40.5400   31.9000   37.3750 C   0  0  0  0  0  0  0  0  0  0  0  0
   41.4540   32.8990   37.3540 N   0  0  0  0  0  0  0  0  0  0  0  0
   41.5740   33.7640   38.3600 C   0  0  0  0  0  0  0  0  0  0  0  0
   40.7720   33.6470   39.4240 N   0  0  0  0  0  0  0  0  0  0  0  0
   38.9860   30.9800   38.4860 H   0  0  0  0  0  0  0  0  0  0  0  0
   40.4420   31.1850   36.5440 H   0  0  0  0  0  0  0  0  0  0  0  0
   42.3360   34.5280   38.2450 H   0  0  0  0  0  0  0  0  0  0  0  0
  1  5  1  0  0  0  0
  2  1  2  0  0  0  0
  2  3  1  0  0  0  0
  3  7  1  0  0  0  0
  3  4  2  0  0  0  0
  4  8  1  0  0  0  0
  5  4  1  0  0  0  0
  6  2  1  0  0  0  0
  8 11  1  1  0  0  0
  9  8  1  0  0  0  0
  9 12  1  0  0  0  0
 10  9  1  0  0  0  0
 10 14  1  1  0  0  0
 10  8  1  0  0  0  0
 13  9  1  0  0  0  0
 15 16  1  0  0  0  0
 16 10  1  0  0  0  0
 17 18  1  0  0  0  0
 17 16  2  0  0  0  0
 19 17  1  0  0  0  0
 20 19  1  0  0  0  0
 21 20  1  0  0  0  0
 22 24  2  0  0  0  0
 22 20  1  0  0  0  0
 23 22  1  0  0  0  0
 24 25  1  0  0  0  0
 25 19  2  0  0  0  0
 25 26  1  0  0  0  0
 26 15  2  0  0  0  0
 27  1  1  0  0  0  0
 28 29  2  0  0  0  0
 28 27  1  0  0  0  0
 30 28  1  0  0  0  0
 31 30  2  0  0  0  0
 32 31  1  0  0  0  0
 33 32  2  0  0  0  0
 33 34  1  0  0  0  0
 34 35  2  0  0  0  0
 35 30  1  0  0  0  0
 36 31  1  0  0  0  0
 37 32  1  0  0  0  0
 38 34  1  0  0  0  0
M  END
>  <minimizedAffinity>
-5.98500395

$$$$

 OpenBabel03242518373D

 38 42  0  0  1  0  0  0  0  0999 V2000
   39.6080   29.4550   38.1720 C   0  0  0  0  0  0  0  0  0  0  0  0
   39.8960   28.1520   37.7720 C   0  0  0  0  0  0  0  0  0  0  0  0
   38.7320   27.5600   37.2970 C   0  0  0  0  0  0  0  0  0  0  0  0
   37.7880   28.5440   37.4340 C   0  0  0  0  0  0  0  0  0  0  0  0
   38.3140   29.6280   37.9410 O   0  0  0  0  0  0  0  0  0  0  0  0
   40.8970   27.7400   37.8530 H   0  0  0  0  0  0  0  0  0  0  0  0
   38.6740   26.5470   36.9210 H   0  0  0  0  0  0  0  0  0  0  0  0
   36.3740   28.4140   37.0630 C   0  0  2  0  0  0  0  0  0  0  0  0
   35.3660   29.3270   37.6320 C   0  0  0  0  0  0  0  0  0  0  0  0
   35.4580   27.9910   38.2370 C   0  0  2  0  0  0  0  0  0  0  0  0
   36.1160   27.9140   36.0880 H   0  0  0  0  0  0  0  0  0  0  0  0
   34.4380   29.5460   37.0440 H   0  0  0  0  0  0  0  0  0  0  0  0
   35.7030   30.2200   38.2150 H   0  0  0  0  0  0  0  0  0  0  0  0
   34.7300   27.1840   37.9210 H   0  0  0  0  0  0  0  0  0  0  0  0
   36.6070   26.5150   39.9440 C   0  0  0  0  0  3  0  0  0  0  0  0
   36.0780   27.7190   39.5320 C   0  0  0  0  0  0  0  0  0  0  0  0
   36.1710   28.7110   40.4950 C   0  0  0  0  0  0  0  0  0  0  0  0
   35.7900   29.7010   40.2900 H   0  0  0  0  0  0  0  0  0  0  0  0
   36.7340   28.5060   41.7360 C   0  0  0  0  0  0  0  0  0  0  0  0
   36.9100   29.3360   42.7860 N   0  0  0  0  0  0  0  0  0  0  0  0
   36.6280   30.3340   42.8280 H   0  0  0  0  0  0  0  0  0  0  0  0
   37.5100   28.6840   43.7830 C   0  0  0  0  0  0  0  0  0  0  0  0
   37.7690   29.1320   44.7560 H   0  0  0  0  0  0  0  0  0  0  0  0
   37.7350   27.3850   43.3760 C   0  0  0  0  0  3  0  0  0  0  0  0
   37.2480   27.2770   42.0920 C   0  0  0  0  0  0  0  0  0  0  0  0
   37.1810   26.2560   41.1700 C   0  0  0  0  0  3  0  0  0  0  0  0
   40.4260   30.4580   38.7150 O   0  0  0  0  0  0  0  0  0  0  0  0
   40.3870   31.7620   38.1760 C   0  0  0  0  0  0  0  0  0  0  0  0
   40.9070   31.9030   37.0530 O   0  0  0  0  0  0  0  0  0  0  0  0
   39.7590   32.7540   38.9850 C   0  0  0  0  0  0  0  0  0  0  0  0
   40.6040   33.7140   39.4750 C   0  0  0  0  0  0  0  0  0  0  0  0
   40.0600   34.7190   40.2750 C   0  0  0  0  0  0  0  0  0  0  0  0
   38.7290   34.6910   40.5260 N   0  0  0  0  0  0  0  0  0  0  0  0
   37.9400   33.7400   40.0310 C   0  0  0  0  0  0  0  0  0  0  0  0
   38.4710   32.7810   39.2640 N   0  0  0  0  0  0  0  0  0  0  0  0
   41.6690   33.7550   39.2870 H   0  0  0  0  0  0  0  0  0  0  0  0
   40.7120   35.5050   40.6840 H   0  0  0  0  0  0  0  0  0  0  0  0
   36.8890   33.8080   40.2900 H   0  0  0  0  0  0  0  0  0  0  0  0
  1 27  1  0  0  0  0
  2  6  1  0  0  0  0
  2  1  2  0  0  0  0
  3  4  2  0  0  0  0
  3  2  1  0  0  0  0
  4  5  1  0  0  0  0
  5  1  1  0  0  0  0
  7  3  1  0  0  0  0
  8 11  1  6  0  0  0
  8  4  1  0  0  0  0
  8  9  1  0  0  0  0
  8 10  1  0  0  0  0
  9 13  1  0  0  0  0
  9 10  1  0  0  0  0
 10 14  1  6  0  0  0
 10 16  1  0  0  0  0
 12  9  1  0  0  0  0
 15 26  1  0  0  0  0
 16 15  2  0  0  0  0
 16 17  1  0  0  0  0
 17 19  2  0  0  0  0
 18 17  1  0  0  0  0
 19 25  1  0  0  0  0
 19 20  1  0  0  0  0
 20 21  1  0  0  0  0
 20 22  1  0  0  0  0
 22 23  1  0  0  0  0
 24 22  2  0  0  0  0
 25 24  1  0  0  0  0
 26 25  2  0  0  0  0
 28 27  1  0  0  0  0
 28 30  1  0  0  0  0
 29 28  2  0  0  0  0
 30 35  2  0  0  0  0
 30 31  1  0  0  0  0
 31 32  2  0  0  0  0
 32 33  1  0  0  0  0
 32 37  1  0  0  0  0
 34 38  1  0  0  0  0
 34 33  2  0  0  0  0
 35 34  1  0  0  0  0
 36 31  1  0  0  0  0
M  END
>  <minimizedAffinity>
-5.96176863

$$$$

 OpenBabel03242518373D

 38 42  0  0  1  0  0  0  0  0999 V2000
   40.9550   29.0250   40.4280 C   0  0  0  0  0  0  0  0  0  0  0  0
   41.5830   27.8120   40.1550 C   0  0  0  0  0  0  0  0  0  0  0  0
   41.5020   27.0000   41.2800 C   0  0  0  0  0  0  0  0  0  0  0  0
   40.8240   27.7700   42.1880 C   0  0  0  0  0  0  0  0  0  0  0  0
   40.5180   28.9340   41.6770 O   0  0  0  0  0  0  0  0  0  0  0  0
   42.0390   27.6120   39.1900 H   0  0  0  0  0  0  0  0  0  0  0  0
   41.9110   26.0000   41.3390 H   0  0  0  0  0  0  0  0  0  0  0  0
   40.4760   27.3550   43.5530 C   0  0  2  0  0  0  0  0  0  0  0  0
   39.9620   25.9980   43.8110 C   0  0  0  0  0  0  0  0  0  0  0  0
   38.9670   27.0790   43.7550 C   0  0  2  0  0  0  0  0  0  0  0  0
   40.9560   27.8920   44.4180 H   0  0  0  0  0  0  0  0  0  0  0  0
   40.1360   25.5320   44.8140 H   0  0  0  0  0  0  0  0  0  0  0  0
   39.9930   25.2360   42.9940 H   0  0  0  0  0  0  0  0  0  0  0  0
   38.5890   27.5410   44.7160 H   0  0  0  0  0  0  0  0  0  0  0  0
   37.8280   26.4320   41.5870 C   0  0  0  0  0  3  0  0  0  0  0  0
   38.0670   27.3060   42.6260 C   0  0  0  0  0  0  0  0  0  0  0  0
   37.3590   28.4920   42.5110 C   0  0  0  0  0  0  0  0  0  0  0  0
   37.4620   29.2580   43.2660 H   0  0  0  0  0  0  0  0  0  0  0  0
   36.5060   28.7620   41.4620 C   0  0  0  0  0  0  0  0  0  0  0  0
   35.7450   29.8410   41.1850 N   0  0  0  0  0  0  0  0  0  0  0  0
   35.6760   30.7020   41.7600 H   0  0  0  0  0  0  0  0  0  0  0  0
   35.0780   29.6440   40.0460 C   0  0  0  0  0  0  0  0  0  0  0  0
   34.3860   30.3720   39.5940 H   0  0  0  0  0  0  0  0  0  0  0  0
   35.4120   28.3970   39.5600 C   0  0  0  0  0  3  0  0  0  0  0  0
   36.3070   27.8460   40.4510 C   0  0  0  0  0  0  0  0  0  0  0  0
   36.9880   26.6510   40.5170 C   0  0  0  0  0  3  0  0  0  0  0  0
   40.7650   30.1670   39.6360 O   0  0  0  0  0  0  0  0  0  0  0  0
   39.4590   30.5510   39.2620 C   0  0  0  0  0  0  0  0  0  0  0  0
   38.7730   29.6750   38.7030 O   0  0  0  0  0  0  0  0  0  0  0  0
   39.0900   31.8940   39.5690 C   0  0  0  0  0  0  0  0  0  0  0  0
   37.7850   32.2070   39.2970 C   0  0  0  0  0  0  0  0  0  0  0  0
   37.3510   33.5040   39.5730 C   0  0  0  0  0  0  0  0  0  0  0  0
   38.2410   34.3820   40.0920 N   0  0  0  0  0  0  0  0  0  0  0  0
   39.5040   34.0400   40.3430 C   0  0  0  0  0  0  0  0  0  0  0  0
   39.9090   32.7940   40.0760 N   0  0  0  0  0  0  0  0  0  0  0  0
   37.0570   31.5200   38.8830 H   0  0  0  0  0  0  0  0  0  0  0  0
   36.3080   33.7870   39.3660 H   0  0  0  0  0  0  0  0  0  0  0  0
   40.1360   34.8170   40.7590 H   0  0  0  0  0  0  0  0  0  0  0  0
  1  5  1  0  0  0  0
  2  1  2  0  0  0  0
  2  3  1  0  0  0  0
  3  7  1  0  0  0  0
  3  4  2  0  0  0  0
  4  8  1  0  0  0  0
  5  4  1  0  0  0  0
  6  2  1  0  0  0  0
  8 10  1  0  0  0  0
  8  9  1  0  0  0  0
  8 11  1  1  0  0  0
  9 12  1  0  0  0  0
 10  9  1  0  0  0  0
 10 14  1  1  0  0  0
 13  9  1  0  0  0  0
 15 16  1  0  0  0  0
 16 10  1  0  0  0  0
 17 16  2  0  0  0  0
 17 18  1  0  0  0  0
 19 17  1  0  0  0  0
 20 19  1  0  0  0  0
 20 21  1  0  0  0  0
 22 20  1  0  0  0  0
 23 22  1  0  0  0  0
 24 22  2  0  0  0  0
 24 25  1  0  0  0  0
 25 26  1  0  0  0  0
 25 19  2  0  0  0  0
 26 15  2  0  0  0  0
 27  1  1  0  0  0  0
 28 30  1  0  0  0  0
 28 27  1  0  0  0  0
 29 28  2  0  0  0  0
 30 35  1  0  0  0  0
 31 30  2  0  0  0  0
 31 32  1  0  0  0  0
 32 33  2  0  0  0  0
 33 34  1  0  0  0  0
 34 38  1  0  0  0  0
 35 34  2  0  0  0  0
 36 31  1  0  0  0  0
 37 32  1  0  0  0  0
M  END
>  <minimizedAffinity>
-5.9139204

$$$$

 OpenBabel03242518373D

 38 42  0  0  1  0  0  0  0  0999 V2000
   38.2430   29.1490   42.6700 C   0  0  0  0  0  0  0  0  0  0  0  0
   37.2540   28.5720   43.4630 C   0  0  0  0  0  0  0  0  0  0  0  0
   37.7640   27.4240   44.0550 C   0  0  0  0  0  0  0  0  0  0  0  0
   39.0500   27.3600   43.5850 C   0  0  0  0  0  0  0  0  0  0  0  0
   39.3060   28.3640   42.7880 O   0  0  0  0  0  0  0  0  0  0  0  0
   36.2660   29.0140   43.5500 H   0  0  0  0  0  0  0  0  0  0  0  0
   37.2040   26.7820   44.7220 H   0  0  0  0  0  0  0  0  0  0  0  0
   40.0210   26.3140   43.9260 C   0  0  2  0  0  0  0  0  0  0  0  0
   41.0750   25.9340   42.9680 C   0  0  0  0  0  0  0  0  0  0  0  0
   39.9060   25.0460   43.0470 C   0  0  2  0  0  0  0  0  0  0  0  0
   40.2160   26.0920   45.0120 H   0  0  0  0  0  0  0  0  0  0  0  0
   42.0410   25.5220   43.3570 H   0  0  0  0  0  0  0  0  0  0  0  0
   41.2330   26.5550   42.0520 H   0  0  0  0  0  0  0  0  0  0  0  0
   39.9610   24.1040   43.6720 H   0  0  0  0  0  0  0  0  0  0  0  0
   37.6140   24.3940   42.1880 C   0  0  0  0  0  3  0  0  0  0  0  0
   38.8460   24.9970   42.0430 C   0  0  0  0  0  0  0  0  0  0  0  0
   39.0210   25.5800   40.7970 C   0  0  0  0  0  0  0  0  0  0  0  0
   39.9470   26.0840   40.5630 H   0  0  0  0  0  0  0  0  0  0  0  0
   38.0600   25.5530   39.8100 C   0  0  0  0  0  0  0  0  0  0  0  0
   38.0510   26.0560   38.5580 N   0  0  0  0  0  0  0  0  0  0  0  0
   38.8230   26.5810   38.1060 H   0  0  0  0  0  0  0  0  0  0  0  0
   36.8870   25.7800   37.9670 C   0  0  0  0  0  0  0  0  0  0  0  0
   36.6210   26.0780   36.9400 H   0  0  0  0  0  0  0  0  0  0  0  0
   36.1060   25.0730   38.8590 C   0  0  0  0  0  3  0  0  0  0  0  0
   36.8450   24.9340   40.0140 C   0  0  0  0  0  0  0  0  0  0  0  0
   36.6190   24.3390   41.2360 C   0  0  0  0  0  3  0  0  0  0  0  0
   38.2350   30.3050   41.8740 O   0  0  0  0  0  0  0  0  0  0  0  0
   37.2620   30.4510   40.8610 C   0  0  0  0  0  0  0  0  0  0  0  0
   36.1840   30.9670   41.2120 O   0  0  0  0  0  0  0  0  0  0  0  0
   37.6340   29.9880   39.5650 C   0  0  0  0  0  0  0  0  0  0  0  0
   36.5910   29.8150   38.6960 C   0  0  0  0  0  0  0  0  0  0  0  0
   36.8790   29.3640   37.4070 C   0  0  0  0  0  0  0  0  0  0  0  0
   38.1720   29.1210   37.0860 N   0  0  0  0  0  0  0  0  0  0  0  0
   39.1600   29.3010   37.9610 C   0  0  0  0  0  0  0  0  0  0  0  0
   38.8730   29.7340   39.1930 N   0  0  0  0  0  0  0  0  0  0  0  0
   35.5510   30.0040   38.9310 H   0  0  0  0  0  0  0  0  0  0  0  0
   36.0640   29.2150   36.6840 H   0  0  0  0  0  0  0  0  0  0  0  0
   40.1610   29.0780   37.6050 H   0  0  0  0  0  0  0  0  0  0  0  0
  1  5  1  0  0  0  0
  1  2  2  0  0  0  0
  2  6  1  0  0  0  0
  2  3  1  0  0  0  0
  3  7  1  0  0  0  0
  4  8  1  0  0  0  0
  4  3  2  0  0  0  0
  5  4  1  0  0  0  0
  8 11  1  1  0  0  0
  9 10  1  0  0  0  0
  9 12  1  0  0  0  0
  9  8  1  0  0  0  0
 10 14  1  1  0  0  0
 10  8  1  0  0  0  0
 13  9  1  0  0  0  0
 16 15  1  0  0  0  0
 16 10  1  0  0  0  0
 17 16  2  0  0  0  0
 18 17  1  0  0  0  0
 19 25  2  0  0  0  0
 19 17  1  0  0  0  0
 20 19  1  0  0  0  0
 21 20  1  0  0  0  0
 22 20  1  0  0  0  0
 22 24  2  0  0  0  0
 23 22  1  0  0  0  0
 24 25  1  0  0  0  0
 25 26  1  0  0  0  0
 26 15  2  0  0  0  0
 27  1  1  0  0  0  0
 28 29  2  0  0  0  0
 28 27  1  0  0  0  0
 30 28  1  0  0  0  0
 31 36  1  0  0  0  0
 31 30  2  0  0  0  0
 32 31  1  0  0  0  0
 33 32  2  0  0  0  0
 33 34  1  0  0  0  0
 34 35  2  0  0  0  0
 35 30  1  0  0  0  0
 37 32  1  0  0  0  0
 38 34  1  0  0  0  0
M  END
>  <minimizedAffinity>
-5.88878489

$$$$

 OpenBabel03242518373D

 38 42  0  0  1  0  0  0  0  0999 V2000
   37.7820   28.7980   41.1500 C   0  0  0  0  0  0  0  0  0  0  0  0
   36.5630   29.3860   41.4770 C   0  0  0  0  0  0  0  0  0  0  0  0
   35.8990   29.7270   40.3050 C   0  0  0  0  0  0  0  0  0  0  0  0
   36.7590   29.3240   39.3160 C   0  0  0  0  0  0  0  0  0  0  0  0
   37.8380   28.7920   39.8250 O   0  0  0  0  0  0  0  0  0  0  0  0
   36.2550   29.5210   42.5100 H   0  0  0  0  0  0  0  0  0  0  0  0
   34.9270   30.2010   40.2720 H   0  0  0  0  0  0  0  0  0  0  0  0
   36.5110   29.4630   37.8760 C   0  0  2  0  0  0  0  0  0  0  0  0
   37.6340   29.4420   36.9210 C   0  0  0  0  0  0  0  0  0  0  0  0
   37.0880   30.7630   37.2670 C   0  0  2  0  0  0  0  0  0  0  0  0
   35.4950   29.1900   37.4750 H   0  0  0  0  0  0  0  0  0  0  0  0
   37.4510   29.0850   35.8750 H   0  0  0  0  0  0  0  0  0  0  0  0
   38.6530   29.1560   37.2800 H   0  0  0  0  0  0  0  0  0  0  0  0
   36.3440   31.2590   36.5730 H   0  0  0  0  0  0  0  0  0  0  0  0
   37.1230   32.6680   38.9350 C   0  0  0  0  0  3  0  0  0  0  0  0
   37.7460   31.7110   38.1620 C   0  0  0  0  0  0  0  0  0  0  0  0
   39.1260   31.7210   38.2950 C   0  0  0  0  0  0  0  0  0  0  0  0
   39.7270   31.0160   37.7390 H   0  0  0  0  0  0  0  0  0  0  0  0
   39.7980   32.6010   39.1160 C   0  0  0  0  0  0  0  0  0  0  0  0
   41.1140   32.7580   39.3710 N   0  0  0  0  0  0  0  0  0  0  0  0
   41.8860   32.2000   38.9580 H   0  0  0  0  0  0  0  0  0  0  0  0
   41.2910   33.7500   40.2450 C   0  0  0  0  0  0  0  0  0  0  0  0
   42.2720   34.0830   40.6210 H   0  0  0  0  0  0  0  0  0  0  0  0
   40.0530   34.2610   40.5750 C   0  0  0  0  0  3  0  0  0  0  0  0
   39.1190   33.5370   39.8660 C   0  0  0  0  0  0  0  0  0  0  0  0
   37.7450   33.5700   39.7710 C   0  0  0  0  0  3  0  0  0  0  0  0
   38.8090   28.2850   41.9580 O   0  0  0  0  0  0  0  0  0  0  0  0
   38.5650   27.1530   42.7650 C   0  0  0  0  0  0  0  0  0  0  0  0
   38.5450   27.3540   43.9940 O   0  0  0  0  0  0  0  0  0  0  0  0
   38.3760   25.9200   42.0740 C   0  0  0  0  0  0  0  0  0  0  0  0
   37.1210   25.3870   42.1860 C   0  0  0  0  0  0  0  0  0  0  0  0
   36.8600   24.1810   41.5340 C   0  0  0  0  0  0  0  0  0  0  0  0
   37.8610   23.6030   40.8280 N   0  0  0  0  0  0  0  0  0  0  0  0
   39.0710   24.1540   40.7430 C   0  0  0  0  0  0  0  0  0  0  0  0
   39.3090   25.3110   41.3710 N   0  0  0  0  0  0  0  0  0  0  0  0
   36.3060   25.8310   42.7440 H   0  0  0  0  0  0  0  0  0  0  0  0
   35.8620   23.7250   41.6040 H   0  0  0  0  0  0  0  0  0  0  0  0
   39.8020   23.6120   40.1520 H   0  0  0  0  0  0  0  0  0  0  0  0
  1  2  2  0  0  0  0
  1 27  1  0  0  0  0
  2  6  1  0  0  0  0
  3  2  1  0  0  0  0
  4  5  1  0  0  0  0
  4  3  2  0  0  0  0
  5  1  1  0  0  0  0
  7  3  1  0  0  0  0
  8 11  1  6  0  0  0
  8  4  1  0  0  0  0
  9 10  1  0  0  0  0
  9 13  1  0  0  0  0
  9  8  1  0  0  0  0
 10 14  1  6  0  0  0
 10  8  1  0  0  0  0
 10 16  1  0  0  0  0
 12  9  1  0  0  0  0
 15 26  1  0  0  0  0
 16 17  1  0  0  0  0
 16 15  2  0  0  0  0
 17 19  2  0  0  0  0
 18 17  1  0  0  0  0
 19 20  1  0  0  0  0
 19 25  1  0  0  0  0
 20 22  1  0  0  0  0
 21 20  1  0  0  0  0
 22 24  2  0  0  0  0
 22 23  1  0  0  0  0
 25 24  1  0  0  0  0
 26 25  2  0  0  0  0
 27 28  1  0  0  0  0
 28 29  2  0  0  0  0
 30 31  1  0  0  0  0
 30 28  1  0  0  0  0
 31 36  1  0  0  0  0
 32 37  1  0  0  0  0
 32 31  2  0  0  0  0
 33 32  1  0  0  0  0
 34 33  2  0  0  0  0
 34 35  1  0  0  0  0
 35 30  2  0  0  0  0
 38 34  1  0  0  0  0
M  END
>  <minimizedAffinity>
-5.88274336

$$$$
