REMARK  Name = 
REMARK  5 active torsions:
REMARK  status: ('A' for Active; 'I' for Inactive)
REMARK    1  A    between atoms: C_1  and  C_10
REMARK    2  A    between atoms: C_3  and  N_4
REMARK    3  A    between atoms: C_10  and  C_11
REMARK    4  A    between atoms: C_11  and  C_14
REMARK    5  A    between atoms: C_16  and  C_38
REMARK                            x       y       z     vdW  Elec       q    Type
REMARK                         _______ _______ _______ _____ _____    ______ ____
ROOT
ATOM      1  C   UNL     1      47.668  35.393  41.901  0.00  0.00    +0.000 C 
ATOM      2  H   UNL     1      47.812  35.977  42.833  0.00  0.00    +0.000 HD
ATOM      3  H   UNL     1      47.310  36.137  41.151  0.00  0.00    +0.000 HD
ENDROOT
BRANCH   1   4
ATOM      4  C   UNL     1      48.969  34.766  41.522  0.00  0.00    +0.000 C 
ATOM      5  C   UNL     1      50.077  34.801  42.530  0.00  0.00    +0.000 C 
ATOM      6  C   UNL     1      49.357  33.542  42.212  0.00  0.00    +0.000 C 
ATOM      7  H   UNL     1      49.278  34.981  40.504  0.00  0.00    +0.000 HD
ATOM      8  H   UNL     1      51.118  34.983  42.203  0.00  0.00    +0.000 HD
ATOM      9  H   UNL     1      49.860  35.327  43.492  0.00  0.00    +0.000 HD
ATOM     10  H   UNL     1      48.835  33.091  43.047  0.00  0.00    +0.000 HD
BRANCH   6  11
ATOM     11  N   UNL     1      50.135  32.633  41.373  0.00  0.00    +0.000 NA
ATOM     12  C   UNL     1      49.468  32.189  40.204  0.00  0.00    +0.000 C 
ATOM     13  C   UNL     1      50.440  31.257  39.502  0.00  0.00    +0.000 C 
ATOM     14  N   UNL     1      50.732  30.111  40.288  0.00  0.00    +0.000 NA
ATOM     15  C   UNL     1      50.636  30.329  41.719  0.00  0.00    +0.000 C 
ATOM     16  C   UNL     1      51.012  31.775  42.047  0.00  0.00    +0.000 C 
ATOM     17  H   UNL     1      49.300  33.048  39.512  0.00  0.00    +0.000 HD
ATOM     18  H   UNL     1      48.520  31.697  40.461  0.00  0.00    +0.000 HD
ATOM     19  H   UNL     1      49.978  30.957  38.531  0.00  0.00    +0.000 HD
ATOM     20  H   UNL     1      51.309  31.886  39.228  0.00  0.00    +0.000 HD
ATOM     21  H   UNL     1      51.614  29.653  40.002  0.00  0.00    +0.000 HD
ATOM     22  H   UNL     1      49.603  30.197  42.073  0.00  0.00    +0.000 HD
ATOM     23  H   UNL     1      51.309  29.613  42.195  0.00  0.00    +0.000 HD
ATOM     24  H   UNL     1      51.005  31.926  43.127  0.00  0.00    +0.000 HD
ATOM     25  H   UNL     1      52.078  31.900  41.711  0.00  0.00    +0.000 HD
ENDBRANCH   6  11
ENDBRANCH   1   4
BRANCH   1  26
ATOM     26  C   UNL     1      46.699  34.271  42.148  0.00  0.00    +0.000 C 
ATOM     27  H   UNL     1      45.898  34.386  41.362  0.00  0.00    +0.000 HD
ATOM     28  H   UNL     1      47.071  33.265  42.039  0.00  0.00    +0.000 HD
BRANCH  26  31
ATOM     29  C   UNL     1      44.491  35.887  44.712  0.00  0.00    +0.000 A 
ATOM     30  C   UNL     1      45.163  35.636  43.495  0.00  0.00    +0.000 A 
ATOM     31  C   UNL     1      45.976  34.547  43.431  0.00  0.00    +0.000 A 
ATOM     32  N   UNL     1      46.114  33.746  44.527  0.00  0.00    +0.000 NA
ATOM     33  C   UNL     1      45.485  33.989  45.654  0.00  0.00    +0.000 A 
ATOM     34  N   UNL     1      44.669  35.056  45.763  0.00  0.00    +0.000 NA
ATOM     35  H   UNL     1      43.836  36.735  44.815  0.00  0.00    +0.000 HD
ATOM     36  H   UNL     1      44.977  36.338  42.694  0.00  0.00    +0.000 HD
BRANCH  33  38
ATOM     37  C   UNL     1      46.903  32.930  47.375  0.00  0.00    +0.000 A 
ATOM     38  C   UNL     1      45.651  33.109  46.822  0.00  0.00    +0.000 A 
ATOM     39  C   UNL     1      44.558  32.454  47.373  0.00  0.00    +0.000 A 
ATOM     40  H   UNL     1      43.599  32.599  46.940  0.00  0.00    +0.000 HD
ATOM     41  C   UNL     1      44.815  31.646  48.474  0.00  0.00    +0.000 A 
ATOM     42  N   UNL     1      43.877  30.940  49.131  0.00  0.00    +0.000 N 
ATOM     43  H   UNL     1      42.831  30.859  48.962  0.00  0.00    +0.000 HD
ATOM     44  C   UNL     1      44.473  30.283  50.126  0.00  0.00    +0.000 A 
ATOM     45  H   UNL     1      44.026  29.620  50.857  0.00  0.00    +0.000 HD
ATOM     46  C   UNL     1      45.837  30.573  50.111  0.00  0.00    +0.000 A 
ATOM     47  C   UNL     1      46.047  31.447  49.048  0.00  0.00    +0.000 A 
ATOM     48  C   UNL     1      47.128  32.108  48.485  0.00  0.00    +0.000 A 
ENDBRANCH  33  38
ENDBRANCH  26  31
ENDBRANCH   1  26
TORSDOF 5
