
 OpenBabel03242518343D

 38 42  0  0  1  0  0  0  0  0999 V2000
   47.4480   33.7290   39.6630 C   0  0  0  0  0  0  0  0  0  0  0  0
   48.2940   34.3550   38.7500 C   0  0  0  0  0  0  0  0  0  0  0  0
   47.7620   34.2130   37.4740 C   0  0  0  0  0  0  0  0  0  0  0  0
   46.6090   33.5010   37.6810 C   0  0  0  0  0  0  0  0  0  0  0  0
   46.4470   33.2320   38.9490 O   0  0  0  0  0  0  0  0  0  0  0  0
   49.2060   34.8510   39.0670 H   0  0  0  0  0  0  0  0  0  0  0  0
   48.2190   34.6060   36.5770 H   0  0  0  0  0  0  0  0  0  0  0  0
   45.6710   33.0920   36.6280 C   0  0  2  0  0  0  0  0  0  0  0  0
   44.9320   31.8210   36.7410 C   0  0  0  0  0  0  0  0  0  0  0  0
   46.1100   31.8220   35.8610 C   0  0  2  0  0  0  0  0  0  0  0  0
   45.2230   33.8850   35.9670 H   0  0  0  0  0  0  0  0  0  0  0  0
   43.9350   31.7260   36.2390 H   0  0  0  0  0  0  0  0  0  0  0  0
   44.9630   31.2530   37.7030 H   0  0  0  0  0  0  0  0  0  0  0  0
   45.9730   31.9460   34.7450 H   0  0  0  0  0  0  0  0  0  0  0  0
   47.6280   30.3650   37.2710 C   0  0  0  0  0  0  0  0  0  0  0  0
   47.3920   31.2140   36.2110 C   0  0  0  0  0  0  0  0  0  0  0  0
   48.5280   31.4740   35.4600 C   0  0  0  0  0  0  0  0  0  0  0  0
   48.4700   32.1260   34.6010 H   0  0  0  0  0  0  0  0  0  0  0  0
   49.7630   30.9370   35.7520 C   0  0  0  0  0  0  0  0  0  0  0  0
   50.9620   31.0730   35.1470 N   0  0  0  0  0  0  0  0  0  0  0  0
   51.1580   31.6460   34.3040 H   0  0  0  0  0  0  0  0  0  0  0  0
   51.8800   30.3540   35.7940 C   0  0  0  0  0  0  0  0  0  0  0  0
   52.9420   30.2920   35.5060 H   0  0  0  0  0  0  0  0  0  0  0  0
   51.2660   29.7250   36.8580 C   0  0  0  0  0  0  0  0  0  0  0  0
   49.9380   30.0930   36.8270 C   0  0  0  0  0  0  0  0  0  0  0  0
   48.8400   29.8010   37.6070 C   0  0  0  0  0  0  0  0  0  0  0  0
   47.5320   33.5910   41.0570 O   0  0  0  0  0  0  0  0  0  0  0  0
   47.5510   34.7410   41.8760 C   0  0  0  0  0  0  0  0  0  0  0  0
   48.3660   35.6250   41.5530 O   0  0  0  0  0  0  0  0  0  0  0  0
   46.6380   34.7440   42.9700 C   0  0  0  0  0  0  0  0  0  0  0  0
   45.6770   35.7170   42.9130 C   0  0  0  0  0  0  0  0  0  0  0  0
   44.7460   35.7820   43.9500 C   0  0  0  0  0  0  0  0  0  0  0  0
   44.8440   34.8820   44.9570 N   0  0  0  0  0  0  0  0  0  0  0  0
   45.7940   33.9490   44.9780 C   0  0  0  0  0  0  0  0  0  0  0  0
   46.6810   33.8960   43.9780 N   0  0  0  0  0  0  0  0  0  0  0  0
   45.5810   36.4470   42.1180 H   0  0  0  0  0  0  0  0  0  0  0  0
   43.9610   36.5520   43.9340 H   0  0  0  0  0  0  0  0  0  0  0  0
   45.7850   33.2760   45.8290 H   0  0  0  0  0  0  0  0  0  0  0  0
  1 27  1  0  0  0  0
  2  6  1  0  0  0  0
  2  1  2  0  0  0  0
  3  4  2  0  0  0  0
  3  2  1  0  0  0  0
  4  5  1  0  0  0  0
  5  1  1  0  0  0  0
  7  3  1  0  0  0  0
  8 11  1  6  0  0  0
  8  9  1  0  0  0  0
  8  4  1  0  0  0  0
  9 13  1  0  0  0  0
 10 14  1  6  0  0  0
 10 16  1  0  0  0  0
 10  8  1  0  0  0  0
 10  9  1  0  0  0  0
 12  9  1  0  0  0  0
 15 26  1  0  0  0  0
 16 15  2  0  0  0  0
 17 19  2  0  0  0  0
 17 16  1  0  0  0  0
 18 17  1  0  0  0  0
 19 25  1  0  0  0  0
 20 19  1  0  0  0  0
 20 22  1  0  0  0  0
 21 20  1  0  0  0  0
 22 24  2  0  0  0  0
 23 22  1  0  0  0  0
 25 24  1  0  0  0  0
 25 26  2  0  0  0  0
 27 28  1  0  0  0  0
 28 30  1  0  0  0  0
 29 28  2  0  0  0  0
 30 35  1  0  0  0  0
 31 30  2  0  0  0  0
 31 32  1  0  0  0  0
 32 33  2  0  0  0  0
 33 34  1  0  0  0  0
 34 38  1  0  0  0  0
 35 34  2  0  0  0  0
 36 31  1  0  0  0  0
 37 32  1  0  0  0  0
M  END
>  <minimizedAffinity>
-5.07819939

>  <minimizedRMSD>
1.50548744

$$$$
