
 OpenBabel03242512233D

 44 48  0  0  0  0  0  0  0  0999 V2000
   36.6610   28.1140   41.6840 C   0  0  0  0  0  0  0  0  0  0  0  0
   36.0610   28.1570   40.4520 C   0  0  0  0  0  0  0  0  0  0  0  0
   36.2000   27.0970   39.6060 C   0  0  0  0  0  0  0  0  0  0  0  0
   36.9420   25.9870   39.9960 C   0  0  0  0  0  0  0  0  0  0  0  0
   37.5360   25.9750   41.2440 C   0  0  0  0  0  0  0  0  0  0  0  0
   37.3970   27.0580   42.1150 C   0  0  0  0  0  0  0  0  0  0  0  0
   35.7390   27.1020   38.6300 H   0  0  0  0  0  0  0  0  0  0  0  0
   37.0850   25.1200   39.3650 H   0  0  0  0  0  0  0  0  0  0  0  0
   38.1120   25.1030   41.5350 H   0  0  0  0  0  0  0  0  0  0  0  0
   35.2950   29.3660   40.1190 C   0  0  0  0  0  0  0  0  0  0  0  0
   34.6100   29.6740   40.8950 H   0  0  0  0  0  0  0  0  0  0  0  0
   34.6550   29.0870   39.2340 H   0  0  0  0  0  0  0  0  0  0  0  0
   36.2200   30.4740   39.6670 C   0  0  0  0  0  0  0  0  0  0  0  0
   36.6780   30.4320   38.3520 C   0  0  0  0  0  0  0  0  0  0  0  0
   37.5260   31.4550   37.9520 C   0  0  0  0  0  0  0  0  0  0  0  0
   37.8490   32.4130   38.8420 N   0  0  0  0  0  0  0  0  0  0  0  0
   37.3830   32.4220   40.1170 C   0  0  0  0  0  0  0  0  0  0  0  0
   36.5740   31.4480   40.5050 N   0  0  0  0  0  0  0  0  0  0  0  0
   36.3830   29.6320   37.6730 H   0  0  0  0  0  0  0  0  0  0  0  0
   37.9220   31.4880   36.9450 H   0  0  0  0  0  0  0  0  0  0  0  0
   37.6450   33.1940   40.8360 H   0  0  0  0  0  0  0  0  0  0  0  0
   36.5770   29.1540   42.6240 O   0  0  0  0  0  0  0  0  0  0  0  0
   35.8340   29.0970   43.3280 H   0  0  0  0  0  0  0  0  0  0  0  0
   38.0410   26.9310   43.3510 O   0  0  0  0  0  0  0  0  0  0  0  0
   39.3450   27.4110   43.3720 C   0  0  0  0  0  0  0  0  0  0  0  0
   40.3240   26.6450   43.9570 C   0  0  0  0  0  0  0  0  0  0  0  0
   41.6590   27.0480   44.0230 C   0  0  0  0  0  0  0  0  0  0  0  0
   42.0010   28.2370   43.4920 N   0  0  0  0  0  0  0  0  0  0  0  0
   41.0470   28.9860   42.9210 C   0  0  0  0  0  0  0  0  0  0  0  0
   39.7630   28.5800   42.8660 N   0  0  0  0  0  0  0  0  0  0  0  0
   40.0750   25.6900   44.3890 H   0  0  0  0  0  0  0  0  0  0  0  0
   42.3980   26.3900   44.5050 H   0  0  0  0  0  0  0  0  0  0  0  0
   40.8930   30.6760   41.1250 C   0  0  0  0  0  3  0  0  0  0  0  0
   41.4020   30.2790   42.3390 C   0  0  0  0  0  0  0  0  0  0  0  0
   42.2430   31.1570   42.9530 C   0  0  0  0  0  0  0  0  0  0  0  0
   42.6860   30.9290   43.9020 H   0  0  0  0  0  0  0  0  0  0  0  0
   42.5590   32.3850   42.3650 C   0  0  0  0  0  0  0  0  0  0  0  0
   43.3370   33.4060   42.7420 N   0  0  0  0  0  0  0  0  0  0  0  0
   43.9050   33.4870   43.6230 H   0  0  0  0  0  0  0  0  0  0  0  0
   43.3090   34.3920   41.7990 C   0  0  0  0  0  0  0  0  0  0  0  0
   43.7960   35.3500   41.7420 H   0  0  0  0  0  0  0  0  0  0  0  0
   42.4660   33.9680   40.7680 C   0  0  0  0  0  3  0  0  0  0  0  0
   42.0070   32.7070   41.1440 C   0  0  0  0  0  0  0  0  0  0  0  0
   41.1480   31.8640   40.4690 C   0  0  0  0  0  3  0  0  0  0  0  0
  1  6  1  0  0  0  0
  1 22  1  0  0  0  0
  2  1  2  0  0  0  0
  3  4  2  0  0  0  0
  3  2  1  0  0  0  0
  4  5  1  0  0  0  0
  5  9  1  0  0  0  0
  5  6  2  0  0  0  0
  6 24  1  0  0  0  0
  7  3  1  0  0  0  0
  8  4  1  0  0  0  0
 10  2  1  0  0  0  0
 10 11  1  0  0  0  0
 12 10  1  0  0  0  0
 13 10  1  0  0  0  0
 13 18  1  0  0  0  0
 14 13  2  0  0  0  0
 15 14  1  0  0  0  0
 15 16  2  0  0  0  0
 16 17  1  0  0  0  0
 17 18  2  0  0  0  0
 17 21  1  0  0  0  0
 19 14  1  0  0  0  0
 20 15  1  0  0  0  0
 22 23  1  0  0  0  0
 24 25  1  0  0  0  0
 25 26  1  0  0  0  0
 26 27  2  0  0  0  0
 26 31  1  0  0  0  0
 27 32  1  0  0  0  0
 28 27  1  0  0  0  0
 29 28  2  0  0  0  0
 30 29  1  0  0  0  0
 30 25  2  0  0  0  0
 33 34  1  0  0  0  0
 34 29  1  0  0  0  0
 34 35  2  0  0  0  0
 35 36  1  0  0  0  0
 37 38  1  0  0  0  0
 37 35  1  0  0  0  0
 38 39  1  0  0  0  0
 40 38  1  0  0  0  0
 41 40  1  0  0  0  0
 42 43  1  0  0  0  0
 42 40  2  0  0  0  0
 43 37  2  0  0  0  0
 44 33  2  0  0  0  0
 44 43  1  0  0  0  0
M  END
>  <minimizedAffinity>
-7.08550739

$$$$

 OpenBabel03242512233D

 44 48  0  0  0  0  0  0  0  0999 V2000
   38.4750   28.9600   42.9530 C   0  0  0  0  0  0  0  0  0  0  0  0
   38.6060   27.6040   43.1100 C   0  0  0  0  0  0  0  0  0  0  0  0
   39.8520   27.0500   43.1040 C   0  0  0  0  0  0  0  0  0  0  0  0
   40.9730   27.8590   42.9410 C   0  0  0  0  0  0  0  0  0  0  0  0
   40.8060   29.2220   42.7840 C   0  0  0  0  0  0  0  0  0  0  0  0
   39.5330   29.7940   42.7900 C   0  0  0  0  0  0  0  0  0  0  0  0
   39.9870   25.9870   43.2250 H   0  0  0  0  0  0  0  0  0  0  0  0
   41.9830   27.4720   42.9280 H   0  0  0  0  0  0  0  0  0  0  0  0
   41.6890   29.8400   42.6580 H   0  0  0  0  0  0  0  0  0  0  0  0
   37.3720   26.8230   43.2760 C   0  0  0  0  0  0  0  0  0  0  0  0
   36.5440   27.3970   43.6610 H   0  0  0  0  0  0  0  0  0  0  0  0
   37.6050   26.0490   44.0610 H   0  0  0  0  0  0  0  0  0  0  0  0
   37.0400   26.0780   42.0020 C   0  0  0  0  0  0  0  0  0  0  0  0
   36.9160   24.6920   42.0810 C   0  0  0  0  0  0  0  0  0  0  0  0
   36.6100   24.0240   40.9050 C   0  0  0  0  0  0  0  0  0  0  0  0
   36.4530   24.7390   39.7750 N   0  0  0  0  0  0  0  0  0  0  0  0
   36.5810   26.0900   39.7350 C   0  0  0  0  0  0  0  0  0  0  0  0
   36.8720   26.7350   40.8540 N   0  0  0  0  0  0  0  0  0  0  0  0
   37.0540   24.1640   43.0240 H   0  0  0  0  0  0  0  0  0  0  0  0
   36.4990   22.9470   40.8910 H   0  0  0  0  0  0  0  0  0  0  0  0
   36.4540   26.6680   38.8230 H   0  0  0  0  0  0  0  0  0  0  0  0
   37.2370   29.6220   42.9450 O   0  0  0  0  0  0  0  0  0  0  0  0
   36.8990   30.0050   43.8340 H   0  0  0  0  0  0  0  0  0  0  0  0
   39.4890   31.1830   42.6240 O   0  0  0  0  0  0  0  0  0  0  0  0
   39.2520   31.6000   41.3200 C   0  0  0  0  0  0  0  0  0  0  0  0
   39.8640   32.7440   40.8670 C   0  0  0  0  0  0  0  0  0  0  0  0
   39.6840   33.2350   39.5730 C   0  0  0  0  0  0  0  0  0  0  0  0
   38.8740   32.5610   38.7350 N   0  0  0  0  0  0  0  0  0  0  0  0
   38.2750   31.4460   39.1750 C   0  0  0  0  0  0  0  0  0  0  0  0
   38.4630   30.9850   40.4270 N   0  0  0  0  0  0  0  0  0  0  0  0
   40.5170   33.3000   41.5200 H   0  0  0  0  0  0  0  0  0  0  0  0
   40.2020   34.1570   39.2690 H   0  0  0  0  0  0  0  0  0  0  0  0
   36.2770   30.0550   38.7500 C   0  0  0  0  0  3  0  0  0  0  0  0
   37.3940   30.7020   38.2770 C   0  0  0  0  0  0  0  0  0  0  0  0
   37.6190   30.6060   36.9370 C   0  0  0  0  0  0  0  0  0  0  0  0
   38.4670   31.0790   36.4820 H   0  0  0  0  0  0  0  0  0  0  0  0
   36.7540   29.8850   36.1090 C   0  0  0  0  0  0  0  0  0  0  0  0
   36.7410   29.6370   34.7940 N   0  0  0  0  0  0  0  0  0  0  0  0
   37.4350   29.9610   34.0750 H   0  0  0  0  0  0  0  0  0  0  0  0
   35.6610   28.8680   34.4710 C   0  0  0  0  0  0  0  0  0  0  0  0
   35.3140   28.4680   33.5350 H   0  0  0  0  0  0  0  0  0  0  0  0
   34.9520   28.6170   35.6500 C   0  0  0  0  0  3  0  0  0  0  0  0
   35.6560   29.2640   36.6640 C   0  0  0  0  0  0  0  0  0  0  0  0
   35.3690   29.3220   38.0130 C   0  0  0  0  0  3  0  0  0  0  0  0
  1  2  1  0  0  0  0
  2 10  1  0  0  0  0
  3  2  2  0  0  0  0
  3  7  1  0  0  0  0
  4  3  1  0  0  0  0
  5  6  1  0  0  0  0
  5  4  2  0  0  0  0
  6  1  2  0  0  0  0
  8  4  1  0  0  0  0
  9  5  1  0  0  0  0
 10 11  1  0  0  0  0
 10 12  1  0  0  0  0
 13 14  1  0  0  0  0
 13 10  1  0  0  0  0
 14 19  1  0  0  0  0
 15 14  2  0  0  0  0
 16 15  1  0  0  0  0
 17 16  2  0  0  0  0
 17 18  1  0  0  0  0
 18 13  2  0  0  0  0
 20 15  1  0  0  0  0
 21 17  1  0  0  0  0
 22  1  1  0  0  0  0
 22 23  1  0  0  0  0
 24  6  1  0  0  0  0
 25 24  1  0  0  0  0
 26 25  1  0  0  0  0
 26 31  1  0  0  0  0
 27 26  2  0  0  0  0
 28 29  2  0  0  0  0
 28 27  1  0  0  0  0
 29 30  1  0  0  0  0
 30 25  2  0  0  0  0
 32 27  1  0  0  0  0
 34 33  1  0  0  0  0
 34 29  1  0  0  0  0
 35 34  2  0  0  0  0
 36 35  1  0  0  0  0
 37 43  2  0  0  0  0
 37 35  1  0  0  0  0
 38 37  1  0  0  0  0
 39 38  1  0  0  0  0
 40 38  1  0  0  0  0
 40 42  2  0  0  0  0
 41 40  1  0  0  0  0
 42 43  1  0  0  0  0
 43 44  1  0  0  0  0
 44 33  2  0  0  0  0
M  END
>  <minimizedAffinity>
-7.00878286

$$$$

 OpenBabel03242512233D

 44 48  0  0  0  0  0  0  0  0999 V2000
   36.7290   28.9510   41.6060 C   0  0  0  0  0  0  0  0  0  0  0  0
   36.7720   27.5830   41.5320 C   0  0  0  0  0  0  0  0  0  0  0  0
   36.5640   26.9730   40.3300 C   0  0  0  0  0  0  0  0  0  0  0  0
   36.3130   27.7380   39.1960 C   0  0  0  0  0  0  0  0  0  0  0  0
   36.2760   29.1160   39.3040 C   0  0  0  0  0  0  0  0  0  0  0  0
   36.4880   29.7450   40.5320 C   0  0  0  0  0  0  0  0  0  0  0  0
   36.5910   25.8980   40.2410 H   0  0  0  0  0  0  0  0  0  0  0  0
   36.1410   27.3070   38.2180 H   0  0  0  0  0  0  0  0  0  0  0  0
   36.0790   29.6990   38.4110 H   0  0  0  0  0  0  0  0  0  0  0  0
   37.0430   26.8500   42.7760 C   0  0  0  0  0  0  0  0  0  0  0  0
   36.4570   25.9500   42.8880 H   0  0  0  0  0  0  0  0  0  0  0  0
   36.7190   27.5360   43.6100 H   0  0  0  0  0  0  0  0  0  0  0  0
   38.5280   26.6170   42.9440 C   0  0  0  0  0  0  0  0  0  0  0  0
   39.0120   25.3380   42.6770 C   0  0  0  0  0  0  0  0  0  0  0  0
   40.3760   25.1410   42.8340 C   0  0  0  0  0  0  0  0  0  0  0  0
   41.1400   26.1780   43.2270 N   0  0  0  0  0  0  0  0  0  0  0  0
   40.6330   27.4120   43.4790 C   0  0  0  0  0  0  0  0  0  0  0  0
   39.3320   27.6070   43.3310 N   0  0  0  0  0  0  0  0  0  0  0  0
   38.3480   24.5350   42.3600 H   0  0  0  0  0  0  0  0  0  0  0  0
   40.8240   24.1730   42.6450 H   0  0  0  0  0  0  0  0  0  0  0  0
   41.2490   28.2500   43.7970 H   0  0  0  0  0  0  0  0  0  0  0  0
   36.9300   29.6690   42.7950 O   0  0  0  0  0  0  0  0  0  0  0  0
   37.8800   29.9980   42.9950 H   0  0  0  0  0  0  0  0  0  0  0  0
   36.4270   31.1430   40.5170 O   0  0  0  0  0  0  0  0  0  0  0  0
   37.5900   31.7650   40.0790 C   0  0  0  0  0  0  0  0  0  0  0  0
   37.8240   33.0680   40.4460 C   0  0  0  0  0  0  0  0  0  0  0  0
   38.9640   33.7710   40.0520 C   0  0  0  0  0  0  0  0  0  0  0  0
   39.8720   33.1450   39.2790 N   0  0  0  0  0  0  0  0  0  0  0  0
   39.6450   31.8740   38.9190 C   0  0  0  0  0  0  0  0  0  0  0  0
   38.5390   31.2110   39.3100 N   0  0  0  0  0  0  0  0  0  0  0  0
   37.1120   33.5900   41.0640 H   0  0  0  0  0  0  0  0  0  0  0  0
   39.0960   34.8130   40.3780 H   0  0  0  0  0  0  0  0  0  0  0  0
   40.4570   29.8570   37.7440 C   0  0  0  0  0  3  0  0  0  0  0  0
   40.6210   31.1800   38.0810 C   0  0  0  0  0  0  0  0  0  0  0  0
   41.7340   31.7900   37.5890 C   0  0  0  0  0  0  0  0  0  0  0  0
   41.9420   32.8200   37.8010 H   0  0  0  0  0  0  0  0  0  0  0  0
   42.6460   31.0940   36.7900 C   0  0  0  0  0  0  0  0  0  0  0  0
   43.7910   31.4420   36.1920 N   0  0  0  0  0  0  0  0  0  0  0  0
   44.2620   32.3810   36.2080 H   0  0  0  0  0  0  0  0  0  0  0  0
   44.3110   30.3780   35.5130 C   0  0  0  0  0  0  0  0  0  0  0  0
   45.2020   30.2650   34.9220 H   0  0  0  0  0  0  0  0  0  0  0  0
   43.4440   29.2960   35.6960 C   0  0  0  0  0  3  0  0  0  0  0  0
   42.4080   29.7670   36.4990 C   0  0  0  0  0  0  0  0  0  0  0  0
   41.3000   29.0900   36.9660 C   0  0  0  0  0  3  0  0  0  0  0  0
  1 22  1  0  0  0  0
  2  1  1  0  0  0  0
  2 10  1  0  0  0  0
  3  2  2  0  0  0  0
  4  5  2  0  0  0  0
  4  3  1  0  0  0  0
  5  6  1  0  0  0  0
  6  1  2  0  0  0  0
  7  3  1  0  0  0  0
  8  4  1  0  0  0  0
  9  5  1  0  0  0  0
 10 11  1  0  0  0  0
 10 13  1  0  0  0  0
 10 12  1  0  0  0  0
 13 18  1  0  0  0  0
 14 15  1  0  0  0  0
 14 13  2  0  0  0  0
 15 16  2  0  0  0  0
 16 17  1  0  0  0  0
 17 21  1  0  0  0  0
 18 17  2  0  0  0  0
 19 14  1  0  0  0  0
 20 15  1  0  0  0  0
 22 23  1  0  0  0  0
 24  6  1  0  0  0  0
 25 26  1  0  0  0  0
 25 24  1  0  0  0  0
 26 31  1  0  0  0  0
 27 32  1  0  0  0  0
 27 26  2  0  0  0  0
 28 27  1  0  0  0  0
 29 28  2  0  0  0  0
 29 30  1  0  0  0  0
 30 25  2  0  0  0  0
 33 34  1  0  0  0  0
 34 29  1  0  0  0  0
 35 36  1  0  0  0  0
 35 34  2  0  0  0  0
 37 35  1  0  0  0  0
 38 39  1  0  0  0  0
 38 37  1  0  0  0  0
 40 42  2  0  0  0  0
 40 38  1  0  0  0  0
 41 40  1  0  0  0  0
 42 43  1  0  0  0  0
 43 37  2  0  0  0  0
 43 44  1  0  0  0  0
 44 33  2  0  0  0  0
M  END
>  <minimizedAffinity>
-6.99497652

$$$$

 OpenBabel03242512233D

 44 48  0  0  0  0  0  0  0  0999 V2000
   37.0080   28.5700   41.8800 C   0  0  0  0  0  0  0  0  0  0  0  0
   37.3820   27.3210   42.3030 C   0  0  0  0  0  0  0  0  0  0  0  0
   37.1870   26.2520   41.4790 C   0  0  0  0  0  0  0  0  0  0  0  0
   36.6150   26.4360   40.2240 C   0  0  0  0  0  0  0  0  0  0  0  0
   36.2480   27.7080   39.8280 C   0  0  0  0  0  0  0  0  0  0  0  0
   36.4460   28.8060   40.6680 C   0  0  0  0  0  0  0  0  0  0  0  0
   37.4710   25.2570   41.7840 H   0  0  0  0  0  0  0  0  0  0  0  0
   36.4380   25.6240   39.5310 H   0  0  0  0  0  0  0  0  0  0  0  0
   35.8030   27.8360   38.8470 H   0  0  0  0  0  0  0  0  0  0  0  0
   37.9780   27.2150   43.6420 C   0  0  0  0  0  0  0  0  0  0  0  0
   37.5970   26.3890   44.2230 H   0  0  0  0  0  0  0  0  0  0  0  0
   37.6670   28.1500   44.1890 H   0  0  0  0  0  0  0  0  0  0  0  0
   39.4890   27.2330   43.5540 C   0  0  0  0  0  0  0  0  0  0  0  0
   40.1670   26.0680   43.9060 C   0  0  0  0  0  0  0  0  0  0  0  0
   41.5510   26.1010   43.8190 C   0  0  0  0  0  0  0  0  0  0  0  0
   42.1480   27.2360   43.4070 N   0  0  0  0  0  0  0  0  0  0  0  0
   41.4540   28.3530   43.0710 C   0  0  0  0  0  0  0  0  0  0  0  0
   40.1330   28.3280   43.1510 N   0  0  0  0  0  0  0  0  0  0  0  0
   39.6330   25.1770   44.2330 H   0  0  0  0  0  0  0  0  0  0  0  0
   42.1450   25.2330   44.0770 H   0  0  0  0  0  0  0  0  0  0  0  0
   41.9350   29.2700   42.7390 H   0  0  0  0  0  0  0  0  0  0  0  0
   37.1670   29.7300   42.6550 O   0  0  0  0  0  0  0  0  0  0  0  0
   38.0220   30.2790   42.5160 H   0  0  0  0  0  0  0  0  0  0  0  0
   36.0360   30.0430   40.1580 O   0  0  0  0  0  0  0  0  0  0  0  0
   36.9820   30.6810   39.3660 C   0  0  0  0  0  0  0  0  0  0  0  0
   36.7960   30.7120   38.0040 C   0  0  0  0  0  0  0  0  0  0  0  0
   37.6950   31.3300   37.1330 C   0  0  0  0  0  0  0  0  0  0  0  0
   38.7900   31.9200   37.6490 N   0  0  0  0  0  0  0  0  0  0  0  0
   38.9740   31.8900   38.9760 C   0  0  0  0  0  0  0  0  0  0  0  0
   38.0950   31.2890   39.8020 N   0  0  0  0  0  0  0  0  0  0  0  0
   35.9270   30.2470   37.5690 H   0  0  0  0  0  0  0  0  0  0  0  0
   37.4910   31.3220   36.0520 H   0  0  0  0  0  0  0  0  0  0  0  0
   40.8210   33.5290   38.8840 C   0  0  0  0  0  3  0  0  0  0  0  0
   40.1570   32.5260   39.5510 C   0  0  0  0  0  0  0  0  0  0  0  0
   40.6680   32.1730   40.7630 C   0  0  0  0  0  0  0  0  0  0  0  0
   40.2140   31.4000   41.3520 H   0  0  0  0  0  0  0  0  0  0  0  0
   41.8020   32.8040   41.2800 C   0  0  0  0  0  0  0  0  0  0  0  0
   42.4940   32.6560   42.4160 N   0  0  0  0  0  0  0  0  0  0  0  0
   42.3020   31.9820   43.1990 H   0  0  0  0  0  0  0  0  0  0  0  0
   43.5410   33.5310   42.4480 C   0  0  0  0  0  0  0  0  0  0  0  0
   44.3090   33.7100   43.1790 H   0  0  0  0  0  0  0  0  0  0  0  0
   43.5070   34.2740   41.2640 C   0  0  0  0  0  3  0  0  0  0  0  0
   42.4100   33.8010   40.5470 C   0  0  0  0  0  0  0  0  0  0  0  0
   41.9430   34.2070   39.3130 C   0  0  0  0  0  3  0  0  0  0  0  0
  1  2  1  0  0  0  0
  1 22  1  0  0  0  0
  2 10  1  0  0  0  0
  3  7  1  0  0  0  0
  3  2  2  0  0  0  0
  4  3  1  0  0  0  0
  5  4  2  0  0  0  0
  5  6  1  0  0  0  0
  6  1  2  0  0  0  0
  8  4  1  0  0  0  0
  9  5  1  0  0  0  0
 10 12  1  0  0  0  0
 10 11  1  0  0  0  0
 13 10  1  0  0  0  0
 13 14  1  0  0  0  0
 14 19  1  0  0  0  0
 15 14  2  0  0  0  0
 15 20  1  0  0  0  0
 16 15  1  0  0  0  0
 17 18  1  0  0  0  0
 17 16  2  0  0  0  0
 18 13  2  0  0  0  0
 21 17  1  0  0  0  0
 23 22  1  0  0  0  0
 24  6  1  0  0  0  0
 25 30  1  0  0  0  0
 25 24  1  0  0  0  0
 26 25  2  0  0  0  0
 27 28  2  0  0  0  0
 27 26  1  0  0  0  0
 28 29  1  0  0  0  0
 29 34  1  0  0  0  0
 29 30  2  0  0  0  0
 31 26  1  0  0  0  0
 32 27  1  0  0  0  0
 33 44  2  0  0  0  0
 33 34  1  0  0  0  0
 34 35  2  0  0  0  0
 35 37  1  0  0  0  0
 35 36  1  0  0  0  0
 37 38  1  0  0  0  0
 38 40  1  0  0  0  0
 38 39  1  0  0  0  0
 40 41  1  0  0  0  0
 42 40  2  0  0  0  0
 43 42  1  0  0  0  0
 43 37  2  0  0  0  0
 44 43  1  0  0  0  0
M  END
>  <minimizedAffinity>
-6.83462667

$$$$

 OpenBabel03242512233D

 44 48  0  0  0  0  0  0  0  0999 V2000
   36.5460   31.0800   39.9350 C   0  0  0  0  0  0  0  0  0  0  0  0
   36.1340   29.8570   39.4700 C   0  0  0  0  0  0  0  0  0  0  0  0
   36.4180   29.5030   38.1840 C   0  0  0  0  0  0  0  0  0  0  0  0
   37.1200   30.3760   37.3610 C   0  0  0  0  0  0  0  0  0  0  0  0
   37.5210   31.6010   37.8590 C   0  0  0  0  0  0  0  0  0  0  0  0
   37.2320   31.9690   39.1750 C   0  0  0  0  0  0  0  0  0  0  0  0
   36.1060   28.5480   37.7900 H   0  0  0  0  0  0  0  0  0  0  0  0
   37.3720   30.1460   36.3340 H   0  0  0  0  0  0  0  0  0  0  0  0
   38.0670   32.2720   37.2050 H   0  0  0  0  0  0  0  0  0  0  0  0
   35.3980   28.9950   40.4050 C   0  0  0  0  0  0  0  0  0  0  0  0
   34.6690   28.3580   39.9280 H   0  0  0  0  0  0  0  0  0  0  0  0
   34.8120   29.6950   41.0680 H   0  0  0  0  0  0  0  0  0  0  0  0
   36.3570   28.2380   41.2970 C   0  0  0  0  0  0  0  0  0  0  0  0
   36.8470   27.0210   40.8270 C   0  0  0  0  0  0  0  0  0  0  0  0
   37.7250   26.3390   41.6560 C   0  0  0  0  0  0  0  0  0  0  0  0
   38.0500   26.8840   42.8450 N   0  0  0  0  0  0  0  0  0  0  0  0
   37.5530   28.0730   43.2700 C   0  0  0  0  0  0  0  0  0  0  0  0
   36.7140   28.7290   42.4840 N   0  0  0  0  0  0  0  0  0  0  0  0
   36.5500   26.6270   39.8560 H   0  0  0  0  0  0  0  0  0  0  0  0
   38.1460   25.3870   41.3580 H   0  0  0  0  0  0  0  0  0  0  0  0
   37.8140   28.5130   44.2300 H   0  0  0  0  0  0  0  0  0  0  0  0
   36.3020   31.5340   41.2400 O   0  0  0  0  0  0  0  0  0  0  0  0
   37.0290   31.3690   41.9430 H   0  0  0  0  0  0  0  0  0  0  0  0
   37.6900   33.2330   39.5670 O   0  0  0  0  0  0  0  0  0  0  0  0
   38.9890   33.2470   40.0590 C   0  0  0  0  0  0  0  0  0  0  0  0
   39.7850   34.3360   39.7990 C   0  0  0  0  0  0  0  0  0  0  0  0
   41.1010   34.4360   40.2530 C   0  0  0  0  0  0  0  0  0  0  0  0
   41.6120   33.4210   40.9760 N   0  0  0  0  0  0  0  0  0  0  0  0
   40.8380   32.3560   41.2290 C   0  0  0  0  0  0  0  0  0  0  0  0
   39.5690   32.2790   40.7830 N   0  0  0  0  0  0  0  0  0  0  0  0
   39.3980   35.1610   39.2230 H   0  0  0  0  0  0  0  0  0  0  0  0
   41.6890   35.3350   40.0130 H   0  0  0  0  0  0  0  0  0  0  0  0
   42.4870   31.4110   42.8080 C   0  0  0  0  0  3  0  0  0  0  0  0
   41.3770   31.2470   42.0120 C   0  0  0  0  0  0  0  0  0  0  0  0
   40.8240   30.0030   42.0050 C   0  0  0  0  0  0  0  0  0  0  0  0
   39.9570   29.7850   41.4130 H   0  0  0  0  0  0  0  0  0  0  0  0
   41.3690   28.9660   42.7670 C   0  0  0  0  0  0  0  0  0  0  0  0
   41.0320   27.6820   42.9390 N   0  0  0  0  0  0  0  0  0  0  0  0
   40.2300   27.1660   42.4980 H   0  0  0  0  0  0  0  0  0  0  0  0
   41.8990   27.0790   43.8040 C   0  0  0  0  0  0  0  0  0  0  0  0
   41.9580   26.0750   44.1840 H   0  0  0  0  0  0  0  0  0  0  0  0
   42.8360   28.0380   44.2010 C   0  0  0  0  0  3  0  0  0  0  0  0
   42.4840   29.2130   43.5380 C   0  0  0  0  0  0  0  0  0  0  0  0
   43.0930   30.4500   43.5920 C   0  0  0  0  0  3  0  0  0  0  0  0
  1 22  1  0  0  0  0
  2  1  1  0  0  0  0
  2 10  1  0  0  0  0
  3  2  2  0  0  0  0
  4  5  2  0  0  0  0
  4  3  1  0  0  0  0
  5  6  1  0  0  0  0
  6 24  1  0  0  0  0
  6  1  2  0  0  0  0
  7  3  1  0  0  0  0
  8  4  1  0  0  0  0
  9  5  1  0  0  0  0
 10 12  1  0  0  0  0
 10 13  1  0  0  0  0
 11 10  1  0  0  0  0
 13 18  1  0  0  0  0
 14 13  2  0  0  0  0
 14 15  1  0  0  0  0
 15 16  2  0  0  0  0
 16 17  1  0  0  0  0
 17 21  1  0  0  0  0
 18 17  2  0  0  0  0
 19 14  1  0  0  0  0
 20 15  1  0  0  0  0
 22 23  1  0  0  0  0
 24 25  1  0  0  0  0
 25 30  1  0  0  0  0
 26 25  2  0  0  0  0
 26 27  1  0  0  0  0
 27 28  2  0  0  0  0
 28 29  1  0  0  0  0
 29 34  1  0  0  0  0
 30 29  2  0  0  0  0
 31 26  1  0  0  0  0
 32 27  1  0  0  0  0
 33 44  1  0  0  0  0
 34 33  2  0  0  0  0
 35 34  1  0  0  0  0
 35 37  2  0  0  0  0
 36 35  1  0  0  0  0
 37 38  1  0  0  0  0
 37 43  1  0  0  0  0
 38 40  1  0  0  0  0
 39 38  1  0  0  0  0
 40 41  1  0  0  0  0
 40 42  2  0  0  0  0
 43 44  2  0  0  0  0
 43 42  1  0  0  0  0
M  END
>  <minimizedAffinity>
-6.75297594

$$$$

 OpenBabel03242512233D

 44 48  0  0  0  0  0  0  0  0999 V2000
   37.1070   29.5270   41.8910 C   0  0  0  0  0  0  0  0  0  0  0  0
   37.2680   30.5330   40.9730 C   0  0  0  0  0  0  0  0  0  0  0  0
   38.4160   31.2680   40.9840 C   0  0  0  0  0  0  0  0  0  0  0  0
   39.4100   30.9930   41.9180 C   0  0  0  0  0  0  0  0  0  0  0  0
   39.2170   29.9720   42.8300 C   0  0  0  0  0  0  0  0  0  0  0  0
   38.0430   29.2160   42.8220 C   0  0  0  0  0  0  0  0  0  0  0  0
   38.5710   32.0670   40.2750 H   0  0  0  0  0  0  0  0  0  0  0  0
   40.3390   31.5440   41.9720 H   0  0  0  0  0  0  0  0  0  0  0  0
   40.0000   29.7690   43.5520 H   0  0  0  0  0  0  0  0  0  0  0  0
   36.1700   30.7580   40.0220 C   0  0  0  0  0  0  0  0  0  0  0  0
   36.0100   31.7980   39.7820 H   0  0  0  0  0  0  0  0  0  0  0  0
   35.2350   30.4140   40.5500 H   0  0  0  0  0  0  0  0  0  0  0  0
   36.3380   29.8830   38.8000 C   0  0  0  0  0  0  0  0  0  0  0  0
   36.9770   30.4400   37.6940 C   0  0  0  0  0  0  0  0  0  0  0  0
   37.1240   29.6250   36.5810 C   0  0  0  0  0  0  0  0  0  0  0  0
   36.6510   28.3650   36.6340 N   0  0  0  0  0  0  0  0  0  0  0  0
   36.0330   27.8560   37.7300 C   0  0  0  0  0  0  0  0  0  0  0  0
   35.8890   28.6280   38.7950 N   0  0  0  0  0  0  0  0  0  0  0  0
   37.3420   31.4670   37.7070 H   0  0  0  0  0  0  0  0  0  0  0  0
   37.6100   29.9900   35.6850 H   0  0  0  0  0  0  0  0  0  0  0  0
   35.6500   26.8390   37.7720 H   0  0  0  0  0  0  0  0  0  0  0  0
   35.9630   28.7160   41.9590 O   0  0  0  0  0  0  0  0  0  0  0  0
   35.9810   27.8270   41.4490 H   0  0  0  0  0  0  0  0  0  0  0  0
   37.9620   28.2100   43.7920 O   0  0  0  0  0  0  0  0  0  0  0  0
   38.5080   26.9920   43.4030 C   0  0  0  0  0  0  0  0  0  0  0  0
   39.7130   26.6050   43.9390 C   0  0  0  0  0  0  0  0  0  0  0  0
   40.3340   25.4000   43.6060 C   0  0  0  0  0  0  0  0  0  0  0  0
   39.7270   24.5830   42.7240 N   0  0  0  0  0  0  0  0  0  0  0  0
   38.5520   24.9600   42.2000 C   0  0  0  0  0  0  0  0  0  0  0  0
   37.9670   26.1270   42.5340 N   0  0  0  0  0  0  0  0  0  0  0  0
   40.2170   27.2410   44.6470 H   0  0  0  0  0  0  0  0  0  0  0  0
   41.2990   25.1440   44.0690 H   0  0  0  0  0  0  0  0  0  0  0  0
   38.5620   23.0780   40.5990 C   0  0  0  0  0  3  0  0  0  0  0  0
   37.8800   24.0850   41.2420 C   0  0  0  0  0  0  0  0  0  0  0  0
   36.5610   24.2090   40.9300 C   0  0  0  0  0  0  0  0  0  0  0  0
   35.9530   24.9670   41.3840 H   0  0  0  0  0  0  0  0  0  0  0  0
   35.9520   23.3530   40.0080 C   0  0  0  0  0  0  0  0  0  0  0  0
   34.7050   23.2570   39.5330 N   0  0  0  0  0  0  0  0  0  0  0  0
   33.8780   23.8550   39.7810 H   0  0  0  0  0  0  0  0  0  0  0  0
   34.6210   22.2330   38.6340 C   0  0  0  0  0  0  0  0  0  0  0  0
   33.8030   21.8520   38.0490 H   0  0  0  0  0  0  0  0  0  0  0  0
   35.8880   21.6500   38.5370 C   0  0  0  0  0  3  0  0  0  0  0  0
   36.7070   22.3680   39.4070 C   0  0  0  0  0  0  0  0  0  0  0  0
   38.0480   22.1880   39.6770 C   0  0  0  0  0  3  0  0  0  0  0  0
  1 22  1  0  0  0  0
  1  6  1  0  0  0  0
  2  3  1  0  0  0  0
  2  1  2  0  0  0  0
  3  4  2  0  0  0  0
  4  8  1  0  0  0  0
  4  5  1  0  0  0  0
  5  9  1  0  0  0  0
  6  5  2  0  0  0  0
  6 24  1  0  0  0  0
  7  3  1  0  0  0  0
 10 12  1  0  0  0  0
 10  2  1  0  0  0  0
 11 10  1  0  0  0  0
 13 10  1  0  0  0  0
 14 19  1  0  0  0  0
 14 13  2  0  0  0  0
 15 16  2  0  0  0  0
 15 14  1  0  0  0  0
 16 17  1  0  0  0  0
 17 21  1  0  0  0  0
 17 18  2  0  0  0  0
 18 13  1  0  0  0  0
 20 15  1  0  0  0  0
 23 22  1  0  0  0  0
 25 24  1  0  0  0  0
 25 26  1  0  0  0  0
 26 31  1  0  0  0  0
 27 26  2  0  0  0  0
 27 32  1  0  0  0  0
 28 27  1  0  0  0  0
 29 30  1  0  0  0  0
 29 28  2  0  0  0  0
 30 25  2  0  0  0  0
 33 34  1  0  0  0  0
 34 29  1  0  0  0  0
 35 34  2  0  0  0  0
 35 36  1  0  0  0  0
 37 35  1  0  0  0  0
 38 39  1  0  0  0  0
 38 37  1  0  0  0  0
 40 38  1  0  0  0  0
 41 40  1  0  0  0  0
 42 40  2  0  0  0  0
 42 43  1  0  0  0  0
 43 44  1  0  0  0  0
 43 37  2  0  0  0  0
 44 33  2  0  0  0  0
M  END
>  <minimizedAffinity>
-6.74752522

$$$$

 OpenBabel03242512233D

 44 48  0  0  0  0  0  0  0  0999 V2000
   36.9160   29.7360   41.4710 C   0  0  0  0  0  0  0  0  0  0  0  0
   37.0930   30.6140   40.4330 C   0  0  0  0  0  0  0  0  0  0  0  0
   36.6670   30.2660   39.1860 C   0  0  0  0  0  0  0  0  0  0  0  0
   36.0580   29.0330   38.9770 C   0  0  0  0  0  0  0  0  0  0  0  0
   35.8950   28.1700   40.0450 C   0  0  0  0  0  0  0  0  0  0  0  0
   36.3300   28.5220   41.3240 C   0  0  0  0  0  0  0  0  0  0  0  0
   36.7920   30.9360   38.3490 H   0  0  0  0  0  0  0  0  0  0  0  0
   35.7010   28.7060   38.0100 H   0  0  0  0  0  0  0  0  0  0  0  0
   35.4190   27.2120   39.8670 H   0  0  0  0  0  0  0  0  0  0  0  0
   37.7450   31.8950   40.7400 C   0  0  0  0  0  0  0  0  0  0  0  0
   37.5220   32.2710   41.7260 H   0  0  0  0  0  0  0  0  0  0  0  0
   37.3060   32.6410   40.0170 H   0  0  0  0  0  0  0  0  0  0  0  0
   39.2280   31.8190   40.4520 C   0  0  0  0  0  0  0  0  0  0  0  0
   40.0900   31.7140   41.5430 C   0  0  0  0  0  0  0  0  0  0  0  0
   41.4470   31.6440   41.2630 C   0  0  0  0  0  0  0  0  0  0  0  0
   41.8460   31.6810   39.9780 N   0  0  0  0  0  0  0  0  0  0  0  0
   40.9770   31.7840   38.9390 C   0  0  0  0  0  0  0  0  0  0  0  0
   39.6810   31.8500   39.1990 N   0  0  0  0  0  0  0  0  0  0  0  0
   39.7110   31.6880   42.5640 H   0  0  0  0  0  0  0  0  0  0  0  0
   42.1750   31.5620   42.0600 H   0  0  0  0  0  0  0  0  0  0  0  0
   41.2990   31.8140   37.9010 H   0  0  0  0  0  0  0  0  0  0  0  0
   37.3220   30.0030   42.7890 O   0  0  0  0  0  0  0  0  0  0  0  0
   36.6280   30.4110   43.4240 H   0  0  0  0  0  0  0  0  0  0  0  0
   36.1100   27.5680   42.3240 O   0  0  0  0  0  0  0  0  0  0  0  0
   37.0820   26.5770   42.3980 C   0  0  0  0  0  0  0  0  0  0  0  0
   36.7310   25.2820   42.1010 C   0  0  0  0  0  0  0  0  0  0  0  0
   37.6410   24.2240   42.1490 C   0  0  0  0  0  0  0  0  0  0  0  0
   38.9140   24.4840   42.5020 N   0  0  0  0  0  0  0  0  0  0  0  0
   39.2580   25.7470   42.7930 C   0  0  0  0  0  0  0  0  0  0  0  0
   38.3650   26.7550   42.7400 N   0  0  0  0  0  0  0  0  0  0  0  0
   35.7180   25.0490   41.8160 H   0  0  0  0  0  0  0  0  0  0  0  0
   37.3010   23.2080   41.8990 H   0  0  0  0  0  0  0  0  0  0  0  0
   40.9870   27.2840   43.6590 C   0  0  0  0  0  3  0  0  0  0  0  0
   40.6350   26.0450   43.1760 C   0  0  0  0  0  0  0  0  0  0  0  0
   41.6410   25.1320   43.0830 C   0  0  0  0  0  0  0  0  0  0  0  0
   41.4570   24.1400   42.7170 H   0  0  0  0  0  0  0  0  0  0  0  0
   42.9470   25.4540   43.4600 C   0  0  0  0  0  0  0  0  0  0  0  0
   44.0930   24.7640   43.4700 N   0  0  0  0  0  0  0  0  0  0  0  0
   44.2430   23.7670   43.1720 H   0  0  0  0  0  0  0  0  0  0  0  0
   45.1100   25.5450   43.9390 C   0  0  0  0  0  0  0  0  0  0  0  0
   46.1570   25.3520   44.0920 H   0  0  0  0  0  0  0  0  0  0  0  0
   44.5730   26.8000   44.2420 C   0  0  0  0  0  3  0  0  0  0  0  0
   43.2170   26.7200   43.9340 C   0  0  0  0  0  0  0  0  0  0  0  0
   42.2450   27.6930   44.0540 C   0  0  0  0  0  3  0  0  0  0  0  0
  1 22  1  0  0  0  0
  2 10  1  0  0  0  0
  2  1  2  0  0  0  0
  3  2  1  0  0  0  0
  4  3  2  0  0  0  0
  4  5  1  0  0  0  0
  5  6  2  0  0  0  0
  6  1  1  0  0  0  0
  6 24  1  0  0  0  0
  7  3  1  0  0  0  0
  8  4  1  0  0  0  0
  9  5  1  0  0  0  0
 10 11  1  0  0  0  0
 12 10  1  0  0  0  0
 13 10  1  0  0  0  0
 13 14  1  0  0  0  0
 14 19  1  0  0  0  0
 15 14  2  0  0  0  0
 15 20  1  0  0  0  0
 16 15  1  0  0  0  0
 17 18  1  0  0  0  0
 17 16  2  0  0  0  0
 18 13  2  0  0  0  0
 21 17  1  0  0  0  0
 22 23  1  0  0  0  0
 24 25  1  0  0  0  0
 25 30  1  0  0  0  0
 26 27  1  0  0  0  0
 26 25  2  0  0  0  0
 27 28  2  0  0  0  0
 28 29  1  0  0  0  0
 29 34  1  0  0  0  0
 30 29  2  0  0  0  0
 31 26  1  0  0  0  0
 32 27  1  0  0  0  0
 33 44  1  0  0  0  0
 34 33  2  0  0  0  0
 35 34  1  0  0  0  0
 35 37  2  0  0  0  0
 36 35  1  0  0  0  0
 37 38  1  0  0  0  0
 37 43  1  0  0  0  0
 38 40  1  0  0  0  0
 39 38  1  0  0  0  0
 40 41  1  0  0  0  0
 40 42  2  0  0  0  0
 43 44  2  0  0  0  0
 43 42  1  0  0  0  0
M  END
>  <minimizedAffinity>
-6.64097261

$$$$

 OpenBabel03242512233D

 44 48  0  0  0  0  0  0  0  0999 V2000
   37.7330   26.7790   42.7380 C   0  0  0  0  0  0  0  0  0  0  0  0
   38.2750   25.5620   42.4120 C   0  0  0  0  0  0  0  0  0  0  0  0
   39.6120   25.4760   42.1550 C   0  0  0  0  0  0  0  0  0  0  0  0
   40.4090   26.6130   42.2270 C   0  0  0  0  0  0  0  0  0  0  0  0
   39.8320   27.8250   42.5570 C   0  0  0  0  0  0  0  0  0  0  0  0
   38.4640   27.9180   42.8210 C   0  0  0  0  0  0  0  0  0  0  0  0
   40.0670   24.5330   41.8960 H   0  0  0  0  0  0  0  0  0  0  0  0
   41.4730   26.6020   42.0330 H   0  0  0  0  0  0  0  0  0  0  0  0
   40.4660   28.7030   42.6090 H   0  0  0  0  0  0  0  0  0  0  0  0
   37.3630   24.4110   42.3590 C   0  0  0  0  0  0  0  0  0  0  0  0
   36.4010   24.5980   42.8120 H   0  0  0  0  0  0  0  0  0  0  0  0
   37.8490   23.6080   42.9830 H   0  0  0  0  0  0  0  0  0  0  0  0
   37.2620   23.8780   40.9470 C   0  0  0  0  0  0  0  0  0  0  0  0
   36.5600   24.6450   40.0190 C   0  0  0  0  0  0  0  0  0  0  0  0
   36.4770   24.1430   38.7280 C   0  0  0  0  0  0  0  0  0  0  0  0
   37.0700   22.9660   38.4520 N   0  0  0  0  0  0  0  0  0  0  0  0
   37.7460   22.2450   39.3820 C   0  0  0  0  0  0  0  0  0  0  0  0
   37.8290   22.7180   40.6160 N   0  0  0  0  0  0  0  0  0  0  0  0
   36.1010   25.5930   40.2980 H   0  0  0  0  0  0  0  0  0  0  0  0
   35.9480   24.6840   37.9540 H   0  0  0  0  0  0  0  0  0  0  0  0
   38.2240   21.2940   39.1600 H   0  0  0  0  0  0  0  0  0  0  0  0
   36.3700   26.9690   43.0190 O   0  0  0  0  0  0  0  0  0  0  0  0
   36.0780   26.9240   44.0010 H   0  0  0  0  0  0  0  0  0  0  0  0
   37.9940   29.1960   43.1460 O   0  0  0  0  0  0  0  0  0  0  0  0
   37.7580   30.0180   42.0500 C   0  0  0  0  0  0  0  0  0  0  0  0
   36.5140   30.0060   41.4670 C   0  0  0  0  0  0  0  0  0  0  0  0
   36.1900   30.7980   40.3640 C   0  0  0  0  0  0  0  0  0  0  0  0
   37.1360   31.6070   39.8510 N   0  0  0  0  0  0  0  0  0  0  0  0
   38.3500   31.6200   40.4180 C   0  0  0  0  0  0  0  0  0  0  0  0
   38.6450   30.8490   41.4830 N   0  0  0  0  0  0  0  0  0  0  0  0
   35.7410   29.3660   41.8600 H   0  0  0  0  0  0  0  0  0  0  0  0
   35.1750   30.7440   39.9410 H   0  0  0  0  0  0  0  0  0  0  0  0
   39.7500   33.6540   40.5160 C   0  0  0  0  0  3  0  0  0  0  0  0
   39.3870   32.4930   39.8730 C   0  0  0  0  0  0  0  0  0  0  0  0
   40.0490   32.2170   38.7160 C   0  0  0  0  0  0  0  0  0  0  0  0
   39.8310   31.3330   38.1490 H   0  0  0  0  0  0  0  0  0  0  0  0
   41.0360   33.0770   38.2250 C   0  0  0  0  0  0  0  0  0  0  0  0
   41.8200   33.0460   37.1420 N   0  0  0  0  0  0  0  0  0  0  0  0
   41.8470   32.3100   36.3920 H   0  0  0  0  0  0  0  0  0  0  0  0
   42.6330   34.1420   37.1170 C   0  0  0  0  0  0  0  0  0  0  0  0
   43.3860   34.4670   36.4210 H   0  0  0  0  0  0  0  0  0  0  0  0
   42.3440   34.9080   38.2500 C   0  0  0  0  0  3  0  0  0  0  0  0
   41.3400   34.2220   38.9300 C   0  0  0  0  0  0  0  0  0  0  0  0
   40.7070   34.5610   40.1090 C   0  0  0  0  0  3  0  0  0  0  0  0
  1  6  1  0  0  0  0
  1 22  1  0  0  0  0
  2  1  2  0  0  0  0
  3  4  2  0  0  0  0
  3  2  1  0  0  0  0
  4  5  1  0  0  0  0
  5  9  1  0  0  0  0
  5  6  2  0  0  0  0
  6 24  1  0  0  0  0
  7  3  1  0  0  0  0
  8  4  1  0  0  0  0
 10  2  1  0  0  0  0
 10 11  1  0  0  0  0
 10 12  1  0  0  0  0
 13 10  1  0  0  0  0
 14 19  1  0  0  0  0
 14 13  2  0  0  0  0
 15 14  1  0  0  0  0
 16 15  2  0  0  0  0
 16 17  1  0  0  0  0
 17 18  2  0  0  0  0
 18 13  1  0  0  0  0
 20 15  1  0  0  0  0
 21 17  1  0  0  0  0
 22 23  1  0  0  0  0
 25 24  1  0  0  0  0
 26 31  1  0  0  0  0
 26 25  2  0  0  0  0
 27 26  1  0  0  0  0
 28 27  2  0  0  0  0
 28 29  1  0  0  0  0
 29 30  2  0  0  0  0
 30 25  1  0  0  0  0
 32 27  1  0  0  0  0
 34 29  1  0  0  0  0
 34 33  2  0  0  0  0
 35 34  1  0  0  0  0
 36 35  1  0  0  0  0
 37 35  2  0  0  0  0
 37 43  1  0  0  0  0
 38 37  1  0  0  0  0
 39 38  1  0  0  0  0
 40 38  1  0  0  0  0
 40 42  2  0  0  0  0
 41 40  1  0  0  0  0
 42 43  1  0  0  0  0
 43 44  2  0  0  0  0
 44 33  1  0  0  0  0
M  END
>  <minimizedAffinity>
-6.58859062

$$$$

 OpenBabel03242512233D

 44 48  0  0  0  0  0  0  0  0999 V2000
   37.7900   26.8360   42.7550 C   0  0  0  0  0  0  0  0  0  0  0  0
   38.0720   25.5020   42.6110 C   0  0  0  0  0  0  0  0  0  0  0  0
   39.3260   25.0510   42.9030 C   0  0  0  0  0  0  0  0  0  0  0  0
   40.3010   25.9410   43.3420 C   0  0  0  0  0  0  0  0  0  0  0  0
   39.9840   27.2790   43.4760 C   0  0  0  0  0  0  0  0  0  0  0  0
   38.7020   27.7460   43.1780 C   0  0  0  0  0  0  0  0  0  0  0  0
   39.5780   24.0070   42.7990 H   0  0  0  0  0  0  0  0  0  0  0  0
   41.3100   25.6370   43.5870 H   0  0  0  0  0  0  0  0  0  0  0  0
   40.7550   27.9610   43.8190 H   0  0  0  0  0  0  0  0  0  0  0  0
   36.9860   24.6310   42.1420 C   0  0  0  0  0  0  0  0  0  0  0  0
   36.0180   24.8870   42.5470 H   0  0  0  0  0  0  0  0  0  0  0  0
   37.2260   23.6040   42.5400 H   0  0  0  0  0  0  0  0  0  0  0  0
   36.9940   24.5370   40.6330 C   0  0  0  0  0  0  0  0  0  0  0  0
   37.5310   23.3840   40.0630 C   0  0  0  0  0  0  0  0  0  0  0  0
   37.5310   23.3120   38.6780 C   0  0  0  0  0  0  0  0  0  0  0  0
   37.0200   24.3420   37.9760 N   0  0  0  0  0  0  0  0  0  0  0  0
   36.5050   25.4510   38.5650 C   0  0  0  0  0  0  0  0  0  0  0  0
   36.5020   25.5260   39.8860 N   0  0  0  0  0  0  0  0  0  0  0  0
   37.9300   22.5790   40.6800 H   0  0  0  0  0  0  0  0  0  0  0  0
   37.9320   22.4460   38.1660 H   0  0  0  0  0  0  0  0  0  0  0  0
   36.0930   26.2830   37.9990 H   0  0  0  0  0  0  0  0  0  0  0  0
   36.5320   27.3950   42.4800 O   0  0  0  0  0  0  0  0  0  0  0  0
   35.8750   27.4900   43.2610 H   0  0  0  0  0  0  0  0  0  0  0  0
   38.5000   29.1200   43.3530 O   0  0  0  0  0  0  0  0  0  0  0  0
   38.5700   29.8650   42.1820 C   0  0  0  0  0  0  0  0  0  0  0  0
   39.4100   30.9520   42.1360 C   0  0  0  0  0  0  0  0  0  0  0  0
   39.5430   31.7560   41.0030 C   0  0  0  0  0  0  0  0  0  0  0  0
   38.8170   31.4540   39.9090 N   0  0  0  0  0  0  0  0  0  0  0  0
   37.9960   30.3950   39.9520 C   0  0  0  0  0  0  0  0  0  0  0  0
   37.8820   29.6300   41.0560 N   0  0  0  0  0  0  0  0  0  0  0  0
   40.0010   31.2130   42.9990 H   0  0  0  0  0  0  0  0  0  0  0  0
   40.2330   32.6130   41.0270 H   0  0  0  0  0  0  0  0  0  0  0  0
   36.0080   29.3830   38.8910 C   0  0  0  0  0  3  0  0  0  0  0  0
   37.2030   30.0540   38.7740 C   0  0  0  0  0  0  0  0  0  0  0  0
   37.5880   30.3750   37.5080 C   0  0  0  0  0  0  0  0  0  0  0  0
   38.5060   30.8980   37.3240 H   0  0  0  0  0  0  0  0  0  0  0  0
   36.8020   30.0320   36.4050 C   0  0  0  0  0  0  0  0  0  0  0  0
   36.9420   30.2210   35.0880 N   0  0  0  0  0  0  0  0  0  0  0  0
   37.7330   30.7010   34.5900 H   0  0  0  0  0  0  0  0  0  0  0  0
   35.8770   29.6880   34.4190 C   0  0  0  0  0  0  0  0  0  0  0  0
   35.6330   29.6390   33.3730 H   0  0  0  0  0  0  0  0  0  0  0  0
   35.0170   29.1310   35.3710 C   0  0  0  0  0  3  0  0  0  0  0  0
   35.6170   29.3580   36.6080 C   0  0  0  0  0  0  0  0  0  0  0  0
   35.1680   29.0030   37.8640 C   0  0  0  0  0  3  0  0  0  0  0  0
  1  6  1  0  0  0  0
  2  1  2  0  0  0  0
  2  3  1  0  0  0  0
  3  4  2  0  0  0  0
  4  5  1  0  0  0  0
  4  8  1  0  0  0  0
  5  9  1  0  0  0  0
  6 24  1  0  0  0  0
  6  5  2  0  0  0  0
  7  3  1  0  0  0  0
 10 12  1  0  0  0  0
 10 11  1  0  0  0  0
 10  2  1  0  0  0  0
 13 10  1  0  0  0  0
 14 13  1  0  0  0  0
 14 19  1  0  0  0  0
 15 14  2  0  0  0  0
 16 17  2  0  0  0  0
 16 15  1  0  0  0  0
 17 18  1  0  0  0  0
 18 13  2  0  0  0  0
 20 15  1  0  0  0  0
 21 17  1  0  0  0  0
 22  1  1  0  0  0  0
 22 23  1  0  0  0  0
 25 24  1  0  0  0  0
 26 25  1  0  0  0  0
 26 31  1  0  0  0  0
 27 32  1  0  0  0  0
 27 26  2  0  0  0  0
 28 29  2  0  0  0  0
 28 27  1  0  0  0  0
 29 30  1  0  0  0  0
 30 25  2  0  0  0  0
 34 33  1  0  0  0  0
 34 29  1  0  0  0  0
 35 34  2  0  0  0  0
 36 35  1  0  0  0  0
 37 43  2  0  0  0  0
 37 35  1  0  0  0  0
 38 37  1  0  0  0  0
 39 38  1  0  0  0  0
 40 38  1  0  0  0  0
 40 42  2  0  0  0  0
 41 40  1  0  0  0  0
 42 43  1  0  0  0  0
 43 44  1  0  0  0  0
 44 33  2  0  0  0  0
M  END
>  <minimizedAffinity>
-6.58175421

$$$$
