
 OpenBabel03252502493D

 48 52  0  0  1  0  0  0  0  0999 V2000
   38.9480   28.6210   43.0320 C   0  0  0  0  0  0  0  0  0  0  0  0
   39.4830   27.9890   42.2930 H   0  0  0  0  0  0  0  0  0  0  0  0
   39.5160   28.4890   43.9830 H   0  0  0  0  0  0  0  0  0  0  0  0
   38.9470   30.0320   42.5460 C   0  0  1  0  0  0  0  0  0  0  0  0
   40.2350   30.7940   42.6220 C   0  0  0  0  0  0  0  0  0  0  0  0
   39.6850   30.3280   41.3240 C   0  0  2  0  0  0  0  0  0  0  0  0
   38.0700   30.5970   42.8460 H   0  0  0  0  0  0  0  0  0  0  0  0
   40.2310   31.8610   42.9140 H   0  0  0  0  0  0  0  0  0  0  0  0
   41.1070   30.2570   43.0710 H   0  0  0  0  0  0  0  0  0  0  0  0
   40.3180   29.6360   40.7810 H   0  0  0  0  0  0  0  0  0  0  0  0
   39.0830   31.4020   40.5370 N   0  0  0  0  0  0  0  0  0  0  0  0
   39.0700   32.6680   41.1750 C   0  0  0  0  0  0  0  0  0  0  0  0
   38.3960   33.6160   40.1990 C   0  0  0  0  0  0  0  0  0  0  0  0
   37.0470   33.2480   39.9540 N   0  0  0  0  0  0  0  0  0  0  0  0
   36.7810   31.8280   40.0910 C   0  0  0  0  0  0  0  0  0  0  0  0
   38.0260   31.0310   39.6980 C   0  0  0  0  0  0  0  0  0  0  0  0
   40.1140   33.0390   41.3050 H   0  0  0  0  0  0  0  0  0  0  0  0
   38.5480   32.6110   42.1400 H   0  0  0  0  0  0  0  0  0  0  0  0
   38.4470   34.6420   40.6360 H   0  0  0  0  0  0  0  0  0  0  0  0
   39.0560   33.6450   39.3110 H   0  0  0  0  0  0  0  0  0  0  0  0
   36.6850   33.6490   39.0720 H   0  0  0  0  0  0  0  0  0  0  0  0
   36.5690   31.5630   41.1370 H   0  0  0  0  0  0  0  0  0  0  0  0
   35.9290   31.6010   39.4470 H   0  0  0  0  0  0  0  0  0  0  0  0
   37.8110   29.9620   39.7360 H   0  0  0  0  0  0  0  0  0  0  0  0
   38.2250   31.2810   38.6200 H   0  0  0  0  0  0  0  0  0  0  0  0
   37.5110   28.1900   43.1240 C   0  0  0  0  0  0  0  0  0  0  0  0
   37.4720   27.4490   43.9740 H   0  0  0  0  0  0  0  0  0  0  0  0
   36.7830   28.9480   43.3650 H   0  0  0  0  0  0  0  0  0  0  0  0
   36.9720   25.2360   40.8780 C   0  0  0  0  0  0  0  0  0  0  0  0
   37.2720   26.0060   42.0230 C   0  0  0  0  0  0  0  0  0  0  0  0
   37.1900   27.3600   41.9180 C   0  0  0  0  0  0  0  0  0  0  0  0
   36.8270   27.9210   40.7290 N   0  0  0  0  0  0  0  0  0  0  0  0
   36.5500   27.1960   39.6700 C   0  0  0  0  0  0  0  0  0  0  0  0
   36.6170   25.8510   39.7270 N   0  0  0  0  0  0  0  0  0  0  0  0
   37.0210   24.1610   40.9080 H   0  0  0  0  0  0  0  0  0  0  0  0
   37.5480   25.4530   42.9110 H   0  0  0  0  0  0  0  0  0  0  0  0
   34.9030   28.3790   38.2600 C   0  0  0  0  0  3  0  0  0  0  0  0
   36.1600   27.8260   38.3980 C   0  0  0  0  0  0  0  0  0  0  0  0
   37.0490   27.8710   37.3320 C   0  0  0  0  0  0  0  0  0  0  0  0
   38.0140   27.4430   37.4480 H   0  0  0  0  0  0  0  0  0  0  0  0
   36.5900   28.4860   36.1730 C   0  0  0  0  0  0  0  0  0  0  0  0
   37.3150   28.6180   35.0470 N   0  0  0  0  0  0  0  0  0  0  0  0
   38.3060   28.3060   34.8250 H   0  0  0  0  0  0  0  0  0  0  0  0
   36.5680   29.2530   34.1450 C   0  0  0  0  0  0  0  0  0  0  0  0
   36.8280   29.5280   33.1300 H   0  0  0  0  0  0  0  0  0  0  0  0
   35.3220   29.5400   34.7040 C   0  0  0  0  0  3  0  0  0  0  0  0
   35.3470   29.0440   36.0050 C   0  0  0  0  0  0  0  0  0  0  0  0
   34.4720   28.9910   37.0800 C   0  0  0  0  0  3  0  0  0  0  0  0
  1 26  1  0  0  0  0
  1  3  1  0  0  0  0
  2  1  1  0  0  0  0
  4  5  1  0  0  0  0
  4  7  1  1  0  0  0
  4  1  1  0  0  0  0
  5  8  1  0  0  0  0
  5  9  1  0  0  0  0
  6 10  1  6  0  0  0
  6  4  1  0  0  0  0
  6  5  1  0  0  0  0
 11 12  1  0  0  0  0
 11  6  1  0  0  0  0
 12 17  1  0  0  0  0
 12 18  1  0  0  0  0
 13 19  1  0  0  0  0
 13 12  1  0  0  0  0
 14 15  1  0  0  0  0
 14 13  1  0  0  0  0
 15 22  1  0  0  0  0
 16 24  1  0  0  0  0
 16 15  1  0  0  0  0
 16 11  1  0  0  0  0
 20 13  1  0  0  0  0
 21 14  1  0  0  0  0
 23 15  1  0  0  0  0
 25 16  1  0  0  0  0
 26 28  1  0  0  0  0
 26 27  1  0  0  0  0
 29 35  1  0  0  0  0
 29 30  1  0  0  0  0
 30 36  1  0  0  0  0
 31 30  2  0  0  0  0
 31 26  1  0  0  0  0
 32 31  1  0  0  0  0
 33 34  1  0  0  0  0
 33 32  2  0  0  0  0
 34 29  2  0  0  0  0
 37 38  1  0  0  0  0
 38 33  1  0  0  0  0
 39 40  1  0  0  0  0
 39 38  2  0  0  0  0
 41 39  1  0  0  0  0
 42 41  1  0  0  0  0
 43 42  1  0  0  0  0
 44 46  2  0  0  0  0
 44 42  1  0  0  0  0
 45 44  1  0  0  0  0
 46 47  1  0  0  0  0
 47 41  2  0  0  0  0
 47 48  1  0  0  0  0
 48 37  2  0  0  0  0
M  END
>  <minimizedAffinity>
-6.354352

$$$$

 OpenBabel03252502493D

 48 52  0  0  1  0  0  0  0  0999 V2000
   37.8330   29.2880   43.2660 C   0  0  0  0  0  0  0  0  0  0  0  0
   36.9920   29.6590   42.6450 H   0  0  0  0  0  0  0  0  0  0  0  0
   37.6150   29.6620   44.2940 H   0  0  0  0  0  0  0  0  0  0  0  0
   37.8690   27.7980   43.1850 C   0  0  1  0  0  0  0  0  0  0  0  0
   36.6150   27.0530   43.5270 C   0  0  0  0  0  0  0  0  0  0  0  0
   37.0980   27.1580   42.1270 C   0  0  2  0  0  0  0  0  0  0  0  0
   38.7780   27.3600   43.5870 H   0  0  0  0  0  0  0  0  0  0  0  0
   36.6700   26.1080   44.0990 H   0  0  0  0  0  0  0  0  0  0  0  0
   35.7410   27.6690   43.8520 H   0  0  0  0  0  0  0  0  0  0  0  0
   36.4190   27.6570   41.4460 H   0  0  0  0  0  0  0  0  0  0  0  0
   37.7090   25.9250   41.6370 N   0  0  0  0  0  0  0  0  0  0  0  0
   36.8540   24.7950   41.6480 C   0  0  0  0  0  0  0  0  0  0  0  0
   37.6880   23.6400   41.1220 C   0  0  0  0  0  0  0  0  0  0  0  0
   38.7870   23.3520   41.9740 N   0  0  0  0  0  0  0  0  0  0  0  0
   39.2800   24.4960   42.7180 C   0  0  0  0  0  0  0  0  0  0  0  0
   39.0760   25.7710   41.8990 C   0  0  0  0  0  0  0  0  0  0  0  0
   36.0220   24.9400   40.9190 H   0  0  0  0  0  0  0  0  0  0  0  0
   36.4670   24.6110   42.6600 H   0  0  0  0  0  0  0  0  0  0  0  0
   37.0180   22.7510   41.0360 H   0  0  0  0  0  0  0  0  0  0  0  0
   37.9460   23.9110   40.0800 H   0  0  0  0  0  0  0  0  0  0  0  0
   39.5340   22.8270   41.4880 H   0  0  0  0  0  0  0  0  0  0  0  0
   38.7120   24.6390   43.6490 H   0  0  0  0  0  0  0  0  0  0  0  0
   40.3350   24.3070   42.9260 H   0  0  0  0  0  0  0  0  0  0  0  0
   39.5040   26.6250   42.4250 H   0  0  0  0  0  0  0  0  0  0  0  0
   39.6810   25.6350   40.9600 H   0  0  0  0  0  0  0  0  0  0  0  0
   39.1370   29.7870   42.7080 C   0  0  0  0  0  0  0  0  0  0  0  0
   39.5070   30.5540   43.4470 H   0  0  0  0  0  0  0  0  0  0  0  0
   39.9360   29.0700   42.6070 H   0  0  0  0  0  0  0  0  0  0  0  0
   39.0510   32.6090   40.2400 C   0  0  0  0  0  0  0  0  0  0  0  0
   39.3380   31.8580   41.4020 C   0  0  0  0  0  0  0  0  0  0  0  0
   38.8450   30.5920   41.4790 C   0  0  0  0  0  0  0  0  0  0  0  0
   38.1020   30.0970   40.4470 N   0  0  0  0  0  0  0  0  0  0  0  0
   37.8410   30.8030   39.3710 C   0  0  0  0  0  0  0  0  0  0  0  0
   38.3090   32.0620   39.2520 N   0  0  0  0  0  0  0  0  0  0  0  0
   39.4180   33.6150   40.1300 H   0  0  0  0  0  0  0  0  0  0  0  0
   39.9360   32.3540   42.1540 H   0  0  0  0  0  0  0  0  0  0  0  0
   35.8040   29.6860   38.5360 C   0  0  0  0  0  3  0  0  0  0  0  0
   37.0370   30.2450   38.2720 C   0  0  0  0  0  0  0  0  0  0  0  0
   37.5090   30.2780   36.9660 C   0  0  0  0  0  0  0  0  0  0  0  0
   38.4600   30.7110   36.7730 H   0  0  0  0  0  0  0  0  0  0  0  0
   36.6790   29.7280   35.9980 C   0  0  0  0  0  0  0  0  0  0  0  0
   36.9760   29.6740   34.6870 N   0  0  0  0  0  0  0  0  0  0  0  0
   37.8350   30.0110   34.1600 H   0  0  0  0  0  0  0  0  0  0  0  0
   35.9610   29.0840   34.0550 C   0  0  0  0  0  0  0  0  0  0  0  0
   35.8590   28.8740   32.9970 H   0  0  0  0  0  0  0  0  0  0  0  0
   34.9780   28.7470   34.9860 C   0  0  0  0  0  3  0  0  0  0  0  0
   35.4480   29.1640   36.2280 C   0  0  0  0  0  0  0  0  0  0  0  0
   34.9920   29.1400   37.5380 C   0  0  0  0  0  3  0  0  0  0  0  0
  1  3  1  0  0  0  0
  2  1  1  0  0  0  0
  4  1  1  0  0  0  0
  4  5  1  0  0  0  0
  4  7  1  1  0  0  0
  5  9  1  0  0  0  0
  5  8  1  0  0  0  0
  6 10  1  6  0  0  0
  6  4  1  0  0  0  0
  6  5  1  0  0  0  0
 11 12  1  0  0  0  0
 11 16  1  0  0  0  0
 11  6  1  0  0  0  0
 12 18  1  0  0  0  0
 13 12  1  0  0  0  0
 13 14  1  0  0  0  0
 14 15  1  0  0  0  0
 15 23  1  0  0  0  0
 15 22  1  0  0  0  0
 16 24  1  0  0  0  0
 16 15  1  0  0  0  0
 17 12  1  0  0  0  0
 19 13  1  0  0  0  0
 20 13  1  0  0  0  0
 21 14  1  0  0  0  0
 25 16  1  0  0  0  0
 26  1  1  0  0  0  0
 26 27  1  0  0  0  0
 28 26  1  0  0  0  0
 29 30  1  0  0  0  0
 30 31  2  0  0  0  0
 30 36  1  0  0  0  0
 31 26  1  0  0  0  0
 32 31  1  0  0  0  0
 33 32  2  0  0  0  0
 34 33  1  0  0  0  0
 34 29  2  0  0  0  0
 35 29  1  0  0  0  0
 38 37  1  0  0  0  0
 38 33  1  0  0  0  0
 39 38  2  0  0  0  0
 40 39  1  0  0  0  0
 41 47  2  0  0  0  0
 41 39  1  0  0  0  0
 42 41  1  0  0  0  0
 43 42  1  0  0  0  0
 44 42  1  0  0  0  0
 44 46  2  0  0  0  0
 45 44  1  0  0  0  0
 46 47  1  0  0  0  0
 47 48  1  0  0  0  0
 48 37  2  0  0  0  0
M  END
>  <minimizedAffinity>
-6.22153568

$$$$

 OpenBabel03252502493D

 48 52  0  0  1  0  0  0  0  0999 V2000
   36.2460   29.3740   39.3110 C   0  0  0  0  0  0  0  0  0  0  0  0
   35.3550   29.5510   38.6750 H   0  0  0  0  0  0  0  0  0  0  0  0
   36.4790   28.2910   39.1790 H   0  0  0  0  0  0  0  0  0  0  0  0
   37.3510   30.2660   38.8480 C   0  0  1  0  0  0  0  0  0  0  0  0
   37.2060   30.9100   37.5030 C   0  0  0  0  0  0  0  0  0  0  0  0
   37.0740   31.6940   38.7570 C   0  0  2  0  0  0  0  0  0  0  0  0
   38.3420   29.8790   39.0580 H   0  0  0  0  0  0  0  0  0  0  0  0
   38.0840   31.0070   36.8370 H   0  0  0  0  0  0  0  0  0  0  0  0
   36.2870   30.6510   36.9220 H   0  0  0  0  0  0  0  0  0  0  0  0
   36.1100   32.1650   38.9030 H   0  0  0  0  0  0  0  0  0  0  0  0
   38.2440   32.5230   39.0400 N   0  0  0  0  0  0  0  0  0  0  0  0
   39.4500   31.8020   39.2260 C   0  0  0  0  0  0  0  0  0  0  0  0
   40.5140   32.8450   39.5190 C   0  0  0  0  0  0  0  0  0  0  0  0
   40.2470   33.5460   40.7250 N   0  0  0  0  0  0  0  0  0  0  0  0
   38.8380   33.6420   41.0590 C   0  0  0  0  0  0  0  0  0  0  0  0
   38.0060   33.6900   39.7770 C   0  0  0  0  0  0  0  0  0  0  0  0
   39.7490   31.3080   38.2710 H   0  0  0  0  0  0  0  0  0  0  0  0
   39.3430   31.0670   40.0350 H   0  0  0  0  0  0  0  0  0  0  0  0
   41.4950   32.3160   39.5850 H   0  0  0  0  0  0  0  0  0  0  0  0
   40.5800   33.4670   38.6060 H   0  0  0  0  0  0  0  0  0  0  0  0
   40.7400   34.4540   40.7690 H   0  0  0  0  0  0  0  0  0  0  0  0
   38.4980   32.7510   41.6080 H   0  0  0  0  0  0  0  0  0  0  0  0
   38.7150   34.5450   41.6610 H   0  0  0  0  0  0  0  0  0  0  0  0
   36.9520   33.8280   40.0210 H   0  0  0  0  0  0  0  0  0  0  0  0
   38.3340   34.6160   39.2310 H   0  0  0  0  0  0  0  0  0  0  0  0
   35.9430   29.7570   40.7320 C   0  0  0  0  0  0  0  0  0  0  0  0
   36.2470   30.8400   40.8230 H   0  0  0  0  0  0  0  0  0  0  0  0
   34.9120   29.7180   41.0440 H   0  0  0  0  0  0  0  0  0  0  0  0
   37.4010   27.2600   43.1180 C   0  0  0  0  0  0  0  0  0  0  0  0
   36.4840   27.9210   42.2720 C   0  0  0  0  0  0  0  0  0  0  0  0
   36.9070   29.0430   41.6290 C   0  0  0  0  0  0  0  0  0  0  0  0
   38.1840   29.4850   41.8180 N   0  0  0  0  0  0  0  0  0  0  0  0
   39.0290   28.8630   42.6080 C   0  0  0  0  0  0  0  0  0  0  0  0
   38.6530   27.7480   43.2650 N   0  0  0  0  0  0  0  0  0  0  0  0
   37.1170   26.3680   43.6500 H   0  0  0  0  0  0  0  0  0  0  0  0
   35.5000   27.4790   42.1980 H   0  0  0  0  0  0  0  0  0  0  0  0
   41.4160   28.4800   43.1070 C   0  0  0  0  0  3  0  0  0  0  0  0
   40.4010   29.3600   42.7960 C   0  0  0  0  0  0  0  0  0  0  0  0
   40.6840   30.7130   42.6600 C   0  0  0  0  0  0  0  0  0  0  0  0
   39.8960   31.3830   42.4200 H   0  0  0  0  0  0  0  0  0  0  0  0
   42.0090   31.0870   42.8560 C   0  0  0  0  0  0  0  0  0  0  0  0
   42.4600   32.3510   42.7650 N   0  0  0  0  0  0  0  0  0  0  0  0
   41.9450   33.2530   42.5440 H   0  0  0  0  0  0  0  0  0  0  0  0
   43.7700   32.3430   43.0110 C   0  0  0  0  0  0  0  0  0  0  0  0
   44.4570   33.1800   43.0240 H   0  0  0  0  0  0  0  0  0  0  0  0
   44.1770   31.0330   43.2690 C   0  0  0  0  0  3  0  0  0  0  0  0
   43.0410   30.2370   43.1670 C   0  0  0  0  0  0  0  0  0  0  0  0
   42.7400   28.8890   43.2980 C   0  0  0  0  0  3  0  0  0  0  0  0
  1 26  1  0  0  0  0
  2  1  1  0  0  0  0
  3  1  1  0  0  0  0
  4  7  1  1  0  0  0
  4  1  1  0  0  0  0
  5  6  1  0  0  0  0
  5  4  1  0  0  0  0
  6  4  1  0  0  0  0
  6 10  1  1  0  0  0
  6 11  1  0  0  0  0
  8  5  1  0  0  0  0
  9  5  1  0  0  0  0
 11 12  1  0  0  0  0
 11 16  1  0  0  0  0
 12 13  1  0  0  0  0
 12 18  1  0  0  0  0
 13 19  1  0  0  0  0
 13 14  1  0  0  0  0
 14 21  1  0  0  0  0
 14 15  1  0  0  0  0
 15 22  1  0  0  0  0
 15 23  1  0  0  0  0
 16 24  1  0  0  0  0
 16 15  1  0  0  0  0
 17 12  1  0  0  0  0
 20 13  1  0  0  0  0
 25 16  1  0  0  0  0
 26 27  1  0  0  0  0
 26 28  1  0  0  0  0
 26 31  1  0  0  0  0
 29 34  1  0  0  0  0
 29 35  1  0  0  0  0
 30 29  2  0  0  0  0
 31 32  2  0  0  0  0
 31 30  1  0  0  0  0
 32 33  1  0  0  0  0
 33 38  1  0  0  0  0
 33 34  2  0  0  0  0
 36 30  1  0  0  0  0
 37 48  1  0  0  0  0
 38 37  2  0  0  0  0
 39 38  1  0  0  0  0
 39 41  2  0  0  0  0
 40 39  1  0  0  0  0
 41 47  1  0  0  0  0
 42 41  1  0  0  0  0
 42 44  1  0  0  0  0
 43 42  1  0  0  0  0
 44 45  1  0  0  0  0
 44 46  2  0  0  0  0
 47 46  1  0  0  0  0
 47 48  2  0  0  0  0
M  END
>  <minimizedAffinity>
-5.9262886

$$$$

 OpenBabel03252502493D

 48 52  0  0  1  0  0  0  0  0999 V2000
   36.5900   24.9860   39.7610 C   0  0  0  0  0  0  0  0  0  0  0  0
   35.7350   25.3460   40.3700 H   0  0  0  0  0  0  0  0  0  0  0  0
   36.4650   23.8780   39.7220 H   0  0  0  0  0  0  0  0  0  0  0  0
   36.5240   25.6260   38.4140 C   0  0  1  0  0  0  0  0  0  0  0  0
   35.2640   25.4520   37.6230 C   0  0  0  0  0  0  0  0  0  0  0  0
   35.6150   26.7530   38.2450 C   0  0  2  0  0  0  0  0  0  0  0  0
   37.4380   25.5260   37.8370 H   0  0  0  0  0  0  0  0  0  0  0  0
   35.3150   25.2880   36.5300 H   0  0  0  0  0  0  0  0  0  0  0  0
   34.4660   24.8210   38.0870 H   0  0  0  0  0  0  0  0  0  0  0  0
   34.9070   27.1140   38.9800 H   0  0  0  0  0  0  0  0  0  0  0  0
   36.0980   27.7380   37.2790 N   0  0  0  0  0  0  0  0  0  0  0  0
   35.4960   27.6560   35.9980 C   0  0  0  0  0  0  0  0  0  0  0  0
   36.1480   28.7450   35.1640 C   0  0  0  0  0  0  0  0  0  0  0  0
   37.5400   28.5180   34.9970 N   0  0  0  0  0  0  0  0  0  0  0  0
   38.1590   27.7850   36.0850 C   0  0  0  0  0  0  0  0  0  0  0  0
   37.4430   28.1060   37.3980 C   0  0  0  0  0  0  0  0  0  0  0  0
   34.4140   27.9190   36.0690 H   0  0  0  0  0  0  0  0  0  0  0  0
   35.6320   26.6540   35.5690 H   0  0  0  0  0  0  0  0  0  0  0  0
   35.6340   28.7640   34.1740 H   0  0  0  0  0  0  0  0  0  0  0  0
   35.8720   29.6990   35.6540 H   0  0  0  0  0  0  0  0  0  0  0  0
   38.0500   29.3810   34.7420 H   0  0  0  0  0  0  0  0  0  0  0  0
   38.0570   26.7000   35.9420 H   0  0  0  0  0  0  0  0  0  0  0  0
   39.2100   28.0810   36.1090 H   0  0  0  0  0  0  0  0  0  0  0  0
   37.9460   27.6090   38.2280 H   0  0  0  0  0  0  0  0  0  0  0  0
   37.5730   29.2120   37.5570 H   0  0  0  0  0  0  0  0  0  0  0  0
   37.8830   25.4250   40.3900 C   0  0  0  0  0  0  0  0  0  0  0  0
   38.1650   24.6010   41.1070 H   0  0  0  0  0  0  0  0  0  0  0  0
   38.7320   25.5470   39.7380 H   0  0  0  0  0  0  0  0  0  0  0  0
   36.8350   27.4510   43.3660 C   0  0  0  0  0  0  0  0  0  0  0  0
   37.1040   26.3440   42.5320 C   0  0  0  0  0  0  0  0  0  0  0  0
   37.5970   26.5900   41.2880 C   0  0  0  0  0  0  0  0  0  0  0  0
   37.8120   27.8790   40.8930 N   0  0  0  0  0  0  0  0  0  0  0  0
   37.5580   28.9010   41.6770 C   0  0  0  0  0  0  0  0  0  0  0  0
   37.0690   28.7050   42.9180 N   0  0  0  0  0  0  0  0  0  0  0  0
   36.4450   27.3110   44.3600 H   0  0  0  0  0  0  0  0  0  0  0  0
   36.8960   25.3690   42.9510 H   0  0  0  0  0  0  0  0  0  0  0  0
   36.8060   30.9720   40.5640 C   0  0  0  0  0  3  0  0  0  0  0  0
   37.7990   30.2820   41.2270 C   0  0  0  0  0  0  0  0  0  0  0  0
   39.0200   30.8980   41.4670 C   0  0  0  0  0  0  0  0  0  0  0  0
   39.7780   30.3580   41.9790 H   0  0  0  0  0  0  0  0  0  0  0  0
   39.1520   32.2020   41.0050 C   0  0  0  0  0  0  0  0  0  0  0  0
   40.2630   32.9480   41.1490 N   0  0  0  0  0  0  0  0  0  0  0  0
   41.1930   32.7180   41.6070 H   0  0  0  0  0  0  0  0  0  0  0  0
   40.0390   34.1370   40.5910 C   0  0  0  0  0  0  0  0  0  0  0  0
   40.7110   34.9840   40.5220 H   0  0  0  0  0  0  0  0  0  0  0  0
   38.7450   34.1610   40.0710 C   0  0  0  0  0  3  0  0  0  0  0  0
   38.1850   32.9160   40.3410 C   0  0  0  0  0  0  0  0  0  0  0  0
   36.9710   32.2850   40.1110 C   0  0  0  0  0  3  0  0  0  0  0  0
  1  2  1  0  0  0  0
  1 26  1  0  0  0  0
  3  1  1  0  0  0  0
  4  7  1  6  0  0  0
  4  1  1  0  0  0  0
  5  9  1  0  0  0  0
  5  6  1  0  0  0  0
  5  4  1  0  0  0  0
  6  4  1  0  0  0  0
  6 10  1  1  0  0  0
  8  5  1  0  0  0  0
 11 16  1  0  0  0  0
 11  6  1  0  0  0  0
 12 17  1  0  0  0  0
 12 11  1  0  0  0  0
 13 20  1  0  0  0  0
 13 12  1  0  0  0  0
 14 13  1  0  0  0  0
 14 15  1  0  0  0  0
 15 23  1  0  0  0  0
 15 16  1  0  0  0  0
 16 25  1  0  0  0  0
 16 24  1  0  0  0  0
 18 12  1  0  0  0  0
 19 13  1  0  0  0  0
 21 14  1  0  0  0  0
 22 15  1  0  0  0  0
 26 27  1  0  0  0  0
 26 31  1  0  0  0  0
 28 26  1  0  0  0  0
 29 35  1  0  0  0  0
 30 36  1  0  0  0  0
 30 29  2  0  0  0  0
 31 30  1  0  0  0  0
 32 31  2  0  0  0  0
 32 33  1  0  0  0  0
 33 34  2  0  0  0  0
 34 29  1  0  0  0  0
 37 38  1  0  0  0  0
 38 39  2  0  0  0  0
 38 33  1  0  0  0  0
 39 40  1  0  0  0  0
 41 42  1  0  0  0  0
 41 39  1  0  0  0  0
 42 43  1  0  0  0  0
 44 42  1  0  0  0  0
 45 44  1  0  0  0  0
 46 47  1  0  0  0  0
 46 44  2  0  0  0  0
 47 41  2  0  0  0  0
 48 47  1  0  0  0  0
 48 37  2  0  0  0  0
M  END
>  <minimizedAffinity>
-5.90947056

$$$$

 OpenBabel03252502493D

 48 52  0  0  1  0  0  0  0  0999 V2000
   37.1820   25.3740   38.7240 C   0  0  0  0  0  0  0  0  0  0  0  0
   37.9130   26.0370   38.2160 H   0  0  0  0  0  0  0  0  0  0  0  0
   37.4990   24.3400   38.4520 H   0  0  0  0  0  0  0  0  0  0  0  0
   37.2410   25.6320   40.1930 C   0  0  1  0  0  0  0  0  0  0  0  0
   38.1150   24.7400   41.0210 C   0  0  0  0  0  0  0  0  0  0  0  0
   38.4900   26.1490   40.7400 C   0  0  2  0  0  0  0  0  0  0  0  0
   36.2770   25.8570   40.6370 H   0  0  0  0  0  0  0  0  0  0  0  0
   37.7780   24.4080   42.0220 H   0  0  0  0  0  0  0  0  0  0  0  0
   38.6420   23.9160   40.4800 H   0  0  0  0  0  0  0  0  0  0  0  0
   39.4180   26.2750   40.1960 H   0  0  0  0  0  0  0  0  0  0  0  0
   38.2910   27.0340   41.8860 N   0  0  0  0  0  0  0  0  0  0  0  0
   37.0490   26.8750   42.5490 C   0  0  0  0  0  0  0  0  0  0  0  0
   37.0500   27.8890   43.6790 C   0  0  0  0  0  0  0  0  0  0  0  0
   37.1050   29.2220   43.1910 N   0  0  0  0  0  0  0  0  0  0  0  0
   37.7780   29.3610   41.9130 C   0  0  0  0  0  0  0  0  0  0  0  0
   38.8750   28.3030   41.7900 C   0  0  0  0  0  0  0  0  0  0  0  0
   37.0000   25.8690   43.0290 H   0  0  0  0  0  0  0  0  0  0  0  0
   36.2140   27.0200   41.8500 H   0  0  0  0  0  0  0  0  0  0  0  0
   36.1200   27.7310   44.2760 H   0  0  0  0  0  0  0  0  0  0  0  0
   37.8790   27.5880   44.3480 H   0  0  0  0  0  0  0  0  0  0  0  0
   37.4420   29.8880   43.9060 H   0  0  0  0  0  0  0  0  0  0  0  0
   37.0870   29.1800   41.0770 H   0  0  0  0  0  0  0  0  0  0  0  0
   38.1820   30.3750   41.8760 H   0  0  0  0  0  0  0  0  0  0  0  0
   39.4270   28.4450   40.8600 H   0  0  0  0  0  0  0  0  0  0  0  0
   39.5970   28.5080   42.6270 H   0  0  0  0  0  0  0  0  0  0  0  0
   35.7890   25.7160   38.2770 C   0  0  0  0  0  0  0  0  0  0  0  0
   35.5770   25.0340   37.4030 H   0  0  0  0  0  0  0  0  0  0  0  0
   34.9890   25.5440   38.9800 H   0  0  0  0  0  0  0  0  0  0  0  0
   35.0870   28.5980   35.9840 C   0  0  0  0  0  0  0  0  0  0  0  0
   35.0510   27.3080   36.5570 C   0  0  0  0  0  0  0  0  0  0  0  0
   35.8130   27.0810   37.6610 C   0  0  0  0  0  0  0  0  0  0  0  0
   36.5750   28.0920   38.1700 N   0  0  0  0  0  0  0  0  0  0  0  0
   36.6020   29.2880   37.6290 C   0  0  0  0  0  0  0  0  0  0  0  0
   35.8630   29.5580   36.5350 N   0  0  0  0  0  0  0  0  0  0  0  0
   34.5030   28.8300   35.1100 H   0  0  0  0  0  0  0  0  0  0  0  0
   34.4110   26.5870   36.0680 H   0  0  0  0  0  0  0  0  0  0  0  0
   38.8020   30.3340   38.0320 C   0  0  0  0  0  3  0  0  0  0  0  0
   37.4330   30.3620   38.1980 C   0  0  0  0  0  0  0  0  0  0  0  0
   36.8490   31.4070   38.9020 C   0  0  0  0  0  0  0  0  0  0  0  0
   35.7940   31.4190   39.0240 H   0  0  0  0  0  0  0  0  0  0  0  0
   37.7150   32.3720   39.4010 C   0  0  0  0  0  0  0  0  0  0  0  0
   37.3240   33.4500   40.1050 N   0  0  0  0  0  0  0  0  0  0  0  0
   36.3540   33.7640   40.4030 H   0  0  0  0  0  0  0  0  0  0  0  0
   38.4100   34.1560   40.4210 C   0  0  0  0  0  0  0  0  0  0  0  0
   38.4710   35.0800   40.9820 H   0  0  0  0  0  0  0  0  0  0  0  0
   39.5370   33.5150   39.9050 C   0  0  0  0  0  3  0  0  0  0  0  0
   39.0800   32.3730   39.2530 C   0  0  0  0  0  0  0  0  0  0  0  0
   39.6470   31.3220   38.5470 C   0  0  0  0  0  3  0  0  0  0  0  0
  1  4  1  0  0  0  0
  2  1  1  0  0  0  0
  3  1  1  0  0  0  0
  4  7  1  1  0  0  0
  4  6  1  0  0  0  0
  4  5  1  0  0  0  0
  5  8  1  0  0  0  0
  6 10  1  6  0  0  0
  6  5  1  0  0  0  0
  6 11  1  0  0  0  0
  9  5  1  0  0  0  0
 11 12  1  0  0  0  0
 12 17  1  0  0  0  0
 12 13  1  0  0  0  0
 13 19  1  0  0  0  0
 13 20  1  0  0  0  0
 14 13  1  0  0  0  0
 14 21  1  0  0  0  0
 15 14  1  0  0  0  0
 16 11  1  0  0  0  0
 16 15  1  0  0  0  0
 16 25  1  0  0  0  0
 18 12  1  0  0  0  0
 22 15  1  0  0  0  0
 23 15  1  0  0  0  0
 24 16  1  0  0  0  0
 26  1  1  0  0  0  0
 26 28  1  0  0  0  0
 27 26  1  0  0  0  0
 29 34  2  0  0  0  0
 29 30  1  0  0  0  0
 30 31  2  0  0  0  0
 31 32  1  0  0  0  0
 31 26  1  0  0  0  0
 33 32  2  0  0  0  0
 33 38  1  0  0  0  0
 34 33  1  0  0  0  0
 35 29  1  0  0  0  0
 36 30  1  0  0  0  0
 37 38  2  0  0  0  0
 37 48  1  0  0  0  0
 38 39  1  0  0  0  0
 39 40  1  0  0  0  0
 39 41  2  0  0  0  0
 41 42  1  0  0  0  0
 42 43  1  0  0  0  0
 42 44  1  0  0  0  0
 44 45  1  0  0  0  0
 46 44  2  0  0  0  0
 47 41  1  0  0  0  0
 47 46  1  0  0  0  0
 48 47  2  0  0  0  0
M  END
>  <minimizedAffinity>
-5.8483429

$$$$

 OpenBabel03252502493D

 48 52  0  0  1  0  0  0  0  0999 V2000
   37.0820   26.7500   42.9820 C   0  0  0  0  0  0  0  0  0  0  0  0
   36.6390   26.7590   41.9650 H   0  0  0  0  0  0  0  0  0  0  0  0
   36.3850   26.1280   43.5910 H   0  0  0  0  0  0  0  0  0  0  0  0
   38.4570   26.1720   42.9010 C   0  0  1  0  0  0  0  0  0  0  0  0
   38.5820   24.7300   42.5140 C   0  0  0  0  0  0  0  0  0  0  0  0
   38.9660   25.8190   41.5810 C   0  0  2  0  0  0  0  0  0  0  0  0
   39.1090   26.4800   43.7110 H   0  0  0  0  0  0  0  0  0  0  0  0
   39.3330   24.0860   43.0100 H   0  0  0  0  0  0  0  0  0  0  0  0
   37.6270   24.1740   42.3430 H   0  0  0  0  0  0  0  0  0  0  0  0
   38.4040   25.8470   40.6560 H   0  0  0  0  0  0  0  0  0  0  0  0
   40.4120   25.9880   41.4610 N   0  0  0  0  0  0  0  0  0  0  0  0
   41.0260   25.1590   40.4890 C   0  0  0  0  0  0  0  0  0  0  0  0
   42.5090   25.4850   40.5450 C   0  0  0  0  0  0  0  0  0  0  0  0
   43.0730   25.1550   41.8060 N   0  0  0  0  0  0  0  0  0  0  0  0
   42.1390   25.2220   42.9140 C   0  0  0  0  0  0  0  0  0  0  0  0
   41.0930   26.3050   42.6420 C   0  0  0  0  0  0  0  0  0  0  0  0
   40.6790   25.4470   39.4690 H   0  0  0  0  0  0  0  0  0  0  0  0
   40.8170   24.1000   40.6940 H   0  0  0  0  0  0  0  0  0  0  0  0
   43.0110   24.9100   39.7300 H   0  0  0  0  0  0  0  0  0  0  0  0
   42.5910   26.5470   40.2450 H   0  0  0  0  0  0  0  0  0  0  0  0
   43.9570   25.6610   41.9850 H   0  0  0  0  0  0  0  0  0  0  0  0
   41.5800   24.2810   43.0200 H   0  0  0  0  0  0  0  0  0  0  0  0
   42.7250   25.4340   43.8110 H   0  0  0  0  0  0  0  0  0  0  0  0
   40.4280   26.4040   43.5010 H   0  0  0  0  0  0  0  0  0  0  0  0
   41.6640   27.2710   42.5630 H   0  0  0  0  0  0  0  0  0  0  0  0
   37.2310   28.1580   43.4850 C   0  0  0  0  0  0  0  0  0  0  0  0
   36.1900   28.4890   43.7670 H   0  0  0  0  0  0  0  0  0  0  0  0
   37.8320   28.3060   44.3680 H   0  0  0  0  0  0  0  0  0  0  0  0
   38.8550   30.8130   41.3930 C   0  0  0  0  0  0  0  0  0  0  0  0
   38.5410   29.9860   42.4950 C   0  0  0  0  0  0  0  0  0  0  0  0
   37.5790   29.0390   42.3240 C   0  0  0  0  0  0  0  0  0  0  0  0
   36.9590   28.9210   41.1150 N   0  0  0  0  0  0  0  0  0  0  0  0
   37.2590   29.6960   40.0970 C   0  0  0  0  0  0  0  0  0  0  0  0
   38.2050   30.6470   40.2200 N   0  0  0  0  0  0  0  0  0  0  0  0
   39.6090   31.5770   41.4760 H   0  0  0  0  0  0  0  0  0  0  0  0
   39.0970   30.1700   43.4040 H   0  0  0  0  0  0  0  0  0  0  0  0
   35.2820   29.0690   38.7570 C   0  0  0  0  0  3  0  0  0  0  0  0
   36.5750   29.5480   38.8020 C   0  0  0  0  0  0  0  0  0  0  0  0
   37.2220   29.8880   37.6210 C   0  0  0  0  0  0  0  0  0  0  0  0
   38.2170   30.2560   37.6660 H   0  0  0  0  0  0  0  0  0  0  0  0
   36.4950   29.7140   36.4490 C   0  0  0  0  0  0  0  0  0  0  0  0
   36.9630   29.9910   35.2190 N   0  0  0  0  0  0  0  0  0  0  0  0
   37.9070   30.3690   34.9090 H   0  0  0  0  0  0  0  0  0  0  0  0
   36.0060   29.7070   34.3370 C   0  0  0  0  0  0  0  0  0  0  0  0
   36.0340   29.8070   33.2590 H   0  0  0  0  0  0  0  0  0  0  0  0
   34.8840   29.2320   35.0180 C   0  0  0  0  0  3  0  0  0  0  0  0
   35.2090   29.2400   36.3710 C   0  0  0  0  0  0  0  0  0  0  0  0
   34.5780   28.9050   37.5600 C   0  0  0  0  0  3  0  0  0  0  0  0
  1 26  1  0  0  0  0
  1  3  1  0  0  0  0
  2  1  1  0  0  0  0
  4  1  1  0  0  0  0
  4  7  1  1  0  0  0
  5  4  1  0  0  0  0
  5  8  1  0  0  0  0
  6 10  1  6  0  0  0
  6  5  1  0  0  0  0
  6  4  1  0  0  0  0
  9  5  1  0  0  0  0
 11  6  1  0  0  0  0
 11 16  1  0  0  0  0
 12 13  1  0  0  0  0
 12 18  1  0  0  0  0
 12 11  1  0  0  0  0
 13 14  1  0  0  0  0
 14 21  1  0  0  0  0
 14 15  1  0  0  0  0
 15 22  1  0  0  0  0
 15 23  1  0  0  0  0
 16 15  1  0  0  0  0
 16 24  1  0  0  0  0
 17 12  1  0  0  0  0
 19 13  1  0  0  0  0
 20 13  1  0  0  0  0
 25 16  1  0  0  0  0
 26 27  1  0  0  0  0
 26 28  1  0  0  0  0
 29 35  1  0  0  0  0
 29 30  1  0  0  0  0
 30 36  1  0  0  0  0
 31 30  2  0  0  0  0
 31 26  1  0  0  0  0
 32 31  1  0  0  0  0
 33 34  1  0  0  0  0
 33 32  2  0  0  0  0
 34 29  2  0  0  0  0
 37 38  1  0  0  0  0
 38 33  1  0  0  0  0
 39 40  1  0  0  0  0
 39 38  2  0  0  0  0
 41 39  1  0  0  0  0
 42 41  1  0  0  0  0
 43 42  1  0  0  0  0
 44 46  2  0  0  0  0
 44 42  1  0  0  0  0
 45 44  1  0  0  0  0
 46 47  1  0  0  0  0
 47 41  2  0  0  0  0
 47 48  1  0  0  0  0
 48 37  2  0  0  0  0
M  END
>  <minimizedAffinity>
-5.75920677

$$$$

 OpenBabel03252502493D

 48 52  0  0  1  0  0  0  0  0999 V2000
   38.8130   27.0020   43.6770 C   0  0  0  0  0  0  0  0  0  0  0  0
   38.8370   26.4610   44.6460 H   0  0  0  0  0  0  0  0  0  0  0  0
   39.6130   27.7750   43.7620 H   0  0  0  0  0  0  0  0  0  0  0  0
   39.0630   26.0250   42.5760 C   0  0  1  0  0  0  0  0  0  0  0  0
   39.6610   24.7020   42.9440 C   0  0  0  0  0  0  0  0  0  0  0  0
   38.2380   24.8240   42.5360 C   0  0  2  0  0  0  0  0  0  0  0  0
   39.4780   26.4740   41.6790 H   0  0  0  0  0  0  0  0  0  0  0  0
   40.4230   24.2370   42.2900 H   0  0  0  0  0  0  0  0  0  0  0  0
   39.9100   24.5490   44.0230 H   0  0  0  0  0  0  0  0  0  0  0  0
   37.5200   24.5220   43.2890 H   0  0  0  0  0  0  0  0  0  0  0  0
   37.9880   24.3450   41.1790 N   0  0  0  0  0  0  0  0  0  0  0  0
   39.1120   24.3920   40.3170 C   0  0  0  0  0  0  0  0  0  0  0  0
   38.6270   23.8720   38.9750 C   0  0  0  0  0  0  0  0  0  0  0  0
   37.6260   24.7090   38.4160 N   0  0  0  0  0  0  0  0  0  0  0  0
   36.8310   25.4240   39.3960 C   0  0  0  0  0  0  0  0  0  0  0  0
   36.7060   24.5860   40.6700 C   0  0  0  0  0  0  0  0  0  0  0  0
   39.8920   23.6760   40.6700 H   0  0  0  0  0  0  0  0  0  0  0  0
   39.5120   25.4130   40.2560 H   0  0  0  0  0  0  0  0  0  0  0  0
   39.5110   23.8130   38.2970 H   0  0  0  0  0  0  0  0  0  0  0  0
   38.3290   22.8210   39.1550 H   0  0  0  0  0  0  0  0  0  0  0  0
   37.0570   24.2200   37.7050 H   0  0  0  0  0  0  0  0  0  0  0  0
   37.3190   26.3620   39.6980 H   0  0  0  0  0  0  0  0  0  0  0  0
   35.8590   25.6170   38.9370 H   0  0  0  0  0  0  0  0  0  0  0  0
   36.0550   25.0900   41.3850 H   0  0  0  0  0  0  0  0  0  0  0  0
   36.1800   23.6400   40.3660 H   0  0  0  0  0  0  0  0  0  0  0  0
   37.4430   27.5750   43.4490 C   0  0  0  0  0  0  0  0  0  0  0  0
   36.8440   26.7460   42.9730 H   0  0  0  0  0  0  0  0  0  0  0  0
   36.8820   27.8750   44.3190 H   0  0  0  0  0  0  0  0  0  0  0  0
   38.4470   30.6340   41.5270 C   0  0  0  0  0  0  0  0  0  0  0  0
   38.3700   29.6670   42.5530 C   0  0  0  0  0  0  0  0  0  0  0  0
   37.5380   28.6070   42.3660 C   0  0  0  0  0  0  0  0  0  0  0  0
   36.8170   28.5140   41.2120 N   0  0  0  0  0  0  0  0  0  0  0  0
   36.8950   29.4200   40.2640 C   0  0  0  0  0  0  0  0  0  0  0  0
   37.7070   30.4860   40.4060 N   0  0  0  0  0  0  0  0  0  0  0  0
   39.0900   31.4920   41.6250 H   0  0  0  0  0  0  0  0  0  0  0  0
   38.9880   29.8440   43.4230 H   0  0  0  0  0  0  0  0  0  0  0  0
   36.7140   29.4740   37.8020 C   0  0  0  0  0  3  0  0  0  0  0  0
   36.1060   29.2960   39.0280 C   0  0  0  0  0  0  0  0  0  0  0  0
   34.7500   29.0010   39.0840 C   0  0  0  0  0  0  0  0  0  0  0  0
   34.2910   28.8660   40.0320 H   0  0  0  0  0  0  0  0  0  0  0  0
   34.0900   28.9040   37.8640 C   0  0  0  0  0  0  0  0  0  0  0  0
   32.7810   28.6260   37.7320 N   0  0  0  0  0  0  0  0  0  0  0  0
   32.0380   28.4390   38.4670 H   0  0  0  0  0  0  0  0  0  0  0  0
   32.4890   28.6130   36.4310 C   0  0  0  0  0  0  0  0  0  0  0  0
   31.5330   28.4250   35.9590 H   0  0  0  0  0  0  0  0  0  0  0  0
   33.6460   28.8900   35.7010 C   0  0  0  0  0  3  0  0  0  0  0  0
   34.6660   29.0760   36.6300 C   0  0  0  0  0  0  0  0  0  0  0  0
   36.0210   29.3700   36.5920 C   0  0  0  0  0  3  0  0  0  0  0  0
  1  3  1  0  0  0  0
  1  2  1  0  0  0  0
  4  7  1  6  0  0  0
  4  5  1  0  0  0  0
  4  1  1  0  0  0  0
  5  9  1  0  0  0  0
  6  4  1  0  0  0  0
  6  5  1  0  0  0  0
  6 10  1  1  0  0  0
  8  5  1  0  0  0  0
 11  6  1  0  0  0  0
 12 17  1  0  0  0  0
 12 11  1  0  0  0  0
 13 20  1  0  0  0  0
 13 12  1  0  0  0  0
 14 13  1  0  0  0  0
 14 15  1  0  0  0  0
 15 22  1  0  0  0  0
 15 16  1  0  0  0  0
 16 11  1  0  0  0  0
 16 24  1  0  0  0  0
 18 12  1  0  0  0  0
 19 13  1  0  0  0  0
 21 14  1  0  0  0  0
 23 15  1  0  0  0  0
 25 16  1  0  0  0  0
 26  1  1  0  0  0  0
 26 28  1  0  0  0  0
 27 26  1  0  0  0  0
 29 35  1  0  0  0  0
 29 30  1  0  0  0  0
 30 36  1  0  0  0  0
 31 30  2  0  0  0  0
 31 26  1  0  0  0  0
 32 31  1  0  0  0  0
 33 34  1  0  0  0  0
 33 32  2  0  0  0  0
 34 29  2  0  0  0  0
 37 38  1  0  0  0  0
 38 39  2  0  0  0  0
 38 33  1  0  0  0  0
 39 40  1  0  0  0  0
 41 39  1  0  0  0  0
 42 41  1  0  0  0  0
 42 43  1  0  0  0  0
 44 42  1  0  0  0  0
 45 44  1  0  0  0  0
 46 44  2  0  0  0  0
 46 47  1  0  0  0  0
 47 41  2  0  0  0  0
 48 47  1  0  0  0  0
 48 37  2  0  0  0  0
M  END
>  <minimizedAffinity>
-5.61785984

$$$$

 OpenBabel03252502493D

 48 52  0  0  1  0  0  0  0  0999 V2000
   38.0900   26.9500   43.0140 C   0  0  0  0  0  0  0  0  0  0  0  0
   38.2920   26.5550   44.0310 H   0  0  0  0  0  0  0  0  0  0  0  0
   38.8520   27.7500   42.8620 H   0  0  0  0  0  0  0  0  0  0  0  0
   38.2160   25.8330   42.0320 C   0  0  1  0  0  0  0  0  0  0  0  0
   38.7410   24.5220   42.5340 C   0  0  0  0  0  0  0  0  0  0  0  0
   37.3110   24.6990   42.1750 C   0  0  2  0  0  0  0  0  0  0  0  0
   38.6140   26.1400   41.0690 H   0  0  0  0  0  0  0  0  0  0  0  0
   39.4360   23.9280   41.9100 H   0  0  0  0  0  0  0  0  0  0  0  0
   39.0340   24.4820   43.6120 H   0  0  0  0  0  0  0  0  0  0  0  0
   36.6140   24.5430   42.9890 H   0  0  0  0  0  0  0  0  0  0  0  0
   36.9600   24.0810   40.8980 N   0  0  0  0  0  0  0  0  0  0  0  0
   37.7010   22.9160   40.5810 C   0  0  0  0  0  0  0  0  0  0  0  0
   37.1900   22.4570   39.2260 C   0  0  0  0  0  0  0  0  0  0  0  0
   37.4490   23.4170   38.2130 N   0  0  0  0  0  0  0  0  0  0  0  0
   37.5050   24.7870   38.6880 C   0  0  0  0  0  0  0  0  0  0  0  0
   36.5630   24.9570   39.8810 C   0  0  0  0  0  0  0  0  0  0  0  0
   37.4560   22.1000   41.3020 H   0  0  0  0  0  0  0  0  0  0  0  0
   38.7790   23.1300   40.5770 H   0  0  0  0  0  0  0  0  0  0  0  0
   37.6930   21.4900   38.9850 H   0  0  0  0  0  0  0  0  0  0  0  0
   36.1250   22.1990   39.3830 H   0  0  0  0  0  0  0  0  0  0  0  0
   36.8350   23.2950   37.3890 H   0  0  0  0  0  0  0  0  0  0  0  0
   38.5100   25.0390   39.0580 H   0  0  0  0  0  0  0  0  0  0  0  0
   37.2230   25.4260   37.8490 H   0  0  0  0  0  0  0  0  0  0  0  0
   36.5520   26.0000   40.2010 H   0  0  0  0  0  0  0  0  0  0  0  0
   35.5320   24.7270   39.4950 H   0  0  0  0  0  0  0  0  0  0  0  0
   36.6720   27.4430   42.9330 C   0  0  0  0  0  0  0  0  0  0  0  0
   36.0860   26.6010   42.4640 H   0  0  0  0  0  0  0  0  0  0  0  0
   36.1720   27.6630   43.8620 H   0  0  0  0  0  0  0  0  0  0  0  0
   35.5140   29.5760   40.0740 C   0  0  0  0  0  0  0  0  0  0  0  0
   35.5580   28.5480   41.0420 C   0  0  0  0  0  0  0  0  0  0  0  0
   36.6100   28.5310   41.9040 C   0  0  0  0  0  0  0  0  0  0  0  0
   37.5740   29.4920   41.8070 N   0  0  0  0  0  0  0  0  0  0  0  0
   37.5240   30.4430   40.9030 C   0  0  0  0  0  0  0  0  0  0  0  0
   36.5000   30.5000   40.0290 N   0  0  0  0  0  0  0  0  0  0  0  0
   34.7030   29.6350   39.3690 H   0  0  0  0  0  0  0  0  0  0  0  0
   34.7390   27.8420   41.0250 H   0  0  0  0  0  0  0  0  0  0  0  0
   38.2530   32.7590   40.4560 C   0  0  0  0  0  3  0  0  0  0  0  0
   38.5760   31.4690   40.8200 C   0  0  0  0  0  0  0  0  0  0  0  0
   39.8970   31.1480   41.1070 C   0  0  0  0  0  0  0  0  0  0  0  0
   40.1360   30.1510   41.3860 H   0  0  0  0  0  0  0  0  0  0  0  0
   40.8180   32.1830   41.0010 C   0  0  0  0  0  0  0  0  0  0  0  0
   42.1360   32.0510   41.2410 N   0  0  0  0  0  0  0  0  0  0  0  0
   42.7020   31.2020   41.5360 H   0  0  0  0  0  0  0  0  0  0  0  0
   42.7130   33.2360   41.0440 C   0  0  0  0  0  0  0  0  0  0  0  0
   43.7590   33.4990   41.1440 H   0  0  0  0  0  0  0  0  0  0  0  0
   41.7400   34.1610   40.6650 C   0  0  0  0  0  3  0  0  0  0  0  0
   40.5290   33.4750   40.6410 C   0  0  0  0  0  0  0  0  0  0  0  0
   39.2050   33.7780   40.3580 C   0  0  0  0  0  3  0  0  0  0  0  0
  1  2  1  0  0  0  0
  3  1  1  0  0  0  0
  4  7  1  6  0  0  0
  4  6  1  0  0  0  0
  4  5  1  0  0  0  0
  4  1  1  0  0  0  0
  5  9  1  0  0  0  0
  6  5  1  0  0  0  0
  6 10  1  1  0  0  0
  8  5  1  0  0  0  0
 11  6  1  0  0  0  0
 12 11  1  0  0  0  0
 12 17  1  0  0  0  0
 13 20  1  0  0  0  0
 13 12  1  0  0  0  0
 14 15  1  0  0  0  0
 14 13  1  0  0  0  0
 15 22  1  0  0  0  0
 15 16  1  0  0  0  0
 16 24  1  0  0  0  0
 16 11  1  0  0  0  0
 18 12  1  0  0  0  0
 19 13  1  0  0  0  0
 21 14  1  0  0  0  0
 23 15  1  0  0  0  0
 25 16  1  0  0  0  0
 26  1  1  0  0  0  0
 26 28  1  0  0  0  0
 27 26  1  0  0  0  0
 29 30  1  0  0  0  0
 30 31  2  0  0  0  0
 31 26  1  0  0  0  0
 32 31  1  0  0  0  0
 33 32  2  0  0  0  0
 34 29  2  0  0  0  0
 34 33  1  0  0  0  0
 35 29  1  0  0  0  0
 36 30  1  0  0  0  0
 37 38  1  0  0  0  0
 38 33  1  0  0  0  0
 38 39  2  0  0  0  0
 39 40  1  0  0  0  0
 41 39  1  0  0  0  0
 41 42  1  0  0  0  0
 42 43  1  0  0  0  0
 44 45  1  0  0  0  0
 44 42  1  0  0  0  0
 46 44  2  0  0  0  0
 47 46  1  0  0  0  0
 47 41  2  0  0  0  0
 48 37  2  0  0  0  0
 48 47  1  0  0  0  0
M  END
>  <minimizedAffinity>
-5.57860899

$$$$

 OpenBabel03252502493D

 48 52  0  0  1  0  0  0  0  0999 V2000
   36.4480   30.3250   38.3860 C   0  0  0  0  0  0  0  0  0  0  0  0
   35.9440   29.5940   37.7220 H   0  0  0  0  0  0  0  0  0  0  0  0
   35.7070   31.1490   38.5170 H   0  0  0  0  0  0  0  0  0  0  0  0
   36.7930   29.6460   39.6710 C   0  0  1  0  0  0  0  0  0  0  0  0
   35.9370   29.9400   40.8650 C   0  0  0  0  0  0  0  0  0  0  0  0
   35.8740   28.6300   40.1690 C   0  0  2  0  0  0  0  0  0  0  0  0
   37.8590   29.6150   39.8760 H   0  0  0  0  0  0  0  0  0  0  0  0
   36.3990   30.0550   41.8630 H   0  0  0  0  0  0  0  0  0  0  0  0
   35.1110   30.6780   40.7160 H   0  0  0  0  0  0  0  0  0  0  0  0
   34.9090   28.3850   39.7440 H   0  0  0  0  0  0  0  0  0  0  0  0
   36.5460   27.5590   40.9010 N   0  0  0  0  0  0  0  0  0  0  0  0
   37.0640   27.9400   42.1640 C   0  0  0  0  0  0  0  0  0  0  0  0
   37.7230   26.6960   42.7330 C   0  0  0  0  0  0  0  0  0  0  0  0
   38.8160   26.2670   41.9360 N   0  0  0  0  0  0  0  0  0  0  0  0
   38.6990   26.6080   40.5300 C   0  0  0  0  0  0  0  0  0  0  0  0
   37.2250   26.6150   40.1220 C   0  0  0  0  0  0  0  0  0  0  0  0
   36.2280   28.1980   42.8570 H   0  0  0  0  0  0  0  0  0  0  0  0
   37.7640   28.7800   42.0600 H   0  0  0  0  0  0  0  0  0  0  0  0
   38.0660   26.9390   43.7680 H   0  0  0  0  0  0  0  0  0  0  0  0
   36.9050   25.9600   42.8640 H   0  0  0  0  0  0  0  0  0  0  0  0
   39.0540   25.2730   42.0970 H   0  0  0  0  0  0  0  0  0  0  0  0
   39.0720   27.6240   40.3350 H   0  0  0  0  0  0  0  0  0  0  0  0
   39.2740   25.8640   39.9750 H   0  0  0  0  0  0  0  0  0  0  0  0
   37.1360   26.8060   39.0520 H   0  0  0  0  0  0  0  0  0  0  0  0
   36.8520   25.5680   40.2950 H   0  0  0  0  0  0  0  0  0  0  0  0
   37.7420   30.7690   37.7660 C   0  0  0  0  0  0  0  0  0  0  0  0
   38.4830   29.9490   37.9940 H   0  0  0  0  0  0  0  0  0  0  0  0
   37.7610   30.8880   36.6950 H   0  0  0  0  0  0  0  0  0  0  0  0
   37.8660   33.9180   39.7980 C   0  0  0  0  0  0  0  0  0  0  0  0
   37.3640   32.8180   39.0690 C   0  0  0  0  0  0  0  0  0  0  0  0
   38.2610   31.9390   38.5450 C   0  0  0  0  0  0  0  0  0  0  0  0
   39.5960   32.1470   38.7370 N   0  0  0  0  0  0  0  0  0  0  0  0
   40.0520   33.1750   39.4160 C   0  0  0  0  0  0  0  0  0  0  0  0
   39.2000   34.0700   39.9530 N   0  0  0  0  0  0  0  0  0  0  0  0
   37.1990   34.6420   40.2330 H   0  0  0  0  0  0  0  0  0  0  0  0
   36.2880   32.7540   38.9820 H   0  0  0  0  0  0  0  0  0  0  0  0
   42.0360   33.3260   40.8780 C   0  0  0  0  0  3  0  0  0  0  0  0
   41.4980   33.3760   39.6090 C   0  0  0  0  0  0  0  0  0  0  0  0
   42.3270   33.6160   38.5210 C   0  0  0  0  0  0  0  0  0  0  0  0
   41.9030   33.6520   37.5480 H   0  0  0  0  0  0  0  0  0  0  0  0
   43.6760   33.7930   38.8030 C   0  0  0  0  0  0  0  0  0  0  0  0
   44.6190   34.0340   37.8750 N   0  0  0  0  0  0  0  0  0  0  0  0
   44.5390   34.1320   36.8200 H   0  0  0  0  0  0  0  0  0  0  0  0
   45.7930   34.1500   38.4950 C   0  0  0  0  0  0  0  0  0  0  0  0
   46.7660   34.3440   38.0610 H   0  0  0  0  0  0  0  0  0  0  0  0
   45.6030   33.9780   39.8670 C   0  0  0  0  0  3  0  0  0  0  0  0
   44.2430   33.7500   40.0530 C   0  0  0  0  0  0  0  0  0  0  0  0
   43.3990   33.5090   41.1280 C   0  0  0  0  0  3  0  0  0  0  0  0
  1  3  1  0  0  0  0
  1  4  1  0  0  0  0
  2  1  1  0  0  0  0
  4  7  1  1  0  0  0
  4  6  1  0  0  0  0
  4  5  1  0  0  0  0
  5  8  1  0  0  0  0
  6 10  1  6  0  0  0
  6  5  1  0  0  0  0
  6 11  1  0  0  0  0
  9  5  1  0  0  0  0
 11 12  1  0  0  0  0
 12 13  1  0  0  0  0
 12 17  1  0  0  0  0
 13 20  1  0  0  0  0
 13 19  1  0  0  0  0
 14 21  1  0  0  0  0
 14 13  1  0  0  0  0
 15 14  1  0  0  0  0
 16 25  1  0  0  0  0
 16 15  1  0  0  0  0
 16 11  1  0  0  0  0
 18 12  1  0  0  0  0
 22 15  1  0  0  0  0
 23 15  1  0  0  0  0
 24 16  1  0  0  0  0
 26 27  1  0  0  0  0
 26  1  1  0  0  0  0
 26 31  1  0  0  0  0
 28 26  1  0  0  0  0
 29 34  1  0  0  0  0
 29 35  1  0  0  0  0
 30 29  2  0  0  0  0
 31 32  2  0  0  0  0
 31 30  1  0  0  0  0
 32 33  1  0  0  0  0
 33 38  1  0  0  0  0
 33 34  2  0  0  0  0
 36 30  1  0  0  0  0
 37 48  1  0  0  0  0
 38 37  2  0  0  0  0
 39 41  2  0  0  0  0
 39 38  1  0  0  0  0
 40 39  1  0  0  0  0
 41 47  1  0  0  0  0
 42 44  1  0  0  0  0
 42 41  1  0  0  0  0
 43 42  1  0  0  0  0
 44 46  2  0  0  0  0
 45 44  1  0  0  0  0
 46 47  1  0  0  0  0
 47 48  2  0  0  0  0
M  END
>  <minimizedAffinity>
-5.56520081

$$$$
