
 OpenBabel03252502033D

 37 41  0  0  0  0  0  0  0  0999 V2000
   37.1310   32.2680   40.0650 C   0  0  0  0  0  0  0  0  0  0  0  0
   36.8370   31.0600   40.6750 C   0  0  0  0  0  0  0  0  0  0  0  0
   37.7830   30.0840   40.5640 C   0  0  0  0  0  0  0  0  0  0  0  0
   38.9190   30.3140   39.8980 N   0  0  0  0  0  0  0  0  0  0  0  0
   39.2010   31.4680   39.3130 C   0  0  0  0  0  0  0  0  0  0  0  0
   38.2810   32.4190   39.4210 N   0  0  0  0  0  0  0  0  0  0  0  0
   36.3640   33.0500   40.1590 H   0  0  0  0  0  0  0  0  0  0  0  0
   40.3610   31.9230   38.5480 C   0  0  0  0  0  0  0  0  0  0  0  0
   40.8250   33.1940   38.5490 N   0  0  0  0  0  0  0  0  0  0  0  0
   41.8740   33.6380   37.8670 C   0  0  0  0  0  0  0  0  0  0  0  0
   42.5770   32.7900   37.0870 N   0  0  0  0  0  0  0  0  0  0  0  0
   42.2170   31.4910   36.9980 C   0  0  0  0  0  0  0  0  0  0  0  0
   42.9390   30.6190   36.1960 C   0  0  0  0  0  0  0  0  0  0  0  0
   42.5900   29.3000   36.0930 C   0  0  0  0  0  0  0  0  0  0  0  0
   41.5000   28.8810   36.8150 C   0  0  0  0  0  0  0  0  0  0  0  0
   40.8080   29.7760   37.5990 C   0  0  0  0  0  0  0  0  0  0  0  0
   41.1220   31.1160   37.7350 C   0  0  0  0  0  0  0  0  0  0  0  0
   42.1630   34.6870   37.9400 H   0  0  0  0  0  0  0  0  0  0  0  0
   43.7800   31.0520   35.6710 H   0  0  0  0  0  0  0  0  0  0  0  0
   43.1630   28.6570   35.4710 H   0  0  0  0  0  0  0  0  0  0  0  0
   41.1760   27.8470   36.7730 H   0  0  0  0  0  0  0  0  0  0  0  0
   39.9430   29.3820   38.1540 H   0  0  0  0  0  0  0  0  0  0  0  0
   37.7030   28.4750   42.4990 C   0  0  0  0  0  3  0  0  0  0  0  0
   37.5890   28.7850   41.1600 C   0  0  0  0  0  0  0  0  0  0  0  0
   37.2550   27.7740   40.2500 C   0  0  0  0  0  0  0  0  0  0  0  0
   37.1510   27.9500   39.2020 H   0  0  0  0  0  0  0  0  0  0  0  0
   37.0470   26.4920   40.7140 C   0  0  0  0  0  0  0  0  0  0  0  0
   36.7220   25.3290   40.1200 N   0  0  0  0  0  0  0  0  0  0  0  0
   36.5540   25.1770   39.1040 H   0  0  0  0  0  0  0  0  0  0  0  0
   36.6230   24.3100   40.9830 C   0  0  0  0  0  0  0  0  0  0  0  0
   36.3780   23.2790   40.7770 H   0  0  0  0  0  0  0  0  0  0  0  0
   36.9000   24.8130   42.2570 C   0  0  0  0  0  3  0  0  0  0  0  0
   37.1540   26.1550   42.0500 C   0  0  0  0  0  0  0  0  0  0  0  0
   37.4900   27.1980   42.9130 C   0  0  0  0  0  3  0  0  0  0  0  0
   35.6240   30.8810   41.3620 N   0  0  0  0  0  0  0  0  0  0  0  0
   34.7020   31.2280   40.9700 H   0  0  0  0  0  0  0  0  0  0  0  0
   35.6230   30.3910   42.2910 H   0  0  0  0  0  0  0  0  0  0  0  0
  1  7  1  0  0  0  0
  1  2  1  0  0  0  0
  2 35  1  0  0  0  0
  3  2  2  0  0  0  0
  3 24  1  0  0  0  0
  4  3  1  0  0  0  0
  5  6  1  0  0  0  0
  5  4  2  0  0  0  0
  6  1  2  0  0  0  0
  8  9  1  0  0  0  0
  8  5  1  0  0  0  0
 10 18  1  0  0  0  0
 10  9  2  0  0  0  0
 11 10  1  0  0  0  0
 12 11  2  0  0  0  0
 12 17  1  0  0  0  0
 13 12  1  0  0  0  0
 14 13  2  0  0  0  0
 14 15  1  0  0  0  0
 15 16  2  0  0  0  0
 16 17  1  0  0  0  0
 16 22  1  0  0  0  0
 17  8  2  0  0  0  0
 19 13  1  0  0  0  0
 20 14  1  0  0  0  0
 21 15  1  0  0  0  0
 23 34  1  0  0  0  0
 24 23  2  0  0  0  0
 25 27  2  0  0  0  0
 25 24  1  0  0  0  0
 26 25  1  0  0  0  0
 27 33  1  0  0  0  0
 28 27  1  0  0  0  0
 28 30  1  0  0  0  0
 29 28  1  0  0  0  0
 30 32  2  0  0  0  0
 31 30  1  0  0  0  0
 33 32  1  0  0  0  0
 33 34  2  0  0  0  0
 35 37  1  0  0  0  0
 36 35  1  0  0  0  0
M  END
>  <minimizedAffinity>
-7.43166685

$$$$

 OpenBabel03252502033D

 37 41  0  0  0  0  0  0  0  0999 V2000
   36.1370   30.6810   40.6990 C   0  0  0  0  0  0  0  0  0  0  0  0
   37.1630   31.5780   40.4520 C   0  0  0  0  0  0  0  0  0  0  0  0
   38.4130   31.0460   40.3320 C   0  0  0  0  0  0  0  0  0  0  0  0
   38.6020   29.7280   40.4530 N   0  0  0  0  0  0  0  0  0  0  0  0
   37.6230   28.8680   40.6900 C   0  0  0  0  0  0  0  0  0  0  0  0
   36.4060   29.3860   40.8060 N   0  0  0  0  0  0  0  0  0  0  0  0
   35.1330   31.1160   40.7940 H   0  0  0  0  0  0  0  0  0  0  0  0
   37.6110   27.4150   40.8560 C   0  0  0  0  0  0  0  0  0  0  0  0
   36.8460   26.5710   40.1260 N   0  0  0  0  0  0  0  0  0  0  0  0
   36.8130   25.2500   40.2510 C   0  0  0  0  0  0  0  0  0  0  0  0
   37.5890   24.6410   41.1720 N   0  0  0  0  0  0  0  0  0  0  0  0
   38.4010   25.3730   41.9670 C   0  0  0  0  0  0  0  0  0  0  0  0
   39.2000   24.7470   42.9140 C   0  0  0  0  0  0  0  0  0  0  0  0
   40.0280   25.4700   43.7280 C   0  0  0  0  0  0  0  0  0  0  0  0
   40.0340   26.8340   43.5660 C   0  0  0  0  0  0  0  0  0  0  0  0
   39.2260   27.4180   42.6160 C   0  0  0  0  0  0  0  0  0  0  0  0
   38.3750   26.7310   41.7720 C   0  0  0  0  0  0  0  0  0  0  0  0
   36.1560   24.6610   39.6080 H   0  0  0  0  0  0  0  0  0  0  0  0
   39.1180   23.6700   42.9580 H   0  0  0  0  0  0  0  0  0  0  0  0
   40.6280   24.9630   44.4430 H   0  0  0  0  0  0  0  0  0  0  0  0
   40.6700   27.4590   44.1830 H   0  0  0  0  0  0  0  0  0  0  0  0
   39.2740   28.5140   42.5330 H   0  0  0  0  0  0  0  0  0  0  0  0
   40.3830   32.4540   41.0200 C   0  0  0  0  0  3  0  0  0  0  0  0
   39.5580   31.8820   40.0730 C   0  0  0  0  0  0  0  0  0  0  0  0
   39.8180   32.1080   38.7160 C   0  0  0  0  0  0  0  0  0  0  0  0
   39.2160   31.6940   37.9360 H   0  0  0  0  0  0  0  0  0  0  0  0
   40.8910   32.8960   38.3560 C   0  0  0  0  0  0  0  0  0  0  0  0
   41.3970   33.2950   37.1750 N   0  0  0  0  0  0  0  0  0  0  0  0
   41.0310   33.0560   36.2300 H   0  0  0  0  0  0  0  0  0  0  0  0
   42.4790   34.0740   37.3060 C   0  0  0  0  0  0  0  0  0  0  0  0
   43.0750   34.5270   36.5290 H   0  0  0  0  0  0  0  0  0  0  0  0
   42.7280   34.2170   38.6730 C   0  0  0  0  0  3  0  0  0  0  0  0
   41.7330   33.4790   39.2840 C   0  0  0  0  0  0  0  0  0  0  0  0
   41.4310   33.2240   40.6220 C   0  0  0  0  0  3  0  0  0  0  0  0
   36.8990   32.9530   40.3350 N   0  0  0  0  0  0  0  0  0  0  0  0
   36.2410   33.4560   40.9990 H   0  0  0  0  0  0  0  0  0  0  0  0
   37.3600   33.5060   39.5710 H   0  0  0  0  0  0  0  0  0  0  0  0
  1  7  1  0  0  0  0
  1  6  1  0  0  0  0
  2  1  2  0  0  0  0
  3  2  1  0  0  0  0
  3  4  2  0  0  0  0
  4  5  1  0  0  0  0
  5  6  2  0  0  0  0
  5  8  1  0  0  0  0
  8 17  1  0  0  0  0
  9 10  1  0  0  0  0
  9  8  2  0  0  0  0
 10 11  2  0  0  0  0
 11 12  1  0  0  0  0
 12 13  1  0  0  0  0
 13 19  1  0  0  0  0
 13 14  2  0  0  0  0
 14 20  1  0  0  0  0
 15 14  1  0  0  0  0
 15 21  1  0  0  0  0
 16 15  2  0  0  0  0
 17 12  2  0  0  0  0
 17 16  1  0  0  0  0
 18 10  1  0  0  0  0
 22 16  1  0  0  0  0
 24  3  1  0  0  0  0
 24 23  2  0  0  0  0
 25 24  1  0  0  0  0
 26 25  1  0  0  0  0
 27 25  2  0  0  0  0
 27 33  1  0  0  0  0
 28 30  1  0  0  0  0
 28 27  1  0  0  0  0
 29 28  1  0  0  0  0
 30 32  2  0  0  0  0
 31 30  1  0  0  0  0
 32 33  1  0  0  0  0
 33 34  2  0  0  0  0
 34 23  1  0  0  0  0
 35  2  1  0  0  0  0
 35 36  1  0  0  0  0
 37 35  1  0  0  0  0
M  END
>  <minimizedAffinity>
-7.23449802

$$$$

 OpenBabel03252502033D

 37 41  0  0  0  0  0  0  0  0999 V2000
   39.0890   34.4700   40.1920 C   0  0  0  0  0  0  0  0  0  0  0  0
   38.4320   33.2620   40.3510 C   0  0  0  0  0  0  0  0  0  0  0  0
   39.2110   32.1910   40.6770 C   0  0  0  0  0  0  0  0  0  0  0  0
   40.5310   32.3350   40.8270 N   0  0  0  0  0  0  0  0  0  0  0  0
   41.1620   33.4890   40.6750 C   0  0  0  0  0  0  0  0  0  0  0  0
   40.4040   34.5320   40.3580 N   0  0  0  0  0  0  0  0  0  0  0  0
   38.4560   35.3290   39.9300 H   0  0  0  0  0  0  0  0  0  0  0  0
   42.5720   33.8600   40.7890 C   0  0  0  0  0  0  0  0  0  0  0  0
   43.1360   34.3770   41.9050 N   0  0  0  0  0  0  0  0  0  0  0  0
   44.4110   34.7240   42.0400 C   0  0  0  0  0  0  0  0  0  0  0  0
   45.2640   34.5670   41.0060 N   0  0  0  0  0  0  0  0  0  0  0  0
   44.8260   34.0580   39.8330 C   0  0  0  0  0  0  0  0  0  0  0  0
   45.7030   33.8970   38.7710 C   0  0  0  0  0  0  0  0  0  0  0  0
   45.2780   33.3840   37.5760 C   0  0  0  0  0  0  0  0  0  0  0  0
   43.9530   33.0390   37.4770 C   0  0  0  0  0  0  0  0  0  0  0  0
   43.1140   33.2140   38.5530 C   0  0  0  0  0  0  0  0  0  0  0  0
   43.4950   33.7270   39.7790 C   0  0  0  0  0  0  0  0  0  0  0  0
   44.7630   35.1340   42.9880 H   0  0  0  0  0  0  0  0  0  0  0  0
   46.7250   34.2010   38.9560 H   0  0  0  0  0  0  0  0  0  0  0  0
   45.9740   33.2720   36.7810 H   0  0  0  0  0  0  0  0  0  0  0  0
   43.5590   32.6270   36.5540 H   0  0  0  0  0  0  0  0  0  0  0  0
   42.0620   32.9190   38.4140 H   0  0  0  0  0  0  0  0  0  0  0  0
   38.4540   29.9200   39.8980 C   0  0  0  0  0  3  0  0  0  0  0  0
   38.6370   30.8820   40.8700 C   0  0  0  0  0  0  0  0  0  0  0  0
   38.2420   30.6080   42.1850 C   0  0  0  0  0  0  0  0  0  0  0  0
   38.3580   31.3110   42.9810 H   0  0  0  0  0  0  0  0  0  0  0  0
   37.6800   29.3840   42.4800 C   0  0  0  0  0  0  0  0  0  0  0  0
   37.2100   28.8240   43.6090 N   0  0  0  0  0  0  0  0  0  0  0  0
   37.1850   29.2610   44.5540 H   0  0  0  0  0  0  0  0  0  0  0  0
   36.7450   27.5820   43.4230 C   0  0  0  0  0  0  0  0  0  0  0  0
   36.3160   26.9120   44.1520 H   0  0  0  0  0  0  0  0  0  0  0  0
   36.9090   27.2730   42.0710 C   0  0  0  0  0  3  0  0  0  0  0  0
   37.4870   28.4020   41.5260 C   0  0  0  0  0  0  0  0  0  0  0  0
   37.8960   28.7260   40.2320 C   0  0  0  0  0  3  0  0  0  0  0  0
   37.0400   33.1760   40.1800 N   0  0  0  0  0  0  0  0  0  0  0  0
   36.5430   33.6620   39.3780 H   0  0  0  0  0  0  0  0  0  0  0  0
   36.4680   32.6180   40.8610 H   0  0  0  0  0  0  0  0  0  0  0  0
  1  2  2  0  0  0  0
  1  6  1  0  0  0  0
  2  3  1  0  0  0  0
  3  4  2  0  0  0  0
  3 24  1  0  0  0  0
  5  8  1  0  0  0  0
  5  4  1  0  0  0  0
  6  5  2  0  0  0  0
  7  1  1  0  0  0  0
  8  9  1  0  0  0  0
  9 10  2  0  0  0  0
 10 18  1  0  0  0  0
 11 10  1  0  0  0  0
 12 11  2  0  0  0  0
 13 19  1  0  0  0  0
 13 12  1  0  0  0  0
 14 13  2  0  0  0  0
 15 14  1  0  0  0  0
 15 16  2  0  0  0  0
 16 17  1  0  0  0  0
 17 12  1  0  0  0  0
 17  8  2  0  0  0  0
 20 14  1  0  0  0  0
 21 15  1  0  0  0  0
 22 16  1  0  0  0  0
 23 34  2  0  0  0  0
 23 24  1  0  0  0  0
 24 25  2  0  0  0  0
 25 27  1  0  0  0  0
 25 26  1  0  0  0  0
 27 28  1  0  0  0  0
 28 29  1  0  0  0  0
 30 28  1  0  0  0  0
 30 31  1  0  0  0  0
 32 30  2  0  0  0  0
 33 32  1  0  0  0  0
 33 27  2  0  0  0  0
 34 33  1  0  0  0  0
 35  2  1  0  0  0  0
 35 37  1  0  0  0  0
 36 35  1  0  0  0  0
M  END
>  <minimizedAffinity>
-7.09091759

$$$$

 OpenBabel03252502033D

 37 41  0  0  0  0  0  0  0  0999 V2000
   37.2960   32.3260   40.2240 C   0  0  0  0  0  0  0  0  0  0  0  0
   36.9500   31.1050   40.7790 C   0  0  0  0  0  0  0  0  0  0  0  0
   37.9150   30.1420   40.7650 C   0  0  0  0  0  0  0  0  0  0  0  0
   39.1170   30.3950   40.2390 N   0  0  0  0  0  0  0  0  0  0  0  0
   39.4510   31.5610   39.7080 C   0  0  0  0  0  0  0  0  0  0  0  0
   38.5120   32.4990   39.7210 N   0  0  0  0  0  0  0  0  0  0  0  0
   36.5140   33.0970   40.2390 H   0  0  0  0  0  0  0  0  0  0  0  0
   40.6860   32.0410   39.0890 C   0  0  0  0  0  0  0  0  0  0  0  0
   40.8830   32.1380   37.7540 N   0  0  0  0  0  0  0  0  0  0  0  0
   41.9900   32.5700   37.1630 C   0  0  0  0  0  0  0  0  0  0  0  0
   43.0440   32.9600   37.9110 N   0  0  0  0  0  0  0  0  0  0  0  0
   42.9760   32.9110   39.2590 C   0  0  0  0  0  0  0  0  0  0  0  0
   44.0600   33.3110   40.0280 C   0  0  0  0  0  0  0  0  0  0  0  0
   44.0100   33.2690   41.3940 C   0  0  0  0  0  0  0  0  0  0  0  0
   42.8470   32.8170   41.9670 C   0  0  0  0  0  0  0  0  0  0  0  0
   41.7940   32.4280   41.1710 C   0  0  0  0  0  0  0  0  0  0  0  0
   41.7960   32.4530   39.7890 C   0  0  0  0  0  0  0  0  0  0  0  0
   42.0430   32.6080   36.0740 H   0  0  0  0  0  0  0  0  0  0  0  0
   44.9270   33.6500   39.4770 H   0  0  0  0  0  0  0  0  0  0  0  0
   44.8560   33.5820   41.9560 H   0  0  0  0  0  0  0  0  0  0  0  0
   42.7490   32.7620   43.0460 H   0  0  0  0  0  0  0  0  0  0  0  0
   40.8880   32.0750   41.6860 H   0  0  0  0  0  0  0  0  0  0  0  0
   37.6860   28.4900   42.6520 C   0  0  0  0  0  3  0  0  0  0  0  0
   37.6690   28.8310   41.3150 C   0  0  0  0  0  0  0  0  0  0  0  0
   37.3920   27.8440   40.3620 C   0  0  0  0  0  0  0  0  0  0  0  0
   37.3640   28.0450   39.3130 H   0  0  0  0  0  0  0  0  0  0  0  0
   37.1430   26.5530   40.7810 C   0  0  0  0  0  0  0  0  0  0  0  0
   36.8520   25.4080   40.1380 N   0  0  0  0  0  0  0  0  0  0  0  0
   36.7550   25.2800   39.1100 H   0  0  0  0  0  0  0  0  0  0  0  0
   36.6840   24.3700   40.9690 C   0  0  0  0  0  0  0  0  0  0  0  0
   36.4470   23.3470   40.7220 H   0  0  0  0  0  0  0  0  0  0  0  0
   36.8750   24.8420   42.2700 C   0  0  0  0  0  3  0  0  0  0  0  0
   37.1530   26.1850   42.1130 C   0  0  0  0  0  0  0  0  0  0  0  0
   37.4350   27.2060   43.0210 C   0  0  0  0  0  3  0  0  0  0  0  0
   35.6670   30.9010   41.3170 N   0  0  0  0  0  0  0  0  0  0  0  0
   34.7920   31.2440   40.8250 H   0  0  0  0  0  0  0  0  0  0  0  0
   35.5640   30.3970   42.2320 H   0  0  0  0  0  0  0  0  0  0  0  0
  1  7  1  0  0  0  0
  1  2  1  0  0  0  0
  2 35  1  0  0  0  0
  3  2  2  0  0  0  0
  3 24  1  0  0  0  0
  4  3  1  0  0  0  0
  5  6  1  0  0  0  0
  5  4  2  0  0  0  0
  6  1  2  0  0  0  0
  8  5  1  0  0  0  0
  8 17  1  0  0  0  0
  9  8  2  0  0  0  0
 10  9  1  0  0  0  0
 10 11  2  0  0  0  0
 11 12  1  0  0  0  0
 12 17  2  0  0  0  0
 12 13  1  0  0  0  0
 13 14  2  0  0  0  0
 14 20  1  0  0  0  0
 14 15  1  0  0  0  0
 15 21  1  0  0  0  0
 16 22  1  0  0  0  0
 16 15  2  0  0  0  0
 17 16  1  0  0  0  0
 18 10  1  0  0  0  0
 19 13  1  0  0  0  0
 23 34  1  0  0  0  0
 24 23  2  0  0  0  0
 25 27  2  0  0  0  0
 25 24  1  0  0  0  0
 26 25  1  0  0  0  0
 27 33  1  0  0  0  0
 28 27  1  0  0  0  0
 28 30  1  0  0  0  0
 29 28  1  0  0  0  0
 30 32  2  0  0  0  0
 31 30  1  0  0  0  0
 33 32  1  0  0  0  0
 33 34  2  0  0  0  0
 35 37  1  0  0  0  0
 36 35  1  0  0  0  0
M  END
>  <minimizedAffinity>
-7.00767136

$$$$

 OpenBabel03252502033D

 37 41  0  0  0  0  0  0  0  0999 V2000
   36.1240   30.7990   40.7630 C   0  0  0  0  0  0  0  0  0  0  0  0
   37.1820   31.6490   40.4850 C   0  0  0  0  0  0  0  0  0  0  0  0
   38.4130   31.0690   40.3970 C   0  0  0  0  0  0  0  0  0  0  0  0
   38.5560   29.7520   40.5750 N   0  0  0  0  0  0  0  0  0  0  0  0
   37.5460   28.9380   40.8410 C   0  0  0  0  0  0  0  0  0  0  0  0
   36.3470   29.5020   40.9260 N   0  0  0  0  0  0  0  0  0  0  0  0
   35.1360   31.2730   40.8320 H   0  0  0  0  0  0  0  0  0  0  0  0
   37.4820   27.4940   41.0670 C   0  0  0  0  0  0  0  0  0  0  0  0
   37.9770   26.8710   42.1610 N   0  0  0  0  0  0  0  0  0  0  0  0
   37.9340   25.5650   42.3960 C   0  0  0  0  0  0  0  0  0  0  0  0
   37.3560   24.7390   41.4980 N   0  0  0  0  0  0  0  0  0  0  0  0
   36.8210   25.2370   40.3610 C   0  0  0  0  0  0  0  0  0  0  0  0
   36.2270   24.3880   39.4390 C   0  0  0  0  0  0  0  0  0  0  0  0
   35.6800   24.8730   38.2830 C   0  0  0  0  0  0  0  0  0  0  0  0
   35.7450   26.2280   38.0780 C   0  0  0  0  0  0  0  0  0  0  0  0
   36.3440   27.0390   39.0160 C   0  0  0  0  0  0  0  0  0  0  0  0
   36.9090   26.5960   40.1980 C   0  0  0  0  0  0  0  0  0  0  0  0
   38.3670   25.1650   43.3140 H   0  0  0  0  0  0  0  0  0  0  0  0
   36.2300   23.3370   39.6980 H   0  0  0  0  0  0  0  0  0  0  0  0
   35.2320   24.1970   37.5950 H   0  0  0  0  0  0  0  0  0  0  0  0
   35.3290   26.6710   37.1790 H   0  0  0  0  0  0  0  0  0  0  0  0
   36.3660   28.1170   38.7970 H   0  0  0  0  0  0  0  0  0  0  0  0
   40.4780   32.3600   41.0370 C   0  0  0  0  0  3  0  0  0  0  0  0
   39.5890   31.8540   40.1120 C   0  0  0  0  0  0  0  0  0  0  0  0
   39.8060   32.1010   38.7500 C   0  0  0  0  0  0  0  0  0  0  0  0
   39.1540   31.7370   37.9860 H   0  0  0  0  0  0  0  0  0  0  0  0
   40.9030   32.8430   38.3660 C   0  0  0  0  0  0  0  0  0  0  0  0
   41.3820   33.2450   37.1750 N   0  0  0  0  0  0  0  0  0  0  0  0
   40.9670   33.0490   36.2400 H   0  0  0  0  0  0  0  0  0  0  0  0
   42.5060   33.9670   37.2800 C   0  0  0  0  0  0  0  0  0  0  0  0
   43.0940   34.4090   36.4900 H   0  0  0  0  0  0  0  0  0  0  0  0
   42.8150   34.0630   38.6390 C   0  0  0  0  0  3  0  0  0  0  0  0
   41.8090   33.3600   39.2720 C   0  0  0  0  0  0  0  0  0  0  0  0
   41.5470   33.0860   40.6150 C   0  0  0  0  0  3  0  0  0  0  0  0
   36.9670   33.0270   40.3090 N   0  0  0  0  0  0  0  0  0  0  0  0
   36.3230   33.5790   40.9460 H   0  0  0  0  0  0  0  0  0  0  0  0
   37.4520   33.5310   39.5250 H   0  0  0  0  0  0  0  0  0  0  0  0
  1  7  1  0  0  0  0
  1  6  1  0  0  0  0
  2  1  2  0  0  0  0
  3  2  1  0  0  0  0
  3  4  2  0  0  0  0
  4  5  1  0  0  0  0
  5  6  2  0  0  0  0
  5  8  1  0  0  0  0
  8  9  1  0  0  0  0
  9 10  2  0  0  0  0
 10 18  1  0  0  0  0
 11 10  1  0  0  0  0
 12 11  2  0  0  0  0
 13 19  1  0  0  0  0
 13 12  1  0  0  0  0
 14 13  2  0  0  0  0
 15 14  1  0  0  0  0
 15 16  2  0  0  0  0
 16 17  1  0  0  0  0
 17 12  1  0  0  0  0
 17  8  2  0  0  0  0
 20 14  1  0  0  0  0
 21 15  1  0  0  0  0
 22 16  1  0  0  0  0
 24  3  1  0  0  0  0
 24 23  2  0  0  0  0
 25 24  1  0  0  0  0
 26 25  1  0  0  0  0
 27 25  2  0  0  0  0
 27 33  1  0  0  0  0
 28 30  1  0  0  0  0
 28 27  1  0  0  0  0
 29 28  1  0  0  0  0
 30 32  2  0  0  0  0
 31 30  1  0  0  0  0
 32 33  1  0  0  0  0
 33 34  2  0  0  0  0
 34 23  1  0  0  0  0
 35  2  1  0  0  0  0
 35 36  1  0  0  0  0
 37 35  1  0  0  0  0
M  END
>  <minimizedAffinity>
-6.93826246

$$$$

 OpenBabel03252502033D

 37 41  0  0  0  0  0  0  0  0999 V2000
   36.7750   29.7550   36.9080 C   0  0  0  0  0  0  0  0  0  0  0  0
   37.6410   30.8280   37.0460 C   0  0  0  0  0  0  0  0  0  0  0  0
   38.4600   30.8030   38.1360 C   0  0  0  0  0  0  0  0  0  0  0  0
   38.4050   29.7860   39.0020 N   0  0  0  0  0  0  0  0  0  0  0  0
   37.5780   28.7610   38.8720 C   0  0  0  0  0  0  0  0  0  0  0  0
   36.7800   28.7840   37.8110 N   0  0  0  0  0  0  0  0  0  0  0  0
   36.1180   29.7820   36.0280 H   0  0  0  0  0  0  0  0  0  0  0  0
   37.3580   27.5670   39.6880 C   0  0  0  0  0  0  0  0  0  0  0  0
   37.2130   26.3180   39.1890 N   0  0  0  0  0  0  0  0  0  0  0  0
   37.0130   25.2160   39.9010 C   0  0  0  0  0  0  0  0  0  0  0  0
   36.9400   25.2890   41.2470 N   0  0  0  0  0  0  0  0  0  0  0  0
   37.0690   26.4810   41.8720 C   0  0  0  0  0  0  0  0  0  0  0  0
   36.9940   26.5560   43.2550 C   0  0  0  0  0  0  0  0  0  0  0  0
   37.1220   27.7530   43.9050 C   0  0  0  0  0  0  0  0  0  0  0  0
   37.3280   28.8680   43.1320 C   0  0  0  0  0  0  0  0  0  0  0  0
   37.3960   28.7530   41.7620 C   0  0  0  0  0  0  0  0  0  0  0  0
   37.2730   27.5680   41.0610 C   0  0  0  0  0  0  0  0  0  0  0  0
   36.9090   24.2550   39.3950 H   0  0  0  0  0  0  0  0  0  0  0  0
   36.8290   25.6180   43.7670 H   0  0  0  0  0  0  0  0  0  0  0  0
   37.0600   27.7780   44.9660 H   0  0  0  0  0  0  0  0  0  0  0  0
   37.4370   29.8450   43.5920 H   0  0  0  0  0  0  0  0  0  0  0  0
   37.5630   29.6820   41.1950 H   0  0  0  0  0  0  0  0  0  0  0  0
   39.3660   32.7630   39.4300 C   0  0  0  0  0  3  0  0  0  0  0  0
   39.4040   31.8650   38.3830 C   0  0  0  0  0  0  0  0  0  0  0  0
   40.4390   31.9530   37.4440 C   0  0  0  0  0  0  0  0  0  0  0  0
   40.5230   31.2870   36.6130 H   0  0  0  0  0  0  0  0  0  0  0  0
   41.3970   32.9350   37.5870 C   0  0  0  0  0  0  0  0  0  0  0  0
   42.4890   33.2770   36.8790 N   0  0  0  0  0  0  0  0  0  0  0  0
   42.8370   32.8170   36.0130 H   0  0  0  0  0  0  0  0  0  0  0  0
   43.1430   34.3240   37.4010 C   0  0  0  0  0  0  0  0  0  0  0  0
   44.0400   34.8010   37.0380 H   0  0  0  0  0  0  0  0  0  0  0  0
   42.4470   34.7230   38.5450 C   0  0  0  0  0  3  0  0  0  0  0  0
   41.3840   33.8460   38.6260 C   0  0  0  0  0  0  0  0  0  0  0  0
   40.3310   33.7160   39.5320 C   0  0  0  0  0  3  0  0  0  0  0  0
   37.6500   31.8670   36.1000 N   0  0  0  0  0  0  0  0  0  0  0  0
   36.7530   32.2790   35.7110 H   0  0  0  0  0  0  0  0  0  0  0  0
   38.5670   32.2510   35.7620 H   0  0  0  0  0  0  0  0  0  0  0  0
  1  2  2  0  0  0  0
  1  6  1  0  0  0  0
  2  3  1  0  0  0  0
  3 24  1  0  0  0  0
  3  4  2  0  0  0  0
  5  4  1  0  0  0  0
  5  8  1  0  0  0  0
  6  5  2  0  0  0  0
  7  1  1  0  0  0  0
  8 17  1  0  0  0  0
  9  8  2  0  0  0  0
  9 10  1  0  0  0  0
 10 11  2  0  0  0  0
 11 12  1  0  0  0  0
 12 13  1  0  0  0  0
 13 19  1  0  0  0  0
 13 14  2  0  0  0  0
 14 20  1  0  0  0  0
 15 21  1  0  0  0  0
 15 14  1  0  0  0  0
 16 15  2  0  0  0  0
 17 16  1  0  0  0  0
 17 12  2  0  0  0  0
 18 10  1  0  0  0  0
 22 16  1  0  0  0  0
 23 34  1  0  0  0  0
 24 23  2  0  0  0  0
 25 27  2  0  0  0  0
 25 24  1  0  0  0  0
 26 25  1  0  0  0  0
 27 33  1  0  0  0  0
 28 30  1  0  0  0  0
 28 27  1  0  0  0  0
 29 28  1  0  0  0  0
 30 32  2  0  0  0  0
 31 30  1  0  0  0  0
 32 33  1  0  0  0  0
 33 34  2  0  0  0  0
 35  2  1  0  0  0  0
 36 35  1  0  0  0  0
 37 35  1  0  0  0  0
M  END
>  <minimizedAffinity>
-6.75277519

$$$$

 OpenBabel03252502033D

 37 41  0  0  0  0  0  0  0  0999 V2000
   37.3970   32.8520   39.8270 C   0  0  0  0  0  0  0  0  0  0  0  0
   38.6890   33.3420   39.7370 C   0  0  0  0  0  0  0  0  0  0  0  0
   39.6890   32.4160   39.7670 C   0  0  0  0  0  0  0  0  0  0  0  0
   39.4030   31.1140   39.8780 N   0  0  0  0  0  0  0  0  0  0  0  0
   38.1690   30.6430   39.9650 C   0  0  0  0  0  0  0  0  0  0  0  0
   37.1950   31.5450   39.9350 N   0  0  0  0  0  0  0  0  0  0  0  0
   36.5970   33.6040   39.8020 H   0  0  0  0  0  0  0  0  0  0  0  0
   37.6430   29.2840   40.0900 C   0  0  0  0  0  0  0  0  0  0  0  0
   37.2960   28.5010   39.0430 N   0  0  0  0  0  0  0  0  0  0  0  0
   36.8180   27.2650   39.1230 C   0  0  0  0  0  0  0  0  0  0  0  0
   36.6420   26.6890   40.3310 N   0  0  0  0  0  0  0  0  0  0  0  0
   36.9510   27.3660   41.4590 C   0  0  0  0  0  0  0  0  0  0  0  0
   36.7700   26.7740   42.7010 C   0  0  0  0  0  0  0  0  0  0  0  0
   37.0780   27.4430   43.8540 C   0  0  0  0  0  0  0  0  0  0  0  0
   37.5700   28.7180   43.7270 C   0  0  0  0  0  0  0  0  0  0  0  0
   37.7350   29.2720   42.4780 C   0  0  0  0  0  0  0  0  0  0  0  0
   37.4400   28.6370   41.2860 C   0  0  0  0  0  0  0  0  0  0  0  0
   36.5680   26.7200   38.2120 H   0  0  0  0  0  0  0  0  0  0  0  0
   36.3760   25.7670   42.6870 H   0  0  0  0  0  0  0  0  0  0  0  0
   36.9280   26.9630   44.7900 H   0  0  0  0  0  0  0  0  0  0  0  0
   37.8320   29.2980   44.6060 H   0  0  0  0  0  0  0  0  0  0  0  0
   38.1340   30.2970   42.4390 H   0  0  0  0  0  0  0  0  0  0  0  0
   41.8570   33.2750   40.7160 C   0  0  0  0  0  3  0  0  0  0  0  0
   41.0740   32.8090   39.6800 C   0  0  0  0  0  0  0  0  0  0  0  0
   41.6320   32.6890   38.4020 C   0  0  0  0  0  0  0  0  0  0  0  0
   41.0780   32.3350   37.5600 H   0  0  0  0  0  0  0  0  0  0  0  0
   42.9520   33.0390   38.2070 C   0  0  0  0  0  0  0  0  0  0  0  0
   43.7650   33.0410   37.1340 N   0  0  0  0  0  0  0  0  0  0  0  0
   43.5160   32.7500   36.1660 H   0  0  0  0  0  0  0  0  0  0  0  0
   45.0010   33.4730   37.4160 C   0  0  0  0  0  0  0  0  0  0  0  0
   45.8430   33.5730   36.7480 H   0  0  0  0  0  0  0  0  0  0  0  0
   45.0340   33.7880   38.7770 C   0  0  0  0  0  3  0  0  0  0  0  0
   43.7590   33.5080   39.2260 C   0  0  0  0  0  0  0  0  0  0  0  0
   43.1540   33.6090   40.4790 C   0  0  0  0  0  3  0  0  0  0  0  0
   38.9240   34.7230   39.6220 N   0  0  0  0  0  0  0  0  0  0  0  0
   38.3950   35.4320   40.2080 H   0  0  0  0  0  0  0  0  0  0  0  0
   39.6410   35.0710   38.9390 H   0  0  0  0  0  0  0  0  0  0  0  0
  1  6  1  0  0  0  0
  2  3  1  0  0  0  0
  2  1  2  0  0  0  0
  3  4  2  0  0  0  0
  4  5  1  0  0  0  0
  5  8  1  0  0  0  0
  6  5  2  0  0  0  0
  7  1  1  0  0  0  0
  8 17  1  0  0  0  0
  9 10  1  0  0  0  0
  9  8  2  0  0  0  0
 10 11  2  0  0  0  0
 11 12  1  0  0  0  0
 12 13  1  0  0  0  0
 13 14  2  0  0  0  0
 14 20  1  0  0  0  0
 15 14  1  0  0  0  0
 15 21  1  0  0  0  0
 16 15  2  0  0  0  0
 17 12  2  0  0  0  0
 17 16  1  0  0  0  0
 18 10  1  0  0  0  0
 19 13  1  0  0  0  0
 22 16  1  0  0  0  0
 24  3  1  0  0  0  0
 24 23  2  0  0  0  0
 25 24  1  0  0  0  0
 26 25  1  0  0  0  0
 27 25  2  0  0  0  0
 27 33  1  0  0  0  0
 28 30  1  0  0  0  0
 28 27  1  0  0  0  0
 29 28  1  0  0  0  0
 30 32  2  0  0  0  0
 31 30  1  0  0  0  0
 32 33  1  0  0  0  0
 33 34  2  0  0  0  0
 34 23  1  0  0  0  0
 35  2  1  0  0  0  0
 35 36  1  0  0  0  0
 37 35  1  0  0  0  0
M  END
>  <minimizedAffinity>
-6.75189018

$$$$

 OpenBabel03252502033D

 37 41  0  0  0  0  0  0  0  0999 V2000
   38.3300   31.5180   38.5790 C   0  0  0  0  0  0  0  0  0  0  0  0
   39.4610   31.4390   37.7830 C   0  0  0  0  0  0  0  0  0  0  0  0
   40.3230   30.4200   38.0610 C   0  0  0  0  0  0  0  0  0  0  0  0
   40.0620   29.5640   39.0540 N   0  0  0  0  0  0  0  0  0  0  0  0
   38.9820   29.6380   39.8170 C   0  0  0  0  0  0  0  0  0  0  0  0
   38.1420   30.6290   39.5460 N   0  0  0  0  0  0  0  0  0  0  0  0
   37.6400   32.3410   38.3490 H   0  0  0  0  0  0  0  0  0  0  0  0
   38.5120   28.8210   40.9350 C   0  0  0  0  0  0  0  0  0  0  0  0
   37.2170   28.4930   41.1480 N   0  0  0  0  0  0  0  0  0  0  0  0
   36.7590   27.7540   42.1510 C   0  0  0  0  0  0  0  0  0  0  0  0
   37.6160   27.2600   43.0690 N   0  0  0  0  0  0  0  0  0  0  0  0
   38.9400   27.5140   42.9700 C   0  0  0  0  0  0  0  0  0  0  0  0
   39.8210   27.0060   43.9130 C   0  0  0  0  0  0  0  0  0  0  0  0
   41.1640   27.2530   43.8300 C   0  0  0  0  0  0  0  0  0  0  0  0
   41.5970   28.0210   42.7780 C   0  0  0  0  0  0  0  0  0  0  0  0
   40.6920   28.5080   41.8630 C   0  0  0  0  0  0  0  0  0  0  0  0
   39.3280   28.2860   41.9040 C   0  0  0  0  0  0  0  0  0  0  0  0
   35.6900   27.5500   42.2300 H   0  0  0  0  0  0  0  0  0  0  0  0
   39.3750   26.4140   44.7010 H   0  0  0  0  0  0  0  0  0  0  0  0
   41.8140   26.8500   44.5680 H   0  0  0  0  0  0  0  0  0  0  0  0
   42.6510   28.2500   42.6600 H   0  0  0  0  0  0  0  0  0  0  0  0
   41.0980   29.1170   41.0410 H   0  0  0  0  0  0  0  0  0  0  0  0
   41.8410   29.1510   36.5050 C   0  0  0  0  0  3  0  0  0  0  0  0
   41.5330   30.2370   37.2980 C   0  0  0  0  0  0  0  0  0  0  0  0
   42.4520   31.2870   37.4060 C   0  0  0  0  0  0  0  0  0  0  0  0
   42.2720   32.1540   38.0030 H   0  0  0  0  0  0  0  0  0  0  0  0
   43.6450   31.2140   36.7160 C   0  0  0  0  0  0  0  0  0  0  0  0
   44.7090   32.0300   36.6090 N   0  0  0  0  0  0  0  0  0  0  0  0
   44.8320   32.9530   37.0740 H   0  0  0  0  0  0  0  0  0  0  0  0
   45.6650   31.5410   35.8080 C   0  0  0  0  0  0  0  0  0  0  0  0
   46.6130   31.9860   35.5490 H   0  0  0  0  0  0  0  0  0  0  0  0
   45.2210   30.3030   35.3350 C   0  0  0  0  0  3  0  0  0  0  0  0
   43.9780   30.1390   35.9140 C   0  0  0  0  0  0  0  0  0  0  0  0
   43.0280   29.1190   35.8420 C   0  0  0  0  0  3  0  0  0  0  0  0
   39.6780   32.3710   36.7530 N   0  0  0  0  0  0  0  0  0  0  0  0
   39.5050   33.4090   36.8910 H   0  0  0  0  0  0  0  0  0  0  0  0
   40.0210   32.0390   35.8180 H   0  0  0  0  0  0  0  0  0  0  0  0
  1  6  1  0  0  0  0
  2  3  1  0  0  0  0
  2  1  2  0  0  0  0
  3  4  2  0  0  0  0
  4  5  1  0  0  0  0
  5  8  1  0  0  0  0
  6  5  2  0  0  0  0
  7  1  1  0  0  0  0
  8  9  2  0  0  0  0
  8 17  1  0  0  0  0
  9 10  1  0  0  0  0
 10 18  1  0  0  0  0
 10 11  2  0  0  0  0
 12 11  1  0  0  0  0
 12 13  1  0  0  0  0
 13 19  1  0  0  0  0
 14 13  2  0  0  0  0
 14 20  1  0  0  0  0
 15 14  1  0  0  0  0
 16 17  1  0  0  0  0
 16 15  2  0  0  0  0
 17 12  2  0  0  0  0
 21 15  1  0  0  0  0
 22 16  1  0  0  0  0
 23 24  1  0  0  0  0
 24 25  2  0  0  0  0
 24  3  1  0  0  0  0
 25 26  1  0  0  0  0
 27 25  1  0  0  0  0
 28 27  1  0  0  0  0
 28 29  1  0  0  0  0
 30 28  1  0  0  0  0
 31 30  1  0  0  0  0
 32 30  2  0  0  0  0
 32 33  1  0  0  0  0
 33 27  2  0  0  0  0
 34 33  1  0  0  0  0
 34 23  2  0  0  0  0
 35 36  1  0  0  0  0
 35  2  1  0  0  0  0
 37 35  1  0  0  0  0
M  END
>  <minimizedAffinity>
-6.64611053

$$$$

 OpenBabel03252502033D

 37 41  0  0  0  0  0  0  0  0999 V2000
   37.6540   32.5750   40.3420 C   0  0  0  0  0  0  0  0  0  0  0  0
   38.8780   33.1350   40.0140 C   0  0  0  0  0  0  0  0  0  0  0  0
   39.9790   32.3850   40.3020 C   0  0  0  0  0  0  0  0  0  0  0  0
   39.8500   31.1810   40.8680 N   0  0  0  0  0  0  0  0  0  0  0  0
   38.6810   30.6440   41.1830 C   0  0  0  0  0  0  0  0  0  0  0  0
   37.6080   31.3740   40.9020 N   0  0  0  0  0  0  0  0  0  0  0  0
   36.7710   33.1850   40.1070 H   0  0  0  0  0  0  0  0  0  0  0  0
   38.3210   29.3660   41.7970 C   0  0  0  0  0  0  0  0  0  0  0  0
   37.0880   28.8130   41.7370 N   0  0  0  0  0  0  0  0  0  0  0  0
   36.7300   27.6560   42.2820 C   0  0  0  0  0  0  0  0  0  0  0  0
   37.6350   26.9260   42.9670 N   0  0  0  0  0  0  0  0  0  0  0  0
   38.9050   27.3690   43.1000 C   0  0  0  0  0  0  0  0  0  0  0  0
   39.8360   26.6190   43.8040 C   0  0  0  0  0  0  0  0  0  0  0  0
   41.1260   27.0490   43.9500 C   0  0  0  0  0  0  0  0  0  0  0  0
   41.4560   28.2500   43.3710 C   0  0  0  0  0  0  0  0  0  0  0  0
   40.5040   28.9660   42.6810 C   0  0  0  0  0  0  0  0  0  0  0  0
   39.1910   28.5720   42.5060 C   0  0  0  0  0  0  0  0  0  0  0  0
   35.7040   27.3010   42.1740 H   0  0  0  0  0  0  0  0  0  0  0  0
   39.4710   25.6890   44.2200 H   0  0  0  0  0  0  0  0  0  0  0  0
   41.8160   26.4530   44.4950 H   0  0  0  0  0  0  0  0  0  0  0  0
   42.4640   28.6430   43.4530 H   0  0  0  0  0  0  0  0  0  0  0  0
   40.8280   29.9210   42.2390 H   0  0  0  0  0  0  0  0  0  0  0  0
   42.0910   33.6550   40.8210 C   0  0  0  0  0  3  0  0  0  0  0  0
   41.3070   32.8650   40.0060 C   0  0  0  0  0  0  0  0  0  0  0  0
   41.8040   32.4650   38.7590 C   0  0  0  0  0  0  0  0  0  0  0  0
   41.2450   31.8540   38.0840 H   0  0  0  0  0  0  0  0  0  0  0  0
   43.0650   32.8690   38.3750 C   0  0  0  0  0  0  0  0  0  0  0  0
   43.8130   32.6620   37.2750 N   0  0  0  0  0  0  0  0  0  0  0  0
   43.5440   32.1070   36.4370 H   0  0  0  0  0  0  0  0  0  0  0  0
   45.0090   33.2620   37.3360 C   0  0  0  0  0  0  0  0  0  0  0  0
   45.7970   33.2600   36.5990 H   0  0  0  0  0  0  0  0  0  0  0  0
   45.0820   33.9250   38.5640 C   0  0  0  0  0  3  0  0  0  0  0  0
   43.8710   33.6590   39.1720 C   0  0  0  0  0  0  0  0  0  0  0  0
   43.3290   34.0300   40.4030 C   0  0  0  0  0  3  0  0  0  0  0  0
   38.9470   34.4070   39.4200 N   0  0  0  0  0  0  0  0  0  0  0  0
   38.3500   35.2170   39.7570 H   0  0  0  0  0  0  0  0  0  0  0  0
   39.6060   34.5690   38.6180 H   0  0  0  0  0  0  0  0  0  0  0  0
  1  6  1  0  0  0  0
  2  3  1  0  0  0  0
  2  1  2  0  0  0  0
  3  4  2  0  0  0  0
  4  5  1  0  0  0  0
  5  8  1  0  0  0  0
  6  5  2  0  0  0  0
  7  1  1  0  0  0  0
  8 17  1  0  0  0  0
  9  8  2  0  0  0  0
  9 10  1  0  0  0  0
 10 11  2  0  0  0  0
 11 12  1  0  0  0  0
 12 13  1  0  0  0  0
 13 14  2  0  0  0  0
 13 19  1  0  0  0  0
 14 20  1  0  0  0  0
 15 21  1  0  0  0  0
 15 14  1  0  0  0  0
 16 15  2  0  0  0  0
 17 16  1  0  0  0  0
 17 12  2  0  0  0  0
 18 10  1  0  0  0  0
 22 16  1  0  0  0  0
 24  3  1  0  0  0  0
 24 23  2  0  0  0  0
 25 24  1  0  0  0  0
 26 25  1  0  0  0  0
 27 25  2  0  0  0  0
 27 33  1  0  0  0  0
 28 30  1  0  0  0  0
 28 27  1  0  0  0  0
 29 28  1  0  0  0  0
 30 32  2  0  0  0  0
 31 30  1  0  0  0  0
 32 33  1  0  0  0  0
 33 34  2  0  0  0  0
 34 23  1  0  0  0  0
 35 36  1  0  0  0  0
 35  2  1  0  0  0  0
 37 35  1  0  0  0  0
M  END
>  <minimizedAffinity>
-6.64466381

$$$$
