
     RDKit          3D

 30 32  0  0  0  0  0  0  0  0999 V2000
   45.2121   35.1998   44.0391 C   0  0  0  0  0  0  0  0  0  0  0  0
   46.2590   34.5684   43.3767 C   0  0  0  0  0  0  0  0  0  0  0  0
   46.9237   33.5609   44.0778 C   0  0  0  0  0  0  0  0  0  0  0  0
   46.5060   33.2789   45.3288 N   0  0  0  0  0  0  0  0  0  0  0  0
   45.4952   33.9048   45.9381 C   0  0  0  0  0  0  0  0  0  0  0  0
   44.8323   34.8768   45.3000 N   0  0  0  0  0  0  0  0  0  0  0  0
   46.5243   35.0338   42.0355 C   0  0  2  0  0  0  0  0  0  0  0  0
   48.0435   35.1627   41.9100 C   0  0  0  0  0  0  0  0  0  0  0  0
   44.5666   36.0124   43.6659 H   0  0  0  0  0  0  0  0  0  0  0  0
   47.7322   33.0836   43.5476 H   0  0  0  0  0  0  0  0  0  0  0  0
   45.3120   33.5372   46.9372 H   0  0  0  0  0  0  0  0  0  0  0  0
   46.1869   34.3288   41.2664 H   0  0  0  0  0  0  0  0  0  0  0  0
   48.4894   34.1558   41.7615 H   0  0  0  0  0  0  0  0  0  0  0  0
   48.3152   35.7451   40.9850 H   0  0  0  0  0  0  0  0  0  0  0  0
   48.4810   35.6627   42.7890 H   0  0  0  0  0  0  0  0  0  0  0  0
   45.1816   36.7093   40.6589 C   0  0  0  0  0  0  0  0  0  0  0  0
   45.8675   36.3375   41.7981 C   0  0  0  0  0  0  0  0  0  0  0  0
   45.9247   37.3124   42.7987 C   0  0  0  0  0  0  0  0  0  0  0  0
   46.4463   37.1237   43.7497 H   0  0  0  0  0  0  0  0  0  0  0  0
   45.3491   38.5610   42.6861 C   0  0  0  0  0  0  0  0  0  0  0  0
   45.2927   39.6211   43.5193 N   0  0  0  0  0  0  0  0  0  0  0  0
   45.7089   39.6955   44.4807 H   0  0  0  0  0  0  0  0  0  0  0  0
   44.6008   40.5854   42.9006 C   0  0  0  0  0  0  0  0  0  0  0  0
   44.3499   41.5773   43.2547 H   0  0  0  0  0  0  0  0  0  0  0  0
   44.1949   40.1686   41.6531 C   0  0  0  0  0  0  0  0  0  0  0  0
   44.6762   38.8810   41.5279 C   0  0  0  0  0  0  0  0  0  0  0  0
   44.5929   37.9376   40.4996 C   0  0  0  0  0  0  0  0  0  0  0  0
   45.1443   35.9431   39.8887 H   0  0  0  0  0  0  0  0  0  0  0  0
   43.6242   40.6476   40.8579 H   0  0  0  0  0  0  0  0  0  0  0  0
   44.0701   38.1632   39.5792 H   0  0  0  0  0  0  0  0  0  0  0  0
  1  6  2  0
  2  1  1  0
  2  3  2  0
  3  4  1  0
  4  5  2  0
  6  5  1  0
  7  2  1  0
  8  7  1  0
  1  9  1  0
  3 10  1  0
  5 11  1  0
  7 12  1  6
  8 13  1  0
  8 14  1  0
  8 15  1  0
 16 17  2  0
 17 18  1  0
 18 19  1  0
 18 20  2  0
 20 21  1  0
 21 22  1  0
 21 23  1  0
 23 24  1  0
 23 25  2  0
 25 26  1  0
 26 27  2  0
 27 16  1  0
 26 20  1  0
 16 28  1  0
 25 29  1  0
 27 30  1  0
  7 17  1  0
M  ISO  8   9  14  10  14  11  14  12   8  13   8  14   8  15   8  19  15
M  ISO  2  22   5  24  14
M  END
>  <DihAtoms>  (1) 
1,6,16,15

>  <DihDeg>  (1) 
-92.17561008955066

$$$$
