
 OpenBabel03242515413D

 39 43  0  0  0  0  0  0  0  0999 V2000
   33.0180   29.1610   37.2150 C   0  0  0  0  0  0  0  0  0  0  0  0
   33.6460   28.9160   38.4250 C   0  0  0  0  0  0  0  0  0  0  0  0
   34.9720   28.4860   38.3920 C   0  0  0  0  0  0  0  0  0  0  0  0
   35.5610   28.3350   37.1870 N   0  0  0  0  0  0  0  0  0  0  0  0
   34.9200   28.5820   36.0220 C   0  0  0  0  0  0  0  0  0  0  0  0
   33.6650   28.9880   36.0780 N   0  0  0  0  0  0  0  0  0  0  0  0
   33.1580   29.0430   39.3780 H   0  0  0  0  0  0  0  0  0  0  0  0
   36.4000   27.0020   39.6490 C   0  0  0  0  0  3  0  0  0  0  0  0
   35.7480   28.1950   39.5670 C   0  0  0  0  0  0  0  0  0  0  0  0
   35.8800   29.0530   40.6370 C   0  0  0  0  0  0  0  0  0  0  0  0
   35.3950   29.9970   40.6300 H   0  0  0  0  0  0  0  0  0  0  0  0
   36.6420   28.7060   41.7320 C   0  0  0  0  0  0  0  0  0  0  0  0
   36.8990   29.3880   42.8650 N   0  0  0  0  0  0  0  0  0  0  0  0
   36.5970   30.3240   43.1950 H   0  0  0  0  0  0  0  0  0  0  0  0
   37.7050   28.6540   43.6730 C   0  0  0  0  0  0  0  0  0  0  0  0
   38.1100   28.8860   44.6520 H   0  0  0  0  0  0  0  0  0  0  0  0
   37.9480   27.4790   43.0050 C   0  0  0  0  0  3  0  0  0  0  0  0
   37.2950   27.4930   41.7960 C   0  0  0  0  0  0  0  0  0  0  0  0
   37.1780   26.6080   40.7300 C   0  0  0  0  0  3  0  0  0  0  0  0
   31.3000   29.7160   37.3250 S   0  0  0  0  0  0  0  0  0  0  0  0
   30.5730   31.9050   35.9330 C   0  0  0  0  0  0  0  0  0  0  0  0
   30.8030   30.5400   35.8220 C   0  0  0  0  0  0  0  0  0  0  0  0
   30.6470   29.9040   34.6230 C   0  0  0  0  0  0  0  0  0  0  0  0
   30.2590   30.5710   33.4750 C   0  0  0  0  0  0  0  0  0  0  0  0
   30.0270   31.9530   33.5920 C   0  0  0  0  0  0  0  0  0  0  0  0
   30.1750   32.6270   34.7890 C   0  0  0  0  0  0  0  0  0  0  0  0
   29.6500   32.4080   32.3150 O   0  0  0  0  0  0  0  0  0  0  0  0
   29.3380   31.2760   31.5540 C   0  0  0  0  0  0  0  0  0  0  0  0
   30.0260   30.1970   32.1490 O   0  0  0  0  0  0  0  0  0  0  0  0
   30.6700   32.4930   36.8420 H   0  0  0  0  0  0  0  0  0  0  0  0
   30.8350   28.8260   34.5640 H   0  0  0  0  0  0  0  0  0  0  0  0
   29.9920   33.6860   34.8510 H   0  0  0  0  0  0  0  0  0  0  0  0
   29.7840   31.4040   30.5320 H   0  0  0  0  0  0  0  0  0  0  0  0
   28.2450   31.0860   31.4750 H   0  0  0  0  0  0  0  0  0  0  0  0
   35.4770   28.4430   34.7760 O   0  0  0  0  0  0  0  0  0  0  0  0
   36.5800   29.2250   34.4200 C   0  0  0  0  0  0  0  0  0  0  0  0
   36.5490   30.4890   34.9110 F   0  0  0  0  0  0  0  0  0  0  0  0
   37.7030   28.5020   34.8680 F   0  0  0  0  0  0  0  0  0  0  0  0
   36.6040   29.2940   33.0240 F   0  0  0  0  0  0  0  0  0  0  0  0
  1 20  1  0  0  0  0
  1  2  1  0  0  0  0
  2  7  1  0  0  0  0
  3  2  2  0  0  0  0
  3  9  1  0  0  0  0
  4  3  1  0  0  0  0
  5  6  1  0  0  0  0
  5  4  2  0  0  0  0
  6  1  2  0  0  0  0
  8 19  1  0  0  0  0
  9  8  2  0  0  0  0
  9 10  1  0  0  0  0
 10 12  2  0  0  0  0
 11 10  1  0  0  0  0
 12 18  1  0  0  0  0
 12 13  1  0  0  0  0
 13 14  1  0  0  0  0
 13 15  1  0  0  0  0
 15 16  1  0  0  0  0
 17 15  2  0  0  0  0
 18 17  1  0  0  0  0
 19 18  2  0  0  0  0
 21 30  1  0  0  0  0
 22 21  1  0  0  0  0
 22 20  1  0  0  0  0
 23 22  2  0  0  0  0
 24 25  2  0  0  0  0
 24 23  1  0  0  0  0
 25 26  1  0  0  0  0
 26 32  1  0  0  0  0
 26 21  2  0  0  0  0
 27 25  1  0  0  0  0
 28 29  1  0  0  0  0
 28 27  1  0  0  0  0
 29 24  1  0  0  0  0
 31 23  1  0  0  0  0
 33 28  1  0  0  0  0
 34 28  1  0  0  0  0
 35  5  1  0  0  0  0
 36 35  1  0  0  0  0
 36 38  1  0  0  0  0
 36 37  1  0  0  0  0
 39 36  1  0  0  0  0
M  END
>  <minimizedAffinity>
-6.75101852

$$$$

 OpenBabel03242515413D

 39 43  0  0  0  0  0  0  0  0999 V2000
   36.7510   28.8960   41.7500 C   0  0  0  0  0  0  0  0  0  0  0  0
   36.0080   28.5310   40.6390 C   0  0  0  0  0  0  0  0  0  0  0  0
   35.9060   29.4530   39.5980 C   0  0  0  0  0  0  0  0  0  0  0  0
   36.5340   30.6400   39.7360 N   0  0  0  0  0  0  0  0  0  0  0  0
   37.2520   30.9660   40.8340 C   0  0  0  0  0  0  0  0  0  0  0  0
   37.3360   30.0780   41.8070 N   0  0  0  0  0  0  0  0  0  0  0  0
   35.5140   27.5780   40.5470 H   0  0  0  0  0  0  0  0  0  0  0  0
   35.8180   29.2960   37.1920 C   0  0  0  0  0  3  0  0  0  0  0  0
   35.1690   29.2120   38.3870 C   0  0  0  0  0  0  0  0  0  0  0  0
   33.8290   28.8970   38.3470 C   0  0  0  0  0  0  0  0  0  0  0  0
   33.2710   28.8180   39.2460 H   0  0  0  0  0  0  0  0  0  0  0  0
   33.1880   28.6800   37.1470 C   0  0  0  0  0  0  0  0  0  0  0  0
   31.9040   28.3650   36.8900 N   0  0  0  0  0  0  0  0  0  0  0  0
   31.0890   28.2100   37.5150 H   0  0  0  0  0  0  0  0  0  0  0  0
   31.7150   28.2440   35.5520 C   0  0  0  0  0  0  0  0  0  0  0  0
   30.8190   28.0030   34.9920 H   0  0  0  0  0  0  0  0  0  0  0  0
   32.9340   28.4960   34.9720 C   0  0  0  0  0  3  0  0  0  0  0  0
   33.8620   28.7690   35.9480 C   0  0  0  0  0  0  0  0  0  0  0  0
   35.2160   29.0850   35.9570 C   0  0  0  0  0  3  0  0  0  0  0  0
   36.8470   27.6580   43.0650 S   0  0  0  0  0  0  0  0  0  0  0  0
   38.3530   25.4830   42.5520 C   0  0  0  0  0  0  0  0  0  0  0  0
   38.4080   26.7930   43.0100 C   0  0  0  0  0  0  0  0  0  0  0  0
   39.5970   27.3500   43.3850 C   0  0  0  0  0  0  0  0  0  0  0  0
   40.7910   26.6530   43.3320 C   0  0  0  0  0  0  0  0  0  0  0  0
   40.7310   25.3270   42.8680 C   0  0  0  0  0  0  0  0  0  0  0  0
   39.5450   24.7340   42.4810 C   0  0  0  0  0  0  0  0  0  0  0  0
   42.0470   24.8280   42.9010 O   0  0  0  0  0  0  0  0  0  0  0  0
   42.8000   25.7140   43.6800 C   0  0  0  0  0  0  0  0  0  0  0  0
   42.1210   26.9510   43.6400 O   0  0  0  0  0  0  0  0  0  0  0  0
   37.4560   24.9590   42.2340 H   0  0  0  0  0  0  0  0  0  0  0  0
   39.6120   28.3850   43.7430 H   0  0  0  0  0  0  0  0  0  0  0  0
   39.5270   23.7170   42.1280 H   0  0  0  0  0  0  0  0  0  0  0  0
   43.7850   25.8830   43.1690 H   0  0  0  0  0  0  0  0  0  0  0  0
   42.9620   25.3560   44.7200 H   0  0  0  0  0  0  0  0  0  0  0  0
   37.9060   32.1570   41.0170 O   0  0  0  0  0  0  0  0  0  0  0  0
   38.1640   32.9820   39.9180 C   0  0  0  0  0  0  0  0  0  0  0  0
   38.7370   32.3450   38.8660 F   0  0  0  0  0  0  0  0  0  0  0  0
   36.9200   33.5530   39.5870 F   0  0  0  0  0  0  0  0  0  0  0  0
   39.0330   33.9880   40.3510 F   0  0  0  0  0  0  0  0  0  0  0  0
  1  6  1  0  0  0  0
  1 20  1  0  0  0  0
  2  1  2  0  0  0  0
  3  4  2  0  0  0  0
  3  2  1  0  0  0  0
  4  5  1  0  0  0  0
  5 35  1  0  0  0  0
  5  6  2  0  0  0  0
  7  2  1  0  0  0  0
  8  9  1  0  0  0  0
  9  3  1  0  0  0  0
 10  9  2  0  0  0  0
 10 11  1  0  0  0  0
 12 10  1  0  0  0  0
 13 12  1  0  0  0  0
 13 14  1  0  0  0  0
 15 13  1  0  0  0  0
 16 15  1  0  0  0  0
 17 15  2  0  0  0  0
 17 18  1  0  0  0  0
 18 19  1  0  0  0  0
 18 12  2  0  0  0  0
 19  8  2  0  0  0  0
 21 22  1  0  0  0  0
 22 20  1  0  0  0  0
 22 23  2  0  0  0  0
 23 31  1  0  0  0  0
 24 23  1  0  0  0  0
 24 29  1  0  0  0  0
 25 27  1  0  0  0  0
 25 24  2  0  0  0  0
 26 21  2  0  0  0  0
 26 25  1  0  0  0  0
 27 28  1  0  0  0  0
 28 34  1  0  0  0  0
 29 28  1  0  0  0  0
 30 21  1  0  0  0  0
 32 26  1  0  0  0  0
 33 28  1  0  0  0  0
 36 39  1  0  0  0  0
 36 35  1  0  0  0  0
 37 36  1  0  0  0  0
 38 36  1  0  0  0  0
M  END
>  <minimizedAffinity>
-6.67566442

$$$$

 OpenBabel03242515413D

 39 43  0  0  0  0  0  0  0  0999 V2000
   34.0010   28.9730   36.2670 C   0  0  0  0  0  0  0  0  0  0  0  0
   34.5630   28.9680   37.5330 C   0  0  0  0  0  0  0  0  0  0  0  0
   35.8990   29.3490   37.6500 C   0  0  0  0  0  0  0  0  0  0  0  0
   36.5620   29.6990   36.5270 N   0  0  0  0  0  0  0  0  0  0  0  0
   35.9840   29.6940   35.3040 C   0  0  0  0  0  0  0  0  0  0  0  0
   34.7180   29.3290   35.2180 N   0  0  0  0  0  0  0  0  0  0  0  0
   34.0180   28.6860   38.4190 H   0  0  0  0  0  0  0  0  0  0  0  0
   37.8740   29.9040   38.9210 C   0  0  0  0  0  3  0  0  0  0  0  0
   36.6120   29.3920   38.8980 C   0  0  0  0  0  0  0  0  0  0  0  0
   36.1000   28.9420   40.0960 C   0  0  0  0  0  0  0  0  0  0  0  0
   35.1220   28.5320   40.1400 H   0  0  0  0  0  0  0  0  0  0  0  0
   36.8430   29.0140   41.2540 C   0  0  0  0  0  0  0  0  0  0  0  0
   36.5350   28.6370   42.5100 N   0  0  0  0  0  0  0  0  0  0  0  0
   35.6830   28.2060   42.9160 H   0  0  0  0  0  0  0  0  0  0  0  0
   37.5760   28.8980   43.3400 C   0  0  0  0  0  0  0  0  0  0  0  0
   37.6800   28.7270   44.4060 H   0  0  0  0  0  0  0  0  0  0  0  0
   38.5570   29.4560   42.5570 C   0  0  0  0  0  3  0  0  0  0  0  0
   38.1180   29.5360   41.2570 C   0  0  0  0  0  0  0  0  0  0  0  0
   38.6610   29.9980   40.0630 C   0  0  0  0  0  3  0  0  0  0  0  0
   32.2660   28.4690   36.1810 S   0  0  0  0  0  0  0  0  0  0  0  0
   30.5980   30.4580   36.9030 C   0  0  0  0  0  0  0  0  0  0  0  0
   31.2180   29.8660   35.8100 C   0  0  0  0  0  0  0  0  0  0  0  0
   31.0140   30.3480   34.5490 C   0  0  0  0  0  0  0  0  0  0  0  0
   30.1950   31.4330   34.2930 C   0  0  0  0  0  0  0  0  0  0  0  0
   29.5690   32.0300   35.4020 C   0  0  0  0  0  0  0  0  0  0  0  0
   29.7530   31.5670   36.6910 C   0  0  0  0  0  0  0  0  0  0  0  0
   28.7970   33.0960   34.9030 O   0  0  0  0  0  0  0  0  0  0  0  0
   28.7010   32.9190   33.5190 C   0  0  0  0  0  0  0  0  0  0  0  0
   29.8080   32.1270   33.1440 O   0  0  0  0  0  0  0  0  0  0  0  0
   30.7000   30.1440   37.9380 H   0  0  0  0  0  0  0  0  0  0  0  0
   31.5160   29.8620   33.7050 H   0  0  0  0  0  0  0  0  0  0  0  0
   29.2620   32.0430   37.5220 H   0  0  0  0  0  0  0  0  0  0  0  0
   28.8500   33.9160   33.0240 H   0  0  0  0  0  0  0  0  0  0  0  0
   27.7350   32.4710   33.1990 H   0  0  0  0  0  0  0  0  0  0  0  0
   36.6160   30.0400   34.1380 O   0  0  0  0  0  0  0  0  0  0  0  0
   36.4380   31.3220   33.6080 C   0  0  0  0  0  0  0  0  0  0  0  0
   35.1530   31.6180   33.2860 F   0  0  0  0  0  0  0  0  0  0  0  0
   36.9620   32.1970   34.5790 F   0  0  0  0  0  0  0  0  0  0  0  0
   37.2140   31.4010   32.4490 F   0  0  0  0  0  0  0  0  0  0  0  0
  1  2  1  0  0  0  0
  2  3  2  0  0  0  0
  2  7  1  0  0  0  0
  3  9  1  0  0  0  0
  4  3  1  0  0  0  0
  5  4  2  0  0  0  0
  6  5  1  0  0  0  0
  6  1  2  0  0  0  0
  8 19  1  0  0  0  0
  9  8  2  0  0  0  0
  9 10  1  0  0  0  0
 10 11  1  0  0  0  0
 10 12  2  0  0  0  0
 12 18  1  0  0  0  0
 12 13  1  0  0  0  0
 13 14  1  0  0  0  0
 13 15  1  0  0  0  0
 15 16  1  0  0  0  0
 17 15  2  0  0  0  0
 18 17  1  0  0  0  0
 19 18  2  0  0  0  0
 20  1  1  0  0  0  0
 21 30  1  0  0  0  0
 22 20  1  0  0  0  0
 22 21  2  0  0  0  0
 23 22  1  0  0  0  0
 24 23  2  0  0  0  0
 24 25  1  0  0  0  0
 25 26  2  0  0  0  0
 26 21  1  0  0  0  0
 26 32  1  0  0  0  0
 27 25  1  0  0  0  0
 28 27  1  0  0  0  0
 29 28  1  0  0  0  0
 29 24  1  0  0  0  0
 31 23  1  0  0  0  0
 33 28  1  0  0  0  0
 34 28  1  0  0  0  0
 35  5  1  0  0  0  0
 36 35  1  0  0  0  0
 36 38  1  0  0  0  0
 37 36  1  0  0  0  0
 39 36  1  0  0  0  0
M  END
>  <minimizedAffinity>
-6.66909409

$$$$

 OpenBabel03242515413D

 39 43  0  0  0  0  0  0  0  0999 V2000
   36.9110   28.9720   41.7380 C   0  0  0  0  0  0  0  0  0  0  0  0
   36.1760   28.5810   40.6300 C   0  0  0  0  0  0  0  0  0  0  0  0
   35.9960   29.5140   39.6100 C   0  0  0  0  0  0  0  0  0  0  0  0
   36.5470   30.7370   39.7630 N   0  0  0  0  0  0  0  0  0  0  0  0
   37.2600   31.0880   40.8570 C   0  0  0  0  0  0  0  0  0  0  0  0
   37.4170   30.1880   41.8100 N   0  0  0  0  0  0  0  0  0  0  0  0
   35.7440   27.5990   40.5270 H   0  0  0  0  0  0  0  0  0  0  0  0
   35.8970   29.3410   37.2050 C   0  0  0  0  0  3  0  0  0  0  0  0
   35.2580   29.2480   38.4050 C   0  0  0  0  0  0  0  0  0  0  0  0
   33.9250   28.9010   38.3760 C   0  0  0  0  0  0  0  0  0  0  0  0
   33.3750   28.8130   39.2790 H   0  0  0  0  0  0  0  0  0  0  0  0
   33.2820   28.6610   37.1810 C   0  0  0  0  0  0  0  0  0  0  0  0
   32.0040   28.3130   36.9350 N   0  0  0  0  0  0  0  0  0  0  0  0
   31.1980   28.1420   37.5650 H   0  0  0  0  0  0  0  0  0  0  0  0
   31.8100   28.1800   35.5990 C   0  0  0  0  0  0  0  0  0  0  0  0
   30.9160   27.9140   35.0450 H   0  0  0  0  0  0  0  0  0  0  0  0
   33.0190   28.4590   35.0090 C   0  0  0  0  0  3  0  0  0  0  0  0
   33.9460   28.7590   35.9770 C   0  0  0  0  0  0  0  0  0  0  0  0
   35.2920   29.1090   35.9760 C   0  0  0  0  0  3  0  0  0  0  0  0
   37.1080   27.7180   43.0260 S   0  0  0  0  0  0  0  0  0  0  0  0
   38.8410   25.7140   42.5350 C   0  0  0  0  0  0  0  0  0  0  0  0
   37.5380   26.1380   42.3120 C   0  0  0  0  0  0  0  0  0  0  0  0
   36.6700   25.3710   41.5890 C   0  0  0  0  0  0  0  0  0  0  0  0
   37.0340   24.1510   41.0480 C   0  0  0  0  0  0  0  0  0  0  0  0
   38.3550   23.7250   41.2760 C   0  0  0  0  0  0  0  0  0  0  0  0
   39.2570   24.4770   42.0020 C   0  0  0  0  0  0  0  0  0  0  0  0
   38.4900   22.4760   40.6400 O   0  0  0  0  0  0  0  0  0  0  0  0
   37.3960   22.3340   39.7800 C   0  0  0  0  0  0  0  0  0  0  0  0
   36.3830   23.1760   40.2880 O   0  0  0  0  0  0  0  0  0  0  0  0
   39.5990   26.2560   43.0950 H   0  0  0  0  0  0  0  0  0  0  0  0
   35.6480   25.7300   41.4290 H   0  0  0  0  0  0  0  0  0  0  0  0
   40.2630   24.1270   42.1620 H   0  0  0  0  0  0  0  0  0  0  0  0
   37.0050   21.2860   39.8760 H   0  0  0  0  0  0  0  0  0  0  0  0
   37.6370   22.5600   38.7180 H   0  0  0  0  0  0  0  0  0  0  0  0
   37.8370   32.3160   41.0550 O   0  0  0  0  0  0  0  0  0  0  0  0
   38.0710   33.1560   39.9610 C   0  0  0  0  0  0  0  0  0  0  0  0
   36.9460   33.6640   39.3990 F   0  0  0  0  0  0  0  0  0  0  0  0
   38.9290   34.1610   40.4470 F   0  0  0  0  0  0  0  0  0  0  0  0
   38.7440   32.4010   38.9970 F   0  0  0  0  0  0  0  0  0  0  0  0
  1  6  1  0  0  0  0
  1 20  1  0  0  0  0
  2  1  2  0  0  0  0
  3  4  2  0  0  0  0
  3  2  1  0  0  0  0
  4  5  1  0  0  0  0
  5 35  1  0  0  0  0
  5  6  2  0  0  0  0
  7  2  1  0  0  0  0
  8  9  1  0  0  0  0
  9  3  1  0  0  0  0
 10  9  2  0  0  0  0
 10 11  1  0  0  0  0
 12 10  1  0  0  0  0
 13 12  1  0  0  0  0
 13 14  1  0  0  0  0
 15 13  1  0  0  0  0
 16 15  1  0  0  0  0
 17 15  2  0  0  0  0
 17 18  1  0  0  0  0
 18 12  2  0  0  0  0
 19 18  1  0  0  0  0
 19  8  2  0  0  0  0
 21 30  1  0  0  0  0
 22 21  1  0  0  0  0
 22 20  1  0  0  0  0
 23 22  2  0  0  0  0
 24 25  2  0  0  0  0
 24 23  1  0  0  0  0
 25 26  1  0  0  0  0
 26 32  1  0  0  0  0
 26 21  2  0  0  0  0
 27 25  1  0  0  0  0
 28 33  1  0  0  0  0
 28 29  1  0  0  0  0
 28 27  1  0  0  0  0
 29 24  1  0  0  0  0
 31 23  1  0  0  0  0
 34 28  1  0  0  0  0
 36 38  1  0  0  0  0
 36 35  1  0  0  0  0
 37 36  1  0  0  0  0
 39 36  1  0  0  0  0
M  END
>  <minimizedAffinity>
-6.53403568

$$$$

 OpenBabel03242515413D

 39 43  0  0  0  0  0  0  0  0999 V2000
   38.0710   29.8010   41.8600 C   0  0  0  0  0  0  0  0  0  0  0  0
   37.4140   29.3750   40.7170 C   0  0  0  0  0  0  0  0  0  0  0  0
   37.4000   30.2350   39.6200 C   0  0  0  0  0  0  0  0  0  0  0  0
   38.0230   31.4260   39.7370 N   0  0  0  0  0  0  0  0  0  0  0  0
   38.6560   31.8130   40.8670 C   0  0  0  0  0  0  0  0  0  0  0  0
   38.6580   30.9830   41.8940 N   0  0  0  0  0  0  0  0  0  0  0  0
   36.9220   28.4190   40.6430 H   0  0  0  0  0  0  0  0  0  0  0  0
   35.5170   29.3640   38.3870 C   0  0  0  0  0  3  0  0  0  0  0  0
   36.7580   29.9250   38.3710 C   0  0  0  0  0  0  0  0  0  0  0  0
   37.3200   30.1600   37.1350 C   0  0  0  0  0  0  0  0  0  0  0  0
   38.2840   30.5960   37.0590 H   0  0  0  0  0  0  0  0  0  0  0  0
   36.6450   29.8370   35.9780 C   0  0  0  0  0  0  0  0  0  0  0  0
   37.0080   29.9820   34.6890 N   0  0  0  0  0  0  0  0  0  0  0  0
   37.8670   30.3640   34.2490 H   0  0  0  0  0  0  0  0  0  0  0  0
   36.0220   29.5240   33.8760 C   0  0  0  0  0  0  0  0  0  0  0  0
   35.9720   29.4850   32.7940 H   0  0  0  0  0  0  0  0  0  0  0  0
   35.0200   29.0830   34.7050 C   0  0  0  0  0  3  0  0  0  0  0  0
   35.3890   29.2690   36.0150 C   0  0  0  0  0  0  0  0  0  0  0  0
   34.7970   29.0210   37.2490 C   0  0  0  0  0  3  0  0  0  0  0  0
   38.0550   28.6420   43.2480 S   0  0  0  0  0  0  0  0  0  0  0  0
   39.4690   26.3880   42.8190 C   0  0  0  0  0  0  0  0  0  0  0  0
   38.2120   26.9590   42.6710 C   0  0  0  0  0  0  0  0  0  0  0  0
   37.1870   26.2500   42.1140 C   0  0  0  0  0  0  0  0  0  0  0  0
   37.3390   24.9470   41.6750 C   0  0  0  0  0  0  0  0  0  0  0  0
   38.6140   24.3720   41.8270 C   0  0  0  0  0  0  0  0  0  0  0  0
   39.6720   25.0620   42.3860 C   0  0  0  0  0  0  0  0  0  0  0  0
   38.5290   23.0630   41.3180 O   0  0  0  0  0  0  0  0  0  0  0  0
   37.3430   22.9880   40.5800 C   0  0  0  0  0  0  0  0  0  0  0  0
   36.4990   24.0010   41.0840 O   0  0  0  0  0  0  0  0  0  0  0  0
   40.3410   26.8740   43.2490 H   0  0  0  0  0  0  0  0  0  0  0  0
   36.2050   26.7250   42.0090 H   0  0  0  0  0  0  0  0  0  0  0  0
   40.6380   24.5980   42.4920 H   0  0  0  0  0  0  0  0  0  0  0  0
   36.8380   22.0140   40.8210 H   0  0  0  0  0  0  0  0  0  0  0  0
   37.5010   23.0780   39.4830 H   0  0  0  0  0  0  0  0  0  0  0  0
   39.3030   33.0110   41.0320 O   0  0  0  0  0  0  0  0  0  0  0  0
   40.4760   33.2700   40.3170 C   0  0  0  0  0  0  0  0  0  0  0  0
   41.3070   34.1610   40.9140 F   0  0  0  0  0  0  0  0  0  0  0  0
   41.0800   32.0110   40.1350 F   0  0  0  0  0  0  0  0  0  0  0  0
   40.0980   33.7840   39.0740 F   0  0  0  0  0  0  0  0  0  0  0  0
  1  6  1  0  0  0  0
  1 20  1  0  0  0  0
  2  1  2  0  0  0  0
  3  4  2  0  0  0  0
  3  2  1  0  0  0  0
  4  5  1  0  0  0  0
  5 35  1  0  0  0  0
  5  6  2  0  0  0  0
  7  2  1  0  0  0  0
  9  8  1  0  0  0  0
  9  3  1  0  0  0  0
 10  9  2  0  0  0  0
 11 10  1  0  0  0  0
 12 18  2  0  0  0  0
 12 10  1  0  0  0  0
 13 12  1  0  0  0  0
 14 13  1  0  0  0  0
 15 13  1  0  0  0  0
 15 17  2  0  0  0  0
 16 15  1  0  0  0  0
 17 18  1  0  0  0  0
 18 19  1  0  0  0  0
 19  8  2  0  0  0  0
 21 30  1  0  0  0  0
 22 21  1  0  0  0  0
 22 20  1  0  0  0  0
 23 22  2  0  0  0  0
 24 25  2  0  0  0  0
 24 23  1  0  0  0  0
 25 26  1  0  0  0  0
 26 32  1  0  0  0  0
 26 21  2  0  0  0  0
 27 25  1  0  0  0  0
 28 33  1  0  0  0  0
 28 29  1  0  0  0  0
 28 27  1  0  0  0  0
 29 24  1  0  0  0  0
 31 23  1  0  0  0  0
 34 28  1  0  0  0  0
 36 37  1  0  0  0  0
 36 35  1  0  0  0  0
 38 36  1  0  0  0  0
 39 36  1  0  0  0  0
M  END
>  <minimizedAffinity>
-6.3978529

$$$$

 OpenBabel03242515413D

 39 43  0  0  0  0  0  0  0  0999 V2000
   36.4070   28.6860   38.5050 C   0  0  0  0  0  0  0  0  0  0  0  0
   37.3700   29.6570   38.2840 C   0  0  0  0  0  0  0  0  0  0  0  0
   37.9780   30.2330   39.3980 C   0  0  0  0  0  0  0  0  0  0  0  0
   37.5930   29.8110   40.6220 N   0  0  0  0  0  0  0  0  0  0  0  0
   36.6500   28.8600   40.8050 C   0  0  0  0  0  0  0  0  0  0  0  0
   36.0870   28.3290   39.7350 N   0  0  0  0  0  0  0  0  0  0  0  0
   37.6650   29.9810   37.2980 H   0  0  0  0  0  0  0  0  0  0  0  0
   39.3710   31.8930   40.4590 C   0  0  0  0  0  3  0  0  0  0  0  0
   38.9920   31.2500   39.3200 C   0  0  0  0  0  0  0  0  0  0  0  0
   39.6190   31.6270   38.1520 C   0  0  0  0  0  0  0  0  0  0  0  0
   39.3650   31.1610   37.2330 H   0  0  0  0  0  0  0  0  0  0  0  0
   40.5830   32.6120   38.1530 C   0  0  0  0  0  0  0  0  0  0  0  0
   41.3070   33.1220   37.1380 N   0  0  0  0  0  0  0  0  0  0  0  0
   41.3230   32.9100   36.1220 H   0  0  0  0  0  0  0  0  0  0  0  0
   42.1450   34.0820   37.6040 C   0  0  0  0  0  0  0  0  0  0  0  0
   42.8640   34.6980   37.0760 H   0  0  0  0  0  0  0  0  0  0  0  0
   41.9210   34.1580   38.9570 C   0  0  0  0  0  3  0  0  0  0  0  0
   40.9530   33.2520   39.3170 C   0  0  0  0  0  0  0  0  0  0  0  0
   40.3370   32.8910   40.5100 C   0  0  0  0  0  3  0  0  0  0  0  0
   35.6560   27.9780   37.0210 S   0  0  0  0  0  0  0  0  0  0  0  0
   33.8370   29.0590   35.3540 C   0  0  0  0  0  0  0  0  0  0  0  0
   34.0780   28.7410   36.6830 C   0  0  0  0  0  0  0  0  0  0  0  0
   33.1440   29.0090   37.6430 C   0  0  0  0  0  0  0  0  0  0  0  0
   31.9290   29.6020   37.3500 C   0  0  0  0  0  0  0  0  0  0  0  0
   31.6890   29.9240   36.0020 C   0  0  0  0  0  0  0  0  0  0  0  0
   32.6120   29.6660   35.0070 C   0  0  0  0  0  0  0  0  0  0  0  0
   30.4100   30.5080   35.9490 O   0  0  0  0  0  0  0  0  0  0  0  0
   30.0530   30.8320   37.2620 C   0  0  0  0  0  0  0  0  0  0  0  0
   30.8130   29.9860   38.0980 O   0  0  0  0  0  0  0  0  0  0  0  0
   34.5180   28.8840   34.5250 H   0  0  0  0  0  0  0  0  0  0  0  0
   33.3600   28.7470   38.6850 H   0  0  0  0  0  0  0  0  0  0  0  0
   32.4030   29.9210   33.9820 H   0  0  0  0  0  0  0  0  0  0  0  0
   28.9800   30.5410   37.4190 H   0  0  0  0  0  0  0  0  0  0  0  0
   30.2000   31.9070   37.5050 H   0  0  0  0  0  0  0  0  0  0  0  0
   36.2280   28.4010   42.0260 O   0  0  0  0  0  0  0  0  0  0  0  0
   37.0460   27.5370   42.7620 C   0  0  0  0  0  0  0  0  0  0  0  0
   37.6900   26.6080   42.0130 F   0  0  0  0  0  0  0  0  0  0  0  0
   37.9360   28.3780   43.4570 F   0  0  0  0  0  0  0  0  0  0  0  0
   36.2260   26.8740   43.6800 F   0  0  0  0  0  0  0  0  0  0  0  0
  1  6  1  0  0  0  0
  2  1  2  0  0  0  0
  2  3  1  0  0  0  0
  3  4  2  0  0  0  0
  4  5  1  0  0  0  0
  5 35  1  0  0  0  0
  6  5  2  0  0  0  0
  7  2  1  0  0  0  0
  8 19  1  0  0  0  0
  9  3  1  0  0  0  0
  9  8  2  0  0  0  0
 10 12  2  0  0  0  0
 10  9  1  0  0  0  0
 11 10  1  0  0  0  0
 12 18  1  0  0  0  0
 13 15  1  0  0  0  0
 13 12  1  0  0  0  0
 14 13  1  0  0  0  0
 15 17  2  0  0  0  0
 16 15  1  0  0  0  0
 17 18  1  0  0  0  0
 18 19  2  0  0  0  0
 20  1  1  0  0  0  0
 21 22  1  0  0  0  0
 22 20  1  0  0  0  0
 22 23  2  0  0  0  0
 23 31  1  0  0  0  0
 24 23  1  0  0  0  0
 24 29  1  0  0  0  0
 25 24  2  0  0  0  0
 26 21  2  0  0  0  0
 26 25  1  0  0  0  0
 27 25  1  0  0  0  0
 27 28  1  0  0  0  0
 28 33  1  0  0  0  0
 28 34  1  0  0  0  0
 28 29  1  0  0  0  0
 30 21  1  0  0  0  0
 32 26  1  0  0  0  0
 35 36  1  0  0  0  0
 36 38  1  0  0  0  0
 36 39  1  0  0  0  0
 37 36  1  0  0  0  0
M  END
>  <minimizedAffinity>
-6.37372684

$$$$

 OpenBabel03242515413D

 39 43  0  0  0  0  0  0  0  0999 V2000
   36.5020   28.1020   36.4430 C   0  0  0  0  0  0  0  0  0  0  0  0
   35.1900   28.2250   36.8720 C   0  0  0  0  0  0  0  0  0  0  0  0
   34.3250   28.9950   36.0960 C   0  0  0  0  0  0  0  0  0  0  0  0
   34.8140   29.5720   34.9780 N   0  0  0  0  0  0  0  0  0  0  0  0
   36.1010   29.4320   34.5850 C   0  0  0  0  0  0  0  0  0  0  0  0
   36.9030   28.6990   35.3350 N   0  0  0  0  0  0  0  0  0  0  0  0
   34.8170   27.7570   37.7680 H   0  0  0  0  0  0  0  0  0  0  0  0
   32.0160   29.1750   35.4180 C   0  0  0  0  0  3  0  0  0  0  0  0
   32.9400   29.2100   36.4180 C   0  0  0  0  0  0  0  0  0  0  0  0
   32.4720   29.4530   37.6910 C   0  0  0  0  0  0  0  0  0  0  0  0
   33.1440   29.4920   38.5110 H   0  0  0  0  0  0  0  0  0  0  0  0
   31.1280   29.6500   37.9250 C   0  0  0  0  0  0  0  0  0  0  0  0
   30.4720   29.8980   39.0750 N   0  0  0  0  0  0  0  0  0  0  0  0
   30.8020   30.0010   40.0540 H   0  0  0  0  0  0  0  0  0  0  0  0
   29.1430   30.0220   38.8320 C   0  0  0  0  0  0  0  0  0  0  0  0
   28.3240   30.2220   39.5140 H   0  0  0  0  0  0  0  0  0  0  0  0
   28.9850   29.8440   37.4800 C   0  0  0  0  0  3  0  0  0  0  0  0
   30.2080   29.6110   36.8990 C   0  0  0  0  0  0  0  0  0  0  0  0
   30.6520   29.3670   35.6040 C   0  0  0  0  0  3  0  0  0  0  0  0
   37.5750   27.0920   37.4910 S   0  0  0  0  0  0  0  0  0  0  0  0
   38.4560   28.8840   39.2990 C   0  0  0  0  0  0  0  0  0  0  0  0
   37.6560   27.7590   39.1450 C   0  0  0  0  0  0  0  0  0  0  0  0
   36.9910   27.2260   40.2110 C   0  0  0  0  0  0  0  0  0  0  0  0
   37.0750   27.7660   41.4820 C   0  0  0  0  0  0  0  0  0  0  0  0
   37.8860   28.9050   41.6350 C   0  0  0  0  0  0  0  0  0  0  0  0
   38.5720   29.4690   40.5770 C   0  0  0  0  0  0  0  0  0  0  0  0
   37.8170   29.2690   42.9930 O   0  0  0  0  0  0  0  0  0  0  0  0
   37.2630   28.1850   43.6800 C   0  0  0  0  0  0  0  0  0  0  0  0
   36.5260   27.4480   42.7270 O   0  0  0  0  0  0  0  0  0  0  0  0
   39.0200   29.3760   38.5110 H   0  0  0  0  0  0  0  0  0  0  0  0
   36.3680   26.3380   40.0610 H   0  0  0  0  0  0  0  0  0  0  0  0
   39.1850   30.3430   40.7210 H   0  0  0  0  0  0  0  0  0  0  0  0
   36.5120   28.5780   44.4160 H   0  0  0  0  0  0  0  0  0  0  0  0
   38.0210   27.5590   44.2000 H   0  0  0  0  0  0  0  0  0  0  0  0
   36.6420   29.9980   33.4600 O   0  0  0  0  0  0  0  0  0  0  0  0
   36.5480   31.3790   33.2650 C   0  0  0  0  0  0  0  0  0  0  0  0
   35.3330   31.7990   32.8310 F   0  0  0  0  0  0  0  0  0  0  0  0
   36.9030   31.9500   34.5020 F   0  0  0  0  0  0  0  0  0  0  0  0
   37.5030   31.7270   32.3050 F   0  0  0  0  0  0  0  0  0  0  0  0
  1  2  1  0  0  0  0
  1 20  1  0  0  0  0
  2  7  1  0  0  0  0
  3  9  1  0  0  0  0
  3  2  2  0  0  0  0
  4  3  1  0  0  0  0
  5  4  2  0  0  0  0
  5  6  1  0  0  0  0
  6  1  2  0  0  0  0
  8 19  2  0  0  0  0
  8  9  1  0  0  0  0
  9 10  2  0  0  0  0
 10 12  1  0  0  0  0
 10 11  1  0  0  0  0
 12 13  1  0  0  0  0
 13 14  1  0  0  0  0
 15 13  1  0  0  0  0
 15 16  1  0  0  0  0
 17 15  2  0  0  0  0
 18 17  1  0  0  0  0
 18 12  2  0  0  0  0
 19 18  1  0  0  0  0
 20 22  1  0  0  0  0
 21 26  1  0  0  0  0
 22 21  2  0  0  0  0
 22 23  1  0  0  0  0
 23 24  2  0  0  0  0
 24 25  1  0  0  0  0
 24 29  1  0  0  0  0
 25 27  1  0  0  0  0
 26 32  1  0  0  0  0
 26 25  2  0  0  0  0
 27 28  1  0  0  0  0
 28 34  1  0  0  0  0
 28 33  1  0  0  0  0
 29 28  1  0  0  0  0
 30 21  1  0  0  0  0
 31 23  1  0  0  0  0
 35  5  1  0  0  0  0
 36 35  1  0  0  0  0
 36 38  1  0  0  0  0
 37 36  1  0  0  0  0
 39 36  1  0  0  0  0
M  END
>  <minimizedAffinity>
-6.34102726

$$$$

 OpenBabel03242515413D

 39 43  0  0  0  0  0  0  0  0999 V2000
   37.3200   30.8420   40.5520 C   0  0  0  0  0  0  0  0  0  0  0  0
   36.6190   30.6820   39.3680 C   0  0  0  0  0  0  0  0  0  0  0  0
   35.8030   29.5580   39.2450 C   0  0  0  0  0  0  0  0  0  0  0  0
   35.7460   28.6970   40.2840 N   0  0  0  0  0  0  0  0  0  0  0  0
   36.4430   28.8820   41.4280 C   0  0  0  0  0  0  0  0  0  0  0  0
   37.2090   29.9530   41.5220 N   0  0  0  0  0  0  0  0  0  0  0  0
   36.6780   31.3810   38.5500 H   0  0  0  0  0  0  0  0  0  0  0  0
   35.6150   29.3110   36.8520 C   0  0  0  0  0  3  0  0  0  0  0  0
   35.0200   29.2630   38.0760 C   0  0  0  0  0  0  0  0  0  0  0  0
   33.6830   28.9290   38.1060 C   0  0  0  0  0  0  0  0  0  0  0  0
   33.1650   28.8750   39.0310 H   0  0  0  0  0  0  0  0  0  0  0  0
   32.9950   28.6590   36.9430 C   0  0  0  0  0  0  0  0  0  0  0  0
   31.7060   28.3170   36.7540 N   0  0  0  0  0  0  0  0  0  0  0  0
   30.9210   28.1750   37.4180 H   0  0  0  0  0  0  0  0  0  0  0  0
   31.4620   28.1450   35.4300 C   0  0  0  0  0  0  0  0  0  0  0  0
   30.5460   27.8720   34.9180 H   0  0  0  0  0  0  0  0  0  0  0  0
   32.6520   28.3920   34.7890 C   0  0  0  0  0  3  0  0  0  0  0  0
   33.6160   28.7130   35.7140 C   0  0  0  0  0  0  0  0  0  0  0  0
   34.9640   29.0480   35.6530 C   0  0  0  0  0  3  0  0  0  0  0  0
   38.3590   32.3180   40.6510 S   0  0  0  0  0  0  0  0  0  0  0  0
   40.3310   33.4190   39.1810 C   0  0  0  0  0  0  0  0  0  0  0  0
   39.7200   32.2140   39.5000 C   0  0  0  0  0  0  0  0  0  0  0  0
   40.1580   31.0440   38.9480 C   0  0  0  0  0  0  0  0  0  0  0  0
   41.2160   30.9960   38.0570 C   0  0  0  0  0  0  0  0  0  0  0  0
   41.8320   32.2190   37.7370 C   0  0  0  0  0  0  0  0  0  0  0  0
   41.4130   33.4190   38.2770 C   0  0  0  0  0  0  0  0  0  0  0  0
   42.8650   31.9240   36.8280 O   0  0  0  0  0  0  0  0  0  0  0  0
   42.6440   30.6220   36.3660 C   0  0  0  0  0  0  0  0  0  0  0  0
   41.8660   29.9790   37.3530 O   0  0  0  0  0  0  0  0  0  0  0  0
   40.0510   34.3950   39.5690 H   0  0  0  0  0  0  0  0  0  0  0  0
   39.6580   30.1080   39.2160 H   0  0  0  0  0  0  0  0  0  0  0  0
   41.9030   34.3420   38.0160 H   0  0  0  0  0  0  0  0  0  0  0  0
   43.6280   30.0820   36.3450 H   0  0  0  0  0  0  0  0  0  0  0  0
   42.1640   30.5870   35.3630 H   0  0  0  0  0  0  0  0  0  0  0  0
   36.4150   28.0360   42.5070 O   0  0  0  0  0  0  0  0  0  0  0  0
   37.3310   26.9820   42.5850 C   0  0  0  0  0  0  0  0  0  0  0  0
   38.0370   26.7730   41.4440 F   0  0  0  0  0  0  0  0  0  0  0  0
   38.1610   27.2960   43.6790 F   0  0  0  0  0  0  0  0  0  0  0  0
   36.6050   25.8240   42.8730 F   0  0  0  0  0  0  0  0  0  0  0  0
  1 20  1  0  0  0  0
  1  6  1  0  0  0  0
  2  1  2  0  0  0  0
  3  2  1  0  0  0  0
  3  4  2  0  0  0  0
  4  5  1  0  0  0  0
  5  6  2  0  0  0  0
  5 35  1  0  0  0  0
  7  2  1  0  0  0  0
  8  9  1  0  0  0  0
  9 10  2  0  0  0  0
  9  3  1  0  0  0  0
 10 11  1  0  0  0  0
 12 10  1  0  0  0  0
 13 12  1  0  0  0  0
 13 14  1  0  0  0  0
 15 13  1  0  0  0  0
 16 15  1  0  0  0  0
 17 15  2  0  0  0  0
 17 18  1  0  0  0  0
 18 12  2  0  0  0  0
 19 18  1  0  0  0  0
 19  8  2  0  0  0  0
 21 22  1  0  0  0  0
 21 30  1  0  0  0  0
 22 20  1  0  0  0  0
 23 31  1  0  0  0  0
 23 22  2  0  0  0  0
 24 23  1  0  0  0  0
 25 24  2  0  0  0  0
 25 26  1  0  0  0  0
 26 21  2  0  0  0  0
 27 25  1  0  0  0  0
 28 27  1  0  0  0  0
 28 29  1  0  0  0  0
 29 24  1  0  0  0  0
 32 26  1  0  0  0  0
 33 28  1  0  0  0  0
 34 28  1  0  0  0  0
 35 36  1  0  0  0  0
 36 39  1  0  0  0  0
 36 38  1  0  0  0  0
 37 36  1  0  0  0  0
M  END
>  <minimizedAffinity>
-6.33296442

$$$$

 OpenBabel03242515413D

 39 43  0  0  0  0  0  0  0  0999 V2000
   35.2420   28.2530   37.8520 C   0  0  0  0  0  0  0  0  0  0  0  0
   35.8250   27.3070   38.6800 C   0  0  0  0  0  0  0  0  0  0  0  0
   36.8290   27.7370   39.5480 C   0  0  0  0  0  0  0  0  0  0  0  0
   37.1700   29.0430   39.5290 N   0  0  0  0  0  0  0  0  0  0  0  0
   36.5810   29.9420   38.7090 C   0  0  0  0  0  0  0  0  0  0  0  0
   35.6330   29.5130   37.8960 N   0  0  0  0  0  0  0  0  0  0  0  0
   35.5390   26.2680   38.6800 H   0  0  0  0  0  0  0  0  0  0  0  0
   36.9760   25.6570   40.7620 C   0  0  0  0  0  3  0  0  0  0  0  0
   37.5210   26.8680   40.4610 C   0  0  0  0  0  0  0  0  0  0  0  0
   38.7190   27.1800   41.0660 C   0  0  0  0  0  0  0  0  0  0  0  0
   39.1910   28.1100   40.8700 H   0  0  0  0  0  0  0  0  0  0  0  0
   39.3250   26.2970   41.9330 C   0  0  0  0  0  0  0  0  0  0  0  0
   40.4790   26.4040   42.6190 N   0  0  0  0  0  0  0  0  0  0  0  0
   41.1890   27.1600   42.6700 H   0  0  0  0  0  0  0  0  0  0  0  0
   40.6860   25.2830   43.3550 C   0  0  0  0  0  0  0  0  0  0  0  0
   41.5020   25.0250   44.0200 H   0  0  0  0  0  0  0  0  0  0  0  0
   39.6140   24.4610   43.1060 C   0  0  0  0  0  3  0  0  0  0  0  0
   38.7570   25.0750   42.2240 C   0  0  0  0  0  0  0  0  0  0  0  0
   37.5480   24.7330   41.6280 C   0  0  0  0  0  3  0  0  0  0  0  0
   33.9480   27.6350   36.7500 S   0  0  0  0  0  0  0  0  0  0  0  0
   32.9180   29.3870   34.9820 C   0  0  0  0  0  0  0  0  0  0  0  0
   32.8240   28.9450   36.2950 C   0  0  0  0  0  0  0  0  0  0  0  0
   31.9190   29.5010   37.1530 C   0  0  0  0  0  0  0  0  0  0  0  0
   31.0610   30.5160   36.7700 C   0  0  0  0  0  0  0  0  0  0  0  0
   31.1600   30.9610   35.4400 C   0  0  0  0  0  0  0  0  0  0  0  0
   32.0640   30.4210   34.5460 C   0  0  0  0  0  0  0  0  0  0  0  0
   30.2030   31.9820   35.2850 O   0  0  0  0  0  0  0  0  0  0  0  0
   29.7960   32.3590   36.5690 C   0  0  0  0  0  0  0  0  0  0  0  0
   30.0620   31.2560   37.4080 O   0  0  0  0  0  0  0  0  0  0  0  0
   33.6050   29.0060   34.2310 H   0  0  0  0  0  0  0  0  0  0  0  0
   31.8670   29.1330   38.1840 H   0  0  0  0  0  0  0  0  0  0  0  0
   32.1180   30.7790   33.5320 H   0  0  0  0  0  0  0  0  0  0  0  0
   28.6800   32.4830   36.5630 H   0  0  0  0  0  0  0  0  0  0  0  0
   30.2850   33.2900   36.9300 H   0  0  0  0  0  0  0  0  0  0  0  0
   36.8930   31.2760   38.6560 O   0  0  0  0  0  0  0  0  0  0  0  0
   37.1430   31.9770   39.8400 C   0  0  0  0  0  0  0  0  0  0  0  0
   38.3770   31.7630   40.3640 F   0  0  0  0  0  0  0  0  0  0  0  0
   36.9240   33.3300   39.5190 F   0  0  0  0  0  0  0  0  0  0  0  0
   36.1890   31.5640   40.7740 F   0  0  0  0  0  0  0  0  0  0  0  0
  1  6  2  0  0  0  0
  1  2  1  0  0  0  0
  2  7  1  0  0  0  0
  2  3  2  0  0  0  0
  3  9  1  0  0  0  0
  4  3  1  0  0  0  0
  5  4  2  0  0  0  0
  6  5  1  0  0  0  0
  8 19  1  0  0  0  0
  9  8  2  0  0  0  0
  9 10  1  0  0  0  0
 10 12  2  0  0  0  0
 11 10  1  0  0  0  0
 12 18  1  0  0  0  0
 12 13  1  0  0  0  0
 13 14  1  0  0  0  0
 13 15  1  0  0  0  0
 15 16  1  0  0  0  0
 17 15  2  0  0  0  0
 18 17  1  0  0  0  0
 19 18  2  0  0  0  0
 20  1  1  0  0  0  0
 21 22  1  0  0  0  0
 22 20  1  0  0  0  0
 22 23  2  0  0  0  0
 23 31  1  0  0  0  0
 24 23  1  0  0  0  0
 24 29  1  0  0  0  0
 25 24  2  0  0  0  0
 26 21  2  0  0  0  0
 26 25  1  0  0  0  0
 27 25  1  0  0  0  0
 27 28  1  0  0  0  0
 28 34  1  0  0  0  0
 28 29  1  0  0  0  0
 30 21  1  0  0  0  0
 32 26  1  0  0  0  0
 33 28  1  0  0  0  0
 35  5  1  0  0  0  0
 35 36  1  0  0  0  0
 36 37  1  0  0  0  0
 36 39  1  0  0  0  0
 38 36  1  0  0  0  0
M  END
>  <minimizedAffinity>
-6.31787443

$$$$
