REMARK  Name = 
REMARK  3 active torsions:
REMARK  status: ('A' for Active; 'I' for Inactive)
REMARK    1  A    between atoms: C_1  and  C_15
REMARK    2  A    between atoms: C_12  and  N_17
REMARK    3  A    between atoms: C_13  and  C_27
REMARK                            x       y       z     vdW  Elec       q    Type
REMARK                         _______ _______ _______ _____ _____    ______ ____
ROOT
ATOM      1  C   UNL     1      47.661  32.294  48.199  0.00  0.00    +0.000 A 
ATOM      2  C   UNL     1      47.284  30.964  48.285  0.00  0.00    +0.000 A 
ATOM      3  C   UNL     1      46.387  30.531  47.354  0.00  0.00    +0.000 A 
ATOM      4  N   UNL     1      45.918  31.369  46.424  0.00  0.00    +0.000 NA
ATOM      5  C   UNL     1      46.276  32.641  46.340  0.00  0.00    +0.000 A 
ATOM      6  N   UNL     1      47.150  33.063  47.246  0.00  0.00    +0.000 NA
ATOM      7  H   UNL     1      48.384  32.636  48.952  0.00  0.00    +0.000 HD
ENDROOT
BRANCH   5   8
ATOM      8  C   UNL     1      45.892  33.711  45.420  0.00  0.00    +0.000 A 
ATOM      9  N   UNL     1      44.922  34.620  45.670  0.00  0.00    +0.000 NA
ATOM     10  C   UNL     1      44.551  35.602  44.857  0.00  0.00    +0.000 A 
ATOM     11  N   UNL     1      45.162  35.754  43.663  0.00  0.00    +0.000 NA
ATOM     12  C   UNL     1      46.150  34.910  43.292  0.00  0.00    +0.000 A 
ATOM     13  C   UNL     1      46.778  35.066  42.065  0.00  0.00    +0.000 A 
ATOM     14  C   UNL     1      47.780  34.222  41.672  0.00  0.00    +0.000 A 
ATOM     15  C   UNL     1      48.134  33.220  42.541  0.00  0.00    +0.000 A 
ATOM     16  C   UNL     1      47.487  33.097  43.750  0.00  0.00    +0.000 A 
ATOM     17  C   UNL     1      46.471  33.924  44.191  0.00  0.00    +0.000 A 
ATOM     18  H   UNL     1      43.753  36.282  45.158  0.00  0.00    +0.000 HD
ATOM     19  H   UNL     1      46.422  35.887  41.457  0.00  0.00    +0.000 HD
ATOM     20  H   UNL     1      48.242  34.367  40.726  0.00  0.00    +0.000 HD
ATOM     21  H   UNL     1      48.922  32.520  42.284  0.00  0.00    +0.000 HD
ATOM     22  H   UNL     1      47.814  32.275  44.405  0.00  0.00    +0.000 HD
ENDBRANCH   5   8
BRANCH   3  24
ATOM     23  C   UNL     1      46.491  28.104  48.017  0.00  0.00    +0.000 A 
ATOM     24  C   UNL     1      45.922  29.166  47.344  0.00  0.00    +0.000 A 
ATOM     25  C   UNL     1      44.780  28.946  46.564  0.00  0.00    +0.000 A 
ATOM     26  H   UNL     1      44.294  29.726  46.020  0.00  0.00    +0.000 HD
ATOM     27  C   UNL     1      44.251  27.675  46.485  0.00  0.00    +0.000 A 
ATOM     28  N   UNL     1      43.194  27.146  45.842  0.00  0.00    +0.000 N 
ATOM     29  H   UNL     1      42.522  27.654  45.229  0.00  0.00    +0.000 HD
ATOM     30  C   UNL     1      43.054  25.832  46.058  0.00  0.00    +0.000 A 
ATOM     31  H   UNL     1      42.300  25.166  45.669  0.00  0.00    +0.000 HD
ATOM     32  C   UNL     1      44.089  25.436  46.909  0.00  0.00    +0.000 A 
ATOM     33  C   UNL     1      44.801  26.595  47.149  0.00  0.00    +0.000 A 
ATOM     34  C   UNL     1      45.937  26.868  47.912  0.00  0.00    +0.000 A 
ENDBRANCH   3  24
BRANCH   2  35
ATOM     35  N   UNL     1      47.814  30.133  49.287  0.00  0.00    +0.000 N 
ATOM     36  H   UNL     1      47.916  30.461  50.291  0.00  0.00    +0.000 HD
ATOM     37  H   UNL     1      48.121  29.159  49.043  0.00  0.00    +0.000 HD
ENDBRANCH   2  35
TORSDOF 3
