
 OpenBabel03252502463D

 48 52  0  0  1  0  0  0  0  0999 V2000
   48.1050   35.6770   41.7730 C   0  0  0  0  0  0  0  0  0  0  0  0
   48.1970   36.0620   42.8100 H   0  0  0  0  0  0  0  0  0  0  0  0
   48.0500   36.5900   41.1340 H   0  0  0  0  0  0  0  0  0  0  0  0
   49.2940   34.8270   41.4700 C   0  0  1  0  0  0  0  0  0  0  0  0
   50.2570   34.5560   42.5850 C   0  0  0  0  0  0  0  0  0  0  0  0
   49.3490   33.5000   42.0720 C   0  0  2  0  0  0  0  0  0  0  0  0
   49.7600   35.0500   40.5160 H   0  0  0  0  0  0  0  0  0  0  0  0
   51.3460   34.5440   42.3870 H   0  0  0  0  0  0  0  0  0  0  0  0
   50.0330   35.0410   43.5670 H   0  0  0  0  0  0  0  0  0  0  0  0
   48.6510   33.1040   42.8000 H   0  0  0  0  0  0  0  0  0  0  0  0
   50.0290   32.5170   41.2320 N   0  0  0  0  0  0  0  0  0  0  0  0
   49.3070   32.1230   40.0780 C   0  0  0  0  0  0  0  0  0  0  0  0
   50.1800   31.1010   39.3720 C   0  0  0  0  0  0  0  0  0  0  0  0
   50.3810   29.9410   40.1670 N   0  0  0  0  0  0  0  0  0  0  0  0
   50.3280   30.1810   41.5960 C   0  0  0  0  0  0  0  0  0  0  0  0
   50.8370   31.5910   41.9020 C   0  0  0  0  0  0  0  0  0  0  0  0
   49.2050   32.9860   39.3790 H   0  0  0  0  0  0  0  0  0  0  0  0
   48.3230   31.7200   40.3550 H   0  0  0  0  0  0  0  0  0  0  0  0
   49.6780   30.8330   38.4120 H   0  0  0  0  0  0  0  0  0  0  0  0
   51.0980   31.6470   39.0780 H   0  0  0  0  0  0  0  0  0  0  0  0
   51.2140   29.4030   39.8730 H   0  0  0  0  0  0  0  0  0  0  0  0
   49.2930   30.1450   41.9670 H   0  0  0  0  0  0  0  0  0  0  0  0
   50.9420   29.4120   42.0700 H   0  0  0  0  0  0  0  0  0  0  0  0
   50.8600   31.7520   42.9810 H   0  0  0  0  0  0  0  0  0  0  0  0
   51.9040   31.6170   41.5490 H   0  0  0  0  0  0  0  0  0  0  0  0
   46.8960   34.7910   41.6650 C   0  0  0  0  0  0  0  0  0  0  0  0
   46.2180   35.2960   40.9180 H   0  0  0  0  0  0  0  0  0  0  0  0
   47.0490   33.7920   41.2900 H   0  0  0  0  0  0  0  0  0  0  0  0
   44.4520   35.9010   44.2830 C   0  0  0  0  0  0  0  0  0  0  0  0
   45.1620   35.8270   43.0640 C   0  0  0  0  0  0  0  0  0  0  0  0
   46.1310   34.8780   42.9500 C   0  0  0  0  0  0  0  0  0  0  0  0
   46.3820   34.0440   44.0000 N   0  0  0  0  0  0  0  0  0  0  0  0
   45.7160   34.1220   45.1300 C   0  0  0  0  0  0  0  0  0  0  0  0
   44.7470   35.0460   45.2870 N   0  0  0  0  0  0  0  0  0  0  0  0
   43.6760   36.6330   44.4250 H   0  0  0  0  0  0  0  0  0  0  0  0
   44.8770   36.5390   42.3020 H   0  0  0  0  0  0  0  0  0  0  0  0
   45.2180   33.2370   47.3790 C   0  0  0  0  0  3  0  0  0  0  0  0
   46.0050   33.2100   46.2470 C   0  0  0  0  0  0  0  0  0  0  0  0
   47.0690   32.3180   46.1730 C   0  0  0  0  0  0  0  0  0  0  0  0
   47.6680   32.3060   45.2970 H   0  0  0  0  0  0  0  0  0  0  0  0
   47.2620   31.4980   47.2770 C   0  0  0  0  0  0  0  0  0  0  0  0
   48.2400   30.5790   47.3750 N   0  0  0  0  0  0  0  0  0  0  0  0
   49.0060   30.3100   46.6890 H   0  0  0  0  0  0  0  0  0  0  0  0
   48.1290   29.9800   48.5610 C   0  0  0  0  0  0  0  0  0  0  0  0
   48.7460   29.1920   48.9760 H   0  0  0  0  0  0  0  0  0  0  0  0
   47.0460   30.5280   49.2490 C   0  0  0  0  0  3  0  0  0  0  0  0
   46.4970   31.5000   48.4170 C   0  0  0  0  0  0  0  0  0  0  0  0
   45.4400   32.3950   48.4750 C   0  0  0  0  0  3  0  0  0  0  0  0
  1  2  1  0  0  0  0
  3  1  1  0  0  0  0
  4  7  1  6  0  0  0
  4  1  1  0  0  0  0
  4  6  1  0  0  0  0
  4  5  1  0  0  0  0
  5  9  1  0  0  0  0
  6  5  1  0  0  0  0
  6 10  1  1  0  0  0
  8  5  1  0  0  0  0
 11 16  1  0  0  0  0
 11  6  1  0  0  0  0
 12 18  1  0  0  0  0
 12 11  1  0  0  0  0
 13 12  1  0  0  0  0
 13 14  1  0  0  0  0
 14 15  1  0  0  0  0
 15 16  1  0  0  0  0
 15 22  1  0  0  0  0
 15 23  1  0  0  0  0
 16 24  1  0  0  0  0
 17 12  1  0  0  0  0
 19 13  1  0  0  0  0
 20 13  1  0  0  0  0
 21 14  1  0  0  0  0
 25 16  1  0  0  0  0
 26  1  1  0  0  0  0
 26 31  1  0  0  0  0
 27 26  1  0  0  0  0
 28 26  1  0  0  0  0
 29 35  1  0  0  0  0
 29 34  1  0  0  0  0
 30 29  2  0  0  0  0
 31 30  1  0  0  0  0
 31 32  2  0  0  0  0
 32 33  1  0  0  0  0
 33 34  2  0  0  0  0
 33 38  1  0  0  0  0
 36 30  1  0  0  0  0
 37 48  1  0  0  0  0
 38 37  2  0  0  0  0
 39 38  1  0  0  0  0
 39 41  2  0  0  0  0
 40 39  1  0  0  0  0
 41 42  1  0  0  0  0
 41 47  1  0  0  0  0
 42 44  1  0  0  0  0
 43 42  1  0  0  0  0
 44 45  1  0  0  0  0
 44 46  2  0  0  0  0
 47 48  2  0  0  0  0
 47 46  1  0  0  0  0
M  END
>  <minimizedAffinity>
-6.0273633

>  <minimizedRMSD>
0.756204307

$$$$
