
 OpenBabel03252509263D

 33 36  0  0  1  0  0  0  0  0999 V2000
   46.5250   35.0090   41.9020 C   0  0  1  0  0  0  0  0  0  0  0  0
   48.0370   35.3620   41.8940 C   0  0  0  0  0  0  0  0  0  0  0  0
   47.3900   34.0570   41.3390 C   0  0  2  0  0  0  0  0  0  0  0  0
   45.9320   35.7230   41.3060 H   0  0  0  0  0  0  0  0  0  0  0  0
   48.6100   35.2580   42.8200 H   0  0  0  0  0  0  0  0  0  0  0  0
   48.3500   36.0990   41.1370 H   0  0  0  0  0  0  0  0  0  0  0  0
   47.6610   33.1400   41.9440 H   0  0  0  0  0  0  0  0  0  0  0  0
   44.6580   35.4230   45.1310 C   0  0  0  0  0  0  0  0  0  0  0  0
   45.1060   35.6990   43.8110 C   0  0  0  0  0  0  0  0  0  0  0  0
   46.0290   34.8360   43.3200 C   0  0  0  0  0  0  0  0  0  0  0  0
   46.5060   33.7640   44.0500 N   0  0  0  0  0  0  0  0  0  0  0  0
   46.0530   33.5370   45.3080 C   0  0  0  0  0  0  0  0  0  0  0  0
   45.1230   34.3760   45.8470 N   0  0  0  0  0  0  0  0  0  0  0  0
   43.9190   36.1100   45.5280 H   0  0  0  0  0  0  0  0  0  0  0  0
   46.3770   32.7330   45.9260 H   0  0  0  0  0  0  0  0  0  0  0  0
   44.6430   36.8050   43.0790 N   0  0  0  0  0  0  0  0  0  0  0  0
   43.7260   36.9400   42.5980 H   0  0  0  0  0  0  0  0  0  0  0  0
   45.3640   37.5870   43.0400 H   0  0  0  0  0  0  0  0  0  0  0  0
   47.4320   33.8110   39.8490 C   0  0  0  0  0  0  0  0  0  0  0  0
   46.5030   33.2570   39.6090 H   0  0  0  0  0  0  0  0  0  0  0  0
   47.4190   34.7600   39.2760 H   0  0  0  0  0  0  0  0  0  0  0  0
   49.3450   32.2560   40.4290 C   0  0  0  0  0  3  0  0  0  0  0  0
   48.5770   32.9450   39.5240 C   0  0  0  0  0  0  0  0  0  0  0  0
   48.8950   32.8220   38.1760 C   0  0  0  0  0  0  0  0  0  0  0  0
   48.3450   33.3280   37.3930 H   0  0  0  0  0  0  0  0  0  0  0  0
   49.9450   32.0420   37.7310 C   0  0  0  0  0  0  0  0  0  0  0  0
   50.4520   31.7580   36.5210 N   0  0  0  0  0  0  0  0  0  0  0  0
   50.0660   32.1470   35.6150 H   0  0  0  0  0  0  0  0  0  0  0  0
   51.5020   30.9250   36.6270 C   0  0  0  0  0  0  0  0  0  0  0  0
   52.0600   30.5690   35.7670 H   0  0  0  0  0  0  0  0  0  0  0  0
   51.7020   30.6410   37.9630 C   0  0  0  0  0  3  0  0  0  0  0  0
   50.7150   31.3500   38.6370 C   0  0  0  0  0  0  0  0  0  0  0  0
   50.3960   31.4740   39.9770 C   0  0  0  0  0  3  0  0  0  0  0  0
  1  4  1  6  0  0  0
  1 10  1  0  0  0  0
  2  1  1  0  0  0  0
  2  5  1  0  0  0  0
  3  2  1  0  0  0  0
  3  1  1  0  0  0  0
  3  7  1  1  0  0  0
  6  2  1  0  0  0  0
  8 14  1  0  0  0  0
  8 13  1  0  0  0  0
  9  8  2  0  0  0  0
 10  9  1  0  0  0  0
 10 11  2  0  0  0  0
 11 12  1  0  0  0  0
 12 13  2  0  0  0  0
 12 15  1  0  0  0  0
 16  9  1  0  0  0  0
 17 16  1  0  0  0  0
 18 16  1  0  0  0  0
 19  3  1  0  0  0  0
 20 19  1  0  0  0  0
 21 19  1  0  0  0  0
 23 19  1  0  0  0  0
 23 22  2  0  0  0  0
 24 23  1  0  0  0  0
 25 24  1  0  0  0  0
 26 24  2  0  0  0  0
 26 32  1  0  0  0  0
 27 29  1  0  0  0  0
 27 26  1  0  0  0  0
 28 27  1  0  0  0  0
 29 31  2  0  0  0  0
 30 29  1  0  0  0  0
 31 32  1  0  0  0  0
 32 33  2  0  0  0  0
 33 22  1  0  0  0  0
M  END
>  <minimizedAffinity>
-5.48443651

>  <minimizedRMSD>
0.808836401

$$$$
