
 OpenBabel03242523023D

 35 38  0  0  0  0  0  0  0  0999 V2000
   45.1160   36.0440   43.5100 C   0  0  0  0  0  0  0  0  0  0  0  0
   45.9210   34.9360   43.2960 C   0  0  0  0  0  0  0  0  0  0  0  0
   46.0170   34.0300   44.3300 C   0  0  0  0  0  0  0  0  0  0  0  0
   45.3270   34.2550   45.4960 N   0  0  0  0  0  0  0  0  0  0  0  0
   44.5520   35.3450   45.6690 C   0  0  0  0  0  0  0  0  0  0  0  0
   44.4490   36.2280   44.6870 N   0  0  0  0  0  0  0  0  0  0  0  0
   44.9330   36.8420   42.8080 H   0  0  0  0  0  0  0  0  0  0  0  0
   43.9970   35.5450   46.5810 H   0  0  0  0  0  0  0  0  0  0  0  0
   46.5510   34.7770   42.0540 N   0  0  0  0  0  0  0  0  0  0  0  0
   47.8640   35.1730   41.8190 C   0  0  0  0  0  0  0  0  0  0  0  0
   48.5510   34.5940   40.6080 C   0  0  0  0  0  0  0  0  0  0  0  0
   48.1370   33.3430   40.1570 N   0  0  0  0  0  0  0  0  0  0  0  0
   46.7660   33.0630   40.2920 C   0  0  0  0  0  0  0  0  0  0  0  0
   45.9580   34.2040   40.8820 C   0  0  0  0  0  0  0  0  0  0  0  0
   48.4890   34.8950   42.6750 H   0  0  0  0  0  0  0  0  0  0  0  0
   47.9230   36.2720   41.5290 H   0  0  0  0  0  0  0  0  0  0  0  0
   48.5210   35.2900   39.7120 H   0  0  0  0  0  0  0  0  0  0  0  0
   49.6430   34.5400   40.8360 H   0  0  0  0  0  0  0  0  0  0  0  0
   48.5300   33.1460   39.2340 H   0  0  0  0  0  0  0  0  0  0  0  0
   46.6190   32.1850   40.9620 H   0  0  0  0  0  0  0  0  0  0  0  0
   46.3380   32.8490   39.3140 H   0  0  0  0  0  0  0  0  0  0  0  0
   44.9020   33.9710   40.9680 H   0  0  0  0  0  0  0  0  0  0  0  0
   46.0020   35.0180   40.0940 H   0  0  0  0  0  0  0  0  0  0  0  0
   47.4780   31.9910   43.6230 C   0  0  0  0  0  0  0  0  0  0  0  0
   46.7330   32.8130   44.4460 C   0  0  0  0  0  0  0  0  0  0  0  0
   46.6650   32.2400   45.7370 C   0  0  0  0  0  0  0  0  0  0  0  0
   46.1150   32.7380   46.5540 H   0  0  0  0  0  0  0  0  0  0  0  0
   47.2360   31.0530   46.1450 C   0  0  0  0  0  0  0  0  0  0  0  0
   47.2740   30.3740   47.3000 N   0  0  0  0  0  0  0  0  0  0  0  0
   46.8210   30.6670   48.1930 H   0  0  0  0  0  0  0  0  0  0  0  0
   47.9930   29.2550   47.1110 C   0  0  0  0  0  0  0  0  0  0  0  0
   48.1660   28.5380   47.9040 H   0  0  0  0  0  0  0  0  0  0  0  0
   48.4300   29.2030   45.8180 C   0  0  0  0  0  0  0  0  0  0  0  0
   47.9510   30.3350   45.2220 C   0  0  0  0  0  0  0  0  0  0  0  0
   48.0800   30.8020   43.9400 C   0  0  0  0  0  0  0  0  0  0  0  0
  1  6  1  0  0  0  0
  2  1  2  0  0  0  0
  2  3  1  0  0  0  0
  3 25  1  0  0  0  0
  3  4  2  0  0  0  0
  4  5  1  0  0  0  0
  5  8  1  0  0  0  0
  6  5  2  0  0  0  0
  7  1  1  0  0  0  0
  9  2  1  0  0  0  0
 10  9  1  0  0  0  0
 10 15  1  0  0  0  0
 11 18  1  0  0  0  0
 11 10  1  0  0  0  0
 12 13  1  0  0  0  0
 12 11  1  0  0  0  0
 13 14  1  0  0  0  0
 13 20  1  0  0  0  0
 14 22  1  0  0  0  0
 14  9  1  0  0  0  0
 16 10  1  0  0  0  0
 17 11  1  0  0  0  0
 19 12  1  0  0  0  0
 21 13  1  0  0  0  0
 23 14  1  0  0  0  0
 24 35  2  0  0  0  0
 24 25  1  0  0  0  0
 25 26  2  0  0  0  0
 26 28  1  0  0  0  0
 26 27  1  0  0  0  0
 28 29  1  0  0  0  0
 29 30  1  0  0  0  0
 31 29  1  0  0  0  0
 31 32  1  0  0  0  0
 33 31  2  0  0  0  0
 34 33  1  0  0  0  0
 34 28  2  0  0  0  0
 35 34  1  0  0  0  0
M  END
>  <minimizedAffinity>
-5.28356361

>  <minimizedRMSD>
3.73750567

$$$$
