
     RDKit          3D

 36 39  0  0  0  0  0  0  0  0999 V2000
   44.6725   35.3840   45.1453 C   0  0  0  0  0  0  0  0  0  0  0  0
   45.1293   35.6938   43.8355 C   0  0  0  0  0  0  0  0  0  0  0  0
   46.0700   34.8548   43.3369 C   0  0  0  0  0  0  0  0  0  0  0  0
   46.5552   33.7754   44.0491 N   0  0  0  0  0  0  0  0  0  0  0  0
   46.0932   33.5146   45.2975 C   0  0  0  0  0  0  0  0  0  0  0  0
   45.1445   34.3281   45.8443 N   0  0  0  0  0  0  0  0  0  0  0  0
   46.5770   35.0646   41.9281 C   0  0  1  0  0  0  0  0  0  0  0  0
   48.1134   35.2936   41.9322 C   0  0  0  0  0  0  0  0  0  0  0  0
   47.3617   34.0781   41.3093 C   0  0  2  0  0  0  0  0  0  0  0  0
   47.3832   33.9120   39.8077 C   0  0  0  0  0  0  0  0  0  0  0  0
   44.6579   36.8080   43.1231 N   0  0  0  0  0  0  0  0  0  0  0  0
   43.9190   36.0510   45.5486 H   0  0  0  0  0  0  0  0  0  0  0  0
   46.4218   32.7024   45.9012 H   0  0  0  0  0  0  0  0  0  0  0  0
   46.0443   35.8567   41.3752 H   0  0  0  0  0  0  0  0  0  0  0  0
   48.6758   35.0923   42.8484 H   0  0  0  0  0  0  0  0  0  0  0  0
   48.4851   36.0430   41.2148 H   0  0  0  0  0  0  0  0  0  0  0  0
   47.5573   33.1100   41.8610 H   0  0  0  0  0  0  0  0  0  0  0  0
   46.3529   33.6205   39.5235 H   0  0  0  0  0  0  0  0  0  0  0  0
   47.6189   34.8649   39.2926 H   0  0  0  0  0  0  0  0  0  0  0  0
   43.7443   36.9398   42.6351 H   0  0  0  0  0  0  0  0  0  0  0  0
   45.3673   37.6007   43.1078 H   0  0  0  0  0  0  0  0  0  0  0  0
   49.6285   32.7444   39.7285 C   0  0  0  0  0  0  0  0  0  0  0  0
   48.2866   32.8091   39.4458 C   0  0  0  0  0  0  0  0  0  0  0  0
   47.7160   31.7445   38.7563 C   0  0  0  0  0  0  0  0  0  0  0  0
   46.6685   31.7089   38.4908 H   0  0  0  0  0  0  0  0  0  0  0  0
   48.4500   30.6447   38.3562 C   0  0  0  0  0  0  0  0  0  0  0  0
   48.1544   29.5127   37.6965 N   0  0  0  0  0  0  0  0  0  0  0  0
   47.1853   29.2737   37.3433 H   0  0  0  0  0  0  0  0  0  0  0  0
   49.2479   28.7439   37.5536 C   0  0  0  0  0  0  0  0  0  0  0  0
   49.2302   27.7833   37.0488 H   0  0  0  0  0  0  0  0  0  0  0  0
   50.3163   29.3890   38.1418 C   0  0  0  0  0  0  0  0  0  0  0  0
   49.7942   30.5778   38.6383 C   0  0  0  0  0  0  0  0  0  0  0  0
   50.3583   31.6387   39.3243 C   0  0  0  0  0  0  0  0  0  0  0  0
   50.0651   33.5803   40.2672 H   0  0  0  0  0  0  0  0  0  0  0  0
   51.3344   29.0343   38.1970 H   0  0  0  0  0  0  0  0  0  0  0  0
   51.4145   31.5848   39.5453 H   0  0  0  0  0  0  0  0  0  0  0  0
  1  6  2  0
  2  1  1  0
  3  2  2  0
  3  4  1  0
  4  5  2  0
  5  6  1  0
  7  3  1  0
  8  7  1  0
  9  8  1  0
  9  7  1  0
 10  9  1  0
 11  2  1  0
  1 12  1  0
  5 13  1  0
  7 14  1  6
  8 15  1  0
  8 16  1  0
  9 17  1  1
 10 18  1  0
 10 19  1  0
 11 20  1  0
 11 21  1  0
 22 23  2  0
 23 24  1  0
 24 25  1  0
 24 26  2  0
 26 27  1  0
 27 28  1  0
 27 29  1  0
 29 30  1  0
 29 31  2  0
 31 32  1  0
 32 33  2  0
 33 22  1  0
 32 26  1  0
 22 34  1  0
 31 35  1  0
 33 36  1  0
 10 23  1  0
M  ISO  8  12  14  13  14  14  13  15  13  16  13  17  13  18   8  19   8
M  ISO  3  25  15  28   5  30  14
M  END
>  <DihAtoms>  (1) 
8,9,22,21

>  <DihDeg>  (1) 
89.99697825826514

$$$$
