
 OpenBabel03252509263D

 33 36  0  0  1  0  0  0  0  0999 V2000
   46.5800   35.0730   41.9260 C   0  0  1  0  0  0  0  0  0  0  0  0
   48.1050   35.3640   41.9740 C   0  0  0  0  0  0  0  0  0  0  0  0
   47.4190   34.1420   41.2910 C   0  0  2  0  0  0  0  0  0  0  0  0
   46.0270   35.8620   41.3890 H   0  0  0  0  0  0  0  0  0  0  0  0
   48.6550   35.1520   42.8960 H   0  0  0  0  0  0  0  0  0  0  0  0
   48.4610   36.1530   41.2930 H   0  0  0  0  0  0  0  0  0  0  0  0
   47.6410   33.1630   41.8140 H   0  0  0  0  0  0  0  0  0  0  0  0
   44.5910   35.1970   45.1060 C   0  0  0  0  0  0  0  0  0  0  0  0
   45.0640   35.5730   43.8190 C   0  0  0  0  0  0  0  0  0  0  0  0
   46.0510   34.7920   43.3140 C   0  0  0  0  0  0  0  0  0  0  0  0
   46.5650   33.7080   44.0000 N   0  0  0  0  0  0  0  0  0  0  0  0
   46.0870   33.3850   45.2270 C   0  0  0  0  0  0  0  0  0  0  0  0
   45.0930   34.1380   45.7790 N   0  0  0  0  0  0  0  0  0  0  0  0
   43.8020   35.8180   45.5140 H   0  0  0  0  0  0  0  0  0  0  0  0
   46.4360   32.5650   45.8100 H   0  0  0  0  0  0  0  0  0  0  0  0
   44.5620   36.6910   43.1340 N   0  0  0  0  0  0  0  0  0  0  0  0
   43.6550   36.8020   42.6300 H   0  0  0  0  0  0  0  0  0  0  0  0
   45.2370   37.5130   43.1640 H   0  0  0  0  0  0  0  0  0  0  0  0
   47.4800   34.0310   39.7860 C   0  0  0  0  0  0  0  0  0  0  0  0
   46.4770   33.6850   39.4690 H   0  0  0  0  0  0  0  0  0  0  0  0
   47.6650   35.0150   39.3100 H   0  0  0  0  0  0  0  0  0  0  0  0
   49.2040   32.2420   40.2750 C   0  0  0  0  0  3  0  0  0  0  0  0
   48.4600   33.0010   39.4070 C   0  0  0  0  0  0  0  0  0  0  0  0
   48.6350   32.7890   38.0430 C   0  0  0  0  0  0  0  0  0  0  0  0
   48.0910   33.3380   37.2870 H   0  0  0  0  0  0  0  0  0  0  0  0
   49.5220   31.8510   37.5500 C   0  0  0  0  0  0  0  0  0  0  0  0
   49.8740   31.4570   36.3150 N   0  0  0  0  0  0  0  0  0  0  0  0
   49.4650   31.8650   35.4280 H   0  0  0  0  0  0  0  0  0  0  0  0
   50.8040   30.4870   36.3710 C   0  0  0  0  0  0  0  0  0  0  0  0
   51.2270   30.0260   35.4840 H   0  0  0  0  0  0  0  0  0  0  0  0
   51.0830   30.2250   37.6960 C   0  0  0  0  0  3  0  0  0  0  0  0
   50.2690   31.0900   38.4180 C   0  0  0  0  0  0  0  0  0  0  0  0
   50.0910   31.3050   39.7730 C   0  0  0  0  0  3  0  0  0  0  0  0
  1  4  1  6  0  0  0
  1  2  1  0  0  0  0
  1 10  1  0  0  0  0
  2  5  1  0  0  0  0
  3  7  1  1  0  0  0
  3  1  1  0  0  0  0
  3  2  1  0  0  0  0
  6  2  1  0  0  0  0
  8 14  1  0  0  0  0
  8 13  1  0  0  0  0
  9  8  2  0  0  0  0
 10  9  1  0  0  0  0
 10 11  2  0  0  0  0
 11 12  1  0  0  0  0
 12 13  2  0  0  0  0
 12 15  1  0  0  0  0
 16 18  1  0  0  0  0
 16  9  1  0  0  0  0
 17 16  1  0  0  0  0
 19  3  1  0  0  0  0
 20 19  1  0  0  0  0
 21 19  1  0  0  0  0
 23 19  1  0  0  0  0
 23 22  2  0  0  0  0
 24 23  1  0  0  0  0
 25 24  1  0  0  0  0
 26 24  2  0  0  0  0
 26 32  1  0  0  0  0
 27 29  1  0  0  0  0
 27 26  1  0  0  0  0
 28 27  1  0  0  0  0
 29 31  2  0  0  0  0
 30 29  1  0  0  0  0
 31 32  1  0  0  0  0
 32 33  2  0  0  0  0
 33 22  1  0  0  0  0
M  END
>  <minimizedAffinity>
-5.01793957

>  <minimizedRMSD>
0.31945619

$$$$
