
 OpenBabel03252509273D

 33 36  0  0  1  0  0  0  0  0999 V2000
   37.1950   26.5980   42.5100 C   0  0  1  0  0  0  0  0  0  0  0  0
   36.4850   27.3610   43.6610 C   0  0  0  0  0  0  0  0  0  0  0  0
   36.8460   27.9350   42.2570 C   0  0  2  0  0  0  0  0  0  0  0  0
   36.6030   25.7350   42.1600 H   0  0  0  0  0  0  0  0  0  0  0  0
   37.0820   27.7310   44.4990 H   0  0  0  0  0  0  0  0  0  0  0  0
   35.4230   27.1100   43.8140 H   0  0  0  0  0  0  0  0  0  0  0  0
   37.6530   28.7270   42.3000 H   0  0  0  0  0  0  0  0  0  0  0  0
   40.4190   24.7600   43.0640 C   0  0  0  0  0  0  0  0  0  0  0  0
   39.0590   24.9800   42.7190 C   0  0  0  0  0  0  0  0  0  0  0  0
   38.6120   26.2470   42.9040 C   0  0  0  0  0  0  0  0  0  0  0  0
   39.4200   27.2550   43.3950 N   0  0  0  0  0  0  0  0  0  0  0  0
   40.7130   27.0020   43.7140 C   0  0  0  0  0  0  0  0  0  0  0  0
   41.2110   25.7440   43.5450 N   0  0  0  0  0  0  0  0  0  0  0  0
   40.7820   23.7490   42.9180 H   0  0  0  0  0  0  0  0  0  0  0  0
   41.3900   27.7300   44.0960 H   0  0  0  0  0  0  0  0  0  0  0  0
   38.2300   23.9500   42.2480 N   0  0  0  0  0  0  0  0  0  0  0  0
   38.2040   23.5050   41.3030 H   0  0  0  0  0  0  0  0  0  0  0  0
   37.5520   23.6100   42.9940 H   0  0  0  0  0  0  0  0  0  0  0  0
   35.7210   28.2930   41.3150 C   0  0  0  0  0  0  0  0  0  0  0  0
   35.5470   27.3890   40.6980 H   0  0  0  0  0  0  0  0  0  0  0  0
   34.7830   28.5150   41.8620 H   0  0  0  0  0  0  0  0  0  0  0  0
   36.2920   29.2920   39.0590 C   0  0  0  0  0  3  0  0  0  0  0  0
   36.1520   29.3800   40.4220 C   0  0  0  0  0  0  0  0  0  0  0  0
   36.4390   30.5990   41.0270 C   0  0  0  0  0  0  0  0  0  0  0  0
   36.3580   30.7600   42.0930 H   0  0  0  0  0  0  0  0  0  0  0  0
   36.8540   31.7020   40.3070 C   0  0  0  0  0  0  0  0  0  0  0  0
   37.1870   32.9620   40.6340 N   0  0  0  0  0  0  0  0  0  0  0  0
   37.1760   33.3340   41.6250 H   0  0  0  0  0  0  0  0  0  0  0  0
   37.5280   33.6640   39.5400 C   0  0  0  0  0  0  0  0  0  0  0  0
   37.8310   34.7050   39.5800 H   0  0  0  0  0  0  0  0  0  0  0  0
   37.4190   32.8400   38.4380 C   0  0  0  0  0  3  0  0  0  0  0  0
   36.9950   31.6160   38.9420 C   0  0  0  0  0  0  0  0  0  0  0  0
   36.7080   30.4020   38.3430 C   0  0  0  0  0  3  0  0  0  0  0  0
  1  4  1  6  0  0  0
  1 10  1  0  0  0  0
  1  2  1  0  0  0  0
  2  6  1  0  0  0  0
  2  5  1  0  0  0  0
  3  7  1  6  0  0  0
  3  1  1  0  0  0  0
  3  2  1  0  0  0  0
  8 13  1  0  0  0  0
  9 10  1  0  0  0  0
  9  8  2  0  0  0  0
 10 11  2  0  0  0  0
 11 12  1  0  0  0  0
 12 15  1  0  0  0  0
 13 12  2  0  0  0  0
 14  8  1  0  0  0  0
 16  9  1  0  0  0  0
 16 18  1  0  0  0  0
 17 16  1  0  0  0  0
 19 21  1  0  0  0  0
 19  3  1  0  0  0  0
 20 19  1  0  0  0  0
 22 23  1  0  0  0  0
 23 24  2  0  0  0  0
 23 19  1  0  0  0  0
 24 25  1  0  0  0  0
 26 27  1  0  0  0  0
 26 24  1  0  0  0  0
 27 28  1  0  0  0  0
 29 30  1  0  0  0  0
 29 27  1  0  0  0  0
 31 32  1  0  0  0  0
 31 29  2  0  0  0  0
 32 26  2  0  0  0  0
 33 32  1  0  0  0  0
 33 22  2  0  0  0  0
M  END
>  <minimizedAffinity>
-6.36189842

$$$$

 OpenBabel03252509273D

 33 36  0  0  1  0  0  0  0  0999 V2000
   37.6400   32.2270   39.9850 C   0  0  1  0  0  0  0  0  0  0  0  0
   36.9780   31.4090   38.8430 C   0  0  0  0  0  0  0  0  0  0  0  0
   37.5430   30.8390   40.1810 C   0  0  2  0  0  0  0  0  0  0  0  0
   36.9400   32.9570   40.4280 H   0  0  0  0  0  0  0  0  0  0  0  0
   37.5610   31.1880   37.9440 H   0  0  0  0  0  0  0  0  0  0  0  0
   35.8810   31.4790   38.7810 H   0  0  0  0  0  0  0  0  0  0  0  0
   38.4650   30.2020   40.0330 H   0  0  0  0  0  0  0  0  0  0  0  0
   40.7120   34.3630   39.7030 C   0  0  0  0  0  0  0  0  0  0  0  0
   39.4590   33.8970   40.1820 C   0  0  0  0  0  0  0  0  0  0  0  0
   38.9420   32.8360   39.5140 C   0  0  0  0  0  0  0  0  0  0  0  0
   39.5840   32.2480   38.4410 N   0  0  0  0  0  0  0  0  0  0  0  0
   40.7790   32.7260   38.0140 C   0  0  0  0  0  0  0  0  0  0  0  0
   41.3420   33.7910   38.6530 N   0  0  0  0  0  0  0  0  0  0  0  0
   41.1310   35.2110   40.2330 H   0  0  0  0  0  0  0  0  0  0  0  0
   41.3280   32.3230   37.1960 H   0  0  0  0  0  0  0  0  0  0  0  0
   38.7910   34.5110   41.2540 N   0  0  0  0  0  0  0  0  0  0  0  0
   38.9950   34.4540   42.2770 H   0  0  0  0  0  0  0  0  0  0  0  0
   37.9740   35.1070   40.9260 H   0  0  0  0  0  0  0  0  0  0  0  0
   36.5730   30.2480   41.1760 C   0  0  0  0  0  0  0  0  0  0  0  0
   36.3660   31.0530   41.9090 H   0  0  0  0  0  0  0  0  0  0  0  0
   35.6120   29.9700   40.6980 H   0  0  0  0  0  0  0  0  0  0  0  0
   36.5920   27.9960   42.3350 C   0  0  0  0  0  3  0  0  0  0  0  0
   37.2180   29.1350   41.8910 C   0  0  0  0  0  0  0  0  0  0  0  0
   38.5820   29.2620   42.1290 C   0  0  0  0  0  0  0  0  0  0  0  0
   39.1570   30.1220   41.8160 H   0  0  0  0  0  0  0  0  0  0  0  0
   39.3100   28.2910   42.7890 C   0  0  0  0  0  0  0  0  0  0  0  0
   40.6010   28.1660   43.1400 N   0  0  0  0  0  0  0  0  0  0  0  0
   41.3400   28.8940   42.9300 H   0  0  0  0  0  0  0  0  0  0  0  0
   40.8110   27.0040   43.7820 C   0  0  0  0  0  0  0  0  0  0  0  0
   41.7860   26.7040   44.1520 H   0  0  0  0  0  0  0  0  0  0  0  0
   39.6120   26.3260   43.8640 C   0  0  0  0  0  3  0  0  0  0  0  0
   38.6850   27.1500   43.2350 C   0  0  0  0  0  0  0  0  0  0  0  0
   37.3280   27.0270   42.9960 C   0  0  0  0  0  3  0  0  0  0  0  0
  1  3  1  0  0  0  0
  1  4  1  1  0  0  0
  2  1  1  0  0  0  0
  2  3  1  0  0  0  0
  3  7  1  6  0  0  0
  3 19  1  0  0  0  0
  5  2  1  0  0  0  0
  6  2  1  0  0  0  0
  8  9  1  0  0  0  0
  8 14  1  0  0  0  0
  9 16  1  0  0  0  0
 10  1  1  0  0  0  0
 10  9  2  0  0  0  0
 11 10  1  0  0  0  0
 12 11  2  0  0  0  0
 12 13  1  0  0  0  0
 13  8  2  0  0  0  0
 15 12  1  0  0  0  0
 16 17  1  0  0  0  0
 18 16  1  0  0  0  0
 19 23  1  0  0  0  0
 19 20  1  0  0  0  0
 21 19  1  0  0  0  0
 22 33  1  0  0  0  0
 23 24  1  0  0  0  0
 23 22  2  0  0  0  0
 24 26  2  0  0  0  0
 25 24  1  0  0  0  0
 26 27  1  0  0  0  0
 26 32  1  0  0  0  0
 27 29  1  0  0  0  0
 28 27  1  0  0  0  0
 29 31  2  0  0  0  0
 29 30  1  0  0  0  0
 32 31  1  0  0  0  0
 33 32  2  0  0  0  0
M  END
>  <minimizedAffinity>
-6.25650597

$$$$

 OpenBabel03252509273D

 33 36  0  0  1  0  0  0  0  0999 V2000
   37.5570   32.3260   39.9650 C   0  0  1  0  0  0  0  0  0  0  0  0
   36.9690   31.4520   38.8240 C   0  0  0  0  0  0  0  0  0  0  0  0
   37.4140   30.9550   40.2340 C   0  0  2  0  0  0  0  0  0  0  0  0
   36.8410   33.0930   40.3070 H   0  0  0  0  0  0  0  0  0  0  0  0
   37.6160   31.1670   37.9890 H   0  0  0  0  0  0  0  0  0  0  0  0
   35.8820   31.5370   38.6700 H   0  0  0  0  0  0  0  0  0  0  0  0
   38.3310   30.2930   40.1980 H   0  0  0  0  0  0  0  0  0  0  0  0
   40.7320   34.3230   39.8610 C   0  0  0  0  0  0  0  0  0  0  0  0
   39.4390   33.9060   40.2750 C   0  0  0  0  0  0  0  0  0  0  0  0
   38.9050   32.8830   39.5640 C   0  0  0  0  0  0  0  0  0  0  0  0
   39.5670   32.2860   38.5090 N   0  0  0  0  0  0  0  0  0  0  0  0
   40.8000   32.7160   38.1440 C   0  0  0  0  0  0  0  0  0  0  0  0
   41.3820   33.7410   38.8280 N   0  0  0  0  0  0  0  0  0  0  0  0
   41.1650   35.1410   40.4260 H   0  0  0  0  0  0  0  0  0  0  0  0
   41.3670   32.3030   37.3420 H   0  0  0  0  0  0  0  0  0  0  0  0
   38.7530   34.5310   41.3290 N   0  0  0  0  0  0  0  0  0  0  0  0
   38.9070   34.4460   42.3580 H   0  0  0  0  0  0  0  0  0  0  0  0
   37.9780   35.1700   40.9770 H   0  0  0  0  0  0  0  0  0  0  0  0
   36.3570   30.4420   41.1820 C   0  0  0  0  0  0  0  0  0  0  0  0
   36.4280   31.0790   42.0860 H   0  0  0  0  0  0  0  0  0  0  0  0
   35.3370   30.5610   40.7640 H   0  0  0  0  0  0  0  0  0  0  0  0
   37.1210   28.6550   42.8060 C   0  0  0  0  0  3  0  0  0  0  0  0
   36.6740   29.0590   41.5730 C   0  0  0  0  0  0  0  0  0  0  0  0
   36.4970   28.0860   40.5950 C   0  0  0  0  0  0  0  0  0  0  0  0
   36.1490   28.3110   39.5960 H   0  0  0  0  0  0  0  0  0  0  0  0
   36.7570   26.7490   40.8280 C   0  0  0  0  0  0  0  0  0  0  0  0
   36.6740   25.6360   40.0810 N   0  0  0  0  0  0  0  0  0  0  0  0
   36.3540   25.6280   39.0710 H   0  0  0  0  0  0  0  0  0  0  0  0
   37.0490   24.5560   40.7880 C   0  0  0  0  0  0  0  0  0  0  0  0
   37.0560   23.5540   40.3730 H   0  0  0  0  0  0  0  0  0  0  0  0
   37.3970   24.9650   42.0590 C   0  0  0  0  0  3  0  0  0  0  0  0
   37.2060   26.3430   42.0620 C   0  0  0  0  0  0  0  0  0  0  0  0
   37.3800   27.3130   43.0330 C   0  0  0  0  0  3  0  0  0  0  0  0
  1  3  1  0  0  0  0
  1  4  1  1  0  0  0
  2  1  1  0  0  0  0
  2  3  1  0  0  0  0
  3  7  1  1  0  0  0
  3 19  1  0  0  0  0
  5  2  1  0  0  0  0
  6  2  1  0  0  0  0
  8  9  1  0  0  0  0
  8 14  1  0  0  0  0
  9 16  1  0  0  0  0
 10  1  1  0  0  0  0
 10  9  2  0  0  0  0
 11 10  1  0  0  0  0
 12 11  2  0  0  0  0
 12 13  1  0  0  0  0
 13  8  2  0  0  0  0
 15 12  1  0  0  0  0
 16 17  1  0  0  0  0
 18 16  1  0  0  0  0
 19 23  1  0  0  0  0
 19 20  1  0  0  0  0
 21 19  1  0  0  0  0
 22 33  1  0  0  0  0
 23 22  2  0  0  0  0
 24 26  2  0  0  0  0
 24 23  1  0  0  0  0
 25 24  1  0  0  0  0
 26 32  1  0  0  0  0
 27 29  1  0  0  0  0
 27 26  1  0  0  0  0
 28 27  1  0  0  0  0
 29 31  2  0  0  0  0
 30 29  1  0  0  0  0
 31 32  1  0  0  0  0
 32 33  2  0  0  0  0
M  END
>  <minimizedAffinity>
-6.08877897

$$$$

 OpenBabel03252509273D

 33 36  0  0  1  0  0  0  0  0999 V2000
   38.4240   29.6350   41.6250 C   0  0  1  0  0  0  0  0  0  0  0  0
   39.6540   29.4530   42.5550 C   0  0  0  0  0  0  0  0  0  0  0  0
   38.1620   29.5250   43.0010 C   0  0  2  0  0  0  0  0  0  0  0  0
   38.3170   28.7980   40.9150 H   0  0  0  0  0  0  0  0  0  0  0  0
   40.2700   30.3250   42.7960 H   0  0  0  0  0  0  0  0  0  0  0  0
   40.1050   28.4480   42.5570 H   0  0  0  0  0  0  0  0  0  0  0  0
   37.9230   30.4620   43.5880 H   0  0  0  0  0  0  0  0  0  0  0  0
   37.4140   32.9120   40.1010 C   0  0  0  0  0  0  0  0  0  0  0  0
   37.2860   31.6130   40.6620 C   0  0  0  0  0  0  0  0  0  0  0  0
   38.4550   30.9970   40.9680 C   0  0  0  0  0  0  0  0  0  0  0  0
   39.6850   31.5860   40.7490 N   0  0  0  0  0  0  0  0  0  0  0  0
   39.7630   32.8270   40.2090 C   0  0  0  0  0  0  0  0  0  0  0  0
   38.6170   33.4900   39.8850 N   0  0  0  0  0  0  0  0  0  0  0  0
   36.4830   33.4100   39.8540 H   0  0  0  0  0  0  0  0  0  0  0  0
   40.6750   33.3400   40.0130 H   0  0  0  0  0  0  0  0  0  0  0  0
   36.0380   31.0020   40.8580 N   0  0  0  0  0  0  0  0  0  0  0  0
   35.3210   31.1890   41.5940 H   0  0  0  0  0  0  0  0  0  0  0  0
   35.8410   30.2520   40.1290 H   0  0  0  0  0  0  0  0  0  0  0  0
   37.5260   28.2870   43.5880 C   0  0  0  0  0  0  0  0  0  0  0  0
   38.2410   27.9120   44.3470 H   0  0  0  0  0  0  0  0  0  0  0  0
   36.5750   28.5210   44.1060 H   0  0  0  0  0  0  0  0  0  0  0  0
   36.6990   27.4000   41.3650 C   0  0  0  0  0  3  0  0  0  0  0  0
   37.3900   27.2600   42.5430 C   0  0  0  0  0  0  0  0  0  0  0  0
   38.0250   26.0460   42.7840 C   0  0  0  0  0  0  0  0  0  0  0  0
   38.5910   25.8460   43.6830 H   0  0  0  0  0  0  0  0  0  0  0  0
   37.9770   24.9970   41.8870 C   0  0  0  0  0  0  0  0  0  0  0  0
   38.4870   23.7540   41.8730 N   0  0  0  0  0  0  0  0  0  0  0  0
   39.0750   23.3510   42.6560 H   0  0  0  0  0  0  0  0  0  0  0  0
   38.1460   23.1100   40.7430 C   0  0  0  0  0  0  0  0  0  0  0  0
   38.4540   22.0920   40.5300 H   0  0  0  0  0  0  0  0  0  0  0  0
   37.3780   23.9580   39.9720 C   0  0  0  0  0  3  0  0  0  0  0  0
   37.2850   25.1340   40.7070 C   0  0  0  0  0  0  0  0  0  0  0  0
   36.6560   26.3430   40.4700 C   0  0  0  0  0  3  0  0  0  0  0  0
  1  4  1  6  0  0  0
  1  2  1  0  0  0  0
  1  3  1  0  0  0  0
  2  6  1  0  0  0  0
  2  5  1  0  0  0  0
  2  3  1  0  0  0  0
  3 19  1  0  0  0  0
  3  7  1  1  0  0  0
  8  9  1  0  0  0  0
  9 16  1  0  0  0  0
  9 10  2  0  0  0  0
 10  1  1  0  0  0  0
 11 10  1  0  0  0  0
 12 11  2  0  0  0  0
 13  8  2  0  0  0  0
 13 12  1  0  0  0  0
 14  8  1  0  0  0  0
 15 12  1  0  0  0  0
 16 17  1  0  0  0  0
 18 16  1  0  0  0  0
 19 21  1  0  0  0  0
 19 20  1  0  0  0  0
 22 23  1  0  0  0  0
 23 24  2  0  0  0  0
 23 19  1  0  0  0  0
 24 25  1  0  0  0  0
 26 24  1  0  0  0  0
 27 26  1  0  0  0  0
 27 28  1  0  0  0  0
 29 27  1  0  0  0  0
 30 29  1  0  0  0  0
 31 32  1  0  0  0  0
 31 29  2  0  0  0  0
 32 26  2  0  0  0  0
 33 32  1  0  0  0  0
 33 22  2  0  0  0  0
M  END
>  <minimizedAffinity>
-5.87209988

$$$$

 OpenBabel03252509273D

 33 36  0  0  1  0  0  0  0  0999 V2000
   35.8150   30.0680   40.3320 C   0  0  1  0  0  0  0  0  0  0  0  0
   34.6500   29.1600   39.8510 C   0  0  0  0  0  0  0  0  0  0  0  0
   35.9430   28.6930   40.5870 C   0  0  2  0  0  0  0  0  0  0  0  0
   35.4810   30.8010   41.0870 H   0  0  0  0  0  0  0  0  0  0  0  0
   34.5820   28.9030   38.7900 H   0  0  0  0  0  0  0  0  0  0  0  0
   33.7360   29.1910   40.4660 H   0  0  0  0  0  0  0  0  0  0  0  0
   36.6260   28.0770   39.9280 H   0  0  0  0  0  0  0  0  0  0  0  0
   37.7670   32.3980   38.1320 C   0  0  0  0  0  0  0  0  0  0  0  0
   37.0720   31.9220   39.2760 C   0  0  0  0  0  0  0  0  0  0  0  0
   36.5240   30.6880   39.1490 C   0  0  0  0  0  0  0  0  0  0  0  0
   36.6310   29.9430   37.9910 N   0  0  0  0  0  0  0  0  0  0  0  0
   37.3020   30.4350   36.9200 C   0  0  0  0  0  0  0  0  0  0  0  0
   37.8730   31.6710   36.9970 N   0  0  0  0  0  0  0  0  0  0  0  0
   38.2080   33.3840   38.2270 H   0  0  0  0  0  0  0  0  0  0  0  0
   37.4230   29.9170   35.9980 H   0  0  0  0  0  0  0  0  0  0  0  0
   36.9380   32.6900   40.4440 N   0  0  0  0  0  0  0  0  0  0  0  0
   37.6460   32.8900   41.1860 H   0  0  0  0  0  0  0  0  0  0  0  0
   35.9640   33.1050   40.5390 H   0  0  0  0  0  0  0  0  0  0  0  0
   35.8130   28.1330   41.9830 C   0  0  0  0  0  0  0  0  0  0  0  0
   35.5930   29.0000   42.6360 H   0  0  0  0  0  0  0  0  0  0  0  0
   34.9640   27.4250   42.0640 H   0  0  0  0  0  0  0  0  0  0  0  0
   38.1390   28.2500   42.9770 C   0  0  0  0  0  3  0  0  0  0  0  0
   37.1000   27.5580   42.4060 C   0  0  0  0  0  0  0  0  0  0  0  0
   37.2620   26.1920   42.2040 C   0  0  0  0  0  0  0  0  0  0  0  0
   36.4980   25.5670   41.7620 H   0  0  0  0  0  0  0  0  0  0  0  0
   38.4190   25.5250   42.5550 C   0  0  0  0  0  0  0  0  0  0  0  0
   38.8250   24.2470   42.4720 N   0  0  0  0  0  0  0  0  0  0  0  0
   38.2320   23.4670   42.0710 H   0  0  0  0  0  0  0  0  0  0  0  0
   40.0680   24.1070   42.9630 C   0  0  0  0  0  0  0  0  0  0  0  0
   40.5860   23.1550   42.9910 H   0  0  0  0  0  0  0  0  0  0  0  0
   40.5110   25.3420   43.3910 C   0  0  0  0  0  3  0  0  0  0  0  0
   39.4620   26.2160   43.1260 C   0  0  0  0  0  0  0  0  0  0  0  0
   39.2980   27.5750   43.3270 C   0  0  0  0  0  3  0  0  0  0  0  0
  1  3  1  0  0  0  0
  1  4  1  1  0  0  0
  2  1  1  0  0  0  0
  2  6  1  0  0  0  0
  2  3  1  0  0  0  0
  3  7  1  6  0  0  0
  3 19  1  0  0  0  0
  5  2  1  0  0  0  0
  8 14  1  0  0  0  0
  8  9  1  0  0  0  0
  9 16  1  0  0  0  0
 10  9  2  0  0  0  0
 10  1  1  0  0  0  0
 11 10  1  0  0  0  0
 12 13  1  0  0  0  0
 12 11  2  0  0  0  0
 13  8  2  0  0  0  0
 15 12  1  0  0  0  0
 16 18  1  0  0  0  0
 16 17  1  0  0  0  0
 19 21  1  0  0  0  0
 19 23  1  0  0  0  0
 19 20  1  0  0  0  0
 22 33  1  0  0  0  0
 23 22  2  0  0  0  0
 24 23  1  0  0  0  0
 24 26  2  0  0  0  0
 25 24  1  0  0  0  0
 26 32  1  0  0  0  0
 27 26  1  0  0  0  0
 27 29  1  0  0  0  0
 28 27  1  0  0  0  0
 29 30  1  0  0  0  0
 29 31  2  0  0  0  0
 32 33  2  0  0  0  0
 32 31  1  0  0  0  0
M  END
>  <minimizedAffinity>
-5.84338045

$$$$

 OpenBabel03252509273D

 33 36  0  0  1  0  0  0  0  0999 V2000
   37.5810   28.8740   42.0740 C   0  0  1  0  0  0  0  0  0  0  0  0
   36.6270   27.6550   42.1990 C   0  0  0  0  0  0  0  0  0  0  0  0
   38.1840   27.6210   42.2790 C   0  0  2  0  0  0  0  0  0  0  0  0
   37.4150   29.6110   42.8780 H   0  0  0  0  0  0  0  0  0  0  0  0
   36.1850   27.2340   41.2910 H   0  0  0  0  0  0  0  0  0  0  0  0
   36.0980   27.5600   43.1600 H   0  0  0  0  0  0  0  0  0  0  0  0
   38.6590   27.0940   41.3990 H   0  0  0  0  0  0  0  0  0  0  0  0
   36.6810   30.9900   39.1090 C   0  0  0  0  0  0  0  0  0  0  0  0
   36.6350   30.4640   40.4280 C   0  0  0  0  0  0  0  0  0  0  0  0
   37.5110   29.4600   40.6820 C   0  0  0  0  0  0  0  0  0  0  0  0
   38.3850   28.9780   39.7280 N   0  0  0  0  0  0  0  0  0  0  0  0
   38.3960   29.5080   38.4790 C   0  0  0  0  0  0  0  0  0  0  0  0
   37.5360   30.5200   38.1730 N   0  0  0  0  0  0  0  0  0  0  0  0
   35.9840   31.7940   38.9010 H   0  0  0  0  0  0  0  0  0  0  0  0
   39.0410   29.1850   37.6960 H   0  0  0  0  0  0  0  0  0  0  0  0
   35.7270   30.9340   41.3900 N   0  0  0  0  0  0  0  0  0  0  0  0
   35.7510   31.8190   41.9430 H   0  0  0  0  0  0  0  0  0  0  0  0
   34.9190   30.2580   41.5390 H   0  0  0  0  0  0  0  0  0  0  0  0
   38.8280   27.2620   43.5970 C   0  0  0  0  0  0  0  0  0  0  0  0
   38.5390   28.0650   44.3030 H   0  0  0  0  0  0  0  0  0  0  0  0
   38.4370   26.3040   43.9970 H   0  0  0  0  0  0  0  0  0  0  0  0
   41.0520   28.3890   43.1600 C   0  0  0  0  0  3  0  0  0  0  0  0
   40.2920   27.2850   43.4530 C   0  0  0  0  0  0  0  0  0  0  0  0
   40.9490   26.0730   43.6360 C   0  0  0  0  0  0  0  0  0  0  0  0
   40.4330   25.1520   43.8700 H   0  0  0  0  0  0  0  0  0  0  0  0
   42.3210   25.9540   43.5300 C   0  0  0  0  0  0  0  0  0  0  0  0
   43.1840   24.9310   43.6540 N   0  0  0  0  0  0  0  0  0  0  0  0
   42.8910   23.9390   43.8820 H   0  0  0  0  0  0  0  0  0  0  0  0
   44.4470   25.3440   43.4510 C   0  0  0  0  0  0  0  0  0  0  0  0
   45.3000   24.6770   43.5050 H   0  0  0  0  0  0  0  0  0  0  0  0
   44.4270   26.6970   43.1800 C   0  0  0  0  0  3  0  0  0  0  0  0
   43.0850   27.0580   43.2350 C   0  0  0  0  0  0  0  0  0  0  0  0
   42.4280   28.2620   43.0550 C   0  0  0  0  0  3  0  0  0  0  0  0
  1  2  1  0  0  0  0
  1  3  1  0  0  0  0
  1  4  1  1  0  0  0
  2  3  1  0  0  0  0
  2  6  1  0  0  0  0
  3  7  1  6  0  0  0
  3 19  1  0  0  0  0
  5  2  1  0  0  0  0
  8  9  1  0  0  0  0
  9 10  2  0  0  0  0
  9 16  1  0  0  0  0
 10  1  1  0  0  0  0
 11 10  1  0  0  0  0
 12 11  2  0  0  0  0
 13 12  1  0  0  0  0
 13  8  2  0  0  0  0
 14  8  1  0  0  0  0
 15 12  1  0  0  0  0
 16 18  1  0  0  0  0
 16 17  1  0  0  0  0
 19 21  1  0  0  0  0
 19 20  1  0  0  0  0
 22 23  1  0  0  0  0
 23 19  1  0  0  0  0
 23 24  2  0  0  0  0
 24 25  1  0  0  0  0
 26 24  1  0  0  0  0
 26 27  1  0  0  0  0
 27 28  1  0  0  0  0
 29 30  1  0  0  0  0
 29 27  1  0  0  0  0
 31 32  1  0  0  0  0
 31 29  2  0  0  0  0
 32 26  2  0  0  0  0
 33 22  2  0  0  0  0
 33 32  1  0  0  0  0
M  END
>  <minimizedAffinity>
-5.76560307

$$$$

 OpenBabel03252509273D

 33 36  0  0  1  0  0  0  0  0999 V2000
   36.1810   29.9940   40.7550 C   0  0  1  0  0  0  0  0  0  0  0  0
   35.1010   28.9110   40.4880 C   0  0  0  0  0  0  0  0  0  0  0  0
   36.5050   28.6780   41.1240 C   0  0  2  0  0  0  0  0  0  0  0  0
   35.8300   30.7590   41.4680 H   0  0  0  0  0  0  0  0  0  0  0  0
   34.9670   28.5360   39.4690 H   0  0  0  0  0  0  0  0  0  0  0  0
   34.2520   28.9020   41.1900 H   0  0  0  0  0  0  0  0  0  0  0  0
   37.1960   28.0790   40.4580 H   0  0  0  0  0  0  0  0  0  0  0  0
   37.6010   32.2890   38.1480 C   0  0  0  0  0  0  0  0  0  0  0  0
   37.0800   31.8610   39.3980 C   0  0  0  0  0  0  0  0  0  0  0  0
   36.6940   30.5620   39.4510 C   0  0  0  0  0  0  0  0  0  0  0  0
   36.7960   29.7120   38.3660 N   0  0  0  0  0  0  0  0  0  0  0  0
   37.2980   30.1620   37.1900 C   0  0  0  0  0  0  0  0  0  0  0  0
   37.7020   31.4600   37.0850 N   0  0  0  0  0  0  0  0  0  0  0  0
   37.9120   33.3270   38.1000 H   0  0  0  0  0  0  0  0  0  0  0  0
   37.4050   29.5630   36.3150 H   0  0  0  0  0  0  0  0  0  0  0  0
   36.9490   32.7310   40.4920 N   0  0  0  0  0  0  0  0  0  0  0  0
   37.6860   33.0980   41.1350 H   0  0  0  0  0  0  0  0  0  0  0  0
   35.9390   33.0300   40.6450 H   0  0  0  0  0  0  0  0  0  0  0  0
   36.5780   28.2590   42.5730 C   0  0  0  0  0  0  0  0  0  0  0  0
   36.2670   29.1470   43.1590 H   0  0  0  0  0  0  0  0  0  0  0  0
   35.8680   27.4390   42.8000 H   0  0  0  0  0  0  0  0  0  0  0  0
   38.3960   26.8270   43.6010 C   0  0  0  0  0  3  0  0  0  0  0  0
   37.9710   27.9450   42.9270 C   0  0  0  0  0  0  0  0  0  0  0  0
   38.9320   28.8700   42.5340 C   0  0  0  0  0  0  0  0  0  0  0  0
   38.6910   29.7780   41.9980 H   0  0  0  0  0  0  0  0  0  0  0  0
   40.2760   28.6990   42.8010 C   0  0  0  0  0  0  0  0  0  0  0  0
   41.3810   29.4180   42.5410 N   0  0  0  0  0  0  0  0  0  0  0  0
   41.3730   30.3430   42.0260 H   0  0  0  0  0  0  0  0  0  0  0  0
   42.4750   28.8030   43.0230 C   0  0  0  0  0  0  0  0  0  0  0  0
   43.4740   29.2140   42.9220 H   0  0  0  0  0  0  0  0  0  0  0  0
   42.0850   27.6260   43.6290 C   0  0  0  0  0  3  0  0  0  0  0  0
   40.7030   27.5810   43.4780 C   0  0  0  0  0  0  0  0  0  0  0  0
   39.7450   26.6610   43.8660 C   0  0  0  0  0  3  0  0  0  0  0  0
  1  3  1  0  0  0  0
  1  4  1  1  0  0  0
  2  1  1  0  0  0  0
  2  3  1  0  0  0  0
  2  6  1  0  0  0  0
  3  7  1  6  0  0  0
  3 19  1  0  0  0  0
  5  2  1  0  0  0  0
  8  9  1  0  0  0  0
  9 10  2  0  0  0  0
  9 16  1  0  0  0  0
 10  1  1  0  0  0  0
 11 10  1  0  0  0  0
 12 11  2  0  0  0  0
 13 12  1  0  0  0  0
 13  8  2  0  0  0  0
 14  8  1  0  0  0  0
 15 12  1  0  0  0  0
 16 18  1  0  0  0  0
 16 17  1  0  0  0  0
 19 21  1  0  0  0  0
 19 23  1  0  0  0  0
 19 20  1  0  0  0  0
 22 33  1  0  0  0  0
 23 22  2  0  0  0  0
 24 26  2  0  0  0  0
 24 23  1  0  0  0  0
 25 24  1  0  0  0  0
 26 32  1  0  0  0  0
 27 26  1  0  0  0  0
 27 29  1  0  0  0  0
 28 27  1  0  0  0  0
 29 31  2  0  0  0  0
 30 29  1  0  0  0  0
 32 31  1  0  0  0  0
 32 33  2  0  0  0  0
M  END
>  <minimizedAffinity>
-5.74843168

$$$$

 OpenBabel03252509273D

 33 36  0  0  1  0  0  0  0  0999 V2000
   32.1120   29.0180   36.9130 C   0  0  1  0  0  0  0  0  0  0  0  0
   31.9900   28.0780   35.6820 C   0  0  0  0  0  0  0  0  0  0  0  0
   33.2520   28.8910   36.1020 C   0  0  2  0  0  0  0  0  0  0  0  0
   31.9740   28.4720   37.8620 H   0  0  0  0  0  0  0  0  0  0  0  0
   31.4620   28.4370   34.7930 H   0  0  0  0  0  0  0  0  0  0  0  0
   32.0230   26.9990   35.9010 H   0  0  0  0  0  0  0  0  0  0  0  0
   33.5010   29.7240   35.3770 H   0  0  0  0  0  0  0  0  0  0  0  0
   29.6820   31.7950   37.5910 C   0  0  0  0  0  0  0  0  0  0  0  0
   30.4620   30.6290   37.8150 C   0  0  0  0  0  0  0  0  0  0  0  0
   31.2010   30.2150   36.7570 C   0  0  0  0  0  0  0  0  0  0  0  0
   31.1960   30.8750   35.5430 N   0  0  0  0  0  0  0  0  0  0  0  0
   30.4360   31.9840   35.3700 C   0  0  0  0  0  0  0  0  0  0  0  0
   29.6750   32.4430   36.4050 N   0  0  0  0  0  0  0  0  0  0  0  0
   29.0890   32.1320   38.4340 H   0  0  0  0  0  0  0  0  0  0  0  0
   30.3840   32.5410   34.4640 H   0  0  0  0  0  0  0  0  0  0  0  0
   30.4450   29.9410   39.0390 N   0  0  0  0  0  0  0  0  0  0  0  0
   30.9000   30.1950   39.9440 H   0  0  0  0  0  0  0  0  0  0  0  0
   29.8760   29.0440   38.9840 H   0  0  0  0  0  0  0  0  0  0  0  0
   34.4730   28.1340   36.5680 C   0  0  0  0  0  0  0  0  0  0  0  0
   34.0910   27.3070   37.1980 H   0  0  0  0  0  0  0  0  0  0  0  0
   35.0260   27.6850   35.7190 H   0  0  0  0  0  0  0  0  0  0  0  0
   36.3530   29.7780   36.9850 C   0  0  0  0  0  3  0  0  0  0  0  0
   35.3020   29.0070   37.4140 C   0  0  0  0  0  0  0  0  0  0  0  0
   34.9770   29.0450   38.7660 C   0  0  0  0  0  0  0  0  0  0  0  0
   34.1660   28.4730   39.1930 H   0  0  0  0  0  0  0  0  0  0  0  0
   35.6740   29.8230   39.6710 C   0  0  0  0  0  0  0  0  0  0  0  0
   35.5720   30.0370   40.9940 N   0  0  0  0  0  0  0  0  0  0  0  0
   34.8440   29.5770   41.6090 H   0  0  0  0  0  0  0  0  0  0  0  0
   36.5100   30.9040   41.4110 C   0  0  0  0  0  0  0  0  0  0  0  0
   36.6050   31.2160   42.4450 H   0  0  0  0  0  0  0  0  0  0  0  0
   37.2700   31.2840   40.3230 C   0  0  0  0  0  3  0  0  0  0  0  0
   36.7280   30.5950   39.2430 C   0  0  0  0  0  0  0  0  0  0  0  0
   37.0470   30.5550   37.8980 C   0  0  0  0  0  3  0  0  0  0  0  0
  1  4  1  1  0  0  0
  2  6  1  0  0  0  0
  2  3  1  0  0  0  0
  2  1  1  0  0  0  0
  3  7  1  6  0  0  0
  3 19  1  0  0  0  0
  3  1  1  0  0  0  0
  5  2  1  0  0  0  0
  8  9  1  0  0  0  0
  8 14  1  0  0  0  0
  9 16  1  0  0  0  0
 10  1  1  0  0  0  0
 10  9  2  0  0  0  0
 11 10  1  0  0  0  0
 12 11  2  0  0  0  0
 12 13  1  0  0  0  0
 13  8  2  0  0  0  0
 15 12  1  0  0  0  0
 16 17  1  0  0  0  0
 18 16  1  0  0  0  0
 19 20  1  0  0  0  0
 19 23  1  0  0  0  0
 21 19  1  0  0  0  0
 22 23  2  0  0  0  0
 22 33  1  0  0  0  0
 23 24  1  0  0  0  0
 24 25  1  0  0  0  0
 24 26  2  0  0  0  0
 26 27  1  0  0  0  0
 27 29  1  0  0  0  0
 27 28  1  0  0  0  0
 29 30  1  0  0  0  0
 31 29  2  0  0  0  0
 32 26  1  0  0  0  0
 32 31  1  0  0  0  0
 33 32  2  0  0  0  0
M  END
>  <minimizedAffinity>
-5.48378801

$$$$

 OpenBabel03252509273D

 33 36  0  0  1  0  0  0  0  0999 V2000
   35.7810   29.3360   37.7380 C   0  0  1  0  0  0  0  0  0  0  0  0
   35.4460   28.0230   38.4950 C   0  0  0  0  0  0  0  0  0  0  0  0
   34.4190   29.0420   37.9160 C   0  0  2  0  0  0  0  0  0  0  0  0
   36.3300   29.1430   36.8010 H   0  0  0  0  0  0  0  0  0  0  0  0
   35.5390   28.0010   39.5850 H   0  0  0  0  0  0  0  0  0  0  0  0
   35.5740   27.0940   37.9170 H   0  0  0  0  0  0  0  0  0  0  0  0
   33.8430   29.5920   38.7190 H   0  0  0  0  0  0  0  0  0  0  0  0
   37.8890   32.1390   39.0730 C   0  0  0  0  0  0  0  0  0  0  0  0
   37.3350   31.2230   38.1390 C   0  0  0  0  0  0  0  0  0  0  0  0
   36.4700   30.3170   38.6600 C   0  0  0  0  0  0  0  0  0  0  0  0
   36.1500   30.2830   40.0030 N   0  0  0  0  0  0  0  0  0  0  0  0
   36.7020   31.1760   40.8610 C   0  0  0  0  0  0  0  0  0  0  0  0
   37.5770   32.1080   40.3880 N   0  0  0  0  0  0  0  0  0  0  0  0
   38.5800   32.8660   38.6620 H   0  0  0  0  0  0  0  0  0  0  0  0
   36.5010   31.2060   41.9060 H   0  0  0  0  0  0  0  0  0  0  0  0
   37.6820   31.2380   36.7790 N   0  0  0  0  0  0  0  0  0  0  0  0
   37.3800   31.8990   36.0290 H   0  0  0  0  0  0  0  0  0  0  0  0
   38.3480   30.4470   36.5280 H   0  0  0  0  0  0  0  0  0  0  0  0
   33.5470   28.6080   36.7610 C   0  0  0  0  0  0  0  0  0  0  0  0
   34.1440   28.7950   35.8470 H   0  0  0  0  0  0  0  0  0  0  0  0
   33.3230   27.5230   36.8020 H   0  0  0  0  0  0  0  0  0  0  0  0
   31.8500   30.0700   35.5810 C   0  0  0  0  0  3  0  0  0  0  0  0
   32.3460   29.4560   36.7040 C   0  0  0  0  0  0  0  0  0  0  0  0
   31.6630   29.6390   37.9010 C   0  0  0  0  0  0  0  0  0  0  0  0
   31.9800   29.1950   38.8350 H   0  0  0  0  0  0  0  0  0  0  0  0
   30.5200   30.4110   37.9890 C   0  0  0  0  0  0  0  0  0  0  0  0
   29.6900   30.7430   38.9920 N   0  0  0  0  0  0  0  0  0  0  0  0
   29.8150   30.4150   39.9910 H   0  0  0  0  0  0  0  0  0  0  0  0
   28.7000   31.5370   38.5490 C   0  0  0  0  0  0  0  0  0  0  0  0
   27.9200   31.9210   39.1970 H   0  0  0  0  0  0  0  0  0  0  0  0
   28.8760   31.7430   37.1960 C   0  0  0  0  0  3  0  0  0  0  0  0
   30.0220   31.0280   36.8660 C   0  0  0  0  0  0  0  0  0  0  0  0
   30.7030   30.8420   35.6760 C   0  0  0  0  0  3  0  0  0  0  0  0
  1  4  1  6  0  0  0
  1  3  1  0  0  0  0
  1  2  1  0  0  0  0
  1 10  1  0  0  0  0
  2  5  1  0  0  0  0
  3  2  1  0  0  0  0
  3  7  1  1  0  0  0
  6  2  1  0  0  0  0
  8 13  1  0  0  0  0
  9 10  1  0  0  0  0
  9  8  2  0  0  0  0
 10 11  2  0  0  0  0
 11 12  1  0  0  0  0
 12 15  1  0  0  0  0
 13 12  2  0  0  0  0
 14  8  1  0  0  0  0
 16  9  1  0  0  0  0
 17 16  1  0  0  0  0
 18 16  1  0  0  0  0
 19 21  1  0  0  0  0
 19  3  1  0  0  0  0
 20 19  1  0  0  0  0
 22 33  2  0  0  0  0
 22 23  1  0  0  0  0
 23 19  1  0  0  0  0
 23 24  2  0  0  0  0
 24 26  1  0  0  0  0
 24 25  1  0  0  0  0
 26 27  1  0  0  0  0
 27 28  1  0  0  0  0
 29 27  1  0  0  0  0
 29 30  1  0  0  0  0
 31 29  2  0  0  0  0
 32 31  1  0  0  0  0
 32 26  2  0  0  0  0
 33 32  1  0  0  0  0
M  END
>  <minimizedAffinity>
-5.47597265

$$$$
