
 OpenBabel03252509263D

 33 36  0  0  1  0  0  0  0  0999 V2000
   46.5280   35.0260   41.9960 C   0  0  1  0  0  0  0  0  0  0  0  0
   48.0310   35.4170   41.9710 C   0  0  0  0  0  0  0  0  0  0  0  0
   47.4040   34.1210   41.3740 C   0  0  2  0  0  0  0  0  0  0  0  0
   45.9050   35.7500   41.4450 H   0  0  0  0  0  0  0  0  0  0  0  0
   48.6270   35.2870   42.8800 H   0  0  0  0  0  0  0  0  0  0  0  0
   48.3100   36.1930   41.2410 H   0  0  0  0  0  0  0  0  0  0  0  0
   47.7100   33.1860   41.9320 H   0  0  0  0  0  0  0  0  0  0  0  0
   44.7090   35.2390   45.2710 C   0  0  0  0  0  0  0  0  0  0  0  0
   45.1180   35.5820   43.9540 C   0  0  0  0  0  0  0  0  0  0  0  0
   46.0690   34.7800   43.4160 C   0  0  0  0  0  0  0  0  0  0  0  0
   46.6080   33.7060   44.0970 N   0  0  0  0  0  0  0  0  0  0  0  0
   46.1910   33.4130   45.3540 C   0  0  0  0  0  0  0  0  0  0  0  0
   45.2350   34.1880   45.9400 N   0  0  0  0  0  0  0  0  0  0  0  0
   43.9480   35.8760   45.7070 H   0  0  0  0  0  0  0  0  0  0  0  0
   46.5620   32.6030   45.9360 H   0  0  0  0  0  0  0  0  0  0  0  0
   44.5920   36.6910   43.2720 N   0  0  0  0  0  0  0  0  0  0  0  0
   43.6610   36.8010   42.8130 H   0  0  0  0  0  0  0  0  0  0  0  0
   45.2750   37.5060   43.2490 H   0  0  0  0  0  0  0  0  0  0  0  0
   47.4180   33.9400   39.8740 C   0  0  0  0  0  0  0  0  0  0  0  0
   46.3790   33.6790   39.5930 H   0  0  0  0  0  0  0  0  0  0  0  0
   47.6850   34.8800   39.3500 H   0  0  0  0  0  0  0  0  0  0  0  0
   48.0450   31.8890   38.5280 C   0  0  0  0  0  3  0  0  0  0  0  0
   48.2860   32.8050   39.5220 C   0  0  0  0  0  0  0  0  0  0  0  0
   49.4470   32.6600   40.2720 C   0  0  0  0  0  0  0  0  0  0  0  0
   49.7190   33.3330   41.0730 H   0  0  0  0  0  0  0  0  0  0  0  0
   50.3500   31.6390   40.0460 C   0  0  0  0  0  0  0  0  0  0  0  0
   51.5150   31.2780   40.6090 N   0  0  0  0  0  0  0  0  0  0  0  0
   51.9660   31.8010   41.4120 H   0  0  0  0  0  0  0  0  0  0  0  0
   52.0140   30.1820   40.0130 C   0  0  0  0  0  0  0  0  0  0  0  0
   52.9510   29.7240   40.3140 H   0  0  0  0  0  0  0  0  0  0  0  0
   51.1470   29.7940   39.0120 C   0  0  0  0  0  3  0  0  0  0  0  0
   50.1110   30.7200   39.0520 C   0  0  0  0  0  0  0  0  0  0  0  0
   48.9540   30.8670   38.3080 C   0  0  0  0  0  3  0  0  0  0  0  0
  1  4  1  6  0  0  0
  1 10  1  0  0  0  0
  2  1  1  0  0  0  0
  2  5  1  0  0  0  0
  3  7  1  1  0  0  0
  3  2  1  0  0  0  0
  3  1  1  0  0  0  0
  6  2  1  0  0  0  0
  8 14  1  0  0  0  0
  8 13  1  0  0  0  0
  9  8  2  0  0  0  0
 10  9  1  0  0  0  0
 10 11  2  0  0  0  0
 11 12  1  0  0  0  0
 12 15  1  0  0  0  0
 12 13  2  0  0  0  0
 16  9  1  0  0  0  0
 17 16  1  0  0  0  0
 18 16  1  0  0  0  0
 19  3  1  0  0  0  0
 20 19  1  0  0  0  0
 21 19  1  0  0  0  0
 22 23  1  0  0  0  0
 23 19  1  0  0  0  0
 23 24  2  0  0  0  0
 24 25  1  0  0  0  0
 26 24  1  0  0  0  0
 26 27  1  0  0  0  0
 27 28  1  0  0  0  0
 29 30  1  0  0  0  0
 29 27  1  0  0  0  0
 31 32  1  0  0  0  0
 31 29  2  0  0  0  0
 32 26  2  0  0  0  0
 33 22  2  0  0  0  0
 33 32  1  0  0  0  0
M  END
>  <minimizedAffinity>
-4.87163305

>  <minimizedRMSD>
0.20391418

$$$$
