
 OpenBabel03252508453D

 48 51  0  0  0  0  0  0  0  0999 V2000
   42.7180   31.5300   42.5700 N   0  0  0  0  0  0  0  0  0  0  0  0
   43.2530   30.6550   42.3780 H   0  0  0  0  0  0  0  0  0  0  0  0
   43.0830   32.5540   41.6240 C   0  0  0  0  0  0  0  0  0  0  0  0
   43.6610   32.1280   40.7550 H   0  0  0  0  0  0  0  0  0  0  0  0
   42.1400   32.9950   41.2360 H   0  0  0  0  0  0  0  0  0  0  0  0
   43.6570   34.9730   41.8780 C   0  0  0  0  0  0  0  0  0  0  0  0
   43.9310   33.6370   42.1810 C   0  0  0  0  0  0  0  0  0  0  0  0
   44.9970   33.3610   42.9990 C   0  0  0  0  0  0  0  0  0  0  0  0
   45.7630   34.3760   43.5000 C   0  0  0  0  0  0  0  0  0  0  0  0
   45.5210   35.6860   43.2220 C   0  0  0  0  0  0  0  0  0  0  0  0
   44.4400   35.9310   42.3940 C   0  0  0  0  0  0  0  0  0  0  0  0
   45.2190   32.3230   43.2420 H   0  0  0  0  0  0  0  0  0  0  0  0
   46.5950   34.0900   44.1450 H   0  0  0  0  0  0  0  0  0  0  0  0
   46.1190   36.5060   43.6110 H   0  0  0  0  0  0  0  0  0  0  0  0
   44.1980   36.9660   42.1370 H   0  0  0  0  0  0  0  0  0  0  0  0
   40.2310   35.7900   40.5240 C   0  0  0  0  0  0  0  0  0  0  0  0
   41.2540   35.5860   41.4610 C   0  0  0  0  0  0  0  0  0  0  0  0
   42.5180   35.2120   41.0050 C   0  0  0  0  0  0  0  0  0  0  0  0
   42.6790   35.0670   39.6590 N   0  0  0  0  0  0  0  0  0  0  0  0
   41.6720   35.2700   38.7730 C   0  0  0  0  0  0  0  0  0  0  0  0
   40.4530   35.6320   39.2230 N   0  0  0  0  0  0  0  0  0  0  0  0
   39.2440   36.0810   40.8800 H   0  0  0  0  0  0  0  0  0  0  0  0
   41.1120   35.7040   42.5300 H   0  0  0  0  0  0  0  0  0  0  0  0
   41.8330   35.1470   37.7080 H   0  0  0  0  0  0  0  0  0  0  0  0
   41.0470   31.1820   42.5630 S   0  0  0  0  0  0  0  0  0  0  0  0
   40.2280   32.4420   42.5080 O   0  0  0  0  0  0  0  0  0  0  0  0
   39.5470   32.5980   41.7980 H   0  0  0  0  0  0  0  0  0  0  0  0
   40.6560   30.3600   43.7370 O   0  0  0  0  0  0  0  0  0  0  0  0
   40.0560   30.7070   44.4500 H   0  0  0  0  0  0  0  0  0  0  0  0
   40.7320   30.2930   41.1740 O   0  0  0  0  0  0  0  0  0  0  0  0
   39.7180   29.4030   41.4300 C   0  0  0  0  0  0  0  0  0  0  0  0
   39.8580   28.3820   41.0840 H   0  0  0  0  0  0  0  0  0  0  0  0
   39.6520   29.3290   42.5530 H   0  0  0  0  0  0  0  0  0  0  0  0
   38.3930   29.9880   40.8940 C   0  0  0  0  0  0  0  0  0  0  0  0
   38.6140   30.4940   39.9530 H   0  0  0  0  0  0  0  0  0  0  0  0
   37.9060   30.5940   41.6670 H   0  0  0  0  0  0  0  0  0  0  0  0
   36.3400   28.9490   39.8270 C   0  0  0  0  0  0  0  0  0  0  0  0
   37.4980   28.8180   40.5900 C   0  0  0  0  0  0  0  0  0  0  0  0
   37.8630   27.5820   41.1020 C   0  0  0  0  0  0  0  0  0  0  0  0
   38.7700   27.4990   41.6960 H   0  0  0  0  0  0  0  0  0  0  0  0
   37.0680   26.4780   40.8470 C   0  0  0  0  0  0  0  0  0  0  0  0
   37.2680   25.2040   41.2620 N   0  0  0  0  0  0  0  0  0  0  0  0
   38.0660   24.8460   41.8490 H   0  0  0  0  0  0  0  0  0  0  0  0
   36.2490   24.4410   40.7880 C   0  0  0  0  0  0  0  0  0  0  0  0
   36.1310   23.3750   40.9550 H   0  0  0  0  0  0  0  0  0  0  0  0
   35.4120   25.2970   40.0640 C   0  0  0  0  0  0  0  0  0  0  0  0
   35.9150   26.5820   40.0920 C   0  0  0  0  0  0  0  0  0  0  0  0
   35.5730   27.8240   39.5950 C   0  0  0  0  0  0  0  0  0  0  0  0
  2  1  1  0  0  0  0
  3  7  1  0  0  0  0
  3  1  1  0  0  0  0
  4  3  1  0  0  0  0
  5  3  1  0  0  0  0
  6  7  2  0  0  0  0
  6 11  1  0  0  0  0
  7  8  1  0  0  0  0
  8 12  1  0  0  0  0
  8  9  2  0  0  0  0
  9 13  1  0  0  0  0
 10  9  1  0  0  0  0
 10 14  1  0  0  0  0
 11 10  2  0  0  0  0
 15 11  1  0  0  0  0
 16 22  1  0  0  0  0
 16 17  1  0  0  0  0
 17 23  1  0  0  0  0
 18 17  2  0  0  0  0
 18  6  1  0  0  0  0
 19 18  1  0  0  0  0
 20 21  1  0  0  0  0
 20 19  2  0  0  0  0
 21 16  2  0  0  0  0
 24 20  1  0  0  0  0
 25  1  1  0  0  0  0
 25 28  1  0  0  0  0
 26 25  1  0  0  0  0
 27 26  1  0  0  0  0
 28 29  1  0  0  0  0
 30 31  1  0  0  0  0
 30 25  1  0  0  0  0
 31 33  1  0  0  0  0
 32 31  1  0  0  0  0
 34 31  1  0  0  0  0
 34 36  1  0  0  0  0
 35 34  1  0  0  0  0
 37 38  1  0  0  0  0
 38 34  1  0  0  0  0
 38 39  2  0  0  0  0
 39 40  1  0  0  0  0
 41 39  1  0  0  0  0
 41 42  1  0  0  0  0
 42 43  1  0  0  0  0
 44 45  1  0  0  0  0
 44 42  1  0  0  0  0
 46 47  1  0  0  0  0
 46 44  2  0  0  0  0
 47 41  2  0  0  0  0
 48 37  2  0  0  0  0
 48 47  1  0  0  0  0
M  END
>  <minimizedAffinity>
-5.81934977

>  <minimizedRMSD>
2.43813825

$$$$
