
 OpenBabel03252505553D

 36 39  0  0  0  0  0  0  0  0999 V2000
   38.6660   33.7070   40.0070 C   0  0  0  0  0  0  0  0  0  0  0  0
   38.8670   34.9880   40.4680 C   0  0  0  0  0  0  0  0  0  0  0  0
   40.0460   35.6200   40.2450 C   0  0  0  0  0  0  0  0  0  0  0  0
   41.0330   35.0050   39.5720 N   0  0  0  0  0  0  0  0  0  0  0  0
   40.8550   33.7590   39.1180 C   0  0  0  0  0  0  0  0  0  0  0  0
   39.6790   33.1070   39.3300 N   0  0  0  0  0  0  0  0  0  0  0  0
   38.0130   35.3860   40.9940 H   0  0  0  0  0  0  0  0  0  0  0  0
   40.1240   36.6240   40.6400 H   0  0  0  0  0  0  0  0  0  0  0  0
   43.2450   33.5110   38.5570 C   0  0  0  0  0  3  0  0  0  0  0  0
   41.9450   33.0850   38.3770 C   0  0  0  0  0  0  0  0  0  0  0  0
   41.5520   32.0590   37.5460 C   0  0  0  0  0  0  0  0  0  0  0  0
   40.5210   31.7530   37.4310 H   0  0  0  0  0  0  0  0  0  0  0  0
   42.5790   31.4370   36.8590 C   0  0  0  0  0  0  0  0  0  0  0  0
   42.5900   30.4120   35.9700 N   0  0  0  0  0  0  0  0  0  0  0  0
   41.7760   29.8700   35.6190 H   0  0  0  0  0  0  0  0  0  0  0  0
   43.8550   30.1650   35.5730 C   0  0  0  0  0  0  0  0  0  0  0  0
   44.2150   29.4100   34.8670 H   0  0  0  0  0  0  0  0  0  0  0  0
   44.7280   31.0460   36.2090 C   0  0  0  0  0  3  0  0  0  0  0  0
   43.8950   31.8320   37.0100 C   0  0  0  0  0  0  0  0  0  0  0  0
   44.2410   32.8780   37.8640 C   0  0  0  0  0  3  0  0  0  0  0  0
   37.4960   32.8340   40.1220 C   0  0  0  0  0  0  0  0  0  0  0  0
   36.9590   32.9540   41.0850 H   0  0  0  0  0  0  0  0  0  0  0  0
   36.7850   33.0980   39.3010 H   0  0  0  0  0  0  0  0  0  0  0  0
   37.9270   31.5100   39.9090 O   0  0  0  0  0  0  0  0  0  0  0  0
   38.4000   29.5360   42.8340 C   0  0  0  0  0  0  0  0  0  0  0  0
   37.3420   28.6370   42.8020 C   0  0  0  0  0  0  0  0  0  0  0  0
   36.4500   28.7320   41.7310 C   0  0  0  0  0  0  0  0  0  0  0  0
   36.6380   29.6650   40.7910 N   0  0  0  0  0  0  0  0  0  0  0  0
   37.6900   30.5230   40.8650 C   0  0  0  0  0  0  0  0  0  0  0  0
   38.5660   30.4670   41.8720 N   0  0  0  0  0  0  0  0  0  0  0  0
   39.1290   29.5140   43.6400 H   0  0  0  0  0  0  0  0  0  0  0  0
   35.6260   28.0250   41.7170 H   0  0  0  0  0  0  0  0  0  0  0  0
   37.2270   27.6320   43.9110 C   0  0  0  0  0  0  0  0  0  0  0  0
   36.3580   26.6760   43.4400 F   0  0  0  0  0  0  0  0  0  0  0  0
   36.6550   28.3140   44.9920 F   0  0  0  0  0  0  0  0  0  0  0  0
   38.4610   27.1580   44.2120 F   0  0  0  0  0  0  0  0  0  0  0  0
  1 21  1  0  0  0  0
  1  2  1  0  0  0  0
  2  7  1  0  0  0  0
  3  2  2  0  0  0  0
  3  8  1  0  0  0  0
  4  3  1  0  0  0  0
  5  6  1  0  0  0  0
  5  4  2  0  0  0  0
  6  1  2  0  0  0  0
 10  9  1  0  0  0  0
 10  5  1  0  0  0  0
 11 10  2  0  0  0  0
 12 11  1  0  0  0  0
 13 19  2  0  0  0  0
 13 11  1  0  0  0  0
 14 13  1  0  0  0  0
 15 14  1  0  0  0  0
 16 14  1  0  0  0  0
 16 18  2  0  0  0  0
 17 16  1  0  0  0  0
 18 19  1  0  0  0  0
 19 20  1  0  0  0  0
 20  9  2  0  0  0  0
 21 22  1  0  0  0  0
 23 21  1  0  0  0  0
 24 21  1  0  0  0  0
 24 29  1  0  0  0  0
 25 31  1  0  0  0  0
 26 25  1  0  0  0  0
 26 33  1  0  0  0  0
 27 26  2  0  0  0  0
 28 29  2  0  0  0  0
 28 27  1  0  0  0  0
 29 30  1  0  0  0  0
 30 25  2  0  0  0  0
 32 27  1  0  0  0  0
 33 36  1  0  0  0  0
 33 35  1  0  0  0  0
 34 33  1  0  0  0  0
M  END
>  <minimizedAffinity>
-7.00037622

$$$$

 OpenBabel03252505553D

 36 39  0  0  0  0  0  0  0  0999 V2000
   38.3470   33.1860   39.4920 C   0  0  0  0  0  0  0  0  0  0  0  0
   37.9490   34.4280   39.9310 C   0  0  0  0  0  0  0  0  0  0  0  0
   38.8660   35.3990   40.1650 C   0  0  0  0  0  0  0  0  0  0  0  0
   40.1740   35.1630   39.9720 N   0  0  0  0  0  0  0  0  0  0  0  0
   40.5790   33.9600   39.5450 C   0  0  0  0  0  0  0  0  0  0  0  0
   39.6750   32.9720   39.3040 N   0  0  0  0  0  0  0  0  0  0  0  0
   36.8800   34.5090   40.0540 H   0  0  0  0  0  0  0  0  0  0  0  0
   38.4720   36.3460   40.5090 H   0  0  0  0  0  0  0  0  0  0  0  0
   42.7960   33.2910   40.3970 C   0  0  0  0  0  3  0  0  0  0  0  0
   42.0210   33.7050   39.3330 C   0  0  0  0  0  0  0  0  0  0  0  0
   42.4780   33.9090   38.0490 C   0  0  0  0  0  0  0  0  0  0  0  0
   41.8390   34.2340   37.2390 H   0  0  0  0  0  0  0  0  0  0  0  0
   43.8270   33.6670   37.8620 C   0  0  0  0  0  0  0  0  0  0  0  0
   44.6250   33.7550   36.7690 N   0  0  0  0  0  0  0  0  0  0  0  0
   44.3520   34.0390   35.8070 H   0  0  0  0  0  0  0  0  0  0  0  0
   45.8870   33.4110   37.0960 C   0  0  0  0  0  0  0  0  0  0  0  0
   46.7740   33.3740   36.4540 H   0  0  0  0  0  0  0  0  0  0  0  0
   45.9490   33.0810   38.4480 C   0  0  0  0  0  3  0  0  0  0  0  0
   44.6390   33.2520   38.9010 C   0  0  0  0  0  0  0  0  0  0  0  0
   44.1270   33.0590   40.1840 C   0  0  0  0  0  3  0  0  0  0  0  0
   37.5540   31.9970   39.1750 C   0  0  0  0  0  0  0  0  0  0  0  0
   36.5730   31.9800   39.6920 H   0  0  0  0  0  0  0  0  0  0  0  0
   37.3580   31.9940   38.0750 H   0  0  0  0  0  0  0  0  0  0  0  0
   38.3380   30.8660   39.4750 O   0  0  0  0  0  0  0  0  0  0  0  0
   36.7830   28.5620   41.6990 C   0  0  0  0  0  0  0  0  0  0  0  0
   37.5590   28.6350   42.8490 C   0  0  0  0  0  0  0  0  0  0  0  0
   38.6470   29.5120   42.8350 C   0  0  0  0  0  0  0  0  0  0  0  0
   38.9010   30.2360   41.7390 N   0  0  0  0  0  0  0  0  0  0  0  0
   38.1120   30.1310   40.6380 C   0  0  0  0  0  0  0  0  0  0  0  0
   37.0620   29.3050   40.6090 N   0  0  0  0  0  0  0  0  0  0  0  0
   35.9220   27.8990   41.6460 H   0  0  0  0  0  0  0  0  0  0  0  0
   39.2470   29.5610   43.7380 H   0  0  0  0  0  0  0  0  0  0  0  0
   37.1810   27.7750   44.0190 C   0  0  0  0  0  0  0  0  0  0  0  0
   38.3440   27.1360   44.3840 F   0  0  0  0  0  0  0  0  0  0  0  0
   36.2530   26.8470   43.5330 F   0  0  0  0  0  0  0  0  0  0  0  0
   36.6500   28.5550   44.9920 F   0  0  0  0  0  0  0  0  0  0  0  0
  1  2  1  0  0  0  0
  2  7  1  0  0  0  0
  2  3  2  0  0  0  0
  3  8  1  0  0  0  0
  4  3  1  0  0  0  0
  5  4  2  0  0  0  0
  6  1  2  0  0  0  0
  6  5  1  0  0  0  0
 10  5  1  0  0  0  0
 10  9  2  0  0  0  0
 11 10  1  0  0  0  0
 12 11  1  0  0  0  0
 13 11  2  0  0  0  0
 13 19  1  0  0  0  0
 14 16  1  0  0  0  0
 14 13  1  0  0  0  0
 15 14  1  0  0  0  0
 16 18  2  0  0  0  0
 17 16  1  0  0  0  0
 18 19  1  0  0  0  0
 19 20  2  0  0  0  0
 20  9  1  0  0  0  0
 21 24  1  0  0  0  0
 21  1  1  0  0  0  0
 21 22  1  0  0  0  0
 23 21  1  0  0  0  0
 24 29  1  0  0  0  0
 25 26  1  0  0  0  0
 26 33  1  0  0  0  0
 27 26  2  0  0  0  0
 27 32  1  0  0  0  0
 28 27  1  0  0  0  0
 29 28  2  0  0  0  0
 30 29  1  0  0  0  0
 30 25  2  0  0  0  0
 31 25  1  0  0  0  0
 33 34  1  0  0  0  0
 33 36  1  0  0  0  0
 35 33  1  0  0  0  0
M  END
>  <minimizedAffinity>
-6.75291395

$$$$

 OpenBabel03252505553D

 36 39  0  0  0  0  0  0  0  0999 V2000
   37.4720   26.4570   42.7570 C   0  0  0  0  0  0  0  0  0  0  0  0
   37.2000   25.2400   42.1750 C   0  0  0  0  0  0  0  0  0  0  0  0
   38.1770   24.3090   42.0450 C   0  0  0  0  0  0  0  0  0  0  0  0
   39.4220   24.5610   42.4800 N   0  0  0  0  0  0  0  0  0  0  0  0
   39.7050   25.7400   43.0480 C   0  0  0  0  0  0  0  0  0  0  0  0
   38.7390   26.6880   43.1900 N   0  0  0  0  0  0  0  0  0  0  0  0
   36.1720   25.1430   41.8610 H   0  0  0  0  0  0  0  0  0  0  0  0
   37.8810   23.3790   41.5760 H   0  0  0  0  0  0  0  0  0  0  0  0
   41.3000   27.0910   44.3590 C   0  0  0  0  0  3  0  0  0  0  0  0
   41.0780   26.0130   43.5270 C   0  0  0  0  0  0  0  0  0  0  0  0
   42.0460   25.1360   43.0850 C   0  0  0  0  0  0  0  0  0  0  0  0
   41.8330   24.3000   42.4330 H   0  0  0  0  0  0  0  0  0  0  0  0
   43.3260   25.4010   43.5390 C   0  0  0  0  0  0  0  0  0  0  0  0
   44.5130   24.7800   43.3280 N   0  0  0  0  0  0  0  0  0  0  0  0
   44.6920   23.9360   42.7490 H   0  0  0  0  0  0  0  0  0  0  0  0
   45.4900   25.4240   43.9960 C   0  0  0  0  0  0  0  0  0  0  0  0
   46.5590   25.1880   44.0410 H   0  0  0  0  0  0  0  0  0  0  0  0
   44.9540   26.5130   44.6810 C   0  0  0  0  0  3  0  0  0  0  0  0
   43.5910   26.4710   44.3730 C   0  0  0  0  0  0  0  0  0  0  0  0
   42.5760   27.3290   44.7920 C   0  0  0  0  0  3  0  0  0  0  0  0
   36.5950   27.6030   43.0050 C   0  0  0  0  0  0  0  0  0  0  0  0
   35.6880   27.3380   43.5850 H   0  0  0  0  0  0  0  0  0  0  0  0
   37.1690   28.3570   43.5980 H   0  0  0  0  0  0  0  0  0  0  0  0
   36.2850   28.1830   41.7590 O   0  0  0  0  0  0  0  0  0  0  0  0
   36.4940   31.4020   40.2530 C   0  0  0  0  0  0  0  0  0  0  0  0
   37.7550   31.8560   40.6130 C   0  0  0  0  0  0  0  0  0  0  0  0
   38.5420   31.0110   41.4010 C   0  0  0  0  0  0  0  0  0  0  0  0
   38.0650   29.8180   41.7740 N   0  0  0  0  0  0  0  0  0  0  0  0
   36.8230   29.4170   41.3950 C   0  0  0  0  0  0  0  0  0  0  0  0
   36.0390   30.1940   40.6430 N   0  0  0  0  0  0  0  0  0  0  0  0
   35.8330   32.0120   39.6410 H   0  0  0  0  0  0  0  0  0  0  0  0
   39.5260   31.3760   41.6770 H   0  0  0  0  0  0  0  0  0  0  0  0
   38.1870   33.2130   40.1390 C   0  0  0  0  0  0  0  0  0  0  0  0
   37.0410   33.8090   39.6670 F   0  0  0  0  0  0  0  0  0  0  0  0
   39.0820   32.9860   39.0860 F   0  0  0  0  0  0  0  0  0  0  0  0
   38.7750   33.8760   41.1640 F   0  0  0  0  0  0  0  0  0  0  0  0
  1 21  1  0  0  0  0
  1  6  1  0  0  0  0
  2  1  2  0  0  0  0
  3  2  1  0  0  0  0
  3  4  2  0  0  0  0
  4  5  1  0  0  0  0
  5  6  2  0  0  0  0
  5 10  1  0  0  0  0
  7  2  1  0  0  0  0
  8  3  1  0  0  0  0
  9 20  1  0  0  0  0
 10  9  2  0  0  0  0
 11 10  1  0  0  0  0
 11 13  2  0  0  0  0
 12 11  1  0  0  0  0
 13 19  1  0  0  0  0
 14 13  1  0  0  0  0
 14 16  1  0  0  0  0
 15 14  1  0  0  0  0
 16 17  1  0  0  0  0
 16 18  2  0  0  0  0
 19 18  1  0  0  0  0
 19 20  2  0  0  0  0
 21 22  1  0  0  0  0
 21 23  1  0  0  0  0
 24 21  1  0  0  0  0
 25 26  2  0  0  0  0
 25 30  1  0  0  0  0
 26 27  1  0  0  0  0
 27 32  1  0  0  0  0
 27 28  2  0  0  0  0
 29 24  1  0  0  0  0
 29 28  1  0  0  0  0
 30 29  2  0  0  0  0
 31 25  1  0  0  0  0
 33 26  1  0  0  0  0
 33 36  1  0  0  0  0
 34 33  1  0  0  0  0
 35 33  1  0  0  0  0
M  END
>  <minimizedAffinity>
-6.56896067

$$$$

 OpenBabel03252505553D

 36 39  0  0  0  0  0  0  0  0999 V2000
   35.9390   29.5900   38.9620 C   0  0  0  0  0  0  0  0  0  0  0  0
   36.0720   29.2660   37.6310 C   0  0  0  0  0  0  0  0  0  0  0  0
   36.8850   29.9940   36.8260 C   0  0  0  0  0  0  0  0  0  0  0  0
   37.5710   31.0400   37.3150 N   0  0  0  0  0  0  0  0  0  0  0  0
   37.4530   31.3700   38.6080 C   0  0  0  0  0  0  0  0  0  0  0  0
   36.6430   30.6520   39.4330 N   0  0  0  0  0  0  0  0  0  0  0  0
   35.4780   28.4120   37.3430 H   0  0  0  0  0  0  0  0  0  0  0  0
   36.9340   29.6740   35.7930 H   0  0  0  0  0  0  0  0  0  0  0  0
   37.5220   33.6160   39.6260 C   0  0  0  0  0  3  0  0  0  0  0  0
   38.2110   32.5230   39.1420 C   0  0  0  0  0  0  0  0  0  0  0  0
   39.5830   32.3990   39.1090 C   0  0  0  0  0  0  0  0  0  0  0  0
   40.0880   31.5240   38.7220 H   0  0  0  0  0  0  0  0  0  0  0  0
   40.2810   33.4820   39.6110 C   0  0  0  0  0  0  0  0  0  0  0  0
   41.6080   33.7270   39.7440 N   0  0  0  0  0  0  0  0  0  0  0  0
   42.3970   33.1070   39.4760 H   0  0  0  0  0  0  0  0  0  0  0  0
   41.7950   34.9430   40.2970 C   0  0  0  0  0  0  0  0  0  0  0  0
   42.7360   35.4460   40.5410 H   0  0  0  0  0  0  0  0  0  0  0  0
   40.5610   35.5400   40.5480 C   0  0  0  0  0  3  0  0  0  0  0  0
   39.6290   34.5970   40.1050 C   0  0  0  0  0  0  0  0  0  0  0  0
   38.2380   34.6740   40.1170 C   0  0  0  0  0  3  0  0  0  0  0  0
   35.1340   28.9620   40.0120 C   0  0  0  0  0  0  0  0  0  0  0  0
   34.0770   29.2960   40.0050 H   0  0  0  0  0  0  0  0  0  0  0  0
   35.1430   27.8580   39.8400 H   0  0  0  0  0  0  0  0  0  0  0  0
   35.7680   29.2100   41.2440 O   0  0  0  0  0  0  0  0  0  0  0  0
   38.4780   28.0300   43.2300 C   0  0  0  0  0  0  0  0  0  0  0  0
   38.6830   26.7340   42.7750 C   0  0  0  0  0  0  0  0  0  0  0  0
   37.8500   26.2720   41.7530 C   0  0  0  0  0  0  0  0  0  0  0  0
   36.9020   27.0750   41.2550 N   0  0  0  0  0  0  0  0  0  0  0  0
   36.7410   28.3370   41.7320 C   0  0  0  0  0  0  0  0  0  0  0  0
   37.5150   28.8180   42.7090 N   0  0  0  0  0  0  0  0  0  0  0  0
   39.0930   28.4490   44.0230 H   0  0  0  0  0  0  0  0  0  0  0  0
   38.0180   25.2580   41.4060 H   0  0  0  0  0  0  0  0  0  0  0  0
   39.7750   25.9210   43.4080 C   0  0  0  0  0  0  0  0  0  0  0  0
   40.0220   26.5310   44.6160 F   0  0  0  0  0  0  0  0  0  0  0  0
   40.8870   26.0480   42.5660 F   0  0  0  0  0  0  0  0  0  0  0  0
   39.3670   24.6330   43.5110 F   0  0  0  0  0  0  0  0  0  0  0  0
  1  6  1  0  0  0  0
  1 21  1  0  0  0  0
  2  1  2  0  0  0  0
  3  4  2  0  0  0  0
  3  2  1  0  0  0  0
  4  5  1  0  0  0  0
  5 10  1  0  0  0  0
  5  6  2  0  0  0  0
  7  2  1  0  0  0  0
  8  3  1  0  0  0  0
  9 20  1  0  0  0  0
 10  9  2  0  0  0  0
 11 10  1  0  0  0  0
 11 13  2  0  0  0  0
 12 11  1  0  0  0  0
 13 14  1  0  0  0  0
 13 19  1  0  0  0  0
 14 16  1  0  0  0  0
 15 14  1  0  0  0  0
 16 17  1  0  0  0  0
 16 18  2  0  0  0  0
 19 20  2  0  0  0  0
 19 18  1  0  0  0  0
 21 24  1  0  0  0  0
 22 21  1  0  0  0  0
 23 21  1  0  0  0  0
 24 29  1  0  0  0  0
 25 31  1  0  0  0  0
 26 25  1  0  0  0  0
 26 33  1  0  0  0  0
 27 26  2  0  0  0  0
 28 29  2  0  0  0  0
 28 27  1  0  0  0  0
 29 30  1  0  0  0  0
 30 25  2  0  0  0  0
 32 27  1  0  0  0  0
 33 36  1  0  0  0  0
 33 34  1  0  0  0  0
 35 33  1  0  0  0  0
M  END
>  <minimizedAffinity>
-6.53216219

$$$$

 OpenBabel03252505553D

 36 39  0  0  0  0  0  0  0  0999 V2000
   38.3590   26.9910   43.4080 C   0  0  0  0  0  0  0  0  0  0  0  0
   39.5870   26.6820   43.9460 C   0  0  0  0  0  0  0  0  0  0  0  0
   40.2230   25.5390   43.5890 C   0  0  0  0  0  0  0  0  0  0  0  0
   39.6650   24.6930   42.7080 N   0  0  0  0  0  0  0  0  0  0  0  0
   38.4700   24.9780   42.1750 C   0  0  0  0  0  0  0  0  0  0  0  0
   37.8150   26.1200   42.5190 N   0  0  0  0  0  0  0  0  0  0  0  0
   39.9430   27.4260   44.6420 H   0  0  0  0  0  0  0  0  0  0  0  0
   41.1840   25.3690   44.0580 H   0  0  0  0  0  0  0  0  0  0  0  0
   38.6300   23.0410   40.6560 C   0  0  0  0  0  3  0  0  0  0  0  0
   37.8580   24.0440   41.2040 C   0  0  0  0  0  0  0  0  0  0  0  0
   36.5270   24.2660   40.9240 C   0  0  0  0  0  0  0  0  0  0  0  0
   35.9530   25.0640   41.3760 H   0  0  0  0  0  0  0  0  0  0  0  0
   35.9660   23.3870   40.0160 C   0  0  0  0  0  0  0  0  0  0  0  0
   34.7150   23.2860   39.5010 N   0  0  0  0  0  0  0  0  0  0  0  0
   33.8950   23.8890   39.7070 H   0  0  0  0  0  0  0  0  0  0  0  0
   34.6580   22.2500   38.6390 C   0  0  0  0  0  0  0  0  0  0  0  0
   33.8050   21.8930   38.0530 H   0  0  0  0  0  0  0  0  0  0  0  0
   35.9050   21.6300   38.5660 C   0  0  0  0  0  3  0  0  0  0  0  0
   36.7040   22.3690   39.4430 C   0  0  0  0  0  0  0  0  0  0  0  0
   38.0490   22.1860   39.7600 C   0  0  0  0  0  3  0  0  0  0  0  0
   37.4920   28.1490   43.6360 C   0  0  0  0  0  0  0  0  0  0  0  0
   36.7040   27.9590   44.3920 H   0  0  0  0  0  0  0  0  0  0  0  0
   38.1280   28.9890   44.0110 H   0  0  0  0  0  0  0  0  0  0  0  0
   36.9600   28.5380   42.3910 O   0  0  0  0  0  0  0  0  0  0  0  0
   36.6360   31.5820   40.5740 C   0  0  0  0  0  0  0  0  0  0  0  0
   37.9100   32.1330   40.6210 C   0  0  0  0  0  0  0  0  0  0  0  0
   38.8950   31.4180   41.3050 C   0  0  0  0  0  0  0  0  0  0  0  0
   38.5880   30.2500   41.8810 N   0  0  0  0  0  0  0  0  0  0  0  0
   37.3260   29.7500   41.8070 C   0  0  0  0  0  0  0  0  0  0  0  0
   36.3540   30.4020   41.1630 N   0  0  0  0  0  0  0  0  0  0  0  0
   35.8250   32.0900   40.0570 H   0  0  0  0  0  0  0  0  0  0  0  0
   39.8870   31.8580   41.3360 H   0  0  0  0  0  0  0  0  0  0  0  0
   38.1420   33.4510   39.9400 C   0  0  0  0  0  0  0  0  0  0  0  0
   39.1710   33.2220   39.0570 F   0  0  0  0  0  0  0  0  0  0  0  0
   38.5550   34.3360   40.9440 F   0  0  0  0  0  0  0  0  0  0  0  0
   36.9900   33.8580   39.3530 F   0  0  0  0  0  0  0  0  0  0  0  0
  1 21  1  0  0  0  0
  1  2  1  0  0  0  0
  2  7  1  0  0  0  0
  3  2  2  0  0  0  0
  3  8  1  0  0  0  0
  4  3  1  0  0  0  0
  5  6  1  0  0  0  0
  5  4  2  0  0  0  0
  6  1  2  0  0  0  0
  9 10  1  0  0  0  0
 10  5  1  0  0  0  0
 11 10  2  0  0  0  0
 11 12  1  0  0  0  0
 13 11  1  0  0  0  0
 14 15  1  0  0  0  0
 14 13  1  0  0  0  0
 16 14  1  0  0  0  0
 17 16  1  0  0  0  0
 18 16  2  0  0  0  0
 18 19  1  0  0  0  0
 19 20  1  0  0  0  0
 19 13  2  0  0  0  0
 20  9  2  0  0  0  0
 21 23  1  0  0  0  0
 21 22  1  0  0  0  0
 24 21  1  0  0  0  0
 25 26  2  0  0  0  0
 25 30  1  0  0  0  0
 26 27  1  0  0  0  0
 27 32  1  0  0  0  0
 27 28  2  0  0  0  0
 29 28  1  0  0  0  0
 29 24  1  0  0  0  0
 30 29  2  0  0  0  0
 31 25  1  0  0  0  0
 33 26  1  0  0  0  0
 33 35  1  0  0  0  0
 34 33  1  0  0  0  0
 36 33  1  0  0  0  0
M  END
>  <minimizedAffinity>
-6.4750104

$$$$

 OpenBabel03252505553D

 36 39  0  0  0  0  0  0  0  0999 V2000
   38.9850   31.6580   41.0300 C   0  0  0  0  0  0  0  0  0  0  0  0
   38.8000   33.0200   40.9570 C   0  0  0  0  0  0  0  0  0  0  0  0
   37.9970   33.5520   40.0030 C   0  0  0  0  0  0  0  0  0  0  0  0
   37.3700   32.7590   39.1180 N   0  0  0  0  0  0  0  0  0  0  0  0
   37.5390   31.4330   39.1750 C   0  0  0  0  0  0  0  0  0  0  0  0
   38.3410   30.8780   40.1240 N   0  0  0  0  0  0  0  0  0  0  0  0
   39.3490   33.5620   41.7120 H   0  0  0  0  0  0  0  0  0  0  0  0
   37.9050   34.6310   40.0130 H   0  0  0  0  0  0  0  0  0  0  0  0
   35.7890   29.7840   38.6200 C   0  0  0  0  0  3  0  0  0  0  0  0
   36.8470   30.5630   38.1980 C   0  0  0  0  0  0  0  0  0  0  0  0
   37.3360   30.6090   36.9100 C   0  0  0  0  0  0  0  0  0  0  0  0
   38.1690   31.2350   36.6170 H   0  0  0  0  0  0  0  0  0  0  0  0
   36.6810   29.7930   36.0060 C   0  0  0  0  0  0  0  0  0  0  0  0
   36.8670   29.5700   34.6810 N   0  0  0  0  0  0  0  0  0  0  0  0
   37.5810   29.9990   34.0610 H   0  0  0  0  0  0  0  0  0  0  0  0
   35.9630   28.6730   34.2380 C   0  0  0  0  0  0  0  0  0  0  0  0
   35.8350   28.2730   33.2260 H   0  0  0  0  0  0  0  0  0  0  0  0
   35.1400   28.2750   35.2900 C   0  0  0  0  0  3  0  0  0  0  0  0
   35.6180   28.9970   36.3870 C   0  0  0  0  0  0  0  0  0  0  0  0
   35.1600   28.9850   37.7040 C   0  0  0  0  0  3  0  0  0  0  0  0
   39.7910   30.8630   41.9580 C   0  0  0  0  0  0  0  0  0  0  0  0
   40.4390   30.1230   41.4460 H   0  0  0  0  0  0  0  0  0  0  0  0
   40.4560   31.5610   42.5250 H   0  0  0  0  0  0  0  0  0  0  0  0
   38.9150   30.2610   42.8810 O   0  0  0  0  0  0  0  0  0  0  0  0
   39.1060   26.8290   41.9520 C   0  0  0  0  0  0  0  0  0  0  0  0
   37.8910   26.3040   42.3710 C   0  0  0  0  0  0  0  0  0  0  0  0
   36.9930   27.1760   42.9910 C   0  0  0  0  0  0  0  0  0  0  0  0
   37.3250   28.4620   43.1570 N   0  0  0  0  0  0  0  0  0  0  0  0
   38.5260   28.9300   42.7290 C   0  0  0  0  0  0  0  0  0  0  0  0
   39.4140   28.1300   42.1330 N   0  0  0  0  0  0  0  0  0  0  0  0
   39.8490   26.2030   41.4630 H   0  0  0  0  0  0  0  0  0  0  0  0
   36.0470   26.7540   43.3140 H   0  0  0  0  0  0  0  0  0  0  0  0
   37.6260   24.8460   42.1330 C   0  0  0  0  0  0  0  0  0  0  0  0
   38.5660   24.1830   42.8870 F   0  0  0  0  0  0  0  0  0  0  0  0
   37.8590   24.6280   40.7700 F   0  0  0  0  0  0  0  0  0  0  0  0
   36.3450   24.5650   42.4750 F   0  0  0  0  0  0  0  0  0  0  0  0
  1 21  1  0  0  0  0
  2  1  1  0  0  0  0
  2  7  1  0  0  0  0
  3  8  1  0  0  0  0
  3  2  2  0  0  0  0
  4  5  2  0  0  0  0
  4  3  1  0  0  0  0
  5  6  1  0  0  0  0
  6  1  2  0  0  0  0
 10  9  1  0  0  0  0
 10  5  1  0  0  0  0
 11 10  2  0  0  0  0
 12 11  1  0  0  0  0
 13 19  2  0  0  0  0
 13 11  1  0  0  0  0
 14 13  1  0  0  0  0
 15 14  1  0  0  0  0
 16 14  1  0  0  0  0
 16 18  2  0  0  0  0
 17 16  1  0  0  0  0
 18 19  1  0  0  0  0
 19 20  1  0  0  0  0
 20  9  2  0  0  0  0
 21 23  1  0  0  0  0
 21 24  1  0  0  0  0
 22 21  1  0  0  0  0
 25 30  2  0  0  0  0
 25 26  1  0  0  0  0
 26 27  2  0  0  0  0
 27 28  1  0  0  0  0
 27 32  1  0  0  0  0
 29 24  1  0  0  0  0
 29 28  2  0  0  0  0
 30 29  1  0  0  0  0
 31 25  1  0  0  0  0
 33 26  1  0  0  0  0
 33 36  1  0  0  0  0
 33 34  1  0  0  0  0
 35 33  1  0  0  0  0
M  END
>  <minimizedAffinity>
-6.41180658

$$$$

 OpenBabel03252505553D

 36 39  0  0  0  0  0  0  0  0999 V2000
   38.0940   28.4380   37.4090 C   0  0  0  0  0  0  0  0  0  0  0  0
   39.3210   27.9920   36.9740 C   0  0  0  0  0  0  0  0  0  0  0  0
   40.4250   28.7640   37.1310 C   0  0  0  0  0  0  0  0  0  0  0  0
   40.3360   29.9720   37.7110 N   0  0  0  0  0  0  0  0  0  0  0  0
   39.1500   30.4210   38.1390 C   0  0  0  0  0  0  0  0  0  0  0  0
   38.0300   29.6630   37.9930 N   0  0  0  0  0  0  0  0  0  0  0  0
   39.2790   27.0130   36.5240 H   0  0  0  0  0  0  0  0  0  0  0  0
   41.3500   28.3420   36.7620 H   0  0  0  0  0  0  0  0  0  0  0  0
   37.8220   32.2290   39.1670 C   0  0  0  0  0  3  0  0  0  0  0  0
   39.0570   31.7530   38.7780 C   0  0  0  0  0  0  0  0  0  0  0  0
   40.2520   32.4210   38.9340 C   0  0  0  0  0  0  0  0  0  0  0  0
   41.2030   32.0140   38.6170 H   0  0  0  0  0  0  0  0  0  0  0  0
   40.1530   33.6650   39.5320 C   0  0  0  0  0  0  0  0  0  0  0  0
   41.0850   34.5990   39.8480 N   0  0  0  0  0  0  0  0  0  0  0  0
   42.1100   34.5510   39.6890 H   0  0  0  0  0  0  0  0  0  0  0  0
   40.4880   35.6610   40.4270 C   0  0  0  0  0  0  0  0  0  0  0  0
   40.9450   36.5830   40.8000 H   0  0  0  0  0  0  0  0  0  0  0  0
   39.1140   35.4420   40.5070 C   0  0  0  0  0  3  0  0  0  0  0  0
   38.9360   34.1790   39.9360 C   0  0  0  0  0  0  0  0  0  0  0  0
   37.7540   33.4620   39.7560 C   0  0  0  0  0  3  0  0  0  0  0  0
   36.7800   27.7930   37.3510 C   0  0  0  0  0  0  0  0  0  0  0  0
   35.9400   28.5080   37.4650 H   0  0  0  0  0  0  0  0  0  0  0  0
   36.6770   27.3050   36.3510 H   0  0  0  0  0  0  0  0  0  0  0  0
   36.7570   26.7790   38.3280 O   0  0  0  0  0  0  0  0  0  0  0  0
   37.9030   26.6810   41.6970 C   0  0  0  0  0  0  0  0  0  0  0  0
   37.1080   27.6160   42.3460 C   0  0  0  0  0  0  0  0  0  0  0  0
   36.1530   28.2900   41.5790 C   0  0  0  0  0  0  0  0  0  0  0  0
   36.0390   28.0190   40.2740 N   0  0  0  0  0  0  0  0  0  0  0  0
   36.8400   27.0940   39.6840 C   0  0  0  0  0  0  0  0  0  0  0  0
   37.7650   26.4280   40.3800 N   0  0  0  0  0  0  0  0  0  0  0  0
   38.6640   26.1230   42.2370 H   0  0  0  0  0  0  0  0  0  0  0  0
   35.5380   29.0200   42.0960 H   0  0  0  0  0  0  0  0  0  0  0  0
   37.3240   27.8410   43.8140 C   0  0  0  0  0  0  0  0  0  0  0  0
   36.1350   27.4870   44.4090 F   0  0  0  0  0  0  0  0  0  0  0  0
   37.5490   29.2150   43.9650 F   0  0  0  0  0  0  0  0  0  0  0  0
   38.3880   27.1090   44.2240 F   0  0  0  0  0  0  0  0  0  0  0  0
  1  6  1  0  0  0  0
  2  3  1  0  0  0  0
  2  1  2  0  0  0  0
  3  4  2  0  0  0  0
  4  5  1  0  0  0  0
  5 10  1  0  0  0  0
  6  5  2  0  0  0  0
  7  2  1  0  0  0  0
  8  3  1  0  0  0  0
  9 20  1  0  0  0  0
 10 11  1  0  0  0  0
 10  9  2  0  0  0  0
 11 13  2  0  0  0  0
 12 11  1  0  0  0  0
 13 14  1  0  0  0  0
 13 19  1  0  0  0  0
 14 16  1  0  0  0  0
 15 14  1  0  0  0  0
 16 18  2  0  0  0  0
 16 17  1  0  0  0  0
 19 18  1  0  0  0  0
 20 19  2  0  0  0  0
 21  1  1  0  0  0  0
 21 22  1  0  0  0  0
 21 24  1  0  0  0  0
 23 21  1  0  0  0  0
 24 29  1  0  0  0  0
 25 31  1  0  0  0  0
 25 26  1  0  0  0  0
 26 33  1  0  0  0  0
 27 32  1  0  0  0  0
 27 26  2  0  0  0  0
 28 27  1  0  0  0  0
 29 28  2  0  0  0  0
 29 30  1  0  0  0  0
 30 25  2  0  0  0  0
 33 35  1  0  0  0  0
 33 36  1  0  0  0  0
 33 34  1  0  0  0  0
M  END
>  <minimizedAffinity>
-6.34489059

$$$$

 OpenBabel03252505553D

 36 39  0  0  0  0  0  0  0  0999 V2000
   36.8510   28.9410   41.9100 C   0  0  0  0  0  0  0  0  0  0  0  0
   35.8140   28.6420   41.0570 C   0  0  0  0  0  0  0  0  0  0  0  0
   35.4900   29.4890   40.0490 C   0  0  0  0  0  0  0  0  0  0  0  0
   36.1750   30.6310   39.8690 N   0  0  0  0  0  0  0  0  0  0  0  0
   37.1870   30.9380   40.6910 C   0  0  0  0  0  0  0  0  0  0  0  0
   37.5290   30.1010   41.7080 N   0  0  0  0  0  0  0  0  0  0  0  0
   35.3320   27.7050   41.2900 H   0  0  0  0  0  0  0  0  0  0  0  0
   34.6620   29.1820   39.4230 H   0  0  0  0  0  0  0  0  0  0  0  0
   37.3080   33.2710   39.9000 C   0  0  0  0  0  3  0  0  0  0  0  0
   37.9390   32.1960   40.4890 C   0  0  0  0  0  0  0  0  0  0  0  0
   39.2470   32.1810   40.9240 C   0  0  0  0  0  0  0  0  0  0  0  0
   39.7070   31.3170   41.3840 H   0  0  0  0  0  0  0  0  0  0  0  0
   39.9400   33.3630   40.7310 C   0  0  0  0  0  0  0  0  0  0  0  0
   41.2150   33.7270   41.0190 N   0  0  0  0  0  0  0  0  0  0  0  0
   41.9530   33.1500   41.4670 H   0  0  0  0  0  0  0  0  0  0  0  0
   41.4230   35.0020   40.6330 C   0  0  0  0  0  0  0  0  0  0  0  0
   42.3350   35.6030   40.7180 H   0  0  0  0  0  0  0  0  0  0  0  0
   40.2590   35.5190   40.0670 C   0  0  0  0  0  3  0  0  0  0  0  0
   39.3460   34.4630   40.1430 C   0  0  0  0  0  0  0  0  0  0  0  0
   38.0180   34.4270   39.7200 C   0  0  0  0  0  3  0  0  0  0  0  0
   37.3790   28.1940   43.0530 C   0  0  0  0  0  0  0  0  0  0  0  0
   37.6520   28.8450   43.9080 H   0  0  0  0  0  0  0  0  0  0  0  0
   36.5850   27.4890   43.4030 H   0  0  0  0  0  0  0  0  0  0  0  0
   38.4660   27.4240   42.5960 O   0  0  0  0  0  0  0  0  0  0  0  0
   39.0210   24.6840   40.3920 C   0  0  0  0  0  0  0  0  0  0  0  0
   37.9580   23.8290   40.6500 C   0  0  0  0  0  0  0  0  0  0  0  0
   37.0330   24.2280   41.6180 C   0  0  0  0  0  0  0  0  0  0  0  0
   37.1970   25.3960   42.2520 N   0  0  0  0  0  0  0  0  0  0  0  0
   38.2540   26.1990   41.9630 C   0  0  0  0  0  0  0  0  0  0  0  0
   39.1620   25.8560   41.0450 N   0  0  0  0  0  0  0  0  0  0  0  0
   39.7760   24.4310   39.6500 H   0  0  0  0  0  0  0  0  0  0  0  0
   36.2060   23.5520   41.8130 H   0  0  0  0  0  0  0  0  0  0  0  0
   37.8740   22.5430   39.8810 C   0  0  0  0  0  0  0  0  0  0  0  0
   38.4470   22.8180   38.6600 F   0  0  0  0  0  0  0  0  0  0  0  0
   36.5080   22.2770   39.7240 F   0  0  0  0  0  0  0  0  0  0  0  0
   38.5000   21.5650   40.5790 F   0  0  0  0  0  0  0  0  0  0  0  0
  1 21  1  0  0  0  0
  2  7  1  0  0  0  0
  2  1  2  0  0  0  0
  3  2  1  0  0  0  0
  4  3  2  0  0  0  0
  4  5  1  0  0  0  0
  5  6  2  0  0  0  0
  6  1  1  0  0  0  0
  8  3  1  0  0  0  0
  9 10  1  0  0  0  0
 10  5  1  0  0  0  0
 10 11  2  0  0  0  0
 11 12  1  0  0  0  0
 13 11  1  0  0  0  0
 13 14  1  0  0  0  0
 14 15  1  0  0  0  0
 16 17  1  0  0  0  0
 16 14  1  0  0  0  0
 18 19  1  0  0  0  0
 18 16  2  0  0  0  0
 19 13  2  0  0  0  0
 20  9  2  0  0  0  0
 20 19  1  0  0  0  0
 21 23  1  0  0  0  0
 21 22  1  0  0  0  0
 24 21  1  0  0  0  0
 25 26  2  0  0  0  0
 25 30  1  0  0  0  0
 26 27  1  0  0  0  0
 27 32  1  0  0  0  0
 27 28  2  0  0  0  0
 29 28  1  0  0  0  0
 29 24  1  0  0  0  0
 30 29  2  0  0  0  0
 31 25  1  0  0  0  0
 33 36  1  0  0  0  0
 33 26  1  0  0  0  0
 34 33  1  0  0  0  0
 35 33  1  0  0  0  0
M  END
>  <minimizedAffinity>
-6.3448863

$$$$

 OpenBabel03252505553D

 36 39  0  0  0  0  0  0  0  0999 V2000
   38.7040   33.4640   40.1700 C   0  0  0  0  0  0  0  0  0  0  0  0
   38.7850   34.7930   40.5190 C   0  0  0  0  0  0  0  0  0  0  0  0
   39.8780   35.5240   40.1870 C   0  0  0  0  0  0  0  0  0  0  0  0
   40.8960   34.9620   39.5140 N   0  0  0  0  0  0  0  0  0  0  0  0
   40.8340   33.6700   39.1680 C   0  0  0  0  0  0  0  0  0  0  0  0
   39.7460   32.9190   39.4910 N   0  0  0  0  0  0  0  0  0  0  0  0
   37.9160   35.1420   41.0550 H   0  0  0  0  0  0  0  0  0  0  0  0
   39.8640   36.5600   40.4980 H   0  0  0  0  0  0  0  0  0  0  0  0
   41.8710   31.7310   38.0480 C   0  0  0  0  0  3  0  0  0  0  0  0
   41.9580   33.0550   38.4270 C   0  0  0  0  0  0  0  0  0  0  0  0
   43.0270   33.8870   38.1720 C   0  0  0  0  0  0  0  0  0  0  0  0
   43.0580   34.9220   38.4850 H   0  0  0  0  0  0  0  0  0  0  0  0
   44.0710   33.3010   37.4790 C   0  0  0  0  0  0  0  0  0  0  0  0
   45.2650   33.7850   37.0530 N   0  0  0  0  0  0  0  0  0  0  0  0
   45.6390   34.7460   37.1760 H   0  0  0  0  0  0  0  0  0  0  0  0
   45.9480   32.8140   36.4130 C   0  0  0  0  0  0  0  0  0  0  0  0
   46.9380   32.8670   35.9490 H   0  0  0  0  0  0  0  0  0  0  0  0
   45.1980   31.6390   36.4030 C   0  0  0  0  0  3  0  0  0  0  0  0
   44.0250   31.9780   37.0810 C   0  0  0  0  0  0  0  0  0  0  0  0
   42.9190   31.1780   37.3640 C   0  0  0  0  0  3  0  0  0  0  0  0
   37.6420   32.4870   40.4140 C   0  0  0  0  0  0  0  0  0  0  0  0
   37.3790   32.3900   41.4870 H   0  0  0  0  0  0  0  0  0  0  0  0
   36.7270   32.8270   39.8700 H   0  0  0  0  0  0  0  0  0  0  0  0
   38.0470   31.2620   39.8480 O   0  0  0  0  0  0  0  0  0  0  0  0
   37.2440   29.0430   42.5130 C   0  0  0  0  0  0  0  0  0  0  0  0
   37.8670   27.8560   42.1560 C   0  0  0  0  0  0  0  0  0  0  0  0
   38.5810   27.8400   40.9550 C   0  0  0  0  0  0  0  0  0  0  0  0
   38.6400   28.9460   40.2040 N   0  0  0  0  0  0  0  0  0  0  0  0
   38.0140   30.0870   40.5970 C   0  0  0  0  0  0  0  0  0  0  0  0
   37.3200   30.1440   41.7370 N   0  0  0  0  0  0  0  0  0  0  0  0
   36.6730   29.1200   43.4360 H   0  0  0  0  0  0  0  0  0  0  0  0
   39.0640   26.9070   40.6850 H   0  0  0  0  0  0  0  0  0  0  0  0
   37.7340   26.6760   43.0740 C   0  0  0  0  0  0  0  0  0  0  0  0
   36.4060   26.6480   43.4310 F   0  0  0  0  0  0  0  0  0  0  0  0
   38.5280   26.9640   44.1910 F   0  0  0  0  0  0  0  0  0  0  0  0
   38.1580   25.5610   42.4310 F   0  0  0  0  0  0  0  0  0  0  0  0
  1 21  1  0  0  0  0
  1  2  1  0  0  0  0
  2  7  1  0  0  0  0
  3  8  1  0  0  0  0
  3  2  2  0  0  0  0
  4  3  1  0  0  0  0
  5  6  1  0  0  0  0
  5  4  2  0  0  0  0
  6  1  2  0  0  0  0
  9 10  1  0  0  0  0
 10  5  1  0  0  0  0
 11 10  2  0  0  0  0
 11 12  1  0  0  0  0
 13 11  1  0  0  0  0
 14 15  1  0  0  0  0
 14 13  1  0  0  0  0
 16 14  1  0  0  0  0
 17 16  1  0  0  0  0
 18 16  2  0  0  0  0
 18 19  1  0  0  0  0
 19 20  1  0  0  0  0
 19 13  2  0  0  0  0
 20  9  2  0  0  0  0
 21 22  1  0  0  0  0
 23 21  1  0  0  0  0
 24 21  1  0  0  0  0
 24 29  1  0  0  0  0
 25 31  1  0  0  0  0
 26 25  1  0  0  0  0
 26 33  1  0  0  0  0
 27 26  2  0  0  0  0
 28 29  2  0  0  0  0
 28 27  1  0  0  0  0
 29 30  1  0  0  0  0
 30 25  2  0  0  0  0
 32 27  1  0  0  0  0
 33 34  1  0  0  0  0
 33 35  1  0  0  0  0
 36 33  1  0  0  0  0
M  END
>  <minimizedAffinity>
-6.23339558

$$$$
