
 OpenBabel03252502103D

 51 56  0  0  0  0  0  0  0  0999 V2000
   39.3740   29.4050   41.6190 C   0  0  0  0  0  0  0  0  0  0  0  0
   39.9850   28.9400   42.7080 N   0  0  0  0  0  0  0  0  0  0  0  0
   39.7620   27.7620   43.2690 C   0  0  0  0  0  0  0  0  0  0  0  0
   38.8470   26.9190   42.7320 N   0  0  0  0  0  0  0  0  0  0  0  0
   38.1600   27.2700   41.6310 C   0  0  0  0  0  0  0  0  0  0  0  0
   37.2140   26.4280   41.0880 C   0  0  0  0  0  0  0  0  0  0  0  0
   36.4970   26.7750   39.9870 C   0  0  0  0  0  0  0  0  0  0  0  0
   36.7500   28.0020   39.4330 C   0  0  0  0  0  0  0  0  0  0  0  0
   37.7140   28.8230   40.0110 C   0  0  0  0  0  0  0  0  0  0  0  0
   38.4440   28.5110   41.1030 C   0  0  0  0  0  0  0  0  0  0  0  0
   40.3210   27.4820   44.1600 H   0  0  0  0  0  0  0  0  0  0  0  0
   37.0570   25.4710   41.5670 H   0  0  0  0  0  0  0  0  0  0  0  0
   35.7740   26.0680   39.6170 H   0  0  0  0  0  0  0  0  0  0  0  0
   38.8000   32.9240   41.0180 C   0  0  0  0  0  0  0  0  0  0  0  0
   39.7640   33.3300   40.0890 C   0  0  0  0  0  0  0  0  0  0  0  0
   40.6450   32.3720   39.6670 C   0  0  0  0  0  0  0  0  0  0  0  0
   40.5580   31.1300   40.1340 N   0  0  0  0  0  0  0  0  0  0  0  0
   39.6470   30.7300   41.0140 C   0  0  0  0  0  0  0  0  0  0  0  0
   38.7750   31.6540   41.4430 N   0  0  0  0  0  0  0  0  0  0  0  0
   41.6350   32.7080   38.7730 N   0  0  0  0  0  0  0  0  0  0  0  0
   42.7600   31.8080   38.3890 C   0  0  0  0  0  0  0  0  0  0  0  0
   43.3990   32.4460   37.1870 C   0  0  0  0  0  0  0  0  0  0  0  0
   43.0910   33.8890   37.3540 C   0  0  0  0  0  0  0  0  0  0  0  0
   41.7900   33.9440   38.0620 C   0  0  0  0  0  0  0  0  0  0  0  0
   38.0730   33.6570   41.3890 H   0  0  0  0  0  0  0  0  0  0  0  0
   42.3910   30.7810   38.2100 H   0  0  0  0  0  0  0  0  0  0  0  0
   43.4550   31.8550   39.2560 H   0  0  0  0  0  0  0  0  0  0  0  0
   43.0540   31.9920   36.2350 H   0  0  0  0  0  0  0  0  0  0  0  0
   44.5070   32.3010   37.2730 H   0  0  0  0  0  0  0  0  0  0  0  0
   42.9960   34.3390   36.3310 H   0  0  0  0  0  0  0  0  0  0  0  0
   43.9230   34.4370   37.8270 H   0  0  0  0  0  0  0  0  0  0  0  0
   41.9140   34.8080   38.7800 H   0  0  0  0  0  0  0  0  0  0  0  0
   40.9840   34.1140   37.3240 H   0  0  0  0  0  0  0  0  0  0  0  0
   39.7270   34.6250   39.6520 N   0  0  0  0  0  0  0  0  0  0  0  0
   40.2170   35.1440   40.4380 H   0  0  0  0  0  0  0  0  0  0  0  0
   39.3380   35.0570   38.7860 H   0  0  0  0  0  0  0  0  0  0  0  0
   36.3420   28.4320   36.9410 C   0  0  0  0  0  3  0  0  0  0  0  0
   35.9460   28.3300   38.2590 C   0  0  0  0  0  0  0  0  0  0  0  0
   34.6070   28.5610   38.4980 C   0  0  0  0  0  0  0  0  0  0  0  0
   34.1920   28.5070   39.4950 H   0  0  0  0  0  0  0  0  0  0  0  0
   33.6660   28.8800   37.5290 C   0  0  0  0  0  0  0  0  0  0  0  0
   32.3670   29.1380   37.5170 N   0  0  0  0  0  0  0  0  0  0  0  0
   31.7280   29.1510   38.3390 H   0  0  0  0  0  0  0  0  0  0  0  0
   31.9560   29.3910   36.2570 C   0  0  0  0  0  0  0  0  0  0  0  0
   30.9630   29.6370   35.8910 H   0  0  0  0  0  0  0  0  0  0  0  0
   33.0420   29.2970   35.3860 C   0  0  0  0  0  3  0  0  0  0  0  0
   34.0950   28.9760   36.2140 C   0  0  0  0  0  0  0  0  0  0  0  0
   35.4310   28.7460   35.9570 C   0  0  0  0  0  3  0  0  0  0  0  0
   37.8600   30.0370   39.2760 N   0  0  0  0  0  0  0  0  0  0  0  0
   37.4720   30.9960   39.3250 H   0  0  0  0  0  0  0  0  0  0  0  0
   38.5540   29.7900   38.5110 H   0  0  0  0  0  0  0  0  0  0  0  0
  1  2  1  0  0  0  0
  2  3  2  0  0  0  0
  3 11  1  0  0  0  0
  4  3  1  0  0  0  0
  5  4  2  0  0  0  0
  6 12  1  0  0  0  0
  6  5  1  0  0  0  0
  7  6  2  0  0  0  0
  8  7  1  0  0  0  0
  8  9  2  0  0  0  0
  9 10  1  0  0  0  0
 10  1  2  0  0  0  0
 10  5  1  0  0  0  0
 13  7  1  0  0  0  0
 14 25  1  0  0  0  0
 14 19  1  0  0  0  0
 15 14  2  0  0  0  0
 16 15  1  0  0  0  0
 16 17  2  0  0  0  0
 17 18  1  0  0  0  0
 18 19  2  0  0  0  0
 18  1  1  0  0  0  0
 20 16  1  0  0  0  0
 21 20  1  0  0  0  0
 21 27  1  0  0  0  0
 22 29  1  0  0  0  0
 22 23  1  0  0  0  0
 22 21  1  0  0  0  0
 23 31  1  0  0  0  0
 23 24  1  0  0  0  0
 24 20  1  0  0  0  0
 24 32  1  0  0  0  0
 26 21  1  0  0  0  0
 28 22  1  0  0  0  0
 30 23  1  0  0  0  0
 33 24  1  0  0  0  0
 34 15  1  0  0  0  0
 34 35  1  0  0  0  0
 36 34  1  0  0  0  0
 37 38  1  0  0  0  0
 38 39  2  0  0  0  0
 38  8  1  0  0  0  0
 39 40  1  0  0  0  0
 41 39  1  0  0  0  0
 42 41  1  0  0  0  0
 42 43  1  0  0  0  0
 44 42  1  0  0  0  0
 45 44  1  0  0  0  0
 46 47  1  0  0  0  0
 46 44  2  0  0  0  0
 47 41  2  0  0  0  0
 48 47  1  0  0  0  0
 48 37  2  0  0  0  0
 49 50  1  0  0  0  0
 49  9  1  0  0  0  0
 51 49  1  0  0  0  0
M  END
>  <minimizedAffinity>
-7.2619586

$$$$

 OpenBabel03252502103D

 51 56  0  0  0  0  0  0  0  0999 V2000
   37.0300   26.0570   39.9680 C   0  0  0  0  0  0  0  0  0  0  0  0
   36.6760   24.8680   40.4540 N   0  0  0  0  0  0  0  0  0  0  0  0
   36.9350   24.4300   41.6760 C   0  0  0  0  0  0  0  0  0  0  0  0
   37.6130   25.2150   42.5470 N   0  0  0  0  0  0  0  0  0  0  0  0
   38.0280   26.4400   42.1800 C   0  0  0  0  0  0  0  0  0  0  0  0
   38.7340   27.2400   43.0530 C   0  0  0  0  0  0  0  0  0  0  0  0
   39.1780   28.4720   42.6910 C   0  0  0  0  0  0  0  0  0  0  0  0
   38.8960   28.8940   41.4190 C   0  0  0  0  0  0  0  0  0  0  0  0
   38.1790   28.0570   40.5690 C   0  0  0  0  0  0  0  0  0  0  0  0
   37.7240   26.8290   40.8930 C   0  0  0  0  0  0  0  0  0  0  0  0
   36.5970   23.4380   41.9680 H   0  0  0  0  0  0  0  0  0  0  0  0
   38.9260   26.8550   44.0450 H   0  0  0  0  0  0  0  0  0  0  0  0
   39.7230   29.0430   43.4230 H   0  0  0  0  0  0  0  0  0  0  0  0
   37.6600   26.5050   36.4360 C   0  0  0  0  0  0  0  0  0  0  0  0
   36.5790   27.2350   35.9310 C   0  0  0  0  0  0  0  0  0  0  0  0
   35.6000   27.5720   36.8240 C   0  0  0  0  0  0  0  0  0  0  0  0
   35.7040   27.2100   38.1000 N   0  0  0  0  0  0  0  0  0  0  0  0
   36.7250   26.5190   38.5940 C   0  0  0  0  0  0  0  0  0  0  0  0
   37.6950   26.1760   37.7340 N   0  0  0  0  0  0  0  0  0  0  0  0
   34.4960   28.2690   36.3900 N   0  0  0  0  0  0  0  0  0  0  0  0
   33.2850   28.5250   37.2200 C   0  0  0  0  0  0  0  0  0  0  0  0
   32.4910   29.5610   36.4750 C   0  0  0  0  0  0  0  0  0  0  0  0
   32.8880   29.3500   35.0590 C   0  0  0  0  0  0  0  0  0  0  0  0
   34.2860   28.8600   35.1000 C   0  0  0  0  0  0  0  0  0  0  0  0
   38.4690   26.2080   35.7580 H   0  0  0  0  0  0  0  0  0  0  0  0
   33.5740   28.8300   38.2440 H   0  0  0  0  0  0  0  0  0  0  0  0
   32.7400   27.5550   37.2150 H   0  0  0  0  0  0  0  0  0  0  0  0
   32.6590   30.5850   36.8680 H   0  0  0  0  0  0  0  0  0  0  0  0
   31.4060   29.3060   36.5870 H   0  0  0  0  0  0  0  0  0  0  0  0
   32.8390   30.3420   34.5380 H   0  0  0  0  0  0  0  0  0  0  0  0
   32.1670   28.7120   34.5200 H   0  0  0  0  0  0  0  0  0  0  0  0
   34.3170   28.0750   34.2880 H   0  0  0  0  0  0  0  0  0  0  0  0
   34.9710   29.7060   34.9040 H   0  0  0  0  0  0  0  0  0  0  0  0
   36.6040   27.5840   34.6090 N   0  0  0  0  0  0  0  0  0  0  0  0
   36.2710   26.6960   34.1330 H   0  0  0  0  0  0  0  0  0  0  0  0
   36.8700   28.4700   34.1270 H   0  0  0  0  0  0  0  0  0  0  0  0
   40.6860   30.5900   40.7270 C   0  0  0  0  0  3  0  0  0  0  0  0
   39.4040   30.2210   41.0780 C   0  0  0  0  0  0  0  0  0  0  0  0
   38.4750   31.2410   41.1030 C   0  0  0  0  0  0  0  0  0  0  0  0
   37.4410   31.0600   41.3660 H   0  0  0  0  0  0  0  0  0  0  0  0
   38.7410   32.5700   40.8080 C   0  0  0  0  0  0  0  0  0  0  0  0
   38.0380   33.6910   40.7650 N   0  0  0  0  0  0  0  0  0  0  0  0
   37.0230   33.7960   40.9730 H   0  0  0  0  0  0  0  0  0  0  0  0
   38.8290   34.7230   40.4060 C   0  0  0  0  0  0  0  0  0  0  0  0
   38.5790   35.7720   40.2750 H   0  0  0  0  0  0  0  0  0  0  0  0
   40.1300   34.2610   40.1990 C   0  0  0  0  0  3  0  0  0  0  0  0
   40.0390   32.9110   40.4590 C   0  0  0  0  0  0  0  0  0  0  0  0
   40.9800   31.9020   40.4280 C   0  0  0  0  0  3  0  0  0  0  0  0
   37.9540   28.6810   39.3050 N   0  0  0  0  0  0  0  0  0  0  0  0
   38.4200   28.6950   38.3800 H   0  0  0  0  0  0  0  0  0  0  0  0
   37.0730   29.2530   39.4570 H   0  0  0  0  0  0  0  0  0  0  0  0
  1  2  2  0  0  0  0
  1 10  1  0  0  0  0
  2  3  1  0  0  0  0
  3 11  1  0  0  0  0
  3  4  2  0  0  0  0
  5  4  1  0  0  0  0
  5  6  1  0  0  0  0
  6 12  1  0  0  0  0
  7  6  2  0  0  0  0
  7 13  1  0  0  0  0
  8  7  1  0  0  0  0
  9 10  1  0  0  0  0
  9  8  2  0  0  0  0
 10  5  2  0  0  0  0
 14 19  1  0  0  0  0
 15 14  2  0  0  0  0
 15 16  1  0  0  0  0
 16 17  2  0  0  0  0
 17 18  1  0  0  0  0
 18  1  1  0  0  0  0
 19 18  2  0  0  0  0
 20 16  1  0  0  0  0
 20 21  1  0  0  0  0
 21 26  1  0  0  0  0
 22 29  1  0  0  0  0
 22 28  1  0  0  0  0
 22 21  1  0  0  0  0
 23 24  1  0  0  0  0
 23 22  1  0  0  0  0
 24 20  1  0  0  0  0
 25 14  1  0  0  0  0
 27 21  1  0  0  0  0
 30 23  1  0  0  0  0
 31 23  1  0  0  0  0
 32 24  1  0  0  0  0
 33 24  1  0  0  0  0
 34 15  1  0  0  0  0
 35 34  1  0  0  0  0
 36 34  1  0  0  0  0
 37 38  1  0  0  0  0
 38 39  2  0  0  0  0
 38  8  1  0  0  0  0
 39 40  1  0  0  0  0
 41 39  1  0  0  0  0
 42 41  1  0  0  0  0
 42 43  1  0  0  0  0
 44 42  1  0  0  0  0
 45 44  1  0  0  0  0
 46 44  2  0  0  0  0
 46 47  1  0  0  0  0
 47 41  2  0  0  0  0
 48 47  1  0  0  0  0
 48 37  2  0  0  0  0
 49 51  1  0  0  0  0
 49  9  1  0  0  0  0
 50 49  1  0  0  0  0
M  END
>  <minimizedAffinity>
-7.13608694

$$$$

 OpenBabel03252502103D

 51 56  0  0  0  0  0  0  0  0999 V2000
   37.4840   30.7500   37.2980 C   0  0  0  0  0  0  0  0  0  0  0  0
   37.0710   31.0780   36.0730 N   0  0  0  0  0  0  0  0  0  0  0  0
   36.5740   30.2370   35.1800 C   0  0  0  0  0  0  0  0  0  0  0  0
   36.4510   28.9220   35.4820 N   0  0  0  0  0  0  0  0  0  0  0  0
   36.8320   28.4620   36.6860 C   0  0  0  0  0  0  0  0  0  0  0  0
   36.7280   27.1230   36.9980 C   0  0  0  0  0  0  0  0  0  0  0  0
   37.1270   26.6370   38.2030 C   0  0  0  0  0  0  0  0  0  0  0  0
   37.6390   27.5340   39.1040 C   0  0  0  0  0  0  0  0  0  0  0  0
   37.7260   28.8770   38.7510 C   0  0  0  0  0  0  0  0  0  0  0  0
   37.3410   29.3940   37.5660 C   0  0  0  0  0  0  0  0  0  0  0  0
   36.2680   30.6150   34.2070 H   0  0  0  0  0  0  0  0  0  0  0  0
   36.3150   26.4620   36.2480 H   0  0  0  0  0  0  0  0  0  0  0  0
   37.0170   25.5810   38.3790 H   0  0  0  0  0  0  0  0  0  0  0  0
   37.3070   33.2230   39.9300 C   0  0  0  0  0  0  0  0  0  0  0  0
   38.6230   33.6250   40.1840 C   0  0  0  0  0  0  0  0  0  0  0  0
   39.5990   33.0210   39.4400 C   0  0  0  0  0  0  0  0  0  0  0  0
   39.2780   32.1060   38.5300 N   0  0  0  0  0  0  0  0  0  0  0  0
   38.0350   31.7160   38.2770 C   0  0  0  0  0  0  0  0  0  0  0  0
   37.0620   32.2930   38.9970 N   0  0  0  0  0  0  0  0  0  0  0  0
   40.9180   33.3510   39.6550 N   0  0  0  0  0  0  0  0  0  0  0  0
   42.0730   32.6310   39.0490 C   0  0  0  0  0  0  0  0  0  0  0  0
   43.2720   33.5030   39.2970 C   0  0  0  0  0  0  0  0  0  0  0  0
   42.9060   34.2560   40.5240 C   0  0  0  0  0  0  0  0  0  0  0  0
   41.4320   34.4050   40.4810 C   0  0  0  0  0  0  0  0  0  0  0  0
   36.4900   33.6760   40.5020 H   0  0  0  0  0  0  0  0  0  0  0  0
   41.8820   32.4230   37.9790 H   0  0  0  0  0  0  0  0  0  0  0  0
   42.1560   31.6960   39.6450 H   0  0  0  0  0  0  0  0  0  0  0  0
   43.5320   34.1250   38.4160 H   0  0  0  0  0  0  0  0  0  0  0  0
   44.1390   32.8320   39.5310 H   0  0  0  0  0  0  0  0  0  0  0  0
   43.4010   35.2610   40.4690 H   0  0  0  0  0  0  0  0  0  0  0  0
   43.3190   33.7880   41.4340 H   0  0  0  0  0  0  0  0  0  0  0  0
   41.1180   34.2630   41.5570 H   0  0  0  0  0  0  0  0  0  0  0  0
   41.1830   35.4100   40.0910 H   0  0  0  0  0  0  0  0  0  0  0  0
   38.8240   34.6050   41.1150 N   0  0  0  0  0  0  0  0  0  0  0  0
   38.7770   34.0650   42.0280 H   0  0  0  0  0  0  0  0  0  0  0  0
   38.9870   35.6310   41.0230 H   0  0  0  0  0  0  0  0  0  0  0  0
   37.3300   26.7990   41.5380 C   0  0  0  0  0  3  0  0  0  0  0  0
   38.0610   26.9590   40.3790 C   0  0  0  0  0  0  0  0  0  0  0  0
   39.3640   26.5060   40.4280 C   0  0  0  0  0  0  0  0  0  0  0  0
   40.0230   26.5840   39.5730 H   0  0  0  0  0  0  0  0  0  0  0  0
   39.9650   25.9220   41.5330 C   0  0  0  0  0  0  0  0  0  0  0  0
   41.1610   25.4260   41.8100 N   0  0  0  0  0  0  0  0  0  0  0  0
   41.9780   25.3770   41.1670 H   0  0  0  0  0  0  0  0  0  0  0  0
   41.1930   24.9740   43.0820 C   0  0  0  0  0  0  0  0  0  0  0  0
   42.0090   24.5110   43.6290 H   0  0  0  0  0  0  0  0  0  0  0  0
   39.9490   25.1810   43.6800 C   0  0  0  0  0  3  0  0  0  0  0  0
   39.2060   25.7750   42.6840 C   0  0  0  0  0  0  0  0  0  0  0  0
   37.9000   26.2220   42.6510 C   0  0  0  0  0  3  0  0  0  0  0  0
   38.2490   29.6560   39.8270 N   0  0  0  0  0  0  0  0  0  0  0  0
   39.1810   30.0010   40.1200 H   0  0  0  0  0  0  0  0  0  0  0  0
   37.3960   29.8830   40.4150 H   0  0  0  0  0  0  0  0  0  0  0  0
  1 10  1  0  0  0  0
  1 18  1  0  0  0  0
  2  1  2  0  0  0  0
  3  4  2  0  0  0  0
  3  2  1  0  0  0  0
  4  5  1  0  0  0  0
  5  6  2  0  0  0  0
  5 10  1  0  0  0  0
  6  7  1  0  0  0  0
  7 13  1  0  0  0  0
  7  8  2  0  0  0  0
  8 38  1  0  0  0  0
  9  8  1  0  0  0  0
  9 49  1  0  0  0  0
 10  9  2  0  0  0  0
 11  3  1  0  0  0  0
 12  6  1  0  0  0  0
 14 15  1  0  0  0  0
 14 25  1  0  0  0  0
 15 34  1  0  0  0  0
 16 20  1  0  0  0  0
 16 15  2  0  0  0  0
 17 16  1  0  0  0  0
 18 17  2  0  0  0  0
 18 19  1  0  0  0  0
 19 14  2  0  0  0  0
 20 24  1  0  0  0  0
 21 22  1  0  0  0  0
 21 27  1  0  0  0  0
 21 20  1  0  0  0  0
 22 29  1  0  0  0  0
 22 23  1  0  0  0  0
 23 31  1  0  0  0  0
 24 23  1  0  0  0  0
 24 32  1  0  0  0  0
 26 21  1  0  0  0  0
 28 22  1  0  0  0  0
 30 23  1  0  0  0  0
 33 24  1  0  0  0  0
 34 35  1  0  0  0  0
 36 34  1  0  0  0  0
 37 48  1  0  0  0  0
 38 39  1  0  0  0  0
 38 37  2  0  0  0  0
 39 41  2  0  0  0  0
 40 39  1  0  0  0  0
 41 42  1  0  0  0  0
 41 47  1  0  0  0  0
 42 44  1  0  0  0  0
 43 42  1  0  0  0  0
 44 45  1  0  0  0  0
 44 46  2  0  0  0  0
 47 46  1  0  0  0  0
 48 47  2  0  0  0  0
 49 50  1  0  0  0  0
 49 51  1  0  0  0  0
M  END
>  <minimizedAffinity>
-6.8887291

$$$$

 OpenBabel03252502103D

 51 56  0  0  0  0  0  0  0  0999 V2000
   36.7890   27.2540   39.2700 C   0  0  0  0  0  0  0  0  0  0  0  0
   37.3640   26.1610   39.7710 N   0  0  0  0  0  0  0  0  0  0  0  0
   37.0060   24.9150   39.5040 C   0  0  0  0  0  0  0  0  0  0  0  0
   35.9750   24.6730   38.6590 N   0  0  0  0  0  0  0  0  0  0  0  0
   35.3100   25.6910   38.0860 C   0  0  0  0  0  0  0  0  0  0  0  0
   34.2490   25.4560   37.2380 C   0  0  0  0  0  0  0  0  0  0  0  0
   33.5530   26.4740   36.6660 C   0  0  0  0  0  0  0  0  0  0  0  0
   33.9480   27.7510   36.9650 C   0  0  0  0  0  0  0  0  0  0  0  0
   35.0250   27.9460   37.8240 C   0  0  0  0  0  0  0  0  0  0  0  0
   35.7380   26.9610   38.4100 C   0  0  0  0  0  0  0  0  0  0  0  0
   37.5470   24.0940   39.9710 H   0  0  0  0  0  0  0  0  0  0  0  0
   33.9830   24.4270   37.0370 H   0  0  0  0  0  0  0  0  0  0  0  0
   32.7360   26.2170   36.0140 H   0  0  0  0  0  0  0  0  0  0  0  0
   36.6730   30.4010   41.0470 C   0  0  0  0  0  0  0  0  0  0  0  0
   37.6450   31.2210   40.4640 C   0  0  0  0  0  0  0  0  0  0  0  0
   38.3700   30.6740   39.4410 C   0  0  0  0  0  0  0  0  0  0  0  0
   38.1340   29.4260   39.0450 N   0  0  0  0  0  0  0  0  0  0  0  0
   37.2140   28.6380   39.5870 C   0  0  0  0  0  0  0  0  0  0  0  0
   36.4940   29.1530   40.5940 N   0  0  0  0  0  0  0  0  0  0  0  0
   39.3590   31.4160   38.8370 N   0  0  0  0  0  0  0  0  0  0  0  0
   40.3350   30.8710   37.8510 C   0  0  0  0  0  0  0  0  0  0  0  0
   41.0050   32.0680   37.2370 C   0  0  0  0  0  0  0  0  0  0  0  0
   40.9020   33.1050   38.2960 C   0  0  0  0  0  0  0  0  0  0  0  0
   39.6510   32.8070   39.0330 C   0  0  0  0  0  0  0  0  0  0  0  0
   36.0690   30.7930   41.8730 H   0  0  0  0  0  0  0  0  0  0  0  0
   39.8230   30.2180   37.1200 H   0  0  0  0  0  0  0  0  0  0  0  0
   41.0640   30.3070   38.4730 H   0  0  0  0  0  0  0  0  0  0  0  0
   40.5630   32.3430   36.2570 H   0  0  0  0  0  0  0  0  0  0  0  0
   42.0850   31.8140   37.0860 H   0  0  0  0  0  0  0  0  0  0  0  0
   40.8280   34.1040   37.7910 H   0  0  0  0  0  0  0  0  0  0  0  0
   41.8200   33.1650   38.9050 H   0  0  0  0  0  0  0  0  0  0  0  0
   39.9210   33.0150   40.1100 H   0  0  0  0  0  0  0  0  0  0  0  0
   38.8460   33.4670   38.6580 H   0  0  0  0  0  0  0  0  0  0  0  0
   37.7670   32.5010   40.9290 N   0  0  0  0  0  0  0  0  0  0  0  0
   38.3540   32.3700   41.8040 H   0  0  0  0  0  0  0  0  0  0  0  0
   37.4050   33.4110   40.5700 H   0  0  0  0  0  0  0  0  0  0  0  0
   33.2630   29.3100   35.0520 C   0  0  0  0  0  3  0  0  0  0  0  0
   33.1610   28.8070   36.3320 C   0  0  0  0  0  0  0  0  0  0  0  0
   32.1780   29.3710   37.1190 C   0  0  0  0  0  0  0  0  0  0  0  0
   32.0140   29.0490   38.1380 H   0  0  0  0  0  0  0  0  0  0  0  0
   31.3150   30.3800   36.7160 C   0  0  0  0  0  0  0  0  0  0  0  0
   30.3240   31.0590   37.2740 N   0  0  0  0  0  0  0  0  0  0  0  0
   29.9630   30.9470   38.2440 H   0  0  0  0  0  0  0  0  0  0  0  0
   29.8200   31.9500   36.3950 C   0  0  0  0  0  0  0  0  0  0  0  0
   29.0080   32.6610   36.5220 H   0  0  0  0  0  0  0  0  0  0  0  0
   30.5140   31.8570   35.1880 C   0  0  0  0  0  3  0  0  0  0  0  0
   31.4420   30.8660   35.4240 C   0  0  0  0  0  0  0  0  0  0  0  0
   32.4200   30.3120   34.6240 C   0  0  0  0  0  3  0  0  0  0  0  0
   35.3070   29.3360   37.9860 N   0  0  0  0  0  0  0  0  0  0  0  0
   35.0470   30.0820   38.6550 H   0  0  0  0  0  0  0  0  0  0  0  0
   35.9420   29.5630   37.1660 H   0  0  0  0  0  0  0  0  0  0  0  0
  1 18  1  0  0  0  0
  1  2  1  0  0  0  0
  3  2  2  0  0  0  0
  3 11  1  0  0  0  0
  4  3  1  0  0  0  0
  5 10  1  0  0  0  0
  5  4  2  0  0  0  0
  6  5  1  0  0  0  0
  7  8  1  0  0  0  0
  7  6  2  0  0  0  0
  8  9  2  0  0  0  0
  9 49  1  0  0  0  0
  9 10  1  0  0  0  0
 10  1  2  0  0  0  0
 12  6  1  0  0  0  0
 13  7  1  0  0  0  0
 14 25  1  0  0  0  0
 15 34  1  0  0  0  0
 15 14  2  0  0  0  0
 16 15  1  0  0  0  0
 17 16  2  0  0  0  0
 17 18  1  0  0  0  0
 18 19  2  0  0  0  0
 19 14  1  0  0  0  0
 20 24  1  0  0  0  0
 20 16  1  0  0  0  0
 21 27  1  0  0  0  0
 21 20  1  0  0  0  0
 22 21  1  0  0  0  0
 22 23  1  0  0  0  0
 23 31  1  0  0  0  0
 23 24  1  0  0  0  0
 24 32  1  0  0  0  0
 26 21  1  0  0  0  0
 28 22  1  0  0  0  0
 29 22  1  0  0  0  0
 30 23  1  0  0  0  0
 33 24  1  0  0  0  0
 34 35  1  0  0  0  0
 36 34  1  0  0  0  0
 37 38  1  0  0  0  0
 38  8  1  0  0  0  0
 38 39  2  0  0  0  0
 39 40  1  0  0  0  0
 41 39  1  0  0  0  0
 41 42  1  0  0  0  0
 42 43  1  0  0  0  0
 44 45  1  0  0  0  0
 44 42  1  0  0  0  0
 46 47  1  0  0  0  0
 46 44  2  0  0  0  0
 47 41  2  0  0  0  0
 48 37  2  0  0  0  0
 48 47  1  0  0  0  0
 49 50  1  0  0  0  0
 51 49  1  0  0  0  0
M  END
>  <minimizedAffinity>
-6.82877398

$$$$

 OpenBabel03252502103D

 51 56  0  0  0  0  0  0  0  0999 V2000
   37.8090   26.6750   41.7430 C   0  0  0  0  0  0  0  0  0  0  0  0
   38.3730   26.8400   42.9400 N   0  0  0  0  0  0  0  0  0  0  0  0
   38.3420   27.9540   43.6550 C   0  0  0  0  0  0  0  0  0  0  0  0
   37.6980   29.0470   43.1790 N   0  0  0  0  0  0  0  0  0  0  0  0
   37.0880   29.0110   41.9820 C   0  0  0  0  0  0  0  0  0  0  0  0
   36.4450   30.1220   41.4800 C   0  0  0  0  0  0  0  0  0  0  0  0
   35.8410   30.1090   40.2630 C   0  0  0  0  0  0  0  0  0  0  0  0
   35.8930   28.9420   39.5480 C   0  0  0  0  0  0  0  0  0  0  0  0
   36.5500   27.8410   40.0900 C   0  0  0  0  0  0  0  0  0  0  0  0
   37.1620   27.8190   41.2930 C   0  0  0  0  0  0  0  0  0  0  0  0
   38.8380   27.9770   44.6230 H   0  0  0  0  0  0  0  0  0  0  0  0
   36.4350   31.0160   42.0900 H   0  0  0  0  0  0  0  0  0  0  0  0
   35.3580   31.0130   39.9350 H   0  0  0  0  0  0  0  0  0  0  0  0
   36.6290   23.4320   40.6640 C   0  0  0  0  0  0  0  0  0  0  0  0
   37.5860   22.9400   39.7690 C   0  0  0  0  0  0  0  0  0  0  0  0
   38.6590   23.7510   39.5180 C   0  0  0  0  0  0  0  0  0  0  0  0
   38.7570   24.9350   40.1140 N   0  0  0  0  0  0  0  0  0  0  0  0
   37.8600   25.4140   40.9670 C   0  0  0  0  0  0  0  0  0  0  0  0
   36.7970   24.6370   41.2250 N   0  0  0  0  0  0  0  0  0  0  0  0
   39.6260   23.3400   38.6280 N   0  0  0  0  0  0  0  0  0  0  0  0
   40.7320   24.2070   38.1320 C   0  0  0  0  0  0  0  0  0  0  0  0
   41.7000   23.2810   37.4500 C   0  0  0  0  0  0  0  0  0  0  0  0
   40.8450   22.1480   37.0110 C   0  0  0  0  0  0  0  0  0  0  0  0
   39.7570   22.0520   38.0120 C   0  0  0  0  0  0  0  0  0  0  0  0
   35.7490   22.8200   40.8950 H   0  0  0  0  0  0  0  0  0  0  0  0
   41.1750   24.7850   38.9650 H   0  0  0  0  0  0  0  0  0  0  0  0
   40.2460   24.8670   37.3810 H   0  0  0  0  0  0  0  0  0  0  0  0
   42.5540   23.0070   38.1020 H   0  0  0  0  0  0  0  0  0  0  0  0
   42.0940   23.8080   36.5430 H   0  0  0  0  0  0  0  0  0  0  0  0
   41.4730   21.2190   37.0290 H   0  0  0  0  0  0  0  0  0  0  0  0
   40.5280   22.2540   35.9590 H   0  0  0  0  0  0  0  0  0  0  0  0
   38.8450   21.8080   37.3910 H   0  0  0  0  0  0  0  0  0  0  0  0
   40.0050   21.2560   38.7390 H   0  0  0  0  0  0  0  0  0  0  0  0
   37.3950   21.6890   39.2510 N   0  0  0  0  0  0  0  0  0  0  0  0
   36.7040   21.8700   38.4660 H   0  0  0  0  0  0  0  0  0  0  0  0
   37.7920   20.7600   39.5100 H   0  0  0  0  0  0  0  0  0  0  0  0
   35.8040   29.1470   36.9970 C   0  0  0  0  0  3  0  0  0  0  0  0
   35.2370   28.9850   38.2440 C   0  0  0  0  0  0  0  0  0  0  0  0
   33.8650   28.8330   38.2590 C   0  0  0  0  0  0  0  0  0  0  0  0
   33.3210   28.7000   39.1850 H   0  0  0  0  0  0  0  0  0  0  0  0
   33.0490   28.8360   37.1380 C   0  0  0  0  0  0  0  0  0  0  0  0
   31.7500   28.7130   36.9100 N   0  0  0  0  0  0  0  0  0  0  0  0
   31.0040   28.5740   37.6230 H   0  0  0  0  0  0  0  0  0  0  0  0
   31.5010   28.7930   35.5860 C   0  0  0  0  0  0  0  0  0  0  0  0
   30.5540   28.7330   35.0570 H   0  0  0  0  0  0  0  0  0  0  0  0
   32.7010   28.9800   34.8980 C   0  0  0  0  0  3  0  0  0  0  0  0
   33.6480   29.0020   35.8980 C   0  0  0  0  0  0  0  0  0  0  0  0
   35.0190   29.1540   35.8650 C   0  0  0  0  0  3  0  0  0  0  0  0
   36.4680   26.7150   39.2170 N   0  0  0  0  0  0  0  0  0  0  0  0
   37.0540   26.2980   38.4730 H   0  0  0  0  0  0  0  0  0  0  0  0
   35.5410   26.2640   39.4710 H   0  0  0  0  0  0  0  0  0  0  0  0
  1  2  1  0  0  0  0
  2  3  2  0  0  0  0
  3 11  1  0  0  0  0
  4  3  1  0  0  0  0
  5  4  2  0  0  0  0
  6  5  1  0  0  0  0
  6 12  1  0  0  0  0
  7  6  2  0  0  0  0
  8  9  2  0  0  0  0
  8  7  1  0  0  0  0
  9 10  1  0  0  0  0
 10  1  2  0  0  0  0
 10  5  1  0  0  0  0
 13  7  1  0  0  0  0
 14 25  1  0  0  0  0
 14 19  1  0  0  0  0
 15 14  2  0  0  0  0
 16 15  1  0  0  0  0
 16 17  2  0  0  0  0
 17 18  1  0  0  0  0
 18 19  2  0  0  0  0
 18  1  1  0  0  0  0
 20 16  1  0  0  0  0
 21 20  1  0  0  0  0
 21 26  1  0  0  0  0
 22 28  1  0  0  0  0
 22 21  1  0  0  0  0
 23 30  1  0  0  0  0
 23 22  1  0  0  0  0
 23 24  1  0  0  0  0
 24 20  1  0  0  0  0
 24 33  1  0  0  0  0
 27 21  1  0  0  0  0
 29 22  1  0  0  0  0
 31 23  1  0  0  0  0
 32 24  1  0  0  0  0
 34 36  1  0  0  0  0
 34 15  1  0  0  0  0
 35 34  1  0  0  0  0
 37 38  1  0  0  0  0
 38 39  2  0  0  0  0
 38  8  1  0  0  0  0
 39 40  1  0  0  0  0
 41 39  1  0  0  0  0
 42 41  1  0  0  0  0
 42 43  1  0  0  0  0
 44 42  1  0  0  0  0
 45 44  1  0  0  0  0
 46 44  2  0  0  0  0
 46 47  1  0  0  0  0
 47 41  2  0  0  0  0
 48 47  1  0  0  0  0
 48 37  2  0  0  0  0
 49 51  1  0  0  0  0
 49  9  1  0  0  0  0
 50 49  1  0  0  0  0
M  END
>  <minimizedAffinity>
-6.80506134

$$$$

 OpenBabel03252502103D

 51 56  0  0  0  0  0  0  0  0999 V2000
   40.8290   28.4360   42.2190 C   0  0  0  0  0  0  0  0  0  0  0  0
   41.6420   27.9620   43.1620 N   0  0  0  0  0  0  0  0  0  0  0  0
   41.3260   27.0370   44.0550 C   0  0  0  0  0  0  0  0  0  0  0  0
   40.0850   26.4930   44.0550 N   0  0  0  0  0  0  0  0  0  0  0  0
   39.1680   26.8860   43.1530 C   0  0  0  0  0  0  0  0  0  0  0  0
   37.8980   26.3520   43.1550 C   0  0  0  0  0  0  0  0  0  0  0  0
   36.9530   26.7520   42.2640 C   0  0  0  0  0  0  0  0  0  0  0  0
   37.3130   27.7120   41.3550 C   0  0  0  0  0  0  0  0  0  0  0  0
   38.6070   28.2250   41.3850 C   0  0  0  0  0  0  0  0  0  0  0  0
   39.5680   27.8530   42.2550 C   0  0  0  0  0  0  0  0  0  0  0  0
   42.0710   26.7230   44.7820 H   0  0  0  0  0  0  0  0  0  0  0  0
   37.6710   25.5960   43.8940 H   0  0  0  0  0  0  0  0  0  0  0  0
   35.9820   26.2920   42.3230 H   0  0  0  0  0  0  0  0  0  0  0  0
   41.2500   31.8120   40.9940 C   0  0  0  0  0  0  0  0  0  0  0  0
   41.7480   31.7010   39.6910 C   0  0  0  0  0  0  0  0  0  0  0  0
   41.9580   30.4330   39.2250 C   0  0  0  0  0  0  0  0  0  0  0  0
   41.6890   29.3830   39.9950 N   0  0  0  0  0  0  0  0  0  0  0  0
   41.2140   29.4720   41.2320 C   0  0  0  0  0  0  0  0  0  0  0  0
   41.0040   30.7070   41.7100 N   0  0  0  0  0  0  0  0  0  0  0  0
   42.4700   30.2510   37.9600 N   0  0  0  0  0  0  0  0  0  0  0  0
   42.9170   28.9370   37.4160 C   0  0  0  0  0  0  0  0  0  0  0  0
   43.0980   29.1480   35.9390 C   0  0  0  0  0  0  0  0  0  0  0  0
   43.4020   30.5980   35.8300 C   0  0  0  0  0  0  0  0  0  0  0  0
   42.6800   31.2470   36.9500 C   0  0  0  0  0  0  0  0  0  0  0  0
   41.0690   32.8080   41.4140 H   0  0  0  0  0  0  0  0  0  0  0  0
   42.1890   28.1440   37.6710 H   0  0  0  0  0  0  0  0  0  0  0  0
   43.9040   28.7640   37.8980 H   0  0  0  0  0  0  0  0  0  0  0  0
   42.2230   28.8000   35.3520 H   0  0  0  0  0  0  0  0  0  0  0  0
   44.0000   28.5660   35.6200 H   0  0  0  0  0  0  0  0  0  0  0  0
   43.0010   30.9590   34.8470 H   0  0  0  0  0  0  0  0  0  0  0  0
   44.4880   30.7890   35.7790 H   0  0  0  0  0  0  0  0  0  0  0  0
   43.4010   32.0390   37.3090 H   0  0  0  0  0  0  0  0  0  0  0  0
   41.7320   31.6720   36.5690 H   0  0  0  0  0  0  0  0  0  0  0  0
   41.9460   32.8530   38.9810 N   0  0  0  0  0  0  0  0  0  0  0  0
   42.8850   33.1870   39.3480 H   0  0  0  0  0  0  0  0  0  0  0  0
   41.3700   33.3330   38.2570 H   0  0  0  0  0  0  0  0  0  0  0  0
   35.3080   29.1020   40.5750 C   0  0  0  0  0  3  0  0  0  0  0  0
   36.2590   28.1130   40.4270 C   0  0  0  0  0  0  0  0  0  0  0  0
   36.2130   27.4150   39.2370 C   0  0  0  0  0  0  0  0  0  0  0  0
   36.9130   26.6190   39.0200 H   0  0  0  0  0  0  0  0  0  0  0  0
   35.3000   27.6370   38.2160 C   0  0  0  0  0  0  0  0  0  0  0  0
   35.0660   27.1120   37.0230 N   0  0  0  0  0  0  0  0  0  0  0  0
   35.5920   26.3350   36.5720 H   0  0  0  0  0  0  0  0  0  0  0  0
   34.0200   27.7340   36.4400 C   0  0  0  0  0  0  0  0  0  0  0  0
   33.5650   27.5560   35.4690 H   0  0  0  0  0  0  0  0  0  0  0  0
   33.5330   28.7240   37.2930 C   0  0  0  0  0  3  0  0  0  0  0  0
   34.3560   28.6370   38.3950 C   0  0  0  0  0  0  0  0  0  0  0  0
   34.3890   29.3450   39.5780 C   0  0  0  0  0  3  0  0  0  0  0  0
   38.8010   29.1840   40.3460 N   0  0  0  0  0  0  0  0  0  0  0  0
   38.7360   30.2130   40.2510 H   0  0  0  0  0  0  0  0  0  0  0  0
   39.0720   28.5950   39.5050 H   0  0  0  0  0  0  0  0  0  0  0  0
  1 10  2  0  0  0  0
  1  2  1  0  0  0  0
  2  3  2  0  0  0  0
  3 11  1  0  0  0  0
  4  3  1  0  0  0  0
  5  6  1  0  0  0  0
  5  4  2  0  0  0  0
  6 12  1  0  0  0  0
  7 13  1  0  0  0  0
  7  6  2  0  0  0  0
  8  9  2  0  0  0  0
  8  7  1  0  0  0  0
  9 10  1  0  0  0  0
 10  5  1  0  0  0  0
 14 25  1  0  0  0  0
 14 19  1  0  0  0  0
 15 14  2  0  0  0  0
 16 15  1  0  0  0  0
 16 17  2  0  0  0  0
 17 18  1  0  0  0  0
 18 19  2  0  0  0  0
 18  1  1  0  0  0  0
 20 16  1  0  0  0  0
 21 26  1  0  0  0  0
 21 27  1  0  0  0  0
 21 20  1  0  0  0  0
 22 21  1  0  0  0  0
 23 22  1  0  0  0  0
 23 24  1  0  0  0  0
 24 32  1  0  0  0  0
 24 20  1  0  0  0  0
 28 22  1  0  0  0  0
 29 22  1  0  0  0  0
 30 23  1  0  0  0  0
 31 23  1  0  0  0  0
 33 24  1  0  0  0  0
 34 35  1  0  0  0  0
 34 15  1  0  0  0  0
 36 34  1  0  0  0  0
 38 37  1  0  0  0  0
 38  8  1  0  0  0  0
 39 38  2  0  0  0  0
 40 39  1  0  0  0  0
 41 47  2  0  0  0  0
 41 39  1  0  0  0  0
 42 41  1  0  0  0  0
 43 42  1  0  0  0  0
 44 42  1  0  0  0  0
 44 46  2  0  0  0  0
 45 44  1  0  0  0  0
 46 47  1  0  0  0  0
 47 48  1  0  0  0  0
 48 37  2  0  0  0  0
 49  9  1  0  0  0  0
 50 49  1  0  0  0  0
 51 49  1  0  0  0  0
M  END
>  <minimizedAffinity>
-6.80350494

$$$$

 OpenBabel03252502103D

 51 56  0  0  0  0  0  0  0  0999 V2000
   36.2240   27.5220   38.7580 C   0  0  0  0  0  0  0  0  0  0  0  0
   35.2450   27.2650   37.8900 N   0  0  0  0  0  0  0  0  0  0  0  0
   34.8320   26.0590   37.5350 C   0  0  0  0  0  0  0  0  0  0  0  0
   35.4170   24.9590   38.0670 N   0  0  0  0  0  0  0  0  0  0  0  0
   36.4180   25.0820   38.9550 C   0  0  0  0  0  0  0  0  0  0  0  0
   37.0320   23.9690   39.4900 C   0  0  0  0  0  0  0  0  0  0  0  0
   38.0580   24.0750   40.3740 C   0  0  0  0  0  0  0  0  0  0  0  0
   38.4630   25.3380   40.7180 C   0  0  0  0  0  0  0  0  0  0  0  0
   37.8170   26.4350   40.1580 C   0  0  0  0  0  0  0  0  0  0  0  0
   36.7960   26.3680   39.2770 C   0  0  0  0  0  0  0  0  0  0  0  0
   34.0210   25.9650   36.8150 H   0  0  0  0  0  0  0  0  0  0  0  0
   36.6690   22.9970   39.1820 H   0  0  0  0  0  0  0  0  0  0  0  0
   38.4910   23.1640   40.7500 H   0  0  0  0  0  0  0  0  0  0  0  0
   35.9980   30.6820   40.5010 C   0  0  0  0  0  0  0  0  0  0  0  0
   37.0840   31.4500   40.0700 C   0  0  0  0  0  0  0  0  0  0  0  0
   37.9250   30.8630   39.1650 C   0  0  0  0  0  0  0  0  0  0  0  0
   37.6910   29.6260   38.7380 N   0  0  0  0  0  0  0  0  0  0  0  0
   36.6640   28.8860   39.1360 C   0  0  0  0  0  0  0  0  0  0  0  0
   35.8280   29.4410   40.0250 N   0  0  0  0  0  0  0  0  0  0  0  0
   39.0280   31.5540   38.7170 N   0  0  0  0  0  0  0  0  0  0  0  0
   40.1120   30.9570   37.8860 C   0  0  0  0  0  0  0  0  0  0  0  0
   40.9230   32.1170   37.3800 C   0  0  0  0  0  0  0  0  0  0  0  0
   40.7140   33.1640   38.4130 C   0  0  0  0  0  0  0  0  0  0  0  0
   39.3540   32.9310   38.9550 C   0  0  0  0  0  0  0  0  0  0  0  0
   35.2970   31.1070   41.2290 H   0  0  0  0  0  0  0  0  0  0  0  0
   39.6830   30.3250   37.0860 H   0  0  0  0  0  0  0  0  0  0  0  0
   40.7130   30.3620   38.6080 H   0  0  0  0  0  0  0  0  0  0  0  0
   40.6450   32.4070   36.3460 H   0  0  0  0  0  0  0  0  0  0  0  0
   42.0000   31.8100   37.3900 H   0  0  0  0  0  0  0  0  0  0  0  0
   40.7630   34.1620   37.9030 H   0  0  0  0  0  0  0  0  0  0  0  0
   41.5330   33.1830   39.1520 H   0  0  0  0  0  0  0  0  0  0  0  0
   39.4700   33.1310   40.0610 H   0  0  0  0  0  0  0  0  0  0  0  0
   38.6470   33.6260   38.4660 H   0  0  0  0  0  0  0  0  0  0  0  0
   37.1960   32.7260   40.5500 N   0  0  0  0  0  0  0  0  0  0  0  0
   37.6400   32.5720   41.5020 H   0  0  0  0  0  0  0  0  0  0  0  0
   36.9360   33.6500   40.1420 H   0  0  0  0  0  0  0  0  0  0  0  0
   39.5360   25.4800   43.0400 C   0  0  0  0  0  3  0  0  0  0  0  0
   39.5760   25.3950   41.6630 C   0  0  0  0  0  0  0  0  0  0  0  0
   40.8370   25.3510   41.1050 C   0  0  0  0  0  0  0  0  0  0  0  0
   40.9800   25.2850   40.0350 H   0  0  0  0  0  0  0  0  0  0  0  0
   42.0270   25.3860   41.8170 C   0  0  0  0  0  0  0  0  0  0  0  0
   43.3150   25.3570   41.5130 N   0  0  0  0  0  0  0  0  0  0  0  0
   43.7270   25.2960   40.5580 H   0  0  0  0  0  0  0  0  0  0  0  0
   44.0600   25.4210   42.6370 C   0  0  0  0  0  0  0  0  0  0  0  0
   45.1400   25.4200   42.7500 H   0  0  0  0  0  0  0  0  0  0  0  0
   43.2180   25.4960   43.7470 C   0  0  0  0  0  3  0  0  0  0  0  0
   41.9550   25.4720   43.1990 C   0  0  0  0  0  0  0  0  0  0  0  0
   40.7010   25.5160   43.7740 C   0  0  0  0  0  3  0  0  0  0  0  0
   38.3530   27.6580   40.6620 N   0  0  0  0  0  0  0  0  0  0  0  0
   39.0780   28.3370   40.3700 H   0  0  0  0  0  0  0  0  0  0  0  0
   37.8130   27.8210   41.5620 H   0  0  0  0  0  0  0  0  0  0  0  0
  1 18  1  0  0  0  0
  1 10  1  0  0  0  0
  2  1  2  0  0  0  0
  3  2  1  0  0  0  0
  3  4  2  0  0  0  0
  4  5  1  0  0  0  0
  5 10  2  0  0  0  0
  5  6  1  0  0  0  0
  6  7  2  0  0  0  0
  7  8  1  0  0  0  0
  7 13  1  0  0  0  0
  8 38  1  0  0  0  0
  9 49  1  0  0  0  0
  9  8  2  0  0  0  0
 10  9  1  0  0  0  0
 11  3  1  0  0  0  0
 12  6  1  0  0  0  0
 14 25  1  0  0  0  0
 15 14  1  0  0  0  0
 15 34  1  0  0  0  0
 16 15  2  0  0  0  0
 17 18  2  0  0  0  0
 17 16  1  0  0  0  0
 18 19  1  0  0  0  0
 19 14  2  0  0  0  0
 20 24  1  0  0  0  0
 20 16  1  0  0  0  0
 21 27  1  0  0  0  0
 21 20  1  0  0  0  0
 22 29  1  0  0  0  0
 22 21  1  0  0  0  0
 22 23  1  0  0  0  0
 23 24  1  0  0  0  0
 23 31  1  0  0  0  0
 24 32  1  0  0  0  0
 26 21  1  0  0  0  0
 28 22  1  0  0  0  0
 30 23  1  0  0  0  0
 33 24  1  0  0  0  0
 34 35  1  0  0  0  0
 36 34  1  0  0  0  0
 37 48  1  0  0  0  0
 38 37  2  0  0  0  0
 39 38  1  0  0  0  0
 39 41  2  0  0  0  0
 40 39  1  0  0  0  0
 41 47  1  0  0  0  0
 42 41  1  0  0  0  0
 42 44  1  0  0  0  0
 43 42  1  0  0  0  0
 44 45  1  0  0  0  0
 44 46  2  0  0  0  0
 47 46  1  0  0  0  0
 47 48  2  0  0  0  0
 49 51  1  0  0  0  0
 50 49  1  0  0  0  0
M  END
>  <minimizedAffinity>
-6.76146555

$$$$

 OpenBabel03252502103D

 51 56  0  0  0  0  0  0  0  0999 V2000
   41.0740   28.2040   41.7310 C   0  0  0  0  0  0  0  0  0  0  0  0
   41.9060   27.8540   42.7130 N   0  0  0  0  0  0  0  0  0  0  0  0
   41.5580   27.2300   43.8270 C   0  0  0  0  0  0  0  0  0  0  0  0
   40.2630   26.8940   44.0390 N   0  0  0  0  0  0  0  0  0  0  0  0
   39.3230   27.1910   43.1250 C   0  0  0  0  0  0  0  0  0  0  0  0
   38.0000   26.8700   43.3390 C   0  0  0  0  0  0  0  0  0  0  0  0
   37.0340   27.1800   42.4340 C   0  0  0  0  0  0  0  0  0  0  0  0
   37.4270   27.8290   41.2930 C   0  0  0  0  0  0  0  0  0  0  0  0
   38.7730   28.1340   41.1140 C   0  0  0  0  0  0  0  0  0  0  0  0
   39.7580   27.8420   41.9900 C   0  0  0  0  0  0  0  0  0  0  0  0
   42.3230   26.9920   44.5640 H   0  0  0  0  0  0  0  0  0  0  0  0
   37.7480   26.3570   44.2570 H   0  0  0  0  0  0  0  0  0  0  0  0
   36.0220   26.9000   42.6670 H   0  0  0  0  0  0  0  0  0  0  0  0
   42.3820   28.4270   38.3680 C   0  0  0  0  0  0  0  0  0  0  0  0
   42.4240   29.7880   38.0490 C   0  0  0  0  0  0  0  0  0  0  0  0
   41.9780   30.6540   39.0100 C   0  0  0  0  0  0  0  0  0  0  0  0
   41.5380   30.1900   40.1760 N   0  0  0  0  0  0  0  0  0  0  0  0
   41.4940   28.9020   40.4940 C   0  0  0  0  0  0  0  0  0  0  0  0
   41.9240   28.0360   39.5650 N   0  0  0  0  0  0  0  0  0  0  0  0
   41.9670   32.0060   38.7540 N   0  0  0  0  0  0  0  0  0  0  0  0
   41.3330   33.0230   39.6390 C   0  0  0  0  0  0  0  0  0  0  0  0
   41.8250   34.3550   39.1470 C   0  0  0  0  0  0  0  0  0  0  0  0
   42.1210   34.1070   37.7120 C   0  0  0  0  0  0  0  0  0  0  0  0
   42.5320   32.6860   37.6240 C   0  0  0  0  0  0  0  0  0  0  0  0
   42.7260   27.6940   37.6290 H   0  0  0  0  0  0  0  0  0  0  0  0
   41.5740   32.8190   40.6990 H   0  0  0  0  0  0  0  0  0  0  0  0
   40.2450   32.9230   39.4340 H   0  0  0  0  0  0  0  0  0  0  0  0
   42.6750   34.7400   39.7480 H   0  0  0  0  0  0  0  0  0  0  0  0
   40.9750   35.0810   39.2200 H   0  0  0  0  0  0  0  0  0  0  0  0
   42.9710   34.7770   37.4170 H   0  0  0  0  0  0  0  0  0  0  0  0
   41.2830   34.4110   37.0610 H   0  0  0  0  0  0  0  0  0  0  0  0
   42.0580   32.3310   36.6620 H   0  0  0  0  0  0  0  0  0  0  0  0
   43.6360   32.6310   37.6030 H   0  0  0  0  0  0  0  0  0  0  0  0
   42.9370   30.1460   36.8330 N   0  0  0  0  0  0  0  0  0  0  0  0
   42.1130   29.9840   36.1820 H   0  0  0  0  0  0  0  0  0  0  0  0
   43.8780   30.4940   36.5480 H   0  0  0  0  0  0  0  0  0  0  0  0
   35.4220   29.1670   40.4280 C   0  0  0  0  0  3  0  0  0  0  0  0
   36.3500   28.1480   40.3600 C   0  0  0  0  0  0  0  0  0  0  0  0
   36.2520   27.3250   39.2560 C   0  0  0  0  0  0  0  0  0  0  0  0
   36.9310   26.4960   39.1060 H   0  0  0  0  0  0  0  0  0  0  0  0
   35.3100   27.4530   38.2460 C   0  0  0  0  0  0  0  0  0  0  0  0
   35.0280   26.8070   37.1250 N   0  0  0  0  0  0  0  0  0  0  0  0
   35.5250   25.9740   36.7460 H   0  0  0  0  0  0  0  0  0  0  0  0
   33.9740   27.3830   36.5100 C   0  0  0  0  0  0  0  0  0  0  0  0
   33.4840   27.1100   35.5790 H   0  0  0  0  0  0  0  0  0  0  0  0
   33.5330   28.4710   37.2640 C   0  0  0  0  0  3  0  0  0  0  0  0
   34.3900   28.4860   38.3420 C   0  0  0  0  0  0  0  0  0  0  0  0
   34.4750   29.3190   39.4400 C   0  0  0  0  0  3  0  0  0  0  0  0
   38.9900   28.7740   39.8570 N   0  0  0  0  0  0  0  0  0  0  0  0
   39.0510   29.7480   39.5110 H   0  0  0  0  0  0  0  0  0  0  0  0
   39.1010   27.9670   39.1770 H   0  0  0  0  0  0  0  0  0  0  0  0
  1 10  2  0  0  0  0
  1  2  1  0  0  0  0
  2  3  2  0  0  0  0
  3  4  1  0  0  0  0
  3 11  1  0  0  0  0
  5  6  1  0  0  0  0
  5  4  2  0  0  0  0
  6 12  1  0  0  0  0
  7 13  1  0  0  0  0
  7  6  2  0  0  0  0
  8  7  1  0  0  0  0
  9  8  2  0  0  0  0
  9 10  1  0  0  0  0
 10  5  1  0  0  0  0
 14 19  1  0  0  0  0
 15 14  2  0  0  0  0
 15 16  1  0  0  0  0
 16 17  2  0  0  0  0
 17 18  1  0  0  0  0
 18  1  1  0  0  0  0
 19 18  2  0  0  0  0
 20 16  1  0  0  0  0
 20 21  1  0  0  0  0
 21 26  1  0  0  0  0
 22 29  1  0  0  0  0
 22 21  1  0  0  0  0
 22 28  1  0  0  0  0
 23 22  1  0  0  0  0
 24 23  1  0  0  0  0
 24 20  1  0  0  0  0
 25 14  1  0  0  0  0
 27 21  1  0  0  0  0
 30 23  1  0  0  0  0
 31 23  1  0  0  0  0
 32 24  1  0  0  0  0
 33 24  1  0  0  0  0
 34 15  1  0  0  0  0
 35 34  1  0  0  0  0
 36 34  1  0  0  0  0
 38 37  1  0  0  0  0
 38  8  1  0  0  0  0
 39 38  2  0  0  0  0
 40 39  1  0  0  0  0
 41 47  2  0  0  0  0
 41 39  1  0  0  0  0
 42 41  1  0  0  0  0
 43 42  1  0  0  0  0
 44 42  1  0  0  0  0
 44 46  2  0  0  0  0
 45 44  1  0  0  0  0
 46 47  1  0  0  0  0
 47 48  1  0  0  0  0
 48 37  2  0  0  0  0
 49  9  1  0  0  0  0
 50 49  1  0  0  0  0
 51 49  1  0  0  0  0
M  END
>  <minimizedAffinity>
-6.64380169

$$$$

 OpenBabel03252502103D

 51 56  0  0  0  0  0  0  0  0999 V2000
   37.0700   26.4280   39.4780 C   0  0  0  0  0  0  0  0  0  0  0  0
   36.3700   25.4180   38.9640 N   0  0  0  0  0  0  0  0  0  0  0  0
   35.4740   25.5190   37.9950 C   0  0  0  0  0  0  0  0  0  0  0  0
   35.2070   26.7280   37.4440 N   0  0  0  0  0  0  0  0  0  0  0  0
   35.8460   27.8300   37.8740 C   0  0  0  0  0  0  0  0  0  0  0  0
   35.5700   29.0660   37.3320 C   0  0  0  0  0  0  0  0  0  0  0  0
   36.1920   30.1930   37.7690 C   0  0  0  0  0  0  0  0  0  0  0  0
   37.1120   30.0530   38.7750 C   0  0  0  0  0  0  0  0  0  0  0  0
   37.3640   28.7860   39.2940 C   0  0  0  0  0  0  0  0  0  0  0  0
   36.7650   27.6480   38.8860 C   0  0  0  0  0  0  0  0  0  0  0  0
   34.9590   24.6250   37.6500 H   0  0  0  0  0  0  0  0  0  0  0  0
   34.8350   29.1160   36.5400 H   0  0  0  0  0  0  0  0  0  0  0  0
   35.9270   31.1250   37.3010 H   0  0  0  0  0  0  0  0  0  0  0  0
   38.1920   26.2800   42.9120 C   0  0  0  0  0  0  0  0  0  0  0  0
   39.5800   26.1120   42.8680 C   0  0  0  0  0  0  0  0  0  0  0  0
   40.1460   26.0350   41.6250 C   0  0  0  0  0  0  0  0  0  0  0  0
   39.3860   26.1210   40.5370 N   0  0  0  0  0  0  0  0  0  0  0  0
   38.0680   26.2820   40.5630 C   0  0  0  0  0  0  0  0  0  0  0  0
   37.4930   26.3580   41.7720 N   0  0  0  0  0  0  0  0  0  0  0  0
   41.5040   25.8450   41.5080 N   0  0  0  0  0  0  0  0  0  0  0  0
   42.2040   25.5560   40.2240 C   0  0  0  0  0  0  0  0  0  0  0  0
   43.6690   25.7350   40.5100 C   0  0  0  0  0  0  0  0  0  0  0  0
   43.7760   25.4510   41.9640 C   0  0  0  0  0  0  0  0  0  0  0  0
   42.4840   25.8750   42.5550 C   0  0  0  0  0  0  0  0  0  0  0  0
   37.6920   26.3440   43.8860 H   0  0  0  0  0  0  0  0  0  0  0  0
   41.8200   26.2100   39.4180 H   0  0  0  0  0  0  0  0  0  0  0  0
   41.9840   24.4840   40.0290 H   0  0  0  0  0  0  0  0  0  0  0  0
   44.0430   26.7290   40.1900 H   0  0  0  0  0  0  0  0  0  0  0  0
   44.2250   24.9430   39.9460 H   0  0  0  0  0  0  0  0  0  0  0  0
   44.6140   26.0740   42.3730 H   0  0  0  0  0  0  0  0  0  0  0  0
   44.0780   24.4080   42.1590 H   0  0  0  0  0  0  0  0  0  0  0  0
   42.2710   25.0800   43.3290 H   0  0  0  0  0  0  0  0  0  0  0  0
   42.6040   26.8820   42.9970 H   0  0  0  0  0  0  0  0  0  0  0  0
   40.2590   26.0790   44.0550 N   0  0  0  0  0  0  0  0  0  0  0  0
   40.1140   25.0760   44.3720 H   0  0  0  0  0  0  0  0  0  0  0  0
   40.7980   26.8080   44.5700 H   0  0  0  0  0  0  0  0  0  0  0  0
   37.3280   32.1770   40.1890 C   0  0  0  0  0  3  0  0  0  0  0  0
   37.7440   31.2940   39.2140 C   0  0  0  0  0  0  0  0  0  0  0  0
   38.9200   31.6250   38.5730 C   0  0  0  0  0  0  0  0  0  0  0  0
   39.3350   31.0010   37.7920 H   0  0  0  0  0  0  0  0  0  0  0  0
   39.6840   32.7520   38.8380 C   0  0  0  0  0  0  0  0  0  0  0  0
   40.8120   33.2650   38.3700 N   0  0  0  0  0  0  0  0  0  0  0  0
   41.4110   32.8660   37.6180 H   0  0  0  0  0  0  0  0  0  0  0  0
   41.1010   34.4160   39.0120 C   0  0  0  0  0  0  0  0  0  0  0  0
   41.9430   35.0890   38.8790 H   0  0  0  0  0  0  0  0  0  0  0  0
   40.1100   34.6810   39.9590 C   0  0  0  0  0  3  0  0  0  0  0  0
   39.2400   33.6210   39.8230 C   0  0  0  0  0  0  0  0  0  0  0  0
   38.0660   33.3050   40.4740 C   0  0  0  0  0  3  0  0  0  0  0  0
   38.3720   28.8380   40.3030 N   0  0  0  0  0  0  0  0  0  0  0  0
   38.3980   28.9180   41.3350 H   0  0  0  0  0  0  0  0  0  0  0  0
   39.2810   28.7760   39.7580 H   0  0  0  0  0  0  0  0  0  0  0  0
  1 18  1  0  0  0  0
  2  1  1  0  0  0  0
  3  2  2  0  0  0  0
  4  5  2  0  0  0  0
  4  3  1  0  0  0  0
  5 10  1  0  0  0  0
  6  7  2  0  0  0  0
  6  5  1  0  0  0  0
  7  8  1  0  0  0  0
  8 38  1  0  0  0  0
  8  9  2  0  0  0  0
  9 49  1  0  0  0  0
 10  9  1  0  0  0  0
 10  1  2  0  0  0  0
 11  3  1  0  0  0  0
 12  6  1  0  0  0  0
 13  7  1  0  0  0  0
 14 25  1  0  0  0  0
 15 14  1  0  0  0  0
 15 34  1  0  0  0  0
 16 15  2  0  0  0  0
 17 18  2  0  0  0  0
 17 16  1  0  0  0  0
 18 19  1  0  0  0  0
 19 14  2  0  0  0  0
 20 16  1  0  0  0  0
 20 24  1  0  0  0  0
 21 22  1  0  0  0  0
 21 20  1  0  0  0  0
 22 23  1  0  0  0  0
 23 31  1  0  0  0  0
 23 30  1  0  0  0  0
 23 24  1  0  0  0  0
 24 33  1  0  0  0  0
 24 32  1  0  0  0  0
 26 21  1  0  0  0  0
 27 21  1  0  0  0  0
 28 22  1  0  0  0  0
 29 22  1  0  0  0  0
 34 35  1  0  0  0  0
 34 36  1  0  0  0  0
 37 48  1  0  0  0  0
 38 37  2  0  0  0  0
 39 41  2  0  0  0  0
 39 38  1  0  0  0  0
 40 39  1  0  0  0  0
 41 47  1  0  0  0  0
 42 41  1  0  0  0  0
 42 44  1  0  0  0  0
 43 42  1  0  0  0  0
 44 46  2  0  0  0  0
 45 44  1  0  0  0  0
 47 46  1  0  0  0  0
 47 48  2  0  0  0  0
 49 50  1  0  0  0  0
 51 49  1  0  0  0  0
M  END
>  <minimizedAffinity>
-6.64301348

$$$$
