
 OpenBabel03242513353D

 24 26  0  0  0  0  0  0  0  0999 V2000
   37.2910   26.2680   40.0470 C   0  0  0  0  0  0  0  0  0  0  0  0
   37.3300   25.7560   41.3460 C   0  0  0  0  0  0  0  0  0  0  0  0
   37.4680   26.6860   42.3860 C   0  0  0  0  0  0  0  0  0  0  0  0
   37.5560   28.0100   42.0830 N   0  0  0  0  0  0  0  0  0  0  0  0
   37.5130   28.4450   40.8090 C   0  0  0  0  0  0  0  0  0  0  0  0
   37.3800   27.5800   39.7790 N   0  0  0  0  0  0  0  0  0  0  0  0
   37.1850   25.6330   39.1690 H   0  0  0  0  0  0  0  0  0  0  0  0
   37.4970   26.2780   43.3890 H   0  0  0  0  0  0  0  0  0  0  0  0
   36.7680   30.4690   39.6200 C   0  0  0  0  0  3  0  0  0  0  0  0
   37.6110   29.8730   40.5370 C   0  0  0  0  0  0  0  0  0  0  0  0
   38.5500   30.6380   41.1970 C   0  0  0  0  0  0  0  0  0  0  0  0
   39.2280   30.2140   41.9220 H   0  0  0  0  0  0  0  0  0  0  0  0
   38.5920   31.9880   40.8930 C   0  0  0  0  0  0  0  0  0  0  0  0
   39.3800   32.9780   41.3600 N   0  0  0  0  0  0  0  0  0  0  0  0
   40.1500   32.9540   42.0660 H   0  0  0  0  0  0  0  0  0  0  0  0
   39.0590   34.1590   40.7690 C   0  0  0  0  0  0  0  0  0  0  0  0
   39.4960   35.1370   40.9200 H   0  0  0  0  0  0  0  0  0  0  0  0
   38.0390   33.9320   39.9000 C   0  0  0  0  0  3  0  0  0  0  0  0
   37.7430   32.5800   39.9720 C   0  0  0  0  0  0  0  0  0  0  0  0
   36.7970   31.8060   39.3080 C   0  0  0  0  0  3  0  0  0  0  0  0
   37.2220   24.2910   41.5130 C   0  0  0  0  0  0  0  0  0  0  0  0
   37.7510   24.0010   42.7560 F   0  0  0  0  0  0  0  0  0  0  0  0
   37.9730   23.6910   40.5280 F   0  0  0  0  0  0  0  0  0  0  0  0
   35.8800   23.9440   41.3990 F   0  0  0  0  0  0  0  0  0  0  0  0
  1  2  1  0  0  0  0
  2 21  1  0  0  0  0
  2  3  2  0  0  0  0
  3  8  1  0  0  0  0
  4  3  1  0  0  0  0
  5  4  2  0  0  0  0
  6  1  2  0  0  0  0
  6  5  1  0  0  0  0
  7  1  1  0  0  0  0
  9 10  1  0  0  0  0
 10  5  1  0  0  0  0
 10 11  2  0  0  0  0
 11 12  1  0  0  0  0
 13 11  1  0  0  0  0
 13 14  1  0  0  0  0
 14 15  1  0  0  0  0
 16 17  1  0  0  0  0
 16 14  1  0  0  0  0
 18 19  1  0  0  0  0
 18 16  2  0  0  0  0
 19 13  2  0  0  0  0
 20  9  2  0  0  0  0
 20 19  1  0  0  0  0
 21 22  1  0  0  0  0
 23 21  1  0  0  0  0
 24 21  1  0  0  0  0
M  END
>  <minimizedAffinity>
-5.43238258

$$$$

 OpenBabel03242513353D

 24 26  0  0  0  0  0  0  0  0999 V2000
   39.0970   31.3930   41.0800 C   0  0  0  0  0  0  0  0  0  0  0  0
   38.1180   32.1440   40.4280 C   0  0  0  0  0  0  0  0  0  0  0  0
   36.9380   31.4730   40.0760 C   0  0  0  0  0  0  0  0  0  0  0  0
   36.8110   30.1520   40.3800 N   0  0  0  0  0  0  0  0  0  0  0  0
   37.7930   29.4790   41.0110 C   0  0  0  0  0  0  0  0  0  0  0  0
   38.9440   30.0900   41.3670 N   0  0  0  0  0  0  0  0  0  0  0  0
   40.0480   31.8170   41.3970 H   0  0  0  0  0  0  0  0  0  0  0  0
   36.1850   32.0650   39.5710 H   0  0  0  0  0  0  0  0  0  0  0  0
   36.9860   27.6780   42.4840 C   0  0  0  0  0  3  0  0  0  0  0  0
   37.6090   28.0650   41.3150 C   0  0  0  0  0  0  0  0  0  0  0  0
   38.0600   27.1060   40.4310 C   0  0  0  0  0  0  0  0  0  0  0  0
   38.5520   27.3640   39.5060 H   0  0  0  0  0  0  0  0  0  0  0  0
   37.8550   25.7820   40.7790 C   0  0  0  0  0  0  0  0  0  0  0  0
   38.1730   24.6370   40.1390 N   0  0  0  0  0  0  0  0  0  0  0  0
   38.6540   24.4850   39.2240 H   0  0  0  0  0  0  0  0  0  0  0  0
   37.7720   23.5610   40.8650 C   0  0  0  0  0  0  0  0  0  0  0  0
   37.8760   22.5080   40.6360 H   0  0  0  0  0  0  0  0  0  0  0  0
   37.1800   24.0140   42.0010 C   0  0  0  0  0  3  0  0  0  0  0  0
   37.2280   25.3990   41.9530 C   0  0  0  0  0  0  0  0  0  0  0  0
   36.7750   26.3690   42.8420 C   0  0  0  0  0  3  0  0  0  0  0  0
   38.4030   33.5710   40.1670 C   0  0  0  0  0  0  0  0  0  0  0  0
   39.4370   33.6010   39.2530 F   0  0  0  0  0  0  0  0  0  0  0  0
   38.8000   34.1520   41.3500 F   0  0  0  0  0  0  0  0  0  0  0  0
   37.2370   34.1610   39.6890 F   0  0  0  0  0  0  0  0  0  0  0  0
  1  6  1  0  0  0  0
  1  7  1  0  0  0  0
  2  1  2  0  0  0  0
  3  4  2  0  0  0  0
  3  2  1  0  0  0  0
  4  5  1  0  0  0  0
  5 10  1  0  0  0  0
  5  6  2  0  0  0  0
  8  3  1  0  0  0  0
  9 20  1  0  0  0  0
 10  9  2  0  0  0  0
 11 13  2  0  0  0  0
 11 10  1  0  0  0  0
 12 11  1  0  0  0  0
 13 19  1  0  0  0  0
 14 13  1  0  0  0  0
 14 16  1  0  0  0  0
 15 14  1  0  0  0  0
 16 18  2  0  0  0  0
 17 16  1  0  0  0  0
 19 18  1  0  0  0  0
 19 20  2  0  0  0  0
 21  2  1  0  0  0  0
 21 23  1  0  0  0  0
 22 21  1  0  0  0  0
 24 21  1  0  0  0  0
M  END
>  <minimizedAffinity>
-5.18493271

$$$$

 OpenBabel03242513353D

 24 26  0  0  0  0  0  0  0  0999 V2000
   37.3390   26.3510   40.2290 C   0  0  0  0  0  0  0  0  0  0  0  0
   37.5210   25.6850   41.4420 C   0  0  0  0  0  0  0  0  0  0  0  0
   37.9780   26.4560   42.5210 C   0  0  0  0  0  0  0  0  0  0  0  0
   38.2160   27.7830   42.3340 N   0  0  0  0  0  0  0  0  0  0  0  0
   38.0230   28.3700   41.1370 C   0  0  0  0  0  0  0  0  0  0  0  0
   37.5830   27.6620   40.0740 N   0  0  0  0  0  0  0  0  0  0  0  0
   36.9880   25.8470   39.3300 H   0  0  0  0  0  0  0  0  0  0  0  0
   38.1160   25.9290   43.4580 H   0  0  0  0  0  0  0  0  0  0  0  0
   39.5140   30.3170   41.3630 C   0  0  0  0  0  3  0  0  0  0  0  0
   38.2920   29.7940   40.9880 C   0  0  0  0  0  0  0  0  0  0  0  0
   37.3240   30.6280   40.4690 C   0  0  0  0  0  0  0  0  0  0  0  0
   36.3550   30.2630   40.1630 H   0  0  0  0  0  0  0  0  0  0  0  0
   37.6430   31.9700   40.3530 C   0  0  0  0  0  0  0  0  0  0  0  0
   36.9250   33.0160   39.8930 N   0  0  0  0  0  0  0  0  0  0  0  0
   35.9520   33.0550   39.5140 H   0  0  0  0  0  0  0  0  0  0  0  0
   37.6530   34.1610   39.9680 C   0  0  0  0  0  0  0  0  0  0  0  0
   37.3730   35.1660   39.6820 H   0  0  0  0  0  0  0  0  0  0  0  0
   38.8700   33.8540   40.4880 C   0  0  0  0  0  3  0  0  0  0  0  0
   38.8700   32.4890   40.7300 C   0  0  0  0  0  0  0  0  0  0  0  0
   39.8450   31.6450   41.2530 C   0  0  0  0  0  3  0  0  0  0  0  0
   37.2190   24.2390   41.4890 C   0  0  0  0  0  0  0  0  0  0  0  0
   37.8040   23.6830   40.3690 F   0  0  0  0  0  0  0  0  0  0  0  0
   35.8520   24.0850   41.4340 F   0  0  0  0  0  0  0  0  0  0  0  0
   37.7310   23.7320   42.6790 F   0  0  0  0  0  0  0  0  0  0  0  0
  1  2  1  0  0  0  0
  2 21  1  0  0  0  0
  2  3  2  0  0  0  0
  3  8  1  0  0  0  0
  4  3  1  0  0  0  0
  5  4  2  0  0  0  0
  6  1  2  0  0  0  0
  6  5  1  0  0  0  0
  7  1  1  0  0  0  0
 10  5  1  0  0  0  0
 10  9  2  0  0  0  0
 11 10  1  0  0  0  0
 12 11  1  0  0  0  0
 13 11  2  0  0  0  0
 13 19  1  0  0  0  0
 14 16  1  0  0  0  0
 14 13  1  0  0  0  0
 15 14  1  0  0  0  0
 16 18  2  0  0  0  0
 17 16  1  0  0  0  0
 18 19  1  0  0  0  0
 19 20  2  0  0  0  0
 20  9  1  0  0  0  0
 21 24  1  0  0  0  0
 22 21  1  0  0  0  0
 23 21  1  0  0  0  0
M  END
>  <minimizedAffinity>
-5.10356998

$$$$

 OpenBabel03242513353D

 24 26  0  0  0  0  0  0  0  0999 V2000
   37.1770   30.5380   36.2440 C   0  0  0  0  0  0  0  0  0  0  0  0
   36.2670   30.0320   35.3150 C   0  0  0  0  0  0  0  0  0  0  0  0
   35.4860   28.9420   35.7260 C   0  0  0  0  0  0  0  0  0  0  0  0
   35.6530   28.4440   36.9810 N   0  0  0  0  0  0  0  0  0  0  0  0
   36.5500   28.9750   37.8350 C   0  0  0  0  0  0  0  0  0  0  0  0
   37.3200   30.0250   37.4770 N   0  0  0  0  0  0  0  0  0  0  0  0
   37.8300   31.3820   36.0270 H   0  0  0  0  0  0  0  0  0  0  0  0
   34.7830   28.5580   34.9970 H   0  0  0  0  0  0  0  0  0  0  0  0
   36.7940   27.0390   39.3380 C   0  0  0  0  0  3  0  0  0  0  0  0
   36.6910   28.4050   39.1690 C   0  0  0  0  0  0  0  0  0  0  0  0
   36.7230   29.2330   40.2720 C   0  0  0  0  0  0  0  0  0  0  0  0
   36.6460   30.3060   40.1860 H   0  0  0  0  0  0  0  0  0  0  0  0
   36.8590   28.6290   41.5100 C   0  0  0  0  0  0  0  0  0  0  0  0
   36.9210   29.1550   42.7520 N   0  0  0  0  0  0  0  0  0  0  0  0
   36.8810   30.1500   43.0680 H   0  0  0  0  0  0  0  0  0  0  0  0
   37.0580   28.1700   43.6780 C   0  0  0  0  0  0  0  0  0  0  0  0
   37.1370   28.2530   44.7540 H   0  0  0  0  0  0  0  0  0  0  0  0
   37.0860   26.9780   43.0250 C   0  0  0  0  0  3  0  0  0  0  0  0
   36.9620   27.2580   41.6730 C   0  0  0  0  0  0  0  0  0  0  0  0
   36.9300   26.4260   40.5590 C   0  0  0  0  0  3  0  0  0  0  0  0
   36.2010   30.6820   33.9880 C   0  0  0  0  0  0  0  0  0  0  0  0
   34.8620   30.8730   33.7140 F   0  0  0  0  0  0  0  0  0  0  0  0
   36.7570   29.8260   33.0640 F   0  0  0  0  0  0  0  0  0  0  0  0
   36.9180   31.8720   34.0590 F   0  0  0  0  0  0  0  0  0  0  0  0
  1  6  1  0  0  0  0
  2  3  1  0  0  0  0
  2  1  2  0  0  0  0
  3  4  2  0  0  0  0
  4  5  1  0  0  0  0
  5 10  1  0  0  0  0
  6  5  2  0  0  0  0
  7  1  1  0  0  0  0
  8  3  1  0  0  0  0
  9 20  1  0  0  0  0
 10  9  2  0  0  0  0
 10 11  1  0  0  0  0
 11 13  2  0  0  0  0
 12 11  1  0  0  0  0
 13 19  1  0  0  0  0
 13 14  1  0  0  0  0
 14 15  1  0  0  0  0
 14 16  1  0  0  0  0
 16 17  1  0  0  0  0
 18 16  2  0  0  0  0
 19 18  1  0  0  0  0
 20 19  2  0  0  0  0
 21 24  1  0  0  0  0
 21  2  1  0  0  0  0
 22 21  1  0  0  0  0
 23 21  1  0  0  0  0
M  END
>  <minimizedAffinity>
-4.95021057

$$$$

 OpenBabel03242513353D

 24 26  0  0  0  0  0  0  0  0999 V2000
   38.5240   30.8190   39.3650 C   0  0  0  0  0  0  0  0  0  0  0  0
   37.7860   31.7430   40.1070 C   0  0  0  0  0  0  0  0  0  0  0  0
   36.7910   31.2250   40.9480 C   0  0  0  0  0  0  0  0  0  0  0  0
   36.6000   29.8790   40.9970 N   0  0  0  0  0  0  0  0  0  0  0  0
   37.3440   29.0350   40.2570 C   0  0  0  0  0  0  0  0  0  0  0  0
   38.3120   29.4950   39.4340 N   0  0  0  0  0  0  0  0  0  0  0  0
   39.3190   31.1150   38.6830 H   0  0  0  0  0  0  0  0  0  0  0  0
   36.2250   31.9510   41.5190 H   0  0  0  0  0  0  0  0  0  0  0  0
   37.3150   26.9270   41.5300 C   0  0  0  0  0  3  0  0  0  0  0  0
   37.1000   27.6010   40.3440 C   0  0  0  0  0  0  0  0  0  0  0  0
   36.6530   26.9090   39.2380 C   0  0  0  0  0  0  0  0  0  0  0  0
   36.4720   27.3950   38.2920 H   0  0  0  0  0  0  0  0  0  0  0  0
   36.4410   25.5490   39.3880 C   0  0  0  0  0  0  0  0  0  0  0  0
   36.0140   24.6160   38.5110 N   0  0  0  0  0  0  0  0  0  0  0  0
   35.7420   24.7060   37.5070 H   0  0  0  0  0  0  0  0  0  0  0  0
   35.9560   23.3960   39.1070 C   0  0  0  0  0  0  0  0  0  0  0  0
   35.6560   22.4460   38.6860 H   0  0  0  0  0  0  0  0  0  0  0  0
   36.3530   23.5390   40.3990 C   0  0  0  0  0  3  0  0  0  0  0  0
   36.6570   24.8790   40.5800 C   0  0  0  0  0  0  0  0  0  0  0  0
   37.1080   25.5800   41.6940 C   0  0  0  0  0  3  0  0  0  0  0  0
   38.1130   33.1760   39.9450 C   0  0  0  0  0  0  0  0  0  0  0  0
   36.9950   33.7700   39.3940 F   0  0  0  0  0  0  0  0  0  0  0  0
   39.1780   33.2770   39.0790 F   0  0  0  0  0  0  0  0  0  0  0  0
   38.4380   33.6850   41.1980 F   0  0  0  0  0  0  0  0  0  0  0  0
  1  6  2  0  0  0  0
  1  2  1  0  0  0  0
  2  3  2  0  0  0  0
  3  4  1  0  0  0  0
  3  8  1  0  0  0  0
  5 10  1  0  0  0  0
  5  4  2  0  0  0  0
  6  5  1  0  0  0  0
  7  1  1  0  0  0  0
  9 20  1  0  0  0  0
 10  9  2  0  0  0  0
 11 13  2  0  0  0  0
 11 10  1  0  0  0  0
 12 11  1  0  0  0  0
 13 19  1  0  0  0  0
 14 16  1  0  0  0  0
 14 13  1  0  0  0  0
 15 14  1  0  0  0  0
 16 18  2  0  0  0  0
 17 16  1  0  0  0  0
 18 19  1  0  0  0  0
 19 20  2  0  0  0  0
 21  2  1  0  0  0  0
 21 24  1  0  0  0  0
 22 21  1  0  0  0  0
 23 21  1  0  0  0  0
M  END
>  <minimizedAffinity>
-4.87526751

$$$$

 OpenBabel03242513353D

 24 26  0  0  0  0  0  0  0  0999 V2000
   38.2770   29.3070   40.4590 C   0  0  0  0  0  0  0  0  0  0  0  0
   37.8450   28.8230   41.6950 C   0  0  0  0  0  0  0  0  0  0  0  0
   36.5170   28.3790   41.7690 C   0  0  0  0  0  0  0  0  0  0  0  0
   35.7340   28.4420   40.6570 N   0  0  0  0  0  0  0  0  0  0  0  0
   36.2070   28.9210   39.4910 C   0  0  0  0  0  0  0  0  0  0  0  0
   37.4810   29.3580   39.3790 N   0  0  0  0  0  0  0  0  0  0  0  0
   39.2880   29.6750   40.2930 H   0  0  0  0  0  0  0  0  0  0  0  0
   36.1930   28.0050   42.7330 H   0  0  0  0  0  0  0  0  0  0  0  0
   35.8570   29.0870   37.0590 C   0  0  0  0  0  3  0  0  0  0  0  0
   35.3290   28.9690   38.3290 C   0  0  0  0  0  0  0  0  0  0  0  0
   33.9620   28.8950   38.4940 C   0  0  0  0  0  0  0  0  0  0  0  0
   33.5060   28.8020   39.4690 H   0  0  0  0  0  0  0  0  0  0  0  0
   33.1840   28.9460   37.3510 C   0  0  0  0  0  0  0  0  0  0  0  0
   31.8450   28.8980   37.1850 N   0  0  0  0  0  0  0  0  0  0  0  0
   31.0790   28.8110   37.8900 H   0  0  0  0  0  0  0  0  0  0  0  0
   31.5270   28.9820   35.8670 C   0  0  0  0  0  0  0  0  0  0  0  0
   30.5510   28.9730   35.4000 H   0  0  0  0  0  0  0  0  0  0  0  0
   32.6820   29.0870   35.1590 C   0  0  0  0  0  3  0  0  0  0  0  0
   33.7190   29.0650   36.0790 C   0  0  0  0  0  0  0  0  0  0  0  0
   35.0990   29.1380   35.9150 C   0  0  0  0  0  3  0  0  0  0  0  0
   38.8150   28.8170   42.8110 C   0  0  0  0  0  0  0  0  0  0  0  0
   38.7420   30.0650   43.3960 F   0  0  0  0  0  0  0  0  0  0  0  0
   40.0710   28.6130   42.2850 F   0  0  0  0  0  0  0  0  0  0  0  0
   38.4640   27.7880   43.6780 F   0  0  0  0  0  0  0  0  0  0  0  0
  1  2  1  0  0  0  0
  2  3  2  0  0  0  0
  2 21  1  0  0  0  0
  3  8  1  0  0  0  0
  4  3  1  0  0  0  0
  5  4  2  0  0  0  0
  6  5  1  0  0  0  0
  6  1  2  0  0  0  0
  7  1  1  0  0  0  0
  9 10  1  0  0  0  0
 10 11  2  0  0  0  0
 10  5  1  0  0  0  0
 11 12  1  0  0  0  0
 13 11  1  0  0  0  0
 14 13  1  0  0  0  0
 14 15  1  0  0  0  0
 16 14  1  0  0  0  0
 17 16  1  0  0  0  0
 18 16  2  0  0  0  0
 18 19  1  0  0  0  0
 19 13  2  0  0  0  0
 20 19  1  0  0  0  0
 20  9  2  0  0  0  0
 21 22  1  0  0  0  0
 21 24  1  0  0  0  0
 23 21  1  0  0  0  0
M  END
>  <minimizedAffinity>
-4.8370533

$$$$

 OpenBabel03242513353D

 24 26  0  0  0  0  0  0  0  0999 V2000
   35.3030   27.4200   37.8140 C   0  0  0  0  0  0  0  0  0  0  0  0
   34.3670   28.4270   38.0520 C   0  0  0  0  0  0  0  0  0  0  0  0
   34.4020   29.0350   39.3160 C   0  0  0  0  0  0  0  0  0  0  0  0
   35.3260   28.6200   40.2250 N   0  0  0  0  0  0  0  0  0  0  0  0
   36.2050   27.6410   39.9370 C   0  0  0  0  0  0  0  0  0  0  0  0
   36.2030   27.0320   38.7320 N   0  0  0  0  0  0  0  0  0  0  0  0
   35.3630   26.8850   36.8680 H   0  0  0  0  0  0  0  0  0  0  0  0
   33.6710   29.8150   39.4890 H   0  0  0  0  0  0  0  0  0  0  0  0
   37.2670   27.9140   42.1420 C   0  0  0  0  0  3  0  0  0  0  0  0
   37.1750   27.2330   40.9450 C   0  0  0  0  0  0  0  0  0  0  0  0
   38.0080   26.1600   40.7060 C   0  0  0  0  0  0  0  0  0  0  0  0
   37.9700   25.5980   39.7840 H   0  0  0  0  0  0  0  0  0  0  0  0
   38.9070   25.8230   41.7030 C   0  0  0  0  0  0  0  0  0  0  0  0
   39.8340   24.8450   41.7690 N   0  0  0  0  0  0  0  0  0  0  0  0
   40.0910   24.1080   41.0740 H   0  0  0  0  0  0  0  0  0  0  0  0
   40.4930   24.8950   42.9560 C   0  0  0  0  0  0  0  0  0  0  0  0
   41.2880   24.2580   43.3200 H   0  0  0  0  0  0  0  0  0  0  0  0
   39.9840   25.9270   43.6780 C   0  0  0  0  0  3  0  0  0  0  0  0
   38.9940   26.5100   42.9030 C   0  0  0  0  0  0  0  0  0  0  0  0
   38.1520   27.5910   43.1410 C   0  0  0  0  0  3  0  0  0  0  0  0
   33.4260   28.7670   36.9630 C   0  0  0  0  0  0  0  0  0  0  0  0
   34.1780   29.3680   35.9730 F   0  0  0  0  0  0  0  0  0  0  0  0
   32.4990   29.6560   37.4590 F   0  0  0  0  0  0  0  0  0  0  0  0
   32.8150   27.5900   36.5430 F   0  0  0  0  0  0  0  0  0  0  0  0
  1  2  2  0  0  0  0
  1  6  1  0  0  0  0
  2  3  1  0  0  0  0
  3  8  1  0  0  0  0
  3  4  2  0  0  0  0
  5  4  1  0  0  0  0
  5 10  1  0  0  0  0
  6  5  2  0  0  0  0
  7  1  1  0  0  0  0
  9 20  1  0  0  0  0
 10  9  2  0  0  0  0
 11 10  1  0  0  0  0
 11 13  2  0  0  0  0
 12 11  1  0  0  0  0
 13 14  1  0  0  0  0
 13 19  1  0  0  0  0
 14 16  1  0  0  0  0
 15 14  1  0  0  0  0
 16 17  1  0  0  0  0
 16 18  2  0  0  0  0
 19 20  2  0  0  0  0
 19 18  1  0  0  0  0
 21 23  1  0  0  0  0
 21  2  1  0  0  0  0
 22 21  1  0  0  0  0
 24 21  1  0  0  0  0
M  END
>  <minimizedAffinity>
-4.70750475

$$$$

 OpenBabel03242513353D

 24 26  0  0  0  0  0  0  0  0999 V2000
   37.2260   30.4210   36.7590 C   0  0  0  0  0  0  0  0  0  0  0  0
   36.4550   29.6320   35.9030 C   0  0  0  0  0  0  0  0  0  0  0  0
   35.9750   28.4220   36.4240 C   0  0  0  0  0  0  0  0  0  0  0  0
   36.2790   28.0860   37.7070 N   0  0  0  0  0  0  0  0  0  0  0  0
   37.0290   28.8890   38.4860 C   0  0  0  0  0  0  0  0  0  0  0  0
   37.5100   30.0630   38.0210 N   0  0  0  0  0  0  0  0  0  0  0  0
   37.6470   31.3790   36.4550 H   0  0  0  0  0  0  0  0  0  0  0  0
   35.3780   27.8180   35.7510 H   0  0  0  0  0  0  0  0  0  0  0  0
   36.3130   28.3590   40.7810 C   0  0  0  0  0  3  0  0  0  0  0  0
   37.3270   28.4840   39.8530 C   0  0  0  0  0  0  0  0  0  0  0  0
   38.6290   28.2220   40.2270 C   0  0  0  0  0  0  0  0  0  0  0  0
   39.4530   28.3060   39.5340 H   0  0  0  0  0  0  0  0  0  0  0  0
   38.8450   27.8420   41.5400 C   0  0  0  0  0  0  0  0  0  0  0  0
   39.9800   27.5240   42.1970 N   0  0  0  0  0  0  0  0  0  0  0  0
   40.9690   27.4920   41.8620 H   0  0  0  0  0  0  0  0  0  0  0  0
   39.7080   27.2090   43.4900 C   0  0  0  0  0  0  0  0  0  0  0  0
   40.3890   26.9130   44.2770 H   0  0  0  0  0  0  0  0  0  0  0  0
   38.3670   27.3240   43.6790 C   0  0  0  0  0  3  0  0  0  0  0  0
   37.8230   27.7180   42.4670 C   0  0  0  0  0  0  0  0  0  0  0  0
   36.5110   27.9820   42.0870 C   0  0  0  0  0  3  0  0  0  0  0  0
   36.2110   30.1350   34.5340 C   0  0  0  0  0  0  0  0  0  0  0  0
   34.8520   30.0300   34.3180 F   0  0  0  0  0  0  0  0  0  0  0  0
   36.8950   29.3270   33.6530 F   0  0  0  0  0  0  0  0  0  0  0  0
   36.6730   31.4450   34.4700 F   0  0  0  0  0  0  0  0  0  0  0  0
  1  6  1  0  0  0  0
  2  3  1  0  0  0  0
  2  1  2  0  0  0  0
  3  4  2  0  0  0  0
  4  5  1  0  0  0  0
  5 10  1  0  0  0  0
  6  5  2  0  0  0  0
  7  1  1  0  0  0  0
  8  3  1  0  0  0  0
  9 20  1  0  0  0  0
 10 11  1  0  0  0  0
 10  9  2  0  0  0  0
 11 13  2  0  0  0  0
 12 11  1  0  0  0  0
 13 14  1  0  0  0  0
 13 19  1  0  0  0  0
 14 16  1  0  0  0  0
 15 14  1  0  0  0  0
 16 18  2  0  0  0  0
 16 17  1  0  0  0  0
 19 18  1  0  0  0  0
 20 19  2  0  0  0  0
 21  2  1  0  0  0  0
 22 21  1  0  0  0  0
 23 21  1  0  0  0  0
 24 21  1  0  0  0  0
M  END
>  <minimizedAffinity>
-4.70480347

$$$$

 OpenBabel03242513353D

 24 26  0  0  0  0  0  0  0  0999 V2000
   39.0430   31.2310   39.8760 C   0  0  0  0  0  0  0  0  0  0  0  0
   38.0200   32.1130   40.2320 C   0  0  0  0  0  0  0  0  0  0  0  0
   36.8190   31.5400   40.6720 C   0  0  0  0  0  0  0  0  0  0  0  0
   36.7130   30.1840   40.7280 N   0  0  0  0  0  0  0  0  0  0  0  0
   37.7350   29.3830   40.3700 C   0  0  0  0  0  0  0  0  0  0  0  0
   38.9090   29.8970   39.9410 N   0  0  0  0  0  0  0  0  0  0  0  0
   40.0150   31.5720   39.5230 H   0  0  0  0  0  0  0  0  0  0  0  0
   36.0330   32.2330   40.9450 H   0  0  0  0  0  0  0  0  0  0  0  0
   36.7560   27.2780   39.5500 C   0  0  0  0  0  3  0  0  0  0  0  0
   37.5720   27.9370   40.4470 C   0  0  0  0  0  0  0  0  0  0  0  0
   38.2350   27.2200   41.4210 C   0  0  0  0  0  0  0  0  0  0  0  0
   38.8830   27.6940   42.1430 H   0  0  0  0  0  0  0  0  0  0  0  0
   38.0370   25.8500   41.4400 C   0  0  0  0  0  0  0  0  0  0  0  0
   38.5350   24.8930   42.2520 N   0  0  0  0  0  0  0  0  0  0  0  0
   39.1900   24.9660   43.0620 H   0  0  0  0  0  0  0  0  0  0  0  0
   38.0590   23.6720   41.8920 C   0  0  0  0  0  0  0  0  0  0  0  0
   38.2610   22.7050   42.3340 H   0  0  0  0  0  0  0  0  0  0  0  0
   37.2360   23.8370   40.8240 C   0  0  0  0  0  3  0  0  0  0  0  0
   37.2180   25.1930   40.5370 C   0  0  0  0  0  0  0  0  0  0  0  0
   36.5510   25.9200   39.5560 C   0  0  0  0  0  3  0  0  0  0  0  0
   38.2880   33.5630   40.1170 C   0  0  0  0  0  0  0  0  0  0  0  0
   38.4890   34.0240   41.4030 F   0  0  0  0  0  0  0  0  0  0  0  0
   37.1760   34.1610   39.5680 F   0  0  0  0  0  0  0  0  0  0  0  0
   39.4000   33.7300   39.2990 F   0  0  0  0  0  0  0  0  0  0  0  0
  1  6  2  0  0  0  0
  1  2  1  0  0  0  0
  2  3  2  0  0  0  0
  3  4  1  0  0  0  0
  3  8  1  0  0  0  0
  5 10  1  0  0  0  0
  5  4  2  0  0  0  0
  6  5  1  0  0  0  0
  7  1  1  0  0  0  0
  9 20  2  0  0  0  0
  9 10  1  0  0  0  0
 10 11  2  0  0  0  0
 11 13  1  0  0  0  0
 11 12  1  0  0  0  0
 13 14  1  0  0  0  0
 14 15  1  0  0  0  0
 16 14  1  0  0  0  0
 16 17  1  0  0  0  0
 18 16  2  0  0  0  0
 19 18  1  0  0  0  0
 19 13  2  0  0  0  0
 20 19  1  0  0  0  0
 21  2  1  0  0  0  0
 21 22  1  0  0  0  0
 23 21  1  0  0  0  0
 24 21  1  0  0  0  0
M  END
>  <minimizedAffinity>
-4.69179296

$$$$
