
 OpenBabel03252509263D

 33 36  0  0  1  0  0  0  0  0999 V2000
   46.5240   35.0090   41.9010 C   0  0  1  0  0  0  0  0  0  0  0  0
   48.0370   35.3620   41.8940 C   0  0  0  0  0  0  0  0  0  0  0  0
   47.3900   34.0570   41.3380 C   0  0  2  0  0  0  0  0  0  0  0  0
   45.9320   35.7230   41.3050 H   0  0  0  0  0  0  0  0  0  0  0  0
   48.6100   35.2580   42.8200 H   0  0  0  0  0  0  0  0  0  0  0  0
   48.3500   36.0990   41.1370 H   0  0  0  0  0  0  0  0  0  0  0  0
   47.6610   33.1400   41.9430 H   0  0  0  0  0  0  0  0  0  0  0  0
   44.6580   35.4240   45.1300 C   0  0  0  0  0  0  0  0  0  0  0  0
   45.1060   35.7000   43.8100 C   0  0  0  0  0  0  0  0  0  0  0  0
   46.0290   34.8360   43.3200 C   0  0  0  0  0  0  0  0  0  0  0  0
   46.5050   33.7650   44.0490 N   0  0  0  0  0  0  0  0  0  0  0  0
   46.0530   33.5380   45.3070 C   0  0  0  0  0  0  0  0  0  0  0  0
   45.1220   34.3760   45.8460 N   0  0  0  0  0  0  0  0  0  0  0  0
   43.9190   36.1110   45.5270 H   0  0  0  0  0  0  0  0  0  0  0  0
   46.3760   32.7330   45.9250 H   0  0  0  0  0  0  0  0  0  0  0  0
   44.6440   36.8050   43.0780 N   0  0  0  0  0  0  0  0  0  0  0  0
   43.7270   36.9410   42.5970 H   0  0  0  0  0  0  0  0  0  0  0  0
   45.3640   37.5870   43.0390 H   0  0  0  0  0  0  0  0  0  0  0  0
   47.4320   33.8110   39.8490 C   0  0  0  0  0  0  0  0  0  0  0  0
   46.5030   33.2570   39.6090 H   0  0  0  0  0  0  0  0  0  0  0  0
   47.4180   34.7590   39.2760 H   0  0  0  0  0  0  0  0  0  0  0  0
   49.3450   32.2560   40.4280 C   0  0  0  0  0  3  0  0  0  0  0  0
   48.5760   32.9450   39.5240 C   0  0  0  0  0  0  0  0  0  0  0  0
   48.8950   32.8230   38.1760 C   0  0  0  0  0  0  0  0  0  0  0  0
   48.3450   33.3280   37.3930 H   0  0  0  0  0  0  0  0  0  0  0  0
   49.9440   32.0420   37.7310 C   0  0  0  0  0  0  0  0  0  0  0  0
   50.4530   31.7580   36.5210 N   0  0  0  0  0  0  0  0  0  0  0  0
   50.0660   32.1470   35.6150 H   0  0  0  0  0  0  0  0  0  0  0  0
   51.5020   30.9250   36.6270 C   0  0  0  0  0  0  0  0  0  0  0  0
   52.0600   30.5690   35.7670 H   0  0  0  0  0  0  0  0  0  0  0  0
   51.7030   30.6410   37.9620 C   0  0  0  0  0  3  0  0  0  0  0  0
   50.7160   31.3510   38.6360 C   0  0  0  0  0  0  0  0  0  0  0  0
   50.3960   31.4750   39.9770 C   0  0  0  0  0  3  0  0  0  0  0  0
  1  4  1  6  0  0  0
  1 10  1  0  0  0  0
  2  1  1  0  0  0  0
  2  5  1  0  0  0  0
  3  2  1  0  0  0  0
  3  1  1  0  0  0  0
  3  7  1  1  0  0  0
  6  2  1  0  0  0  0
  8 14  1  0  0  0  0
  8 13  1  0  0  0  0
  9  8  2  0  0  0  0
 10  9  1  0  0  0  0
 10 11  2  0  0  0  0
 11 12  1  0  0  0  0
 12 13  2  0  0  0  0
 12 15  1  0  0  0  0
 16  9  1  0  0  0  0
 17 16  1  0  0  0  0
 18 16  1  0  0  0  0
 19  3  1  0  0  0  0
 20 19  1  0  0  0  0
 21 19  1  0  0  0  0
 23 19  1  0  0  0  0
 23 22  2  0  0  0  0
 24 23  1  0  0  0  0
 25 24  1  0  0  0  0
 26 24  2  0  0  0  0
 26 32  1  0  0  0  0
 27 29  1  0  0  0  0
 27 26  1  0  0  0  0
 28 27  1  0  0  0  0
 29 31  2  0  0  0  0
 30 29  1  0  0  0  0
 31 32  1  0  0  0  0
 32 33  2  0  0  0  0
 33 22  1  0  0  0  0
M  END
>  <minimizedAffinity>
-5.48451996

>  <minimizedRMSD>
0.993570387

$$$$
