
 OpenBabel03252508543D

 46 50  0  0  1  0  0  0  0  0999 V2000
   43.2410   34.3760   40.5530 C   0  0  0  0  0  0  0  0  0  0  0  0
   43.2590   35.4850   39.9200 O   0  0  0  0  0  0  0  0  0  0  0  0
   41.8280   34.0410   40.4450 N   0  0  0  0  0  0  0  0  0  0  0  0
   41.3480   33.8920   39.0910 C   0  0  0  0  0  0  0  0  0  0  0  0
   40.6510   35.2300   38.7630 C   0  0  0  0  0  0  0  0  0  0  0  0
   39.9930   35.7080   40.0690 C   0  0  0  0  0  0  0  0  0  0  0  0
   39.5820   34.5210   40.9100 C   0  0  0  0  0  0  0  0  0  0  0  0
   40.8380   33.8380   41.4850 C   0  0  1  0  0  0  0  0  0  0  0  0
   40.6520   33.0460   38.9670 H   0  0  0  0  0  0  0  0  0  0  0  0
   42.1470   33.7880   38.3330 H   0  0  0  0  0  0  0  0  0  0  0  0
   39.8610   35.0110   38.0420 H   0  0  0  0  0  0  0  0  0  0  0  0
   41.4110   35.9560   38.4460 H   0  0  0  0  0  0  0  0  0  0  0  0
   40.7300   36.2860   40.6570 H   0  0  0  0  0  0  0  0  0  0  0  0
   39.0870   36.3010   39.8580 H   0  0  0  0  0  0  0  0  0  0  0  0
   38.8670   34.8130   41.6720 H   0  0  0  0  0  0  0  0  0  0  0  0
   39.1430   33.7430   40.2390 H   0  0  0  0  0  0  0  0  0  0  0  0
   41.1420   34.3650   42.3920 H   0  0  0  0  0  0  0  0  0  0  0  0
   41.5050   31.4360   42.0210 C   0  0  0  0  0  3  0  0  0  0  0  0
   40.5820   32.3870   41.6710 C   0  0  0  0  0  0  0  0  0  0  0  0
   39.2900   31.9450   41.4760 C   0  0  0  0  0  0  0  0  0  0  0  0
   38.4330   32.5400   41.2000 H   0  0  0  0  0  0  0  0  0  0  0  0
   38.9290   30.6030   41.6220 C   0  0  0  0  0  0  0  0  0  0  0  0
   37.8020   29.8720   41.5100 N   0  0  0  0  0  0  0  0  0  0  0  0
   36.8740   30.2780   41.2510 H   0  0  0  0  0  0  0  0  0  0  0  0
   38.0550   28.5780   41.7770 C   0  0  0  0  0  0  0  0  0  0  0  0
   37.2910   27.7880   41.7490 H   0  0  0  0  0  0  0  0  0  0  0  0
   39.3900   28.4120   42.0820 C   0  0  0  0  0  3  0  0  0  0  0  0
   39.9150   29.6830   41.9800 C   0  0  0  0  0  0  0  0  0  0  0  0
   41.2130   30.1070   42.1790 C   0  0  0  0  0  3  0  0  0  0  0  0
   44.2960   33.7490   41.1380 O   0  0  0  0  0  0  0  0  0  0  0  0
   45.6300   34.0130   40.9570 C   0  0  0  0  0  0  0  0  0  0  0  0
   46.3180   34.6220   42.0090 C   0  0  0  0  0  0  0  0  0  0  0  0
   47.6800   34.8820   41.7990 C   0  0  0  0  0  0  0  0  0  0  0  0
   48.2420   34.5300   40.5950 N   0  0  0  0  0  0  0  0  0  0  0  0
   47.5370   33.9560   39.6390 C   0  0  0  0  0  0  0  0  0  0  0  0
   46.2310   33.6930   39.8070 N   0  0  0  0  0  0  0  0  0  0  0  0
   48.1970   35.3500   42.6120 H   0  0  0  0  0  0  0  0  0  0  0  0
   48.0790   33.7170   38.7240 H   0  0  0  0  0  0  0  0  0  0  0  0
   45.6290   34.9520   43.2340 C   0  0  0  0  0  0  0  0  0  0  0  0
   45.0300   36.1840   43.4640 C   0  0  0  0  0  0  0  0  0  0  0  0
   44.5030   36.0690   44.7230 C   0  0  0  0  0  0  0  0  0  0  0  0
   44.7600   34.8460   45.2340 N   0  0  0  0  0  0  0  0  0  0  0  0
   45.4380   34.2000   44.3150 N   0  0  0  0  0  0  0  0  0  0  0  0
   44.9740   37.0580   42.8180 H   0  0  0  0  0  0  0  0  0  0  0  0
   43.9460   36.7930   45.3090 H   0  0  0  0  0  0  0  0  0  0  0  0
   44.4970   34.4470   46.1620 H   0  0  0  0  0  0  0  0  0  0  0  0
  1 30  1  0  0  0  0
  2  1  2  0  0  0  0
  3  1  1  0  0  0  0
  3  8  1  0  0  0  0
  4  3  1  0  0  0  0
  5  4  1  0  0  0  0
  5  6  1  0  0  0  0
  6 13  1  0  0  0  0
  6  7  1  0  0  0  0
  7  8  1  0  0  0  0
  7 15  1  0  0  0  0
  8 19  1  0  0  0  0
  8 17  1  1  0  0  0
  9  4  1  0  0  0  0
 10  4  1  0  0  0  0
 11  5  1  0  0  0  0
 12  5  1  0  0  0  0
 14  6  1  0  0  0  0
 16  7  1  0  0  0  0
 18 29  1  0  0  0  0
 19 18  2  0  0  0  0
 20 22  2  0  0  0  0
 20 19  1  0  0  0  0
 21 20  1  0  0  0  0
 22 28  1  0  0  0  0
 23 22  1  0  0  0  0
 23 25  1  0  0  0  0
 24 23  1  0  0  0  0
 25 27  2  0  0  0  0
 26 25  1  0  0  0  0
 28 27  1  0  0  0  0
 28 29  2  0  0  0  0
 31 30  1  0  0  0  0
 31 32  1  0  0  0  0
 32 39  1  0  0  0  0
 33 32  2  0  0  0  0
 33 37  1  0  0  0  0
 34 33  1  0  0  0  0
 35 36  1  0  0  0  0
 35 34  2  0  0  0  0
 36 31  2  0  0  0  0
 38 35  1  0  0  0  0
 39 40  1  0  0  0  0
 39 43  2  0  0  0  0
 40 41  2  0  0  0  0
 41 42  1  0  0  0  0
 41 45  1  0  0  0  0
 42 46  1  0  0  0  0
 43 42  1  0  0  0  0
 44 40  1  0  0  0  0
M  END
>  <minimizedAffinity>
-7.22132826

>  <minimizedRMSD>
0.977722287

$$$$
