
 OpenBabel03252502513D

 37 40  0  0  0  0  0  0  0  0999 V2000
   36.9540   30.2070   36.7420 C   0  0  0  0  0  0  0  0  0  0  0  0
   36.3520   29.2130   37.5240 C   0  0  0  0  0  0  0  0  0  0  0  0
   36.4750   29.3240   38.9170 C   0  0  0  0  0  0  0  0  0  0  0  0
   37.1550   30.3680   39.4180 N   0  0  0  0  0  0  0  0  0  0  0  0
   37.7330   31.3250   38.6260 C   0  0  0  0  0  0  0  0  0  0  0  0
   37.6290   31.2380   37.3000 N   0  0  0  0  0  0  0  0  0  0  0  0
   36.8710   30.1390   35.6570 H   0  0  0  0  0  0  0  0  0  0  0  0
   35.8200   28.4010   37.0410 H   0  0  0  0  0  0  0  0  0  0  0  0
   40.6920   30.9680   38.7960 Cl  0  0  0  0  0  0  0  0  0  0  0  0
   39.8170   32.3630   39.3850 C   0  0  0  0  0  0  0  0  0  0  0  0
   38.4600   32.4340   39.2620 C   0  0  0  0  0  0  0  0  0  0  0  0
   37.7340   33.5350   39.7220 C   0  0  0  0  0  0  0  0  0  0  0  0
   38.4740   34.5360   40.3060 C   0  0  0  0  0  0  0  0  0  0  0  0
   39.8380   34.4710   40.4340 C   0  0  0  0  0  0  0  0  0  0  0  0
   40.5320   33.3840   39.9760 C   0  0  0  0  0  0  0  0  0  0  0  0
   36.6650   33.5800   39.6190 H   0  0  0  0  0  0  0  0  0  0  0  0
   37.9390   35.4070   40.6750 H   0  0  0  0  0  0  0  0  0  0  0  0
   40.4410   35.2500   40.8910 H   0  0  0  0  0  0  0  0  0  0  0  0
   41.6060   33.2940   40.0580 H   0  0  0  0  0  0  0  0  0  0  0  0
   35.8380   28.2730   39.7390 C   0  0  0  0  0  0  0  0  0  0  0  0
   34.7690   28.2090   39.4340 H   0  0  0  0  0  0  0  0  0  0  0  0
   36.3140   27.3320   39.4580 H   0  0  0  0  0  0  0  0  0  0  0  0
   35.8890   28.5850   41.2030 C   0  0  0  0  0  0  0  0  0  0  0  0
   35.8680   29.7060   41.2830 H   0  0  0  0  0  0  0  0  0  0  0  0
   34.9230   28.2590   41.6440 H   0  0  0  0  0  0  0  0  0  0  0  0
   37.8290   28.6120   42.8350 C   0  0  0  0  0  3  0  0  0  0  0  0
   36.9850   27.9800   41.9330 C   0  0  0  0  0  0  0  0  0  0  0  0
   37.2480   26.6300   41.7350 C   0  0  0  0  0  0  0  0  0  0  0  0
   36.6150   26.0650   41.0310 H   0  0  0  0  0  0  0  0  0  0  0  0
   38.2630   25.9150   42.3630 C   0  0  0  0  0  0  0  0  0  0  0  0
   38.6260   24.6230   42.2660 N   0  0  0  0  0  0  0  0  0  0  0  0
   38.1680   23.8950   41.6580 H   0  0  0  0  0  0  0  0  0  0  0  0
   39.6680   24.4430   43.0820 C   0  0  0  0  0  0  0  0  0  0  0  0
   40.1520   23.4770   43.1890 H   0  0  0  0  0  0  0  0  0  0  0  0
   39.9630   25.6470   43.7010 C   0  0  0  0  0  3  0  0  0  0  0  0
   39.0740   26.6040   43.2540 C   0  0  0  0  0  0  0  0  0  0  0  0
   38.8460   27.9340   43.4750 C   0  0  0  0  0  3  0  0  0  0  0  0
  1  6  2  0  0  0  0
  1  2  1  0  0  0  0
  2  3  2  0  0  0  0
  3  4  1  0  0  0  0
  3 20  1  0  0  0  0
  5 11  1  0  0  0  0
  5  4  2  0  0  0  0
  6  5  1  0  0  0  0
  7  1  1  0  0  0  0
  8  2  1  0  0  0  0
  9 10  1  0  0  0  0
 10 15  1  0  0  0  0
 11 10  2  0  0  0  0
 11 12  1  0  0  0  0
 12 13  2  0  0  0  0
 13 14  1  0  0  0  0
 13 17  1  0  0  0  0
 14 18  1  0  0  0  0
 15 19  1  0  0  0  0
 15 14  2  0  0  0  0
 16 12  1  0  0  0  0
 20 23  1  0  0  0  0
 21 20  1  0  0  0  0
 22 20  1  0  0  0  0
 23 24  1  0  0  0  0
 23 25  1  0  0  0  0
 23 27  1  0  0  0  0
 26 37  1  0  0  0  0
 27 26  2  0  0  0  0
 28 27  1  0  0  0  0
 28 30  2  0  0  0  0
 29 28  1  0  0  0  0
 30 36  1  0  0  0  0
 31 30  1  0  0  0  0
 31 33  1  0  0  0  0
 32 31  1  0  0  0  0
 33 34  1  0  0  0  0
 33 35  2  0  0  0  0
 36 37  2  0  0  0  0
 36 35  1  0  0  0  0
M  END
>  <minimizedAffinity>
-6.43709803

$$$$

 OpenBabel03252502513D

 37 40  0  0  0  0  0  0  0  0999 V2000
   37.7050   32.9820   40.0260 C   0  0  0  0  0  0  0  0  0  0  0  0
   38.6760   32.3980   40.8500 C   0  0  0  0  0  0  0  0  0  0  0  0
   38.8830   31.0160   40.7250 C   0  0  0  0  0  0  0  0  0  0  0  0
   38.1480   30.3380   39.8300 N   0  0  0  0  0  0  0  0  0  0  0  0
   37.2050   30.9380   39.0370 C   0  0  0  0  0  0  0  0  0  0  0  0
   36.9920   32.2490   39.1400 N   0  0  0  0  0  0  0  0  0  0  0  0
   37.5280   34.0540   40.1070 H   0  0  0  0  0  0  0  0  0  0  0  0
   39.2270   33.0170   41.5490 H   0  0  0  0  0  0  0  0  0  0  0  0
   35.0170   29.3010   40.2390 Cl  0  0  0  0  0  0  0  0  0  0  0  0
   35.4250   29.3320   38.5380 C   0  0  0  0  0  0  0  0  0  0  0  0
   36.4460   30.1150   38.0840 C   0  0  0  0  0  0  0  0  0  0  0  0
   36.7950   30.1610   36.7320 C   0  0  0  0  0  0  0  0  0  0  0  0
   36.0450   29.3680   35.8950 C   0  0  0  0  0  0  0  0  0  0  0  0
   35.0180   28.5790   36.3450 C   0  0  0  0  0  0  0  0  0  0  0  0
   34.6910   28.5470   37.6730 C   0  0  0  0  0  0  0  0  0  0  0  0
   37.6010   30.7810   36.3850 H   0  0  0  0  0  0  0  0  0  0  0  0
   36.2920   29.3810   34.8360 H   0  0  0  0  0  0  0  0  0  0  0  0
   34.4140   27.9460   35.7010 H   0  0  0  0  0  0  0  0  0  0  0  0
   33.8890   27.9390   38.0680 H   0  0  0  0  0  0  0  0  0  0  0  0
   39.9090   30.4040   41.5980 C   0  0  0  0  0  0  0  0  0  0  0  0
   40.3380   29.5340   41.0530 H   0  0  0  0  0  0  0  0  0  0  0  0
   40.7020   31.1450   41.7060 H   0  0  0  0  0  0  0  0  0  0  0  0
   39.3350   29.9100   42.8900 C   0  0  0  0  0  0  0  0  0  0  0  0
   40.1970   29.8420   43.6080 H   0  0  0  0  0  0  0  0  0  0  0  0
   38.6970   30.7220   43.3000 H   0  0  0  0  0  0  0  0  0  0  0  0
   37.2650   28.4900   43.2490 C   0  0  0  0  0  3  0  0  0  0  0  0
   38.5640   28.6850   42.8040 C   0  0  0  0  0  0  0  0  0  0  0  0
   39.1560   27.5710   42.2200 C   0  0  0  0  0  0  0  0  0  0  0  0
   40.1880   27.6550   41.8430 H   0  0  0  0  0  0  0  0  0  0  0  0
   38.5420   26.3310   42.0670 C   0  0  0  0  0  0  0  0  0  0  0  0
   38.9900   25.1830   41.5290 N   0  0  0  0  0  0  0  0  0  0  0  0
   39.9420   25.0270   41.1060 H   0  0  0  0  0  0  0  0  0  0  0  0
   38.0040   24.2880   41.6310 C   0  0  0  0  0  0  0  0  0  0  0  0
   38.1130   23.2710   41.2650 H   0  0  0  0  0  0  0  0  0  0  0  0
   36.9180   24.8880   42.2450 C   0  0  0  0  0  3  0  0  0  0  0  0
   37.2410   26.2000   42.5340 C   0  0  0  0  0  0  0  0  0  0  0  0
   36.6270   27.2740   43.1140 C   0  0  0  0  0  3  0  0  0  0  0  0
  1  7  1  0  0  0  0
  1  2  1  0  0  0  0
  2  8  1  0  0  0  0
  3  2  2  0  0  0  0
  3 20  1  0  0  0  0
  4  3  1  0  0  0  0
  5  6  1  0  0  0  0
  5  4  2  0  0  0  0
  6  1  2  0  0  0  0
 10  9  1  0  0  0  0
 11 10  1  0  0  0  0
 11  5  1  0  0  0  0
 12 11  2  0  0  0  0
 13 14  2  0  0  0  0
 13 12  1  0  0  0  0
 14 15  1  0  0  0  0
 15 19  1  0  0  0  0
 15 10  2  0  0  0  0
 16 12  1  0  0  0  0
 17 13  1  0  0  0  0
 18 14  1  0  0  0  0
 20 22  1  0  0  0  0
 20 23  1  0  0  0  0
 21 20  1  0  0  0  0
 23 25  1  0  0  0  0
 23 24  1  0  0  0  0
 27 23  1  0  0  0  0
 27 26  2  0  0  0  0
 28 27  1  0  0  0  0
 29 28  1  0  0  0  0
 30 28  2  0  0  0  0
 30 36  1  0  0  0  0
 31 33  1  0  0  0  0
 31 30  1  0  0  0  0
 32 31  1  0  0  0  0
 33 35  2  0  0  0  0
 34 33  1  0  0  0  0
 35 36  1  0  0  0  0
 36 37  2  0  0  0  0
 37 26  1  0  0  0  0
M  END
>  <minimizedAffinity>
-6.39829969

$$$$

 OpenBabel03252502513D

 37 40  0  0  0  0  0  0  0  0999 V2000
   38.0610   33.8690   39.7740 C   0  0  0  0  0  0  0  0  0  0  0  0
   39.3410   33.5520   40.2460 C   0  0  0  0  0  0  0  0  0  0  0  0
   39.8110   32.2500   40.0150 C   0  0  0  0  0  0  0  0  0  0  0  0
   39.0150   31.3900   39.3600 N   0  0  0  0  0  0  0  0  0  0  0  0
   37.7660   31.7310   38.9090 C   0  0  0  0  0  0  0  0  0  0  0  0
   37.3010   32.9620   39.1190 N   0  0  0  0  0  0  0  0  0  0  0  0
   37.6770   34.8750   39.9420 H   0  0  0  0  0  0  0  0  0  0  0  0
   39.9210   34.3050   40.7670 H   0  0  0  0  0  0  0  0  0  0  0  0
   35.8410   30.2160   40.6160 Cl  0  0  0  0  0  0  0  0  0  0  0  0
   36.0550   29.9800   38.8960 C   0  0  0  0  0  0  0  0  0  0  0  0
   36.9630   30.7230   38.2010 C   0  0  0  0  0  0  0  0  0  0  0  0
   37.1560   30.5560   36.8280 C   0  0  0  0  0  0  0  0  0  0  0  0
   36.3740   29.5990   36.2270 C   0  0  0  0  0  0  0  0  0  0  0  0
   35.4590   28.8470   36.9190 C   0  0  0  0  0  0  0  0  0  0  0  0
   35.2850   29.0250   38.2650 C   0  0  0  0  0  0  0  0  0  0  0  0
   37.8750   31.1480   36.2900 H   0  0  0  0  0  0  0  0  0  0  0  0
   36.5000   29.4440   35.1580 H   0  0  0  0  0  0  0  0  0  0  0  0
   34.8320   28.0870   36.4640 H   0  0  0  0  0  0  0  0  0  0  0  0
   34.5750   28.4540   38.8470 H   0  0  0  0  0  0  0  0  0  0  0  0
   41.1620   31.9200   40.5160 C   0  0  0  0  0  0  0  0  0  0  0  0
   41.5130   31.0180   39.9670 H   0  0  0  0  0  0  0  0  0  0  0  0
   41.8090   32.7490   40.2280 H   0  0  0  0  0  0  0  0  0  0  0  0
   41.1660   31.6060   41.9810 C   0  0  0  0  0  0  0  0  0  0  0  0
   42.2370   31.6820   42.3130 H   0  0  0  0  0  0  0  0  0  0  0  0
   40.6550   32.4440   42.4990 H   0  0  0  0  0  0  0  0  0  0  0  0
   41.1190   29.0930   42.3130 C   0  0  0  0  0  3  0  0  0  0  0  0
   40.5390   30.3520   42.3520 C   0  0  0  0  0  0  0  0  0  0  0  0
   39.2220   30.3760   42.7970 C   0  0  0  0  0  0  0  0  0  0  0  0
   38.6990   31.3440   42.8530 H   0  0  0  0  0  0  0  0  0  0  0  0
   38.4930   29.2560   43.1870 C   0  0  0  0  0  0  0  0  0  0  0  0
   37.2300   29.1350   43.6320 N   0  0  0  0  0  0  0  0  0  0  0  0
   36.5430   29.9220   43.7670 H   0  0  0  0  0  0  0  0  0  0  0  0
   37.0170   27.8380   43.8670 C   0  0  0  0  0  0  0  0  0  0  0  0
   36.0650   27.4720   44.2390 H   0  0  0  0  0  0  0  0  0  0  0  0
   38.1700   27.1340   43.5640 C   0  0  0  0  0  3  0  0  0  0  0  0
   39.1310   28.0250   43.1250 C   0  0  0  0  0  0  0  0  0  0  0  0
   40.4250   27.9620   42.6920 C   0  0  0  0  0  3  0  0  0  0  0  0
  1  7  1  0  0  0  0
  1  2  1  0  0  0  0
  2  8  1  0  0  0  0
  3  2  2  0  0  0  0
  3 20  1  0  0  0  0
  4  3  1  0  0  0  0
  5  6  1  0  0  0  0
  5  4  2  0  0  0  0
  6  1  2  0  0  0  0
 10  9  1  0  0  0  0
 11 10  2  0  0  0  0
 11  5  1  0  0  0  0
 12 11  1  0  0  0  0
 13 12  2  0  0  0  0
 13 14  1  0  0  0  0
 14 15  2  0  0  0  0
 15 19  1  0  0  0  0
 15 10  1  0  0  0  0
 16 12  1  0  0  0  0
 17 13  1  0  0  0  0
 18 14  1  0  0  0  0
 20 23  1  0  0  0  0
 21 20  1  0  0  0  0
 22 20  1  0  0  0  0
 23 24  1  0  0  0  0
 23 27  1  0  0  0  0
 23 25  1  0  0  0  0
 26 27  2  0  0  0  0
 26 37  1  0  0  0  0
 27 28  1  0  0  0  0
 28 29  1  0  0  0  0
 28 30  2  0  0  0  0
 30 31  1  0  0  0  0
 31 32  1  0  0  0  0
 31 33  1  0  0  0  0
 33 34  1  0  0  0  0
 35 33  2  0  0  0  0
 36 30  1  0  0  0  0
 36 35  1  0  0  0  0
 37 36  2  0  0  0  0
M  END
>  <minimizedAffinity>
-6.36952734

$$$$

 OpenBabel03252502513D

 37 40  0  0  0  0  0  0  0  0999 V2000
   37.1130   30.1160   36.8060 C   0  0  0  0  0  0  0  0  0  0  0  0
   36.3680   29.2300   37.5940 C   0  0  0  0  0  0  0  0  0  0  0  0
   36.5860   29.2570   38.9790 C   0  0  0  0  0  0  0  0  0  0  0  0
   37.4880   30.1240   39.4680 N   0  0  0  0  0  0  0  0  0  0  0  0
   38.2020   30.9800   38.6700 C   0  0  0  0  0  0  0  0  0  0  0  0
   38.0110   30.9690   37.3520 N   0  0  0  0  0  0  0  0  0  0  0  0
   36.9590   30.1110   35.7270 H   0  0  0  0  0  0  0  0  0  0  0  0
   35.6580   28.5600   37.1200 H   0  0  0  0  0  0  0  0  0  0  0  0
   37.1060   33.6470   39.4440 Cl  0  0  0  0  0  0  0  0  0  0  0  0
   38.7630   33.1370   39.6820 C   0  0  0  0  0  0  0  0  0  0  0  0
   39.1690   31.8950   39.2930 C   0  0  0  0  0  0  0  0  0  0  0  0
   40.4850   31.4610   39.4690 C   0  0  0  0  0  0  0  0  0  0  0  0
   41.3390   32.3640   40.0570 C   0  0  0  0  0  0  0  0  0  0  0  0
   40.9370   33.6150   40.4500 C   0  0  0  0  0  0  0  0  0  0  0  0
   39.6430   34.0230   40.2690 C   0  0  0  0  0  0  0  0  0  0  0  0
   40.7940   30.4780   39.1590 H   0  0  0  0  0  0  0  0  0  0  0  0
   42.3710   32.0570   40.2080 H   0  0  0  0  0  0  0  0  0  0  0  0
   41.5940   34.3430   40.9150 H   0  0  0  0  0  0  0  0  0  0  0  0
   39.2860   35.0000   40.5640 H   0  0  0  0  0  0  0  0  0  0  0  0
   35.7970   28.3200   39.8070 C   0  0  0  0  0  0  0  0  0  0  0  0
   34.7300   28.4200   39.5050 H   0  0  0  0  0  0  0  0  0  0  0  0
   36.1220   27.3160   39.5300 H   0  0  0  0  0  0  0  0  0  0  0  0
   35.8990   28.6270   41.2700 C   0  0  0  0  0  0  0  0  0  0  0  0
   35.8990   29.7480   41.3530 H   0  0  0  0  0  0  0  0  0  0  0  0
   34.9430   28.3150   41.7400 H   0  0  0  0  0  0  0  0  0  0  0  0
   37.9280   28.6300   42.7910 C   0  0  0  0  0  3  0  0  0  0  0  0
   37.0080   28.0020   41.9630 C   0  0  0  0  0  0  0  0  0  0  0  0
   37.2020   26.6340   41.8060 C   0  0  0  0  0  0  0  0  0  0  0  0
   36.5070   26.0720   41.1610 H   0  0  0  0  0  0  0  0  0  0  0  0
   38.2190   25.9000   42.4070 C   0  0  0  0  0  0  0  0  0  0  0  0
   38.5210   24.5900   42.3430 N   0  0  0  0  0  0  0  0  0  0  0  0
   37.9990   23.8610   41.7910 H   0  0  0  0  0  0  0  0  0  0  0  0
   39.5980   24.3960   43.1070 C   0  0  0  0  0  0  0  0  0  0  0  0
   40.0460   23.4140   43.2270 H   0  0  0  0  0  0  0  0  0  0  0  0
   39.9790   25.6070   43.6600 C   0  0  0  0  0  3  0  0  0  0  0  0
   39.1070   26.5860   43.2240 C   0  0  0  0  0  0  0  0  0  0  0  0
   38.9490   27.9320   43.4020 C   0  0  0  0  0  3  0  0  0  0  0  0
  1  6  2  0  0  0  0
  1  2  1  0  0  0  0
  2  3  2  0  0  0  0
  3  4  1  0  0  0  0
  3 20  1  0  0  0  0
  5 11  1  0  0  0  0
  5  4  2  0  0  0  0
  6  5  1  0  0  0  0
  7  1  1  0  0  0  0
  8  2  1  0  0  0  0
  9 10  1  0  0  0  0
 10 15  1  0  0  0  0
 11 12  1  0  0  0  0
 11 10  2  0  0  0  0
 12 13  2  0  0  0  0
 13 17  1  0  0  0  0
 13 14  1  0  0  0  0
 14 18  1  0  0  0  0
 15 14  2  0  0  0  0
 15 19  1  0  0  0  0
 16 12  1  0  0  0  0
 20 23  1  0  0  0  0
 21 20  1  0  0  0  0
 22 20  1  0  0  0  0
 23 24  1  0  0  0  0
 23 25  1  0  0  0  0
 23 27  1  0  0  0  0
 26 37  1  0  0  0  0
 27 26  2  0  0  0  0
 28 27  1  0  0  0  0
 28 30  2  0  0  0  0
 29 28  1  0  0  0  0
 30 36  1  0  0  0  0
 31 30  1  0  0  0  0
 31 33  1  0  0  0  0
 32 31  1  0  0  0  0
 33 34  1  0  0  0  0
 33 35  2  0  0  0  0
 36 37  2  0  0  0  0
 36 35  1  0  0  0  0
M  END
>  <minimizedAffinity>
-6.18539143

$$$$

 OpenBabel03252502513D

 37 40  0  0  0  0  0  0  0  0999 V2000
   41.0540   29.1130   41.9690 C   0  0  0  0  0  0  0  0  0  0  0  0
   40.2890   28.2850   42.7990 C   0  0  0  0  0  0  0  0  0  0  0  0
   38.9110   28.5330   42.8680 C   0  0  0  0  0  0  0  0  0  0  0  0
   38.4060   29.5420   42.1390 N   0  0  0  0  0  0  0  0  0  0  0  0
   39.1810   30.3350   41.3340 C   0  0  0  0  0  0  0  0  0  0  0  0
   40.4930   30.1160   41.2560 N   0  0  0  0  0  0  0  0  0  0  0  0
   42.1280   28.9360   41.9010 H   0  0  0  0  0  0  0  0  0  0  0  0
   40.7750   27.4900   43.3570 H   0  0  0  0  0  0  0  0  0  0  0  0
   37.6950   29.4630   38.8960 Cl  0  0  0  0  0  0  0  0  0  0  0  0
   37.8390   31.1180   39.4420 C   0  0  0  0  0  0  0  0  0  0  0  0
   38.5420   31.4180   40.5720 C   0  0  0  0  0  0  0  0  0  0  0  0
   38.6740   32.7310   41.0320 C   0  0  0  0  0  0  0  0  0  0  0  0
   38.0530   33.6940   40.2730 C   0  0  0  0  0  0  0  0  0  0  0  0
   37.3450   33.4000   39.1360 C   0  0  0  0  0  0  0  0  0  0  0  0
   37.2260   32.1080   38.7010 C   0  0  0  0  0  0  0  0  0  0  0  0
   39.2310   32.9550   41.9240 H   0  0  0  0  0  0  0  0  0  0  0  0
   38.1370   34.7270   40.6040 H   0  0  0  0  0  0  0  0  0  0  0  0
   36.8470   34.1460   38.5230 H   0  0  0  0  0  0  0  0  0  0  0  0
   36.6780   31.8340   37.8110 H   0  0  0  0  0  0  0  0  0  0  0  0
   38.1070   27.6560   43.7470 C   0  0  0  0  0  0  0  0  0  0  0  0
   38.7270   26.7650   43.9910 H   0  0  0  0  0  0  0  0  0  0  0  0
   37.9510   28.2090   44.6740 H   0  0  0  0  0  0  0  0  0  0  0  0
   36.8500   27.1830   43.0840 C   0  0  0  0  0  0  0  0  0  0  0  0
   36.2130   26.7450   43.9000 H   0  0  0  0  0  0  0  0  0  0  0  0
   36.2930   28.0840   42.7520 H   0  0  0  0  0  0  0  0  0  0  0  0
   36.8180   26.5780   40.6210 C   0  0  0  0  0  3  0  0  0  0  0  0
   37.0360   26.2860   41.9600 C   0  0  0  0  0  0  0  0  0  0  0  0
   37.4790   24.9930   42.2110 C   0  0  0  0  0  0  0  0  0  0  0  0
   37.6730   24.6920   43.2530 H   0  0  0  0  0  0  0  0  0  0  0  0
   37.7030   24.0240   41.2370 C   0  0  0  0  0  0  0  0  0  0  0  0
   38.1250   22.7510   41.3370 N   0  0  0  0  0  0  0  0  0  0  0  0
   38.3710   22.2480   42.2290 H   0  0  0  0  0  0  0  0  0  0  0  0
   38.1720   22.2520   40.0990 C   0  0  0  0  0  0  0  0  0  0  0  0
   38.4860   21.2310   39.9040 H   0  0  0  0  0  0  0  0  0  0  0  0
   37.7710   23.2330   39.2070 C   0  0  0  0  0  3  0  0  0  0  0  0
   37.4660   24.3790   39.9160 C   0  0  0  0  0  0  0  0  0  0  0  0
   37.0290   25.6420   39.6300 C   0  0  0  0  0  3  0  0  0  0  0  0
  1  2  1  0  0  0  0
  2  3  2  0  0  0  0
  2  8  1  0  0  0  0
  3 20  1  0  0  0  0
  4  3  1  0  0  0  0
  5  4  2  0  0  0  0
  6  5  1  0  0  0  0
  6  1  2  0  0  0  0
  7  1  1  0  0  0  0
  9 10  1  0  0  0  0
 10 11  1  0  0  0  0
 11 12  2  0  0  0  0
 11  5  1  0  0  0  0
 12 16  1  0  0  0  0
 13 17  1  0  0  0  0
 13 12  1  0  0  0  0
 14 13  2  0  0  0  0
 15 14  1  0  0  0  0
 15 10  2  0  0  0  0
 18 14  1  0  0  0  0
 19 15  1  0  0  0  0
 20 21  1  0  0  0  0
 20 22  1  0  0  0  0
 23 20  1  0  0  0  0
 23 24  1  0  0  0  0
 25 23  1  0  0  0  0
 26 27  1  0  0  0  0
 27 28  2  0  0  0  0
 27 23  1  0  0  0  0
 28 29  1  0  0  0  0
 30 31  1  0  0  0  0
 30 28  1  0  0  0  0
 31 32  1  0  0  0  0
 33 31  1  0  0  0  0
 34 33  1  0  0  0  0
 35 36  1  0  0  0  0
 35 33  2  0  0  0  0
 36 30  2  0  0  0  0
 37 36  1  0  0  0  0
 37 26  2  0  0  0  0
M  END
>  <minimizedAffinity>
-6.11043787

$$$$

 OpenBabel03252502513D

 37 40  0  0  0  0  0  0  0  0999 V2000
   37.9830   30.5200   37.9790 C   0  0  0  0  0  0  0  0  0  0  0  0
   37.9460   31.9030   38.1980 C   0  0  0  0  0  0  0  0  0  0  0  0
   37.8670   32.3450   39.5270 C   0  0  0  0  0  0  0  0  0  0  0  0
   37.8320   31.4260   40.5050 N   0  0  0  0  0  0  0  0  0  0  0  0
   37.8710   30.0780   40.2590 C   0  0  0  0  0  0  0  0  0  0  0  0
   37.9450   29.6370   39.0030 N   0  0  0  0  0  0  0  0  0  0  0  0
   38.0450   30.1560   36.9530 H   0  0  0  0  0  0  0  0  0  0  0  0
   37.9770   32.5800   37.3510 H   0  0  0  0  0  0  0  0  0  0  0  0
   35.1890   28.8950   40.8260 Cl  0  0  0  0  0  0  0  0  0  0  0  0
   36.6470   28.5510   41.7290 C   0  0  0  0  0  0  0  0  0  0  0  0
   37.8280   29.1430   41.3930 C   0  0  0  0  0  0  0  0  0  0  0  0
   39.0080   28.8880   42.0960 C   0  0  0  0  0  0  0  0  0  0  0  0
   38.8990   28.0060   43.1450 C   0  0  0  0  0  0  0  0  0  0  0  0
   37.7140   27.4070   43.4890 C   0  0  0  0  0  0  0  0  0  0  0  0
   36.5690   27.6690   42.7880 C   0  0  0  0  0  0  0  0  0  0  0  0
   39.9340   29.3610   41.8220 H   0  0  0  0  0  0  0  0  0  0  0  0
   39.8000   27.7860   43.7130 H   0  0  0  0  0  0  0  0  0  0  0  0
   37.6070   26.7070   44.3120 H   0  0  0  0  0  0  0  0  0  0  0  0
   35.6150   27.2180   43.0260 H   0  0  0  0  0  0  0  0  0  0  0  0
   37.8270   33.8060   39.7530 C   0  0  0  0  0  0  0  0  0  0  0  0
   37.9360   34.3030   38.7640 H   0  0  0  0  0  0  0  0  0  0  0  0
   36.8270   34.0330   40.1250 H   0  0  0  0  0  0  0  0  0  0  0  0
   38.9420   34.2750   40.6370 C   0  0  0  0  0  0  0  0  0  0  0  0
   38.8370   35.3920   40.7040 H   0  0  0  0  0  0  0  0  0  0  0  0
   38.7240   33.9140   41.6640 H   0  0  0  0  0  0  0  0  0  0  0  0
   41.0720   32.9250   40.9010 C   0  0  0  0  0  3  0  0  0  0  0  0
   40.2710   33.8480   40.2450 C   0  0  0  0  0  0  0  0  0  0  0  0
   40.8330   34.3980   39.0980 C   0  0  0  0  0  0  0  0  0  0  0  0
   40.2510   35.1390   38.5270 H   0  0  0  0  0  0  0  0  0  0  0  0
   42.0940   34.0860   38.6010 C   0  0  0  0  0  0  0  0  0  0  0  0
   42.7540   34.5360   37.5180 N   0  0  0  0  0  0  0  0  0  0  0  0
   42.3970   35.2450   36.8260 H   0  0  0  0  0  0  0  0  0  0  0  0
   43.9360   33.9170   37.4910 C   0  0  0  0  0  0  0  0  0  0  0  0
   44.6640   34.1050   36.7070 H   0  0  0  0  0  0  0  0  0  0  0  0
   44.0180   33.0620   38.5780 C   0  0  0  0  0  3  0  0  0  0  0  0
   42.8470   33.1550   39.3030 C   0  0  0  0  0  0  0  0  0  0  0  0
   42.3280   32.5930   40.4360 C   0  0  0  0  0  3  0  0  0  0  0  0
  1  2  2  0  0  0  0
  1  6  1  0  0  0  0
  2  3  1  0  0  0  0
  3 20  1  0  0  0  0
  3  4  2  0  0  0  0
  5  4  1  0  0  0  0
  5 11  1  0  0  0  0
  6  5  2  0  0  0  0
  7  1  1  0  0  0  0
  8  2  1  0  0  0  0
  9 10  1  0  0  0  0
 10 15  1  0  0  0  0
 11 10  2  0  0  0  0
 11 12  1  0  0  0  0
 12 13  2  0  0  0  0
 13 14  1  0  0  0  0
 13 17  1  0  0  0  0
 14 18  1  0  0  0  0
 15 19  1  0  0  0  0
 15 14  2  0  0  0  0
 16 12  1  0  0  0  0
 20 22  1  0  0  0  0
 20 23  1  0  0  0  0
 21 20  1  0  0  0  0
 23 24  1  0  0  0  0
 23 25  1  0  0  0  0
 27 23  1  0  0  0  0
 27 26  2  0  0  0  0
 28 27  1  0  0  0  0
 29 28  1  0  0  0  0
 30 28  2  0  0  0  0
 30 36  1  0  0  0  0
 31 30  1  0  0  0  0
 32 31  1  0  0  0  0
 33 31  1  0  0  0  0
 33 35  2  0  0  0  0
 34 33  1  0  0  0  0
 35 36  1  0  0  0  0
 36 37  2  0  0  0  0
 37 26  1  0  0  0  0
M  END
>  <minimizedAffinity>
-6.0070014

$$$$

 OpenBabel03252502513D

 37 40  0  0  0  0  0  0  0  0999 V2000
   36.3940   30.8830   40.7130 C   0  0  0  0  0  0  0  0  0  0  0  0
   36.7940   30.0250   41.7450 C   0  0  0  0  0  0  0  0  0  0  0  0
   38.1620   29.9730   42.0490 C   0  0  0  0  0  0  0  0  0  0  0  0
   39.0040   30.7420   41.3390 N   0  0  0  0  0  0  0  0  0  0  0  0
   38.5820   31.5730   40.3340 C   0  0  0  0  0  0  0  0  0  0  0  0
   37.2860   31.6360   40.0300 N   0  0  0  0  0  0  0  0  0  0  0  0
   35.3340   30.9380   40.4620 H   0  0  0  0  0  0  0  0  0  0  0  0
   36.0500   29.4360   42.2700 H   0  0  0  0  0  0  0  0  0  0  0  0
   39.6590   30.3220   37.8470 Cl  0  0  0  0  0  0  0  0  0  0  0  0
   40.1250   31.8930   38.4610 C   0  0  0  0  0  0  0  0  0  0  0  0
   39.5750   32.3790   39.6100 C   0  0  0  0  0  0  0  0  0  0  0  0
   39.9280   33.6300   40.1240 C   0  0  0  0  0  0  0  0  0  0  0  0
   40.8610   34.3320   39.3990 C   0  0  0  0  0  0  0  0  0  0  0  0
   41.4180   33.8480   38.2430 C   0  0  0  0  0  0  0  0  0  0  0  0
   41.0600   32.6210   37.7540 C   0  0  0  0  0  0  0  0  0  0  0  0
   39.4870   34.0030   41.0320 H   0  0  0  0  0  0  0  0  0  0  0  0
   41.1570   35.3090   39.7730 H   0  0  0  0  0  0  0  0  0  0  0  0
   42.1560   34.3860   37.6560 H   0  0  0  0  0  0  0  0  0  0  0  0
   41.4750   32.2040   36.8480 H   0  0  0  0  0  0  0  0  0  0  0  0
   38.5800   29.0660   43.1390 C   0  0  0  0  0  0  0  0  0  0  0  0
   39.5500   28.6080   42.8430 H   0  0  0  0  0  0  0  0  0  0  0  0
   38.7690   29.6960   44.0090 H   0  0  0  0  0  0  0  0  0  0  0  0
   37.5940   27.9620   43.3700 C   0  0  0  0  0  0  0  0  0  0  0  0
   37.4390   27.9100   44.4820 H   0  0  0  0  0  0  0  0  0  0  0  0
   36.6170   28.3040   42.9700 H   0  0  0  0  0  0  0  0  0  0  0  0
   39.1200   25.9770   42.9640 C   0  0  0  0  0  3  0  0  0  0  0  0
   37.9390   26.6830   42.7800 C   0  0  0  0  0  0  0  0  0  0  0  0
   37.0170   26.0710   41.9390 C   0  0  0  0  0  0  0  0  0  0  0  0
   36.0570   26.5760   41.7490 H   0  0  0  0  0  0  0  0  0  0  0  0
   37.2080   24.8470   41.3040 C   0  0  0  0  0  0  0  0  0  0  0  0
   36.4130   24.1470   40.4760 N   0  0  0  0  0  0  0  0  0  0  0  0
   35.4510   24.4320   40.1530 H   0  0  0  0  0  0  0  0  0  0  0  0
   37.0700   23.0330   40.1450 C   0  0  0  0  0  0  0  0  0  0  0  0
   36.6400   22.2900   39.4800 H   0  0  0  0  0  0  0  0  0  0  0  0
   38.3010   23.0360   40.7790 C   0  0  0  0  0  3  0  0  0  0  0  0
   38.4110   24.1910   41.5280 C   0  0  0  0  0  0  0  0  0  0  0  0
   39.3420   24.7620   42.3490 C   0  0  0  0  0  3  0  0  0  0  0  0
  1  2  1  0  0  0  0
  2  3  2  0  0  0  0
  2  8  1  0  0  0  0
  3 20  1  0  0  0  0
  4  3  1  0  0  0  0
  5  4  2  0  0  0  0
  6  5  1  0  0  0  0
  6  1  2  0  0  0  0
  7  1  1  0  0  0  0
  9 10  1  0  0  0  0
 10 11  1  0  0  0  0
 11 12  2  0  0  0  0
 11  5  1  0  0  0  0
 12 16  1  0  0  0  0
 13 17  1  0  0  0  0
 13 12  1  0  0  0  0
 14 13  2  0  0  0  0
 15 14  1  0  0  0  0
 15 10  2  0  0  0  0
 18 14  1  0  0  0  0
 19 15  1  0  0  0  0
 20 23  1  0  0  0  0
 20 22  1  0  0  0  0
 21 20  1  0  0  0  0
 23 24  1  0  0  0  0
 25 23  1  0  0  0  0
 27 26  1  0  0  0  0
 27 23  1  0  0  0  0
 28 27  2  0  0  0  0
 29 28  1  0  0  0  0
 30 36  2  0  0  0  0
 30 28  1  0  0  0  0
 31 30  1  0  0  0  0
 32 31  1  0  0  0  0
 33 31  1  0  0  0  0
 33 35  2  0  0  0  0
 34 33  1  0  0  0  0
 35 36  1  0  0  0  0
 36 37  1  0  0  0  0
 37 26  2  0  0  0  0
M  END
>  <minimizedAffinity>
-5.98170376

$$$$

 OpenBabel03252502513D

 37 40  0  0  0  0  0  0  0  0999 V2000
   39.5840   24.5920   42.8430 C   0  0  0  0  0  0  0  0  0  0  0  0
   39.4100   25.8640   43.4030 C   0  0  0  0  0  0  0  0  0  0  0  0
   38.4040   26.6770   42.8600 C   0  0  0  0  0  0  0  0  0  0  0  0
   37.6700   26.1940   41.8440 N   0  0  0  0  0  0  0  0  0  0  0  0
   37.8640   24.9440   41.3180 C   0  0  0  0  0  0  0  0  0  0  0  0
   38.8150   24.1560   41.8190 N   0  0  0  0  0  0  0  0  0  0  0  0
   40.3600   23.9440   43.2500 H   0  0  0  0  0  0  0  0  0  0  0  0
   40.0460   26.1800   44.2230 H   0  0  0  0  0  0  0  0  0  0  0  0
   38.7450   25.8410   38.6100 Cl  0  0  0  0  0  0  0  0  0  0  0  0
   37.3350   24.8570   38.9290 C   0  0  0  0  0  0  0  0  0  0  0  0
   37.0130   24.4980   40.2050 C   0  0  0  0  0  0  0  0  0  0  0  0
   35.8930   23.7130   40.4900 C   0  0  0  0  0  0  0  0  0  0  0  0
   35.1410   23.3300   39.4050 C   0  0  0  0  0  0  0  0  0  0  0  0
   35.4580   23.6880   38.1200 C   0  0  0  0  0  0  0  0  0  0  0  0
   36.5600   24.4570   37.8600 C   0  0  0  0  0  0  0  0  0  0  0  0
   35.6490   23.4360   41.5000 H   0  0  0  0  0  0  0  0  0  0  0  0
   34.2610   22.7190   39.5930 H   0  0  0  0  0  0  0  0  0  0  0  0
   34.8780   23.3960   37.2500 H   0  0  0  0  0  0  0  0  0  0  0  0
   36.8440   24.7610   36.8620 H   0  0  0  0  0  0  0  0  0  0  0  0
   38.2240   28.0190   43.4540 C   0  0  0  0  0  0  0  0  0  0  0  0
   37.2000   28.3680   43.1950 H   0  0  0  0  0  0  0  0  0  0  0  0
   38.2590   27.8850   44.5350 H   0  0  0  0  0  0  0  0  0  0  0  0
   39.2060   29.0150   42.9170 C   0  0  0  0  0  0  0  0  0  0  0  0
   39.7760   29.4010   43.8060 H   0  0  0  0  0  0  0  0  0  0  0  0
   39.9600   28.4510   42.3280 H   0  0  0  0  0  0  0  0  0  0  0  0
   37.4130   30.0500   41.4530 C   0  0  0  0  0  3  0  0  0  0  0  0
   38.6410   30.0700   42.0980 C   0  0  0  0  0  0  0  0  0  0  0  0
   39.3770   31.2360   41.9190 C   0  0  0  0  0  0  0  0  0  0  0  0
   40.3630   31.3200   42.4040 H   0  0  0  0  0  0  0  0  0  0  0  0
   38.9650   32.3290   41.1630 C   0  0  0  0  0  0  0  0  0  0  0  0
   39.5670   33.5050   40.9080 N   0  0  0  0  0  0  0  0  0  0  0  0
   40.5110   33.8070   41.2640 H   0  0  0  0  0  0  0  0  0  0  0  0
   38.7450   34.2070   40.1250 C   0  0  0  0  0  0  0  0  0  0  0  0
   38.9990   35.2030   39.7730 H   0  0  0  0  0  0  0  0  0  0  0  0
   37.6060   33.4570   39.8850 C   0  0  0  0  0  3  0  0  0  0  0  0
   37.7260   32.2480   40.5420 C   0  0  0  0  0  0  0  0  0  0  0  0
   36.9740   31.1170   40.6950 C   0  0  0  0  0  3  0  0  0  0  0  0
  1  7  1  0  0  0  0
  1  2  1  0  0  0  0
  2  8  1  0  0  0  0
  3  2  2  0  0  0  0
  3 20  1  0  0  0  0
  4  3  1  0  0  0  0
  5  6  1  0  0  0  0
  5  4  2  0  0  0  0
  6  1  2  0  0  0  0
  9 10  1  0  0  0  0
 10 11  1  0  0  0  0
 11 12  2  0  0  0  0
 11  5  1  0  0  0  0
 12 16  1  0  0  0  0
 13 17  1  0  0  0  0
 13 12  1  0  0  0  0
 14 13  2  0  0  0  0
 15 14  1  0  0  0  0
 15 10  2  0  0  0  0
 18 14  1  0  0  0  0
 19 15  1  0  0  0  0
 20 22  1  0  0  0  0
 21 20  1  0  0  0  0
 23 20  1  0  0  0  0
 23 24  1  0  0  0  0
 25 23  1  0  0  0  0
 26 27  1  0  0  0  0
 27 23  1  0  0  0  0
 28 27  2  0  0  0  0
 28 29  1  0  0  0  0
 30 28  1  0  0  0  0
 31 30  1  0  0  0  0
 31 32  1  0  0  0  0
 33 31  1  0  0  0  0
 34 33  1  0  0  0  0
 35 33  2  0  0  0  0
 35 36  1  0  0  0  0
 36 37  1  0  0  0  0
 36 30  2  0  0  0  0
 37 26  2  0  0  0  0
M  END
>  <minimizedAffinity>
-5.97297907

$$$$

 OpenBabel03252502513D

 37 40  0  0  0  0  0  0  0  0999 V2000
   32.7170   26.9240   36.0840 C   0  0  0  0  0  0  0  0  0  0  0  0
   33.7880   26.9790   36.9850 C   0  0  0  0  0  0  0  0  0  0  0  0
   34.0410   28.2070   37.6140 C   0  0  0  0  0  0  0  0  0  0  0  0
   33.2490   29.2510   37.3200 N   0  0  0  0  0  0  0  0  0  0  0  0
   32.2080   29.1650   36.4340 C   0  0  0  0  0  0  0  0  0  0  0  0
   31.9510   28.0080   35.8250 N   0  0  0  0  0  0  0  0  0  0  0  0
   32.5030   25.9790   35.5850 H   0  0  0  0  0  0  0  0  0  0  0  0
   34.3810   26.0890   37.1670 H   0  0  0  0  0  0  0  0  0  0  0  0
   30.4720   30.0360   38.7020 Cl  0  0  0  0  0  0  0  0  0  0  0  0
   30.5670   30.8370   37.1490 C   0  0  0  0  0  0  0  0  0  0  0  0
   31.3920   30.3610   36.1730 C   0  0  0  0  0  0  0  0  0  0  0  0
   31.4900   30.9790   34.9240 C   0  0  0  0  0  0  0  0  0  0  0  0
   30.7020   32.0910   34.7450 C   0  0  0  0  0  0  0  0  0  0  0  0
   29.8700   32.5750   35.7220 C   0  0  0  0  0  0  0  0  0  0  0  0
   29.7880   31.9560   36.9400 C   0  0  0  0  0  0  0  0  0  0  0  0
   32.1440   30.5950   34.1610 H   0  0  0  0  0  0  0  0  0  0  0  0
   30.7540   32.5960   33.7830 H   0  0  0  0  0  0  0  0  0  0  0  0
   29.2400   33.4510   35.6020 H   0  0  0  0  0  0  0  0  0  0  0  0
   29.1450   32.3040   37.7360 H   0  0  0  0  0  0  0  0  0  0  0  0
   35.1730   28.2610   38.5640 C   0  0  0  0  0  0  0  0  0  0  0  0
   35.0360   29.1630   39.2010 H   0  0  0  0  0  0  0  0  0  0  0  0
   35.0750   27.3870   39.2100 H   0  0  0  0  0  0  0  0  0  0  0  0
   36.4950   28.3760   37.8680 C   0  0  0  0  0  0  0  0  0  0  0  0
   37.0410   27.4160   38.0760 H   0  0  0  0  0  0  0  0  0  0  0  0
   36.2960   28.3510   36.7760 H   0  0  0  0  0  0  0  0  0  0  0  0
   38.5800   29.8190   37.8180 C   0  0  0  0  0  3  0  0  0  0  0  0
   37.2700   29.5570   38.1930 C   0  0  0  0  0  0  0  0  0  0  0  0
   36.6730   30.5520   38.9590 C   0  0  0  0  0  0  0  0  0  0  0  0
   35.6320   30.4110   39.2920 H   0  0  0  0  0  0  0  0  0  0  0  0
   37.2900   31.7370   39.3480 C   0  0  0  0  0  0  0  0  0  0  0  0
   36.8370   32.7720   40.0780 N   0  0  0  0  0  0  0  0  0  0  0  0
   35.8770   32.8580   40.5010 H   0  0  0  0  0  0  0  0  0  0  0  0
   37.8300   33.6600   40.1620 C   0  0  0  0  0  0  0  0  0  0  0  0
   37.7190   34.5950   40.7030 H   0  0  0  0  0  0  0  0  0  0  0  0
   38.9270   33.1720   39.4710 C   0  0  0  0  0  3  0  0  0  0  0  0
   38.6020   31.9390   38.9400 C   0  0  0  0  0  0  0  0  0  0  0  0
   39.2230   30.9830   38.1870 C   0  0  0  0  0  3  0  0  0  0  0  0
  1  2  1  0  0  0  0
  2  8  1  0  0  0  0
  2  3  2  0  0  0  0
  3 20  1  0  0  0  0
  4  3  1  0  0  0  0
  5  4  2  0  0  0  0
  6  1  2  0  0  0  0
  6  5  1  0  0  0  0
  7  1  1  0  0  0  0
 10  9  1  0  0  0  0
 11  5  1  0  0  0  0
 11 10  2  0  0  0  0
 12 11  1  0  0  0  0
 13 12  2  0  0  0  0
 13 14  1  0  0  0  0
 14 15  2  0  0  0  0
 15 10  1  0  0  0  0
 15 19  1  0  0  0  0
 16 12  1  0  0  0  0
 17 13  1  0  0  0  0
 18 14  1  0  0  0  0
 20 21  1  0  0  0  0
 20 22  1  0  0  0  0
 23 24  1  0  0  0  0
 23 27  1  0  0  0  0
 23 20  1  0  0  0  0
 25 23  1  0  0  0  0
 26 37  2  0  0  0  0
 26 27  1  0  0  0  0
 27 28  2  0  0  0  0
 28 29  1  0  0  0  0
 28 30  1  0  0  0  0
 30 31  1  0  0  0  0
 31 33  1  0  0  0  0
 31 32  1  0  0  0  0
 33 34  1  0  0  0  0
 35 33  2  0  0  0  0
 36 30  2  0  0  0  0
 36 35  1  0  0  0  0
 37 36  1  0  0  0  0
M  END
>  <minimizedAffinity>
-5.92100525

$$$$
