
 OpenBabel03252507423D

 34 37  0  0  0  0  0  0  0  0999 V2000
   44.2520   34.4320   41.5470 C   0  0  0  0  0  0  0  0  0  0  0  0
   43.6370   35.6920   41.8240 C   0  0  0  0  0  0  0  0  0  0  0  0
   41.9510   35.4860   41.0850 S   0  0  0  0  0  0  0  0  0  0  0  0
   42.3740   33.7430   40.5370 C   0  0  0  0  0  0  0  0  0  0  0  0
   43.4480   33.6190   40.9020 N   0  0  0  0  0  0  0  0  0  0  0  0
   44.1490   36.5240   42.3620 H   0  0  0  0  0  0  0  0  0  0  0  0
   41.4780   32.7020   38.4730 C   0  0  0  0  0  0  0  0  0  0  0  0
   41.4230   32.8880   39.8170 C   0  0  0  0  0  0  0  0  0  0  0  0
   40.4340   32.2480   40.5510 C   0  0  0  0  0  0  0  0  0  0  0  0
   40.3610   32.3750   41.6290 H   0  0  0  0  0  0  0  0  0  0  0  0
   39.4840   31.4180   39.9750 C   0  0  0  0  0  0  0  0  0  0  0  0
   38.4560   30.7060   40.4610 N   0  0  0  0  0  0  0  0  0  0  0  0
   38.1620   30.6530   41.4790 H   0  0  0  0  0  0  0  0  0  0  0  0
   37.8750   30.0810   39.4160 C   0  0  0  0  0  0  0  0  0  0  0  0
   37.0070   29.4340   39.5500 H   0  0  0  0  0  0  0  0  0  0  0  0
   38.5460   30.4010   38.2430 C   0  0  0  0  0  0  0  0  0  0  0  0
   39.5700   31.2510   38.5960 C   0  0  0  0  0  0  0  0  0  0  0  0
   40.5490   31.8850   37.8750 C   0  0  0  0  0  0  0  0  0  0  0  0
   45.6400   34.1370   41.9660 C   0  0  0  0  0  0  0  0  0  0  0  0
   45.6330   33.0790   42.3570 H   0  0  0  0  0  0  0  0  0  0  0  0
   45.9510   34.7470   42.8500 H   0  0  0  0  0  0  0  0  0  0  0  0
   46.6740   34.2470   40.9090 C   0  0  0  0  0  0  0  0  0  0  0  0
   46.6140   35.3050   40.5150 H   0  0  0  0  0  0  0  0  0  0  0  0
   46.4990   33.6160   40.0450 H   0  0  0  0  0  0  0  0  0  0  0  0
   48.0550   34.1240   41.4220 C   0  0  0  0  0  0  0  0  0  0  0  0
   48.7350   32.9250   41.1430 C   0  0  0  0  0  0  0  0  0  0  0  0
   50.0270   32.7520   41.5960 C   0  0  0  0  0  0  0  0  0  0  0  0
   50.6000   33.7670   42.3070 N   0  0  0  0  0  0  0  0  0  0  0  0
   49.9250   34.9020   42.5590 C   0  0  0  0  0  0  0  0  0  0  0  0
   48.6790   35.0640   42.1190 N   0  0  0  0  0  0  0  0  0  0  0  0
   50.5830   31.8650   41.4100 H   0  0  0  0  0  0  0  0  0  0  0  0
   50.3170   35.7450   43.1150 H   0  0  0  0  0  0  0  0  0  0  0  0
   47.9210   31.6230   40.1970 S   0  0  0  0  0  0  0  0  0  0  0  0
   48.1720   30.4010   40.8880 H   0  0  0  0  0  0  0  0  0  0  0  0
  1  2  2  0  0  0  0
  1 19  1  0  0  0  0
  2  6  1  0  0  0  0
  3  2  1  0  0  0  0
  4  5  2  0  0  0  0
  4  3  1  0  0  0  0
  5  1  1  0  0  0  0
  7  8  1  0  0  0  0
  8  4  1  0  0  0  0
  8  9  2  0  0  0  0
  9 10  1  0  0  0  0
 11 12  1  0  0  0  0
 11  9  1  0  0  0  0
 12 13  1  0  0  0  0
 14 15  1  0  0  0  0
 14 12  1  0  0  0  0
 16 17  1  0  0  0  0
 16 14  2  0  0  0  0
 17 11  2  0  0  0  0
 18  7  2  0  0  0  0
 18 17  1  0  0  0  0
 19 20  1  0  0  0  0
 19 21  1  0  0  0  0
 22 25  1  0  0  0  0
 22 19  1  0  0  0  0
 23 22  1  0  0  0  0
 24 22  1  0  0  0  0
 25 30  1  0  0  0  0
 26 25  2  0  0  0  0
 26 27  1  0  0  0  0
 27 28  2  0  0  0  0
 28 29  1  0  0  0  0
 29 32  1  0  0  0  0
 30 29  2  0  0  0  0
 31 27  1  0  0  0  0
 33 34  1  0  0  0  0
 33 26  1  0  0  0  0
M  END
>  <minimizedAffinity>
-4.87696362

>  <minimizedRMSD>
2.304847

$$$$
