REMARK  Name = 
REMARK  4 active torsions:
REMARK  status: ('A' for Active; 'I' for Inactive)
REMARK    1  A    between atoms: C_1  and  O_12
REMARK    2  A    between atoms: C_2  and  C_7
REMARK    3  A    between atoms: O_12  and  C_13
REMARK    4  A    between atoms: C_20  and  C_36
REMARK                            x       y       z     vdW  Elec       q    Type
REMARK                         _______ _______ _______ _____ _____    ______ ____
ROOT
ATOM      1  C   UNL     1      43.385  34.471  40.767  0.00  0.00    +0.000 C 
ATOM      2  O   UNL     1      43.300  35.725  40.543  0.00  0.00    +0.000 OA
ATOM      3  N   UNL     1      42.042  34.051  40.393  0.00  0.00    +0.000 N 
ATOM      4  C   UNL     1      41.687  34.326  39.021  0.00  0.00    +0.000 C 
ATOM      5  C   UNL     1      40.842  35.617  39.076  0.00  0.00    +0.000 C 
ATOM      6  C   UNL     1      40.032  35.549  40.383  0.00  0.00    +0.000 C 
ATOM      7  C   UNL     1      39.724  34.111  40.731  0.00  0.00    +0.000 C 
ATOM      8  C   UNL     1      41.015  33.404  41.187  0.00  0.00    +0.000 C 
ATOM      9  H   UNL     1      41.122  33.508  38.545  0.00  0.00    +0.000 HD
ATOM     10  H   UNL     1      42.546  34.570  38.368  0.00  0.00    +0.000 HD
ATOM     11  H   UNL     1      40.143  35.579  38.238  0.00  0.00    +0.000 HD
ATOM     12  H   UNL     1      41.518  36.481  39.107  0.00  0.00    +0.000 HD
ATOM     13  H   UNL     1      40.639  35.963  41.209  0.00  0.00    +0.000 HD
ATOM     14  H   UNL     1      39.072  36.083  40.278  0.00  0.00    +0.000 HD
ATOM     15  H   UNL     1      38.922  34.050  41.459  0.00  0.00    +0.000 HD
ATOM     16  H   UNL     1      39.444  33.569  39.794  0.00  0.00    +0.000 HD
ATOM     17  H   UNL     1      41.178  33.617  42.246  0.00  0.00    +0.000 HD
ENDROOT
BRANCH   8  19
ATOM     18  C   UNL     1      40.155  31.383  39.890  0.00  0.00    +0.000 A 
ATOM     19  C   UNL     1      40.944  31.959  40.852  0.00  0.00    +0.000 A 
ATOM     20  C   UNL     1      41.751  31.104  41.575  0.00  0.00    +0.000 A 
ATOM     21  H   UNL     1      42.435  31.370  42.367  0.00  0.00    +0.000 HD
ATOM     22  C   UNL     1      41.772  29.726  41.350  0.00  0.00    +0.000 A 
ATOM     23  N   UNL     1      42.417  28.658  41.859  0.00  0.00    +0.000 N 
ATOM     24  H   UNL     1      43.117  28.721  42.632  0.00  0.00    +0.000 HD
ATOM     25  C   UNL     1      42.027  27.533  41.233  0.00  0.00    +0.000 A 
ATOM     26  H   UNL     1      42.414  26.533  41.475  0.00  0.00    +0.000 HD
ATOM     27  C   UNL     1      41.088  27.833  40.267  0.00  0.00    +0.000 A 
ATOM     28  C   UNL     1      40.945  29.201  40.356  0.00  0.00    +0.000 A 
ATOM     29  C   UNL     1      40.131  30.040  39.623  0.00  0.00    +0.000 A 
ENDBRANCH   8  19
BRANCH   1  30
ATOM     30  O   UNL     1      44.469  33.793  41.228  0.00  0.00    +0.000 OA
BRANCH  30  31
ATOM     31  C   UNL     1      45.791  34.131  41.081  0.00  0.00    +0.000 A 
ATOM     32  C   UNL     1      46.422  34.760  42.157  0.00  0.00    +0.000 A 
ATOM     33  C   UNL     1      47.772  35.096  41.982  0.00  0.00    +0.000 A 
ATOM     34  N   UNL     1      48.379  34.793  40.787  0.00  0.00    +0.000 NA
ATOM     35  C   UNL     1      47.727  34.197  39.807  0.00  0.00    +0.000 A 
ATOM     36  N   UNL     1      46.434  33.861  39.941  0.00  0.00    +0.000 NA
ATOM     37  H   UNL     1      48.245  35.578  42.814  0.00  0.00    +0.000 HD
ATOM     38  H   UNL     1      48.301  34.001  38.901  0.00  0.00    +0.000 HD
BRANCH  32  39
ATOM     39  C   UNL     1      45.689  35.033  43.371  0.00  0.00    +0.000 A 
ATOM     40  C   UNL     1      45.040  36.237  43.615  0.00  0.00    +0.000 A 
ATOM     41  C   UNL     1      44.484  36.071  44.856  0.00  0.00    +0.000 A 
ATOM     42  N   UNL     1      44.771  34.845  45.343  0.00  0.00    +0.000 N 
ATOM     43  N   UNL     1      45.496  34.247  44.427  0.00  0.00    +0.000 NA
ATOM     44  H   UNL     1      44.970  37.125  42.990  0.00  0.00    +0.000 HD
ATOM     45  H   UNL     1      43.886  36.759  45.444  0.00  0.00    +0.000 HD
ATOM     46  H   UNL     1      44.498  34.413  46.253  0.00  0.00    +0.000 HD
ENDBRANCH  32  39
ENDBRANCH  30  31
ENDBRANCH   1  30
TORSDOF 4
