
 OpenBabel03252506113D

 33 36  0  0  0  0  0  0  0  0999 V2000
   37.7760   28.1180   39.7890 F   0  0  0  0  0  0  0  0  0  0  0  0
   37.5510   28.0380   41.0960 C   0  0  0  0  0  0  0  0  0  0  0  0
   37.2250   26.8340   41.6600 C   0  0  0  0  0  0  0  0  0  0  0  0
   36.9790   26.6790   43.0140 C   0  0  0  0  0  0  0  0  0  0  0  0
   37.0560   27.7660   43.8670 C   0  0  0  0  0  0  0  0  0  0  0  0
   37.3920   28.9710   43.2490 C   0  0  0  0  0  0  0  0  0  0  0  0
   37.6430   29.1540   41.8960 C   0  0  0  0  0  0  0  0  0  0  0  0
   36.7190   25.7350   43.4780 H   0  0  0  0  0  0  0  0  0  0  0  0
   36.8800   27.7160   44.9150 H   0  0  0  0  0  0  0  0  0  0  0  0
   37.4650   29.8550   43.8840 H   0  0  0  0  0  0  0  0  0  0  0  0
   37.0380   31.1960   40.6540 C   0  0  0  0  0  3  0  0  0  0  0  0
   37.9830   30.4660   41.3850 C   0  0  0  0  0  0  0  0  0  0  0  0
   39.2290   31.0230   41.6030 C   0  0  0  0  0  0  0  0  0  0  0  0
   39.9990   30.4840   42.1710 H   0  0  0  0  0  0  0  0  0  0  0  0
   39.5720   32.2720   41.1240 C   0  0  0  0  0  0  0  0  0  0  0  0
   40.6560   33.0710   41.1590 N   0  0  0  0  0  0  0  0  0  0  0  0
   41.4970   32.7280   41.6590 H   0  0  0  0  0  0  0  0  0  0  0  0
   40.4000   34.2190   40.4950 C   0  0  0  0  0  0  0  0  0  0  0  0
   41.1960   34.9450   40.4520 H   0  0  0  0  0  0  0  0  0  0  0  0
   39.0950   34.1960   39.9910 C   0  0  0  0  0  3  0  0  0  0  0  0
   38.6120   32.9670   40.4040 C   0  0  0  0  0  0  0  0  0  0  0  0
   37.3410   32.4570   40.1540 C   0  0  0  0  0  3  0  0  0  0  0  0
   37.5830   23.3800   40.4250 C   0  0  0  0  0  0  0  0  0  0  0  0
   36.8970   23.4410   39.1950 C   0  0  0  0  0  0  0  0  0  0  0  0
   36.3180   24.6590   38.7960 C   0  0  0  0  0  0  0  0  0  0  0  0
   36.4630   25.7200   39.6470 N   0  0  0  0  0  0  0  0  0  0  0  0
   37.1240   25.6330   40.8150 C   0  0  0  0  0  0  0  0  0  0  0  0
   37.6690   24.4810   41.1890 N   0  0  0  0  0  0  0  0  0  0  0  0
   36.7930   22.5870   38.5350 H   0  0  0  0  0  0  0  0  0  0  0  0
   35.7780   24.7590   37.8590 H   0  0  0  0  0  0  0  0  0  0  0  0
   38.1650   22.1570   40.8260 N   0  0  0  0  0  0  0  0  0  0  0  0
   38.8640   21.7400   40.1560 H   0  0  0  0  0  0  0  0  0  0  0  0
   38.0040   21.6020   41.6940 H   0  0  0  0  0  0  0  0  0  0  0  0
  1  2  1  0  0  0  0
  2  3  2  0  0  0  0
  2  7  1  0  0  0  0
  3  4  1  0  0  0  0
  4  8  1  0  0  0  0
  4  5  2  0  0  0  0
  5  9  1  0  0  0  0
  6  5  1  0  0  0  0
  6 10  1  0  0  0  0
  7  6  2  0  0  0  0
 11 12  1  0  0  0  0
 12 13  2  0  0  0  0
 12  7  1  0  0  0  0
 13 14  1  0  0  0  0
 15 16  1  0  0  0  0
 15 13  1  0  0  0  0
 16 17  1  0  0  0  0
 18 16  1  0  0  0  0
 19 18  1  0  0  0  0
 20 21  1  0  0  0  0
 20 18  2  0  0  0  0
 21 15  2  0  0  0  0
 22 21  1  0  0  0  0
 22 11  2  0  0  0  0
 23 31  1  0  0  0  0
 23 28  1  0  0  0  0
 24 23  2  0  0  0  0
 25 24  1  0  0  0  0
 25 26  2  0  0  0  0
 26 27  1  0  0  0  0
 27 28  2  0  0  0  0
 27  3  1  0  0  0  0
 29 24  1  0  0  0  0
 30 25  1  0  0  0  0
 31 33  1  0  0  0  0
 32 31  1  0  0  0  0
M  END
>  <minimizedAffinity>
-6.72480917

$$$$

 OpenBabel03252506113D

 33 36  0  0  0  0  0  0  0  0999 V2000
   38.1150   28.2660   39.8000 F   0  0  0  0  0  0  0  0  0  0  0  0
   37.8390   28.1850   41.0970 C   0  0  0  0  0  0  0  0  0  0  0  0
   37.9700   29.2900   41.8940 C   0  0  0  0  0  0  0  0  0  0  0  0
   37.6990   29.2760   43.2510 C   0  0  0  0  0  0  0  0  0  0  0  0
   37.2750   28.1110   43.8670 C   0  0  0  0  0  0  0  0  0  0  0  0
   37.1540   27.0110   43.0160 C   0  0  0  0  0  0  0  0  0  0  0  0
   37.4190   26.9980   41.6540 C   0  0  0  0  0  0  0  0  0  0  0  0
   37.7970   30.1390   43.8980 H   0  0  0  0  0  0  0  0  0  0  0  0
   37.0500   28.0310   44.9030 H   0  0  0  0  0  0  0  0  0  0  0  0
   36.8220   26.0710   43.4600 H   0  0  0  0  0  0  0  0  0  0  0  0
   36.5110   25.8000   39.7000 C   0  0  0  0  0  3  0  0  0  0  0  0
   37.2530   25.7810   40.8870 C   0  0  0  0  0  0  0  0  0  0  0  0
   37.8130   24.5870   41.3010 C   0  0  0  0  0  0  0  0  0  0  0  0
   38.4020   24.5280   42.2260 H   0  0  0  0  0  0  0  0  0  0  0  0
   37.6650   23.4160   40.5840 C   0  0  0  0  0  0  0  0  0  0  0  0
   38.0660   22.1350   40.7050 N   0  0  0  0  0  0  0  0  0  0  0  0
   38.6420   21.8820   41.5290 H   0  0  0  0  0  0  0  0  0  0  0  0
   37.6050   21.4110   39.6630 C   0  0  0  0  0  0  0  0  0  0  0  0
   37.8600   20.3640   39.6470 H   0  0  0  0  0  0  0  0  0  0  0  0
   36.8630   22.2300   38.8050 C   0  0  0  0  0  3  0  0  0  0  0  0
   36.9240   23.4720   39.4130 C   0  0  0  0  0  0  0  0  0  0  0  0
   36.3380   24.6450   38.9470 C   0  0  0  0  0  3  0  0  0  0  0  0
   37.9410   32.6240   40.3230 C   0  0  0  0  0  0  0  0  0  0  0  0
   39.3180   32.9130   40.2360 C   0  0  0  0  0  0  0  0  0  0  0  0
   40.2450   31.9700   40.7130 C   0  0  0  0  0  0  0  0  0  0  0  0
   39.7360   30.8150   41.2390 N   0  0  0  0  0  0  0  0  0  0  0  0
   38.4170   30.5650   41.3090 C   0  0  0  0  0  0  0  0  0  0  0  0
   37.5440   31.4580   40.8580 N   0  0  0  0  0  0  0  0  0  0  0  0
   39.7000   33.8370   39.8140 H   0  0  0  0  0  0  0  0  0  0  0  0
   41.3160   32.1450   40.6700 H   0  0  0  0  0  0  0  0  0  0  0  0
   37.0090   33.5710   39.8430 N   0  0  0  0  0  0  0  0  0  0  0  0
   37.1180   33.8510   38.8320 H   0  0  0  0  0  0  0  0  0  0  0  0
   36.2230   34.0370   40.3460 H   0  0  0  0  0  0  0  0  0  0  0  0
  1  2  1  0  0  0  0
  2  7  2  0  0  0  0
  2  3  1  0  0  0  0
  3  4  2  0  0  0  0
  4  5  1  0  0  0  0
  4  8  1  0  0  0  0
  5  9  1  0  0  0  0
  6 10  1  0  0  0  0
  6  5  2  0  0  0  0
  7  6  1  0  0  0  0
 11 12  1  0  0  0  0
 12 13  2  0  0  0  0
 12  7  1  0  0  0  0
 13 14  1  0  0  0  0
 15 16  1  0  0  0  0
 15 13  1  0  0  0  0
 16 17  1  0  0  0  0
 18 16  1  0  0  0  0
 19 18  1  0  0  0  0
 20 21  1  0  0  0  0
 20 18  2  0  0  0  0
 21 15  2  0  0  0  0
 22 21  1  0  0  0  0
 22 11  2  0  0  0  0
 23 28  1  0  0  0  0
 24 23  2  0  0  0  0
 24 25  1  0  0  0  0
 25 26  2  0  0  0  0
 26 27  1  0  0  0  0
 27  3  1  0  0  0  0
 28 27  2  0  0  0  0
 29 24  1  0  0  0  0
 30 25  1  0  0  0  0
 31 23  1  0  0  0  0
 31 33  1  0  0  0  0
 32 31  1  0  0  0  0
M  END
>  <minimizedAffinity>
-6.69701529

$$$$

 OpenBabel03252506113D

 33 36  0  0  0  0  0  0  0  0999 V2000
   40.3210   30.5620   40.5210 F   0  0  0  0  0  0  0  0  0  0  0  0
   39.2400   31.3030   40.3040 C   0  0  0  0  0  0  0  0  0  0  0  0
   39.3720   32.5800   39.8270 C   0  0  0  0  0  0  0  0  0  0  0  0
   38.2890   33.4050   39.5770 C   0  0  0  0  0  0  0  0  0  0  0  0
   37.0000   32.9570   39.8080 C   0  0  0  0  0  0  0  0  0  0  0  0
   36.9140   31.6510   40.2930 C   0  0  0  0  0  0  0  0  0  0  0  0
   37.9820   30.8040   40.5520 C   0  0  0  0  0  0  0  0  0  0  0  0
   38.3730   34.4180   39.1990 H   0  0  0  0  0  0  0  0  0  0  0  0
   36.1270   33.5390   39.6380 H   0  0  0  0  0  0  0  0  0  0  0  0
   35.9160   31.2570   40.4900 H   0  0  0  0  0  0  0  0  0  0  0  0
   37.7440   29.2320   42.4370 C   0  0  0  0  0  3  0  0  0  0  0  0
   37.7490   29.4660   41.0560 C   0  0  0  0  0  0  0  0  0  0  0  0
   37.5280   28.4030   40.2020 C   0  0  0  0  0  0  0  0  0  0  0  0
   37.5240   28.5430   39.1120 H   0  0  0  0  0  0  0  0  0  0  0  0
   37.3040   27.1200   40.6630 C   0  0  0  0  0  0  0  0  0  0  0  0
   37.0660   25.9110   40.1200 N   0  0  0  0  0  0  0  0  0  0  0  0
   37.0240   25.8420   39.0850 H   0  0  0  0  0  0  0  0  0  0  0  0
   36.9220   24.9900   41.0970 C   0  0  0  0  0  0  0  0  0  0  0  0
   36.7260   23.9760   40.7860 H   0  0  0  0  0  0  0  0  0  0  0  0
   37.0700   25.5980   42.3490 C   0  0  0  0  0  3  0  0  0  0  0  0
   37.3070   26.9250   42.0360 C   0  0  0  0  0  0  0  0  0  0  0  0
   37.5220   27.9570   42.9450 C   0  0  0  0  0  3  0  0  0  0  0  0
   42.3100   33.9410   38.0660 C   0  0  0  0  0  0  0  0  0  0  0  0
   43.2170   34.1350   39.1280 C   0  0  0  0  0  0  0  0  0  0  0  0
   42.8210   33.8000   40.4350 C   0  0  0  0  0  0  0  0  0  0  0  0
   41.5580   33.3000   40.5870 N   0  0  0  0  0  0  0  0  0  0  0  0
   40.7120   33.1250   39.5570 C   0  0  0  0  0  0  0  0  0  0  0  0
   41.0900   33.4430   38.3230 N   0  0  0  0  0  0  0  0  0  0  0  0
   44.2160   34.5330   38.9840 H   0  0  0  0  0  0  0  0  0  0  0  0
   43.4820   33.9310   41.2860 H   0  0  0  0  0  0  0  0  0  0  0  0
   42.7080   34.2770   36.7530 N   0  0  0  0  0  0  0  0  0  0  0  0
   43.5770   33.7940   36.3990 H   0  0  0  0  0  0  0  0  0  0  0  0
   42.2660   34.9360   36.0770 H   0  0  0  0  0  0  0  0  0  0  0  0
  2  1  1  0  0  0  0
  2  7  1  0  0  0  0
  3  2  2  0  0  0  0
  4  5  2  0  0  0  0
  4  3  1  0  0  0  0
  5  6  1  0  0  0  0
  6 10  1  0  0  0  0
  6  7  2  0  0  0  0
  7 12  1  0  0  0  0
  8  4  1  0  0  0  0
  9  5  1  0  0  0  0
 11 22  1  0  0  0  0
 12 11  2  0  0  0  0
 13 15  2  0  0  0  0
 13 12  1  0  0  0  0
 14 13  1  0  0  0  0
 15 21  1  0  0  0  0
 16 15  1  0  0  0  0
 16 18  1  0  0  0  0
 17 16  1  0  0  0  0
 18 20  2  0  0  0  0
 19 18  1  0  0  0  0
 21 20  1  0  0  0  0
 21 22  2  0  0  0  0
 23 28  2  0  0  0  0
 23 24  1  0  0  0  0
 24 25  2  0  0  0  0
 25 26  1  0  0  0  0
 25 30  1  0  0  0  0
 27  3  1  0  0  0  0
 27 26  2  0  0  0  0
 28 27  1  0  0  0  0
 29 24  1  0  0  0  0
 31 23  1  0  0  0  0
 32 31  1  0  0  0  0
 33 31  1  0  0  0  0
M  END
>  <minimizedAffinity>
-6.64309597

$$$$

 OpenBabel03252506113D

 33 36  0  0  0  0  0  0  0  0999 V2000
   38.1710   27.7790   39.9060 F   0  0  0  0  0  0  0  0  0  0  0  0
   37.7520   27.7220   41.1650 C   0  0  0  0  0  0  0  0  0  0  0  0
   37.7850   28.8450   41.9480 C   0  0  0  0  0  0  0  0  0  0  0  0
   37.3630   28.8560   43.2670 C   0  0  0  0  0  0  0  0  0  0  0  0
   36.8820   27.7000   43.8560 C   0  0  0  0  0  0  0  0  0  0  0  0
   36.8660   26.5810   43.0220 C   0  0  0  0  0  0  0  0  0  0  0  0
   37.2820   26.5430   41.6990 C   0  0  0  0  0  0  0  0  0  0  0  0
   37.3820   29.7340   43.9020 H   0  0  0  0  0  0  0  0  0  0  0  0
   36.5430   27.6400   44.8630 H   0  0  0  0  0  0  0  0  0  0  0  0
   36.4940   25.6470   43.4460 H   0  0  0  0  0  0  0  0  0  0  0  0
   37.9240   24.1840   41.3790 C   0  0  0  0  0  3  0  0  0  0  0  0
   37.2120   25.3080   40.9450 C   0  0  0  0  0  0  0  0  0  0  0  0
   36.4510   25.2100   39.7950 C   0  0  0  0  0  0  0  0  0  0  0  0
   35.8770   26.0680   39.4200 H   0  0  0  0  0  0  0  0  0  0  0  0
   36.3710   24.0410   39.0620 C   0  0  0  0  0  0  0  0  0  0  0  0
   35.7470   23.6280   37.9420 N   0  0  0  0  0  0  0  0  0  0  0  0
   35.1480   24.3090   37.4390 H   0  0  0  0  0  0  0  0  0  0  0  0
   36.0510   22.3350   37.7000 C   0  0  0  0  0  0  0  0  0  0  0  0
   35.6090   21.8860   36.8250 H   0  0  0  0  0  0  0  0  0  0  0  0
   36.9140   21.8550   38.6910 C   0  0  0  0  0  3  0  0  0  0  0  0
   37.0900   22.9480   39.5210 C   0  0  0  0  0  0  0  0  0  0  0  0
   37.8720   22.9880   40.6720 C   0  0  0  0  0  3  0  0  0  0  0  0
   37.8950   32.2290   40.4940 C   0  0  0  0  0  0  0  0  0  0  0  0
   39.2820   32.4410   40.3610 C   0  0  0  0  0  0  0  0  0  0  0  0
   40.1690   31.4280   40.7680 C   0  0  0  0  0  0  0  0  0  0  0  0
   39.6120   30.2870   41.2740 N   0  0  0  0  0  0  0  0  0  0  0  0
   38.2850   30.1120   41.3890 C   0  0  0  0  0  0  0  0  0  0  0  0
   37.4490   31.0700   41.0040 N   0  0  0  0  0  0  0  0  0  0  0  0
   39.7030   33.3550   39.9550 H   0  0  0  0  0  0  0  0  0  0  0  0
   41.2460   31.5420   40.6870 H   0  0  0  0  0  0  0  0  0  0  0  0
   37.0030   33.2460   40.0840 N   0  0  0  0  0  0  0  0  0  0  0  0
   37.0900   33.5550   39.0790 H   0  0  0  0  0  0  0  0  0  0  0  0
   36.2670   33.7380   40.6330 H   0  0  0  0  0  0  0  0  0  0  0  0
  1  2  1  0  0  0  0
  2  7  2  0  0  0  0
  2  3  1  0  0  0  0
  3  4  2  0  0  0  0
  4  5  1  0  0  0  0
  4  8  1  0  0  0  0
  5  9  1  0  0  0  0
  6 10  1  0  0  0  0
  6  5  2  0  0  0  0
  7  6  1  0  0  0  0
 12 11  1  0  0  0  0
 12  7  1  0  0  0  0
 13 12  2  0  0  0  0
 14 13  1  0  0  0  0
 15 21  2  0  0  0  0
 15 13  1  0  0  0  0
 16 15  1  0  0  0  0
 17 16  1  0  0  0  0
 18 16  1  0  0  0  0
 18 20  2  0  0  0  0
 19 18  1  0  0  0  0
 20 21  1  0  0  0  0
 21 22  1  0  0  0  0
 22 11  2  0  0  0  0
 23 28  1  0  0  0  0
 24 23  2  0  0  0  0
 24 25  1  0  0  0  0
 25 26  2  0  0  0  0
 26 27  1  0  0  0  0
 27  3  1  0  0  0  0
 28 27  2  0  0  0  0
 29 24  1  0  0  0  0
 30 25  1  0  0  0  0
 31 23  1  0  0  0  0
 31 33  1  0  0  0  0
 32 31  1  0  0  0  0
M  END
>  <minimizedAffinity>
-6.26658583

$$$$

 OpenBabel03252506113D

 33 36  0  0  0  0  0  0  0  0999 V2000
   36.6440   26.6640   39.5850 F   0  0  0  0  0  0  0  0  0  0  0  0
   36.6990   27.7990   40.2710 C   0  0  0  0  0  0  0  0  0  0  0  0
   37.4000   27.8540   41.4460 C   0  0  0  0  0  0  0  0  0  0  0  0
   37.4990   29.0050   42.2110 C   0  0  0  0  0  0  0  0  0  0  0  0
   36.8750   30.1710   41.8030 C   0  0  0  0  0  0  0  0  0  0  0  0
   36.1730   30.0680   40.6010 C   0  0  0  0  0  0  0  0  0  0  0  0
   36.0580   28.9300   39.8160 C   0  0  0  0  0  0  0  0  0  0  0  0
   38.0480   29.0680   43.1420 H   0  0  0  0  0  0  0  0  0  0  0  0
   36.9110   31.0870   42.3420 H   0  0  0  0  0  0  0  0  0  0  0  0
   35.6650   30.9650   40.2410 H   0  0  0  0  0  0  0  0  0  0  0  0
   35.9560   29.0850   37.3570 C   0  0  0  0  0  3  0  0  0  0  0  0
   35.2950   28.9630   38.5850 C   0  0  0  0  0  0  0  0  0  0  0  0
   33.9160   28.8750   38.5910 C   0  0  0  0  0  0  0  0  0  0  0  0
   33.3580   28.7780   39.5320 H   0  0  0  0  0  0  0  0  0  0  0  0
   33.1700   28.9040   37.4290 C   0  0  0  0  0  0  0  0  0  0  0  0
   31.8660   28.8440   37.0990 N   0  0  0  0  0  0  0  0  0  0  0  0
   31.1740   28.7490   37.8670 H   0  0  0  0  0  0  0  0  0  0  0  0
   31.7280   28.9220   35.7580 C   0  0  0  0  0  0  0  0  0  0  0  0
   30.7230   28.8850   35.3690 H   0  0  0  0  0  0  0  0  0  0  0  0
   32.9860   29.0420   35.1570 C   0  0  0  0  0  3  0  0  0  0  0  0
   33.8590   29.0270   36.2300 C   0  0  0  0  0  0  0  0  0  0  0  0
   35.2460   29.1190   36.1630 C   0  0  0  0  0  3  0  0  0  0  0  0
   38.3860   24.3400   41.9530 C   0  0  0  0  0  0  0  0  0  0  0  0
   39.4140   24.4640   42.9090 C   0  0  0  0  0  0  0  0  0  0  0  0
   39.7630   25.7450   43.3740 C   0  0  0  0  0  0  0  0  0  0  0  0
   39.0670   26.8010   42.8550 N   0  0  0  0  0  0  0  0  0  0  0  0
   38.0900   26.6530   41.9430 C   0  0  0  0  0  0  0  0  0  0  0  0
   37.7630   25.4420   41.5070 N   0  0  0  0  0  0  0  0  0  0  0  0
   39.9540   23.6120   43.3090 H   0  0  0  0  0  0  0  0  0  0  0  0
   40.5480   25.8950   44.1080 H   0  0  0  0  0  0  0  0  0  0  0  0
   38.0340   23.0530   41.4870 N   0  0  0  0  0  0  0  0  0  0  0  0
   37.7400   22.3620   42.2270 H   0  0  0  0  0  0  0  0  0  0  0  0
   38.0220   22.6850   40.5120 H   0  0  0  0  0  0  0  0  0  0  0  0
  1  2  1  0  0  0  0
  2  3  1  0  0  0  0
  3 27  1  0  0  0  0
  3  4  2  0  0  0  0
  4  8  1  0  0  0  0
  5  4  1  0  0  0  0
  5  9  1  0  0  0  0
  6  5  2  0  0  0  0
  7  2  2  0  0  0  0
  7  6  1  0  0  0  0
 10  6  1  0  0  0  0
 11 12  1  0  0  0  0
 12 13  2  0  0  0  0
 12  7  1  0  0  0  0
 13 14  1  0  0  0  0
 15 13  1  0  0  0  0
 16 15  1  0  0  0  0
 16 17  1  0  0  0  0
 18 16  1  0  0  0  0
 19 18  1  0  0  0  0
 20 18  2  0  0  0  0
 20 21  1  0  0  0  0
 21 15  2  0  0  0  0
 22 21  1  0  0  0  0
 22 11  2  0  0  0  0
 23 24  1  0  0  0  0
 24 29  1  0  0  0  0
 24 25  2  0  0  0  0
 25 30  1  0  0  0  0
 26 25  1  0  0  0  0
 27 26  2  0  0  0  0
 28 27  1  0  0  0  0
 28 23  2  0  0  0  0
 31 23  1  0  0  0  0
 31 32  1  0  0  0  0
 33 31  1  0  0  0  0
M  END
>  <minimizedAffinity>
-6.17915058

$$$$

 OpenBabel03252506113D

 33 36  0  0  0  0  0  0  0  0999 V2000
   39.6820   26.6280   41.0730 F   0  0  0  0  0  0  0  0  0  0  0  0
   38.7430   26.9840   41.9420 C   0  0  0  0  0  0  0  0  0  0  0  0
   37.5540   26.3070   41.9790 C   0  0  0  0  0  0  0  0  0  0  0  0
   36.5340   26.6240   42.8600 C   0  0  0  0  0  0  0  0  0  0  0  0
   36.6850   27.6670   43.7580 C   0  0  0  0  0  0  0  0  0  0  0  0
   37.9110   28.3280   43.6840 C   0  0  0  0  0  0  0  0  0  0  0  0
   38.9490   28.0300   42.8130 C   0  0  0  0  0  0  0  0  0  0  0  0
   35.5860   26.1000   42.9040 H   0  0  0  0  0  0  0  0  0  0  0  0
   35.9420   27.9620   44.4590 H   0  0  0  0  0  0  0  0  0  0  0  0
   38.0730   29.1570   44.3750 H   0  0  0  0  0  0  0  0  0  0  0  0
   41.3740   28.1900   43.2290 C   0  0  0  0  0  3  0  0  0  0  0  0
   40.1750   28.8020   42.8440 C   0  0  0  0  0  0  0  0  0  0  0  0
   40.1920   30.1400   42.4990 C   0  0  0  0  0  0  0  0  0  0  0  0
   39.2740   30.6580   42.1920 H   0  0  0  0  0  0  0  0  0  0  0  0
   41.3500   30.8920   42.5220 C   0  0  0  0  0  0  0  0  0  0  0  0
   41.6960   32.1670   42.2570 N   0  0  0  0  0  0  0  0  0  0  0  0
   40.9520   32.8190   41.9470 H   0  0  0  0  0  0  0  0  0  0  0  0
   43.0210   32.3330   42.4620 C   0  0  0  0  0  0  0  0  0  0  0  0
   43.4210   33.3180   42.2830 H   0  0  0  0  0  0  0  0  0  0  0  0
   43.5920   31.1280   42.8840 C   0  0  0  0  0  3  0  0  0  0  0  0
   42.5200   30.2540   42.9090 C   0  0  0  0  0  0  0  0  0  0  0  0
   42.5630   28.9100   43.2660 C   0  0  0  0  0  3  0  0  0  0  0  0
   37.6420   22.9580   40.4430 C   0  0  0  0  0  0  0  0  0  0  0  0
   36.8480   23.1480   39.2930 C   0  0  0  0  0  0  0  0  0  0  0  0
   36.2890   24.4150   39.0510 C   0  0  0  0  0  0  0  0  0  0  0  0
   36.5600   25.3940   39.9660 N   0  0  0  0  0  0  0  0  0  0  0  0
   37.3210   25.1860   41.0540 C   0  0  0  0  0  0  0  0  0  0  0  0
   37.8470   23.9870   41.2800 N   0  0  0  0  0  0  0  0  0  0  0  0
   36.6450   22.3560   38.5800 H   0  0  0  0  0  0  0  0  0  0  0  0
   35.6700   24.6130   38.1810 H   0  0  0  0  0  0  0  0  0  0  0  0
   38.2040   21.6850   40.6860 N   0  0  0  0  0  0  0  0  0  0  0  0
   38.8190   21.3010   39.9200 H   0  0  0  0  0  0  0  0  0  0  0  0
   38.0990   21.0660   41.5180 H   0  0  0  0  0  0  0  0  0  0  0  0
  1  2  1  0  0  0  0
  2  3  2  0  0  0  0
  2  7  1  0  0  0  0
  3  4  1  0  0  0  0
  4  8  1  0  0  0  0
  4  5  2  0  0  0  0
  5  9  1  0  0  0  0
  6  5  1  0  0  0  0
  6 10  1  0  0  0  0
  7 12  1  0  0  0  0
  7  6  2  0  0  0  0
 11 22  1  0  0  0  0
 12 11  2  0  0  0  0
 13 15  2  0  0  0  0
 13 12  1  0  0  0  0
 14 13  1  0  0  0  0
 15 21  1  0  0  0  0
 16 18  1  0  0  0  0
 16 15  1  0  0  0  0
 17 16  1  0  0  0  0
 18 20  2  0  0  0  0
 19 18  1  0  0  0  0
 20 21  1  0  0  0  0
 21 22  2  0  0  0  0
 23 31  1  0  0  0  0
 23 28  1  0  0  0  0
 24 23  2  0  0  0  0
 25 24  1  0  0  0  0
 25 26  2  0  0  0  0
 26 27  1  0  0  0  0
 27 28  2  0  0  0  0
 27  3  1  0  0  0  0
 29 24  1  0  0  0  0
 30 25  1  0  0  0  0
 31 33  1  0  0  0  0
 32 31  1  0  0  0  0
M  END
>  <minimizedAffinity>
-6.12073326

$$$$

 OpenBabel03252506113D

 33 36  0  0  0  0  0  0  0  0999 V2000
   39.5530   28.0670   40.5460 F   0  0  0  0  0  0  0  0  0  0  0  0
   38.6830   27.9010   41.5360 C   0  0  0  0  0  0  0  0  0  0  0  0
   39.1290   27.5820   42.7900 C   0  0  0  0  0  0  0  0  0  0  0  0
   38.2780   27.3960   43.8670 C   0  0  0  0  0  0  0  0  0  0  0  0
   36.9100   27.5290   43.7070 C   0  0  0  0  0  0  0  0  0  0  0  0
   36.5010   27.8540   42.4130 C   0  0  0  0  0  0  0  0  0  0  0  0
   37.3320   28.0460   41.3180 C   0  0  0  0  0  0  0  0  0  0  0  0
   38.6120   27.1440   44.8660 H   0  0  0  0  0  0  0  0  0  0  0  0
   36.2020   27.3990   44.4910 H   0  0  0  0  0  0  0  0  0  0  0  0
   35.4300   27.9680   42.2420 H   0  0  0  0  0  0  0  0  0  0  0  0
   36.8280   29.7010   39.5610 C   0  0  0  0  0  3  0  0  0  0  0  0
   36.7720   28.3820   40.0250 C   0  0  0  0  0  0  0  0  0  0  0  0
   36.1780   27.4220   39.2270 C   0  0  0  0  0  0  0  0  0  0  0  0
   36.1130   26.3750   39.5530 H   0  0  0  0  0  0  0  0  0  0  0  0
   35.6390   27.7220   37.9910 C   0  0  0  0  0  0  0  0  0  0  0  0
   35.0130   27.0500   37.0050 N   0  0  0  0  0  0  0  0  0  0  0  0
   34.8590   26.0320   37.1330 H   0  0  0  0  0  0  0  0  0  0  0  0
   34.7040   27.8950   35.9990 C   0  0  0  0  0  0  0  0  0  0  0  0
   34.1970   27.4730   35.1460 H   0  0  0  0  0  0  0  0  0  0  0  0
   35.1340   29.1890   36.3150 C   0  0  0  0  0  3  0  0  0  0  0  0
   35.7120   29.0400   37.5640 C   0  0  0  0  0  0  0  0  0  0  0  0
   36.2980   30.0480   38.3240 C   0  0  0  0  0  3  0  0  0  0  0  0
   42.4380   26.0680   43.3730 C   0  0  0  0  0  0  0  0  0  0  0  0
   43.2590   27.2070   43.4920 C   0  0  0  0  0  0  0  0  0  0  0  0
   42.6790   28.4820   43.3730 C   0  0  0  0  0  0  0  0  0  0  0  0
   41.3320   28.5290   43.1450 N   0  0  0  0  0  0  0  0  0  0  0  0
   40.5720   27.4250   43.0360 C   0  0  0  0  0  0  0  0  0  0  0  0
   41.1230   26.2220   43.1490 N   0  0  0  0  0  0  0  0  0  0  0  0
   44.3270   27.1470   43.6730 H   0  0  0  0  0  0  0  0  0  0  0  0
   43.2680   29.3910   43.4560 H   0  0  0  0  0  0  0  0  0  0  0  0
   43.0200   24.7860   43.4930 N   0  0  0  0  0  0  0  0  0  0  0  0
   43.5370   24.6000   44.3930 H   0  0  0  0  0  0  0  0  0  0  0  0
   43.0140   23.9920   42.8170 H   0  0  0  0  0  0  0  0  0  0  0  0
  1  2  1  0  0  0  0
  2  3  1  0  0  0  0
  3 27  1  0  0  0  0
  3  4  2  0  0  0  0
  4  8  1  0  0  0  0
  5  4  1  0  0  0  0
  5  9  1  0  0  0  0
  6  5  2  0  0  0  0
  7  2  2  0  0  0  0
  7  6  1  0  0  0  0
 10  6  1  0  0  0  0
 11 12  1  0  0  0  0
 12  7  1  0  0  0  0
 13 14  1  0  0  0  0
 13 12  2  0  0  0  0
 15 13  1  0  0  0  0
 16 17  1  0  0  0  0
 16 15  1  0  0  0  0
 18 20  2  0  0  0  0
 18 16  1  0  0  0  0
 19 18  1  0  0  0  0
 20 21  1  0  0  0  0
 21 15  2  0  0  0  0
 21 22  1  0  0  0  0
 22 11  2  0  0  0  0
 23 24  1  0  0  0  0
 23 31  1  0  0  0  0
 24 29  1  0  0  0  0
 25 30  1  0  0  0  0
 25 24  2  0  0  0  0
 26 25  1  0  0  0  0
 27 26  2  0  0  0  0
 27 28  1  0  0  0  0
 28 23  2  0  0  0  0
 31 32  1  0  0  0  0
 33 31  1  0  0  0  0
M  END
>  <minimizedAffinity>
-6.04528713

$$$$

 OpenBabel03252506113D

 33 36  0  0  0  0  0  0  0  0999 V2000
   40.2270   29.9570   41.0690 F   0  0  0  0  0  0  0  0  0  0  0  0
   39.1750   30.6960   40.7370 C   0  0  0  0  0  0  0  0  0  0  0  0
   39.3500   31.9890   40.3250 C   0  0  0  0  0  0  0  0  0  0  0  0
   38.2980   32.8140   39.9630 C   0  0  0  0  0  0  0  0  0  0  0  0
   36.9970   32.3460   40.0080 C   0  0  0  0  0  0  0  0  0  0  0  0
   36.8660   31.0230   40.4320 C   0  0  0  0  0  0  0  0  0  0  0  0
   37.9010   30.1760   40.8000 C   0  0  0  0  0  0  0  0  0  0  0  0
   38.4170   33.8390   39.6350 H   0  0  0  0  0  0  0  0  0  0  0  0
   36.1450   32.9260   39.7430 H   0  0  0  0  0  0  0  0  0  0  0  0
   35.8560   30.6130   40.4820 H   0  0  0  0  0  0  0  0  0  0  0  0
   37.4710   28.5310   42.5850 C   0  0  0  0  0  3  0  0  0  0  0  0
   37.6220   28.8190   41.2240 C   0  0  0  0  0  0  0  0  0  0  0  0
   37.5000   27.7910   40.3090 C   0  0  0  0  0  0  0  0  0  0  0  0
   37.6120   27.9740   39.2320 H   0  0  0  0  0  0  0  0  0  0  0  0
   37.2340   26.4910   40.6930 C   0  0  0  0  0  0  0  0  0  0  0  0
   37.0620   25.3040   40.0800 N   0  0  0  0  0  0  0  0  0  0  0  0
   37.1310   25.2760   39.0450 H   0  0  0  0  0  0  0  0  0  0  0  0
   36.8180   24.3450   40.9990 C   0  0  0  0  0  0  0  0  0  0  0  0
   36.6620   23.3440   40.6300 H   0  0  0  0  0  0  0  0  0  0  0  0
   36.8290   24.9030   42.2830 C   0  0  0  0  0  3  0  0  0  0  0  0
   37.0910   26.2410   42.0500 C   0  0  0  0  0  0  0  0  0  0  0  0
   37.2030   27.2370   43.0160 C   0  0  0  0  0  3  0  0  0  0  0  0
   42.5530   33.5410   41.2820 C   0  0  0  0  0  0  0  0  0  0  0  0
   43.2280   33.5950   40.0460 C   0  0  0  0  0  0  0  0  0  0  0  0
   42.5860   33.1020   38.8960 C   0  0  0  0  0  0  0  0  0  0  0  0
   41.3280   32.5950   39.0610 N   0  0  0  0  0  0  0  0  0  0  0  0
   40.7070   32.5560   40.2530 C   0  0  0  0  0  0  0  0  0  0  0  0
   41.3160   33.0230   41.3370 N   0  0  0  0  0  0  0  0  0  0  0  0
   44.2280   34.0020   39.9370 H   0  0  0  0  0  0  0  0  0  0  0  0
   43.0630   33.1190   37.9210 H   0  0  0  0  0  0  0  0  0  0  0  0
   43.1970   34.0370   42.4380 N   0  0  0  0  0  0  0  0  0  0  0  0
   43.5090   35.0440   42.3930 H   0  0  0  0  0  0  0  0  0  0  0  0
   43.4110   33.5510   43.3350 H   0  0  0  0  0  0  0  0  0  0  0  0
  2  7  1  0  0  0  0
  2  1  1  0  0  0  0
  3  2  2  0  0  0  0
  4  5  2  0  0  0  0
  4  3  1  0  0  0  0
  5  6  1  0  0  0  0
  6 10  1  0  0  0  0
  6  7  2  0  0  0  0
  7 12  1  0  0  0  0
  8  4  1  0  0  0  0
  9  5  1  0  0  0  0
 11 22  1  0  0  0  0
 12 11  2  0  0  0  0
 13 15  2  0  0  0  0
 13 12  1  0  0  0  0
 14 13  1  0  0  0  0
 15 21  1  0  0  0  0
 16 15  1  0  0  0  0
 16 18  1  0  0  0  0
 17 16  1  0  0  0  0
 18 20  2  0  0  0  0
 19 18  1  0  0  0  0
 21 20  1  0  0  0  0
 21 22  2  0  0  0  0
 23 28  1  0  0  0  0
 23 31  1  0  0  0  0
 24 23  2  0  0  0  0
 25 26  2  0  0  0  0
 25 24  1  0  0  0  0
 26 27  1  0  0  0  0
 27  3  1  0  0  0  0
 27 28  2  0  0  0  0
 29 24  1  0  0  0  0
 30 25  1  0  0  0  0
 31 33  1  0  0  0  0
 32 31  1  0  0  0  0
M  END
>  <minimizedAffinity>
-5.9702673

$$$$

 OpenBabel03252506113D

 33 36  0  0  0  0  0  0  0  0999 V2000
   36.7110   31.4460   38.1300 F   0  0  0  0  0  0  0  0  0  0  0  0
   36.5900   30.6550   39.1890 C   0  0  0  0  0  0  0  0  0  0  0  0
   37.2720   30.9450   40.3410 C   0  0  0  0  0  0  0  0  0  0  0  0
   37.1900   30.1640   41.4810 C   0  0  0  0  0  0  0  0  0  0  0  0
   36.3950   29.0310   41.4970 C   0  0  0  0  0  0  0  0  0  0  0  0
   35.7190   28.7750   40.3030 C   0  0  0  0  0  0  0  0  0  0  0  0
   35.7830   29.5400   39.1470 C   0  0  0  0  0  0  0  0  0  0  0  0
   37.7220   30.3770   42.4010 H   0  0  0  0  0  0  0  0  0  0  0  0
   36.2880   28.3890   42.3380 H   0  0  0  0  0  0  0  0  0  0  0  0
   35.0800   27.8910   40.2710 H   0  0  0  0  0  0  0  0  0  0  0  0
   35.6850   28.9500   36.7550 C   0  0  0  0  0  3  0  0  0  0  0  0
   35.0260   29.1580   37.9730 C   0  0  0  0  0  0  0  0  0  0  0  0
   33.6560   28.9900   38.0240 C   0  0  0  0  0  0  0  0  0  0  0  0
   33.1000   29.1430   38.9590 H   0  0  0  0  0  0  0  0  0  0  0  0
   32.9160   28.6260   36.9150 C   0  0  0  0  0  0  0  0  0  0  0  0
   31.6190   28.3890   36.6370 N   0  0  0  0  0  0  0  0  0  0  0  0
   30.9310   28.4840   37.4070 H   0  0  0  0  0  0  0  0  0  0  0  0
   31.4840   28.0560   35.3350 C   0  0  0  0  0  0  0  0  0  0  0  0
   30.4860   27.8420   34.9890 H   0  0  0  0  0  0  0  0  0  0  0  0
   32.7350   28.0690   34.7080 C   0  0  0  0  0  3  0  0  0  0  0  0
   33.6010   28.4280   35.7260 C   0  0  0  0  0  0  0  0  0  0  0  0
   34.9800   28.5820   35.6150 C   0  0  0  0  0  3  0  0  0  0  0  0
   40.2040   33.1210   40.8370 C   0  0  0  0  0  0  0  0  0  0  0  0
   39.6880   34.3850   40.4820 C   0  0  0  0  0  0  0  0  0  0  0  0
   38.3460   34.4840   40.0760 C   0  0  0  0  0  0  0  0  0  0  0  0
   37.6200   33.3260   40.0540 N   0  0  0  0  0  0  0  0  0  0  0  0
   38.1370   32.1340   40.3980 C   0  0  0  0  0  0  0  0  0  0  0  0
   39.4060   32.0430   40.7810 N   0  0  0  0  0  0  0  0  0  0  0  0
   40.2830   35.2920   40.5070 H   0  0  0  0  0  0  0  0  0  0  0  0
   37.9010   35.4330   39.7910 H   0  0  0  0  0  0  0  0  0  0  0  0
   41.5530   33.0210   41.2460 N   0  0  0  0  0  0  0  0  0  0  0  0
   41.8280   33.6180   42.0700 H   0  0  0  0  0  0  0  0  0  0  0  0
   42.3210   32.4390   40.8490 H   0  0  0  0  0  0  0  0  0  0  0  0
  1  2  1  0  0  0  0
  2  3  1  0  0  0  0
  3 27  1  0  0  0  0
  3  4  2  0  0  0  0
  4  5  1  0  0  0  0
  4  8  1  0  0  0  0
  5  9  1  0  0  0  0
  6  5  2  0  0  0  0
  7  2  2  0  0  0  0
  7  6  1  0  0  0  0
 10  6  1  0  0  0  0
 11 12  1  0  0  0  0
 12 13  2  0  0  0  0
 12  7  1  0  0  0  0
 13 14  1  0  0  0  0
 15 13  1  0  0  0  0
 16 15  1  0  0  0  0
 16 17  1  0  0  0  0
 18 16  1  0  0  0  0
 19 18  1  0  0  0  0
 20 18  2  0  0  0  0
 20 21  1  0  0  0  0
 21 15  2  0  0  0  0
 22 21  1  0  0  0  0
 22 11  2  0  0  0  0
 23 31  1  0  0  0  0
 24 29  1  0  0  0  0
 24 23  2  0  0  0  0
 25 24  1  0  0  0  0
 26 25  2  0  0  0  0
 26 27  1  0  0  0  0
 27 28  2  0  0  0  0
 28 23  1  0  0  0  0
 30 25  1  0  0  0  0
 31 32  1  0  0  0  0
 33 31  1  0  0  0  0
M  END
>  <minimizedAffinity>
-5.96451664

$$$$
