
 OpenBabel03242518143D

 34 37  0  0  0  0  0  0  0  0999 V2000
   36.8250   29.5190   41.2820 C   0  0  0  0  0  0  0  0  0  0  0  0
   36.2010   30.6760   40.7120 C   0  0  0  0  0  0  0  0  0  0  0  0
   36.9640   31.7050   40.2750 C   0  0  0  0  0  0  0  0  0  0  0  0
   38.4060   31.5800   40.4090 C   0  0  0  0  0  0  0  0  0  0  0  0
   38.6540   29.9630   41.1730 S   0  0  0  0  0  0  0  0  0  0  0  0
   35.1340   30.5970   40.6910 H   0  0  0  0  0  0  0  0  0  0  0  0
   36.5200   32.5810   39.8450 H   0  0  0  0  0  0  0  0  0  0  0  0
   39.5100   33.8080   40.6190 C   0  0  0  0  0  3  0  0  0  0  0  0
   39.3430   32.5930   39.9890 C   0  0  0  0  0  0  0  0  0  0  0  0
   40.0700   32.2220   38.8740 C   0  0  0  0  0  0  0  0  0  0  0  0
   39.9730   31.2810   38.3460 H   0  0  0  0  0  0  0  0  0  0  0  0
   41.0200   33.0710   38.3240 C   0  0  0  0  0  0  0  0  0  0  0  0
   41.8660   33.0120   37.2800 N   0  0  0  0  0  0  0  0  0  0  0  0
   41.9480   32.2000   36.6300 H   0  0  0  0  0  0  0  0  0  0  0  0
   42.5850   34.1580   37.2090 C   0  0  0  0  0  0  0  0  0  0  0  0
   43.3410   34.4370   36.5020 H   0  0  0  0  0  0  0  0  0  0  0  0
   42.1690   34.9690   38.2560 C   0  0  0  0  0  3  0  0  0  0  0  0
   41.1950   34.2940   38.9520 C   0  0  0  0  0  0  0  0  0  0  0  0
   40.4570   34.6380   40.0620 C   0  0  0  0  0  3  0  0  0  0  0  0
   36.4190   28.2700   41.8400 C   0  0  0  0  0  0  0  0  0  0  0  0
   35.3090   28.2380   41.8990 H   0  0  0  0  0  0  0  0  0  0  0  0
   36.7170   27.4380   41.1660 H   0  0  0  0  0  0  0  0  0  0  0  0
   36.9680   27.9330   43.1980 C   0  0  0  0  0  0  0  0  0  0  0  0
   36.1610   27.7590   43.9030 H   0  0  0  0  0  0  0  0  0  0  0  0
   37.5500   28.8000   43.6290 H   0  0  0  0  0  0  0  0  0  0  0  0
   37.8840   26.8140   43.0980 C   0  0  0  0  0  0  0  0  0  0  0  0
   39.1280   26.8310   43.7290 C   0  0  0  0  0  0  0  0  0  0  0  0
   39.9710   25.7320   43.6020 C   0  0  0  0  0  0  0  0  0  0  0  0
   39.5270   24.6830   42.8550 N   0  0  0  0  0  0  0  0  0  0  0  0
   38.3240   24.6920   42.2580 C   0  0  0  0  0  0  0  0  0  0  0  0
   37.5190   25.7450   42.3800 N   0  0  0  0  0  0  0  0  0  0  0  0
   39.4640   27.6560   44.3090 H   0  0  0  0  0  0  0  0  0  0  0  0
   40.9450   25.6340   44.0410 H   0  0  0  0  0  0  0  0  0  0  0  0
   37.9860   23.8380   41.6620 H   0  0  0  0  0  0  0  0  0  0  0  0
  1 20  1  0  0  0  0
  2  1  2  0  0  0  0
  3  4  2  0  0  0  0
  3  2  1  0  0  0  0
  4  5  1  0  0  0  0
  5  1  1  0  0  0  0
  6  2  1  0  0  0  0
  7  3  1  0  0  0  0
  9  4  1  0  0  0  0
  9  8  2  0  0  0  0
 10  9  1  0  0  0  0
 11 10  1  0  0  0  0
 12 10  2  0  0  0  0
 12 18  1  0  0  0  0
 13 12  1  0  0  0  0
 14 13  1  0  0  0  0
 15 13  1  0  0  0  0
 15 17  2  0  0  0  0
 16 15  1  0  0  0  0
 17 18  1  0  0  0  0
 18 19  2  0  0  0  0
 19  8  1  0  0  0  0
 20 21  1  0  0  0  0
 20 23  1  0  0  0  0
 22 20  1  0  0  0  0
 23 25  1  0  0  0  0
 23 24  1  0  0  0  0
 26 23  1  0  0  0  0
 26 27  1  0  0  0  0
 27 32  1  0  0  0  0
 28 27  2  0  0  0  0
 28 33  1  0  0  0  0
 29 28  1  0  0  0  0
 30 31  1  0  0  0  0
 30 29  2  0  0  0  0
 31 26  2  0  0  0  0
 34 30  1  0  0  0  0
M  END
>  <minimizedAffinity>
-6.0126071

$$$$

 OpenBabel03242518143D

 34 37  0  0  0  0  0  0  0  0999 V2000
   39.3140   26.9330   43.1370 C   0  0  0  0  0  0  0  0  0  0  0  0
   38.1580   27.5880   43.6740 C   0  0  0  0  0  0  0  0  0  0  0  0
   37.7500   28.7680   43.1490 C   0  0  0  0  0  0  0  0  0  0  0  0
   38.5210   29.3180   42.0470 C   0  0  0  0  0  0  0  0  0  0  0  0
   39.8420   28.1190   41.7710 S   0  0  0  0  0  0  0  0  0  0  0  0
   37.7160   27.0410   44.4800 H   0  0  0  0  0  0  0  0  0  0  0  0
   36.8890   29.2770   43.5350 H   0  0  0  0  0  0  0  0  0  0  0  0
   37.0590   30.7900   40.6590 C   0  0  0  0  0  3  0  0  0  0  0  0
   38.2060   30.5640   41.3900 C   0  0  0  0  0  0  0  0  0  0  0  0
   39.1830   31.5250   41.5670 C   0  0  0  0  0  0  0  0  0  0  0  0
   40.0990   31.3930   42.1310 H   0  0  0  0  0  0  0  0  0  0  0  0
   39.0550   32.7880   41.0060 C   0  0  0  0  0  0  0  0  0  0  0  0
   39.7980   33.9080   40.9910 N   0  0  0  0  0  0  0  0  0  0  0  0
   40.7200   34.0130   41.4680 H   0  0  0  0  0  0  0  0  0  0  0  0
   39.1680   34.8650   40.2680 C   0  0  0  0  0  0  0  0  0  0  0  0
   39.4830   35.8680   40.0570 H   0  0  0  0  0  0  0  0  0  0  0  0
   37.9770   34.3180   39.8120 C   0  0  0  0  0  3  0  0  0  0  0  0
   37.9030   33.0240   40.2710 C   0  0  0  0  0  0  0  0  0  0  0  0
   36.9470   32.0480   40.1100 C   0  0  0  0  0  3  0  0  0  0  0  0
   40.0540   25.7370   43.3780 C   0  0  0  0  0  0  0  0  0  0  0  0
   40.8940   25.6720   42.6520 H   0  0  0  0  0  0  0  0  0  0  0  0
   40.5200   25.7750   44.3860 H   0  0  0  0  0  0  0  0  0  0  0  0
   39.2840   24.4480   43.3140 C   0  0  0  0  0  0  0  0  0  0  0  0
   38.6010   24.3700   44.1540 H   0  0  0  0  0  0  0  0  0  0  0  0
   39.9720   23.5570   43.4120 H   0  0  0  0  0  0  0  0  0  0  0  0
   38.6200   24.3310   42.0300 C   0  0  0  0  0  0  0  0  0  0  0  0
   37.2290   24.2910   41.9300 C   0  0  0  0  0  0  0  0  0  0  0  0
   36.6400   24.1790   40.6750 C   0  0  0  0  0  0  0  0  0  0  0  0
   37.4690   24.1130   39.5960 N   0  0  0  0  0  0  0  0  0  0  0  0
   38.8050   24.1530   39.7200 C   0  0  0  0  0  0  0  0  0  0  0  0
   39.3670   24.2600   40.9220 N   0  0  0  0  0  0  0  0  0  0  0  0
   36.5930   24.3440   42.7790 H   0  0  0  0  0  0  0  0  0  0  0  0
   35.5860   24.1400   40.4770 H   0  0  0  0  0  0  0  0  0  0  0  0
   39.4530   24.0980   38.8400 H   0  0  0  0  0  0  0  0  0  0  0  0
  1 20  1  0  0  0  0
  1  2  2  0  0  0  0
  2  6  1  0  0  0  0
  3  7  1  0  0  0  0
  3  2  1  0  0  0  0
  4  3  2  0  0  0  0
  5  4  1  0  0  0  0
  5  1  1  0  0  0  0
  8  9  1  0  0  0  0
  9 10  2  0  0  0  0
  9  4  1  0  0  0  0
 10 11  1  0  0  0  0
 12 10  1  0  0  0  0
 13 12  1  0  0  0  0
 13 14  1  0  0  0  0
 15 13  1  0  0  0  0
 16 15  1  0  0  0  0
 17 15  2  0  0  0  0
 17 18  1  0  0  0  0
 18 12  2  0  0  0  0
 19 18  1  0  0  0  0
 19  8  2  0  0  0  0
 20 22  1  0  0  0  0
 21 20  1  0  0  0  0
 23 20  1  0  0  0  0
 23 25  1  0  0  0  0
 23 24  1  0  0  0  0
 26 23  1  0  0  0  0
 27 26  1  0  0  0  0
 27 32  1  0  0  0  0
 28 27  2  0  0  0  0
 29 30  2  0  0  0  0
 29 28  1  0  0  0  0
 30 31  1  0  0  0  0
 31 26  2  0  0  0  0
 33 28  1  0  0  0  0
 34 30  1  0  0  0  0
M  END
>  <minimizedAffinity>
-5.95916891

$$$$

 OpenBabel03242518143D

 34 37  0  0  0  0  0  0  0  0999 V2000
   37.2320   26.8290   42.5760 C   0  0  0  0  0  0  0  0  0  0  0  0
   37.5450   27.8140   43.5690 C   0  0  0  0  0  0  0  0  0  0  0  0
   37.7700   29.0960   43.1960 C   0  0  0  0  0  0  0  0  0  0  0  0
   37.6820   29.4120   41.7800 C   0  0  0  0  0  0  0  0  0  0  0  0
   37.2700   27.8440   40.9880 S   0  0  0  0  0  0  0  0  0  0  0  0
   37.5670   27.4050   44.5570 H   0  0  0  0  0  0  0  0  0  0  0  0
   38.0060   29.8500   43.9210 H   0  0  0  0  0  0  0  0  0  0  0  0
   36.9480   31.4520   40.5430 C   0  0  0  0  0  3  0  0  0  0  0  0
   37.8970   30.7320   41.2370 C   0  0  0  0  0  0  0  0  0  0  0  0
   39.1690   31.2120   41.4830 C   0  0  0  0  0  0  0  0  0  0  0  0
   39.9460   30.6830   42.0220 H   0  0  0  0  0  0  0  0  0  0  0  0
   39.5600   32.4660   41.0350 C   0  0  0  0  0  0  0  0  0  0  0  0
   40.6850   33.2000   41.1070 N   0  0  0  0  0  0  0  0  0  0  0  0
   41.5630   32.8930   41.5790 H   0  0  0  0  0  0  0  0  0  0  0  0
   40.4980   34.3850   40.4780 C   0  0  0  0  0  0  0  0  0  0  0  0
   41.1860   35.1960   40.3490 H   0  0  0  0  0  0  0  0  0  0  0  0
   39.1980   34.3910   39.9910 C   0  0  0  0  0  3  0  0  0  0  0  0
   38.6110   33.1980   40.3380 C   0  0  0  0  0  0  0  0  0  0  0  0
   37.3510   32.6940   40.1070 C   0  0  0  0  0  3  0  0  0  0  0  0
   36.9380   25.4340   42.5320 C   0  0  0  0  0  0  0  0  0  0  0  0
   36.6960   25.0770   43.5570 H   0  0  0  0  0  0  0  0  0  0  0  0
   36.0280   25.2560   41.9200 H   0  0  0  0  0  0  0  0  0  0  0  0
   38.0080   24.5400   41.9690 C   0  0  0  0  0  0  0  0  0  0  0  0
   38.5130   24.0020   42.7650 H   0  0  0  0  0  0  0  0  0  0  0  0
   38.8190   25.1440   41.4650 H   0  0  0  0  0  0  0  0  0  0  0  0
   37.4420   23.6640   40.9620 C   0  0  0  0  0  0  0  0  0  0  0  0
   36.2060   23.9330   40.3740 C   0  0  0  0  0  0  0  0  0  0  0  0
   35.7070   23.0620   39.4110 C   0  0  0  0  0  0  0  0  0  0  0  0
   36.4650   21.9760   39.0930 N   0  0  0  0  0  0  0  0  0  0  0  0
   37.6520   21.7410   39.6750 C   0  0  0  0  0  0  0  0  0  0  0  0
   38.1290   22.5750   40.5960 N   0  0  0  0  0  0  0  0  0  0  0  0
   35.6230   24.7830   40.6300 H   0  0  0  0  0  0  0  0  0  0  0  0
   34.7730   23.1660   38.8940 H   0  0  0  0  0  0  0  0  0  0  0  0
   38.2460   20.8620   39.4050 H   0  0  0  0  0  0  0  0  0  0  0  0
  1  2  2  0  0  0  0
  2  6  1  0  0  0  0
  3  2  1  0  0  0  0
  3  7  1  0  0  0  0
  4  3  2  0  0  0  0
  5  4  1  0  0  0  0
  5  1  1  0  0  0  0
  8  9  1  0  0  0  0
  9 10  2  0  0  0  0
  9  4  1  0  0  0  0
 10 11  1  0  0  0  0
 12 13  1  0  0  0  0
 12 10  1  0  0  0  0
 13 14  1  0  0  0  0
 15 13  1  0  0  0  0
 16 15  1  0  0  0  0
 17 18  1  0  0  0  0
 17 15  2  0  0  0  0
 18 12  2  0  0  0  0
 19 18  1  0  0  0  0
 19  8  2  0  0  0  0
 20  1  1  0  0  0  0
 20 21  1  0  0  0  0
 22 20  1  0  0  0  0
 23 20  1  0  0  0  0
 23 24  1  0  0  0  0
 25 23  1  0  0  0  0
 26 23  1  0  0  0  0
 27 32  1  0  0  0  0
 27 26  2  0  0  0  0
 28 27  1  0  0  0  0
 29 28  2  0  0  0  0
 29 30  1  0  0  0  0
 30 31  2  0  0  0  0
 31 26  1  0  0  0  0
 33 28  1  0  0  0  0
 34 30  1  0  0  0  0
M  END
>  <minimizedAffinity>
-5.95883226

$$$$

 OpenBabel03242518143D

 34 37  0  0  0  0  0  0  0  0999 V2000
   36.6930   27.9660   42.1510 C   0  0  0  0  0  0  0  0  0  0  0  0
   35.9460   28.5450   41.0730 C   0  0  0  0  0  0  0  0  0  0  0  0
   36.3090   29.7510   40.5760 C   0  0  0  0  0  0  0  0  0  0  0  0
   37.4600   30.4070   41.1730 C   0  0  0  0  0  0  0  0  0  0  0  0
   38.0160   29.2710   42.4610 S   0  0  0  0  0  0  0  0  0  0  0  0
   35.1340   27.9230   40.7590 H   0  0  0  0  0  0  0  0  0  0  0  0
   35.7660   30.2030   39.7700 H   0  0  0  0  0  0  0  0  0  0  0  0
   37.2170   32.6310   40.0670 C   0  0  0  0  0  3  0  0  0  0  0  0
   37.9610   31.6920   40.7490 C   0  0  0  0  0  0  0  0  0  0  0  0
   39.2830   31.8930   41.0970 C   0  0  0  0  0  0  0  0  0  0  0  0
   39.9070   31.1860   41.6310 H   0  0  0  0  0  0  0  0  0  0  0  0
   39.9380   33.0730   40.7710 C   0  0  0  0  0  0  0  0  0  0  0  0
   41.1760   33.5630   40.9580 N   0  0  0  0  0  0  0  0  0  0  0  0
   41.9450   33.0570   41.4480 H   0  0  0  0  0  0  0  0  0  0  0  0
   41.2640   34.8020   40.4160 C   0  0  0  0  0  0  0  0  0  0  0  0
   42.1030   35.4680   40.3880 H   0  0  0  0  0  0  0  0  0  0  0  0
   40.0240   35.0980   39.8660 C   0  0  0  0  0  3  0  0  0  0  0  0
   39.1960   34.0230   40.0860 C   0  0  0  0  0  0  0  0  0  0  0  0
   37.8810   33.7960   39.7520 C   0  0  0  0  0  3  0  0  0  0  0  0
   36.6570   26.7750   42.9370 C   0  0  0  0  0  0  0  0  0  0  0  0
   37.3090   26.9040   43.8290 H   0  0  0  0  0  0  0  0  0  0  0  0
   35.6300   26.6070   43.3270 H   0  0  0  0  0  0  0  0  0  0  0  0
   37.0620   25.5030   42.2460 C   0  0  0  0  0  0  0  0  0  0  0  0
   36.5650   25.4170   41.2840 H   0  0  0  0  0  0  0  0  0  0  0  0
   36.7260   24.5970   42.8310 H   0  0  0  0  0  0  0  0  0  0  0  0
   38.5070   25.4320   42.1460 C   0  0  0  0  0  0  0  0  0  0  0  0
   39.1450   25.2650   40.9170 C   0  0  0  0  0  0  0  0  0  0  0  0
   40.5340   25.2040   40.8750 C   0  0  0  0  0  0  0  0  0  0  0  0
   41.2040   25.3110   42.0560 N   0  0  0  0  0  0  0  0  0  0  0  0
   40.5640   25.4710   43.2260 C   0  0  0  0  0  0  0  0  0  0  0  0
   39.2350   25.5300   43.2650 N   0  0  0  0  0  0  0  0  0  0  0  0
   38.6120   25.1820   40.0020 H   0  0  0  0  0  0  0  0  0  0  0  0
   41.1310   25.0780   39.9920 H   0  0  0  0  0  0  0  0  0  0  0  0
   41.1210   25.5550   44.1640 H   0  0  0  0  0  0  0  0  0  0  0  0
  1  5  1  0  0  0  0
  1 20  1  0  0  0  0
  2  1  2  0  0  0  0
  3  2  1  0  0  0  0
  3  4  2  0  0  0  0
  4  5  1  0  0  0  0
  6  2  1  0  0  0  0
  7  3  1  0  0  0  0
  8  9  1  0  0  0  0
  9 10  2  0  0  0  0
  9  4  1  0  0  0  0
 10 11  1  0  0  0  0
 12 13  1  0  0  0  0
 12 10  1  0  0  0  0
 13 14  1  0  0  0  0
 15 13  1  0  0  0  0
 16 15  1  0  0  0  0
 17 18  1  0  0  0  0
 17 15  2  0  0  0  0
 18 12  2  0  0  0  0
 19  8  2  0  0  0  0
 19 18  1  0  0  0  0
 20 22  1  0  0  0  0
 20 21  1  0  0  0  0
 23 25  1  0  0  0  0
 23 20  1  0  0  0  0
 24 23  1  0  0  0  0
 26 23  1  0  0  0  0
 26 31  1  0  0  0  0
 27 26  2  0  0  0  0
 28 27  1  0  0  0  0
 28 29  2  0  0  0  0
 29 30  1  0  0  0  0
 30 31  2  0  0  0  0
 30 34  1  0  0  0  0
 32 27  1  0  0  0  0
 33 28  1  0  0  0  0
M  END
>  <minimizedAffinity>
-5.87904215

$$$$

 OpenBabel03242518143D

 34 37  0  0  0  0  0  0  0  0999 V2000
   38.6080   32.9010   40.6880 C   0  0  0  0  0  0  0  0  0  0  0  0
   37.3220   32.4230   40.2730 C   0  0  0  0  0  0  0  0  0  0  0  0
   36.9290   31.1710   40.6090 C   0  0  0  0  0  0  0  0  0  0  0  0
   37.8510   30.3630   41.3880 C   0  0  0  0  0  0  0  0  0  0  0  0
   39.2920   31.4220   41.6350 S   0  0  0  0  0  0  0  0  0  0  0  0
   36.7780   33.1510   39.7080 H   0  0  0  0  0  0  0  0  0  0  0  0
   35.9720   30.7920   40.3080 H   0  0  0  0  0  0  0  0  0  0  0  0
   37.3770   28.6390   43.1300 C   0  0  0  0  0  3  0  0  0  0  0  0
   37.5700   29.0140   41.8170 C   0  0  0  0  0  0  0  0  0  0  0  0
   37.5130   28.1180   40.7670 C   0  0  0  0  0  0  0  0  0  0  0  0
   37.6580   28.3650   39.7220 H   0  0  0  0  0  0  0  0  0  0  0  0
   37.2540   26.7720   40.9870 C   0  0  0  0  0  0  0  0  0  0  0  0
   37.1360   25.6810   40.2100 N   0  0  0  0  0  0  0  0  0  0  0  0
   37.2350   25.6800   39.1710 H   0  0  0  0  0  0  0  0  0  0  0  0
   36.8690   24.5990   40.9790 C   0  0  0  0  0  0  0  0  0  0  0  0
   36.7170   23.5800   40.6820 H   0  0  0  0  0  0  0  0  0  0  0  0
   36.8180   25.0330   42.2960 C   0  0  0  0  0  3  0  0  0  0  0  0
   37.0570   26.3870   42.3040 C   0  0  0  0  0  0  0  0  0  0  0  0
   37.1200   27.3010   43.3310 C   0  0  0  0  0  3  0  0  0  0  0  0
   39.3800   34.0940   40.5590 C   0  0  0  0  0  0  0  0  0  0  0  0
   38.7020   34.9500   40.3490 H   0  0  0  0  0  0  0  0  0  0  0  0
   39.8840   34.3270   41.5220 H   0  0  0  0  0  0  0  0  0  0  0  0
   40.4560   34.0840   39.5090 C   0  0  0  0  0  0  0  0  0  0  0  0
   40.2990   34.8860   38.7950 H   0  0  0  0  0  0  0  0  0  0  0  0
   40.4200   33.1360   38.8970 H   0  0  0  0  0  0  0  0  0  0  0  0
   41.7620   34.1330   40.1390 C   0  0  0  0  0  0  0  0  0  0  0  0
   42.7960   33.2860   39.7400 C   0  0  0  0  0  0  0  0  0  0  0  0
   44.0300   33.3730   40.3760 C   0  0  0  0  0  0  0  0  0  0  0  0
   44.1620   34.2950   41.3700 N   0  0  0  0  0  0  0  0  0  0  0  0
   43.1490   35.0980   41.7340 C   0  0  0  0  0  0  0  0  0  0  0  0
   41.9690   35.0140   41.1250 N   0  0  0  0  0  0  0  0  0  0  0  0
   42.6810   32.5700   38.9640 H   0  0  0  0  0  0  0  0  0  0  0  0
   44.8940   32.7760   40.1550 H   0  0  0  0  0  0  0  0  0  0  0  0
   43.2760   35.8330   42.5360 H   0  0  0  0  0  0  0  0  0  0  0  0
  1  5  1  0  0  0  0
  2  3  1  0  0  0  0
  2  1  2  0  0  0  0
  3  4  2  0  0  0  0
  4  5  1  0  0  0  0
  4  9  1  0  0  0  0
  6  2  1  0  0  0  0
  7  3  1  0  0  0  0
  8 19  1  0  0  0  0
  9  8  2  0  0  0  0
 10 12  2  0  0  0  0
 10  9  1  0  0  0  0
 11 10  1  0  0  0  0
 12 18  1  0  0  0  0
 13 15  1  0  0  0  0
 13 12  1  0  0  0  0
 14 13  1  0  0  0  0
 15 17  2  0  0  0  0
 16 15  1  0  0  0  0
 17 18  1  0  0  0  0
 18 19  2  0  0  0  0
 20  1  1  0  0  0  0
 20 22  1  0  0  0  0
 21 20  1  0  0  0  0
 23 26  1  0  0  0  0
 23 20  1  0  0  0  0
 24 23  1  0  0  0  0
 25 23  1  0  0  0  0
 26 31  1  0  0  0  0
 27 26  2  0  0  0  0
 27 28  1  0  0  0  0
 28 29  2  0  0  0  0
 29 30  1  0  0  0  0
 30 34  1  0  0  0  0
 31 30  2  0  0  0  0
 32 27  1  0  0  0  0
 33 28  1  0  0  0  0
M  END
>  <minimizedAffinity>
-5.75592136

$$$$

 OpenBabel03242518143D

 34 37  0  0  0  0  0  0  0  0999 V2000
   34.6680   28.9990   36.0500 C   0  0  0  0  0  0  0  0  0  0  0  0
   35.9090   29.5960   36.4500 C   0  0  0  0  0  0  0  0  0  0  0  0
   36.4770   29.2410   37.6260 C   0  0  0  0  0  0  0  0  0  0  0  0
   35.7860   28.2540   38.4380 C   0  0  0  0  0  0  0  0  0  0  0  0
   34.3060   27.8390   37.4910 S   0  0  0  0  0  0  0  0  0  0  0  0
   36.2730   30.3000   35.7310 H   0  0  0  0  0  0  0  0  0  0  0  0
   37.4050   29.6740   37.9450 H   0  0  0  0  0  0  0  0  0  0  0  0
   36.6680   26.4830   39.9600 C   0  0  0  0  0  3  0  0  0  0  0  0
   36.2710   27.7800   39.7120 C   0  0  0  0  0  0  0  0  0  0  0  0
   36.3000   28.7700   40.6760 C   0  0  0  0  0  0  0  0  0  0  0  0
   35.9980   29.8000   40.5280 H   0  0  0  0  0  0  0  0  0  0  0  0
   36.7370   28.5000   41.9660 C   0  0  0  0  0  0  0  0  0  0  0  0
   36.8820   29.2150   43.0950 N   0  0  0  0  0  0  0  0  0  0  0  0
   36.6550   30.2290   43.1880 H   0  0  0  0  0  0  0  0  0  0  0  0
   37.3650   28.4200   44.0800 C   0  0  0  0  0  0  0  0  0  0  0  0
   37.5940   28.6690   45.0970 H   0  0  0  0  0  0  0  0  0  0  0  0
   37.5290   27.1510   43.5410 C   0  0  0  0  0  3  0  0  0  0  0  0
   37.1390   27.1990   42.2240 C   0  0  0  0  0  0  0  0  0  0  0  0
   37.0990   26.2330   41.2440 C   0  0  0  0  0  3  0  0  0  0  0  0
   33.7670   29.0800   34.9470 C   0  0  0  0  0  0  0  0  0  0  0  0
   33.8830   30.0680   34.4500 H   0  0  0  0  0  0  0  0  0  0  0  0
   34.0310   28.3170   34.1840 H   0  0  0  0  0  0  0  0  0  0  0  0
   32.3090   28.8840   35.2570 C   0  0  0  0  0  0  0  0  0  0  0  0
   32.1860   28.2570   36.1340 H   0  0  0  0  0  0  0  0  0  0  0  0
   31.7870   28.3270   34.4240 H   0  0  0  0  0  0  0  0  0  0  0  0
   31.6530   30.1720   35.3830 C   0  0  0  0  0  0  0  0  0  0  0  0
   31.6460   31.0930   34.3360 C   0  0  0  0  0  0  0  0  0  0  0  0
   31.0020   32.3130   34.5070 C   0  0  0  0  0  0  0  0  0  0  0  0
   30.4040   32.5450   35.7090 N   0  0  0  0  0  0  0  0  0  0  0  0
   30.4260   31.6410   36.7020 C   0  0  0  0  0  0  0  0  0  0  0  0
   31.0430   30.4730   36.5360 N   0  0  0  0  0  0  0  0  0  0  0  0
   32.1160   30.9000   33.4030 H   0  0  0  0  0  0  0  0  0  0  0  0
   30.9320   33.0950   33.7750 H   0  0  0  0  0  0  0  0  0  0  0  0
   29.9400   31.8470   37.6600 H   0  0  0  0  0  0  0  0  0  0  0  0
  1  2  2  0  0  0  0
  1  5  1  0  0  0  0
  2  3  1  0  0  0  0
  3  7  1  0  0  0  0
  3  4  2  0  0  0  0
  4  9  1  0  0  0  0
  5  4  1  0  0  0  0
  6  2  1  0  0  0  0
  8 19  1  0  0  0  0
  9  8  2  0  0  0  0
  9 10  1  0  0  0  0
 10 12  2  0  0  0  0
 11 10  1  0  0  0  0
 12 18  1  0  0  0  0
 12 13  1  0  0  0  0
 13 14  1  0  0  0  0
 13 15  1  0  0  0  0
 15 16  1  0  0  0  0
 17 15  2  0  0  0  0
 18 17  1  0  0  0  0
 19 18  2  0  0  0  0
 20 23  1  0  0  0  0
 20  1  1  0  0  0  0
 21 20  1  0  0  0  0
 22 20  1  0  0  0  0
 23 26  1  0  0  0  0
 23 24  1  0  0  0  0
 25 23  1  0  0  0  0
 26 31  1  0  0  0  0
 27 28  1  0  0  0  0
 27 26  2  0  0  0  0
 28 29  2  0  0  0  0
 29 30  1  0  0  0  0
 30 34  1  0  0  0  0
 31 30  2  0  0  0  0
 32 27  1  0  0  0  0
 33 28  1  0  0  0  0
M  END
>  <minimizedAffinity>
-5.60830784

$$$$

 OpenBabel03242518143D

 34 37  0  0  0  0  0  0  0  0999 V2000
   38.9460   29.7420   42.5140 C   0  0  0  0  0  0  0  0  0  0  0  0
   38.0210   29.0950   43.3980 C   0  0  0  0  0  0  0  0  0  0  0  0
   37.4210   27.9430   43.0170 C   0  0  0  0  0  0  0  0  0  0  0  0
   37.7530   27.4110   41.7070 C   0  0  0  0  0  0  0  0  0  0  0  0
   38.9400   28.5880   41.0240 S   0  0  0  0  0  0  0  0  0  0  0  0
   37.8970   29.6260   44.3190 H   0  0  0  0  0  0  0  0  0  0  0  0
   36.7250   27.4420   43.6620 H   0  0  0  0  0  0  0  0  0  0  0  0
   37.0880   25.0110   41.8660 C   0  0  0  0  0  3  0  0  0  0  0  0
   37.1930   26.1950   41.1680 C   0  0  0  0  0  0  0  0  0  0  0  0
   36.7660   26.3350   39.8610 C   0  0  0  0  0  0  0  0  0  0  0  0
   36.8280   27.2430   39.2740 H   0  0  0  0  0  0  0  0  0  0  0  0
   36.1990   25.2690   39.1750 C   0  0  0  0  0  0  0  0  0  0  0  0
   35.6990   25.0830   37.9410 N   0  0  0  0  0  0  0  0  0  0  0  0
   35.6550   25.8190   37.2030 H   0  0  0  0  0  0  0  0  0  0  0  0
   35.2680   23.8060   37.8110 C   0  0  0  0  0  0  0  0  0  0  0  0
   34.8190   23.3280   36.9630 H   0  0  0  0  0  0  0  0  0  0  0  0
   35.5090   23.1650   39.0180 C   0  0  0  0  0  3  0  0  0  0  0  0
   36.0880   24.0750   39.8710 C   0  0  0  0  0  0  0  0  0  0  0  0
   36.5230   23.9640   41.1720 C   0  0  0  0  0  3  0  0  0  0  0  0
   39.7610   30.9120   42.5150 C   0  0  0  0  0  0  0  0  0  0  0  0
   39.1850   31.7610   42.9450 H   0  0  0  0  0  0  0  0  0  0  0  0
   40.6380   30.7640   43.1820 H   0  0  0  0  0  0  0  0  0  0  0  0
   40.3090   31.3490   41.1850 C   0  0  0  0  0  0  0  0  0  0  0  0
   40.2310   30.5460   40.4590 H   0  0  0  0  0  0  0  0  0  0  0  0
   41.4140   31.5750   41.2540 H   0  0  0  0  0  0  0  0  0  0  0  0
   39.6530   32.5690   40.7560 C   0  0  0  0  0  0  0  0  0  0  0  0
   38.3020   32.5860   40.4080 C   0  0  0  0  0  0  0  0  0  0  0  0
   37.7190   33.7830   40.0040 C   0  0  0  0  0  0  0  0  0  0  0  0
   38.5140   34.8890   39.9680 N   0  0  0  0  0  0  0  0  0  0  0  0
   39.8120   34.8440   40.3080 C   0  0  0  0  0  0  0  0  0  0  0  0
   40.3690   33.6980   40.6950 N   0  0  0  0  0  0  0  0  0  0  0  0
   37.6920   31.7170   40.4400 H   0  0  0  0  0  0  0  0  0  0  0  0
   36.6950   33.9160   39.7140 H   0  0  0  0  0  0  0  0  0  0  0  0
   40.4340   35.7440   40.2720 H   0  0  0  0  0  0  0  0  0  0  0  0
  1 20  1  0  0  0  0
  1  2  2  0  0  0  0
  2  6  1  0  0  0  0
  3  2  1  0  0  0  0
  3  7  1  0  0  0  0
  4  3  2  0  0  0  0
  5  4  1  0  0  0  0
  5  1  1  0  0  0  0
  9  4  1  0  0  0  0
  9  8  2  0  0  0  0
 10  9  1  0  0  0  0
 11 10  1  0  0  0  0
 12 10  2  0  0  0  0
 12 18  1  0  0  0  0
 13 12  1  0  0  0  0
 14 13  1  0  0  0  0
 15 13  1  0  0  0  0
 15 17  2  0  0  0  0
 16 15  1  0  0  0  0
 17 18  1  0  0  0  0
 18 19  2  0  0  0  0
 19  8  1  0  0  0  0
 20 21  1  0  0  0  0
 20 22  1  0  0  0  0
 23 25  1  0  0  0  0
 23 20  1  0  0  0  0
 24 23  1  0  0  0  0
 26 23  1  0  0  0  0
 27 32  1  0  0  0  0
 27 26  2  0  0  0  0
 28 27  1  0  0  0  0
 29 28  2  0  0  0  0
 29 30  1  0  0  0  0
 30 31  2  0  0  0  0
 31 26  1  0  0  0  0
 33 28  1  0  0  0  0
 34 30  1  0  0  0  0
M  END
>  <minimizedAffinity>
-5.52619028

$$$$

 OpenBabel03242518143D

 34 37  0  0  0  0  0  0  0  0999 V2000
   34.6480   28.6520   38.0540 C   0  0  0  0  0  0  0  0  0  0  0  0
   34.2620   29.2490   39.2990 C   0  0  0  0  0  0  0  0  0  0  0  0
   35.0110   29.0380   40.4070 C   0  0  0  0  0  0  0  0  0  0  0  0
   36.1910   28.2010   40.2730 C   0  0  0  0  0  0  0  0  0  0  0  0
   36.2130   27.7180   38.5340 S   0  0  0  0  0  0  0  0  0  0  0  0
   33.3690   29.8330   39.2120 H   0  0  0  0  0  0  0  0  0  0  0  0
   34.7420   29.4740   41.3490 H   0  0  0  0  0  0  0  0  0  0  0  0
   37.2320   28.6650   42.4930 C   0  0  0  0  0  3  0  0  0  0  0  0
   37.0820   27.8880   41.3640 C   0  0  0  0  0  0  0  0  0  0  0  0
   37.7830   26.7140   41.1650 C   0  0  0  0  0  0  0  0  0  0  0  0
   37.6990   26.0730   40.2960 H   0  0  0  0  0  0  0  0  0  0  0  0
   38.6900   26.2520   42.1090 C   0  0  0  0  0  0  0  0  0  0  0  0
   39.5020   25.1860   42.2140 N   0  0  0  0  0  0  0  0  0  0  0  0
   39.5880   24.4340   41.4960 H   0  0  0  0  0  0  0  0  0  0  0  0
   40.1820   25.2430   43.3840 C   0  0  0  0  0  0  0  0  0  0  0  0
   40.9060   24.5580   43.7780 H   0  0  0  0  0  0  0  0  0  0  0  0
   39.7760   26.3970   44.0390 C   0  0  0  0  0  3  0  0  0  0  0  0
   38.8460   27.0270   43.2480 C   0  0  0  0  0  0  0  0  0  0  0  0
   38.1340   28.1930   43.4200 C   0  0  0  0  0  3  0  0  0  0  0  0
   34.1700   28.6150   36.7110 C   0  0  0  0  0  0  0  0  0  0  0  0
   34.4190   29.5740   36.2060 H   0  0  0  0  0  0  0  0  0  0  0  0
   34.6980   27.8200   36.1410 H   0  0  0  0  0  0  0  0  0  0  0  0
   32.7000   28.3610   36.5290 C   0  0  0  0  0  0  0  0  0  0  0  0
   32.2640   27.9710   37.4430 H   0  0  0  0  0  0  0  0  0  0  0  0
   32.5180   27.5610   35.7520 H   0  0  0  0  0  0  0  0  0  0  0  0
   32.0450   29.5670   36.0580 C   0  0  0  0  0  0  0  0  0  0  0  0
   31.1910   30.3010   36.8810 C   0  0  0  0  0  0  0  0  0  0  0  0
   30.5880   31.4510   36.3820 C   0  0  0  0  0  0  0  0  0  0  0  0
   30.8680   31.8000   35.0950 N   0  0  0  0  0  0  0  0  0  0  0  0
   31.6930   31.0740   34.3240 C   0  0  0  0  0  0  0  0  0  0  0  0
   32.2700   29.9740   34.8030 N   0  0  0  0  0  0  0  0  0  0  0  0
   30.9800   30.0190   37.8830 H   0  0  0  0  0  0  0  0  0  0  0  0
   29.9160   32.0920   36.9200 H   0  0  0  0  0  0  0  0  0  0  0  0
   31.9050   31.3710   33.2930 H   0  0  0  0  0  0  0  0  0  0  0  0
  1  5  1  0  0  0  0
  1  2  2  0  0  0  0
  2  3  1  0  0  0  0
  3  7  1  0  0  0  0
  4  3  2  0  0  0  0
  4  9  1  0  0  0  0
  5  4  1  0  0  0  0
  6  2  1  0  0  0  0
  8 19  1  0  0  0  0
  9  8  2  0  0  0  0
 10  9  1  0  0  0  0
 10 12  2  0  0  0  0
 11 10  1  0  0  0  0
 12 13  1  0  0  0  0
 12 18  1  0  0  0  0
 13 15  1  0  0  0  0
 14 13  1  0  0  0  0
 15 16  1  0  0  0  0
 15 17  2  0  0  0  0
 18 19  2  0  0  0  0
 18 17  1  0  0  0  0
 20  1  1  0  0  0  0
 21 20  1  0  0  0  0
 22 20  1  0  0  0  0
 23 20  1  0  0  0  0
 23 24  1  0  0  0  0
 25 23  1  0  0  0  0
 26 23  1  0  0  0  0
 26 27  1  0  0  0  0
 27 32  1  0  0  0  0
 28 27  2  0  0  0  0
 28 33  1  0  0  0  0
 29 28  1  0  0  0  0
 30 31  1  0  0  0  0
 30 29  2  0  0  0  0
 31 26  2  0  0  0  0
 34 30  1  0  0  0  0
M  END
>  <minimizedAffinity>
-5.50411606

$$$$

 OpenBabel03242518143D

 34 37  0  0  0  0  0  0  0  0999 V2000
   37.4680   29.3460   41.9680 C   0  0  0  0  0  0  0  0  0  0  0  0
   36.8150   30.5480   41.5390 C   0  0  0  0  0  0  0  0  0  0  0  0
   36.1500   30.5670   40.3590 C   0  0  0  0  0  0  0  0  0  0  0  0
   36.1330   29.3440   39.5750 C   0  0  0  0  0  0  0  0  0  0  0  0
   37.0850   28.1620   40.5520 S   0  0  0  0  0  0  0  0  0  0  0  0
   36.9300   31.3480   42.2400 H   0  0  0  0  0  0  0  0  0  0  0  0
   35.6550   31.4550   40.0180 H   0  0  0  0  0  0  0  0  0  0  0  0
   36.0870   29.3670   37.0800 C   0  0  0  0  0  3  0  0  0  0  0  0
   35.4660   29.2160   38.3020 C   0  0  0  0  0  0  0  0  0  0  0  0
   34.1220   28.9240   38.4270 C   0  0  0  0  0  0  0  0  0  0  0  0
   33.5910   28.7970   39.3640 H   0  0  0  0  0  0  0  0  0  0  0  0
   33.3160   28.7650   37.3080 C   0  0  0  0  0  0  0  0  0  0  0  0
   32.0170   28.4870   37.0960 N   0  0  0  0  0  0  0  0  0  0  0  0
   31.3150   28.3250   37.8500 H   0  0  0  0  0  0  0  0  0  0  0  0
   31.7700   28.4510   35.7650 C   0  0  0  0  0  0  0  0  0  0  0  0
   30.8470   28.2580   35.2550 H   0  0  0  0  0  0  0  0  0  0  0  0
   32.9680   28.7180   35.1160 C   0  0  0  0  0  3  0  0  0  0  0  0
   33.9330   28.9130   36.0750 C   0  0  0  0  0  0  0  0  0  0  0  0
   35.2740   29.2050   35.9800 C   0  0  0  0  0  3  0  0  0  0  0  0
   38.2410   28.9080   43.0840 C   0  0  0  0  0  0  0  0  0  0  0  0
   39.3220   28.9930   42.8370 H   0  0  0  0  0  0  0  0  0  0  0  0
   38.0690   29.5790   43.9530 H   0  0  0  0  0  0  0  0  0  0  0  0
   37.9840   27.5090   43.5700 C   0  0  0  0  0  0  0  0  0  0  0  0
   37.1350   27.0750   43.0520 H   0  0  0  0  0  0  0  0  0  0  0  0
   37.6940   27.5050   44.6620 H   0  0  0  0  0  0  0  0  0  0  0  0
   39.1900   26.7130   43.4480 C   0  0  0  0  0  0  0  0  0  0  0  0
   39.1560   25.4090   42.9550 C   0  0  0  0  0  0  0  0  0  0  0  0
   40.3410   24.6880   42.8570 C   0  0  0  0  0  0  0  0  0  0  0  0
   41.4880   25.3050   43.2570 N   0  0  0  0  0  0  0  0  0  0  0  0
   41.4920   26.5620   43.7290 C   0  0  0  0  0  0  0  0  0  0  0  0
   40.3570   27.2510   43.8220 N   0  0  0  0  0  0  0  0  0  0  0  0
   38.2560   24.9380   42.6460 H   0  0  0  0  0  0  0  0  0  0  0  0
   40.4370   23.6820   42.4940 H   0  0  0  0  0  0  0  0  0  0  0  0
   42.4240   27.0400   44.0450 H   0  0  0  0  0  0  0  0  0  0  0  0
  1 20  1  0  0  0  0
  2  1  2  0  0  0  0
  2  6  1  0  0  0  0
  3  2  1  0  0  0  0
  4  3  2  0  0  0  0
  4  5  1  0  0  0  0
  5  1  1  0  0  0  0
  7  3  1  0  0  0  0
  8  9  1  0  0  0  0
  9 10  2  0  0  0  0
  9  4  1  0  0  0  0
 10 11  1  0  0  0  0
 12 10  1  0  0  0  0
 13 12  1  0  0  0  0
 13 14  1  0  0  0  0
 15 13  1  0  0  0  0
 16 15  1  0  0  0  0
 17 15  2  0  0  0  0
 17 18  1  0  0  0  0
 18 12  2  0  0  0  0
 19 18  1  0  0  0  0
 19  8  2  0  0  0  0
 20 23  1  0  0  0  0
 20 22  1  0  0  0  0
 21 20  1  0  0  0  0
 23 25  1  0  0  0  0
 24 23  1  0  0  0  0
 26 23  1  0  0  0  0
 26 31  1  0  0  0  0
 27 26  2  0  0  0  0
 28 27  1  0  0  0  0
 28 29  2  0  0  0  0
 29 30  1  0  0  0  0
 30 31  2  0  0  0  0
 30 34  1  0  0  0  0
 32 27  1  0  0  0  0
 33 28  1  0  0  0  0
M  END
>  <minimizedAffinity>
-5.35924196

$$$$
