
     RDKit          3D

 49 53  0  0  0  0  0  0  0  0999 V2000
   45.7907   34.1312   41.0805 C   0  0  0  0  0  0  0  0  0  0  0  0
   46.4225   34.7603   42.1570 C   0  0  0  0  0  0  0  0  0  0  0  0
   47.7718   35.0960   41.9816 C   0  0  0  0  0  0  0  0  0  0  0  0
   48.3790   34.7929   40.7873 N   0  0  0  0  0  0  0  0  0  0  0  0
   47.7273   34.1969   39.8069 C   0  0  0  0  0  0  0  0  0  0  0  0
   46.4345   33.8615   39.9414 N   0  0  0  0  0  0  0  0  0  0  0  0
   45.6886   35.0330   43.3708 C   0  0  0  0  0  0  0  0  0  0  0  0
   45.0404   36.2369   43.6151 C   0  0  0  0  0  0  0  0  0  0  0  0
   44.4842   36.0705   44.8556 C   0  0  0  0  0  0  0  0  0  0  0  0
   44.7713   34.8447   45.3426 N   0  0  0  0  0  0  0  0  0  0  0  0
   45.4957   34.2467   44.4273 N   0  0  0  0  0  0  0  0  0  0  0  0
   44.4688   33.7926   41.2285 O   0  0  0  0  0  0  0  0  0  0  0  0
   43.3853   34.4712   40.7672 C   0  0  0  0  0  0  0  0  0  0  0  0
   43.2995   35.7251   40.5427 O   0  0  0  0  0  0  0  0  0  0  0  0
   42.0420   34.0512   40.3927 N   0  0  0  0  0  0  0  0  0  0  0  0
   41.6874   34.3261   39.0206 C   0  0  0  0  0  0  0  0  0  0  0  0
   40.8424   35.6168   39.0759 C   0  0  0  0  0  0  0  0  0  0  0  0
   40.0324   35.5490   40.3831 C   0  0  0  0  0  0  0  0  0  0  0  0
   39.7236   34.1110   40.7314 C   0  0  0  0  0  0  0  0  0  0  0  0
   41.0147   33.4035   41.1869 C   0  0  1  0  0  0  0  0  0  0  0  0
   48.2451   35.5780   42.8142 H   0  0  0  0  0  0  0  0  0  0  0  0
   48.3009   34.0010   38.9011 H   0  0  0  0  0  0  0  0  0  0  0  0
   44.9702   37.1254   42.9900 H   0  0  0  0  0  0  0  0  0  0  0  0
   43.8859   36.7592   45.4443 H   0  0  0  0  0  0  0  0  0  0  0  0
   44.4981   34.4127   46.2530 H   0  0  0  0  0  0  0  0  0  0  0  0
   41.1220   33.5084   38.5450 H   0  0  0  0  0  0  0  0  0  0  0  0
   42.5457   34.5703   38.3682 H   0  0  0  0  0  0  0  0  0  0  0  0
   40.1431   35.5788   38.2378 H   0  0  0  0  0  0  0  0  0  0  0  0
   41.5182   36.4814   39.1072 H   0  0  0  0  0  0  0  0  0  0  0  0
   40.6390   35.9631   41.2095 H   0  0  0  0  0  0  0  0  0  0  0  0
   39.0715   36.0832   40.2782 H   0  0  0  0  0  0  0  0  0  0  0  0
   38.9219   34.0496   41.4588 H   0  0  0  0  0  0  0  0  0  0  0  0
   39.4437   33.5695   39.7944 H   0  0  0  0  0  0  0  0  0  0  0  0
   41.1780   33.6173   42.2457 H   0  0  0  0  0  0  0  0  0  0  0  0
   40.6586   31.4198   39.6239 C   0  0  0  0  0  0  0  0  0  0  0  0
   40.9444   31.9594   40.8519 C   0  0  0  0  0  0  0  0  0  0  0  0
   41.1905   31.0629   41.8721 C   0  0  0  0  0  0  0  0  0  0  0  0
   41.4313   31.2958   42.8983 H   0  0  0  0  0  0  0  0  0  0  0  0
   41.1537   29.6799   41.6777 C   0  0  0  0  0  0  0  0  0  0  0  0
   41.3381   28.5782   42.4307 N   0  0  0  0  0  0  0  0  0  0  0  0
   41.5775   28.6072   43.4475 H   0  0  0  0  0  0  0  0  0  0  0  0
   41.1701   27.4691   41.6872 C   0  0  0  0  0  0  0  0  0  0  0  0
   41.2696   26.4480   42.0817 H   0  0  0  0  0  0  0  0  0  0  0  0
   40.8617   27.8156   40.3876 C   0  0  0  0  0  0  0  0  0  0  0  0
   40.8566   29.1946   40.4038 C   0  0  0  0  0  0  0  0  0  0  0  0
   40.6078   30.0755   39.3714 C   0  0  0  0  0  0  0  0  0  0  0  0
   40.4650   32.1090   38.8204 H   0  0  0  0  0  0  0  0  0  0  0  0
   40.6681   27.1741   39.5487 H   0  0  0  0  0  0  0  0  0  0  0  0
   40.3780   29.7176   38.3865 H   0  0  0  0  0  0  0  0  0  0  0  0
  1 12  1  0
  1  2  1  0
  2  7  1  0
  3  2  2  0
  4  3  1  0
  5  6  1  0
  5  4  2  0
  6  1  2  0
  7  8  1  0
  7 11  2  0
  8  9  2  0
  9 10  1  0
 11 10  1  0
 13 12  1  0
 14 13  2  0
 15 13  1  0
 15 20  1  0
 16 17  1  0
 16 15  1  0
 17 18  1  0
 18 19  1  0
 19 20  1  0
  3 21  1  0
  5 22  1  0
  8 23  1  0
  9 24  1  0
 10 25  1  0
 16 26  1  0
 16 27  1  0
 17 28  1  0
 17 29  1  0
 18 30  1  0
 18 31  1  0
 19 32  1  0
 19 33  1  0
 20 34  1  1
 35 36  2  0
 36 37  1  0
 37 38  1  0
 37 39  2  0
 39 40  1  0
 40 41  1  0
 40 42  1  0
 42 43  1  0
 42 44  2  0
 44 45  1  0
 45 46  2  0
 46 35  1  0
 45 39  1  0
 35 47  1  0
 44 48  1  0
 46 49  1  0
 20 36  1  0
M  ISO  8  21  14  22  14  23  14  24  14  25   9  26  13  27  13  28  13
M  ISO  8  29  13  30  13  31  13  32  13  33  13  34  13  38  15  41   5
M  ISO  1  43  14
M  END
>  <DihAtoms>  (1) 
14,19,35,34

>  <DihDeg>  (1) 
44.510791613649985

$$$$
