
 OpenBabel03252508533D

 46 50  0  0  1  0  0  0  0  0999 V2000
   43.3870   34.5370   40.7530 C   0  0  0  0  0  0  0  0  0  0  0  0
   43.3560   35.7720   40.4330 O   0  0  0  0  0  0  0  0  0  0  0  0
   42.0100   34.1620   40.4640 N   0  0  0  0  0  0  0  0  0  0  0  0
   41.6130   34.3480   39.0890 C   0  0  0  0  0  0  0  0  0  0  0  0
   40.8370   35.6830   39.0720 C   0  0  0  0  0  0  0  0  0  0  0  0
   40.0800   35.7600   40.4100 C   0  0  0  0  0  0  0  0  0  0  0  0
   39.7140   34.3720   40.8830 C   0  0  0  0  0  0  0  0  0  0  0  0
   40.9860   33.6340   41.3450 C   0  0  1  0  0  0  0  0  0  0  0  0
   40.9880   33.5270   38.7010 H   0  0  0  0  0  0  0  0  0  0  0  0
   42.4550   34.4940   38.3870 H   0  0  0  0  0  0  0  0  0  0  0  0
   40.1030   35.6180   38.2670 H   0  0  0  0  0  0  0  0  0  0  0  0
   41.5570   36.5090   39.0090 H   0  0  0  0  0  0  0  0  0  0  0  0
   40.7410   36.2040   41.1770 H   0  0  0  0  0  0  0  0  0  0  0  0
   39.1450   36.3350   40.2990 H   0  0  0  0  0  0  0  0  0  0  0  0
   38.9410   34.4110   41.6430 H   0  0  0  0  0  0  0  0  0  0  0  0
   39.3680   33.7750   40.0030 H   0  0  0  0  0  0  0  0  0  0  0  0
   41.2030   33.9200   42.3770 H   0  0  0  0  0  0  0  0  0  0  0  0
   41.1050   31.4860   39.9760 C   0  0  0  0  0  3  0  0  0  0  0  0
   40.8280   32.1740   41.1290 C   0  0  0  0  0  0  0  0  0  0  0  0
   40.3570   31.4270   42.1890 C   0  0  0  0  0  0  0  0  0  0  0  0
   40.0860   31.7880   43.1700 H   0  0  0  0  0  0  0  0  0  0  0  0
   40.1690   30.0450   42.1060 C   0  0  0  0  0  0  0  0  0  0  0  0
   39.7410   29.0620   42.9230 N   0  0  0  0  0  0  0  0  0  0  0  0
   39.4370   29.2220   43.9090 H   0  0  0  0  0  0  0  0  0  0  0  0
   39.7690   27.8770   42.2830 C   0  0  0  0  0  0  0  0  0  0  0  0
   39.4670   26.9270   42.7450 H   0  0  0  0  0  0  0  0  0  0  0  0
   40.2280   28.0490   40.9940 C   0  0  0  0  0  3  0  0  0  0  0  0
   40.4700   29.4040   40.9040 C   0  0  0  0  0  0  0  0  0  0  0  0
   40.9420   30.1340   39.8330 C   0  0  0  0  0  3  0  0  0  0  0  0
   44.4540   33.8390   41.2250 O   0  0  0  0  0  0  0  0  0  0  0  0
   45.7830   34.1520   41.0900 C   0  0  0  0  0  0  0  0  0  0  0  0
   46.4190   34.7600   42.1750 C   0  0  0  0  0  0  0  0  0  0  0  0
   47.7770   35.0700   42.0120 C   0  0  0  0  0  0  0  0  0  0  0  0
   48.3860   34.7640   40.8190 N   0  0  0  0  0  0  0  0  0  0  0  0
   47.7290   34.1880   39.8300 C   0  0  0  0  0  0  0  0  0  0  0  0
   46.4290   33.8770   39.9530 N   0  0  0  0  0  0  0  0  0  0  0  0
   48.2530   35.5360   42.8510 H   0  0  0  0  0  0  0  0  0  0  0  0
   48.3060   33.9880   38.9270 H   0  0  0  0  0  0  0  0  0  0  0  0
   45.6830   35.0380   43.3860 C   0  0  0  0  0  0  0  0  0  0  0  0
   45.0350   36.2440   43.6240 C   0  0  0  0  0  0  0  0  0  0  0  0
   44.4750   36.0830   44.8640 C   0  0  0  0  0  0  0  0  0  0  0  0
   44.7590   34.8590   45.3560 N   0  0  0  0  0  0  0  0  0  0  0  0
   45.4850   34.2560   44.4440 N   0  0  0  0  0  0  0  0  0  0  0  0
   44.9690   37.1300   42.9960 H   0  0  0  0  0  0  0  0  0  0  0  0
   43.8770   36.7740   45.4480 H   0  0  0  0  0  0  0  0  0  0  0  0
   44.4820   34.4300   46.2670 H   0  0  0  0  0  0  0  0  0  0  0  0
  1 30  1  0  0  0  0
  2  1  2  0  0  0  0
  3  1  1  0  0  0  0
  3  8  1  0  0  0  0
  4  3  1  0  0  0  0
  5  4  1  0  0  0  0
  5  6  1  0  0  0  0
  6  7  1  0  0  0  0
  6 13  1  0  0  0  0
  7  8  1  0  0  0  0
  7 15  1  0  0  0  0
  8 17  1  1  0  0  0
  9  4  1  0  0  0  0
 10  4  1  0  0  0  0
 11  5  1  0  0  0  0
 12  5  1  0  0  0  0
 14  6  1  0  0  0  0
 16  7  1  0  0  0  0
 18 19  1  0  0  0  0
 19  8  1  0  0  0  0
 19 20  2  0  0  0  0
 20 21  1  0  0  0  0
 22 20  1  0  0  0  0
 22 23  1  0  0  0  0
 23 24  1  0  0  0  0
 25 26  1  0  0  0  0
 25 23  1  0  0  0  0
 27 25  2  0  0  0  0
 28 27  1  0  0  0  0
 28 22  2  0  0  0  0
 29 18  2  0  0  0  0
 29 28  1  0  0  0  0
 31 30  1  0  0  0  0
 31 32  1  0  0  0  0
 32 39  1  0  0  0  0
 33 32  2  0  0  0  0
 33 37  1  0  0  0  0
 34 33  1  0  0  0  0
 35 36  1  0  0  0  0
 35 34  2  0  0  0  0
 36 31  2  0  0  0  0
 38 35  1  0  0  0  0
 39 40  1  0  0  0  0
 39 43  2  0  0  0  0
 40 41  2  0  0  0  0
 41 42  1  0  0  0  0
 41 45  1  0  0  0  0
 42 46  1  0  0  0  0
 43 42  1  0  0  0  0
 44 40  1  0  0  0  0
M  END
>  <minimizedAffinity>
-7.09811497

>  <minimizedRMSD>
0.355912536

$$$$
