REMARK  Name = 
REMARK  2 active torsions:
REMARK  status: ('A' for Active; 'I' for Inactive)
REMARK    1  A    between atoms: C_2  and  C_14
REMARK    2  A    between atoms: C_3  and  C_24
REMARK                            x       y       z     vdW  Elec       q    Type
REMARK                         _______ _______ _______ _____ _____    ______ ____
ROOT
ATOM      1  C   UNL     1      47.224  31.368  45.092  0.00  0.00    +0.000 A 
ATOM      2  C   UNL     1      46.879  32.708  45.094  0.00  0.00    +0.000 A 
ATOM      3  C   UNL     1      46.278  33.315  46.176  0.00  0.00    +0.000 A 
ATOM      4  C   UNL     1      45.999  32.556  47.326  0.00  0.00    +0.000 A 
ATOM      5  N   UNL     1      45.433  32.817  48.536  0.00  0.00    +0.000 N 
ATOM      6  C   UNL     1      45.431  31.662  49.259  0.00  0.00    +0.000 A 
ATOM      7  N   UNL     1      46.001  30.704  48.474  0.00  0.00    +0.000 NA
ATOM      8  C   UNL     1      46.355  31.226  47.288  0.00  0.00    +0.000 A 
ATOM      9  C   UNL     1      46.954  30.603  46.224  0.00  0.00    +0.000 A 
ATOM     10  H   UNL     1      47.699  30.915  44.220  0.00  0.00    +0.000 HD
ATOM     11  H   UNL     1      45.077  33.765  48.810  0.00  0.00    +0.000 HD
ATOM     12  H   UNL     1      45.032  31.601  50.266  0.00  0.00    +0.000 HD
ATOM     13  H   UNL     1      47.204  29.551  46.272  0.00  0.00    +0.000 HD
ENDROOT
BRANCH   3  15
ATOM     14  C   UNL     1      45.279  35.028  47.457  0.00  0.00    +0.000 A 
ATOM     15  C   UNL     1      45.888  34.710  46.254  0.00  0.00    +0.000 A 
ATOM     16  C   UNL     1      46.058  35.699  45.290  0.00  0.00    +0.000 A 
ATOM     17  H   UNL     1      46.543  35.348  44.387  0.00  0.00    +0.000 HD
ATOM     18  C   UNL     1      45.617  36.971  45.556  0.00  0.00    +0.000 A 
ATOM     19  N   UNL     1      45.681  38.058  44.778  0.00  0.00    +0.000 N 
ATOM     20  H   UNL     1      46.076  38.145  43.824  0.00  0.00    +0.000 HD
ATOM     21  C   UNL     1      45.120  39.095  45.452  0.00  0.00    +0.000 A 
ATOM     22  H   UNL     1      45.028  40.089  45.085  0.00  0.00    +0.000 HD
ATOM     23  C   UNL     1      44.695  38.632  46.692  0.00  0.00    +0.000 A 
ATOM     24  C   UNL     1      45.012  37.296  46.747  0.00  0.00    +0.000 A 
ATOM     25  C   UNL     1      44.842  36.328  47.697  0.00  0.00    +0.000 A 
ENDBRANCH   3  15
BRANCH   2  30
ATOM     26  C   UNL     1      46.529  35.208  42.423  0.00  0.00    +0.000 A 
ATOM     27  C   UNL     1      47.716  35.058  41.709  0.00  0.00    +0.000 A 
ATOM     28  C   UNL     1      48.633  34.095  42.150  0.00  0.00    +0.000 A 
ATOM     29  N   UNL     1      48.308  33.361  43.255  0.00  0.00    +0.000 NA
ATOM     30  C   UNL     1      47.149  33.528  43.929  0.00  0.00    +0.000 A 
ATOM     31  N   UNL     1      46.277  34.444  43.509  0.00  0.00    +0.000 NA
ATOM     32  H   UNL     1      45.771  35.943  42.129  0.00  0.00    +0.000 HD
ATOM     33  H   UNL     1      47.916  35.664  40.847  0.00  0.00    +0.000 HD
ATOM     34  H   UNL     1      49.573  33.939  41.627  0.00  0.00    +0.000 HD
ENDBRANCH   2  30
TORSDOF 2
