
 OpenBabel03252508533D

 46 50  0  0  1  0  0  0  0  0999 V2000
   43.2970   34.4360   40.7190 C   0  0  0  0  0  0  0  0  0  0  0  0
   43.2710   35.6180   40.2390 O   0  0  0  0  0  0  0  0  0  0  0  0
   41.9170   34.0330   40.4860 N   0  0  0  0  0  0  0  0  0  0  0  0
   41.5160   34.0390   39.0990 C   0  0  0  0  0  0  0  0  0  0  0  0
   40.7470   35.3640   38.9090 C   0  0  0  0  0  0  0  0  0  0  0  0
   39.9940   35.6200   40.2260 C   0  0  0  0  0  0  0  0  0  0  0  0
   39.6240   34.3090   40.8790 C   0  0  0  0  0  0  0  0  0  0  0  0
   40.8930   33.6320   41.4310 C   0  0  1  0  0  0  0  0  0  0  0  0
   40.8860   33.1770   38.8240 H   0  0  0  0  0  0  0  0  0  0  0  0
   42.3570   34.0870   38.3810 H   0  0  0  0  0  0  0  0  0  0  0  0
   40.0100   35.1970   38.1200 H   0  0  0  0  0  0  0  0  0  0  0  0
   41.4700   36.1710   38.7350 H   0  0  0  0  0  0  0  0  0  0  0  0
   40.6600   36.1580   40.9270 H   0  0  0  0  0  0  0  0  0  0  0  0
   39.0610   36.1810   40.0430 H   0  0  0  0  0  0  0  0  0  0  0  0
   38.8530   34.4510   41.6290 H   0  0  0  0  0  0  0  0  0  0  0  0
   39.2720   33.6020   40.0860 H   0  0  0  0  0  0  0  0  0  0  0  0
   41.1150   34.0490   42.4160 H   0  0  0  0  0  0  0  0  0  0  0  0
   39.7000   31.4590   40.8280 C   0  0  0  0  0  3  0  0  0  0  0  0
   40.7270   32.1560   41.4100 C   0  0  0  0  0  0  0  0  0  0  0  0
   41.7020   31.4040   42.0350 C   0  0  0  0  0  0  0  0  0  0  0  0
   42.5800   31.7710   42.5440 H   0  0  0  0  0  0  0  0  0  0  0  0
   41.6550   30.0080   42.0800 C   0  0  0  0  0  0  0  0  0  0  0  0
   42.4130   29.0180   42.5870 N   0  0  0  0  0  0  0  0  0  0  0  0
   43.3010   29.1810   43.1130 H   0  0  0  0  0  0  0  0  0  0  0  0
   41.8610   27.8200   42.3180 C   0  0  0  0  0  0  0  0  0  0  0  0
   42.2980   26.8610   42.6310 H   0  0  0  0  0  0  0  0  0  0  0  0
   40.6910   27.9910   41.6050 C   0  0  0  0  0  3  0  0  0  0  0  0
   40.5830   29.3590   41.4680 C   0  0  0  0  0  0  0  0  0  0  0  0
   39.5990   30.0940   40.8380 C   0  0  0  0  0  3  0  0  0  0  0  0
   44.3610   33.8010   41.2770 O   0  0  0  0  0  0  0  0  0  0  0  0
   45.6910   34.1040   41.1210 C   0  0  0  0  0  0  0  0  0  0  0  0
   46.3430   34.7230   42.1900 C   0  0  0  0  0  0  0  0  0  0  0  0
   47.7000   35.0240   42.0060 C   0  0  0  0  0  0  0  0  0  0  0  0
   48.2930   34.6990   40.8100 N   0  0  0  0  0  0  0  0  0  0  0  0
   47.6210   34.1140   39.8370 C   0  0  0  0  0  0  0  0  0  0  0  0
   46.3210   33.8120   39.9790 N   0  0  0  0  0  0  0  0  0  0  0  0
   48.1900   35.4980   42.8330 H   0  0  0  0  0  0  0  0  0  0  0  0
   48.1850   33.8980   38.9290 H   0  0  0  0  0  0  0  0  0  0  0  0
   45.6240   35.0220   43.4060 C   0  0  0  0  0  0  0  0  0  0  0  0
   44.9970   36.2390   43.6420 C   0  0  0  0  0  0  0  0  0  0  0  0
   44.4470   36.0960   44.8880 C   0  0  0  0  0  0  0  0  0  0  0  0
   44.7170   34.8700   45.3870 N   0  0  0  0  0  0  0  0  0  0  0  0
   45.4250   34.2500   44.4720 N   0  0  0  0  0  0  0  0  0  0  0  0
   44.9380   37.1210   43.0080 H   0  0  0  0  0  0  0  0  0  0  0  0
   43.8650   36.8000   45.4730 H   0  0  0  0  0  0  0  0  0  0  0  0
   44.4430   34.4530   46.3030 H   0  0  0  0  0  0  0  0  0  0  0  0
  1 30  1  0  0  0  0
  2  1  2  0  0  0  0
  3  1  1  0  0  0  0
  3  8  1  0  0  0  0
  4  3  1  0  0  0  0
  5  4  1  0  0  0  0
  5  6  1  0  0  0  0
  6  7  1  0  0  0  0
  6 13  1  0  0  0  0
  7  8  1  0  0  0  0
  7 15  1  0  0  0  0
  8 17  1  1  0  0  0
  9  4  1  0  0  0  0
 10  4  1  0  0  0  0
 11  5  1  0  0  0  0
 12  5  1  0  0  0  0
 14  6  1  0  0  0  0
 16  7  1  0  0  0  0
 18 29  2  0  0  0  0
 18 19  1  0  0  0  0
 19  8  1  0  0  0  0
 19 20  2  0  0  0  0
 20 22  1  0  0  0  0
 20 21  1  0  0  0  0
 22 23  1  0  0  0  0
 23 24  1  0  0  0  0
 25 23  1  0  0  0  0
 25 26  1  0  0  0  0
 27 25  2  0  0  0  0
 28 27  1  0  0  0  0
 28 22  2  0  0  0  0
 29 28  1  0  0  0  0
 31 30  1  0  0  0  0
 31 32  1  0  0  0  0
 32 39  1  0  0  0  0
 33 32  2  0  0  0  0
 33 37  1  0  0  0  0
 34 33  1  0  0  0  0
 35 36  1  0  0  0  0
 35 34  2  0  0  0  0
 36 31  2  0  0  0  0
 38 35  1  0  0  0  0
 39 40  1  0  0  0  0
 39 43  2  0  0  0  0
 40 41  2  0  0  0  0
 41 42  1  0  0  0  0
 41 45  1  0  0  0  0
 42 46  1  0  0  0  0
 43 42  1  0  0  0  0
 44 40  1  0  0  0  0
M  END
>  <minimizedAffinity>
-6.81218052

>  <minimizedRMSD>
0.657198787

$$$$
