
 OpenBabel03252509103D

 34 38  0  0  0  0  0  0  0  0999 V2000
   47.4320   31.9550   44.0870 C   0  0  0  0  0  0  0  0  0  0  0  0
   48.3680   31.4760   43.1870 C   0  0  0  0  0  0  0  0  0  0  0  0
   48.8930   32.2580   42.1810 C   0  0  0  0  0  0  0  0  0  0  0  0
   48.4710   33.5930   42.0520 C   0  0  0  0  0  0  0  0  0  0  0  0
   48.7660   34.6170   41.2060 N   0  0  0  0  0  0  0  0  0  0  0  0
   48.0270   35.7000   41.5790 C   0  0  0  0  0  0  0  0  0  0  0  0
   47.2850   35.3180   42.6570 N   0  0  0  0  0  0  0  0  0  0  0  0
   47.5380   34.0350   42.9640 C   0  0  0  0  0  0  0  0  0  0  0  0
   47.0030   33.2750   43.9720 C   0  0  0  0  0  0  0  0  0  0  0  0
   47.0330   31.3120   44.8730 H   0  0  0  0  0  0  0  0  0  0  0  0
   49.4540   34.5310   40.4190 H   0  0  0  0  0  0  0  0  0  0  0  0
   48.0790   36.6520   41.0620 H   0  0  0  0  0  0  0  0  0  0  0  0
   46.2730   33.6970   44.6510 H   0  0  0  0  0  0  0  0  0  0  0  0
   49.2980   31.2420   40.0880 C   0  0  0  0  0  3  0  0  0  0  0  0
   49.8750   31.8300   41.2030 C   0  0  0  0  0  0  0  0  0  0  0  0
   51.2600   31.9470   41.2750 C   0  0  0  0  0  0  0  0  0  0  0  0
   51.6090   32.4200   42.1860 H   0  0  0  0  0  0  0  0  0  0  0  0
   52.0230   31.4770   40.2370 C   0  0  0  0  0  0  0  0  0  0  0  0
   53.3550   31.4890   40.1050 N   0  0  0  0  0  0  0  0  0  0  0  0
   54.0640   31.8580   40.7650 H   0  0  0  0  0  0  0  0  0  0  0  0
   53.6680   30.9150   38.9150 C   0  0  0  0  0  0  0  0  0  0  0  0
   54.6540   30.7850   38.5350 H   0  0  0  0  0  0  0  0  0  0  0  0
   52.4870   30.5350   38.2880 C   0  0  0  0  0  3  0  0  0  0  0  0
   51.4590   30.8920   39.1270 C   0  0  0  0  0  0  0  0  0  0  0  0
   50.1000   30.7740   39.0510 C   0  0  0  0  0  3  0  0  0  0  0  0
   48.5850   27.8260   42.8180 C   0  0  0  0  0  0  0  0  0  0  0  0
   49.7610   27.5210   43.4990 C   0  0  0  0  0  0  0  0  0  0  0  0
   50.4760   28.5750   44.0830 C   0  0  0  0  0  0  0  0  0  0  0  0
   49.9760   29.8390   43.9500 N   0  0  0  0  0  0  0  0  0  0  0  0
   48.8310   30.1060   43.2840 C   0  0  0  0  0  0  0  0  0  0  0  0
   48.1520   29.1030   42.7280 N   0  0  0  0  0  0  0  0  0  0  0  0
   47.9800   27.0470   42.3390 H   0  0  0  0  0  0  0  0  0  0  0  0
   50.1050   26.5080   43.5700 H   0  0  0  0  0  0  0  0  0  0  0  0
   51.4000   28.3890   44.6260 H   0  0  0  0  0  0  0  0  0  0  0  0
  1 10  1  0  0  0  0
  2 30  1  0  0  0  0
  2  1  2  0  0  0  0
  3  2  1  0  0  0  0
  4  3  2  0  0  0  0
  4  8  1  0  0  0  0
  5  6  1  0  0  0  0
  5  4  1  0  0  0  0
  6  7  2  0  0  0  0
  7  8  1  0  0  0  0
  8  9  2  0  0  0  0
  9  1  1  0  0  0  0
  9 13  1  0  0  0  0
 11  5  1  0  0  0  0
 12  6  1  0  0  0  0
 14 15  1  0  0  0  0
 15 16  2  0  0  0  0
 15  3  1  0  0  0  0
 16 17  1  0  0  0  0
 18 16  1  0  0  0  0
 19 18  1  0  0  0  0
 19 20  1  0  0  0  0
 21 19  1  0  0  0  0
 22 21  1  0  0  0  0
 23 21  2  0  0  0  0
 23 24  1  0  0  0  0
 24 18  2  0  0  0  0
 25 24  1  0  0  0  0
 25 14  2  0  0  0  0
 26 27  1  0  0  0  0
 27 33  1  0  0  0  0
 27 28  2  0  0  0  0
 28 34  1  0  0  0  0
 29 28  1  0  0  0  0
 30 29  2  0  0  0  0
 31 26  2  0  0  0  0
 31 30  1  0  0  0  0
 32 26  1  0  0  0  0
M  END
>  <minimizedAffinity>
-3.95182657

>  <minimizedRMSD>
8.15765476

$$$$
