
 OpenBabel03242516313D

 49 54  0  0  0  0  0  0  0  0999 V2000
   38.8150   30.0600   42.2780 C   0  0  0  0  0  0  0  0  0  0  0  0
   40.0680   30.2550   42.7880 N   0  0  0  0  0  0  0  0  0  0  0  0
   40.9200   31.1690   42.3360 C   0  0  0  0  0  0  0  0  0  0  0  0
   40.5140   31.9380   41.3200 N   0  0  0  0  0  0  0  0  0  0  0  0
   39.3060   31.8150   40.7620 C   0  0  0  0  0  0  0  0  0  0  0  0
   38.8720   32.6130   39.7120 C   0  0  0  0  0  0  0  0  0  0  0  0
   37.6430   32.4770   39.1650 C   0  0  0  0  0  0  0  0  0  0  0  0
   36.7880   31.5310   39.6430 C   0  0  0  0  0  0  0  0  0  0  0  0
   37.1680   30.6960   40.7000 C   0  0  0  0  0  0  0  0  0  0  0  0
   38.4110   30.8500   41.2400 C   0  0  0  0  0  0  0  0  0  0  0  0
   41.8880   31.2380   42.8120 H   0  0  0  0  0  0  0  0  0  0  0  0
   39.5740   33.3520   39.3570 H   0  0  0  0  0  0  0  0  0  0  0  0
   37.3500   33.1310   38.3410 H   0  0  0  0  0  0  0  0  0  0  0  0
   35.8140   31.4680   39.1640 H   0  0  0  0  0  0  0  0  0  0  0  0
   36.1710   29.6850   41.1150 C   0  0  0  0  0  0  0  0  0  0  0  0
   36.5610   28.8370   41.6790 H   0  0  0  0  0  0  0  0  0  0  0  0
   35.1950   30.1070   41.4310 H   0  0  0  0  0  0  0  0  0  0  0  0
   36.4020   27.9070   39.3000 C   0  0  0  0  0  3  0  0  0  0  0  0
   35.6690   28.9280   39.8950 C   0  0  0  0  0  0  0  0  0  0  0  0
   34.4440   29.1880   39.2700 C   0  0  0  0  0  0  0  0  0  0  0  0
   33.8400   29.9910   39.7190 H   0  0  0  0  0  0  0  0  0  0  0  0
   34.0140   28.4890   38.1650 C   0  0  0  0  0  0  0  0  0  0  0  0
   32.8700   28.6270   37.4620 N   0  0  0  0  0  0  0  0  0  0  0  0
   32.0840   29.2970   37.6260 H   0  0  0  0  0  0  0  0  0  0  0  0
   32.9140   27.7110   36.4700 C   0  0  0  0  0  0  0  0  0  0  0  0
   32.1850   27.5030   35.6900 H   0  0  0  0  0  0  0  0  0  0  0  0
   34.1070   27.0000   36.5650 C   0  0  0  0  0  3  0  0  0  0  0  0
   34.8110   27.4920   37.6430 C   0  0  0  0  0  0  0  0  0  0  0  0
   36.0280   27.1740   38.1970 C   0  0  0  0  0  3  0  0  0  0  0  0
   37.7420   28.8890   42.9420 S   0  0  0  0  0  0  0  0  0  0  0  0
   38.3090   25.0470   41.9940 C   0  0  0  0  0  0  0  0  0  0  0  0
   37.8450   26.3440   42.0500 C   0  0  0  0  0  0  0  0  0  0  0  0
   38.3970   27.2640   42.9050 C   0  0  0  0  0  0  0  0  0  0  0  0
   39.4360   26.9050   43.7310 C   0  0  0  0  0  0  0  0  0  0  0  0
   39.9330   25.6360   43.7170 C   0  0  0  0  0  0  0  0  0  0  0  0
   39.3650   24.7300   42.8520 C   0  0  0  0  0  0  0  0  0  0  0  0
   37.0230   26.6400   41.4000 H   0  0  0  0  0  0  0  0  0  0  0  0
   39.8600   27.6640   44.4060 H   0  0  0  0  0  0  0  0  0  0  0  0
   40.7500   25.3360   44.3590 H   0  0  0  0  0  0  0  0  0  0  0  0
   39.7460   23.7110   42.8240 H   0  0  0  0  0  0  0  0  0  0  0  0
   35.8580   23.5370   39.7440 C   0  0  0  0  0  0  0  0  0  0  0  0
   36.4820   22.3350   39.3470 C   0  0  0  0  0  0  0  0  0  0  0  0
   37.7440   22.0470   39.8520 C   0  0  0  0  0  0  0  0  0  0  0  0
   38.3570   22.9200   40.7170 N   0  0  0  0  0  0  0  0  0  0  0  0
   37.7080   24.0780   41.0760 C   0  0  0  0  0  0  0  0  0  0  0  0
   36.4680   24.3890   40.5960 N   0  0  0  0  0  0  0  0  0  0  0  0
   34.8830   23.7120   39.3260 H   0  0  0  0  0  0  0  0  0  0  0  0
   36.0080   21.6380   38.6640 H   0  0  0  0  0  0  0  0  0  0  0  0
   38.2940   21.1480   39.5990 H   0  0  0  0  0  0  0  0  0  0  0  0
  1  2  1  0  0  0  0
  1 30  1  0  0  0  0
  3  2  2  0  0  0  0
  3 11  1  0  0  0  0
  4  3  1  0  0  0  0
  5 10  1  0  0  0  0
  5  4  2  0  0  0  0
  6  5  1  0  0  0  0
  7  8  1  0  0  0  0
  7  6  2  0  0  0  0
  8  9  2  0  0  0  0
  9 15  1  0  0  0  0
  9 10  1  0  0  0  0
 10  1  2  0  0  0  0
 12  6  1  0  0  0  0
 13  7  1  0  0  0  0
 14  8  1  0  0  0  0
 15 17  1  0  0  0  0
 15 16  1  0  0  0  0
 18 19  1  0  0  0  0
 19 15  1  0  0  0  0
 20 21  1  0  0  0  0
 20 19  2  0  0  0  0
 22 20  1  0  0  0  0
 23 24  1  0  0  0  0
 23 22  1  0  0  0  0
 25 27  2  0  0  0  0
 25 23  1  0  0  0  0
 26 25  1  0  0  0  0
 27 28  1  0  0  0  0
 28 22  2  0  0  0  0
 28 29  1  0  0  0  0
 29 18  2  0  0  0  0
 31 32  2  0  0  0  0
 31 36  1  0  0  0  0
 32 33  1  0  0  0  0
 33 30  1  0  0  0  0
 33 34  2  0  0  0  0
 34 38  1  0  0  0  0
 35 34  1  0  0  0  0
 35 39  1  0  0  0  0
 36 35  2  0  0  0  0
 37 32  1  0  0  0  0
 40 36  1  0  0  0  0
 41 46  1  0  0  0  0
 42 41  2  0  0  0  0
 42 43  1  0  0  0  0
 43 44  2  0  0  0  0
 44 45  1  0  0  0  0
 45 31  1  0  0  0  0
 46 45  2  0  0  0  0
 47 41  1  0  0  0  0
 48 42  1  0  0  0  0
 49 43  1  0  0  0  0
M  END
>  <minimizedAffinity>
-7.41822529

$$$$

 OpenBabel03242516313D

 49 54  0  0  0  0  0  0  0  0999 V2000
   38.9870   30.2490   42.2090 C   0  0  0  0  0  0  0  0  0  0  0  0
   40.2500   30.0580   42.6930 N   0  0  0  0  0  0  0  0  0  0  0  0
   41.2880   30.8290   42.3840 C   0  0  0  0  0  0  0  0  0  0  0  0
   41.0680   31.8500   41.5480 N   0  0  0  0  0  0  0  0  0  0  0  0
   39.8640   32.1080   41.0290 C   0  0  0  0  0  0  0  0  0  0  0  0
   39.6240   33.1690   40.1670 C   0  0  0  0  0  0  0  0  0  0  0  0
   38.3960   33.4180   39.6570 C   0  0  0  0  0  0  0  0  0  0  0  0
   37.3480   32.6130   39.9860 C   0  0  0  0  0  0  0  0  0  0  0  0
   37.5280   31.5270   40.8500 C   0  0  0  0  0  0  0  0  0  0  0  0
   38.7730   31.2930   41.3560 C   0  0  0  0  0  0  0  0  0  0  0  0
   42.2460   30.5880   42.8220 H   0  0  0  0  0  0  0  0  0  0  0  0
   40.4750   33.7870   39.9270 H   0  0  0  0  0  0  0  0  0  0  0  0
   38.2600   34.2670   38.9830 H   0  0  0  0  0  0  0  0  0  0  0  0
   36.3850   32.8620   39.5450 H   0  0  0  0  0  0  0  0  0  0  0  0
   36.3270   30.7040   41.1110 C   0  0  0  0  0  0  0  0  0  0  0  0
   36.4930   29.7910   41.6850 H   0  0  0  0  0  0  0  0  0  0  0  0
   35.4090   31.2870   41.3280 H   0  0  0  0  0  0  0  0  0  0  0  0
   34.6660   29.3430   39.7340 C   0  0  0  0  0  3  0  0  0  0  0  0
   35.8500   30.0660   39.8150 C   0  0  0  0  0  0  0  0  0  0  0  0
   36.5520   30.1470   38.6060 C   0  0  0  0  0  0  0  0  0  0  0  0
   37.4940   30.7140   38.6380 H   0  0  0  0  0  0  0  0  0  0  0  0
   36.0990   29.5580   37.4470 C   0  0  0  0  0  0  0  0  0  0  0  0
   36.6610   29.5510   36.2210 N   0  0  0  0  0  0  0  0  0  0  0  0
   37.5560   29.9970   35.9130 H   0  0  0  0  0  0  0  0  0  0  0  0
   35.8330   28.8420   35.4220 C   0  0  0  0  0  0  0  0  0  0  0  0
   35.9300   28.6060   34.3640 H   0  0  0  0  0  0  0  0  0  0  0  0
   34.7460   28.4050   36.1730 C   0  0  0  0  0  3  0  0  0  0  0  0
   34.9100   28.8590   37.4630 C   0  0  0  0  0  0  0  0  0  0  0  0
   34.1610   28.7320   38.6080 C   0  0  0  0  0  3  0  0  0  0  0  0
   37.6750   29.2410   42.6870 S   0  0  0  0  0  0  0  0  0  0  0  0
   37.3250   25.6110   41.0500 C   0  0  0  0  0  0  0  0  0  0  0  0
   37.1680   26.9450   41.3650 C   0  0  0  0  0  0  0  0  0  0  0  0
   37.9440   27.5500   42.3200 C   0  0  0  0  0  0  0  0  0  0  0  0
   38.9070   26.8290   42.9880 C   0  0  0  0  0  0  0  0  0  0  0  0
   39.1040   25.5080   42.7160 C   0  0  0  0  0  0  0  0  0  0  0  0
   38.3130   24.9220   41.7560 C   0  0  0  0  0  0  0  0  0  0  0  0
   36.4090   27.5260   40.8430 H   0  0  0  0  0  0  0  0  0  0  0  0
   39.5160   27.3400   43.7490 H   0  0  0  0  0  0  0  0  0  0  0  0
   39.8550   24.9250   43.2310 H   0  0  0  0  0  0  0  0  0  0  0  0
   38.4530   23.8680   41.5230 H   0  0  0  0  0  0  0  0  0  0  0  0
   35.4890   25.1930   37.9200 C   0  0  0  0  0  0  0  0  0  0  0  0
   34.9260   23.9050   38.0450 C   0  0  0  0  0  0  0  0  0  0  0  0
   35.1800   23.1820   39.2050 C   0  0  0  0  0  0  0  0  0  0  0  0
   35.9610   23.7220   40.1970 N   0  0  0  0  0  0  0  0  0  0  0  0
   36.4860   24.9820   40.0290 C   0  0  0  0  0  0  0  0  0  0  0  0
   36.2550   25.7160   38.9010 N   0  0  0  0  0  0  0  0  0  0  0  0
   35.2610   25.7100   37.0040 H   0  0  0  0  0  0  0  0  0  0  0  0
   34.3080   23.4670   37.2680 H   0  0  0  0  0  0  0  0  0  0  0  0
   34.7890   22.1870   39.3820 H   0  0  0  0  0  0  0  0  0  0  0  0
  1 30  1  0  0  0  0
  1  2  1  0  0  0  0
  3  2  2  0  0  0  0
  3 11  1  0  0  0  0
  4  3  1  0  0  0  0
  5 10  1  0  0  0  0
  5  4  2  0  0  0  0
  6  5  1  0  0  0  0
  7  8  1  0  0  0  0
  7  6  2  0  0  0  0
  8  9  2  0  0  0  0
  9 15  1  0  0  0  0
  9 10  1  0  0  0  0
 10  1  2  0  0  0  0
 12  6  1  0  0  0  0
 13  7  1  0  0  0  0
 14  8  1  0  0  0  0
 15 17  1  0  0  0  0
 15 16  1  0  0  0  0
 18 19  1  0  0  0  0
 19 15  1  0  0  0  0
 20 21  1  0  0  0  0
 20 19  2  0  0  0  0
 22 28  2  0  0  0  0
 22 20  1  0  0  0  0
 23 22  1  0  0  0  0
 24 23  1  0  0  0  0
 25 27  2  0  0  0  0
 25 23  1  0  0  0  0
 26 25  1  0  0  0  0
 27 28  1  0  0  0  0
 28 29  1  0  0  0  0
 29 18  2  0  0  0  0
 31 32  2  0  0  0  0
 31 36  1  0  0  0  0
 32 33  1  0  0  0  0
 33 30  1  0  0  0  0
 33 34  2  0  0  0  0
 34 38  1  0  0  0  0
 35 34  1  0  0  0  0
 35 39  1  0  0  0  0
 36 35  2  0  0  0  0
 37 32  1  0  0  0  0
 40 36  1  0  0  0  0
 41 42  2  0  0  0  0
 41 46  1  0  0  0  0
 42 43  1  0  0  0  0
 43 49  1  0  0  0  0
 43 44  2  0  0  0  0
 45 44  1  0  0  0  0
 45 31  1  0  0  0  0
 46 45  2  0  0  0  0
 47 41  1  0  0  0  0
 48 42  1  0  0  0  0
M  END
>  <minimizedAffinity>
-7.25525856

$$$$

 OpenBabel03242516313D

 49 54  0  0  0  0  0  0  0  0999 V2000
   42.6830   32.9110   41.0690 C   0  0  0  0  0  0  0  0  0  0  0  0
   43.0190   34.2350   41.0500 N   0  0  0  0  0  0  0  0  0  0  0  0
   43.7540   34.8280   41.9860 C   0  0  0  0  0  0  0  0  0  0  0  0
   44.1830   34.0700   43.0020 N   0  0  0  0  0  0  0  0  0  0  0  0
   43.9010   32.7680   43.0970 C   0  0  0  0  0  0  0  0  0  0  0  0
   44.3480   31.9710   44.1420 C   0  0  0  0  0  0  0  0  0  0  0  0
   44.0560   30.6520   44.2180 C   0  0  0  0  0  0  0  0  0  0  0  0
   43.3000   30.0670   43.2490 C   0  0  0  0  0  0  0  0  0  0  0  0
   42.8190   30.8190   42.1700 C   0  0  0  0  0  0  0  0  0  0  0  0
   43.1260   32.1460   42.1090 C   0  0  0  0  0  0  0  0  0  0  0  0
   43.9610   35.8830   41.8750 H   0  0  0  0  0  0  0  0  0  0  0  0
   44.9450   32.4660   44.8930 H   0  0  0  0  0  0  0  0  0  0  0  0
   44.4340   30.0700   45.0610 H   0  0  0  0  0  0  0  0  0  0  0  0
   43.0970   29.0050   43.3630 H   0  0  0  0  0  0  0  0  0  0  0  0
   41.9820   30.0870   41.1950 C   0  0  0  0  0  0  0  0  0  0  0  0
   41.3140   30.6990   40.5880 H   0  0  0  0  0  0  0  0  0  0  0  0
   42.4930   29.2370   40.6970 H   0  0  0  0  0  0  0  0  0  0  0  0
   41.1130   27.9330   42.2520 C   0  0  0  0  0  3  0  0  0  0  0  0
   40.9280   29.2740   41.9320 C   0  0  0  0  0  0  0  0  0  0  0  0
   39.6950   29.7930   42.3450 C   0  0  0  0  0  0  0  0  0  0  0  0
   39.5200   30.8530   42.1060 H   0  0  0  0  0  0  0  0  0  0  0  0
   38.7580   29.0340   43.0080 C   0  0  0  0  0  0  0  0  0  0  0  0
   37.5390   29.3940   43.4630 N   0  0  0  0  0  0  0  0  0  0  0  0
   37.0710   30.3270   43.3980 H   0  0  0  0  0  0  0  0  0  0  0  0
   37.0050   28.2970   44.0430 C   0  0  0  0  0  0  0  0  0  0  0  0
   36.0390   28.1730   44.5270 H   0  0  0  0  0  0  0  0  0  0  0  0
   37.9120   27.2460   43.9410 C   0  0  0  0  0  3  0  0  0  0  0  0
   39.0300   27.7110   43.2830 C   0  0  0  0  0  0  0  0  0  0  0  0
   40.2160   27.1240   42.9120 C   0  0  0  0  0  3  0  0  0  0  0  0
   41.7670   32.1950   39.7990 S   0  0  0  0  0  0  0  0  0  0  0  0
   37.7770   31.9570   39.7100 C   0  0  0  0  0  0  0  0  0  0  0  0
   39.1240   31.6590   39.7010 C   0  0  0  0  0  0  0  0  0  0  0  0
   40.0730   32.6390   39.8440 C   0  0  0  0  0  0  0  0  0  0  0  0
   39.6940   33.9530   40.0020 C   0  0  0  0  0  0  0  0  0  0  0  0
   38.3760   34.3010   40.0180 C   0  0  0  0  0  0  0  0  0  0  0  0
   37.4420   33.3020   39.8730 C   0  0  0  0  0  0  0  0  0  0  0  0
   39.4360   30.6240   39.5770 H   0  0  0  0  0  0  0  0  0  0  0  0
   40.4760   34.7170   40.1160 H   0  0  0  0  0  0  0  0  0  0  0  0
   38.0600   35.3280   40.1410 H   0  0  0  0  0  0  0  0  0  0  0  0
   36.3840   33.5590   39.8820 H   0  0  0  0  0  0  0  0  0  0  0  0
   35.5990   29.5280   38.0650 C   0  0  0  0  0  0  0  0  0  0  0  0
   34.9210   28.9200   39.1430 C   0  0  0  0  0  0  0  0  0  0  0  0
   35.2150   29.3460   40.4340 C   0  0  0  0  0  0  0  0  0  0  0  0
   36.1440   30.3360   40.6380 N   0  0  0  0  0  0  0  0  0  0  0  0
   36.7780   30.8980   39.5560 C   0  0  0  0  0  0  0  0  0  0  0  0
   36.5110   30.5010   38.2770 N   0  0  0  0  0  0  0  0  0  0  0  0
   35.3360   29.1630   37.0890 H   0  0  0  0  0  0  0  0  0  0  0  0
   34.1850   28.1370   38.9940 H   0  0  0  0  0  0  0  0  0  0  0  0
   34.7420   28.9340   41.3170 H   0  0  0  0  0  0  0  0  0  0  0  0
  1 10  1  0  0  0  0
  2  1  2  0  0  0  0
  2  3  1  0  0  0  0
  3  4  2  0  0  0  0
  4  5  1  0  0  0  0
  5  6  1  0  0  0  0
  6  7  2  0  0  0  0
  6 12  1  0  0  0  0
  7 13  1  0  0  0  0
  8 14  1  0  0  0  0
  8  7  1  0  0  0  0
  9  8  2  0  0  0  0
 10  9  1  0  0  0  0
 10  5  2  0  0  0  0
 11  3  1  0  0  0  0
 15 19  1  0  0  0  0
 15  9  1  0  0  0  0
 16 15  1  0  0  0  0
 17 15  1  0  0  0  0
 18 29  1  0  0  0  0
 19 18  2  0  0  0  0
 19 20  1  0  0  0  0
 20 22  2  0  0  0  0
 21 20  1  0  0  0  0
 22 28  1  0  0  0  0
 22 23  1  0  0  0  0
 23 25  1  0  0  0  0
 24 23  1  0  0  0  0
 25 26  1  0  0  0  0
 27 25  2  0  0  0  0
 28 27  1  0  0  0  0
 29 28  2  0  0  0  0
 30 33  1  0  0  0  0
 30  1  1  0  0  0  0
 31 36  1  0  0  0  0
 32 31  2  0  0  0  0
 32 33  1  0  0  0  0
 33 34  2  0  0  0  0
 34 35  1  0  0  0  0
 34 38  1  0  0  0  0
 35 39  1  0  0  0  0
 36 40  1  0  0  0  0
 36 35  2  0  0  0  0
 37 32  1  0  0  0  0
 41 46  2  0  0  0  0
 41 42  1  0  0  0  0
 42 43  2  0  0  0  0
 43 44  1  0  0  0  0
 43 49  1  0  0  0  0
 45 31  1  0  0  0  0
 45 44  2  0  0  0  0
 46 45  1  0  0  0  0
 47 41  1  0  0  0  0
 48 42  1  0  0  0  0
M  END
>  <minimizedAffinity>
-7.23825073

$$$$

 OpenBabel03242516313D

 49 54  0  0  0  0  0  0  0  0999 V2000
   36.5590   26.9560   38.9660 C   0  0  0  0  0  0  0  0  0  0  0  0
   36.6660   25.6190   38.7090 N   0  0  0  0  0  0  0  0  0  0  0  0
   36.9070   24.7010   39.6390 C   0  0  0  0  0  0  0  0  0  0  0  0
   37.0510   25.1260   40.9000 N   0  0  0  0  0  0  0  0  0  0  0  0
   36.9610   26.4150   41.2380 C   0  0  0  0  0  0  0  0  0  0  0  0
   37.1010   26.8660   42.5440 C   0  0  0  0  0  0  0  0  0  0  0  0
   37.0010   28.1760   42.8680 C   0  0  0  0  0  0  0  0  0  0  0  0
   36.7570   29.0990   41.8970 C   0  0  0  0  0  0  0  0  0  0  0  0
   36.6060   28.7050   40.5620 C   0  0  0  0  0  0  0  0  0  0  0  0
   36.7080   27.3800   40.2550 C   0  0  0  0  0  0  0  0  0  0  0  0
   36.9730   23.6680   39.3270 H   0  0  0  0  0  0  0  0  0  0  0  0
   37.2940   26.1090   43.2880 H   0  0  0  0  0  0  0  0  0  0  0  0
   37.1190   28.4780   43.9100 H   0  0  0  0  0  0  0  0  0  0  0  0
   36.6870   30.1360   42.2160 H   0  0  0  0  0  0  0  0  0  0  0  0
   36.3760   29.7960   39.5900 C   0  0  0  0  0  0  0  0  0  0  0  0
   36.5310   29.5380   38.5410 H   0  0  0  0  0  0  0  0  0  0  0  0
   35.5190   30.4560   39.8350 H   0  0  0  0  0  0  0  0  0  0  0  0
   38.8090   30.5550   39.4780 C   0  0  0  0  0  3  0  0  0  0  0  0
   37.4710   30.8430   39.7240 C   0  0  0  0  0  0  0  0  0  0  0  0
   37.2350   32.1700   40.1030 C   0  0  0  0  0  0  0  0  0  0  0  0
   36.1840   32.4280   40.3040 H   0  0  0  0  0  0  0  0  0  0  0  0
   38.2450   33.0970   40.2200 C   0  0  0  0  0  0  0  0  0  0  0  0
   38.1700   34.3970   40.5720 N   0  0  0  0  0  0  0  0  0  0  0  0
   37.3210   34.9540   40.8260 H   0  0  0  0  0  0  0  0  0  0  0  0
   39.4320   34.8800   40.5380 C   0  0  0  0  0  0  0  0  0  0  0  0
   39.7930   35.8820   40.7570 H   0  0  0  0  0  0  0  0  0  0  0  0
   40.2960   33.8560   40.1600 C   0  0  0  0  0  3  0  0  0  0  0  0
   39.5450   32.7190   39.9550 C   0  0  0  0  0  0  0  0  0  0  0  0
   39.8620   31.4370   39.5770 C   0  0  0  0  0  3  0  0  0  0  0  0
   36.1990   28.0890   37.7200 S   0  0  0  0  0  0  0  0  0  0  0  0
   32.4160   28.8360   36.6630 C   0  0  0  0  0  0  0  0  0  0  0  0
   33.7040   28.9420   37.1450 C   0  0  0  0  0  0  0  0  0  0  0  0
   34.5850   27.8940   37.0660 C   0  0  0  0  0  0  0  0  0  0  0  0
   34.1960   26.7030   36.4960 C   0  0  0  0  0  0  0  0  0  0  0  0
   32.9350   26.5450   36.0040 C   0  0  0  0  0  0  0  0  0  0  0  0
   32.0680   27.6090   36.0940 C   0  0  0  0  0  0  0  0  0  0  0  0
   34.0240   29.8790   37.5980 H   0  0  0  0  0  0  0  0  0  0  0  0
   34.9240   25.8800   36.4450 H   0  0  0  0  0  0  0  0  0  0  0  0
   32.6110   25.6170   35.5530 H   0  0  0  0  0  0  0  0  0  0  0  0
   31.0560   27.5040   35.7080 H   0  0  0  0  0  0  0  0  0  0  0  0
   29.9130   31.0940   38.0700 C   0  0  0  0  0  0  0  0  0  0  0  0
   29.7200   32.0430   37.0440 C   0  0  0  0  0  0  0  0  0  0  0  0
   30.4520   31.9050   35.8700 C   0  0  0  0  0  0  0  0  0  0  0  0
   31.3370   30.8650   35.7270 N   0  0  0  0  0  0  0  0  0  0  0  0
   31.4900   29.9650   36.7560 C   0  0  0  0  0  0  0  0  0  0  0  0
   30.7850   30.0740   37.9200 N   0  0  0  0  0  0  0  0  0  0  0  0
   29.3230   31.2460   38.9570 H   0  0  0  0  0  0  0  0  0  0  0  0
   29.0240   32.8690   37.1450 H   0  0  0  0  0  0  0  0  0  0  0  0
   30.3660   32.5870   35.0320 H   0  0  0  0  0  0  0  0  0  0  0  0
  1 10  1  0  0  0  0
  2  1  2  0  0  0  0
  2  3  1  0  0  0  0
  3  4  2  0  0  0  0
  4  5  1  0  0  0  0
  5  6  1  0  0  0  0
  6  7  2  0  0  0  0
  6 12  1  0  0  0  0
  7 13  1  0  0  0  0
  8 14  1  0  0  0  0
  8  7  1  0  0  0  0
  9  8  2  0  0  0  0
 10  9  1  0  0  0  0
 10  5  2  0  0  0  0
 11  3  1  0  0  0  0
 15 19  1  0  0  0  0
 15 17  1  0  0  0  0
 15  9  1  0  0  0  0
 16 15  1  0  0  0  0
 18 29  2  0  0  0  0
 18 19  1  0  0  0  0
 19 20  2  0  0  0  0
 20 22  1  0  0  0  0
 20 21  1  0  0  0  0
 22 23  1  0  0  0  0
 23 24  1  0  0  0  0
 25 23  1  0  0  0  0
 25 26  1  0  0  0  0
 27 25  2  0  0  0  0
 28 27  1  0  0  0  0
 28 22  2  0  0  0  0
 29 28  1  0  0  0  0
 30  1  1  0  0  0  0
 31 45  1  0  0  0  0
 31 32  1  0  0  0  0
 32 37  1  0  0  0  0
 33 32  2  0  0  0  0
 33 30  1  0  0  0  0
 34 33  1  0  0  0  0
 35 36  1  0  0  0  0
 35 34  2  0  0  0  0
 36 31  2  0  0  0  0
 38 34  1  0  0  0  0
 39 35  1  0  0  0  0
 40 36  1  0  0  0  0
 41 47  1  0  0  0  0
 42 48  1  0  0  0  0
 42 41  2  0  0  0  0
 43 42  1  0  0  0  0
 44 43  2  0  0  0  0
 44 45  1  0  0  0  0
 45 46  2  0  0  0  0
 46 41  1  0  0  0  0
 49 43  1  0  0  0  0
M  END
>  <minimizedAffinity>
-7.21028948

$$$$

 OpenBabel03242516313D

 49 54  0  0  0  0  0  0  0  0999 V2000
   39.4300   27.6820   43.1620 C   0  0  0  0  0  0  0  0  0  0  0  0
   40.6990   27.4580   43.6150 N   0  0  0  0  0  0  0  0  0  0  0  0
   41.2640   26.2560   43.6760 C   0  0  0  0  0  0  0  0  0  0  0  0
   40.5340   25.2120   43.2670 N   0  0  0  0  0  0  0  0  0  0  0  0
   39.2870   25.3430   42.8090 C   0  0  0  0  0  0  0  0  0  0  0  0
   38.5240   24.2670   42.3740 C   0  0  0  0  0  0  0  0  0  0  0  0
   37.2630   24.4210   41.9080 C   0  0  0  0  0  0  0  0  0  0  0  0
   36.7040   25.6610   41.8570 C   0  0  0  0  0  0  0  0  0  0  0  0
   37.4230   26.7840   42.2820 C   0  0  0  0  0  0  0  0  0  0  0  0
   38.6930   26.6100   42.7460 C   0  0  0  0  0  0  0  0  0  0  0  0
   42.2750   26.1910   44.0530 H   0  0  0  0  0  0  0  0  0  0  0  0
   38.9960   23.2990   42.4280 H   0  0  0  0  0  0  0  0  0  0  0  0
   36.7060   23.5410   41.5780 H   0  0  0  0  0  0  0  0  0  0  0  0
   35.6880   25.7230   41.4740 H   0  0  0  0  0  0  0  0  0  0  0  0
   36.7050   28.0750   42.2110 C   0  0  0  0  0  0  0  0  0  0  0  0
   35.7080   28.0890   42.6550 H   0  0  0  0  0  0  0  0  0  0  0  0
   37.3470   28.9670   42.3640 H   0  0  0  0  0  0  0  0  0  0  0  0
   35.0650   28.8860   40.4320 C   0  0  0  0  0  3  0  0  0  0  0  0
   36.3090   28.3650   40.7710 C   0  0  0  0  0  0  0  0  0  0  0  0
   37.1480   28.1340   39.6750 C   0  0  0  0  0  0  0  0  0  0  0  0
   38.1410   27.7230   39.9120 H   0  0  0  0  0  0  0  0  0  0  0  0
   36.7640   28.4030   38.3810 C   0  0  0  0  0  0  0  0  0  0  0  0
   37.4580   28.2340   37.2350 N   0  0  0  0  0  0  0  0  0  0  0  0
   38.4280   27.8640   37.1110 H   0  0  0  0  0  0  0  0  0  0  0  0
   36.6500   28.6440   36.2320 C   0  0  0  0  0  0  0  0  0  0  0  0
   36.8380   28.6670   35.1610 H   0  0  0  0  0  0  0  0  0  0  0  0
   35.4400   29.0710   36.7730 C   0  0  0  0  0  3  0  0  0  0  0  0
   35.5090   28.9200   38.1400 C   0  0  0  0  0  0  0  0  0  0  0  0
   34.6240   29.1750   39.1610 C   0  0  0  0  0  3  0  0  0  0  0  0
   38.7740   29.2710   43.0630 S   0  0  0  0  0  0  0  0  0  0  0  0
   41.6900   31.7640   41.9370 C   0  0  0  0  0  0  0  0  0  0  0  0
   40.8920   30.8900   42.6460 C   0  0  0  0  0  0  0  0  0  0  0  0
   39.7540   30.3560   42.0980 C   0  0  0  0  0  0  0  0  0  0  0  0
   39.3830   30.6850   40.8140 C   0  0  0  0  0  0  0  0  0  0  0  0
   40.1350   31.5450   40.0700 C   0  0  0  0  0  0  0  0  0  0  0  0
   41.2720   32.0680   40.6400 C   0  0  0  0  0  0  0  0  0  0  0  0
   41.1760   30.6220   43.6630 H   0  0  0  0  0  0  0  0  0  0  0  0
   38.4660   30.2410   40.4000 H   0  0  0  0  0  0  0  0  0  0  0  0
   39.8600   31.8150   39.0600 H   0  0  0  0  0  0  0  0  0  0  0  0
   41.8870   32.7570   40.0630 H   0  0  0  0  0  0  0  0  0  0  0  0
   44.3910   34.1300   42.6070 C   0  0  0  0  0  0  0  0  0  0  0  0
   45.1580   33.4750   43.5940 C   0  0  0  0  0  0  0  0  0  0  0  0
   44.7430   32.2210   44.0280 C   0  0  0  0  0  0  0  0  0  0  0  0
   43.6140   31.6470   43.4990 N   0  0  0  0  0  0  0  0  0  0  0  0
   42.9010   32.3250   42.5390 C   0  0  0  0  0  0  0  0  0  0  0  0
   43.2820   33.5570   42.0920 N   0  0  0  0  0  0  0  0  0  0  0  0
   44.7550   35.0970   42.3060 H   0  0  0  0  0  0  0  0  0  0  0  0
   46.0520   33.9190   44.0200 H   0  0  0  0  0  0  0  0  0  0  0  0
   45.2710   31.6490   44.7820 H   0  0  0  0  0  0  0  0  0  0  0  0
  1  2  1  0  0  0  0
  2  3  2  0  0  0  0
  3 11  1  0  0  0  0
  4  3  1  0  0  0  0
  5  4  2  0  0  0  0
  6 12  1  0  0  0  0
  6  5  1  0  0  0  0
  7  6  2  0  0  0  0
  8  7  1  0  0  0  0
  8  9  2  0  0  0  0
  9 10  1  0  0  0  0
 10  5  1  0  0  0  0
 10  1  2  0  0  0  0
 13  7  1  0  0  0  0
 14  8  1  0  0  0  0
 15  9  1  0  0  0  0
 15 17  1  0  0  0  0
 15 16  1  0  0  0  0
 18 19  1  0  0  0  0
 19 15  1  0  0  0  0
 20 21  1  0  0  0  0
 20 19  2  0  0  0  0
 22 20  1  0  0  0  0
 23 22  1  0  0  0  0
 24 23  1  0  0  0  0
 25 27  2  0  0  0  0
 25 23  1  0  0  0  0
 26 25  1  0  0  0  0
 27 28  1  0  0  0  0
 28 22  2  0  0  0  0
 28 29  1  0  0  0  0
 29 18  2  0  0  0  0
 30  1  1  0  0  0  0
 31 45  1  0  0  0  0
 31 32  1  0  0  0  0
 32 37  1  0  0  0  0
 33 32  2  0  0  0  0
 33 30  1  0  0  0  0
 34 33  1  0  0  0  0
 35 36  1  0  0  0  0
 35 34  2  0  0  0  0
 36 31  2  0  0  0  0
 38 34  1  0  0  0  0
 39 35  1  0  0  0  0
 40 36  1  0  0  0  0
 41 42  1  0  0  0  0
 42 48  1  0  0  0  0
 42 43  2  0  0  0  0
 43 49  1  0  0  0  0
 44 43  1  0  0  0  0
 45 44  2  0  0  0  0
 46 45  1  0  0  0  0
 46 41  2  0  0  0  0
 47 41  1  0  0  0  0
M  END
>  <minimizedAffinity>
-7.019279

$$$$

 OpenBabel03242516313D

 49 54  0  0  0  0  0  0  0  0999 V2000
   37.3770   27.4240   41.2740 C   0  0  0  0  0  0  0  0  0  0  0  0
   36.6610   26.5700   40.4840 N   0  0  0  0  0  0  0  0  0  0  0  0
   36.8400   25.2530   40.4630 C   0  0  0  0  0  0  0  0  0  0  0  0
   37.7810   24.7470   41.2690 N   0  0  0  0  0  0  0  0  0  0  0  0
   38.5250   25.5110   42.0730 C   0  0  0  0  0  0  0  0  0  0  0  0
   39.4990   24.9960   42.9180 C   0  0  0  0  0  0  0  0  0  0  0  0
   40.2390   25.7860   43.7300 C   0  0  0  0  0  0  0  0  0  0  0  0
   40.0400   27.1330   43.7320 C   0  0  0  0  0  0  0  0  0  0  0  0
   39.0730   27.7110   42.9010 C   0  0  0  0  0  0  0  0  0  0  0  0
   38.3350   26.8990   42.0920 C   0  0  0  0  0  0  0  0  0  0  0  0
   36.2190   24.6680   39.7990 H   0  0  0  0  0  0  0  0  0  0  0  0
   39.6310   23.9260   42.8920 H   0  0  0  0  0  0  0  0  0  0  0  0
   40.9920   25.3300   44.3760 H   0  0  0  0  0  0  0  0  0  0  0  0
   40.6640   27.7170   44.4040 H   0  0  0  0  0  0  0  0  0  0  0  0
   38.9670   29.1860   42.9640 C   0  0  0  0  0  0  0  0  0  0  0  0
   38.2240   29.6370   42.3050 H   0  0  0  0  0  0  0  0  0  0  0  0
   39.0740   29.6100   43.9830 H   0  0  0  0  0  0  0  0  0  0  0  0
   40.9080   29.2280   41.3090 C   0  0  0  0  0  3  0  0  0  0  0  0
   40.2110   29.8170   42.3580 C   0  0  0  0  0  0  0  0  0  0  0  0
   40.7600   31.0270   42.7980 C   0  0  0  0  0  0  0  0  0  0  0  0
   40.2300   31.5180   43.6280 H   0  0  0  0  0  0  0  0  0  0  0  0
   41.8900   31.5750   42.2340 C   0  0  0  0  0  0  0  0  0  0  0  0
   42.5270   32.7220   42.5490 N   0  0  0  0  0  0  0  0  0  0  0  0
   42.2820   33.4200   43.2890 H   0  0  0  0  0  0  0  0  0  0  0  0
   43.5810   32.8200   41.7090 C   0  0  0  0  0  0  0  0  0  0  0  0
   44.3390   33.5970   41.6410 H   0  0  0  0  0  0  0  0  0  0  0  0
   43.5900   31.7130   40.8650 C   0  0  0  0  0  3  0  0  0  0  0  0
   42.5150   30.9180   41.1950 C   0  0  0  0  0  0  0  0  0  0  0  0
   42.0400   29.7250   40.7040 C   0  0  0  0  0  3  0  0  0  0  0  0
   37.0630   29.1170   41.2880 S   0  0  0  0  0  0  0  0  0  0  0  0
   38.7650   31.4100   38.4900 C   0  0  0  0  0  0  0  0  0  0  0  0
   38.4610   30.7610   39.6680 C   0  0  0  0  0  0  0  0  0  0  0  0
   37.4070   29.8890   39.7530 C   0  0  0  0  0  0  0  0  0  0  0  0
   36.6230   29.6400   38.6490 C   0  0  0  0  0  0  0  0  0  0  0  0
   36.8790   30.2550   37.4600 C   0  0  0  0  0  0  0  0  0  0  0  0
   37.9410   31.1260   37.3990 C   0  0  0  0  0  0  0  0  0  0  0  0
   39.0740   30.9500   40.5490 H   0  0  0  0  0  0  0  0  0  0  0  0
   35.7850   28.9350   38.7450 H   0  0  0  0  0  0  0  0  0  0  0  0
   36.2750   30.0720   36.5820 H   0  0  0  0  0  0  0  0  0  0  0  0
   38.1630   31.6290   36.4580 H   0  0  0  0  0  0  0  0  0  0  0  0
   41.0080   34.1390   39.4210 C   0  0  0  0  0  0  0  0  0  0  0  0
   41.9700   34.1330   38.3890 C   0  0  0  0  0  0  0  0  0  0  0  0
   41.8470   33.1900   37.3760 C   0  0  0  0  0  0  0  0  0  0  0  0
   40.8070   32.2930   37.3920 N   0  0  0  0  0  0  0  0  0  0  0  0
   39.8940   32.3390   38.4190 C   0  0  0  0  0  0  0  0  0  0  0  0
   39.9890   33.2530   39.4280 N   0  0  0  0  0  0  0  0  0  0  0  0
   41.1490   34.8880   40.1800 H   0  0  0  0  0  0  0  0  0  0  0  0
   42.7960   34.8360   38.3660 H   0  0  0  0  0  0  0  0  0  0  0  0
   42.5400   33.1140   36.5470 H   0  0  0  0  0  0  0  0  0  0  0  0
  1 30  1  0  0  0  0
  1 10  1  0  0  0  0
  2  1  2  0  0  0  0
  3  2  1  0  0  0  0
  3  4  2  0  0  0  0
  4  5  1  0  0  0  0
  5 10  2  0  0  0  0
  5  6  1  0  0  0  0
  6  7  2  0  0  0  0
  7  8  1  0  0  0  0
  7 13  1  0  0  0  0
  8 14  1  0  0  0  0
  9 15  1  0  0  0  0
  9  8  2  0  0  0  0
 10  9  1  0  0  0  0
 11  3  1  0  0  0  0
 12  6  1  0  0  0  0
 15 17  1  0  0  0  0
 16 15  1  0  0  0  0
 18 19  1  0  0  0  0
 19 20  2  0  0  0  0
 19 15  1  0  0  0  0
 20 21  1  0  0  0  0
 22 23  1  0  0  0  0
 22 20  1  0  0  0  0
 23 24  1  0  0  0  0
 25 23  1  0  0  0  0
 26 25  1  0  0  0  0
 27 28  1  0  0  0  0
 27 25  2  0  0  0  0
 28 22  2  0  0  0  0
 29 28  1  0  0  0  0
 29 18  2  0  0  0  0
 31 32  1  0  0  0  0
 32 33  2  0  0  0  0
 32 37  1  0  0  0  0
 33 30  1  0  0  0  0
 34 38  1  0  0  0  0
 34 33  1  0  0  0  0
 35 34  2  0  0  0  0
 36 35  1  0  0  0  0
 36 31  2  0  0  0  0
 39 35  1  0  0  0  0
 40 36  1  0  0  0  0
 41 46  1  0  0  0  0
 41 47  1  0  0  0  0
 42 41  2  0  0  0  0
 43 44  2  0  0  0  0
 43 42  1  0  0  0  0
 44 45  1  0  0  0  0
 45 31  1  0  0  0  0
 45 46  2  0  0  0  0
 48 42  1  0  0  0  0
 49 43  1  0  0  0  0
M  END
>  <minimizedAffinity>
-6.98277044

$$$$

 OpenBabel03242516313D

 49 54  0  0  0  0  0  0  0  0999 V2000
   40.7980   32.1420   38.2420 C   0  0  0  0  0  0  0  0  0  0  0  0
   42.0550   32.3680   37.7580 N   0  0  0  0  0  0  0  0  0  0  0  0
   42.7560   33.4710   37.9980 C   0  0  0  0  0  0  0  0  0  0  0  0
   42.1840   34.4100   38.7610 N   0  0  0  0  0  0  0  0  0  0  0  0
   40.9580   34.2700   39.2740 C   0  0  0  0  0  0  0  0  0  0  0  0
   40.3580   35.2340   40.0730 C   0  0  0  0  0  0  0  0  0  0  0  0
   39.1180   35.0710   40.5890 C   0  0  0  0  0  0  0  0  0  0  0  0
   38.4170   33.9330   40.3270 C   0  0  0  0  0  0  0  0  0  0  0  0
   38.9700   32.9250   39.5280 C   0  0  0  0  0  0  0  0  0  0  0  0
   40.2220   33.1060   39.0190 C   0  0  0  0  0  0  0  0  0  0  0  0
   43.7440   33.5480   37.5650 H   0  0  0  0  0  0  0  0  0  0  0  0
   40.9400   36.1230   40.2600 H   0  0  0  0  0  0  0  0  0  0  0  0
   38.6920   35.8600   41.2120 H   0  0  0  0  0  0  0  0  0  0  0  0
   37.4260   33.8580   40.7680 H   0  0  0  0  0  0  0  0  0  0  0  0
   38.1060   31.7490   39.2850 C   0  0  0  0  0  0  0  0  0  0  0  0
   37.0390   31.9530   39.1980 H   0  0  0  0  0  0  0  0  0  0  0  0
   38.5420   30.9940   38.5980 H   0  0  0  0  0  0  0  0  0  0  0  0
   39.0070   30.9840   41.5460 C   0  0  0  0  0  3  0  0  0  0  0  0
   38.0640   30.8760   40.5300 C   0  0  0  0  0  0  0  0  0  0  0  0
   37.0880   29.9000   40.7610 C   0  0  0  0  0  0  0  0  0  0  0  0
   36.3260   29.7910   39.9740 H   0  0  0  0  0  0  0  0  0  0  0  0
   37.0740   29.1220   41.8960 C   0  0  0  0  0  0  0  0  0  0  0  0
   36.2060   28.1510   42.2520 N   0  0  0  0  0  0  0  0  0  0  0  0
   35.3700   27.8030   41.7280 H   0  0  0  0  0  0  0  0  0  0  0  0
   36.6170   27.6880   43.4530 C   0  0  0  0  0  0  0  0  0  0  0  0
   36.1880   26.9060   44.0750 H   0  0  0  0  0  0  0  0  0  0  0  0
   37.7580   28.3860   43.8390 C   0  0  0  0  0  3  0  0  0  0  0  0
   38.0520   29.3000   42.8510 C   0  0  0  0  0  0  0  0  0  0  0  0
   39.0460   30.2370   42.7020 C   0  0  0  0  0  3  0  0  0  0  0  0
   39.9620   30.6690   37.9320 S   0  0  0  0  0  0  0  0  0  0  0  0
   40.1900   27.3110   40.0890 C   0  0  0  0  0  0  0  0  0  0  0  0
   39.7380   28.3850   39.3520 C   0  0  0  0  0  0  0  0  0  0  0  0
   40.6060   29.3150   38.8390 C   0  0  0  0  0  0  0  0  0  0  0  0
   41.9600   29.1910   39.0530 C   0  0  0  0  0  0  0  0  0  0  0  0
   42.4600   28.1490   39.7750 C   0  0  0  0  0  0  0  0  0  0  0  0
   41.5710   27.2290   40.2800 C   0  0  0  0  0  0  0  0  0  0  0  0
   38.6690   28.4940   39.1760 H   0  0  0  0  0  0  0  0  0  0  0  0
   42.6320   29.9520   38.6290 H   0  0  0  0  0  0  0  0  0  0  0  0
   43.5200   28.0350   39.9530 H   0  0  0  0  0  0  0  0  0  0  0  0
   41.9480   26.3880   40.8600 H   0  0  0  0  0  0  0  0  0  0  0  0
   38.8750   24.6540   42.2250 C   0  0  0  0  0  0  0  0  0  0  0  0
   37.5720   24.4510   41.7220 C   0  0  0  0  0  0  0  0  0  0  0  0
   37.1480   25.2290   40.6510 C   0  0  0  0  0  0  0  0  0  0  0  0
   37.9880   26.1680   40.1050 N   0  0  0  0  0  0  0  0  0  0  0  0
   39.2490   26.3280   40.6290 C   0  0  0  0  0  0  0  0  0  0  0  0
   39.6950   25.5790   41.6800 N   0  0  0  0  0  0  0  0  0  0  0  0
   39.1540   24.0270   43.0520 H   0  0  0  0  0  0  0  0  0  0  0  0
   36.8990   23.7130   42.1460 H   0  0  0  0  0  0  0  0  0  0  0  0
   36.1640   25.1400   40.2050 H   0  0  0  0  0  0  0  0  0  0  0  0
  1 10  1  0  0  0  0
  2  3  1  0  0  0  0
  2  1  2  0  0  0  0
  3  4  2  0  0  0  0
  4  5  1  0  0  0  0
  5  6  1  0  0  0  0
  6 12  1  0  0  0  0
  6  7  2  0  0  0  0
  7 13  1  0  0  0  0
  8  7  1  0  0  0  0
  8 14  1  0  0  0  0
  9  8  2  0  0  0  0
 10  5  2  0  0  0  0
 10  9  1  0  0  0  0
 11  3  1  0  0  0  0
 15  9  1  0  0  0  0
 15 19  1  0  0  0  0
 16 15  1  0  0  0  0
 17 15  1  0  0  0  0
 18 29  1  0  0  0  0
 19 20  1  0  0  0  0
 19 18  2  0  0  0  0
 20 22  2  0  0  0  0
 21 20  1  0  0  0  0
 22 23  1  0  0  0  0
 22 28  1  0  0  0  0
 23 25  1  0  0  0  0
 24 23  1  0  0  0  0
 25 27  2  0  0  0  0
 25 26  1  0  0  0  0
 28 27  1  0  0  0  0
 29 28  2  0  0  0  0
 30  1  1  0  0  0  0
 30 33  1  0  0  0  0
 31 36  1  0  0  0  0
 31 45  1  0  0  0  0
 32 31  2  0  0  0  0
 33 34  2  0  0  0  0
 33 32  1  0  0  0  0
 34 35  1  0  0  0  0
 35 39  1  0  0  0  0
 35 36  2  0  0  0  0
 36 40  1  0  0  0  0
 37 32  1  0  0  0  0
 38 34  1  0  0  0  0
 41 47  1  0  0  0  0
 42 48  1  0  0  0  0
 42 41  1  0  0  0  0
 43 42  2  0  0  0  0
 44 45  2  0  0  0  0
 44 43  1  0  0  0  0
 45 46  1  0  0  0  0
 46 41  2  0  0  0  0
 49 43  1  0  0  0  0
M  END
>  <minimizedAffinity>
-6.89380074

$$$$

 OpenBabel03242516313D

 49 54  0  0  0  0  0  0  0  0999 V2000
   36.6210   27.1410   40.5080 C   0  0  0  0  0  0  0  0  0  0  0  0
   36.7600   25.7820   40.5130 N   0  0  0  0  0  0  0  0  0  0  0  0
   36.5980   25.0160   39.4390 C   0  0  0  0  0  0  0  0  0  0  0  0
   36.2800   25.6260   38.2910 N   0  0  0  0  0  0  0  0  0  0  0  0
   36.1250   26.9490   38.1990 C   0  0  0  0  0  0  0  0  0  0  0  0
   35.8030   27.5920   37.0110 C   0  0  0  0  0  0  0  0  0  0  0  0
   35.6560   28.9350   36.9370 C   0  0  0  0  0  0  0  0  0  0  0  0
   35.8240   29.6990   38.0500 C   0  0  0  0  0  0  0  0  0  0  0  0
   36.1490   29.1080   39.2770 C   0  0  0  0  0  0  0  0  0  0  0  0
   36.2960   27.7540   39.3330 C   0  0  0  0  0  0  0  0  0  0  0  0
   36.7310   23.9500   39.5530 H   0  0  0  0  0  0  0  0  0  0  0  0
   35.6770   26.9570   36.1480 H   0  0  0  0  0  0  0  0  0  0  0  0
   35.4030   29.3910   35.9770 H   0  0  0  0  0  0  0  0  0  0  0  0
   35.6930   30.7720   37.9300 H   0  0  0  0  0  0  0  0  0  0  0  0
   36.2760   30.0330   40.4250 C   0  0  0  0  0  0  0  0  0  0  0  0
   35.4610   30.7460   40.5520 H   0  0  0  0  0  0  0  0  0  0  0  0
   36.7020   29.5720   41.3400 H   0  0  0  0  0  0  0  0  0  0  0  0
   38.5920   30.6530   39.5550 C   0  0  0  0  0  3  0  0  0  0  0  0
   37.3990   31.0250   40.1650 C   0  0  0  0  0  0  0  0  0  0  0  0
   37.3350   32.3790   40.5140 C   0  0  0  0  0  0  0  0  0  0  0  0
   36.4020   32.7030   40.9990 H   0  0  0  0  0  0  0  0  0  0  0  0
   38.3680   33.2550   40.2700 C   0  0  0  0  0  0  0  0  0  0  0  0
   38.4490   34.5730   40.5470 N   0  0  0  0  0  0  0  0  0  0  0  0
   37.7360   35.1860   41.0040 H   0  0  0  0  0  0  0  0  0  0  0  0
   39.6620   34.9850   40.1130 C   0  0  0  0  0  0  0  0  0  0  0  0
   40.1090   35.9750   40.1530 H   0  0  0  0  0  0  0  0  0  0  0  0
   40.3350   33.8980   39.5610 C   0  0  0  0  0  3  0  0  0  0  0  0
   39.5160   32.7950   39.6580 C   0  0  0  0  0  0  0  0  0  0  0  0
   39.6590   31.4810   39.2840 C   0  0  0  0  0  3  0  0  0  0  0  0
   36.8910   28.0810   41.9260 S   0  0  0  0  0  0  0  0  0  0  0  0
   40.7370   28.6230   42.8730 C   0  0  0  0  0  0  0  0  0  0  0  0
   39.4600   28.7730   42.3730 C   0  0  0  0  0  0  0  0  0  0  0  0
   38.4850   27.8390   42.6120 C   0  0  0  0  0  0  0  0  0  0  0  0
   38.7650   26.7220   43.3650 C   0  0  0  0  0  0  0  0  0  0  0  0
   40.0100   26.5240   43.8820 C   0  0  0  0  0  0  0  0  0  0  0  0
   40.9730   27.4740   43.6300 C   0  0  0  0  0  0  0  0  0  0  0  0
   39.2270   29.6530   41.7760 H   0  0  0  0  0  0  0  0  0  0  0  0
   37.9630   25.9900   43.5410 H   0  0  0  0  0  0  0  0  0  0  0  0
   40.2490   25.6530   44.4760 H   0  0  0  0  0  0  0  0  0  0  0  0
   41.9740   27.3350   44.0330 H   0  0  0  0  0  0  0  0  0  0  0  0
   42.2240   31.8850   42.1680 C   0  0  0  0  0  0  0  0  0  0  0  0
   43.6050   31.6030   42.1010 C   0  0  0  0  0  0  0  0  0  0  0  0
   44.0220   30.2910   42.2990 C   0  0  0  0  0  0  0  0  0  0  0  0
   43.1010   29.3050   42.5530 N   0  0  0  0  0  0  0  0  0  0  0  0
   41.7660   29.6300   42.6080 C   0  0  0  0  0  0  0  0  0  0  0  0
   41.3250   30.9080   42.4170 N   0  0  0  0  0  0  0  0  0  0  0  0
   41.9540   32.9130   42.0070 H   0  0  0  0  0  0  0  0  0  0  0  0
   44.3420   32.3730   41.9020 H   0  0  0  0  0  0  0  0  0  0  0  0
   45.0620   29.9880   42.2660 H   0  0  0  0  0  0  0  0  0  0  0  0
  1  2  1  0  0  0  0
  1 30  1  0  0  0  0
  3 11  1  0  0  0  0
  3  2  2  0  0  0  0
  4  3  1  0  0  0  0
  5  4  2  0  0  0  0
  5 10  1  0  0  0  0
  6  5  1  0  0  0  0
  7  6  2  0  0  0  0
  7  8  1  0  0  0  0
  8  9  2  0  0  0  0
  9 10  1  0  0  0  0
  9 15  1  0  0  0  0
 10  1  2  0  0  0  0
 12  6  1  0  0  0  0
 13  7  1  0  0  0  0
 14  8  1  0  0  0  0
 15 16  1  0  0  0  0
 15 17  1  0  0  0  0
 18 19  1  0  0  0  0
 19 15  1  0  0  0  0
 19 20  2  0  0  0  0
 20 21  1  0  0  0  0
 22 20  1  0  0  0  0
 22 23  1  0  0  0  0
 23 24  1  0  0  0  0
 25 26  1  0  0  0  0
 25 23  1  0  0  0  0
 27 28  1  0  0  0  0
 27 25  2  0  0  0  0
 28 22  2  0  0  0  0
 29 18  2  0  0  0  0
 29 28  1  0  0  0  0
 30 33  1  0  0  0  0
 31 36  1  0  0  0  0
 32 33  1  0  0  0  0
 32 31  2  0  0  0  0
 33 34  2  0  0  0  0
 34 38  1  0  0  0  0
 34 35  1  0  0  0  0
 35 39  1  0  0  0  0
 36 35  2  0  0  0  0
 36 40  1  0  0  0  0
 37 32  1  0  0  0  0
 41 46  1  0  0  0  0
 42 41  2  0  0  0  0
 42 43  1  0  0  0  0
 43 44  2  0  0  0  0
 44 45  1  0  0  0  0
 45 31  1  0  0  0  0
 46 45  2  0  0  0  0
 47 41  1  0  0  0  0
 48 42  1  0  0  0  0
 49 43  1  0  0  0  0
M  END
>  <minimizedAffinity>
-6.850595

$$$$

 OpenBabel03242516313D

 49 54  0  0  0  0  0  0  0  0999 V2000
   37.7440   28.6630   41.0860 C   0  0  0  0  0  0  0  0  0  0  0  0
   37.8510   29.3380   42.2700 N   0  0  0  0  0  0  0  0  0  0  0  0
   37.6510   28.7820   43.4610 C   0  0  0  0  0  0  0  0  0  0  0  0
   37.3260   27.4850   43.4880 N   0  0  0  0  0  0  0  0  0  0  0  0
   37.2010   26.7520   42.3790 C   0  0  0  0  0  0  0  0  0  0  0  0
   36.8730   25.4030   42.3960 C   0  0  0  0  0  0  0  0  0  0  0  0
   36.7560   24.6760   41.2610 C   0  0  0  0  0  0  0  0  0  0  0  0
   36.9630   25.2660   40.0520 C   0  0  0  0  0  0  0  0  0  0  0  0
   37.2970   26.6240   39.9700 C   0  0  0  0  0  0  0  0  0  0  0  0
   37.4110   27.3400   41.1240 C   0  0  0  0  0  0  0  0  0  0  0  0
   37.7610   29.4080   44.3360 H   0  0  0  0  0  0  0  0  0  0  0  0
   36.7150   24.9660   43.3700 H   0  0  0  0  0  0  0  0  0  0  0  0
   36.4960   23.6180   41.3300 H   0  0  0  0  0  0  0  0  0  0  0  0
   36.8550   24.6330   39.1750 H   0  0  0  0  0  0  0  0  0  0  0  0
   37.4660   27.1650   38.6040 C   0  0  0  0  0  0  0  0  0  0  0  0
   37.6030   28.2450   38.5350 H   0  0  0  0  0  0  0  0  0  0  0  0
   38.0720   26.5260   37.9290 H   0  0  0  0  0  0  0  0  0  0  0  0
   35.9000   26.0410   36.9320 C   0  0  0  0  0  3  0  0  0  0  0  0
   36.1520   27.0600   37.8430 C   0  0  0  0  0  0  0  0  0  0  0  0
   35.0970   27.9690   37.9880 C   0  0  0  0  0  0  0  0  0  0  0  0
   35.2670   28.7870   38.7040 H   0  0  0  0  0  0  0  0  0  0  0  0
   33.9190   27.8520   37.2850 C   0  0  0  0  0  0  0  0  0  0  0  0
   32.8260   28.6420   37.3200 N   0  0  0  0  0  0  0  0  0  0  0  0
   32.6630   29.5020   37.8940 H   0  0  0  0  0  0  0  0  0  0  0  0
   31.9380   28.1100   36.4520 C   0  0  0  0  0  0  0  0  0  0  0  0
   30.9390   28.4510   36.1910 H   0  0  0  0  0  0  0  0  0  0  0  0
   32.4980   26.9740   35.8740 C   0  0  0  0  0  3  0  0  0  0  0  0
   33.7590   26.8060   36.4020 C   0  0  0  0  0  0  0  0  0  0  0  0
   34.7460   25.8710   36.2010 C   0  0  0  0  0  3  0  0  0  0  0  0
   38.0620   29.4310   39.5780 S   0  0  0  0  0  0  0  0  0  0  0  0
   39.5060   33.0910   40.2850 C   0  0  0  0  0  0  0  0  0  0  0  0
   39.3620   31.7270   40.1440 C   0  0  0  0  0  0  0  0  0  0  0  0
   38.1840   31.1740   39.7110 C   0  0  0  0  0  0  0  0  0  0  0  0
   37.1120   31.9800   39.4050 C   0  0  0  0  0  0  0  0  0  0  0  0
   37.2000   33.3340   39.5270 C   0  0  0  0  0  0  0  0  0  0  0  0
   38.3910   33.8670   39.9630 C   0  0  0  0  0  0  0  0  0  0  0  0
   40.2040   31.0790   40.3840 H   0  0  0  0  0  0  0  0  0  0  0  0
   36.1800   31.5090   39.0590 H   0  0  0  0  0  0  0  0  0  0  0  0
   36.3690   33.9840   39.2900 H   0  0  0  0  0  0  0  0  0  0  0  0
   38.4830   34.9470   40.0680 H   0  0  0  0  0  0  0  0  0  0  0  0
   42.0020   35.6180   41.1430 C   0  0  0  0  0  0  0  0  0  0  0  0
   43.0960   34.8500   41.5950 C   0  0  0  0  0  0  0  0  0  0  0  0
   42.9740   33.4660   41.6050 C   0  0  0  0  0  0  0  0  0  0  0  0
   41.8100   32.8730   41.1810 N   0  0  0  0  0  0  0  0  0  0  0  0
   40.7710   33.6640   40.7490 C   0  0  0  0  0  0  0  0  0  0  0  0
   40.8610   35.0260   40.7280 N   0  0  0  0  0  0  0  0  0  0  0  0
   42.1480   36.6830   41.1550 H   0  0  0  0  0  0  0  0  0  0  0  0
   44.0210   35.3070   41.9330 H   0  0  0  0  0  0  0  0  0  0  0  0
   43.7630   32.8020   41.9360 H   0  0  0  0  0  0  0  0  0  0  0  0
  1 10  2  0  0  0  0
  1  2  1  0  0  0  0
  2  3  2  0  0  0  0
  3  4  1  0  0  0  0
  3 11  1  0  0  0  0
  5  6  1  0  0  0  0
  5  4  2  0  0  0  0
  6 12  1  0  0  0  0
  7 13  1  0  0  0  0
  7  6  2  0  0  0  0
  8  7  1  0  0  0  0
  9  8  2  0  0  0  0
  9 10  1  0  0  0  0
 10  5  1  0  0  0  0
 14  8  1  0  0  0  0
 15  9  1  0  0  0  0
 16 15  1  0  0  0  0
 17 15  1  0  0  0  0
 18 19  1  0  0  0  0
 19 20  2  0  0  0  0
 19 15  1  0  0  0  0
 20 21  1  0  0  0  0
 22 23  1  0  0  0  0
 22 20  1  0  0  0  0
 23 24  1  0  0  0  0
 25 23  1  0  0  0  0
 26 25  1  0  0  0  0
 27 28  1  0  0  0  0
 27 25  2  0  0  0  0
 28 22  2  0  0  0  0
 29 28  1  0  0  0  0
 29 18  2  0  0  0  0
 30 33  1  0  0  0  0
 30  1  1  0  0  0  0
 31 45  1  0  0  0  0
 32 31  1  0  0  0  0
 32 37  1  0  0  0  0
 33 32  2  0  0  0  0
 34 35  2  0  0  0  0
 34 33  1  0  0  0  0
 35 36  1  0  0  0  0
 36 40  1  0  0  0  0
 36 31  2  0  0  0  0
 38 34  1  0  0  0  0
 39 35  1  0  0  0  0
 41 47  1  0  0  0  0
 41 42  1  0  0  0  0
 42 43  2  0  0  0  0
 42 48  1  0  0  0  0
 43 49  1  0  0  0  0
 44 43  1  0  0  0  0
 45 44  2  0  0  0  0
 46 45  1  0  0  0  0
 46 41  2  0  0  0  0
M  END
>  <minimizedAffinity>
-6.8352356

$$$$
