
 OpenBabel03252508533D

 46 50  0  0  1  0  0  0  0  0999 V2000
   43.3060   34.4860   40.7660 C   0  0  0  0  0  0  0  0  0  0  0  0
   43.2910   35.7070   40.3950 O   0  0  0  0  0  0  0  0  0  0  0  0
   41.9250   34.1160   40.4890 N   0  0  0  0  0  0  0  0  0  0  0  0
   41.5330   34.2500   39.1060 C   0  0  0  0  0  0  0  0  0  0  0  0
   40.7750   35.5930   39.0310 C   0  0  0  0  0  0  0  0  0  0  0  0
   40.0150   35.7350   40.3620 C   0  0  0  0  0  0  0  0  0  0  0  0
   39.6310   34.3730   40.8910 C   0  0  0  0  0  0  0  0  0  0  0  0
   40.8910   33.6390   41.3880 C   0  0  1  0  0  0  0  0  0  0  0  0
   40.8990   33.4210   38.7510 H   0  0  0  0  0  0  0  0  0  0  0  0
   42.3790   34.3560   38.4010 H   0  0  0  0  0  0  0  0  0  0  0  0
   40.0420   35.5030   38.2270 H   0  0  0  0  0  0  0  0  0  0  0  0
   41.5050   36.4060   38.9360 H   0  0  0  0  0  0  0  0  0  0  0  0
   40.6790   36.2020   41.1120 H   0  0  0  0  0  0  0  0  0  0  0  0
   39.0870   36.3170   40.2240 H   0  0  0  0  0  0  0  0  0  0  0  0
   38.8560   34.4530   41.6470 H   0  0  0  0  0  0  0  0  0  0  0  0
   39.2800   33.7440   40.0360 H   0  0  0  0  0  0  0  0  0  0  0  0
   41.1100   33.9650   42.4080 H   0  0  0  0  0  0  0  0  0  0  0  0
   40.6210   31.4840   40.0510 C   0  0  0  0  0  3  0  0  0  0  0  0
   40.7160   32.1730   41.2330 C   0  0  0  0  0  0  0  0  0  0  0  0
   40.6420   31.4210   42.3870 C   0  0  0  0  0  0  0  0  0  0  0  0
   40.6960   31.7830   43.4030 H   0  0  0  0  0  0  0  0  0  0  0  0
   40.4780   30.0330   42.3680 C   0  0  0  0  0  0  0  0  0  0  0  0
   40.3720   29.0450   43.2770 N   0  0  0  0  0  0  0  0  0  0  0  0
   40.4030   29.2040   44.3090 H   0  0  0  0  0  0  0  0  0  0  0  0
   40.2250   27.8570   42.6630 C   0  0  0  0  0  0  0  0  0  0  0  0
   40.1190   26.9020   43.1960 H   0  0  0  0  0  0  0  0  0  0  0  0
   40.2300   28.0320   41.2930 C   0  0  0  0  0  3  0  0  0  0  0  0
   40.3870   29.3920   41.1320 C   0  0  0  0  0  0  0  0  0  0  0  0
   40.4610   30.1270   39.9660 C   0  0  0  0  0  3  0  0  0  0  0  0
   44.3620   33.7950   41.2710 O   0  0  0  0  0  0  0  0  0  0  0  0
   45.6960   34.0810   41.1210 C   0  0  0  0  0  0  0  0  0  0  0  0
   46.3510   34.6960   42.1910 C   0  0  0  0  0  0  0  0  0  0  0  0
   47.7120   34.9790   42.0130 C   0  0  0  0  0  0  0  0  0  0  0  0
   48.3070   34.6410   40.8210 N   0  0  0  0  0  0  0  0  0  0  0  0
   47.6330   34.0610   39.8470 C   0  0  0  0  0  0  0  0  0  0  0  0
   46.3280   33.7760   39.9840 N   0  0  0  0  0  0  0  0  0  0  0  0
   48.2040   35.4500   42.8400 H   0  0  0  0  0  0  0  0  0  0  0  0
   48.1990   33.8350   38.9430 H   0  0  0  0  0  0  0  0  0  0  0  0
   45.6290   35.0080   43.4020 C   0  0  0  0  0  0  0  0  0  0  0  0
   45.0170   36.2350   43.6300 C   0  0  0  0  0  0  0  0  0  0  0  0
   44.4590   36.1030   44.8740 C   0  0  0  0  0  0  0  0  0  0  0  0
   44.7100   34.8760   45.3780 N   0  0  0  0  0  0  0  0  0  0  0  0
   45.4140   34.2440   44.4700 N   0  0  0  0  0  0  0  0  0  0  0  0
   44.9720   37.1150   42.9920 H   0  0  0  0  0  0  0  0  0  0  0  0
   43.8830   36.8170   45.4530 H   0  0  0  0  0  0  0  0  0  0  0  0
   44.4260   34.4660   46.2950 H   0  0  0  0  0  0  0  0  0  0  0  0
  1 30  1  0  0  0  0
  2  1  2  0  0  0  0
  3  1  1  0  0  0  0
  3  8  1  0  0  0  0
  4  3  1  0  0  0  0
  5  4  1  0  0  0  0
  5  6  1  0  0  0  0
  6  7  1  0  0  0  0
  6 13  1  0  0  0  0
  7  8  1  0  0  0  0
  7 15  1  0  0  0  0
  8 17  1  1  0  0  0
  9  4  1  0  0  0  0
 10  4  1  0  0  0  0
 11  5  1  0  0  0  0
 12  5  1  0  0  0  0
 14  6  1  0  0  0  0
 16  7  1  0  0  0  0
 18 19  1  0  0  0  0
 19  8  1  0  0  0  0
 19 20  2  0  0  0  0
 20 21  1  0  0  0  0
 22 20  1  0  0  0  0
 22 23  1  0  0  0  0
 23 24  1  0  0  0  0
 25 26  1  0  0  0  0
 25 23  1  0  0  0  0
 27 25  2  0  0  0  0
 28 27  1  0  0  0  0
 28 22  2  0  0  0  0
 29 18  2  0  0  0  0
 29 28  1  0  0  0  0
 31 30  1  0  0  0  0
 31 32  1  0  0  0  0
 32 39  1  0  0  0  0
 33 32  2  0  0  0  0
 33 37  1  0  0  0  0
 34 33  1  0  0  0  0
 35 36  1  0  0  0  0
 35 34  2  0  0  0  0
 36 31  2  0  0  0  0
 38 35  1  0  0  0  0
 39 40  1  0  0  0  0
 39 43  2  0  0  0  0
 40 41  2  0  0  0  0
 41 42  1  0  0  0  0
 41 45  1  0  0  0  0
 42 46  1  0  0  0  0
 43 42  1  0  0  0  0
 44 40  1  0  0  0  0
M  END
>  <minimizedAffinity>
-7.0512228

>  <minimizedRMSD>
0.479580492

$$$$
