
 OpenBabel03252508593D

 48 51  0  0  1  0  0  0  0  0999 V2000
   46.6820   34.5790   43.4540 N   0  0  0  0  0  0  0  0  0  0  0  0
   46.1670   35.6080   42.6230 C   0  0  0  0  0  0  0  0  0  0  0  0
   44.6650   35.7530   42.6340 C   0  0  0  0  0  0  0  0  0  0  0  0
   44.0120   35.4080   43.9460 C   0  0  0  0  0  0  0  0  0  0  0  0
   45.0390   35.1080   45.0120 C   0  0  0  0  0  0  0  0  0  0  0  0
   45.8780   33.9380   44.3810 C   0  0  2  0  0  0  0  0  0  0  0  0
   46.5700   36.5690   43.0310 H   0  0  0  0  0  0  0  0  0  0  0  0
   46.4760   35.5770   41.5760 H   0  0  0  0  0  0  0  0  0  0  0  0
   44.4100   36.8370   42.4410 H   0  0  0  0  0  0  0  0  0  0  0  0
   44.2030   35.2000   41.7870 H   0  0  0  0  0  0  0  0  0  0  0  0
   43.2680   36.1250   44.2960 H   0  0  0  0  0  0  0  0  0  0  0  0
   43.4510   34.4520   43.7770 H   0  0  0  0  0  0  0  0  0  0  0  0
   45.7020   35.9460   45.2340 H   0  0  0  0  0  0  0  0  0  0  0  0
   44.5390   34.6480   45.8820 H   0  0  0  0  0  0  0  0  0  0  0  0
   45.1450   33.1850   44.0260 H   0  0  0  0  0  0  0  0  0  0  0  0
   47.7910   33.8670   42.8890 C   0  0  0  0  0  0  0  0  0  0  0  0
   48.4460   34.5870   42.3660 H   0  0  0  0  0  0  0  0  0  0  0  0
   48.3660   33.4090   43.7270 H   0  0  0  0  0  0  0  0  0  0  0  0
   47.2680   32.7650   42.0260 C   0  0  0  0  0  0  0  0  0  0  0  0
   47.4930   31.7540   42.4010 H   0  0  0  0  0  0  0  0  0  0  0  0
   46.1570   32.8420   41.9170 H   0  0  0  0  0  0  0  0  0  0  0  0
   49.1170   32.0490   38.8300 C   0  0  0  0  0  0  0  0  0  0  0  0
   48.5920   31.9170   40.1290 C   0  0  0  0  0  0  0  0  0  0  0  0
   47.8160   32.9220   40.6520 C   0  0  0  0  0  0  0  0  0  0  0  0
   47.5930   33.9990   39.8860 N   0  0  0  0  0  0  0  0  0  0  0  0
   48.0970   34.1230   38.6410 C   0  0  0  0  0  0  0  0  0  0  0  0
   48.8570   33.1610   38.1050 N   0  0  0  0  0  0  0  0  0  0  0  0
   49.7240   31.2680   38.4140 H   0  0  0  0  0  0  0  0  0  0  0  0
   48.8040   31.0230   40.7050 H   0  0  0  0  0  0  0  0  0  0  0  0
   47.8660   35.0290   38.0920 H   0  0  0  0  0  0  0  0  0  0  0  0
   46.6060   33.4920   45.4750 O   0  0  0  0  0  0  0  0  0  0  0  0
   45.5920   31.1480   44.7320 O   0  0  0  0  0  0  0  0  0  0  0  0
   46.2440   31.9060   45.8970 P   0  0  2  0  0  0  0  0  0  0  0  0
   45.0190   32.0000   47.0890 O   0  0  0  0  0  0  0  0  0  0  0  0
   44.4810   31.1900   47.0520 H   0  0  0  0  0  0  0  0  0  0  0  0
   47.5420   31.0990   46.5460 O   0  0  0  0  0  0  0  0  0  0  0  0
   48.8260   29.1400   46.3120 C   0  0  0  0  0  3  0  0  0  0  0  0
   47.6600   29.7550   46.7660 C   0  0  0  0  0  0  0  0  0  0  0  0
   46.7400   28.9320   47.3970 C   0  0  0  0  0  0  0  0  0  0  0  0
   45.8340   29.4110   47.7500 H   0  0  0  0  0  0  0  0  0  0  0  0
   46.9300   27.5920   47.5820 C   0  0  0  0  0  0  0  0  0  0  0  0
   46.1920   26.6340   48.1490 N   0  0  0  0  0  0  0  0  0  0  0  0
   45.2550   26.7350   48.5960 H   0  0  0  0  0  0  0  0  0  0  0  0
   46.8570   25.4740   48.0580 C   0  0  0  0  0  0  0  0  0  0  0  0
   46.4980   24.5230   48.4350 H   0  0  0  0  0  0  0  0  0  0  0  0
   48.0710   25.6440   47.4170 C   0  0  0  0  0  3  0  0  0  0  0  0
   48.0910   26.9970   47.1250 C   0  0  0  0  0  0  0  0  0  0  0  0
   49.0310   27.7970   46.4890 C   0  0  0  0  0  3  0  0  0  0  0  0
  1  6  1  0  0  0  0
  2  3  1  0  0  0  0
  2  7  1  0  0  0  0
  2  1  1  0  0  0  0
  3  4  1  0  0  0  0
  4 11  1  0  0  0  0
  4  5  1  0  0  0  0
  5 13  1  0  0  0  0
  5 14  1  0  0  0  0
  6 15  1  6  0  0  0
  6  5  1  0  0  0  0
  6 31  1  0  0  0  0
  8  2  1  0  0  0  0
  9  3  1  0  0  0  0
 10  3  1  0  0  0  0
 12  4  1  0  0  0  0
 16  1  1  0  0  0  0
 16 18  1  0  0  0  0
 17 16  1  0  0  0  0
 19 20  1  0  0  0  0
 19 16  1  0  0  0  0
 21 19  1  0  0  0  0
 22 23  1  0  0  0  0
 23 24  2  0  0  0  0
 23 29  1  0  0  0  0
 24 19  1  0  0  0  0
 25 24  1  0  0  0  0
 26 25  2  0  0  0  0
 27 26  1  0  0  0  0
 27 22  2  0  0  0  0
 28 22  1  0  0  0  0
 30 26  1  0  0  0  0
 31 33  1  0  0  0  0
 33 32  2  6  0  0  0
 33 36  1  0  0  0  0
 33 34  1  0  0  0  0
 35 34  1  0  0  0  0
 36 38  1  0  0  0  0
 37 48  2  0  0  0  0
 37 38  1  0  0  0  0
 38 39  2  0  0  0  0
 39 41  1  0  0  0  0
 39 40  1  0  0  0  0
 41 42  1  0  0  0  0
 42 43  1  0  0  0  0
 44 42  1  0  0  0  0
 44 45  1  0  0  0  0
 46 44  2  0  0  0  0
 47 46  1  0  0  0  0
 47 41  2  0  0  0  0
 48 47  1  0  0  0  0
M  END
>  <minimizedAffinity>
-4.63883209

>  <minimizedRMSD>
1.32753479

$$$$
