
 OpenBabel03252508593D

 48 51  0  0  1  0  0  0  0  0999 V2000
   46.6210   34.5730   43.5140 N   0  0  0  0  0  0  0  0  0  0  0  0
   46.1050   35.5770   42.6540 C   0  0  0  0  0  0  0  0  0  0  0  0
   44.6030   35.7220   42.6630 C   0  0  0  0  0  0  0  0  0  0  0  0
   43.9520   35.4150   43.9850 C   0  0  0  0  0  0  0  0  0  0  0  0
   44.9800   35.1470   45.0580 C   0  0  0  0  0  0  0  0  0  0  0  0
   45.8190   33.9590   44.4610 C   0  0  2  0  0  0  0  0  0  0  0  0
   46.5080   36.5500   43.0340 H   0  0  0  0  0  0  0  0  0  0  0  0
   46.4130   35.5150   41.6080 H   0  0  0  0  0  0  0  0  0  0  0  0
   44.3470   36.8000   42.4390 H   0  0  0  0  0  0  0  0  0  0  0  0
   44.1400   35.1440   41.8330 H   0  0  0  0  0  0  0  0  0  0  0  0
   43.2070   36.1410   44.3160 H   0  0  0  0  0  0  0  0  0  0  0  0
   43.3910   34.4540   43.8450 H   0  0  0  0  0  0  0  0  0  0  0  0
   45.6440   35.9910   45.2540 H   0  0  0  0  0  0  0  0  0  0  0  0
   44.4820   34.7120   45.9420 H   0  0  0  0  0  0  0  0  0  0  0  0
   45.0850   33.1960   44.1280 H   0  0  0  0  0  0  0  0  0  0  0  0
   47.7290   33.8450   42.9680 C   0  0  0  0  0  0  0  0  0  0  0  0
   48.3950   34.5520   42.4420 H   0  0  0  0  0  0  0  0  0  0  0  0
   48.2930   33.3930   43.8180 H   0  0  0  0  0  0  0  0  0  0  0  0
   47.2060   32.7350   42.1150 C   0  0  0  0  0  0  0  0  0  0  0  0
   47.4270   31.7280   42.5010 H   0  0  0  0  0  0  0  0  0  0  0  0
   46.0950   32.8140   42.0030 H   0  0  0  0  0  0  0  0  0  0  0  0
   49.0580   31.9810   38.9300 C   0  0  0  0  0  0  0  0  0  0  0  0
   48.5290   31.8640   40.2290 C   0  0  0  0  0  0  0  0  0  0  0  0
   47.7570   32.8780   40.7410 C   0  0  0  0  0  0  0  0  0  0  0  0
   47.5410   33.9490   39.9650 N   0  0  0  0  0  0  0  0  0  0  0  0
   48.0490   34.0590   38.7200 C   0  0  0  0  0  0  0  0  0  0  0  0
   48.8050   33.0870   38.1950 N   0  0  0  0  0  0  0  0  0  0  0  0
   49.6620   31.1930   38.5230 H   0  0  0  0  0  0  0  0  0  0  0  0
   48.7360   30.9740   40.8140 H   0  0  0  0  0  0  0  0  0  0  0  0
   47.8230   34.9610   38.1630 H   0  0  0  0  0  0  0  0  0  0  0  0
   46.5480   33.5450   45.5660 O   0  0  0  0  0  0  0  0  0  0  0  0
   45.6310   31.1610   44.8250 O   0  0  0  0  0  0  0  0  0  0  0  0
   46.2350   31.9510   45.9950 P   0  0  2  0  0  0  0  0  0  0  0  0
   44.9860   32.0100   47.1640 O   0  0  0  0  0  0  0  0  0  0  0  0
   44.4780   31.1820   47.1250 H   0  0  0  0  0  0  0  0  0  0  0  0
   47.5480   31.1950   46.6740 O   0  0  0  0  0  0  0  0  0  0  0  0
   48.9520   29.3320   46.9860 C   0  0  0  0  0  3  0  0  0  0  0  0
   47.6690   29.8750   47.0070 C   0  0  0  0  0  0  0  0  0  0  0  0
   46.6440   29.0120   47.3660 C   0  0  0  0  0  0  0  0  0  0  0  0
   45.6470   29.4350   47.3830 H   0  0  0  0  0  0  0  0  0  0  0  0
   46.8430   27.7000   47.6870 C   0  0  0  0  0  0  0  0  0  0  0  0
   46.0190   26.7140   48.0530 N   0  0  0  0  0  0  0  0  0  0  0  0
   44.9850   26.7620   48.1730 H   0  0  0  0  0  0  0  0  0  0  0  0
   46.7450   25.6040   48.2530 C   0  0  0  0  0  0  0  0  0  0  0  0
   46.3400   24.6460   48.5580 H   0  0  0  0  0  0  0  0  0  0  0  0
   48.0880   25.8380   48.0190 C   0  0  0  0  0  3  0  0  0  0  0  0
   48.1220   27.1760   47.6610 C   0  0  0  0  0  0  0  0  0  0  0  0
   49.1670   28.0170   47.3050 C   0  0  0  0  0  3  0  0  0  0  0  0
  1  6  1  0  0  0  0
  2  3  1  0  0  0  0
  2  7  1  0  0  0  0
  2  1  1  0  0  0  0
  3  4  1  0  0  0  0
  4 11  1  0  0  0  0
  4  5  1  0  0  0  0
  5 13  1  0  0  0  0
  5 14  1  0  0  0  0
  6 15  1  6  0  0  0
  6  5  1  0  0  0  0
  6 31  1  0  0  0  0
  8  2  1  0  0  0  0
  9  3  1  0  0  0  0
 10  3  1  0  0  0  0
 12  4  1  0  0  0  0
 16  1  1  0  0  0  0
 16 18  1  0  0  0  0
 17 16  1  0  0  0  0
 19 20  1  0  0  0  0
 19 16  1  0  0  0  0
 21 19  1  0  0  0  0
 22 23  1  0  0  0  0
 23 24  2  0  0  0  0
 23 29  1  0  0  0  0
 24 19  1  0  0  0  0
 25 24  1  0  0  0  0
 26 25  2  0  0  0  0
 27 26  1  0  0  0  0
 27 22  2  0  0  0  0
 28 22  1  0  0  0  0
 30 26  1  0  0  0  0
 31 33  1  0  0  0  0
 33 32  2  6  0  0  0
 33 36  1  0  0  0  0
 33 34  1  0  0  0  0
 35 34  1  0  0  0  0
 36 38  1  0  0  0  0
 37 38  2  0  0  0  0
 37 48  1  0  0  0  0
 38 39  1  0  0  0  0
 39 40  1  0  0  0  0
 39 41  2  0  0  0  0
 41 42  1  0  0  0  0
 42 43  1  0  0  0  0
 42 44  1  0  0  0  0
 44 45  1  0  0  0  0
 46 44  2  0  0  0  0
 47 41  1  0  0  0  0
 47 46  1  0  0  0  0
 48 47  2  0  0  0  0
M  END
>  <minimizedAffinity>
-4.71381426

>  <minimizedRMSD>
1.89038908

$$$$
