
 OpenBabel03252508593D

 48 51  0  0  1  0  0  0  0  0999 V2000
   47.1210   34.0900   43.2320 N   0  0  0  0  0  0  0  0  0  0  0  0
   46.7420   35.3500   42.6980 C   0  0  0  0  0  0  0  0  0  0  0  0
   45.2830   35.7010   42.8500 C   0  0  0  0  0  0  0  0  0  0  0  0
   44.6320   35.1500   44.0910 C   0  0  0  0  0  0  0  0  0  0  0  0
   45.6380   34.4630   44.9830 C   0  0  0  0  0  0  0  0  0  0  0  0
   46.2610   33.3680   44.0430 C   0  0  2  0  0  0  0  0  0  0  0  0
   47.3040   36.1180   43.2860 H   0  0  0  0  0  0  0  0  0  0  0  0
   47.0050   35.5230   41.6520 H   0  0  0  0  0  0  0  0  0  0  0  0
   45.1930   36.8240   42.9290 H   0  0  0  0  0  0  0  0  0  0  0  0
   44.7100   35.4360   41.9340 H   0  0  0  0  0  0  0  0  0  0  0  0
   44.0210   35.8620   44.6490 H   0  0  0  0  0  0  0  0  0  0  0  0
   43.9240   34.3520   43.7480 H   0  0  0  0  0  0  0  0  0  0  0  0
   46.4310   35.1210   45.3430 H   0  0  0  0  0  0  0  0  0  0  0  0
   45.1050   33.8860   45.7590 H   0  0  0  0  0  0  0  0  0  0  0  0
   45.4070   32.8340   43.5780 H   0  0  0  0  0  0  0  0  0  0  0  0
   48.0840   33.3810   42.4400 C   0  0  0  0  0  0  0  0  0  0  0  0
   48.8010   34.1080   42.0190 H   0  0  0  0  0  0  0  0  0  0  0  0
   48.6380   32.6880   43.1160 H   0  0  0  0  0  0  0  0  0  0  0  0
   47.3630   32.5600   41.4210 C   0  0  0  0  0  0  0  0  0  0  0  0
   47.3970   31.4760   41.6090 H   0  0  0  0  0  0  0  0  0  0  0  0
   46.2850   32.8570   41.3670 H   0  0  0  0  0  0  0  0  0  0  0  0
   49.3190   32.2020   38.2290 C   0  0  0  0  0  0  0  0  0  0  0  0
   48.7780   31.9420   39.5020 C   0  0  0  0  0  0  0  0  0  0  0  0
   47.9250   32.8530   40.0750 C   0  0  0  0  0  0  0  0  0  0  0  0
   47.6440   33.9650   39.3820 N   0  0  0  0  0  0  0  0  0  0  0  0
   48.1630   34.2120   38.1630 C   0  0  0  0  0  0  0  0  0  0  0  0
   48.9970   33.3430   37.5790 N   0  0  0  0  0  0  0  0  0  0  0  0
   49.9850   31.4950   37.7740 H   0  0  0  0  0  0  0  0  0  0  0  0
   49.0390   31.0250   40.0190 H   0  0  0  0  0  0  0  0  0  0  0  0
   47.8810   35.1380   37.6740 H   0  0  0  0  0  0  0  0  0  0  0  0
   46.9500   32.5760   44.9500 O   0  0  0  0  0  0  0  0  0  0  0  0
   45.2320   30.7530   44.0540 O   0  0  0  0  0  0  0  0  0  0  0  0
   46.2440   31.0670   45.1660 P   0  0  2  0  0  0  0  0  0  0  0  0
   45.2970   31.1840   46.5870 O   0  0  0  0  0  0  0  0  0  0  0  0
   44.5600   30.5510   46.5300 H   0  0  0  0  0  0  0  0  0  0  0  0
   47.3600   29.8560   45.3820 O   0  0  0  0  0  0  0  0  0  0  0  0
   46.1260   27.8720   45.6600 C   0  0  0  0  0  3  0  0  0  0  0  0
   47.1910   28.6790   46.0550 C   0  0  0  0  0  0  0  0  0  0  0  0
   47.9720   28.1970   47.0960 C   0  0  0  0  0  0  0  0  0  0  0  0
   48.8000   28.8250   47.4020 H   0  0  0  0  0  0  0  0  0  0  0  0
   47.7400   27.0060   47.7220 C   0  0  0  0  0  0  0  0  0  0  0  0
   48.3520   26.3660   48.7230 N   0  0  0  0  0  0  0  0  0  0  0  0
   49.1890   26.6770   49.2590 H   0  0  0  0  0  0  0  0  0  0  0  0
   47.7050   25.2130   48.9470 C   0  0  0  0  0  0  0  0  0  0  0  0
   47.9810   24.4870   49.7040 H   0  0  0  0  0  0  0  0  0  0  0  0
   46.6330   25.0650   48.0860 C   0  0  0  0  0  3  0  0  0  0  0  0
   46.6790   26.2170   47.3190 C   0  0  0  0  0  0  0  0  0  0  0  0
   45.8810   26.6740   46.2790 C   0  0  0  0  0  3  0  0  0  0  0  0
  1  6  1  0  0  0  0
  2  3  1  0  0  0  0
  2  1  1  0  0  0  0
  2  7  1  0  0  0  0
  3  9  1  0  0  0  0
  3  4  1  0  0  0  0
  4 11  1  0  0  0  0
  4  5  1  0  0  0  0
  5 13  1  0  0  0  0
  5 14  1  0  0  0  0
  6 15  1  6  0  0  0
  6 31  1  0  0  0  0
  6  5  1  0  0  0  0
  8  2  1  0  0  0  0
 10  3  1  0  0  0  0
 12  4  1  0  0  0  0
 16 18  1  0  0  0  0
 16  1  1  0  0  0  0
 17 16  1  0  0  0  0
 19 20  1  0  0  0  0
 19 16  1  0  0  0  0
 21 19  1  0  0  0  0
 22 23  1  0  0  0  0
 23 29  1  0  0  0  0
 23 24  2  0  0  0  0
 24 19  1  0  0  0  0
 25 24  1  0  0  0  0
 26 25  2  0  0  0  0
 27 26  1  0  0  0  0
 27 22  2  0  0  0  0
 28 22  1  0  0  0  0
 30 26  1  0  0  0  0
 31 33  1  0  0  0  0
 33 32  2  6  0  0  0
 33 36  1  0  0  0  0
 33 34  1  0  0  0  0
 35 34  1  0  0  0  0
 36 38  1  0  0  0  0
 37 38  2  0  0  0  0
 37 48  1  0  0  0  0
 38 39  1  0  0  0  0
 39 40  1  0  0  0  0
 39 41  2  0  0  0  0
 41 42  1  0  0  0  0
 42 44  1  0  0  0  0
 42 43  1  0  0  0  0
 44 45  1  0  0  0  0
 46 44  2  0  0  0  0
 47 41  1  0  0  0  0
 47 46  1  0  0  0  0
 48 47  2  0  0  0  0
M  END
>  <minimizedAffinity>
-4.49222469

>  <minimizedRMSD>
1.15341854

$$$$
