
 OpenBabel03252508593D

 48 51  0  0  1  0  0  0  0  0999 V2000
   46.5890   34.6010   43.5800 N   0  0  0  0  0  0  0  0  0  0  0  0
   46.0890   35.5910   42.6940 C   0  0  0  0  0  0  0  0  0  0  0  0
   44.5890   35.7510   42.6870 C   0  0  0  0  0  0  0  0  0  0  0  0
   43.9240   35.4790   44.0110 C   0  0  0  0  0  0  0  0  0  0  0  0
   44.9420   35.2250   45.0980 C   0  0  0  0  0  0  0  0  0  0  0  0
   45.7730   34.0160   44.5340 C   0  0  2  0  0  0  0  0  0  0  0  0
   46.4990   36.5670   43.0550 H   0  0  0  0  0  0  0  0  0  0  0  0
   46.4050   35.5020   41.6520 H   0  0  0  0  0  0  0  0  0  0  0  0
   44.3460   36.8260   42.4370 H   0  0  0  0  0  0  0  0  0  0  0  0
   44.1270   35.1590   41.8670 H   0  0  0  0  0  0  0  0  0  0  0  0
   43.1850   36.2210   44.3190 H   0  0  0  0  0  0  0  0  0  0  0  0
   43.3550   34.5220   43.8870 H   0  0  0  0  0  0  0  0  0  0  0  0
   45.6120   36.0670   45.2810 H   0  0  0  0  0  0  0  0  0  0  0  0
   44.4320   34.8160   45.9870 H   0  0  0  0  0  0  0  0  0  0  0  0
   45.0340   33.2530   44.2120 H   0  0  0  0  0  0  0  0  0  0  0  0
   47.6940   33.8500   43.0600 C   0  0  0  0  0  0  0  0  0  0  0  0
   48.3890   34.5440   42.5540 H   0  0  0  0  0  0  0  0  0  0  0  0
   48.2260   33.3820   43.9220 H   0  0  0  0  0  0  0  0  0  0  0  0
   47.1680   32.7550   42.1890 C   0  0  0  0  0  0  0  0  0  0  0  0
   47.3600   31.7410   42.5740 H   0  0  0  0  0  0  0  0  0  0  0  0
   46.0620   32.8580   42.0530 H   0  0  0  0  0  0  0  0  0  0  0  0
   49.1790   32.0390   39.0930 C   0  0  0  0  0  0  0  0  0  0  0  0
   48.6160   31.9250   40.3790 C   0  0  0  0  0  0  0  0  0  0  0  0
   47.7530   32.8930   40.8290 C   0  0  0  0  0  0  0  0  0  0  0  0
   47.4830   33.9180   40.0080 N   0  0  0  0  0  0  0  0  0  0  0  0
   48.0230   34.0250   38.7770 C   0  0  0  0  0  0  0  0  0  0  0  0
   48.8680   33.0970   38.3110 N   0  0  0  0  0  0  0  0  0  0  0  0
   49.8540   31.2870   38.7330 H   0  0  0  0  0  0  0  0  0  0  0  0
   48.8690   31.0740   41.0010 H   0  0  0  0  0  0  0  0  0  0  0  0
   47.7490   34.8880   38.1800 H   0  0  0  0  0  0  0  0  0  0  0  0
   46.4890   33.6200   45.6540 O   0  0  0  0  0  0  0  0  0  0  0  0
   45.5680   31.2260   44.9490 O   0  0  0  0  0  0  0  0  0  0  0  0
   46.1640   32.0360   46.1100 P   0  0  2  0  0  0  0  0  0  0  0  0
   44.9040   32.1230   47.2650 O   0  0  0  0  0  0  0  0  0  0  0  0
   44.3920   31.2960   47.2370 H   0  0  0  0  0  0  0  0  0  0  0  0
   47.4670   31.2870   46.8160 O   0  0  0  0  0  0  0  0  0  0  0  0
   48.8990   29.4320   47.0470 C   0  0  0  0  0  3  0  0  0  0  0  0
   47.6090   29.9580   47.1020 C   0  0  0  0  0  0  0  0  0  0  0  0
   46.6010   29.0700   47.4460 C   0  0  0  0  0  0  0  0  0  0  0  0
   45.5980   29.4790   47.4890 H   0  0  0  0  0  0  0  0  0  0  0  0
   46.8200   27.7500   47.7190 C   0  0  0  0  0  0  0  0  0  0  0  0
   46.0140   26.7420   48.0630 N   0  0  0  0  0  0  0  0  0  0  0  0
   44.9810   26.7720   48.1970 H   0  0  0  0  0  0  0  0  0  0  0  0
   46.7570   25.6370   48.2150 C   0  0  0  0  0  0  0  0  0  0  0  0
   46.3670   24.6630   48.4920 H   0  0  0  0  0  0  0  0  0  0  0  0
   48.0930   25.8950   47.9720 C   0  0  0  0  0  3  0  0  0  0  0  0
   48.1060   27.2440   47.6600 C   0  0  0  0  0  0  0  0  0  0  0  0
   49.1340   28.1110   47.3190 C   0  0  0  0  0  3  0  0  0  0  0  0
  1  6  1  0  0  0  0
  2  7  1  0  0  0  0
  2  1  1  0  0  0  0
  3  2  1  0  0  0  0
  3  4  1  0  0  0  0
  4 11  1  0  0  0  0
  4  5  1  0  0  0  0
  5 13  1  0  0  0  0
  5 14  1  0  0  0  0
  6 15  1  6  0  0  0
  6  5  1  0  0  0  0
  6 31  1  0  0  0  0
  8  2  1  0  0  0  0
  9  3  1  0  0  0  0
 10  3  1  0  0  0  0
 12  4  1  0  0  0  0
 16  1  1  0  0  0  0
 16 18  1  0  0  0  0
 17 16  1  0  0  0  0
 19 20  1  0  0  0  0
 19 16  1  0  0  0  0
 21 19  1  0  0  0  0
 22 23  1  0  0  0  0
 23 24  2  0  0  0  0
 23 29  1  0  0  0  0
 24 19  1  0  0  0  0
 25 24  1  0  0  0  0
 26 25  2  0  0  0  0
 27 26  1  0  0  0  0
 27 22  2  0  0  0  0
 28 22  1  0  0  0  0
 30 26  1  0  0  0  0
 31 33  1  0  0  0  0
 33 32  2  6  0  0  0
 33 36  1  0  0  0  0
 33 34  1  0  0  0  0
 35 34  1  0  0  0  0
 36 38  1  0  0  0  0
 37 38  2  0  0  0  0
 37 48  1  0  0  0  0
 38 39  1  0  0  0  0
 39 40  1  0  0  0  0
 39 41  2  0  0  0  0
 41 42  1  0  0  0  0
 42 43  1  0  0  0  0
 42 44  1  0  0  0  0
 44 45  1  0  0  0  0
 46 44  2  0  0  0  0
 47 41  1  0  0  0  0
 47 46  1  0  0  0  0
 48 47  2  0  0  0  0
M  END
>  <minimizedAffinity>
-4.74140787

>  <minimizedRMSD>
1.58364499

$$$$
