
 OpenBabel03252508593D

 48 51  0  0  1  0  0  0  0  0999 V2000
   46.7450   34.4610   43.5190 N   0  0  0  0  0  0  0  0  0  0  0  0
   46.3020   35.5860   42.7750 C   0  0  0  0  0  0  0  0  0  0  0  0
   44.8130   35.8270   42.7980 C   0  0  0  0  0  0  0  0  0  0  0  0
   44.1320   35.4170   44.0770 C   0  0  0  0  0  0  0  0  0  0  0  0
   45.1310   34.9650   45.1150 C   0  0  0  0  0  0  0  0  0  0  0  0
   45.8970   33.7990   44.3900 C   0  0  2  0  0  0  0  0  0  0  0  0
   46.7640   36.4810   43.2610 H   0  0  0  0  0  0  0  0  0  0  0  0
   46.6150   35.6200   41.7290 H   0  0  0  0  0  0  0  0  0  0  0  0
   44.6300   36.9370   42.6950 H   0  0  0  0  0  0  0  0  0  0  0  0
   44.3210   35.3760   41.9080 H   0  0  0  0  0  0  0  0  0  0  0  0
   43.4330   36.1500   44.4850 H   0  0  0  0  0  0  0  0  0  0  0  0
   43.5110   34.5170   43.8290 H   0  0  0  0  0  0  0  0  0  0  0  0
   45.8460   35.7370   45.4050 H   0  0  0  0  0  0  0  0  0  0  0  0
   44.5980   34.4690   45.9440 H   0  0  0  0  0  0  0  0  0  0  0  0
   45.1180   33.1270   43.9730 H   0  0  0  0  0  0  0  0  0  0  0  0
   47.8080   33.7260   42.8970 C   0  0  0  0  0  0  0  0  0  0  0  0
   48.4970   34.4410   42.4120 H   0  0  0  0  0  0  0  0  0  0  0  0
   48.3660   33.1860   43.6990 H   0  0  0  0  0  0  0  0  0  0  0  0
   47.2190   32.7090   41.9740 C   0  0  0  0  0  0  0  0  0  0  0  0
   47.3690   31.6670   42.2970 H   0  0  0  0  0  0  0  0  0  0  0  0
   46.1170   32.8700   41.8630 H   0  0  0  0  0  0  0  0  0  0  0  0
   49.1270   32.0700   38.7970 C   0  0  0  0  0  0  0  0  0  0  0  0
   48.5790   31.9080   40.0830 C   0  0  0  0  0  0  0  0  0  0  0  0
   47.7900   32.8990   40.6140 C   0  0  0  0  0  0  0  0  0  0  0  0
   47.5770   33.9920   39.8680 N   0  0  0  0  0  0  0  0  0  0  0  0
   48.1040   34.1450   38.6360 C   0  0  0  0  0  0  0  0  0  0  0  0
   48.8760   33.1970   38.0920 N   0  0  0  0  0  0  0  0  0  0  0  0
   49.7430   31.3000   38.3740 H   0  0  0  0  0  0  0  0  0  0  0  0
   48.7830   31.0020   40.6430 H   0  0  0  0  0  0  0  0  0  0  0  0
   47.8790   35.0620   38.1030 H   0  0  0  0  0  0  0  0  0  0  0  0
   46.5870   33.2180   45.4440 O   0  0  0  0  0  0  0  0  0  0  0  0
   45.4120   31.0500   44.4470 O   0  0  0  0  0  0  0  0  0  0  0  0
   46.2680   31.5770   45.6070 P   0  0  2  0  0  0  0  0  0  0  0  0
   45.2650   31.4230   46.9860 O   0  0  0  0  0  0  0  0  0  0  0  0
   44.7110   30.6290   46.8870 H   0  0  0  0  0  0  0  0  0  0  0  0
   47.6390   30.6740   45.8580 O   0  0  0  0  0  0  0  0  0  0  0  0
   46.8870   28.4450   45.9260 C   0  0  0  0  0  3  0  0  0  0  0  0
   47.7280   29.4350   46.4290 C   0  0  0  0  0  0  0  0  0  0  0  0
   48.5710   29.0550   47.4630 C   0  0  0  0  0  0  0  0  0  0  0  0
   49.2250   29.8260   47.8530 H   0  0  0  0  0  0  0  0  0  0  0  0
   48.6030   27.7940   47.9830 C   0  0  0  0  0  0  0  0  0  0  0  0
   49.3210   27.2240   48.9560 N   0  0  0  0  0  0  0  0  0  0  0  0
   50.0500   27.6710   49.5520 H   0  0  0  0  0  0  0  0  0  0  0  0
   48.9490   25.9410   49.0620 C   0  0  0  0  0  0  0  0  0  0  0  0
   49.3650   25.2340   49.7720 H   0  0  0  0  0  0  0  0  0  0  0  0
   47.9620   25.6290   48.1460 C   0  0  0  0  0  3  0  0  0  0  0  0
   47.7620   26.8230   47.4740 C   0  0  0  0  0  0  0  0  0  0  0  0
   46.9060   27.1740   46.4380 C   0  0  0  0  0  3  0  0  0  0  0  0
  1  6  1  0  0  0  0
  2  3  1  0  0  0  0
  2  7  1  0  0  0  0
  2  1  1  0  0  0  0
  3  4  1  0  0  0  0
  4 11  1  0  0  0  0
  4  5  1  0  0  0  0
  5 13  1  0  0  0  0
  5 14  1  0  0  0  0
  6 15  1  6  0  0  0
  6  5  1  0  0  0  0
  6 31  1  0  0  0  0
  8  2  1  0  0  0  0
  9  3  1  0  0  0  0
 10  3  1  0  0  0  0
 12  4  1  0  0  0  0
 16  1  1  0  0  0  0
 16 18  1  0  0  0  0
 17 16  1  0  0  0  0
 19 20  1  0  0  0  0
 19 16  1  0  0  0  0
 21 19  1  0  0  0  0
 22 23  1  0  0  0  0
 23 24  2  0  0  0  0
 23 29  1  0  0  0  0
 24 19  1  0  0  0  0
 25 24  1  0  0  0  0
 26 25  2  0  0  0  0
 27 26  1  0  0  0  0
 27 22  2  0  0  0  0
 28 22  1  0  0  0  0
 30 26  1  0  0  0  0
 31 33  1  0  0  0  0
 33 32  2  6  0  0  0
 33 36  1  0  0  0  0
 33 34  1  0  0  0  0
 35 34  1  0  0  0  0
 36 38  1  0  0  0  0
 37 38  2  0  0  0  0
 37 48  1  0  0  0  0
 38 39  1  0  0  0  0
 39 40  1  0  0  0  0
 39 41  2  0  0  0  0
 41 42  1  0  0  0  0
 42 44  1  0  0  0  0
 42 43  1  0  0  0  0
 44 45  1  0  0  0  0
 46 44  2  0  0  0  0
 47 41  1  0  0  0  0
 47 46  1  0  0  0  0
 48 47  2  0  0  0  0
M  END
>  <minimizedAffinity>
-4.6632719

>  <minimizedRMSD>
1.35488105

$$$$
