
 OpenBabel03252508593D

 48 51  0  0  1  0  0  0  0  0999 V2000
   47.1260   34.2140   43.4630 N   0  0  0  0  0  0  0  0  0  0  0  0
   46.7050   35.3590   42.7380 C   0  0  0  0  0  0  0  0  0  0  0  0
   45.2180   35.6170   42.7510 C   0  0  0  0  0  0  0  0  0  0  0  0
   44.5190   35.1900   44.0140 C   0  0  0  0  0  0  0  0  0  0  0  0
   45.5020   34.7050   45.0520 C   0  0  0  0  0  0  0  0  0  0  0  0
   46.2610   33.5440   44.3120 C   0  0  2  0  0  0  0  0  0  0  0  0
   47.1720   36.2390   43.2470 H   0  0  0  0  0  0  0  0  0  0  0  0
   47.0280   35.4110   41.6960 H   0  0  0  0  0  0  0  0  0  0  0  0
   45.0490   36.7320   42.6690 H   0  0  0  0  0  0  0  0  0  0  0  0
   44.7300   35.1910   41.8470 H   0  0  0  0  0  0  0  0  0  0  0  0
   43.8250   35.9230   44.4300 H   0  0  0  0  0  0  0  0  0  0  0  0
   43.8900   34.3030   43.7420 H   0  0  0  0  0  0  0  0  0  0  0  0
   46.2230   35.4630   45.3660 H   0  0  0  0  0  0  0  0  0  0  0  0
   44.9550   34.1990   45.8660 H   0  0  0  0  0  0  0  0  0  0  0  0
   45.4780   32.8910   43.8740 H   0  0  0  0  0  0  0  0  0  0  0  0
   48.1870   33.4790   42.8370 C   0  0  0  0  0  0  0  0  0  0  0  0
   48.8570   34.1920   42.3230 H   0  0  0  0  0  0  0  0  0  0  0  0
   48.7660   32.9650   43.6390 H   0  0  0  0  0  0  0  0  0  0  0  0
   47.5940   32.4350   41.9480 C   0  0  0  0  0  0  0  0  0  0  0  0
   47.8510   31.4020   42.2320 H   0  0  0  0  0  0  0  0  0  0  0  0
   46.4770   32.5110   41.9410 H   0  0  0  0  0  0  0  0  0  0  0  0
   49.3910   32.1010   38.6620 C   0  0  0  0  0  0  0  0  0  0  0  0
   48.9760   31.8750   39.9880 C   0  0  0  0  0  0  0  0  0  0  0  0
   48.0210   32.6890   40.5470 C   0  0  0  0  0  0  0  0  0  0  0  0
   47.5230   33.6770   39.7890 N   0  0  0  0  0  0  0  0  0  0  0  0
   47.9230   33.8910   38.5190 C   0  0  0  0  0  0  0  0  0  0  0  0
   48.8520   33.1150   37.9480 N   0  0  0  0  0  0  0  0  0  0  0  0
   50.1360   31.4700   38.2170 H   0  0  0  0  0  0  0  0  0  0  0  0
   49.4120   31.0610   40.5550 H   0  0  0  0  0  0  0  0  0  0  0  0
   47.4670   34.7140   37.9800 H   0  0  0  0  0  0  0  0  0  0  0  0
   46.9340   32.9340   45.3600 O   0  0  0  0  0  0  0  0  0  0  0  0
   45.4270   30.8450   44.6950 O   0  0  0  0  0  0  0  0  0  0  0  0
   46.2220   31.4900   45.8400 P   0  0  2  0  0  0  0  0  0  0  0  0
   45.0380   31.9080   47.0030 O   0  0  0  0  0  0  0  0  0  0  0  0
   44.3320   31.2380   46.9900 H   0  0  0  0  0  0  0  0  0  0  0  0
   47.2990   30.4420   46.5470 O   0  0  0  0  0  0  0  0  0  0  0  0
   48.1630   28.3030   47.0120 C   0  0  0  0  0  3  0  0  0  0  0  0
   47.0650   29.1600   46.9580 C   0  0  0  0  0  0  0  0  0  0  0  0
   45.8450   28.6170   47.3300 C   0  0  0  0  0  0  0  0  0  0  0  0
   44.9920   29.2830   47.2880 H   0  0  0  0  0  0  0  0  0  0  0  0
   45.6880   27.3200   47.7320 C   0  0  0  0  0  0  0  0  0  0  0  0
   44.6280   26.6080   48.1250 N   0  0  0  0  0  0  0  0  0  0  0  0
   43.6410   26.9280   48.2050 H   0  0  0  0  0  0  0  0  0  0  0  0
   45.0370   25.3630   48.4120 C   0  0  0  0  0  0  0  0  0  0  0  0
   44.3910   24.5640   48.7560 H   0  0  0  0  0  0  0  0  0  0  0  0
   46.3990   25.2250   48.2110 C   0  0  0  0  0  3  0  0  0  0  0  0
   46.7860   26.4830   47.7800 C   0  0  0  0  0  0  0  0  0  0  0  0
   48.0220   27.0000   47.4140 C   0  0  0  0  0  3  0  0  0  0  0  0
  1  6  1  0  0  0  0
  2  3  1  0  0  0  0
  2  7  1  0  0  0  0
  2  1  1  0  0  0  0
  3  4  1  0  0  0  0
  4 11  1  0  0  0  0
  4  5  1  0  0  0  0
  5 13  1  0  0  0  0
  5 14  1  0  0  0  0
  6 15  1  6  0  0  0
  6  5  1  0  0  0  0
  6 31  1  0  0  0  0
  8  2  1  0  0  0  0
  9  3  1  0  0  0  0
 10  3  1  0  0  0  0
 12  4  1  0  0  0  0
 16  1  1  0  0  0  0
 16 18  1  0  0  0  0
 17 16  1  0  0  0  0
 19 20  1  0  0  0  0
 19 16  1  0  0  0  0
 21 19  1  0  0  0  0
 22 23  1  0  0  0  0
 23 24  2  0  0  0  0
 23 29  1  0  0  0  0
 24 19  1  0  0  0  0
 25 24  1  0  0  0  0
 26 25  2  0  0  0  0
 27 26  1  0  0  0  0
 27 22  2  0  0  0  0
 28 22  1  0  0  0  0
 30 26  1  0  0  0  0
 31 33  1  0  0  0  0
 33 32  2  6  0  0  0
 33 36  1  0  0  0  0
 33 34  1  0  0  0  0
 35 34  1  0  0  0  0
 36 38  1  0  0  0  0
 37 48  1  0  0  0  0
 38 37  2  0  0  0  0
 38 39  1  0  0  0  0
 39 41  2  0  0  0  0
 40 39  1  0  0  0  0
 41 47  1  0  0  0  0
 41 42  1  0  0  0  0
 42 43  1  0  0  0  0
 42 44  1  0  0  0  0
 44 45  1  0  0  0  0
 46 44  2  0  0  0  0
 47 46  1  0  0  0  0
 48 47  2  0  0  0  0
M  END
>  <minimizedAffinity>
-4.60334587

>  <minimizedRMSD>
1.62486255

$$$$
