
 OpenBabel03252508593D

 48 51  0  0  1  0  0  0  0  0999 V2000
   47.1520   34.2500   43.4410 N   0  0  0  0  0  0  0  0  0  0  0  0
   46.7180   35.4100   42.7470 C   0  0  0  0  0  0  0  0  0  0  0  0
   45.2290   35.6500   42.7630 C   0  0  0  0  0  0  0  0  0  0  0  0
   44.5320   35.1790   44.0120 C   0  0  0  0  0  0  0  0  0  0  0  0
   45.5190   34.6770   45.0390 C   0  0  0  0  0  0  0  0  0  0  0  0
   46.2930   33.5470   44.2680 C   0  0  2  0  0  0  0  0  0  0  0  0
   47.1740   36.2810   43.2820 H   0  0  0  0  0  0  0  0  0  0  0  0
   47.0440   35.4950   41.7090 H   0  0  0  0  0  0  0  0  0  0  0  0
   45.0470   36.7640   42.7130 H   0  0  0  0  0  0  0  0  0  0  0  0
   44.7480   35.2440   41.8470 H   0  0  0  0  0  0  0  0  0  0  0  0
   43.8280   35.8910   44.4470 H   0  0  0  0  0  0  0  0  0  0  0  0
   43.9150   34.2930   43.7140 H   0  0  0  0  0  0  0  0  0  0  0  0
   46.2300   35.4340   45.3760 H   0  0  0  0  0  0  0  0  0  0  0  0
   44.9750   34.1410   45.8370 H   0  0  0  0  0  0  0  0  0  0  0  0
   45.5200   32.8960   43.8100 H   0  0  0  0  0  0  0  0  0  0  0  0
   48.2230   33.5470   42.7970 C   0  0  0  0  0  0  0  0  0  0  0  0
   48.8760   34.2800   42.2900 H   0  0  0  0  0  0  0  0  0  0  0  0
   48.8180   33.0310   43.5880 H   0  0  0  0  0  0  0  0  0  0  0  0
   47.6450   32.5040   41.8960 C   0  0  0  0  0  0  0  0  0  0  0  0
   47.9160   31.4720   42.1690 H   0  0  0  0  0  0  0  0  0  0  0  0
   46.5280   32.5660   41.8880 H   0  0  0  0  0  0  0  0  0  0  0  0
   49.2890   32.1150   38.5360 C   0  0  0  0  0  0  0  0  0  0  0  0
   48.8770   31.8700   39.8600 C   0  0  0  0  0  0  0  0  0  0  0  0
   48.0700   32.7800   40.4980 C   0  0  0  0  0  0  0  0  0  0  0  0
   47.7080   33.8760   39.8170 N   0  0  0  0  0  0  0  0  0  0  0  0
   48.1030   34.1090   38.5490 C   0  0  0  0  0  0  0  0  0  0  0  0
   48.8890   33.2410   37.9010 N   0  0  0  0  0  0  0  0  0  0  0  0
   49.9190   31.4090   38.0300 H   0  0  0  0  0  0  0  0  0  0  0  0
   49.2000   30.9660   40.3630 H   0  0  0  0  0  0  0  0  0  0  0  0
   47.7620   35.0220   38.0750 H   0  0  0  0  0  0  0  0  0  0  0  0
   46.9710   32.9150   45.3010 O   0  0  0  0  0  0  0  0  0  0  0  0
   45.4190   30.8540   44.6520 O   0  0  0  0  0  0  0  0  0  0  0  0
   46.2310   31.4880   45.7900 P   0  0  2  0  0  0  0  0  0  0  0  0
   45.0600   31.9360   46.9560 O   0  0  0  0  0  0  0  0  0  0  0  0
   44.3410   31.2810   46.9480 H   0  0  0  0  0  0  0  0  0  0  0  0
   47.2890   30.4220   46.4980 O   0  0  0  0  0  0  0  0  0  0  0  0
   48.1080   28.2750   47.0080 C   0  0  0  0  0  3  0  0  0  0  0  0
   47.0280   29.1510   46.9280 C   0  0  0  0  0  0  0  0  0  0  0  0
   45.7930   28.6360   47.2960 C   0  0  0  0  0  0  0  0  0  0  0  0
   44.9540   29.3170   47.2320 H   0  0  0  0  0  0  0  0  0  0  0  0
   45.6100   27.3510   47.7170 C   0  0  0  0  0  0  0  0  0  0  0  0
   44.5320   26.6630   48.1090 N   0  0  0  0  0  0  0  0  0  0  0  0
   43.5510   27.0040   48.1740 H   0  0  0  0  0  0  0  0  0  0  0  0
   44.9160   25.4170   48.4210 C   0  0  0  0  0  0  0  0  0  0  0  0
   44.2510   24.6350   48.7720 H   0  0  0  0  0  0  0  0  0  0  0  0
   46.2760   25.2510   48.2380 C   0  0  0  0  0  3  0  0  0  0  0  0
   46.6920   26.4930   47.7900 C   0  0  0  0  0  0  0  0  0  0  0  0
   47.9400   26.9820   47.4280 C   0  0  0  0  0  3  0  0  0  0  0  0
  1  6  1  0  0  0  0
  2  3  1  0  0  0  0
  2  7  1  0  0  0  0
  2  1  1  0  0  0  0
  3  4  1  0  0  0  0
  4 11  1  0  0  0  0
  4  5  1  0  0  0  0
  5 13  1  0  0  0  0
  5 14  1  0  0  0  0
  6 15  1  6  0  0  0
  6  5  1  0  0  0  0
  6 31  1  0  0  0  0
  8  2  1  0  0  0  0
  9  3  1  0  0  0  0
 10  3  1  0  0  0  0
 12  4  1  0  0  0  0
 16  1  1  0  0  0  0
 16 18  1  0  0  0  0
 17 16  1  0  0  0  0
 19 20  1  0  0  0  0
 19 16  1  0  0  0  0
 21 19  1  0  0  0  0
 22 23  1  0  0  0  0
 23 29  1  0  0  0  0
 23 24  2  0  0  0  0
 24 19  1  0  0  0  0
 25 24  1  0  0  0  0
 26 25  2  0  0  0  0
 27 22  2  0  0  0  0
 27 26  1  0  0  0  0
 28 22  1  0  0  0  0
 30 26  1  0  0  0  0
 31 33  1  0  0  0  0
 33 32  2  6  0  0  0
 33 36  1  0  0  0  0
 33 34  1  0  0  0  0
 35 34  1  0  0  0  0
 36 38  1  0  0  0  0
 37 48  1  0  0  0  0
 38 37  2  0  0  0  0
 38 39  1  0  0  0  0
 39 41  2  0  0  0  0
 40 39  1  0  0  0  0
 41 47  1  0  0  0  0
 41 42  1  0  0  0  0
 42 43  1  0  0  0  0
 42 44  1  0  0  0  0
 44 45  1  0  0  0  0
 46 44  2  0  0  0  0
 47 46  1  0  0  0  0
 48 47  2  0  0  0  0
M  END
>  <minimizedAffinity>
-4.65215731

>  <minimizedRMSD>
1.79096401

$$$$
