
 OpenBabel03242522553D

 43 46  0  0  1  0  0  0  0  0999 V2000
   39.3400   30.1020   39.3880 C   0  0  0  0  0  0  0  0  0  0  0  0
   39.9290   29.4410   40.3020 O   0  0  0  0  0  0  0  0  0  0  0  0
   38.1040   29.9230   40.0630 N   0  0  0  0  0  0  0  0  0  0  0  0
   37.0330   29.8970   39.0860 C   0  0  0  0  0  0  0  0  0  0  0  0
   35.7420   29.8110   39.8810 C   0  0  0  0  0  0  0  0  0  0  0  0
   35.8000   30.7280   41.0260 N   0  0  0  0  0  0  0  0  0  0  0  0
   36.5850   30.0410   42.0140 C   0  0  0  0  0  0  0  0  0  0  0  0
   37.9430   29.7890   41.5040 C   0  0  1  0  0  0  0  0  0  0  0  0
   37.0360   30.8640   38.5580 H   0  0  0  0  0  0  0  0  0  0  0  0
   37.0910   29.0310   38.4030 H   0  0  0  0  0  0  0  0  0  0  0  0
   35.5230   28.7840   40.1940 H   0  0  0  0  0  0  0  0  0  0  0  0
   34.9170   30.1310   39.2110 H   0  0  0  0  0  0  0  0  0  0  0  0
   34.8490   30.9630   41.3380 H   0  0  0  0  0  0  0  0  0  0  0  0
   36.6050   30.6640   42.9320 H   0  0  0  0  0  0  0  0  0  0  0  0
   36.0550   29.0970   42.3260 H   0  0  0  0  0  0  0  0  0  0  0  0
   38.6930   30.5140   41.9370 H   0  0  0  0  0  0  0  0  0  0  0  0
   39.2150   28.2780   43.0790 C   0  0  0  0  0  3  0  0  0  0  0  0
   38.3860   28.4460   41.9640 C   0  0  0  0  0  0  0  0  0  0  0  0
   37.9870   27.2840   41.2940 C   0  0  0  0  0  0  0  0  0  0  0  0
   37.3430   27.4640   40.4340 H   0  0  0  0  0  0  0  0  0  0  0  0
   38.3820   26.0280   41.6990 C   0  0  0  0  0  0  0  0  0  0  0  0
   38.0650   24.8310   41.1380 N   0  0  0  0  0  0  0  0  0  0  0  0
   37.4640   24.6840   40.3010 H   0  0  0  0  0  0  0  0  0  0  0  0
   38.6950   23.8990   41.8980 C   0  0  0  0  0  0  0  0  0  0  0  0
   38.6330   22.8430   41.7000 H   0  0  0  0  0  0  0  0  0  0  0  0
   39.4040   24.5160   42.9320 C   0  0  0  0  0  3  0  0  0  0  0  0
   39.1980   25.8690   42.7980 C   0  0  0  0  0  0  0  0  0  0  0  0
   39.5960   27.0090   43.4650 C   0  0  0  0  0  3  0  0  0  0  0  0
   40.1780   30.5400   38.4040 O   0  0  0  0  0  0  0  0  0  0  0  0
   41.9370   32.1770   37.3140 O   0  0  0  0  0  0  0  0  0  0  0  0
   40.4870   32.0620   37.8480 P   0  0  1  0  0  0  0  0  0  0  0  0
   39.5060   32.4660   36.5380 O   0  0  0  0  0  0  0  0  0  0  0  0
   38.9390   33.2210   36.7890 H   0  0  0  0  0  0  0  0  0  0  0  0
   40.3160   33.1930   39.0890 O   0  0  0  0  0  0  0  0  0  0  0  0
   42.6790   34.8690   41.2700 C   0  0  0  0  0  0  0  0  0  0  0  0
   41.7020   34.6210   40.2710 C   0  0  0  0  0  0  0  0  0  0  0  0
   41.2570   33.3450   40.0710 C   0  0  0  0  0  0  0  0  0  0  0  0
   41.7630   32.3380   40.8400 N   0  0  0  0  0  0  0  0  0  0  0  0
   42.6880   32.5900   41.7820 C   0  0  0  0  0  0  0  0  0  0  0  0
   43.1500   33.8360   42.0070 N   0  0  0  0  0  0  0  0  0  0  0  0
   43.0810   35.8430   41.4900 H   0  0  0  0  0  0  0  0  0  0  0  0
   41.4320   35.5390   39.7770 H   0  0  0  0  0  0  0  0  0  0  0  0
   43.0620   31.7590   42.3710 H   0  0  0  0  0  0  0  0  0  0  0  0
  1  3  1  0  0  0  0
  1  2  2  0  0  0  0
  3  8  1  0  0  0  0
  4  5  1  0  0  0  0
  4  3  1  0  0  0  0
  5 11  1  0  0  0  0
  5  6  1  0  0  0  0
  6 13  1  0  0  0  0
  6  7  1  0  0  0  0
  7 15  1  0  0  0  0
  7 14  1  0  0  0  0
  8 16  1  1  0  0  0
  8 18  1  0  0  0  0
  8  7  1  0  0  0  0
  9  4  1  0  0  0  0
 10  4  1  0  0  0  0
 12  5  1  0  0  0  0
 17 28  1  0  0  0  0
 18 17  2  0  0  0  0
 19 21  2  0  0  0  0
 19 18  1  0  0  0  0
 20 19  1  0  0  0  0
 21 27  1  0  0  0  0
 22 21  1  0  0  0  0
 22 24  1  0  0  0  0
 23 22  1  0  0  0  0
 24 26  2  0  0  0  0
 25 24  1  0  0  0  0
 27 26  1  0  0  0  0
 27 28  2  0  0  0  0
 29  1  1  0  0  0  0
 31 30  2  6  0  0  0
 31 29  1  0  0  0  0
 31 34  1  0  0  0  0
 32 33  1  0  0  0  0
 32 31  1  0  0  0  0
 34 37  1  0  0  0  0
 35 41  1  0  0  0  0
 35 40  1  0  0  0  0
 36 35  2  0  0  0  0
 37 36  1  0  0  0  0
 37 38  2  0  0  0  0
 38 39  1  0  0  0  0
 39 40  2  0  0  0  0
 39 43  1  0  0  0  0
 42 36  1  0  0  0  0
M  END
>  <minimizedAffinity>
-6.51712894

$$$$

 OpenBabel03242522553D

 43 46  0  0  1  0  0  0  0  0999 V2000
   39.3670   29.4950   37.8070 C   0  0  0  0  0  0  0  0  0  0  0  0
   39.1080   29.5350   39.0520 O   0  0  0  0  0  0  0  0  0  0  0  0
   38.0530   29.0200   37.5550 N   0  0  0  0  0  0  0  0  0  0  0  0
   38.0750   28.1750   36.3770 C   0  0  0  0  0  0  0  0  0  0  0  0
   36.6310   27.7930   36.1070 C   0  0  0  0  0  0  0  0  0  0  0  0
   35.7660   28.9670   36.2710 N   0  0  0  0  0  0  0  0  0  0  0  0
   35.5830   29.1000   37.6890 C   0  0  0  0  0  0  0  0  0  0  0  0
   36.8760   29.3340   38.3530 C   0  0  1  0  0  0  0  0  0  0  0  0
   38.4220   28.7890   35.5300 H   0  0  0  0  0  0  0  0  0  0  0  0
   38.6700   27.2550   36.5160 H   0  0  0  0  0  0  0  0  0  0  0  0
   36.3060   26.9570   36.7370 H   0  0  0  0  0  0  0  0  0  0  0  0
   36.5700   27.4500   35.0530 H   0  0  0  0  0  0  0  0  0  0  0  0
   34.8910   28.8360   35.7470 H   0  0  0  0  0  0  0  0  0  0  0  0
   34.8770   29.9370   37.8690 H   0  0  0  0  0  0  0  0  0  0  0  0
   35.0480   28.1900   38.0860 H   0  0  0  0  0  0  0  0  0  0  0  0
   37.0110   30.4180   38.6340 H   0  0  0  0  0  0  0  0  0  0  0  0
   36.8930   27.1920   39.6920 C   0  0  0  0  0  3  0  0  0  0  0  0
   36.8950   28.5900   39.6410 C   0  0  0  0  0  0  0  0  0  0  0  0
   36.9170   29.2660   40.8660 C   0  0  0  0  0  0  0  0  0  0  0  0
   36.9180   30.3520   40.7760 H   0  0  0  0  0  0  0  0  0  0  0  0
   36.9360   28.6020   42.0730 C   0  0  0  0  0  0  0  0  0  0  0  0
   36.9570   29.1390   43.3210 N   0  0  0  0  0  0  0  0  0  0  0  0
   36.9640   30.1530   43.5550 H   0  0  0  0  0  0  0  0  0  0  0  0
   36.9690   28.0790   44.1700 C   0  0  0  0  0  0  0  0  0  0  0  0
   36.9870   28.1850   45.2400 H   0  0  0  0  0  0  0  0  0  0  0  0
   36.9540   26.8820   43.4490 C   0  0  0  0  0  3  0  0  0  0  0  0
   36.9330   27.2240   42.1170 C   0  0  0  0  0  0  0  0  0  0  0  0
   36.9120   26.5500   40.9140 C   0  0  0  0  0  3  0  0  0  0  0  0
   40.6340   29.8960   37.5000 O   0  0  0  0  0  0  0  0  0  0  0  0
   42.7010   31.3730   36.7840 O   0  0  0  0  0  0  0  0  0  0  0  0
   41.3160   31.3990   37.4770 P   0  0  1  0  0  0  0  0  0  0  0  0
   40.3990   32.4920   36.5800 O   0  0  0  0  0  0  0  0  0  0  0  0
   40.0820   33.2010   37.1730 H   0  0  0  0  0  0  0  0  0  0  0  0
   41.5490   31.9680   39.0490 O   0  0  0  0  0  0  0  0  0  0  0  0
   38.8910   33.3370   41.1000 C   0  0  0  0  0  0  0  0  0  0  0  0
   39.7830   32.4300   40.4700 C   0  0  0  0  0  0  0  0  0  0  0  0
   40.7310   32.9090   39.6130 C   0  0  0  0  0  0  0  0  0  0  0  0
   40.8000   34.2510   39.3820 N   0  0  0  0  0  0  0  0  0  0  0  0
   39.9480   35.0980   39.9870 C   0  0  0  0  0  0  0  0  0  0  0  0
   38.9990   34.6610   40.8380 N   0  0  0  0  0  0  0  0  0  0  0  0
   38.1170   33.0410   41.7870 H   0  0  0  0  0  0  0  0  0  0  0  0
   39.5680   31.4210   40.7800 H   0  0  0  0  0  0  0  0  0  0  0  0
   40.0390   36.1580   39.7750 H   0  0  0  0  0  0  0  0  0  0  0  0
  1  2  2  0  0  0  0
  3  1  1  0  0  0  0
  3  8  1  0  0  0  0
  4 10  1  0  0  0  0
  4  3  1  0  0  0  0
  5  6  1  0  0  0  0
  5  4  1  0  0  0  0
  5 11  1  0  0  0  0
  6  7  1  0  0  0  0
  7 14  1  0  0  0  0
  7 15  1  0  0  0  0
  7  8  1  0  0  0  0
  8 16  1  1  0  0  0
  8 18  1  0  0  0  0
  9  4  1  0  0  0  0
 12  5  1  0  0  0  0
 13  6  1  0  0  0  0
 17 28  1  0  0  0  0
 18 17  2  0  0  0  0
 18 19  1  0  0  0  0
 19 21  2  0  0  0  0
 20 19  1  0  0  0  0
 21 27  1  0  0  0  0
 21 22  1  0  0  0  0
 22 23  1  0  0  0  0
 22 24  1  0  0  0  0
 24 25  1  0  0  0  0
 26 24  2  0  0  0  0
 27 26  1  0  0  0  0
 28 27  2  0  0  0  0
 29  1  1  0  0  0  0
 31 30  2  6  0  0  0
 31 29  1  0  0  0  0
 31 34  1  0  0  0  0
 32 33  1  0  0  0  0
 32 31  1  0  0  0  0
 34 37  1  0  0  0  0
 35 41  1  0  0  0  0
 36 42  1  0  0  0  0
 36 35  2  0  0  0  0
 37 36  1  0  0  0  0
 38 37  2  0  0  0  0
 38 39  1  0  0  0  0
 39 40  2  0  0  0  0
 40 35  1  0  0  0  0
 43 39  1  0  0  0  0
M  END
>  <minimizedAffinity>
-6.50884247

$$$$

 OpenBabel03242522553D

 43 46  0  0  1  0  0  0  0  0999 V2000
   40.0400   31.3350   41.9560 C   0  0  0  0  0  0  0  0  0  0  0  0
   38.8940   30.8200   41.7540 O   0  0  0  0  0  0  0  0  0  0  0  0
   39.7360   32.3610   41.0230 N   0  0  0  0  0  0  0  0  0  0  0  0
   40.9650   32.8010   40.3900 C   0  0  0  0  0  0  0  0  0  0  0  0
   40.5810   33.9620   39.4910 C   0  0  0  0  0  0  0  0  0  0  0  0
   39.6450   34.8480   40.1940 N   0  0  0  0  0  0  0  0  0  0  0  0
   38.3680   34.1990   40.0890 C   0  0  0  0  0  0  0  0  0  0  0  0
   38.4050   32.8840   40.7500 C   0  0  1  0  0  0  0  0  0  0  0  0
   41.6270   33.1940   41.1780 H   0  0  0  0  0  0  0  0  0  0  0  0
   41.4410   32.0150   39.7770 H   0  0  0  0  0  0  0  0  0  0  0  0
   40.1740   33.6200   38.5330 H   0  0  0  0  0  0  0  0  0  0  0  0
   41.5080   34.5300   39.2670 H   0  0  0  0  0  0  0  0  0  0  0  0
   39.6710   35.7890   39.7790 H   0  0  0  0  0  0  0  0  0  0  0  0
   37.6050   34.8630   40.5480 H   0  0  0  0  0  0  0  0  0  0  0  0
   38.0670   34.1330   39.0050 H   0  0  0  0  0  0  0  0  0  0  0  0
   37.9040   32.9100   41.7610 H   0  0  0  0  0  0  0  0  0  0  0  0
   37.8730   31.6910   38.5880 C   0  0  0  0  0  3  0  0  0  0  0  0
   37.6120   31.9190   39.9430 C   0  0  0  0  0  0  0  0  0  0  0  0
   36.5600   31.1930   40.5130 C   0  0  0  0  0  0  0  0  0  0  0  0
   36.3930   31.4040   41.5690 H   0  0  0  0  0  0  0  0  0  0  0  0
   35.8090   30.2930   39.7890 C   0  0  0  0  0  0  0  0  0  0  0  0
   34.7700   29.5320   40.2230 N   0  0  0  0  0  0  0  0  0  0  0  0
   34.3800   29.5160   41.1880 H   0  0  0  0  0  0  0  0  0  0  0  0
   34.3700   28.8170   39.1410 C   0  0  0  0  0  0  0  0  0  0  0  0
   33.5550   28.1160   39.1710 H   0  0  0  0  0  0  0  0  0  0  0  0
   35.1600   29.1340   38.0320 C   0  0  0  0  0  3  0  0  0  0  0  0
   36.0720   30.0720   38.4540 C   0  0  0  0  0  0  0  0  0  0  0  0
   37.1070   30.7840   37.8840 C   0  0  0  0  0  3  0  0  0  0  0  0
   40.7950   30.6500   42.8620 O   0  0  0  0  0  0  0  0  0  0  0  0
   42.0810   28.9850   41.2690 O   0  0  0  0  0  0  0  0  0  0  0  0
   41.6160   29.2250   42.7270 P   0  0  1  0  0  0  0  0  0  0  0  0
   43.0310   29.2230   43.6430 O   0  0  0  0  0  0  0  0  0  0  0  0
   42.9620   28.5320   44.3300 H   0  0  0  0  0  0  0  0  0  0  0  0
   40.6270   27.9270   43.1590 O   0  0  0  0  0  0  0  0  0  0  0  0
   37.0030   27.8120   43.1030 C   0  0  0  0  0  0  0  0  0  0  0  0
   38.3450   27.9530   43.5430 C   0  0  0  0  0  0  0  0  0  0  0  0
   39.3640   27.7730   42.6530 C   0  0  0  0  0  0  0  0  0  0  0  0
   39.0680   27.4610   41.3590 N   0  0  0  0  0  0  0  0  0  0  0  0
   37.7920   27.3310   40.9580 C   0  0  0  0  0  0  0  0  0  0  0  0
   36.7600   27.5020   41.8080 N   0  0  0  0  0  0  0  0  0  0  0  0
   36.1440   27.9380   43.7400 H   0  0  0  0  0  0  0  0  0  0  0  0
   38.3690   28.2000   44.5920 H   0  0  0  0  0  0  0  0  0  0  0  0
   37.6010   27.0830   39.9180 H   0  0  0  0  0  0  0  0  0  0  0  0
  1 29  1  0  0  0  0
  2  1  2  0  0  0  0
  3  1  1  0  0  0  0
  4  3  1  0  0  0  0
  4  9  1  0  0  0  0
  5  6  1  0  0  0  0
  5  4  1  0  0  0  0
  7  6  1  0  0  0  0
  7 14  1  0  0  0  0
  7  8  1  0  0  0  0
  8  3  1  0  0  0  0
  8 16  1  1  0  0  0
 10  4  1  0  0  0  0
 11  5  1  0  0  0  0
 12  5  1  0  0  0  0
 13  6  1  0  0  0  0
 15  7  1  0  0  0  0
 17 18  1  0  0  0  0
 18 19  2  0  0  0  0
 18  8  1  0  0  0  0
 19 20  1  0  0  0  0
 21 22  1  0  0  0  0
 21 19  1  0  0  0  0
 22 23  1  0  0  0  0
 24 25  1  0  0  0  0
 24 22  1  0  0  0  0
 26 27  1  0  0  0  0
 26 24  2  0  0  0  0
 27 21  2  0  0  0  0
 28 27  1  0  0  0  0
 28 17  2  0  0  0  0
 31 30  2  6  0  0  0
 31 29  1  0  0  0  0
 31 34  1  0  0  0  0
 31 32  1  0  0  0  0
 32 33  1  0  0  0  0
 35 36  1  0  0  0  0
 35 41  1  0  0  0  0
 36 42  1  0  0  0  0
 37 34  1  0  0  0  0
 37 36  2  0  0  0  0
 38 37  1  0  0  0  0
 39 38  2  0  0  0  0
 39 40  1  0  0  0  0
 40 35  2  0  0  0  0
 43 39  1  0  0  0  0
M  END
>  <minimizedAffinity>
-6.37331867

$$$$

 OpenBabel03242522553D

 43 46  0  0  1  0  0  0  0  0999 V2000
   38.2230   30.8490   40.5960 C   0  0  0  0  0  0  0  0  0  0  0  0
   38.1670   30.7960   39.3260 O   0  0  0  0  0  0  0  0  0  0  0  0
   37.7420   29.5150   40.6670 N   0  0  0  0  0  0  0  0  0  0  0  0
   36.9850   29.3510   41.8930 C   0  0  0  0  0  0  0  0  0  0  0  0
   36.5960   27.8850   41.9530 C   0  0  0  0  0  0  0  0  0  0  0  0
   37.7380   27.0500   41.5640 N   0  0  0  0  0  0  0  0  0  0  0  0
   37.7640   27.1000   40.1280 C   0  0  0  0  0  0  0  0  0  0  0  0
   37.9740   28.4820   39.6670 C   0  0  1  0  0  0  0  0  0  0  0  0
   37.6660   29.5500   42.7370 H   0  0  0  0  0  0  0  0  0  0  0  0
   36.0690   29.9680   41.9220 H   0  0  0  0  0  0  0  0  0  0  0  0
   35.7100   27.6730   41.3430 H   0  0  0  0  0  0  0  0  0  0  0  0
   36.3290   27.6550   43.0050 H   0  0  0  0  0  0  0  0  0  0  0  0
   37.6280   26.1020   41.9470 H   0  0  0  0  0  0  0  0  0  0  0  0
   38.5710   26.4260   39.7750 H   0  0  0  0  0  0  0  0  0  0  0  0
   36.8170   26.6430   39.7190 H   0  0  0  0  0  0  0  0  0  0  0  0
   39.0370   28.6530   39.3310 H   0  0  0  0  0  0  0  0  0  0  0  0
   35.7690   28.9910   38.5430 C   0  0  0  0  0  3  0  0  0  0  0  0
   37.1390   28.7160   38.4590 C   0  0  0  0  0  0  0  0  0  0  0  0
   37.6950   28.6720   37.1760 C   0  0  0  0  0  0  0  0  0  0  0  0
   38.7630   28.4550   37.1600 H   0  0  0  0  0  0  0  0  0  0  0  0
   36.9450   28.8860   36.0400 C   0  0  0  0  0  0  0  0  0  0  0  0
   37.3640   28.8690   34.7470 N   0  0  0  0  0  0  0  0  0  0  0  0
   38.3340   28.6900   34.4170 H   0  0  0  0  0  0  0  0  0  0  0  0
   36.2570   29.1350   34.0070 C   0  0  0  0  0  0  0  0  0  0  0  0
   36.2700   29.1900   32.9330 H   0  0  0  0  0  0  0  0  0  0  0  0
   35.1490   29.3150   34.8390 C   0  0  0  0  0  3  0  0  0  0  0  0
   35.5960   29.1560   36.1300 C   0  0  0  0  0  0  0  0  0  0  0  0
   35.0400   29.2020   37.3910 C   0  0  0  0  0  3  0  0  0  0  0  0
   38.6700   32.0460   41.0740 O   0  0  0  0  0  0  0  0  0  0  0  0
   37.3390   33.8650   39.7010 O   0  0  0  0  0  0  0  0  0  0  0  0
   38.6930   33.5440   40.3820 P   0  0  1  0  0  0  0  0  0  0  0  0
   38.9060   34.7630   41.5270 O   0  0  0  0  0  0  0  0  0  0  0  0
   39.7480   35.2230   41.3450 H   0  0  0  0  0  0  0  0  0  0  0  0
   39.8880   33.6300   39.1930 O   0  0  0  0  0  0  0  0  0  0  0  0
   43.4500   34.0540   38.6630 C   0  0  0  0  0  0  0  0  0  0  0  0
   42.0580   33.8940   38.4350 C   0  0  0  0  0  0  0  0  0  0  0  0
   41.2130   33.7800   39.5010 C   0  0  0  0  0  0  0  0  0  0  0  0
   41.7280   33.8240   40.7630 N   0  0  0  0  0  0  0  0  0  0  0  0
   43.0480   33.9760   40.9630 C   0  0  0  0  0  0  0  0  0  0  0  0
   43.9120   34.0910   39.9340 N   0  0  0  0  0  0  0  0  0  0  0  0
   44.1810   34.1500   37.8790 H   0  0  0  0  0  0  0  0  0  0  0  0
   41.8530   33.8840   37.3770 H   0  0  0  0  0  0  0  0  0  0  0  0
   43.4150   34.0060   41.9830 H   0  0  0  0  0  0  0  0  0  0  0  0
  1  3  1  0  0  0  0
  1 29  1  0  0  0  0
  2  1  2  0  0  0  0
  3  4  1  0  0  0  0
  4 10  1  0  0  0  0
  4  5  1  0  0  0  0
  4  9  1  0  0  0  0
  5 12  1  0  0  0  0
  6 13  1  0  0  0  0
  6  5  1  0  0  0  0
  7  6  1  0  0  0  0
  8 16  1  6  0  0  0
  8  7  1  0  0  0  0
  8  3  1  0  0  0  0
 11  5  1  0  0  0  0
 14  7  1  0  0  0  0
 15  7  1  0  0  0  0
 18 17  1  0  0  0  0
 18  8  1  0  0  0  0
 19 18  2  0  0  0  0
 20 19  1  0  0  0  0
 21 27  2  0  0  0  0
 21 19  1  0  0  0  0
 22 21  1  0  0  0  0
 23 22  1  0  0  0  0
 24 22  1  0  0  0  0
 24 26  2  0  0  0  0
 25 24  1  0  0  0  0
 26 27  1  0  0  0  0
 27 28  1  0  0  0  0
 28 17  2  0  0  0  0
 31 30  2  6  0  0  0
 31 29  1  0  0  0  0
 31 32  1  0  0  0  0
 33 32  1  0  0  0  0
 34 37  1  0  0  0  0
 34 31  1  0  0  0  0
 35 40  1  0  0  0  0
 36 35  2  0  0  0  0
 36 37  1  0  0  0  0
 37 38  2  0  0  0  0
 38 39  1  0  0  0  0
 39 43  1  0  0  0  0
 40 39  2  0  0  0  0
 41 35  1  0  0  0  0
 42 36  1  0  0  0  0
M  END
>  <minimizedAffinity>
-6.35124207

$$$$

 OpenBabel03242522553D

 43 46  0  0  1  0  0  0  0  0999 V2000
   37.3690   30.0150   40.3020 C   0  0  0  0  0  0  0  0  0  0  0  0
   38.3760   30.6410   40.7630 O   0  0  0  0  0  0  0  0  0  0  0  0
   37.4300   29.1190   41.4020 N   0  0  0  0  0  0  0  0  0  0  0  0
   36.9320   27.8230   40.9830 C   0  0  0  0  0  0  0  0  0  0  0  0
   36.9260   26.9530   42.2270 C   0  0  0  0  0  0  0  0  0  0  0  0
   36.4020   27.7170   43.3660 N   0  0  0  0  0  0  0  0  0  0  0  0
   37.5000   28.5320   43.8050 C   0  0  0  0  0  0  0  0  0  0  0  0
   37.9150   29.4530   42.7340 C   0  0  1  0  0  0  0  0  0  0  0  0
   35.8850   27.9540   40.6630 H   0  0  0  0  0  0  0  0  0  0  0  0
   37.5630   27.3450   40.2140 H   0  0  0  0  0  0  0  0  0  0  0  0
   37.9170   26.5370   42.4390 H   0  0  0  0  0  0  0  0  0  0  0  0
   36.2480   26.0970   42.0310 H   0  0  0  0  0  0  0  0  0  0  0  0
   36.0440   27.0750   44.0860 H   0  0  0  0  0  0  0  0  0  0  0  0
   37.1780   29.0840   44.7130 H   0  0  0  0  0  0  0  0  0  0  0  0
   38.3410   27.8710   44.1610 H   0  0  0  0  0  0  0  0  0  0  0  0
   37.5370   30.5010   42.9140 H   0  0  0  0  0  0  0  0  0  0  0  0
   40.2290   28.4460   42.6160 C   0  0  0  0  0  3  0  0  0  0  0  0
   39.3980   29.5640   42.7460 C   0  0  0  0  0  0  0  0  0  0  0  0
   40.0290   30.8050   42.8870 C   0  0  0  0  0  0  0  0  0  0  0  0
   39.3420   31.6460   42.9850 H   0  0  0  0  0  0  0  0  0  0  0  0
   41.4000   30.9370   42.9010 C   0  0  0  0  0  0  0  0  0  0  0  0
   42.1280   32.0770   43.0310 N   0  0  0  0  0  0  0  0  0  0  0  0
   41.7490   33.0400   43.1420 H   0  0  0  0  0  0  0  0  0  0  0  0
   43.4270   31.6820   42.9850 C   0  0  0  0  0  0  0  0  0  0  0  0
   44.2510   32.3690   43.0620 H   0  0  0  0  0  0  0  0  0  0  0  0
   43.5060   30.2960   42.8250 C   0  0  0  0  0  3  0  0  0  0  0  0
   42.2130   29.8310   42.7730 C   0  0  0  0  0  0  0  0  0  0  0  0
   41.6000   28.6040   42.6320 C   0  0  0  0  0  3  0  0  0  0  0  0
   36.8870   30.5370   39.1370 O   0  0  0  0  0  0  0  0  0  0  0  0
   37.1630   30.8030   36.5260 O   0  0  0  0  0  0  0  0  0  0  0  0
   37.6570   31.3150   37.9030 P   0  0  1  0  0  0  0  0  0  0  0  0
   37.3290   32.9670   37.8980 O   0  0  0  0  0  0  0  0  0  0  0  0
   38.1610   33.4560   38.0490 H   0  0  0  0  0  0  0  0  0  0  0  0
   39.3210   31.0390   37.9750 O   0  0  0  0  0  0  0  0  0  0  0  0
   42.2210   33.0900   37.2430 C   0  0  0  0  0  0  0  0  0  0  0  0
   41.2400   32.0660   37.1870 C   0  0  0  0  0  0  0  0  0  0  0  0
   40.2240   32.0600   38.1000 C   0  0  0  0  0  0  0  0  0  0  0  0
   40.1760   33.0420   39.0460 N   0  0  0  0  0  0  0  0  0  0  0  0
   41.1140   34.0050   39.0860 C   0  0  0  0  0  0  0  0  0  0  0  0
   42.1300   34.0420   38.2020 N   0  0  0  0  0  0  0  0  0  0  0  0
   43.0520   33.1660   36.5630 H   0  0  0  0  0  0  0  0  0  0  0  0
   41.4510   31.3910   36.3750 H   0  0  0  0  0  0  0  0  0  0  0  0
   41.0370   34.7660   39.8550 H   0  0  0  0  0  0  0  0  0  0  0  0
  1  2  2  0  0  0  0
  1  3  1  0  0  0  0
  3  8  1  0  0  0  0
  4  3  1  0  0  0  0
  4  5  1  0  0  0  0
  5 11  1  0  0  0  0
  5  6  1  0  0  0  0
  6  7  1  0  0  0  0
  6 13  1  0  0  0  0
  7 15  1  0  0  0  0
  7 14  1  0  0  0  0
  8 18  1  0  0  0  0
  8 16  1  1  0  0  0
  8  7  1  0  0  0  0
  9  4  1  0  0  0  0
 10  4  1  0  0  0  0
 12  5  1  0  0  0  0
 17 28  2  0  0  0  0
 17 18  1  0  0  0  0
 18 19  2  0  0  0  0
 19 21  1  0  0  0  0
 19 20  1  0  0  0  0
 21 22  1  0  0  0  0
 22 23  1  0  0  0  0
 24 22  1  0  0  0  0
 24 25  1  0  0  0  0
 26 24  2  0  0  0  0
 27 26  1  0  0  0  0
 27 21  2  0  0  0  0
 28 27  1  0  0  0  0
 29  1  1  0  0  0  0
 31 30  2  6  0  0  0
 31 34  1  0  0  0  0
 31 29  1  0  0  0  0
 32 31  1  0  0  0  0
 32 33  1  0  0  0  0
 34 37  1  0  0  0  0
 35 40  1  0  0  0  0
 36 35  2  0  0  0  0
 36 37  1  0  0  0  0
 37 38  2  0  0  0  0
 38 39  1  0  0  0  0
 39 43  1  0  0  0  0
 40 39  2  0  0  0  0
 41 35  1  0  0  0  0
 42 36  1  0  0  0  0
M  END
>  <minimizedAffinity>
-6.34705496

$$$$

 OpenBabel03242522553D

 43 46  0  0  1  0  0  0  0  0999 V2000
   38.3980   29.6800   42.1110 C   0  0  0  0  0  0  0  0  0  0  0  0
   37.4260   29.1620   41.4740 O   0  0  0  0  0  0  0  0  0  0  0  0
   38.3340   30.8210   41.2670 N   0  0  0  0  0  0  0  0  0  0  0  0
   39.6620   31.3900   41.1430 C   0  0  0  0  0  0  0  0  0  0  0  0
   39.5010   32.6560   40.3210 C   0  0  0  0  0  0  0  0  0  0  0  0
   38.3190   33.3980   40.7760 N   0  0  0  0  0  0  0  0  0  0  0  0
   37.2020   32.7280   40.1690 C   0  0  0  0  0  0  0  0  0  0  0  0
   37.1270   31.3330   40.6330 C   0  0  1  0  0  0  0  0  0  0  0  0
   39.9960   31.6860   42.1500 H   0  0  0  0  0  0  0  0  0  0  0  0
   40.3740   30.7180   40.6310 H   0  0  0  0  0  0  0  0  0  0  0  0
   39.4580   32.4430   39.2470 H   0  0  0  0  0  0  0  0  0  0  0  0
   40.4010   33.2810   40.4940 H   0  0  0  0  0  0  0  0  0  0  0  0
   38.4030   34.3890   40.5160 H   0  0  0  0  0  0  0  0  0  0  0  0
   36.2810   33.2910   40.4260 H   0  0  0  0  0  0  0  0  0  0  0  0
   37.2790   32.8100   39.0470 H   0  0  0  0  0  0  0  0  0  0  0  0
   36.3230   31.1940   41.4120 H   0  0  0  0  0  0  0  0  0  0  0  0
   35.4860   29.8120   39.4600 C   0  0  0  0  0  3  0  0  0  0  0  0
   36.7210   30.4690   39.4920 C   0  0  0  0  0  0  0  0  0  0  0  0
   37.5660   30.2780   38.3930 C   0  0  0  0  0  0  0  0  0  0  0  0
   38.5150   30.8090   38.4630 H   0  0  0  0  0  0  0  0  0  0  0  0
   37.2150   29.4840   37.3240 C   0  0  0  0  0  0  0  0  0  0  0  0
   37.9410   29.2200   36.2060 N   0  0  0  0  0  0  0  0  0  0  0  0
   38.8900   29.5870   35.9870 H   0  0  0  0  0  0  0  0  0  0  0  0
   37.1650   28.3920   35.4600 C   0  0  0  0  0  0  0  0  0  0  0  0
   37.4720   28.0050   34.5040 H   0  0  0  0  0  0  0  0  0  0  0  0
   35.9560   28.1410   36.1140 C   0  0  0  0  0  3  0  0  0  0  0  0
   35.9970   28.8400   37.2980 C   0  0  0  0  0  0  0  0  0  0  0  0
   35.1580   29.0230   38.3770 C   0  0  0  0  0  3  0  0  0  0  0  0
   38.8680   28.8970   43.1240 O   0  0  0  0  0  0  0  0  0  0  0  0
   41.3870   28.1200   43.2370 O   0  0  0  0  0  0  0  0  0  0  0  0
   39.9230   27.6290   43.1070 P   0  0  1  0  0  0  0  0  0  0  0  0
   39.6900   26.5980   44.4200 O   0  0  0  0  0  0  0  0  0  0  0  0
   39.4210   25.7200   44.0880 H   0  0  0  0  0  0  0  0  0  0  0  0
   39.8040   26.7780   41.6540 O   0  0  0  0  0  0  0  0  0  0  0  0
   38.6080   23.5590   40.4890 C   0  0  0  0  0  0  0  0  0  0  0  0
   39.4200   24.7040   40.7020 C   0  0  0  0  0  0  0  0  0  0  0  0
   38.9600   25.7110   41.5010 C   0  0  0  0  0  0  0  0  0  0  0  0
   37.7300   25.5920   42.0780 N   0  0  0  0  0  0  0  0  0  0  0  0
   36.9730   24.5020   41.8660 C   0  0  0  0  0  0  0  0  0  0  0  0
   37.3940   23.4880   41.0830 N   0  0  0  0  0  0  0  0  0  0  0  0
   38.8950   22.7230   39.8740 H   0  0  0  0  0  0  0  0  0  0  0  0
   40.3480   24.6080   40.1640 H   0  0  0  0  0  0  0  0  0  0  0  0
   36.0010   24.4480   42.3450 H   0  0  0  0  0  0  0  0  0  0  0  0
  1 29  1  0  0  0  0
  2  1  2  0  0  0  0
  3  1  1  0  0  0  0
  4  3  1  0  0  0  0
  4  9  1  0  0  0  0
  5 12  1  0  0  0  0
  5  6  1  0  0  0  0
  5  4  1  0  0  0  0
  7 14  1  0  0  0  0
  7  8  1  0  0  0  0
  7  6  1  0  0  0  0
  8  3  1  0  0  0  0
  8 16  1  1  0  0  0
 10  4  1  0  0  0  0
 11  5  1  0  0  0  0
 13  6  1  0  0  0  0
 15  7  1  0  0  0  0
 17 18  1  0  0  0  0
 18  8  1  0  0  0  0
 19 20  1  0  0  0  0
 19 18  2  0  0  0  0
 21 19  1  0  0  0  0
 22 21  1  0  0  0  0
 23 22  1  0  0  0  0
 24 26  2  0  0  0  0
 24 22  1  0  0  0  0
 25 24  1  0  0  0  0
 26 27  1  0  0  0  0
 27 21  2  0  0  0  0
 27 28  1  0  0  0  0
 28 17  2  0  0  0  0
 31 29  1  0  0  0  0
 31 30  2  1  0  0  0
 31 32  1  0  0  0  0
 33 32  1  0  0  0  0
 34 31  1  0  0  0  0
 35 36  2  0  0  0  0
 35 40  1  0  0  0  0
 36 37  1  0  0  0  0
 37 34  1  0  0  0  0
 37 38  2  0  0  0  0
 39 38  1  0  0  0  0
 39 43  1  0  0  0  0
 40 39  2  0  0  0  0
 41 35  1  0  0  0  0
 42 36  1  0  0  0  0
M  END
>  <minimizedAffinity>
-6.25956488

$$$$

 OpenBabel03242522553D

 43 46  0  0  1  0  0  0  0  0999 V2000
   37.8320   30.0300   41.9080 C   0  0  0  0  0  0  0  0  0  0  0  0
   37.2350   29.4260   40.9600 O   0  0  0  0  0  0  0  0  0  0  0  0
   38.0140   31.1580   41.0660 N   0  0  0  0  0  0  0  0  0  0  0  0
   39.2320   31.8430   41.4520 C   0  0  0  0  0  0  0  0  0  0  0  0
   39.3060   33.0890   40.5870 C   0  0  0  0  0  0  0  0  0  0  0  0
   37.9840   33.7230   40.5140 N   0  0  0  0  0  0  0  0  0  0  0  0
   37.2560   32.9560   39.5420 C   0  0  0  0  0  0  0  0  0  0  0  0
   37.1180   31.5600   39.9910 C   0  0  1  0  0  0  0  0  0  0  0  0
   39.1170   32.1700   42.4980 H   0  0  0  0  0  0  0  0  0  0  0  0
   40.1400   31.2370   41.2850 H   0  0  0  0  0  0  0  0  0  0  0  0
   39.7070   32.8710   39.5910 H   0  0  0  0  0  0  0  0  0  0  0  0
   40.0110   33.7920   41.0760 H   0  0  0  0  0  0  0  0  0  0  0  0
   38.0830   34.7180   40.2720 H   0  0  0  0  0  0  0  0  0  0  0  0
   36.2660   33.4350   39.3960 H   0  0  0  0  0  0  0  0  0  0  0  0
   37.7610   33.0420   38.5390 H   0  0  0  0  0  0  0  0  0  0  0  0
   36.0850   31.3510   40.3960 H   0  0  0  0  0  0  0  0  0  0  0  0
   38.5180   30.3210   38.2920 C   0  0  0  0  0  3  0  0  0  0  0  0
   37.2660   30.6620   38.8140 C   0  0  0  0  0  0  0  0  0  0  0  0
   36.1460   30.1150   38.1770 C   0  0  0  0  0  0  0  0  0  0  0  0
   35.1940   30.4090   38.6180 H   0  0  0  0  0  0  0  0  0  0  0  0
   36.2540   29.2810   37.0860 C   0  0  0  0  0  0  0  0  0  0  0  0
   35.2520   28.6900   36.3830 N   0  0  0  0  0  0  0  0  0  0  0  0
   34.2320   28.7830   36.5700 H   0  0  0  0  0  0  0  0  0  0  0  0
   35.8690   27.9720   35.4110 C   0  0  0  0  0  0  0  0  0  0  0  0
   35.3320   27.3860   34.6850 H   0  0  0  0  0  0  0  0  0  0  0  0
   37.2550   28.1150   35.5080 C   0  0  0  0  0  3  0  0  0  0  0  0
   37.4910   28.9490   36.5760 C   0  0  0  0  0  0  0  0  0  0  0  0
   38.6000   29.4830   37.1990 C   0  0  0  0  0  3  0  0  0  0  0  0
   37.9270   29.2930   43.0520 O   0  0  0  0  0  0  0  0  0  0  0  0
   36.3030   27.4470   44.0120 O   0  0  0  0  0  0  0  0  0  0  0  0
   37.6710   27.6860   43.3250 P   0  0  1  0  0  0  0  0  0  0  0  0
   37.5990   26.8060   41.8900 O   0  0  0  0  0  0  0  0  0  0  0  0
   38.3370   26.1670   41.8730 H   0  0  0  0  0  0  0  0  0  0  0  0
   38.8630   27.0610   44.3460 O   0  0  0  0  0  0  0  0  0  0  0  0
   42.3620   26.2180   43.9080 C   0  0  0  0  0  0  0  0  0  0  0  0
   41.1660   26.8390   44.3530 C   0  0  0  0  0  0  0  0  0  0  0  0
   39.9660   26.4090   43.8640 C   0  0  0  0  0  0  0  0  0  0  0  0
   39.9450   25.3900   42.9580 N   0  0  0  0  0  0  0  0  0  0  0  0
   41.0860   24.8120   42.5460 C   0  0  0  0  0  0  0  0  0  0  0  0
   42.2890   25.2100   43.0070 N   0  0  0  0  0  0  0  0  0  0  0  0
   43.3470   26.4960   44.2430 H   0  0  0  0  0  0  0  0  0  0  0  0
   41.3930   27.6160   45.0640 H   0  0  0  0  0  0  0  0  0  0  0  0
   41.0230   24.0040   41.8250 H   0  0  0  0  0  0  0  0  0  0  0  0
  1 29  1  0  0  0  0
  2  1  2  0  0  0  0
  3  4  1  0  0  0  0
  3  1  1  0  0  0  0
  4  9  1  0  0  0  0
  5 12  1  0  0  0  0
  5  4  1  0  0  0  0
  6  5  1  0  0  0  0
  7  8  1  0  0  0  0
  7  6  1  0  0  0  0
  8 16  1  1  0  0  0
  8  3  1  0  0  0  0
 10  4  1  0  0  0  0
 11  5  1  0  0  0  0
 13  6  1  0  0  0  0
 14  7  1  0  0  0  0
 15  7  1  0  0  0  0
 17 18  1  0  0  0  0
 18  8  1  0  0  0  0
 19 20  1  0  0  0  0
 19 18  2  0  0  0  0
 21 19  1  0  0  0  0
 22 23  1  0  0  0  0
 22 21  1  0  0  0  0
 24 26  2  0  0  0  0
 24 22  1  0  0  0  0
 25 24  1  0  0  0  0
 26 27  1  0  0  0  0
 27 21  2  0  0  0  0
 27 28  1  0  0  0  0
 28 17  2  0  0  0  0
 29 31  1  0  0  0  0
 31 30  2  1  0  0  0
 31 34  1  0  0  0  0
 32 31  1  0  0  0  0
 33 32  1  0  0  0  0
 35 41  1  0  0  0  0
 35 36  1  0  0  0  0
 36 42  1  0  0  0  0
 37 34  1  0  0  0  0
 37 36  2  0  0  0  0
 38 37  1  0  0  0  0
 39 38  2  0  0  0  0
 39 40  1  0  0  0  0
 40 35  2  0  0  0  0
 43 39  1  0  0  0  0
M  END
>  <minimizedAffinity>
-6.254004

$$$$

 OpenBabel03242522553D

 43 46  0  0  1  0  0  0  0  0999 V2000
   38.0570   31.3800   39.7870 C   0  0  0  0  0  0  0  0  0  0  0  0
   38.3260   30.9930   40.9700 O   0  0  0  0  0  0  0  0  0  0  0  0
   37.1290   30.3140   39.6570 N   0  0  0  0  0  0  0  0  0  0  0  0
   37.0660   29.9110   38.2660 C   0  0  0  0  0  0  0  0  0  0  0  0
   35.9840   28.8490   38.1840 C   0  0  0  0  0  0  0  0  0  0  0  0
   34.8230   29.2580   38.9840 N   0  0  0  0  0  0  0  0  0  0  0  0
   35.1790   28.9520   40.3410 C   0  0  0  0  0  0  0  0  0  0  0  0
   36.3640   29.7240   40.7470 C   0  0  1  0  0  0  0  0  0  0  0  0
   36.7250   30.7790   37.6790 H   0  0  0  0  0  0  0  0  0  0  0  0
   38.0150   29.4850   37.8960 H   0  0  0  0  0  0  0  0  0  0  0  0
   36.3560   27.8630   38.4840 H   0  0  0  0  0  0  0  0  0  0  0  0
   35.6740   28.7710   37.1220 H   0  0  0  0  0  0  0  0  0  0  0  0
   33.9780   28.7740   38.6530 H   0  0  0  0  0  0  0  0  0  0  0  0
   34.3050   29.1800   40.9860 H   0  0  0  0  0  0  0  0  0  0  0  0
   35.3260   27.8390   40.4490 H   0  0  0  0  0  0  0  0  0  0  0  0
   36.0880   30.6030   41.4000 H   0  0  0  0  0  0  0  0  0  0  0  0
   37.3120   29.0280   42.9830 C   0  0  0  0  0  3  0  0  0  0  0  0
   37.2300   28.8630   41.5960 C   0  0  0  0  0  0  0  0  0  0  0  0
   38.0050   27.8410   41.0360 C   0  0  0  0  0  0  0  0  0  0  0  0
   37.9090   27.7500   39.9540 H   0  0  0  0  0  0  0  0  0  0  0  0
   38.8150   27.0280   41.7990 C   0  0  0  0  0  0  0  0  0  0  0  0
   39.6100   26.0100   41.3780 N   0  0  0  0  0  0  0  0  0  0  0  0
   39.7260   25.6860   40.3960 H   0  0  0  0  0  0  0  0  0  0  0  0
   40.1990   25.5250   42.5010 C   0  0  0  0  0  0  0  0  0  0  0  0
   40.8930   24.7040   42.4910 H   0  0  0  0  0  0  0  0  0  0  0  0
   39.7710   26.2430   43.6210 C   0  0  0  0  0  3  0  0  0  0  0  0
   38.8910   27.1960   43.1650 C   0  0  0  0  0  0  0  0  0  0  0  0
   38.1300   28.2010   43.7250 C   0  0  0  0  0  3  0  0  0  0  0  0
   38.7610   32.4820   39.3990 O   0  0  0  0  0  0  0  0  0  0  0  0
   38.7260   34.5390   41.0520 O   0  0  0  0  0  0  0  0  0  0  0  0
   39.6460   33.5630   40.2780 P   0  0  1  0  0  0  0  0  0  0  0  0
   40.5730   32.8020   41.4620 O   0  0  0  0  0  0  0  0  0  0  0  0
   41.5180   32.9560   41.2710 H   0  0  0  0  0  0  0  0  0  0  0  0
   40.6250   34.4910   39.2620 O   0  0  0  0  0  0  0  0  0  0  0  0
   43.7830   33.8200   37.6130 C   0  0  0  0  0  0  0  0  0  0  0  0
   42.4060   34.0720   37.8460 C   0  0  0  0  0  0  0  0  0  0  0  0
   41.9660   34.2540   39.1260 C   0  0  0  0  0  0  0  0  0  0  0  0
   42.8620   34.1920   40.1520 N   0  0  0  0  0  0  0  0  0  0  0  0
   44.1640   33.9530   39.9140 C   0  0  0  0  0  0  0  0  0  0  0  0
   44.6340   33.7680   38.6650 N   0  0  0  0  0  0  0  0  0  0  0  0
   44.2110   33.6660   36.6370 H   0  0  0  0  0  0  0  0  0  0  0  0
   41.8660   34.0820   36.9140 H   0  0  0  0  0  0  0  0  0  0  0  0
   44.8430   33.9130   40.7600 H   0  0  0  0  0  0  0  0  0  0  0  0
  1  2  2  0  0  0  0
  3  1  1  0  0  0  0
  3  8  1  0  0  0  0
  4  3  1  0  0  0  0
  5  4  1  0  0  0  0
  5 11  1  0  0  0  0
  5  6  1  0  0  0  0
  6  7  1  0  0  0  0
  7 15  1  0  0  0  0
  7  8  1  0  0  0  0
  7 14  1  0  0  0  0
  8 16  1  1  0  0  0
  8 18  1  0  0  0  0
  9  4  1  0  0  0  0
 10  4  1  0  0  0  0
 12  5  1  0  0  0  0
 13  6  1  0  0  0  0
 17 28  1  0  0  0  0
 18 17  2  0  0  0  0
 19 18  1  0  0  0  0
 19 21  2  0  0  0  0
 20 19  1  0  0  0  0
 21 27  1  0  0  0  0
 22 21  1  0  0  0  0
 22 24  1  0  0  0  0
 23 22  1  0  0  0  0
 24 26  2  0  0  0  0
 25 24  1  0  0  0  0
 27 26  1  0  0  0  0
 27 28  2  0  0  0  0
 29  1  1  0  0  0  0
 29 31  1  0  0  0  0
 31 30  2  1  0  0  0
 31 32  1  0  0  0  0
 33 32  1  0  0  0  0
 34 31  1  0  0  0  0
 35 36  2  0  0  0  0
 35 40  1  0  0  0  0
 36 37  1  0  0  0  0
 37 34  1  0  0  0  0
 37 38  2  0  0  0  0
 39 38  1  0  0  0  0
 39 43  1  0  0  0  0
 40 39  2  0  0  0  0
 41 35  1  0  0  0  0
 42 36  1  0  0  0  0
M  END
>  <minimizedAffinity>
-6.17979622

$$$$

 OpenBabel03242522553D

 43 46  0  0  1  0  0  0  0  0999 V2000
   38.2500   28.5190   40.4940 C   0  0  0  0  0  0  0  0  0  0  0  0
   39.0080   29.5410   40.4750 O   0  0  0  0  0  0  0  0  0  0  0  0
   37.5090   29.0570   39.4080 N   0  0  0  0  0  0  0  0  0  0  0  0
   36.1350   28.6040   39.5060 C   0  0  0  0  0  0  0  0  0  0  0  0
   35.4320   29.1250   38.2660 C   0  0  0  0  0  0  0  0  0  0  0  0
   36.2890   28.9320   37.0900 N   0  0  0  0  0  0  0  0  0  0  0  0
   37.2380   30.0090   37.1400 C   0  0  0  0  0  0  0  0  0  0  0  0
   38.0460   29.9230   38.3680 C   0  0  1  0  0  0  0  0  0  0  0  0
   36.1400   27.5030   39.4490 H   0  0  0  0  0  0  0  0  0  0  0  0
   35.6150   28.9880   40.4010 H   0  0  0  0  0  0  0  0  0  0  0  0
   35.1270   30.1710   38.3790 H   0  0  0  0  0  0  0  0  0  0  0  0
   34.5060   28.5280   38.1330 H   0  0  0  0  0  0  0  0  0  0  0  0
   35.7170   28.9190   36.2350 H   0  0  0  0  0  0  0  0  0  0  0  0
   37.8730   29.9520   36.2320 H   0  0  0  0  0  0  0  0  0  0  0  0
   36.6970   30.9930   37.0440 H   0  0  0  0  0  0  0  0  0  0  0  0
   39.0750   29.5060   38.1630 H   0  0  0  0  0  0  0  0  0  0  0  0
   37.2380   32.0800   39.4050 C   0  0  0  0  0  3  0  0  0  0  0  0
   38.2760   31.2970   38.8880 C   0  0  0  0  0  0  0  0  0  0  0  0
   39.5540   31.8680   38.8820 C   0  0  0  0  0  0  0  0  0  0  0  0
   40.3290   31.2220   38.4700 H   0  0  0  0  0  0  0  0  0  0  0  0
   39.7950   33.1380   39.3580 C   0  0  0  0  0  0  0  0  0  0  0  0
   40.9800   33.8010   39.4060 N   0  0  0  0  0  0  0  0  0  0  0  0
   41.9010   33.4380   39.0840 H   0  0  0  0  0  0  0  0  0  0  0  0
   40.6950   35.0090   39.9560 C   0  0  0  0  0  0  0  0  0  0  0  0
   41.4410   35.7660   40.1260 H   0  0  0  0  0  0  0  0  0  0  0  0
   39.3320   35.0980   40.2500 C   0  0  0  0  0  3  0  0  0  0  0  0
   38.7680   33.9040   39.8670 C   0  0  0  0  0  0  0  0  0  0  0  0
   37.5060   33.3490   39.8770 C   0  0  0  0  0  3  0  0  0  0  0  0
   38.5800   27.6120   41.4570 O   0  0  0  0  0  0  0  0  0  0  0  0
   38.8030   26.8930   43.9860 O   0  0  0  0  0  0  0  0  0  0  0  0
   37.7970   27.1750   42.8420 P   0  0  1  0  0  0  0  0  0  0  0  0
   36.8090   28.4090   43.4230 O   0  0  0  0  0  0  0  0  0  0  0  0
   35.8800   28.1060   43.4050 H   0  0  0  0  0  0  0  0  0  0  0  0
   36.9040   25.7630   42.5980 O   0  0  0  0  0  0  0  0  0  0  0  0
   38.3030   23.0490   40.6420 C   0  0  0  0  0  0  0  0  0  0  0  0
   38.0240   23.9440   41.7070 C   0  0  0  0  0  0  0  0  0  0  0  0
   37.1140   24.9450   41.5210 C   0  0  0  0  0  0  0  0  0  0  0  0
   36.4920   25.0600   40.3130 N   0  0  0  0  0  0  0  0  0  0  0  0
   36.7670   24.2040   39.3130 C   0  0  0  0  0  0  0  0  0  0  0  0
   37.6600   23.2050   39.4610 N   0  0  0  0  0  0  0  0  0  0  0  0
   39.0050   22.2360   40.7070 H   0  0  0  0  0  0  0  0  0  0  0  0
   38.6130   23.6880   42.5720 H   0  0  0  0  0  0  0  0  0  0  0  0
   36.2490   24.3310   38.3680 H   0  0  0  0  0  0  0  0  0  0  0  0
  1 29  1  0  0  0  0
  2  1  2  0  0  0  0
  3  4  1  0  0  0  0
  3  1  1  0  0  0  0
  4 10  1  0  0  0  0
  5 11  1  0  0  0  0
  5  4  1  0  0  0  0
  6  7  1  0  0  0  0
  6  5  1  0  0  0  0
  7  8  1  0  0  0  0
  8 16  1  6  0  0  0
  8 18  1  0  0  0  0
  8  3  1  0  0  0  0
  9  4  1  0  0  0  0
 12  5  1  0  0  0  0
 13  6  1  0  0  0  0
 14  7  1  0  0  0  0
 15  7  1  0  0  0  0
 17 28  1  0  0  0  0
 18 17  2  0  0  0  0
 19 18  1  0  0  0  0
 19 21  2  0  0  0  0
 20 19  1  0  0  0  0
 21 22  1  0  0  0  0
 21 27  1  0  0  0  0
 22 24  1  0  0  0  0
 23 22  1  0  0  0  0
 24 25  1  0  0  0  0
 24 26  2  0  0  0  0
 27 28  2  0  0  0  0
 27 26  1  0  0  0  0
 29 31  1  0  0  0  0
 31 32  1  0  0  0  0
 31 30  2  1  0  0  0
 33 32  1  0  0  0  0
 34 31  1  0  0  0  0
 35 41  1  0  0  0  0
 35 36  1  0  0  0  0
 36 42  1  0  0  0  0
 37 36  2  0  0  0  0
 37 34  1  0  0  0  0
 38 37  1  0  0  0  0
 39 40  1  0  0  0  0
 39 38  2  0  0  0  0
 40 35  2  0  0  0  0
 43 39  1  0  0  0  0
M  END
>  <minimizedAffinity>
-6.15051842

$$$$
