
 OpenBabel03252509023D

 48 51  0  0  1  0  0  0  0  0999 V2000
   36.7470   26.2230   40.1780 N   0  0  0  0  0  0  0  0  0  0  0  0
   36.7010   25.0340   39.4040 C   0  0  0  0  0  0  0  0  0  0  0  0
   37.5580   23.9010   39.9130 C   0  0  0  0  0  0  0  0  0  0  0  0
   37.7080   23.8540   41.4110 C   0  0  0  0  0  0  0  0  0  0  0  0
   36.8500   24.8970   42.0850 C   0  0  0  0  0  0  0  0  0  0  0  0
   37.3380   26.2400   41.4300 C   0  0  2  0  0  0  0  0  0  0  0  0
   35.6450   24.6670   39.4590 H   0  0  0  0  0  0  0  0  0  0  0  0
   36.9220   25.1470   38.3410 H   0  0  0  0  0  0  0  0  0  0  0  0
   37.0660   22.9250   39.6240 H   0  0  0  0  0  0  0  0  0  0  0  0
   38.5440   23.8830   39.4000 H   0  0  0  0  0  0  0  0  0  0  0  0
   37.5700   22.8690   41.8600 H   0  0  0  0  0  0  0  0  0  0  0  0
   38.7710   24.1360   41.6290 H   0  0  0  0  0  0  0  0  0  0  0  0
   35.7810   24.7760   41.9000 H   0  0  0  0  0  0  0  0  0  0  0  0
   37.1470   24.9860   43.1450 H   0  0  0  0  0  0  0  0  0  0  0  0
   38.4450   26.2360   41.5000 H   0  0  0  0  0  0  0  0  0  0  0  0
   36.7320   27.4290   39.4030 C   0  0  0  0  0  0  0  0  0  0  0  0
   35.7780   27.4840   38.8490 H   0  0  0  0  0  0  0  0  0  0  0  0
   36.7800   28.2910   40.1110 H   0  0  0  0  0  0  0  0  0  0  0  0
   37.9520   27.4660   38.5410 C   0  0  0  0  0  0  0  0  0  0  0  0
   38.8560   27.0620   39.0230 H   0  0  0  0  0  0  0  0  0  0  0  0
   37.7870   26.8860   37.5990 H   0  0  0  0  0  0  0  0  0  0  0  0
   37.4110   30.8750   37.0480 C   0  0  0  0  0  0  0  0  0  0  0  0
   37.1950   29.5480   37.4630 C   0  0  0  0  0  0  0  0  0  0  0  0
   38.1990   28.8680   38.1080 C   0  0  0  0  0  0  0  0  0  0  0  0
   39.3560   29.5130   38.3140 N   0  0  0  0  0  0  0  0  0  0  0  0
   39.5600   30.7840   37.9140 C   0  0  0  0  0  0  0  0  0  0  0  0
   38.6010   31.4720   37.2830 N   0  0  0  0  0  0  0  0  0  0  0  0
   36.6320   31.4140   36.5440 H   0  0  0  0  0  0  0  0  0  0  0  0
   36.2390   29.0740   37.2720 H   0  0  0  0  0  0  0  0  0  0  0  0
   40.5280   31.2270   38.1220 H   0  0  0  0  0  0  0  0  0  0  0  0
   36.7580   27.1870   42.2620 O   0  0  0  0  0  0  0  0  0  0  0  0
   38.6370   27.0300   44.1390 O   0  0  0  0  0  0  0  0  0  0  0  0
   37.8830   27.9950   43.2130 P   0  0  2  0  0  0  0  0  0  0  0  0
   36.9790   28.9900   44.2740 O   0  0  0  0  0  0  0  0  0  0  0  0
   37.4910   29.1280   45.0900 H   0  0  0  0  0  0  0  0  0  0  0  0
   38.8990   28.9660   42.3280 O   0  0  0  0  0  0  0  0  0  0  0  0
   37.3230   30.3280   41.2330 C   0  0  0  0  0  3  0  0  0  0  0  0
   38.6070   30.1700   41.7520 C   0  0  0  0  0  0  0  0  0  0  0  0
   39.4550   31.2590   41.6280 C   0  0  0  0  0  0  0  0  0  0  0  0
   40.4530   31.1360   42.0330 H   0  0  0  0  0  0  0  0  0  0  0  0
   39.0910   32.4350   41.0360 C   0  0  0  0  0  0  0  0  0  0  0  0
   39.7340   33.5850   40.8150 N   0  0  0  0  0  0  0  0  0  0  0  0
   40.7160   33.8230   41.0710 H   0  0  0  0  0  0  0  0  0  0  0  0
   38.9000   34.4250   40.1870 C   0  0  0  0  0  0  0  0  0  0  0  0
   39.1530   35.4350   39.8810 H   0  0  0  0  0  0  0  0  0  0  0  0
   37.6650   33.8390   39.9770 C   0  0  0  0  0  3  0  0  0  0  0  0
   37.8140   32.5760   40.5250 C   0  0  0  0  0  0  0  0  0  0  0  0
   36.9430   31.5010   40.6360 C   0  0  0  0  0  3  0  0  0  0  0  0
  1  6  1  0  0  0  0
  2  7  1  0  0  0  0
  2  3  1  0  0  0  0
  2  1  1  0  0  0  0
  3  4  1  0  0  0  0
  4 12  1  0  0  0  0
  4 11  1  0  0  0  0
  4  5  1  0  0  0  0
  5 14  1  0  0  0  0
  6 15  1  6  0  0  0
  6  5  1  0  0  0  0
  6 31  1  0  0  0  0
  8  2  1  0  0  0  0
  9  3  1  0  0  0  0
 10  3  1  0  0  0  0
 13  5  1  0  0  0  0
 16 18  1  0  0  0  0
 16  1  1  0  0  0  0
 17 16  1  0  0  0  0
 19 20  1  0  0  0  0
 19 16  1  0  0  0  0
 21 19  1  0  0  0  0
 22 27  2  0  0  0  0
 22 23  1  0  0  0  0
 23 24  2  0  0  0  0
 24 25  1  0  0  0  0
 24 19  1  0  0  0  0
 26 30  1  0  0  0  0
 26 25  2  0  0  0  0
 27 26  1  0  0  0  0
 28 22  1  0  0  0  0
 29 23  1  0  0  0  0
 31 33  1  0  0  0  0
 33 32  2  1  0  0  0
 33 34  1  0  0  0  0
 34 35  1  0  0  0  0
 36 33  1  0  0  0  0
 37 38  1  0  0  0  0
 38 36  1  0  0  0  0
 39 38  2  0  0  0  0
 39 40  1  0  0  0  0
 41 39  1  0  0  0  0
 42 41  1  0  0  0  0
 42 43  1  0  0  0  0
 44 42  1  0  0  0  0
 45 44  1  0  0  0  0
 46 44  2  0  0  0  0
 46 47  1  0  0  0  0
 47 48  1  0  0  0  0
 47 41  2  0  0  0  0
 48 37  2  0  0  0  0
M  END
>  <minimizedAffinity>
-6.18873072

$$$$

 OpenBabel03252509023D

 48 51  0  0  1  0  0  0  0  0999 V2000
   37.4640   30.3540   40.2080 N   0  0  0  0  0  0  0  0  0  0  0  0
   36.8650   30.7960   39.0000 C   0  0  0  0  0  0  0  0  0  0  0  0
   35.9950   29.7790   38.3020 C   0  0  0  0  0  0  0  0  0  0  0  0
   35.2830   28.8260   39.2260 C   0  0  0  0  0  0  0  0  0  0  0  0
   35.5070   29.1900   40.6740 C   0  0  0  0  0  0  0  0  0  0  0  0
   37.0730   29.1710   40.8110 C   0  0  2  0  0  0  0  0  0  0  0  0
   36.1840   31.6390   39.2800 H   0  0  0  0  0  0  0  0  0  0  0  0
   37.5460   31.2010   38.2480 H   0  0  0  0  0  0  0  0  0  0  0  0
   35.1820   30.3290   37.7430 H   0  0  0  0  0  0  0  0  0  0  0  0
   36.5640   29.2390   37.5140 H   0  0  0  0  0  0  0  0  0  0  0  0
   34.2240   28.6750   39.0090 H   0  0  0  0  0  0  0  0  0  0  0  0
   35.7660   27.8250   39.0780 H   0  0  0  0  0  0  0  0  0  0  0  0
   35.1350   30.1810   40.9430 H   0  0  0  0  0  0  0  0  0  0  0  0
   35.1660   28.3590   41.3170 H   0  0  0  0  0  0  0  0  0  0  0  0
   37.4110   28.2080   40.3740 H   0  0  0  0  0  0  0  0  0  0  0  0
   38.8080   30.8180   40.4010 C   0  0  0  0  0  0  0  0  0  0  0  0
   39.3440   30.0960   41.0440 H   0  0  0  0  0  0  0  0  0  0  0  0
   39.3070   30.8440   39.4040 H   0  0  0  0  0  0  0  0  0  0  0  0
   38.7660   32.2120   40.9380 C   0  0  0  0  0  0  0  0  0  0  0  0
   37.7670   32.6760   40.9080 H   0  0  0  0  0  0  0  0  0  0  0  0
   39.1140   32.2360   42.0010 H   0  0  0  0  0  0  0  0  0  0  0  0
   41.3420   33.2700   38.4110 C   0  0  0  0  0  0  0  0  0  0  0  0
   40.4240   32.4880   39.1380 C   0  0  0  0  0  0  0  0  0  0  0  0
   39.7310   33.0530   40.1810 C   0  0  0  0  0  0  0  0  0  0  0  0
   39.9670   34.3420   40.4610 N   0  0  0  0  0  0  0  0  0  0  0  0
   40.8470   35.0880   39.7620 C   0  0  0  0  0  0  0  0  0  0  0  0
   41.5370   34.5660   38.7410 N   0  0  0  0  0  0  0  0  0  0  0  0
   41.8870   32.8370   37.5940 H   0  0  0  0  0  0  0  0  0  0  0  0
   40.2730   31.4490   38.8690 H   0  0  0  0  0  0  0  0  0  0  0  0
   40.9740   36.1240   40.0580 H   0  0  0  0  0  0  0  0  0  0  0  0
   37.2360   29.2130   42.1880 O   0  0  0  0  0  0  0  0  0  0  0  0
   37.2210   26.5780   41.8240 O   0  0  0  0  0  0  0  0  0  0  0  0
   37.3070   27.6860   42.8840 P   0  0  2  0  0  0  0  0  0  0  0  0
   35.8720   27.5150   43.8020 O   0  0  0  0  0  0  0  0  0  0  0  0
   35.6430   26.5710   43.8560 H   0  0  0  0  0  0  0  0  0  0  0  0
   38.6030   27.5010   43.9050 O   0  0  0  0  0  0  0  0  0  0  0  0
   40.5620   28.3300   42.8970 C   0  0  0  0  0  3  0  0  0  0  0  0
   39.9100   27.2940   43.5630 C   0  0  0  0  0  0  0  0  0  0  0  0
   40.6630   26.1560   43.8090 C   0  0  0  0  0  0  0  0  0  0  0  0
   40.1560   25.3500   44.3270 H   0  0  0  0  0  0  0  0  0  0  0  0
   41.9700   26.0220   43.4350 C   0  0  0  0  0  0  0  0  0  0  0  0
   42.8620   25.0360   43.5680 N   0  0  0  0  0  0  0  0  0  0  0  0
   42.7190   24.1070   44.0190 H   0  0  0  0  0  0  0  0  0  0  0  0
   44.0170   25.4300   43.0140 C   0  0  0  0  0  0  0  0  0  0  0  0
   44.9200   24.8310   42.9750 H   0  0  0  0  0  0  0  0  0  0  0  0
   43.9120   26.7070   42.4940 C   0  0  0  0  0  3  0  0  0  0  0  0
   42.6020   27.0590   42.7740 C   0  0  0  0  0  0  0  0  0  0  0  0
   41.8720   28.2100   42.5150 C   0  0  0  0  0  3  0  0  0  0  0  0
  1 16  1  0  0  0  0
  1  6  1  0  0  0  0
  2  7  1  0  0  0  0
  2  1  1  0  0  0  0
  3  2  1  0  0  0  0
  3  4  1  0  0  0  0
  4  5  1  0  0  0  0
  5  6  1  0  0  0  0
  5 13  1  0  0  0  0
  5 14  1  0  0  0  0
  6 15  1  6  0  0  0
  6 31  1  0  0  0  0
  8  2  1  0  0  0  0
  9  3  1  0  0  0  0
 10  3  1  0  0  0  0
 11  4  1  0  0  0  0
 12  4  1  0  0  0  0
 16 19  1  0  0  0  0
 16 17  1  0  0  0  0
 18 16  1  0  0  0  0
 19 21  1  0  0  0  0
 20 19  1  0  0  0  0
 22 27  2  0  0  0  0
 22 23  1  0  0  0  0
 23 24  2  0  0  0  0
 24 25  1  0  0  0  0
 24 19  1  0  0  0  0
 26 30  1  0  0  0  0
 26 25  2  0  0  0  0
 27 26  1  0  0  0  0
 28 22  1  0  0  0  0
 29 23  1  0  0  0  0
 31 33  1  0  0  0  0
 33 32  2  6  0  0  0
 33 34  1  0  0  0  0
 33 36  1  0  0  0  0
 34 35  1  0  0  0  0
 37 38  1  0  0  0  0
 38 39  2  0  0  0  0
 38 36  1  0  0  0  0
 39 40  1  0  0  0  0
 41 42  1  0  0  0  0
 41 39  1  0  0  0  0
 42 43  1  0  0  0  0
 44 42  1  0  0  0  0
 45 44  1  0  0  0  0
 46 47  1  0  0  0  0
 46 44  2  0  0  0  0
 47 41  2  0  0  0  0
 48 47  1  0  0  0  0
 48 37  2  0  0  0  0
M  END
>  <minimizedAffinity>
-6.14094162

$$$$

 OpenBabel03252509023D

 48 51  0  0  1  0  0  0  0  0999 V2000
   37.0200   26.6300   41.7310 N   0  0  0  0  0  0  0  0  0  0  0  0
   37.2670   25.3150   42.2080 C   0  0  0  0  0  0  0  0  0  0  0  0
   36.8180   24.2040   41.2910 C   0  0  0  0  0  0  0  0  0  0  0  0
   36.8970   24.5310   39.8240 C   0  0  0  0  0  0  0  0  0  0  0  0
   37.5390   25.8790   39.5930 C   0  0  0  0  0  0  0  0  0  0  0  0
   36.6280   26.8560   40.4230 C   0  0  2  0  0  0  0  0  0  0  0  0
   38.3790   25.2160   42.2860 H   0  0  0  0  0  0  0  0  0  0  0  0
   36.8770   25.0860   43.2010 H   0  0  0  0  0  0  0  0  0  0  0  0
   37.5020   23.3170   41.4450 H   0  0  0  0  0  0  0  0  0  0  0  0
   35.8080   23.8350   41.5750 H   0  0  0  0  0  0  0  0  0  0  0  0
   37.3510   23.7590   39.2000 H   0  0  0  0  0  0  0  0  0  0  0  0
   35.8400   24.6240   39.4640 H   0  0  0  0  0  0  0  0  0  0  0  0
   38.5650   25.9480   39.9580 H   0  0  0  0  0  0  0  0  0  0  0  0
   37.3820   26.1840   38.5430 H   0  0  0  0  0  0  0  0  0  0  0  0
   35.5820   26.6300   40.1300 H   0  0  0  0  0  0  0  0  0  0  0  0
   36.6100   27.5550   42.7470 C   0  0  0  0  0  0  0  0  0  0  0  0
   36.2930   28.4970   42.2620 H   0  0  0  0  0  0  0  0  0  0  0  0
   35.7310   27.1160   43.2740 H   0  0  0  0  0  0  0  0  0  0  0  0
   37.7170   27.7100   43.7370 C   0  0  0  0  0  0  0  0  0  0  0  0
   37.4060   28.1530   44.6970 H   0  0  0  0  0  0  0  0  0  0  0  0
   38.1860   26.7190   43.9630 H   0  0  0  0  0  0  0  0  0  0  0  0
   39.5070   30.5940   42.1170 C   0  0  0  0  0  0  0  0  0  0  0  0
   38.4960   29.7990   42.6910 C   0  0  0  0  0  0  0  0  0  0  0  0
   38.7980   28.5340   43.1330 C   0  0  0  0  0  0  0  0  0  0  0  0
   40.0620   28.1110   42.9940 N   0  0  0  0  0  0  0  0  0  0  0  0
   41.0280   28.8740   42.4440 C   0  0  0  0  0  0  0  0  0  0  0  0
   40.7650   30.1100   42.0040 N   0  0  0  0  0  0  0  0  0  0  0  0
   39.2800   31.5830   41.7700 H   0  0  0  0  0  0  0  0  0  0  0  0
   37.4900   30.1930   42.7790 H   0  0  0  0  0  0  0  0  0  0  0  0
   42.0230   28.4500   42.3720 H   0  0  0  0  0  0  0  0  0  0  0  0
   37.0510   28.0940   39.9630 O   0  0  0  0  0  0  0  0  0  0  0  0
   34.7340   29.3740   40.2220 O   0  0  0  0  0  0  0  0  0  0  0  0
   35.8240   28.9680   39.2200 P   0  0  2  0  0  0  0  0  0  0  0  0
   35.0430   27.8790   38.1540 O   0  0  0  0  0  0  0  0  0  0  0  0
   34.1180   28.1560   38.0410 H   0  0  0  0  0  0  0  0  0  0  0  0
   36.3910   30.2500   38.3290 O   0  0  0  0  0  0  0  0  0  0  0  0
   38.6230   30.9920   38.2530 C   0  0  0  0  0  3  0  0  0  0  0  0
   37.3190   31.1800   38.7070 C   0  0  0  0  0  0  0  0  0  0  0  0
   37.1010   32.2980   39.4970 C   0  0  0  0  0  0  0  0  0  0  0  0
   36.0860   32.4440   39.8490 H   0  0  0  0  0  0  0  0  0  0  0  0
   38.0830   33.1860   39.8330 C   0  0  0  0  0  0  0  0  0  0  0  0
   38.0920   34.3030   40.5660 N   0  0  0  0  0  0  0  0  0  0  0  0
   37.2890   34.7450   41.0610 H   0  0  0  0  0  0  0  0  0  0  0  0
   39.3390   34.7940   40.5750 C   0  0  0  0  0  0  0  0  0  0  0  0
   39.6450   35.6980   41.0920 H   0  0  0  0  0  0  0  0  0  0  0  0
   40.1950   34.0000   39.8350 C   0  0  0  0  0  3  0  0  0  0  0  0
   39.3720   32.9850   39.3760 C   0  0  0  0  0  0  0  0  0  0  0  0
   39.6190   31.8740   38.5820 C   0  0  0  0  0  3  0  0  0  0  0  0
  1  2  1  0  0  0  0
  1 16  1  0  0  0  0
  2  7  1  0  0  0  0
  2  8  1  0  0  0  0
  3  9  1  0  0  0  0
  3 10  1  0  0  0  0
  3  2  1  0  0  0  0
  4  3  1  0  0  0  0
  5  4  1  0  0  0  0
  5 13  1  0  0  0  0
  5  6  1  0  0  0  0
  6 15  1  6  0  0  0
  6  1  1  0  0  0  0
 11  4  1  0  0  0  0
 12  4  1  0  0  0  0
 14  5  1  0  0  0  0
 16 18  1  0  0  0  0
 16 19  1  0  0  0  0
 17 16  1  0  0  0  0
 19 21  1  0  0  0  0
 19 20  1  0  0  0  0
 22 23  1  0  0  0  0
 23 29  1  0  0  0  0
 23 24  2  0  0  0  0
 24 19  1  0  0  0  0
 25 24  1  0  0  0  0
 26 25  2  0  0  0  0
 27 22  2  0  0  0  0
 27 26  1  0  0  0  0
 28 22  1  0  0  0  0
 30 26  1  0  0  0  0
 31  6  1  0  0  0  0
 33 31  1  0  0  0  0
 33 32  2  1  0  0  0
 34 33  1  0  0  0  0
 35 34  1  0  0  0  0
 36 38  1  0  0  0  0
 36 33  1  0  0  0  0
 37 48  2  0  0  0  0
 37 38  1  0  0  0  0
 38 39  2  0  0  0  0
 39 41  1  0  0  0  0
 39 40  1  0  0  0  0
 41 42  1  0  0  0  0
 42 44  1  0  0  0  0
 42 43  1  0  0  0  0
 44 45  1  0  0  0  0
 46 44  2  0  0  0  0
 47 41  2  0  0  0  0
 47 46  1  0  0  0  0
 48 47  1  0  0  0  0
M  END
>  <minimizedAffinity>
-6.11633062

$$$$

 OpenBabel03252509023D

 48 51  0  0  1  0  0  0  0  0999 V2000
   38.5160   27.7400   43.0430 N   0  0  0  0  0  0  0  0  0  0  0  0
   39.6260   26.9670   43.4730 C   0  0  0  0  0  0  0  0  0  0  0  0
   40.9320   27.2750   42.7830 C   0  0  0  0  0  0  0  0  0  0  0  0
   41.0950   28.7130   42.3650 C   0  0  0  0  0  0  0  0  0  0  0  0
   39.9450   29.5630   42.8520 C   0  0  0  0  0  0  0  0  0  0  0  0
   38.6870   28.8520   42.2350 C   0  0  2  0  0  0  0  0  0  0  0  0
   39.7830   27.2210   44.5510 H   0  0  0  0  0  0  0  0  0  0  0  0
   39.4960   25.8830   43.4380 H   0  0  0  0  0  0  0  0  0  0  0  0
   41.7750   27.0690   43.5060 H   0  0  0  0  0  0  0  0  0  0  0  0
   41.1100   26.5790   41.9350 H   0  0  0  0  0  0  0  0  0  0  0  0
   42.0580   29.1610   42.6120 H   0  0  0  0  0  0  0  0  0  0  0  0
   41.0370   28.7240   41.2460 H   0  0  0  0  0  0  0  0  0  0  0  0
   39.8460   29.5900   43.9390 H   0  0  0  0  0  0  0  0  0  0  0  0
   39.9780   30.5460   42.3490 H   0  0  0  0  0  0  0  0  0  0  0  0
   38.9100   28.7030   41.1590 H   0  0  0  0  0  0  0  0  0  0  0  0
   37.2860   27.0070   42.9600 C   0  0  0  0  0  0  0  0  0  0  0  0
   37.3910   26.0700   43.5360 H   0  0  0  0  0  0  0  0  0  0  0  0
   36.4870   27.6250   43.4320 H   0  0  0  0  0  0  0  0  0  0  0  0
   36.9350   26.8130   41.5210 C   0  0  0  0  0  0  0  0  0  0  0  0
   35.8520   26.7760   41.3220 H   0  0  0  0  0  0  0  0  0  0  0  0
   37.3610   27.6370   40.8960 H   0  0  0  0  0  0  0  0  0  0  0  0
   37.6390   23.1640   40.9440 C   0  0  0  0  0  0  0  0  0  0  0  0
   37.0450   24.3550   41.4010 C   0  0  0  0  0  0  0  0  0  0  0  0
   37.5770   25.5650   41.0270 C   0  0  0  0  0  0  0  0  0  0  0  0
   38.6550   25.5520   40.2310 N   0  0  0  0  0  0  0  0  0  0  0  0
   39.2220   24.4100   39.7940 C   0  0  0  0  0  0  0  0  0  0  0  0
   38.7270   23.2160   40.1410 N   0  0  0  0  0  0  0  0  0  0  0  0
   37.2300   22.2140   41.2300 H   0  0  0  0  0  0  0  0  0  0  0  0
   36.1730   24.3070   42.0440 H   0  0  0  0  0  0  0  0  0  0  0  0
   40.0920   24.4940   39.1530 H   0  0  0  0  0  0  0  0  0  0  0  0
   37.6960   29.8000   42.4440 O   0  0  0  0  0  0  0  0  0  0  0  0
   37.9380   31.9450   40.8900 O   0  0  0  0  0  0  0  0  0  0  0  0
   37.2370   30.5860   41.0330 P   0  0  2  0  0  0  0  0  0  0  0  0
   35.5810   30.9750   41.2230 O   0  0  0  0  0  0  0  0  0  0  0  0
   35.3790   31.7650   40.6920 H   0  0  0  0  0  0  0  0  0  0  0  0
   37.3960   29.6340   39.6820 O   0  0  0  0  0  0  0  0  0  0  0  0
   36.8930   29.7090   37.3840 C   0  0  0  0  0  3  0  0  0  0  0  0
   36.4790   29.4390   38.6870 C   0  0  0  0  0  0  0  0  0  0  0  0
   35.1730   28.9990   38.8360 C   0  0  0  0  0  0  0  0  0  0  0  0
   34.8520   28.7880   39.8500 H   0  0  0  0  0  0  0  0  0  0  0  0
   34.3120   28.8280   37.7900 C   0  0  0  0  0  0  0  0  0  0  0  0
   33.0410   28.4240   37.7090 N   0  0  0  0  0  0  0  0  0  0  0  0
   32.4140   28.1380   38.4920 H   0  0  0  0  0  0  0  0  0  0  0  0
   32.6710   28.4390   36.4210 C   0  0  0  0  0  0  0  0  0  0  0  0
   31.6890   28.1580   36.0560 H   0  0  0  0  0  0  0  0  0  0  0  0
   33.7080   28.8600   35.6080 C   0  0  0  0  0  3  0  0  0  0  0  0
   34.7370   29.1010   36.5030 C   0  0  0  0  0  0  0  0  0  0  0  0
   36.0400   29.5440   36.3250 C   0  0  0  0  0  3  0  0  0  0  0  0
  1  2  1  0  0  0  0
  2  7  1  0  0  0  0
  3  2  1  0  0  0  0
  3  9  1  0  0  0  0
  4 11  1  0  0  0  0
  4  3  1  0  0  0  0
  4  5  1  0  0  0  0
  5 13  1  0  0  0  0
  6 15  1  6  0  0  0
  6 31  1  0  0  0  0
  6  5  1  0  0  0  0
  6  1  1  0  0  0  0
  8  2  1  0  0  0  0
 10  3  1  0  0  0  0
 12  4  1  0  0  0  0
 14  5  1  0  0  0  0
 16  1  1  0  0  0  0
 16 18  1  0  0  0  0
 16 17  1  0  0  0  0
 19 16  1  0  0  0  0
 20 19  1  0  0  0  0
 21 19  1  0  0  0  0
 22 28  1  0  0  0  0
 22 23  1  0  0  0  0
 23 29  1  0  0  0  0
 24 23  2  0  0  0  0
 24 19  1  0  0  0  0
 25 24  1  0  0  0  0
 26 27  1  0  0  0  0
 26 25  2  0  0  0  0
 27 22  2  0  0  0  0
 30 26  1  0  0  0  0
 33 32  2  6  0  0  0
 33 34  1  0  0  0  0
 33 31  1  0  0  0  0
 35 34  1  0  0  0  0
 36 33  1  0  0  0  0
 37 38  1  0  0  0  0
 38 39  2  0  0  0  0
 38 36  1  0  0  0  0
 39 40  1  0  0  0  0
 41 39  1  0  0  0  0
 42 41  1  0  0  0  0
 42 43  1  0  0  0  0
 44 42  1  0  0  0  0
 45 44  1  0  0  0  0
 46 44  2  0  0  0  0
 46 47  1  0  0  0  0
 47 41  2  0  0  0  0
 48 47  1  0  0  0  0
 48 37  2  0  0  0  0
M  END
>  <minimizedAffinity>
-5.95716333

$$$$

 OpenBabel03252509023D

 48 51  0  0  1  0  0  0  0  0999 V2000
   40.6470   28.5940   42.3290 N   0  0  0  0  0  0  0  0  0  0  0  0
   41.9960   28.7000   42.7570 C   0  0  0  0  0  0  0  0  0  0  0  0
   42.3250   27.9690   44.0350 C   0  0  0  0  0  0  0  0  0  0  0  0
   41.5300   26.7090   44.2590 C   0  0  0  0  0  0  0  0  0  0  0  0
   40.6550   26.3900   43.0700 C   0  0  0  0  0  0  0  0  0  0  0  0
   39.7790   27.6860   42.9120 C   0  0  2  0  0  0  0  0  0  0  0  0
   42.6140   28.2150   41.9600 H   0  0  0  0  0  0  0  0  0  0  0  0
   42.3860   29.7140   42.8610 H   0  0  0  0  0  0  0  0  0  0  0  0
   43.4070   27.6440   43.9920 H   0  0  0  0  0  0  0  0  0  0  0  0
   42.2690   28.6500   44.9120 H   0  0  0  0  0  0  0  0  0  0  0  0
   42.1140   25.8420   44.5720 H   0  0  0  0  0  0  0  0  0  0  0  0
   40.8330   26.9240   45.1100 H   0  0  0  0  0  0  0  0  0  0  0  0
   41.2110   26.2180   42.1460 H   0  0  0  0  0  0  0  0  0  0  0  0
   39.9330   25.6030   43.3480 H   0  0  0  0  0  0  0  0  0  0  0  0
   39.3680   27.9080   43.9190 H   0  0  0  0  0  0  0  0  0  0  0  0
   40.1110   29.8000   41.7680 C   0  0  0  0  0  0  0  0  0  0  0  0
   39.0340   29.8560   42.0080 H   0  0  0  0  0  0  0  0  0  0  0  0
   40.6280   30.6610   42.2540 H   0  0  0  0  0  0  0  0  0  0  0  0
   40.4230   29.8350   40.3070 C   0  0  0  0  0  0  0  0  0  0  0  0
   41.3080   29.2450   40.0210 H   0  0  0  0  0  0  0  0  0  0  0  0
   39.5580   29.4510   39.7100 H   0  0  0  0  0  0  0  0  0  0  0  0
   40.6930   33.5830   40.4470 C   0  0  0  0  0  0  0  0  0  0  0  0
   40.5230   32.2400   40.8300 C   0  0  0  0  0  0  0  0  0  0  0  0
   40.6050   31.2490   39.8830 C   0  0  0  0  0  0  0  0  0  0  0  0
   40.8470   31.6160   38.6170 N   0  0  0  0  0  0  0  0  0  0  0  0
   41.0100   32.9030   38.2520 C   0  0  0  0  0  0  0  0  0  0  0  0
   40.9350   33.8910   39.1520 N   0  0  0  0  0  0  0  0  0  0  0  0
   40.6310   34.3640   41.1800 H   0  0  0  0  0  0  0  0  0  0  0  0
   40.3290   31.9990   41.8690 H   0  0  0  0  0  0  0  0  0  0  0  0
   41.2030   33.1090   37.2050 H   0  0  0  0  0  0  0  0  0  0  0  0
   38.8030   27.2590   42.0240 O   0  0  0  0  0  0  0  0  0  0  0  0
   37.2980   27.6300   44.1860 O   0  0  0  0  0  0  0  0  0  0  0  0
   37.2630   27.2630   42.6950 P   0  0  2  0  0  0  0  0  0  0  0  0
   36.7280   25.6370   42.6660 O   0  0  0  0  0  0  0  0  0  0  0  0
   36.0940   25.5000   43.3910 H   0  0  0  0  0  0  0  0  0  0  0  0
   36.1830   28.1820   41.8310 O   0  0  0  0  0  0  0  0  0  0  0  0
   36.6970   28.8640   39.6370 C   0  0  0  0  0  3  0  0  0  0  0  0
   36.4630   29.2040   40.9680 C   0  0  0  0  0  0  0  0  0  0  0  0
   36.5400   30.5540   41.2770 C   0  0  0  0  0  0  0  0  0  0  0  0
   36.3580   30.8190   42.3120 H   0  0  0  0  0  0  0  0  0  0  0  0
   36.8270   31.5220   40.3570 C   0  0  0  0  0  0  0  0  0  0  0  0
   36.9480   32.8500   40.4360 N   0  0  0  0  0  0  0  0  0  0  0  0
   36.8390   33.4490   41.2830 H   0  0  0  0  0  0  0  0  0  0  0  0
   37.2440   33.3230   39.2180 C   0  0  0  0  0  0  0  0  0  0  0  0
   37.4000   34.3700   38.9820 H   0  0  0  0  0  0  0  0  0  0  0  0
   37.3260   32.3000   38.2910 C   0  0  0  0  0  3  0  0  0  0  0  0
   37.0570   31.1680   39.0410 C   0  0  0  0  0  0  0  0  0  0  0  0
   36.9860   29.8230   38.7040 C   0  0  0  0  0  3  0  0  0  0  0  0
  1  2  1  0  0  0  0
  1  6  1  0  0  0  0
  2  8  1  0  0  0  0
  2  3  1  0  0  0  0
  3  4  1  0  0  0  0
  3 10  1  0  0  0  0
  4 11  1  0  0  0  0
  4 12  1  0  0  0  0
  5 14  1  0  0  0  0
  5  4  1  0  0  0  0
  6  5  1  0  0  0  0
  6 15  1  1  0  0  0
  7  2  1  0  0  0  0
  9  3  1  0  0  0  0
 13  5  1  0  0  0  0
 16 17  1  0  0  0  0
 16 18  1  0  0  0  0
 16  1  1  0  0  0  0
 19 16  1  0  0  0  0
 20 19  1  0  0  0  0
 21 19  1  0  0  0  0
 22 23  1  0  0  0  0
 22 28  1  0  0  0  0
 23 29  1  0  0  0  0
 24 19  1  0  0  0  0
 24 23  2  0  0  0  0
 25 24  1  0  0  0  0
 26 25  2  0  0  0  0
 26 27  1  0  0  0  0
 27 22  2  0  0  0  0
 30 26  1  0  0  0  0
 31 33  1  0  0  0  0
 31  6  1  0  0  0  0
 33 32  2  1  0  0  0
 34 33  1  0  0  0  0
 34 35  1  0  0  0  0
 36 33  1  0  0  0  0
 37 38  1  0  0  0  0
 38 39  2  0  0  0  0
 38 36  1  0  0  0  0
 39 40  1  0  0  0  0
 41 42  1  0  0  0  0
 41 39  1  0  0  0  0
 42 43  1  0  0  0  0
 44 42  1  0  0  0  0
 45 44  1  0  0  0  0
 46 47  1  0  0  0  0
 46 44  2  0  0  0  0
 47 41  2  0  0  0  0
 48 47  1  0  0  0  0
 48 37  2  0  0  0  0
M  END
>  <minimizedAffinity>
-5.91031361

$$$$

 OpenBabel03252509023D

 48 51  0  0  1  0  0  0  0  0999 V2000
   38.8190   31.3140   38.9370 N   0  0  0  0  0  0  0  0  0  0  0  0
   37.7770   31.2500   37.9750 C   0  0  0  0  0  0  0  0  0  0  0  0
   36.5460   30.4930   38.4090 C   0  0  0  0  0  0  0  0  0  0  0  0
   36.2460   30.5770   39.8820 C   0  0  0  0  0  0  0  0  0  0  0  0
   37.1930   31.5210   40.5860 C   0  0  0  0  0  0  0  0  0  0  0  0
   38.6080   30.9250   40.2490 C   0  0  2  0  0  0  0  0  0  0  0  0
   37.4440   32.3050   37.8070 H   0  0  0  0  0  0  0  0  0  0  0  0
   38.0570   30.8660   36.9920 H   0  0  0  0  0  0  0  0  0  0  0  0
   35.6490   30.9430   37.8880 H   0  0  0  0  0  0  0  0  0  0  0  0
   36.5790   29.4400   38.0570 H   0  0  0  0  0  0  0  0  0  0  0  0
   35.2060   30.7930   40.1320 H   0  0  0  0  0  0  0  0  0  0  0  0
   36.4510   29.5590   40.3040 H   0  0  0  0  0  0  0  0  0  0  0  0
   37.1410   32.5490   40.2240 H   0  0  0  0  0  0  0  0  0  0  0  0
   37.0940   31.3910   41.6780 H   0  0  0  0  0  0  0  0  0  0  0  0
   38.5530   29.8420   40.4850 H   0  0  0  0  0  0  0  0  0  0  0  0
   40.1370   31.1980   38.3850 C   0  0  0  0  0  0  0  0  0  0  0  0
   40.7970   30.7280   39.1360 H   0  0  0  0  0  0  0  0  0  0  0  0
   40.0770   30.5260   37.4960 H   0  0  0  0  0  0  0  0  0  0  0  0
   40.5880   32.5440   37.9200 C   0  0  0  0  0  0  0  0  0  0  0  0
   41.2230   32.5220   37.0210 H   0  0  0  0  0  0  0  0  0  0  0  0
   39.7080   33.1970   37.6910 H   0  0  0  0  0  0  0  0  0  0  0  0
   41.5250   35.0980   40.5160 C   0  0  0  0  0  0  0  0  0  0  0  0
   40.8530   34.4410   39.4680 C   0  0  0  0  0  0  0  0  0  0  0  0
   41.3110   33.2240   39.0270 C   0  0  0  0  0  0  0  0  0  0  0  0
   42.3950   32.7120   39.6270 N   0  0  0  0  0  0  0  0  0  0  0  0
   43.0380   33.3430   40.6300 C   0  0  0  0  0  0  0  0  0  0  0  0
   42.6150   34.5300   41.0810 N   0  0  0  0  0  0  0  0  0  0  0  0
   41.1740   36.0490   40.8670 H   0  0  0  0  0  0  0  0  0  0  0  0
   39.9800   34.9010   39.0190 H   0  0  0  0  0  0  0  0  0  0  0  0
   43.9070   32.8560   41.0570 H   0  0  0  0  0  0  0  0  0  0  0  0
   39.4230   31.6180   41.1320 O   0  0  0  0  0  0  0  0  0  0  0  0
   41.3120   31.3660   42.9870 O   0  0  0  0  0  0  0  0  0  0  0  0
   40.2310   30.6080   42.2040 P   0  0  2  0  0  0  0  0  0  0  0  0
   41.1010   29.4910   41.2410 O   0  0  0  0  0  0  0  0  0  0  0  0
   41.8850   29.1930   41.7340 H   0  0  0  0  0  0  0  0  0  0  0  0
   39.2010   29.7540   43.1880 O   0  0  0  0  0  0  0  0  0  0  0  0
   37.2380   28.5210   42.7840 C   0  0  0  0  0  3  0  0  0  0  0  0
   38.6230   28.5420   42.9370 C   0  0  0  0  0  0  0  0  0  0  0  0
   39.2710   27.3220   42.8160 C   0  0  0  0  0  0  0  0  0  0  0  0
   40.3480   27.3390   42.9340 H   0  0  0  0  0  0  0  0  0  0  0  0
   38.6230   26.1470   42.5630 C   0  0  0  0  0  0  0  0  0  0  0  0
   39.0410   24.8870   42.4110 N   0  0  0  0  0  0  0  0  0  0  0  0
   40.0200   24.5320   42.4610 H   0  0  0  0  0  0  0  0  0  0  0  0
   37.9740   24.1110   42.1750 C   0  0  0  0  0  0  0  0  0  0  0  0
   38.0130   23.0390   42.0120 H   0  0  0  0  0  0  0  0  0  0  0  0
   36.8080   24.8530   42.1650 C   0  0  0  0  0  3  0  0  0  0  0  0
   37.2480   26.1420   42.4140 C   0  0  0  0  0  0  0  0  0  0  0  0
   36.5740   27.3500   42.5300 C   0  0  0  0  0  3  0  0  0  0  0  0
  1  6  1  0  0  0  0
  2  3  1  0  0  0  0
  2  1  1  0  0  0  0
  3  4  1  0  0  0  0
  4 11  1  0  0  0  0
  4 12  1  0  0  0  0
  4  5  1  0  0  0  0
  5 14  1  0  0  0  0
  6 15  1  1  0  0  0
  6  5  1  0  0  0  0
  6 31  1  0  0  0  0
  7  2  1  0  0  0  0
  8  2  1  0  0  0  0
  9  3  1  0  0  0  0
 10  3  1  0  0  0  0
 13  5  1  0  0  0  0
 16  1  1  0  0  0  0
 16 17  1  0  0  0  0
 18 16  1  0  0  0  0
 19 16  1  0  0  0  0
 19 24  1  0  0  0  0
 20 19  1  0  0  0  0
 21 19  1  0  0  0  0
 22 28  1  0  0  0  0
 22 27  1  0  0  0  0
 23 22  2  0  0  0  0
 24 23  1  0  0  0  0
 24 25  2  0  0  0  0
 25 26  1  0  0  0  0
 26 30  1  0  0  0  0
 26 27  2  0  0  0  0
 29 23  1  0  0  0  0
 31 33  1  0  0  0  0
 33 32  2  1  0  0  0
 33 36  1  0  0  0  0
 34 35  1  0  0  0  0
 34 33  1  0  0  0  0
 37 38  1  0  0  0  0
 38 36  1  0  0  0  0
 39 40  1  0  0  0  0
 39 38  2  0  0  0  0
 41 39  1  0  0  0  0
 42 43  1  0  0  0  0
 42 41  1  0  0  0  0
 44 42  1  0  0  0  0
 45 44  1  0  0  0  0
 46 44  2  0  0  0  0
 46 47  1  0  0  0  0
 47 48  1  0  0  0  0
 47 41  2  0  0  0  0
 48 37  2  0  0  0  0
M  END
>  <minimizedAffinity>
-5.85393476

$$$$

 OpenBabel03252509023D

 48 51  0  0  1  0  0  0  0  0999 V2000
   41.5870   30.5750   40.9310 N   0  0  0  0  0  0  0  0  0  0  0  0
   42.5900   29.6980   40.4420 C   0  0  0  0  0  0  0  0  0  0  0  0
   43.0540   29.9720   39.0320 C   0  0  0  0  0  0  0  0  0  0  0  0
   43.0220   31.4240   38.6350 C   0  0  0  0  0  0  0  0  0  0  0  0
   42.6460   32.3080   39.8000 C   0  0  0  0  0  0  0  0  0  0  0  0
   41.2540   31.7330   40.2500 C   0  0  2  0  0  0  0  0  0  0  0  0
   43.4860   29.8540   41.0940 H   0  0  0  0  0  0  0  0  0  0  0  0
   42.3630   28.6310   40.5000 H   0  0  0  0  0  0  0  0  0  0  0  0
   44.1340   29.6540   38.9440 H   0  0  0  0  0  0  0  0  0  0  0  0
   42.5100   29.3350   38.3010 H   0  0  0  0  0  0  0  0  0  0  0  0
   43.9200   31.7860   38.1300 H   0  0  0  0  0  0  0  0  0  0  0  0
   42.1950   31.5290   37.8860 H   0  0  0  0  0  0  0  0  0  0  0  0
   43.3440   32.2550   40.6380 H   0  0  0  0  0  0  0  0  0  0  0  0
   42.4160   33.3230   39.4310 H   0  0  0  0  0  0  0  0  0  0  0  0
   40.6370   31.6560   39.3310 H   0  0  0  0  0  0  0  0  0  0  0  0
   40.5890   29.9340   41.7380 C   0  0  0  0  0  0  0  0  0  0  0  0
   41.0920   29.3650   42.5400 H   0  0  0  0  0  0  0  0  0  0  0  0
   39.9650   30.7310   42.2060 H   0  0  0  0  0  0  0  0  0  0  0  0
   39.7080   29.1120   40.8540 C   0  0  0  0  0  0  0  0  0  0  0  0
   39.2290   29.6810   40.0420 H   0  0  0  0  0  0  0  0  0  0  0  0
   40.2880   28.2790   40.3830 H   0  0  0  0  0  0  0  0  0  0  0  0
   37.1890   26.5940   42.0610 C   0  0  0  0  0  0  0  0  0  0  0  0
   38.1750   27.2340   41.2860 C   0  0  0  0  0  0  0  0  0  0  0  0
   38.6660   28.4530   41.6860 C   0  0  0  0  0  0  0  0  0  0  0  0
   38.1740   28.9830   42.8140 N   0  0  0  0  0  0  0  0  0  0  0  0
   37.2300   28.3690   43.5550 C   0  0  0  0  0  0  0  0  0  0  0  0
   36.7320   27.1810   43.1910 N   0  0  0  0  0  0  0  0  0  0  0  0
   36.8000   25.6420   41.7570 H   0  0  0  0  0  0  0  0  0  0  0  0
   38.5370   26.7590   40.3820 H   0  0  0  0  0  0  0  0  0  0  0  0
   36.8890   28.8710   44.4530 H   0  0  0  0  0  0  0  0  0  0  0  0
   40.8030   32.7260   41.1080 O   0  0  0  0  0  0  0  0  0  0  0  0
   40.6770   35.0970   39.9100 O   0  0  0  0  0  0  0  0  0  0  0  0
   39.8520   33.8740   40.3350 P   0  0  2  0  0  0  0  0  0  0  0  0
   38.7730   34.4740   41.5210 O   0  0  0  0  0  0  0  0  0  0  0  0
   38.5240   35.3860   41.2890 H   0  0  0  0  0  0  0  0  0  0  0  0
   38.9550   33.2380   39.0900 O   0  0  0  0  0  0  0  0  0  0  0  0
   38.0540   31.3420   38.0260 C   0  0  0  0  0  3  0  0  0  0  0  0
   38.0950   32.1770   39.1410 C   0  0  0  0  0  0  0  0  0  0  0  0
   37.2550   31.8390   40.1910 C   0  0  0  0  0  0  0  0  0  0  0  0
   37.2870   32.4880   41.0580 H   0  0  0  0  0  0  0  0  0  0  0  0
   36.4190   30.7580   40.1680 C   0  0  0  0  0  0  0  0  0  0  0  0
   35.5460   30.2600   41.0490 N   0  0  0  0  0  0  0  0  0  0  0  0
   35.3160   30.6310   41.9950 H   0  0  0  0  0  0  0  0  0  0  0  0
   34.9820   29.1680   40.5150 C   0  0  0  0  0  0  0  0  0  0  0  0
   34.2320   28.5560   41.0070 H   0  0  0  0  0  0  0  0  0  0  0  0
   35.4790   28.9150   39.2500 C   0  0  0  0  0  3  0  0  0  0  0  0
   36.3890   29.9400   39.0550 C   0  0  0  0  0  0  0  0  0  0  0  0
   37.2210   30.2550   37.9890 C   0  0  0  0  0  3  0  0  0  0  0  0
  1 16  1  0  0  0  0
  2  8  1  0  0  0  0
  2  1  1  0  0  0  0
  2  7  1  0  0  0  0
  3  2  1  0  0  0  0
  4  3  1  0  0  0  0
  4  5  1  0  0  0  0
  5  6  1  0  0  0  0
  5 13  1  0  0  0  0
  6 15  1  6  0  0  0
  6  1  1  0  0  0  0
  6 31  1  0  0  0  0
  9  3  1  0  0  0  0
 10  3  1  0  0  0  0
 11  4  1  0  0  0  0
 12  4  1  0  0  0  0
 14  5  1  0  0  0  0
 16 18  1  0  0  0  0
 16 17  1  0  0  0  0
 19 24  1  0  0  0  0
 19 16  1  0  0  0  0
 20 19  1  0  0  0  0
 21 19  1  0  0  0  0
 22 27  1  0  0  0  0
 23 24  1  0  0  0  0
 23 22  2  0  0  0  0
 24 25  2  0  0  0  0
 25 26  1  0  0  0  0
 26 30  1  0  0  0  0
 27 26  2  0  0  0  0
 28 22  1  0  0  0  0
 29 23  1  0  0  0  0
 33 32  2  6  0  0  0
 33 31  1  0  0  0  0
 33 34  1  0  0  0  0
 35 34  1  0  0  0  0
 36 38  1  0  0  0  0
 36 33  1  0  0  0  0
 37 38  1  0  0  0  0
 38 39  2  0  0  0  0
 39 40  1  0  0  0  0
 41 39  1  0  0  0  0
 41 42  1  0  0  0  0
 42 43  1  0  0  0  0
 44 45  1  0  0  0  0
 44 42  1  0  0  0  0
 46 44  2  0  0  0  0
 47 46  1  0  0  0  0
 47 41  2  0  0  0  0
 48 37  2  0  0  0  0
 48 47  1  0  0  0  0
M  END
>  <minimizedAffinity>
-5.81092215

$$$$

 OpenBabel03252509023D

 48 51  0  0  1  0  0  0  0  0999 V2000
   40.8170   29.5160   42.2950 N   0  0  0  0  0  0  0  0  0  0  0  0
   41.8520   28.6990   42.8210 C   0  0  0  0  0  0  0  0  0  0  0  0
   43.2520   29.2250   42.6210 C   0  0  0  0  0  0  0  0  0  0  0  0
   43.3630   30.7270   42.6230 C   0  0  0  0  0  0  0  0  0  0  0  0
   42.0410   31.3780   42.9570 C   0  0  0  0  0  0  0  0  0  0  0  0
   41.0730   30.8050   41.8590 C   0  0  2  0  0  0  0  0  0  0  0  0
   41.6920   28.6690   43.9280 H   0  0  0  0  0  0  0  0  0  0  0  0
   41.8530   27.6580   42.4930 H   0  0  0  0  0  0  0  0  0  0  0  0
   43.8930   28.8690   43.4810 H   0  0  0  0  0  0  0  0  0  0  0  0
   43.7210   28.7800   41.7160 H   0  0  0  0  0  0  0  0  0  0  0  0
   44.1740   31.1310   43.2320 H   0  0  0  0  0  0  0  0  0  0  0  0
   43.6000   31.0270   41.5700 H   0  0  0  0  0  0  0  0  0  0  0  0
   41.6580   31.1170   43.9460 H   0  0  0  0  0  0  0  0  0  0  0  0
   42.0990   32.4580   42.7350 H   0  0  0  0  0  0  0  0  0  0  0  0
   41.5850   30.9500   40.8860 H   0  0  0  0  0  0  0  0  0  0  0  0
   39.7380   28.7840   41.6960 C   0  0  0  0  0  0  0  0  0  0  0  0
   39.2760   29.4110   40.9130 H   0  0  0  0  0  0  0  0  0  0  0  0
   40.1680   27.8750   41.2140 H   0  0  0  0  0  0  0  0  0  0  0  0
   38.7990   28.3420   42.7700 C   0  0  0  0  0  0  0  0  0  0  0  0
   39.1570   28.5410   43.7930 H   0  0  0  0  0  0  0  0  0  0  0  0
   37.8070   28.8480   42.6590 H   0  0  0  0  0  0  0  0  0  0  0  0
   39.2400   24.6090   42.8650 C   0  0  0  0  0  0  0  0  0  0  0  0
   39.4820   25.9880   43.0090 C   0  0  0  0  0  0  0  0  0  0  0  0
   38.5260   26.8890   42.6090 C   0  0  0  0  0  0  0  0  0  0  0  0
   37.3890   26.4030   42.0920 N   0  0  0  0  0  0  0  0  0  0  0  0
   37.1600   25.0810   41.9550 C   0  0  0  0  0  0  0  0  0  0  0  0
   38.0730   24.1790   42.3350 N   0  0  0  0  0  0  0  0  0  0  0  0
   39.9820   23.8980   43.1750 H   0  0  0  0  0  0  0  0  0  0  0  0
   40.4200   26.3260   43.4350 H   0  0  0  0  0  0  0  0  0  0  0  0
   36.2120   24.7760   41.5260 H   0  0  0  0  0  0  0  0  0  0  0  0
   39.9660   31.6290   42.0030 O   0  0  0  0  0  0  0  0  0  0  0  0
   41.1910   33.5430   40.6220 O   0  0  0  0  0  0  0  0  0  0  0  0
   39.8620   32.7970   40.8000 P   0  0  2  0  0  0  0  0  0  0  0  0
   38.7760   33.9850   41.3850 O   0  0  0  0  0  0  0  0  0  0  0  0
   38.9990   34.8420   40.9810 H   0  0  0  0  0  0  0  0  0  0  0  0
   39.2610   32.2010   39.3710 O   0  0  0  0  0  0  0  0  0  0  0  0
   37.9330   30.9140   37.9140 C   0  0  0  0  0  3  0  0  0  0  0  0
   38.1550   31.4180   39.1950 C   0  0  0  0  0  0  0  0  0  0  0  0
   37.2240   31.0660   40.1600 C   0  0  0  0  0  0  0  0  0  0  0  0
   37.3970   31.4570   41.1560 H   0  0  0  0  0  0  0  0  0  0  0  0
   36.1390   30.2760   39.9080 C   0  0  0  0  0  0  0  0  0  0  0  0
   35.1400   29.8240   40.6720 N   0  0  0  0  0  0  0  0  0  0  0  0
   34.9850   30.0040   41.6870 H   0  0  0  0  0  0  0  0  0  0  0  0
   34.3290   29.0760   39.9120 C   0  0  0  0  0  0  0  0  0  0  0  0
   33.4320   28.5790   40.2670 H   0  0  0  0  0  0  0  0  0  0  0  0
   34.7820   29.0140   38.6070 C   0  0  0  0  0  3  0  0  0  0  0  0
   35.9320   29.7850   38.6320 C   0  0  0  0  0  0  0  0  0  0  0  0
   36.8490   30.1210   37.6460 C   0  0  0  0  0  3  0  0  0  0  0  0
  1  2  1  0  0  0  0
  2  7  1  0  0  0  0
  3  4  1  0  0  0  0
  3  2  1  0  0  0  0
  3  9  1  0  0  0  0
  4  5  1  0  0  0  0
  4 11  1  0  0  0  0
  5 13  1  0  0  0  0
  6 15  1  6  0  0  0
  6 31  1  0  0  0  0
  6  1  1  0  0  0  0
  6  5  1  0  0  0  0
  8  2  1  0  0  0  0
 10  3  1  0  0  0  0
 12  4  1  0  0  0  0
 14  5  1  0  0  0  0
 16  1  1  0  0  0  0
 16 19  1  0  0  0  0
 17 16  1  0  0  0  0
 18 16  1  0  0  0  0
 19 20  1  0  0  0  0
 21 19  1  0  0  0  0
 22 23  1  0  0  0  0
 22 28  1  0  0  0  0
 23 29  1  0  0  0  0
 24 19  1  0  0  0  0
 24 23  2  0  0  0  0
 25 24  1  0  0  0  0
 26 25  2  0  0  0  0
 26 27  1  0  0  0  0
 27 22  2  0  0  0  0
 30 26  1  0  0  0  0
 33 32  2  6  0  0  0
 33 34  1  0  0  0  0
 33 31  1  0  0  0  0
 35 34  1  0  0  0  0
 36 33  1  0  0  0  0
 37 38  1  0  0  0  0
 38 36  1  0  0  0  0
 38 39  2  0  0  0  0
 39 40  1  0  0  0  0
 41 39  1  0  0  0  0
 41 42  1  0  0  0  0
 42 43  1  0  0  0  0
 44 45  1  0  0  0  0
 44 42  1  0  0  0  0
 46 47  1  0  0  0  0
 46 44  2  0  0  0  0
 47 41  2  0  0  0  0
 48 37  2  0  0  0  0
 48 47  1  0  0  0  0
M  END
>  <minimizedAffinity>
-5.79847956

$$$$

 OpenBabel03252509023D

 48 51  0  0  1  0  0  0  0  0999 V2000
   38.1050   28.7550   37.9410 N   0  0  0  0  0  0  0  0  0  0  0  0
   37.9420   28.0320   36.7300 C   0  0  0  0  0  0  0  0  0  0  0  0
   36.7190   28.3940   35.9240 C   0  0  0  0  0  0  0  0  0  0  0  0
   36.2990   29.8360   36.0370 C   0  0  0  0  0  0  0  0  0  0  0  0
   37.2880   30.6370   36.8490 C   0  0  0  0  0  0  0  0  0  0  0  0
   37.3330   29.8690   38.2200 C   0  0  2  0  0  0  0  0  0  0  0  0
   38.8200   28.2980   36.0890 H   0  0  0  0  0  0  0  0  0  0  0  0
   37.9560   26.9440   36.8170 H   0  0  0  0  0  0  0  0  0  0  0  0
   36.9510   28.2280   34.8300 H   0  0  0  0  0  0  0  0  0  0  0  0
   35.8770   27.7020   36.1420 H   0  0  0  0  0  0  0  0  0  0  0  0
   36.0650   30.3260   35.0910 H   0  0  0  0  0  0  0  0  0  0  0  0
   35.3420   29.8400   36.6210 H   0  0  0  0  0  0  0  0  0  0  0  0
   38.2920   30.6650   36.4200 H   0  0  0  0  0  0  0  0  0  0  0  0
   36.8470   31.6180   37.0990 H   0  0  0  0  0  0  0  0  0  0  0  0
   36.2770   29.7260   38.5300 H   0  0  0  0  0  0  0  0  0  0  0  0
   38.6050   27.9690   39.0310 C   0  0  0  0  0  0  0  0  0  0  0  0
   39.3740   27.2740   38.6460 H   0  0  0  0  0  0  0  0  0  0  0  0
   39.0880   28.6620   39.7590 H   0  0  0  0  0  0  0  0  0  0  0  0
   37.4550   27.3020   39.7140 C   0  0  0  0  0  0  0  0  0  0  0  0
   36.9650   27.9230   40.4810 H   0  0  0  0  0  0  0  0  0  0  0  0
   36.6720   27.0080   38.9710 H   0  0  0  0  0  0  0  0  0  0  0  0
   37.4780   24.1030   41.6900 C   0  0  0  0  0  0  0  0  0  0  0  0
   37.0520   25.3100   41.1050 C   0  0  0  0  0  0  0  0  0  0  0  0
   37.9240   26.0300   40.3250 C   0  0  0  0  0  0  0  0  0  0  0  0
   39.1600   25.5400   40.1570 N   0  0  0  0  0  0  0  0  0  0  0  0
   39.5660   24.3830   40.7190 C   0  0  0  0  0  0  0  0  0  0  0  0
   38.7390   23.6600   41.4830 N   0  0  0  0  0  0  0  0  0  0  0  0
   36.8040   23.5330   42.3000 H   0  0  0  0  0  0  0  0  0  0  0  0
   36.0400   25.6600   41.2740 H   0  0  0  0  0  0  0  0  0  0  0  0
   40.5840   24.0620   40.5290 H   0  0  0  0  0  0  0  0  0  0  0  0
   38.0040   30.7740   39.0290 O   0  0  0  0  0  0  0  0  0  0  0  0
   35.8020   30.4290   40.4800 O   0  0  0  0  0  0  0  0  0  0  0  0
   37.1550   31.1530   40.4280 P   0  0  2  0  0  0  0  0  0  0  0  0
   36.7500   32.8120   40.3040 O   0  0  0  0  0  0  0  0  0  0  0  0
   35.9370   32.9780   40.8110 H   0  0  0  0  0  0  0  0  0  0  0  0
   38.0540   30.9390   41.8070 O   0  0  0  0  0  0  0  0  0  0  0  0
   37.5760   29.0050   43.0620 C   0  0  0  0  0  3  0  0  0  0  0  0
   38.4970   29.7590   42.3370 C   0  0  0  0  0  0  0  0  0  0  0  0
   39.7730   29.2280   42.2310 C   0  0  0  0  0  0  0  0  0  0  0  0
   40.4900   29.8150   41.6670 H   0  0  0  0  0  0  0  0  0  0  0  0
   40.1430   28.0390   42.7910 C   0  0  0  0  0  0  0  0  0  0  0  0
   41.2920   27.3570   42.8120 N   0  0  0  0  0  0  0  0  0  0  0  0
   42.1980   27.6240   42.3700 H   0  0  0  0  0  0  0  0  0  0  0  0
   41.1050   26.2310   43.5140 C   0  0  0  0  0  0  0  0  0  0  0  0
   41.8680   25.4810   43.6970 H   0  0  0  0  0  0  0  0  0  0  0  0
   39.8060   26.1420   43.9800 C   0  0  0  0  0  3  0  0  0  0  0  0
   39.2180   27.3030   43.5070 C   0  0  0  0  0  0  0  0  0  0  0  0
   37.9320   27.8110   43.6290 C   0  0  0  0  0  3  0  0  0  0  0  0
  1  6  1  0  0  0  0
  1 16  1  0  0  0  0
  2  8  1  0  0  0  0
  2  1  1  0  0  0  0
  3  4  1  0  0  0  0
  3 10  1  0  0  0  0
  3  2  1  0  0  0  0
  4 12  1  0  0  0  0
  4  5  1  0  0  0  0
  5 14  1  0  0  0  0
  5  6  1  0  0  0  0
  6 15  1  1  0  0  0
  6 31  1  0  0  0  0
  7  2  1  0  0  0  0
  9  3  1  0  0  0  0
 11  4  1  0  0  0  0
 13  5  1  0  0  0  0
 16 19  1  0  0  0  0
 16 18  1  0  0  0  0
 17 16  1  0  0  0  0
 19 24  1  0  0  0  0
 19 20  1  0  0  0  0
 21 19  1  0  0  0  0
 22 28  1  0  0  0  0
 23 29  1  0  0  0  0
 23 22  2  0  0  0  0
 24 23  1  0  0  0  0
 25 24  2  0  0  0  0
 25 26  1  0  0  0  0
 26 27  2  0  0  0  0
 27 22  1  0  0  0  0
 30 26  1  0  0  0  0
 31 33  1  0  0  0  0
 33 32  2  1  0  0  0
 33 36  1  0  0  0  0
 34 33  1  0  0  0  0
 34 35  1  0  0  0  0
 36 38  1  0  0  0  0
 37 48  1  0  0  0  0
 38 37  2  0  0  0  0
 39 38  1  0  0  0  0
 39 41  2  0  0  0  0
 40 39  1  0  0  0  0
 41 42  1  0  0  0  0
 41 47  1  0  0  0  0
 42 44  1  0  0  0  0
 43 42  1  0  0  0  0
 44 45  1  0  0  0  0
 44 46  2  0  0  0  0
 47 48  2  0  0  0  0
 47 46  1  0  0  0  0
M  END
>  <minimizedAffinity>
-5.7653842

$$$$
