
 OpenBabel03242518283D

 18 19  0  0  0  0  0  0  0  0999 V2000
   46.4710   34.7770   43.1510 C   0  0  0  0  0  0  0  0  0  0  0  0
   45.5850   35.8490   43.0790 C   0  0  0  0  0  0  0  0  0  0  0  0
   44.6760   35.9940   44.1460 C   0  0  0  0  0  0  0  0  0  0  0  0
   44.7170   35.0900   45.1660 N   0  0  0  0  0  0  0  0  0  0  0  0
   45.6140   34.0610   45.1690 C   0  0  0  0  0  0  0  0  0  0  0  0
   46.4810   33.9180   44.1570 N   0  0  0  0  0  0  0  0  0  0  0  0
   45.5140   36.5870   42.2990 H   0  0  0  0  0  0  0  0  0  0  0  0
   43.9680   36.8140   44.1330 H   0  0  0  0  0  0  0  0  0  0  0  0
   45.6690   33.3340   45.9580 H   0  0  0  0  0  0  0  0  0  0  0  0
   47.3570   34.7140   42.0190 C   0  0  0  0  0  0  0  0  0  0  0  0
   48.1950   35.5880   41.6650 O   0  0  0  0  0  0  0  0  0  0  0  0
   47.2630   33.5630   41.2500 O   0  0  0  0  0  0  0  0  0  0  0  0
   47.2670   33.6260   39.8730 C   0  0  0  0  0  0  0  0  0  0  0  0
   48.1690   34.1850   39.0520 C   0  0  0  0  0  0  0  0  0  0  0  0
   49.0570   34.6820   39.4600 H   0  0  0  0  0  0  0  0  0  0  0  0
   47.9770   34.1340   37.6960 C   0  0  0  0  0  0  0  0  0  0  0  0
   46.8300   33.4900   37.2550 C   0  0  0  0  0  0  0  0  0  0  0  0
   45.9600   32.9160   38.8330 S   0  0  0  0  0  0  0  0  0  0  0  0
  1  6  1  0  0  0  0
  2  1  2  0  0  0  0
  2  3  1  0  0  0  0
  3  4  2  0  0  0  0
  4  5  1  0  0  0  0
  5  9  1  0  0  0  0
  6  5  2  0  0  0  0
  7  2  1  0  0  0  0
  8  3  1  0  0  0  0
 10  1  1  0  0  0  0
 11 10  2  0  0  0  0
 12 10  1  0  0  0  0
 13 12  1  0  0  0  0
 14 15  1  0  0  0  0
 14 13  2  0  0  0  0
 16 14  1  0  0  0  0
 17 16  2  0  0  0  0
 17 18  1  0  0  0  0
 18 13  1  0  0  0  0
M  END
>  <minimizedAffinity>
-4.1312418

>  <minimizedRMSD>
0.672340691

$$$$
