
 OpenBabel03252508543D

 40 43  0  0  1  0  0  0  0  0999 V2000
   43.4020   34.4860   40.7590 C   0  0  0  0  0  0  0  0  0  0  0  0
   43.3050   35.7530   40.6140 O   0  0  0  0  0  0  0  0  0  0  0  0
   42.0730   34.1090   40.3220 N   0  0  0  0  0  0  0  0  0  0  0  0
   41.7390   34.4700   38.9640 C   0  0  0  0  0  0  0  0  0  0  0  0
   40.8780   35.7320   39.0980 C   0  0  0  0  0  0  0  0  0  0  0  0
   40.0320   35.5430   40.3650 C   0  0  0  0  0  0  0  0  0  0  0  0
   39.7470   34.0600   40.6190 C   0  0  0  0  0  0  0  0  0  0  0  0
   41.0310   33.4080   41.0910 C   0  0  1  0  0  0  0  0  0  0  0  0
   41.1230   33.6890   38.4730 H   0  0  0  0  0  0  0  0  0  0  0  0
   42.6100   34.7690   38.3640 H   0  0  0  0  0  0  0  0  0  0  0  0
   41.5790   36.5900   39.2580 H   0  0  0  0  0  0  0  0  0  0  0  0
   40.2320   35.8820   38.2060 H   0  0  0  0  0  0  0  0  0  0  0  0
   39.1270   36.1360   40.2560 H   0  0  0  0  0  0  0  0  0  0  0  0
   40.5910   35.9280   41.2490 H   0  0  0  0  0  0  0  0  0  0  0  0
   39.4470   33.6330   39.6500 H   0  0  0  0  0  0  0  0  0  0  0  0
   38.9350   34.0310   41.3670 H   0  0  0  0  0  0  0  0  0  0  0  0
   41.1860   33.7720   42.1320 H   0  0  0  0  0  0  0  0  0  0  0  0
   41.1070   32.0250   40.9940 C   0  0  0  0  0  0  0  0  0  0  0  0
   40.6090   31.0410   40.1680 C   0  0  0  0  0  0  0  0  0  0  0  0
   39.9860   31.4050   39.3720 H   0  0  0  0  0  0  0  0  0  0  0  0
   40.8750   29.7130   40.3350 C   0  0  0  0  0  3  0  0  0  0  0  0
   41.7750   29.3970   41.5180 C   0  0  0  0  0  3  0  0  0  0  0  0
   42.0790   31.1430   42.1900 S   0  0  0  0  0  0  0  0  0  0  0  0
   44.4750   33.7720   41.2020 O   0  0  0  0  0  0  0  0  0  0  0  0
   45.8040   34.1170   41.0550 C   0  0  0  0  0  0  0  0  0  0  0  0
   46.4350   34.7460   42.1410 C   0  0  0  0  0  0  0  0  0  0  0  0
   47.7850   35.0860   41.9670 C   0  0  0  0  0  0  0  0  0  0  0  0
   48.3940   34.7930   40.7760 N   0  0  0  0  0  0  0  0  0  0  0  0
   47.7430   34.1970   39.7870 C   0  0  0  0  0  0  0  0  0  0  0  0
   46.4440   33.8520   39.9130 N   0  0  0  0  0  0  0  0  0  0  0  0
   48.2860   35.5700   42.7910 H   0  0  0  0  0  0  0  0  0  0  0  0
   48.2460   33.9730   38.8490 H   0  0  0  0  0  0  0  0  0  0  0  0
   45.6980   35.0110   43.3570 C   0  0  0  0  0  0  0  0  0  0  0  0
   45.0570   36.2220   43.5980 C   0  0  0  0  0  0  0  0  0  0  0  0
   44.4900   36.0640   44.8340 C   0  0  0  0  0  0  0  0  0  0  0  0
   44.7660   34.8290   45.3250 N   0  0  0  0  0  0  0  0  0  0  0  0
   45.4950   34.2280   44.4050 N   0  0  0  0  0  0  0  0  0  0  0  0
   44.9970   37.1080   42.9780 H   0  0  0  0  0  0  0  0  0  0  0  0
   43.8940   36.7520   45.4210 H   0  0  0  0  0  0  0  0  0  0  0  0
   44.5180   34.3380   46.2170 H   0  0  0  0  0  0  0  0  0  0  0  0
  1 24  1  0  0  0  0
  2  1  2  0  0  0  0
  3  1  1  0  0  0  0
  3  8  1  0  0  0  0
  4  5  1  0  0  0  0
  4  3  1  0  0  0  0
  5 11  1  0  0  0  0
  5  6  1  0  0  0  0
  6  7  1  0  0  0  0
  6 14  1  0  0  0  0
  7  8  1  0  0  0  0
  7 16  1  0  0  0  0
  8 17  1  1  0  0  0
  9  4  1  0  0  0  0
 10  4  1  0  0  0  0
 12  5  1  0  0  0  0
 13  6  1  0  0  0  0
 15  7  1  0  0  0  0
 18  8  1  0  0  0  0
 18 23  1  0  0  0  0
 19 21  1  0  0  0  0
 19 18  2  0  0  0  0
 20 19  1  0  0  0  0
 21 22  2  0  0  0  0
 22 23  1  0  0  0  0
 25 24  1  0  0  0  0
 25 26  1  0  0  0  0
 26 33  1  0  0  0  0
 27 26  2  0  0  0  0
 27 31  1  0  0  0  0
 28 27  1  0  0  0  0
 29 30  1  0  0  0  0
 29 28  2  0  0  0  0
 30 25  2  0  0  0  0
 32 29  1  0  0  0  0
 33 34  1  0  0  0  0
 33 37  2  0  0  0  0
 34 35  2  0  0  0  0
 35 36  1  0  0  0  0
 35 39  1  0  0  0  0
 36 40  1  0  0  0  0
 37 36  1  0  0  0  0
 38 34  1  0  0  0  0
M  END
>  <minimizedAffinity>
-6.44045591

>  <minimizedRMSD>
0.254732192

$$$$
