
 OpenBabel03242515583D

 34 37  0  0  0  0  0  0  0  0999 V2000
   36.9830   26.5810   39.7150 C   0  0  0  0  0  0  0  0  0  0  0  0
   36.8570   25.1710   39.8180 C   0  0  0  0  0  0  0  0  0  0  0  0
   36.8420   24.4920   41.0130 C   0  0  0  0  0  0  0  0  0  0  0  0
   36.9510   25.1630   42.1800 C   0  0  0  0  0  0  0  0  0  0  0  0
   37.0800   26.5520   42.1440 C   0  0  0  0  0  0  0  0  0  0  0  0
   37.1860   27.1760   43.3450 C   0  0  0  0  0  0  0  0  0  0  0  0
   37.3190   28.5510   43.3780 C   0  0  0  0  0  0  0  0  0  0  0  0
   37.3410   29.2080   42.1530 C   0  0  0  0  0  0  0  0  0  0  0  0
   37.2300   28.5060   41.0100 C   0  0  0  0  0  0  0  0  0  0  0  0
   37.0930   27.1910   40.9270 C   0  0  0  0  0  0  0  0  0  0  0  0
   36.7660   24.5880   38.9130 H   0  0  0  0  0  0  0  0  0  0  0  0
   36.7430   23.4190   41.0030 H   0  0  0  0  0  0  0  0  0  0  0  0
   36.9370   24.6230   43.1110 H   0  0  0  0  0  0  0  0  0  0  0  0
   37.1620   26.5730   44.2820 H   0  0  0  0  0  0  0  0  0  0  0  0
   37.3930   28.9370   44.4120 H   0  0  0  0  0  0  0  0  0  0  0  0
   37.4630   30.2240   42.4850 H   0  0  0  0  0  0  0  0  0  0  0  0
   38.2920   27.7700   36.5830 C   0  0  0  0  0  0  0  0  0  0  0  0
   37.1380   28.3560   35.9720 C   0  0  0  0  0  0  0  0  0  0  0  0
   35.8870   28.3610   36.6560 C   0  0  0  0  0  0  0  0  0  0  0  0
   35.8640   27.8000   37.8690 N   0  0  0  0  0  0  0  0  0  0  0  0
   36.9060   27.2600   38.4420 C   0  0  0  0  0  0  0  0  0  0  0  0
   38.1160   27.2490   37.7930 N   0  0  0  0  0  0  0  0  0  0  0  0
   39.2210   27.7830   36.0370 H   0  0  0  0  0  0  0  0  0  0  0  0
   35.1100   28.8230   36.0860 H   0  0  0  0  0  0  0  0  0  0  0  0
   37.3240   28.9110   34.6810 N   0  0  0  0  0  0  0  0  0  0  0  0
   38.2340   29.4410   34.5280 H   0  0  0  0  0  0  0  0  0  0  0  0
   36.5160   28.7050   34.0730 H   0  0  0  0  0  0  0  0  0  0  0  0
   37.2980   29.3980   39.9830 O   0  0  0  0  0  0  0  0  0  0  0  0
   37.8620   30.7300   40.1420 C   0  0  0  0  0  0  0  0  0  0  0  0
   37.0390   31.6070   39.6230 C   0  0  0  0  0  0  0  0  0  0  0  0
   36.0720   31.6930   39.0930 H   0  0  0  0  0  0  0  0  0  0  0  0
   37.3240   32.9300   39.6280 C   0  0  0  0  0  3  0  0  0  0  0  0
   38.5250   33.3290   40.2050 C   0  0  0  0  0  3  0  0  0  0  0  0
   39.1580   31.6320   40.7140 S   0  0  0  0  0  0  0  0  0  0  0  0
  1  2  2  0  0  0  0
  1 10  1  0  0  0  0
  2  3  1  0  0  0  0
  3  4  2  0  0  0  0
  4 13  1  0  0  0  0
  5  4  1  0  0  0  0
  5  6  1  0  0  0  0
  6  7  2  0  0  0  0
  6 14  1  0  0  0  0
  7 15  1  0  0  0  0
  8 16  1  0  0  0  0
  8  7  1  0  0  0  0
  9  8  2  0  0  0  0
 10  9  1  0  0  0  0
 10  5  2  0  0  0  0
 11  2  1  0  0  0  0
 12  3  1  0  0  0  0
 17 22  1  0  0  0  0
 18 17  2  0  0  0  0
 18 19  1  0  0  0  0
 19 20  2  0  0  0  0
 20 21  1  0  0  0  0
 21  1  1  0  0  0  0
 22 21  2  0  0  0  0
 23 17  1  0  0  0  0
 24 19  1  0  0  0  0
 25 18  1  0  0  0  0
 26 25  1  0  0  0  0
 27 25  1  0  0  0  0
 28 29  1  0  0  0  0
 28  9  1  0  0  0  0
 29 34  1  0  0  0  0
 30 32  1  0  0  0  0
 30 29  2  0  0  0  0
 31 30  1  0  0  0  0
 32 33  2  0  0  0  0
 33 34  1  0  0  0  0
M  END
>  <minimizedAffinity>
-6.26546955

$$$$

 OpenBabel03242515583D

 34 37  0  0  0  0  0  0  0  0999 V2000
   37.7480   29.1640   41.1450 C   0  0  0  0  0  0  0  0  0  0  0  0
   38.0130   29.5880   42.4740 C   0  0  0  0  0  0  0  0  0  0  0  0
   37.9590   28.7540   43.5660 C   0  0  0  0  0  0  0  0  0  0  0  0
   37.6400   27.4520   43.4140 C   0  0  0  0  0  0  0  0  0  0  0  0
   37.3670   26.9740   42.1310 C   0  0  0  0  0  0  0  0  0  0  0  0
   37.0520   25.6570   42.0360 C   0  0  0  0  0  0  0  0  0  0  0  0
   36.7680   25.1230   40.7930 C   0  0  0  0  0  0  0  0  0  0  0  0
   36.8210   25.9930   39.7100 C   0  0  0  0  0  0  0  0  0  0  0  0
   37.1430   27.2860   39.9000 C   0  0  0  0  0  0  0  0  0  0  0  0
   37.4300   27.8420   41.0670 C   0  0  0  0  0  0  0  0  0  0  0  0
   38.2730   30.6220   42.6480 H   0  0  0  0  0  0  0  0  0  0  0  0
   38.1750   29.1580   44.5410 H   0  0  0  0  0  0  0  0  0  0  0  0
   37.6020   26.8060   44.2750 H   0  0  0  0  0  0  0  0  0  0  0  0
   37.0300   25.0290   42.9560 H   0  0  0  0  0  0  0  0  0  0  0  0
   36.5300   24.0440   40.8490 H   0  0  0  0  0  0  0  0  0  0  0  0
   36.5510   25.3210   38.9140 H   0  0  0  0  0  0  0  0  0  0  0  0
   39.5210   30.6180   38.3750 C   0  0  0  0  0  0  0  0  0  0  0  0
   38.5410   31.4960   37.8120 C   0  0  0  0  0  0  0  0  0  0  0  0
   37.2490   31.6070   38.4060 C   0  0  0  0  0  0  0  0  0  0  0  0
   37.0220   30.8600   39.4890 N   0  0  0  0  0  0  0  0  0  0  0  0
   37.9020   30.0530   40.0180 C   0  0  0  0  0  0  0  0  0  0  0  0
   39.1500   29.9380   39.4550 N   0  0  0  0  0  0  0  0  0  0  0  0
   40.4860   30.5590   37.9000 H   0  0  0  0  0  0  0  0  0  0  0  0
   36.6150   32.2900   37.8830 H   0  0  0  0  0  0  0  0  0  0  0  0
   38.9360   32.2220   36.6600 N   0  0  0  0  0  0  0  0  0  0  0  0
   39.9310   32.5990   36.6640 H   0  0  0  0  0  0  0  0  0  0  0  0
   38.1660   32.2700   35.9750 H   0  0  0  0  0  0  0  0  0  0  0  0
   37.1010   27.8930   38.6820 O   0  0  0  0  0  0  0  0  0  0  0  0
   35.9480   27.7940   37.7990 C   0  0  0  0  0  0  0  0  0  0  0  0
   34.9600   28.4890   38.3070 C   0  0  0  0  0  0  0  0  0  0  0  0
   34.6870   29.1150   39.1770 H   0  0  0  0  0  0  0  0  0  0  0  0
   33.7590   28.5620   37.6880 C   0  0  0  0  0  3  0  0  0  0  0  0
   33.6060   27.8710   36.4910 C   0  0  0  0  0  3  0  0  0  0  0  0
   35.3360   27.1380   36.3790 S   0  0  0  0  0  0  0  0  0  0  0  0
  1  2  1  0  0  0  0
  2 11  1  0  0  0  0
  2  3  2  0  0  0  0
  3 12  1  0  0  0  0
  4  3  1  0  0  0  0
  4 13  1  0  0  0  0
  5  4  2  0  0  0  0
  6  5  1  0  0  0  0
  6 14  1  0  0  0  0
  7 15  1  0  0  0  0
  7  6  2  0  0  0  0
  8  9  2  0  0  0  0
  8  7  1  0  0  0  0
  9 10  1  0  0  0  0
 10  1  2  0  0  0  0
 10  5  1  0  0  0  0
 16  8  1  0  0  0  0
 17 22  1  0  0  0  0
 18 17  2  0  0  0  0
 18 19  1  0  0  0  0
 19 20  2  0  0  0  0
 20 21  1  0  0  0  0
 21  1  1  0  0  0  0
 22 21  2  0  0  0  0
 23 17  1  0  0  0  0
 24 19  1  0  0  0  0
 25 26  1  0  0  0  0
 25 18  1  0  0  0  0
 27 25  1  0  0  0  0
 28  9  1  0  0  0  0
 29 30  2  0  0  0  0
 29 28  1  0  0  0  0
 30 31  1  0  0  0  0
 32 30  1  0  0  0  0
 33 32  2  0  0  0  0
 34 33  1  0  0  0  0
 34 29  1  0  0  0  0
M  END
>  <minimizedAffinity>
-5.99739122

$$$$

 OpenBabel03242515583D

 34 37  0  0  0  0  0  0  0  0999 V2000
   36.9590   27.2020   40.8280 C   0  0  0  0  0  0  0  0  0  0  0  0
   37.2530   26.6160   42.0880 C   0  0  0  0  0  0  0  0  0  0  0  0
   37.1890   25.2650   42.3350 C   0  0  0  0  0  0  0  0  0  0  0  0
   36.8300   24.4090   41.3540 C   0  0  0  0  0  0  0  0  0  0  0  0
   36.5280   24.9250   40.0920 C   0  0  0  0  0  0  0  0  0  0  0  0
   36.1740   24.0200   39.1440 C   0  0  0  0  0  0  0  0  0  0  0  0
   35.8590   24.4670   37.8740 C   0  0  0  0  0  0  0  0  0  0  0  0
   35.9240   25.8390   37.6590 C   0  0  0  0  0  0  0  0  0  0  0  0
   36.2850   26.6620   38.6610 C   0  0  0  0  0  0  0  0  0  0  0  0
   36.6020   26.2820   39.8890 C   0  0  0  0  0  0  0  0  0  0  0  0
   37.5450   27.2590   42.9060 H   0  0  0  0  0  0  0  0  0  0  0  0
   37.4280   24.9030   43.3200 H   0  0  0  0  0  0  0  0  0  0  0  0
   36.7840   23.3530   41.5560 H   0  0  0  0  0  0  0  0  0  0  0  0
   36.1450   22.9360   39.4010 H   0  0  0  0  0  0  0  0  0  0  0  0
   35.5910   23.6350   37.1960 H   0  0  0  0  0  0  0  0  0  0  0  0
   35.6250   25.8830   36.6260 H   0  0  0  0  0  0  0  0  0  0  0  0
   35.9550   30.6530   40.9410 C   0  0  0  0  0  0  0  0  0  0  0  0
   37.0990   31.3220   40.3990 C   0  0  0  0  0  0  0  0  0  0  0  0
   38.2330   30.5720   39.9690 C   0  0  0  0  0  0  0  0  0  0  0  0
   38.1590   29.2450   40.0990 N   0  0  0  0  0  0  0  0  0  0  0  0
   37.1250   28.6160   40.5900 C   0  0  0  0  0  0  0  0  0  0  0  0
   36.0270   29.3270   41.0090 N   0  0  0  0  0  0  0  0  0  0  0  0
   35.1170   31.2510   41.2570 H   0  0  0  0  0  0  0  0  0  0  0  0
   39.0170   31.1940   39.5930 H   0  0  0  0  0  0  0  0  0  0  0  0
   37.0240   32.7360   40.3270 N   0  0  0  0  0  0  0  0  0  0  0  0
   36.0840   33.1380   40.0320 H   0  0  0  0  0  0  0  0  0  0  0  0
   37.9280   33.1650   40.5810 H   0  0  0  0  0  0  0  0  0  0  0  0
   36.2450   27.9320   38.1710 O   0  0  0  0  0  0  0  0  0  0  0  0
   35.1730   28.4020   37.3060 C   0  0  0  0  0  0  0  0  0  0  0  0
   34.1020   28.6140   38.0300 C   0  0  0  0  0  0  0  0  0  0  0  0
   33.7190   28.5500   39.0660 H   0  0  0  0  0  0  0  0  0  0  0  0
   32.9490   29.0520   37.4720 C   0  0  0  0  0  3  0  0  0  0  0  0
   32.9390   29.2690   36.0990 C   0  0  0  0  0  3  0  0  0  0  0  0
   34.7210   28.7840   35.7350 S   0  0  0  0  0  0  0  0  0  0  0  0
  1  2  1  0  0  0  0
  2  3  2  0  0  0  0
  2 11  1  0  0  0  0
  3 12  1  0  0  0  0
  4 13  1  0  0  0  0
  4  3  1  0  0  0  0
  5  4  2  0  0  0  0
  6 14  1  0  0  0  0
  6  5  1  0  0  0  0
  7  6  2  0  0  0  0
  8  7  1  0  0  0  0
  8  9  2  0  0  0  0
  9 10  1  0  0  0  0
 10  5  1  0  0  0  0
 10  1  2  0  0  0  0
 15  7  1  0  0  0  0
 16  8  1  0  0  0  0
 17 22  1  0  0  0  0
 17 23  1  0  0  0  0
 18 17  2  0  0  0  0
 19 20  2  0  0  0  0
 19 18  1  0  0  0  0
 20 21  1  0  0  0  0
 21  1  1  0  0  0  0
 21 22  2  0  0  0  0
 24 19  1  0  0  0  0
 25 18  1  0  0  0  0
 25 27  1  0  0  0  0
 26 25  1  0  0  0  0
 28  9  1  0  0  0  0
 29 30  2  0  0  0  0
 29 28  1  0  0  0  0
 30 31  1  0  0  0  0
 32 30  1  0  0  0  0
 33 32  2  0  0  0  0
 34 33  1  0  0  0  0
 34 29  1  0  0  0  0
M  END
>  <minimizedAffinity>
-5.93755817

$$$$

 OpenBabel03242515583D

 34 37  0  0  0  0  0  0  0  0999 V2000
   36.4900   27.4010   39.6550 C   0  0  0  0  0  0  0  0  0  0  0  0
   35.8590   26.9380   38.4710 C   0  0  0  0  0  0  0  0  0  0  0  0
   35.6960   25.6080   38.1620 C   0  0  0  0  0  0  0  0  0  0  0  0
   36.1460   24.6540   39.0040 C   0  0  0  0  0  0  0  0  0  0  0  0
   36.7770   25.0460   40.1860 C   0  0  0  0  0  0  0  0  0  0  0  0
   37.2090   24.0450   40.9950 C   0  0  0  0  0  0  0  0  0  0  0  0
   37.8460   24.3670   42.1790 C   0  0  0  0  0  0  0  0  0  0  0  0
   38.0040   25.7210   42.4580 C   0  0  0  0  0  0  0  0  0  0  0  0
   37.5420   26.6450   41.5950 C   0  0  0  0  0  0  0  0  0  0  0  0
   36.9210   26.3870   40.4540 C   0  0  0  0  0  0  0  0  0  0  0  0
   35.4810   27.6640   37.7640 H   0  0  0  0  0  0  0  0  0  0  0  0
   35.2050   25.3430   37.2410 H   0  0  0  0  0  0  0  0  0  0  0  0
   36.0130   23.6150   38.7550 H   0  0  0  0  0  0  0  0  0  0  0  0
   37.0440   22.9850   40.6950 H   0  0  0  0  0  0  0  0  0  0  0  0
   38.1460   23.4670   42.7480 H   0  0  0  0  0  0  0  0  0  0  0  0
   38.5220   25.6610   43.3990 H   0  0  0  0  0  0  0  0  0  0  0  0
   37.7340   30.7570   39.3030 C   0  0  0  0  0  0  0  0  0  0  0  0
   36.9230   31.4830   40.2330 C   0  0  0  0  0  0  0  0  0  0  0  0
   35.9400   30.8040   41.0120 C   0  0  0  0  0  0  0  0  0  0  0  0
   35.8300   29.4870   40.8230 N   0  0  0  0  0  0  0  0  0  0  0  0
   36.5600   28.8070   39.9800 C   0  0  0  0  0  0  0  0  0  0  0  0
   37.5100   29.4490   39.2230 N   0  0  0  0  0  0  0  0  0  0  0  0
   38.4660   31.3010   38.7300 H   0  0  0  0  0  0  0  0  0  0  0  0
   35.4030   31.4640   41.6580 H   0  0  0  0  0  0  0  0  0  0  0  0
   37.1610   32.8780   40.3170 N   0  0  0  0  0  0  0  0  0  0  0  0
   38.1800   33.1810   40.2750 H   0  0  0  0  0  0  0  0  0  0  0  0
   36.2740   33.3960   40.4110 H   0  0  0  0  0  0  0  0  0  0  0  0
   37.8480   27.8660   42.1130 O   0  0  0  0  0  0  0  0  0  0  0  0
   39.2150   28.3590   42.1960 C   0  0  0  0  0  0  0  0  0  0  0  0
   39.1920   29.6240   42.5350 C   0  0  0  0  0  0  0  0  0  0  0  0
   38.5010   30.4560   42.7690 H   0  0  0  0  0  0  0  0  0  0  0  0
   40.3350   30.3360   42.6770 C   0  0  0  0  0  3  0  0  0  0  0  0
   41.5380   29.6770   42.4490 C   0  0  0  0  0  3  0  0  0  0  0  0
   40.8420   27.9810   42.0250 S   0  0  0  0  0  0  0  0  0  0  0  0
  1 21  1  0  0  0  0
  1 10  1  0  0  0  0
  2  1  2  0  0  0  0
  3  2  1  0  0  0  0
  3  4  2  0  0  0  0
  4  5  1  0  0  0  0
  5 10  2  0  0  0  0
  5  6  1  0  0  0  0
  6  7  2  0  0  0  0
  7  8  1  0  0  0  0
  7 15  1  0  0  0  0
  8 16  1  0  0  0  0
  9 28  1  0  0  0  0
  9  8  2  0  0  0  0
 10  9  1  0  0  0  0
 11  2  1  0  0  0  0
 12  3  1  0  0  0  0
 13  4  1  0  0  0  0
 14  6  1  0  0  0  0
 17 18  1  0  0  0  0
 18 25  1  0  0  0  0
 18 19  2  0  0  0  0
 19 24  1  0  0  0  0
 20 19  1  0  0  0  0
 21 20  2  0  0  0  0
 22 17  2  0  0  0  0
 22 21  1  0  0  0  0
 23 17  1  0  0  0  0
 25 27  1  0  0  0  0
 26 25  1  0  0  0  0
 28 29  1  0  0  0  0
 29 30  2  0  0  0  0
 30 32  1  0  0  0  0
 30 31  1  0  0  0  0
 33 32  2  0  0  0  0
 34 29  1  0  0  0  0
 34 33  1  0  0  0  0
M  END
>  <minimizedAffinity>
-5.89723539

$$$$

 OpenBabel03242515583D

 34 37  0  0  0  0  0  0  0  0999 V2000
   38.2090   27.9400   42.1370 C   0  0  0  0  0  0  0  0  0  0  0  0
   39.1670   27.8980   43.1840 C   0  0  0  0  0  0  0  0  0  0  0  0
   39.7060   26.7340   43.6790 C   0  0  0  0  0  0  0  0  0  0  0  0
   39.3310   25.5400   43.1730 C   0  0  0  0  0  0  0  0  0  0  0  0
   38.3900   25.5150   42.1410 C   0  0  0  0  0  0  0  0  0  0  0  0
   38.0510   24.2880   41.6700 C   0  0  0  0  0  0  0  0  0  0  0  0
   37.1210   24.1950   40.6510 C   0  0  0  0  0  0  0  0  0  0  0  0
   36.5880   25.3890   40.1780 C   0  0  0  0  0  0  0  0  0  0  0  0
   36.9850   26.5610   40.7080 C   0  0  0  0  0  0  0  0  0  0  0  0
   37.8760   26.7020   41.6780 C   0  0  0  0  0  0  0  0  0  0  0  0
   39.5000   28.8270   43.6230 H   0  0  0  0  0  0  0  0  0  0  0  0
   40.4280   26.7910   44.4760 H   0  0  0  0  0  0  0  0  0  0  0  0
   39.7590   24.6340   43.5660 H   0  0  0  0  0  0  0  0  0  0  0  0
   38.5250   23.3800   42.1070 H   0  0  0  0  0  0  0  0  0  0  0  0
   36.9330   23.1460   40.3550 H   0  0  0  0  0  0  0  0  0  0  0  0
   35.9130   25.0120   39.4290 H   0  0  0  0  0  0  0  0  0  0  0  0
   38.4370   30.8680   40.0610 C   0  0  0  0  0  0  0  0  0  0  0  0
   37.1700   31.4960   40.2800 C   0  0  0  0  0  0  0  0  0  0  0  0
   36.2230   30.9140   41.1720 C   0  0  0  0  0  0  0  0  0  0  0  0
   36.5860   29.7780   41.7740 N   0  0  0  0  0  0  0  0  0  0  0  0
   37.7370   29.1890   41.5880 C   0  0  0  0  0  0  0  0  0  0  0  0
   38.6570   29.7400   40.7300 N   0  0  0  0  0  0  0  0  0  0  0  0
   39.1280   31.3350   39.3800 H   0  0  0  0  0  0  0  0  0  0  0  0
   35.3190   31.4800   41.2370 H   0  0  0  0  0  0  0  0  0  0  0  0
   36.9340   32.6990   39.5660 N   0  0  0  0  0  0  0  0  0  0  0  0
   37.7610   33.3640   39.4880 H   0  0  0  0  0  0  0  0  0  0  0  0
   35.9610   32.7380   39.2250 H   0  0  0  0  0  0  0  0  0  0  0  0
   36.2930   27.5440   40.0690 O   0  0  0  0  0  0  0  0  0  0  0  0
   36.4620   27.8230   38.6510 C   0  0  0  0  0  0  0  0  0  0  0  0
   35.4390   28.5230   38.2280 C   0  0  0  0  0  0  0  0  0  0  0  0
   34.4830   28.9670   38.5640 H   0  0  0  0  0  0  0  0  0  0  0  0
   35.3380   28.9140   36.9360 C   0  0  0  0  0  3  0  0  0  0  0  0
   36.3610   28.5470   36.0690 C   0  0  0  0  0  3  0  0  0  0  0  0
   37.4350   27.6100   37.2980 S   0  0  0  0  0  0  0  0  0  0  0  0
  1  2  1  0  0  0  0
  2 11  1  0  0  0  0
  2  3  2  0  0  0  0
  3 12  1  0  0  0  0
  4 13  1  0  0  0  0
  4  3  1  0  0  0  0
  5  4  2  0  0  0  0
  6 14  1  0  0  0  0
  6  5  1  0  0  0  0
  7  6  2  0  0  0  0
  8  7  1  0  0  0  0
  8  9  2  0  0  0  0
  9 10  1  0  0  0  0
 10  1  2  0  0  0  0
 10  5  1  0  0  0  0
 15  7  1  0  0  0  0
 16  8  1  0  0  0  0
 17 18  2  0  0  0  0
 17 22  1  0  0  0  0
 18 19  1  0  0  0  0
 19 24  1  0  0  0  0
 19 20  2  0  0  0  0
 21 20  1  0  0  0  0
 21  1  1  0  0  0  0
 22 21  2  0  0  0  0
 23 17  1  0  0  0  0
 25 18  1  0  0  0  0
 26 25  1  0  0  0  0
 27 25  1  0  0  0  0
 28  9  1  0  0  0  0
 29 28  1  0  0  0  0
 30 31  1  0  0  0  0
 30 29  2  0  0  0  0
 32 30  1  0  0  0  0
 33 32  2  0  0  0  0
 33 34  1  0  0  0  0
 34 29  1  0  0  0  0
M  END
>  <minimizedAffinity>
-5.79325151

$$$$

 OpenBabel03242515583D

 34 37  0  0  0  0  0  0  0  0999 V2000
   37.7510   28.9880   41.6320 C   0  0  0  0  0  0  0  0  0  0  0  0
   37.7120   28.8400   43.0430 C   0  0  0  0  0  0  0  0  0  0  0  0
   37.4130   27.6570   43.6790 C   0  0  0  0  0  0  0  0  0  0  0  0
   37.1330   26.5490   42.9600 C   0  0  0  0  0  0  0  0  0  0  0  0
   37.1540   26.6320   41.5660 C   0  0  0  0  0  0  0  0  0  0  0  0
   36.8650   25.4880   40.8950 C   0  0  0  0  0  0  0  0  0  0  0  0
   36.8650   25.5030   39.5120 C   0  0  0  0  0  0  0  0  0  0  0  0
   37.1620   26.7160   38.8990 C   0  0  0  0  0  0  0  0  0  0  0  0
   37.4350   27.8000   39.6480 C   0  0  0  0  0  0  0  0  0  0  0  0
   37.4550   27.8340   40.9720 C   0  0  0  0  0  0  0  0  0  0  0  0
   37.9280   29.6980   43.6630 H   0  0  0  0  0  0  0  0  0  0  0  0
   37.4050   27.6310   44.7550 H   0  0  0  0  0  0  0  0  0  0  0  0
   36.9020   25.6280   43.4660 H   0  0  0  0  0  0  0  0  0  0  0  0
   36.6360   24.5580   41.4640 H   0  0  0  0  0  0  0  0  0  0  0  0
   36.6190   24.5130   39.0860 H   0  0  0  0  0  0  0  0  0  0  0  0
   37.0760   26.4310   37.8650 H   0  0  0  0  0  0  0  0  0  0  0  0
   37.1970   32.2640   40.2570 C   0  0  0  0  0  0  0  0  0  0  0  0
   38.5250   32.6890   39.9350 C   0  0  0  0  0  0  0  0  0  0  0  0
   39.6340   31.8260   40.1770 C   0  0  0  0  0  0  0  0  0  0  0  0
   39.3600   30.6310   40.7070 N   0  0  0  0  0  0  0  0  0  0  0  0
   38.1550   30.2260   41.0080 C   0  0  0  0  0  0  0  0  0  0  0  0
   37.0790   31.0470   40.7800 N   0  0  0  0  0  0  0  0  0  0  0  0
   36.3830   32.9420   40.0620 H   0  0  0  0  0  0  0  0  0  0  0  0
   40.5660   32.2690   39.8980 H   0  0  0  0  0  0  0  0  0  0  0  0
   38.6520   33.9870   39.3780 N   0  0  0  0  0  0  0  0  0  0  0  0
   37.9050   34.2670   38.6740 H   0  0  0  0  0  0  0  0  0  0  0  0
   39.4800   34.4700   39.7590 H   0  0  0  0  0  0  0  0  0  0  0  0
   37.6690   28.8320   38.7910 O   0  0  0  0  0  0  0  0  0  0  0  0
   37.4460   28.7200   37.3570 C   0  0  0  0  0  0  0  0  0  0  0  0
   36.8510   29.8060   36.9310 C   0  0  0  0  0  0  0  0  0  0  0  0
   36.4450   30.7750   37.2780 H   0  0  0  0  0  0  0  0  0  0  0  0
   36.5180   29.9640   35.6290 C   0  0  0  0  0  3  0  0  0  0  0  0
   36.8300   28.9290   34.7540 C   0  0  0  0  0  3  0  0  0  0  0  0
   37.6260   27.7570   35.9920 S   0  0  0  0  0  0  0  0  0  0  0  0
  1  2  1  0  0  0  0
  2 11  1  0  0  0  0
  2  3  2  0  0  0  0
  3 12  1  0  0  0  0
  4 13  1  0  0  0  0
  4  3  1  0  0  0  0
  5  4  2  0  0  0  0
  6 14  1  0  0  0  0
  6  5  1  0  0  0  0
  7  6  2  0  0  0  0
  8  7  1  0  0  0  0
  8  9  2  0  0  0  0
  9 10  1  0  0  0  0
 10  5  1  0  0  0  0
 10  1  2  0  0  0  0
 15  7  1  0  0  0  0
 16  8  1  0  0  0  0
 17 22  1  0  0  0  0
 18 19  1  0  0  0  0
 18 17  2  0  0  0  0
 19 20  2  0  0  0  0
 20 21  1  0  0  0  0
 21  1  1  0  0  0  0
 22 21  2  0  0  0  0
 23 17  1  0  0  0  0
 24 19  1  0  0  0  0
 25 27  1  0  0  0  0
 25 18  1  0  0  0  0
 26 25  1  0  0  0  0
 28  9  1  0  0  0  0
 29 28  1  0  0  0  0
 30 31  1  0  0  0  0
 30 29  2  0  0  0  0
 32 30  1  0  0  0  0
 33 32  2  0  0  0  0
 33 34  1  0  0  0  0
 34 29  1  0  0  0  0
M  END
>  <minimizedAffinity>
-5.72804689

$$$$

 OpenBabel03242515583D

 34 37  0  0  0  0  0  0  0  0999 V2000
   39.1580   29.6160   41.9830 C   0  0  0  0  0  0  0  0  0  0  0  0
   40.4720   29.7100   42.5130 C   0  0  0  0  0  0  0  0  0  0  0  0
   41.2520   30.8390   42.4260 C   0  0  0  0  0  0  0  0  0  0  0  0
   40.7820   31.9450   41.8090 C   0  0  0  0  0  0  0  0  0  0  0  0
   39.4970   31.9140   41.2650 C   0  0  0  0  0  0  0  0  0  0  0  0
   39.0760   33.0530   40.6570 C   0  0  0  0  0  0  0  0  0  0  0  0
   37.8140   33.0860   40.0950 C   0  0  0  0  0  0  0  0  0  0  0  0
   37.0530   31.9250   40.1920 C   0  0  0  0  0  0  0  0  0  0  0  0
   37.5550   30.8420   40.8140 C   0  0  0  0  0  0  0  0  0  0  0  0
   38.7530   30.7630   41.3730 C   0  0  0  0  0  0  0  0  0  0  0  0
   40.8930   28.8510   43.0160 H   0  0  0  0  0  0  0  0  0  0  0  0
   42.2390   30.8260   42.8550 H   0  0  0  0  0  0  0  0  0  0  0  0
   41.3990   32.8250   41.7460 H   0  0  0  0  0  0  0  0  0  0  0  0
   39.7500   33.9390   40.6220 H   0  0  0  0  0  0  0  0  0  0  0  0
   37.5890   34.0670   39.6350 H   0  0  0  0  0  0  0  0  0  0  0  0
   36.1640   32.2380   39.6750 H   0  0  0  0  0  0  0  0  0  0  0  0
   38.0940   26.2530   41.2830 C   0  0  0  0  0  0  0  0  0  0  0  0
   37.0940   26.0340   42.2830 C   0  0  0  0  0  0  0  0  0  0  0  0
   36.7640   27.0690   43.2080 C   0  0  0  0  0  0  0  0  0  0  0  0
   37.4280   28.2200   43.0810 N   0  0  0  0  0  0  0  0  0  0  0  0
   38.3430   28.4390   42.1750 C   0  0  0  0  0  0  0  0  0  0  0  0
   38.6710   27.4510   41.2790 N   0  0  0  0  0  0  0  0  0  0  0  0
   38.3190   25.4490   40.6010 H   0  0  0  0  0  0  0  0  0  0  0  0
   36.0090   26.7710   43.9030 H   0  0  0  0  0  0  0  0  0  0  0  0
   36.4790   24.7560   42.2880 N   0  0  0  0  0  0  0  0  0  0  0  0
   36.2610   24.3410   41.3330 H   0  0  0  0  0  0  0  0  0  0  0  0
   36.3360   24.4220   43.2540 H   0  0  0  0  0  0  0  0  0  0  0  0
   36.6090   29.8650   40.7420 O   0  0  0  0  0  0  0  0  0  0  0  0
   36.0250   29.4360   39.4800 C   0  0  0  0  0  0  0  0  0  0  0  0
   34.7410   29.2400   39.6480 C   0  0  0  0  0  0  0  0  0  0  0  0
   33.9430   29.2720   40.4150 H   0  0  0  0  0  0  0  0  0  0  0  0
   33.9510   28.8250   38.6300 C   0  0  0  0  0  3  0  0  0  0  0  0
   34.5510   28.6140   37.3930 C   0  0  0  0  0  3  0  0  0  0  0  0
   36.3150   29.0670   37.8670 S   0  0  0  0  0  0  0  0  0  0  0  0
  1 21  1  0  0  0  0
  1  2  1  0  0  0  0
  2 11  1  0  0  0  0
  3  2  2  0  0  0  0
  3 12  1  0  0  0  0
  4  3  1  0  0  0  0
  5 10  1  0  0  0  0
  5  4  2  0  0  0  0
  6  5  1  0  0  0  0
  7  8  1  0  0  0  0
  7  6  2  0  0  0  0
  8  9  2  0  0  0  0
  9 10  1  0  0  0  0
 10  1  2  0  0  0  0
 13  4  1  0  0  0  0
 14  6  1  0  0  0  0
 15  7  1  0  0  0  0
 16  8  1  0  0  0  0
 17 18  1  0  0  0  0
 18 25  1  0  0  0  0
 18 19  2  0  0  0  0
 19 24  1  0  0  0  0
 20 19  1  0  0  0  0
 21 20  2  0  0  0  0
 22 17  2  0  0  0  0
 22 21  1  0  0  0  0
 23 17  1  0  0  0  0
 25 27  1  0  0  0  0
 26 25  1  0  0  0  0
 28  9  1  0  0  0  0
 29 30  2  0  0  0  0
 29 28  1  0  0  0  0
 30 31  1  0  0  0  0
 32 30  1  0  0  0  0
 33 34  1  0  0  0  0
 33 32  2  0  0  0  0
 34 29  1  0  0  0  0
M  END
>  <minimizedAffinity>
-5.55120659

$$$$

 OpenBabel03242515583D

 34 37  0  0  0  0  0  0  0  0999 V2000
   35.2160   28.6980   38.3120 C   0  0  0  0  0  0  0  0  0  0  0  0
   34.0640   28.9320   37.5160 C   0  0  0  0  0  0  0  0  0  0  0  0
   33.3920   27.9430   36.8370 C   0  0  0  0  0  0  0  0  0  0  0  0
   33.8160   26.6630   36.9020 C   0  0  0  0  0  0  0  0  0  0  0  0
   34.9450   26.3690   37.6680 C   0  0  0  0  0  0  0  0  0  0  0  0
   35.3260   25.0660   37.6980 C   0  0  0  0  0  0  0  0  0  0  0  0
   36.4400   24.7100   38.4360 C   0  0  0  0  0  0  0  0  0  0  0  0
   37.1040   25.7340   39.1040 C   0  0  0  0  0  0  0  0  0  0  0  0
   36.6520   26.9990   39.0150 C   0  0  0  0  0  0  0  0  0  0  0  0
   35.5890   27.3890   38.3280 C   0  0  0  0  0  0  0  0  0  0  0  0
   33.6850   29.9400   37.4310 H   0  0  0  0  0  0  0  0  0  0  0  0
   32.5250   28.2070   36.2540 H   0  0  0  0  0  0  0  0  0  0  0  0
   33.2820   25.8950   36.3690 H   0  0  0  0  0  0  0  0  0  0  0  0
   34.7390   24.3080   37.1330 H   0  0  0  0  0  0  0  0  0  0  0  0
   36.6430   23.6240   38.3830 H   0  0  0  0  0  0  0  0  0  0  0  0
   37.9010   25.1760   39.5610 H   0  0  0  0  0  0  0  0  0  0  0  0
   37.3080   31.5900   38.7540 C   0  0  0  0  0  0  0  0  0  0  0  0
   37.1120   31.9000   40.1380 C   0  0  0  0  0  0  0  0  0  0  0  0
   36.2590   31.0880   40.9430 C   0  0  0  0  0  0  0  0  0  0  0  0
   35.6730   30.0510   40.3380 N   0  0  0  0  0  0  0  0  0  0  0  0
   35.8380   29.7530   39.0770 C   0  0  0  0  0  0  0  0  0  0  0  0
   36.6570   30.5270   38.2920 N   0  0  0  0  0  0  0  0  0  0  0  0
   37.9580   32.2250   38.1760 H   0  0  0  0  0  0  0  0  0  0  0  0
   36.1970   31.4340   41.9520 H   0  0  0  0  0  0  0  0  0  0  0  0
   37.8050   33.0340   40.6320 N   0  0  0  0  0  0  0  0  0  0  0  0
   38.7990   33.1650   40.2760 H   0  0  0  0  0  0  0  0  0  0  0  0
   37.2110   33.5720   41.2820 H   0  0  0  0  0  0  0  0  0  0  0  0
   37.4960   27.7780   39.7460 O   0  0  0  0  0  0  0  0  0  0  0  0
   37.7840   27.5160   41.1480 C   0  0  0  0  0  0  0  0  0  0  0  0
   38.9990   27.9230   41.4180 C   0  0  0  0  0  0  0  0  0  0  0  0
   39.8910   28.3850   40.9550 H   0  0  0  0  0  0  0  0  0  0  0  0
   39.5280   27.7900   42.6580 C   0  0  0  0  0  3  0  0  0  0  0  0
   38.7350   27.2050   43.6380 C   0  0  0  0  0  3  0  0  0  0  0  0
   37.2030   26.8860   42.5930 S   0  0  0  0  0  0  0  0  0  0  0  0
  1 10  1  0  0  0  0
  1 21  1  0  0  0  0
  2  1  2  0  0  0  0
  3  4  2  0  0  0  0
  3  2  1  0  0  0  0
  4  5  1  0  0  0  0
  5  6  2  0  0  0  0
  5 10  1  0  0  0  0
  6  7  1  0  0  0  0
  7  8  2  0  0  0  0
  8 16  1  0  0  0  0
  9  8  1  0  0  0  0
  9 28  1  0  0  0  0
 10  9  2  0  0  0  0
 11  2  1  0  0  0  0
 12  3  1  0  0  0  0
 13  4  1  0  0  0  0
 14  6  1  0  0  0  0
 15  7  1  0  0  0  0
 17 18  1  0  0  0  0
 18 25  1  0  0  0  0
 18 19  2  0  0  0  0
 19 24  1  0  0  0  0
 20 19  1  0  0  0  0
 21 20  2  0  0  0  0
 22 17  2  0  0  0  0
 22 21  1  0  0  0  0
 23 17  1  0  0  0  0
 25 27  1  0  0  0  0
 26 25  1  0  0  0  0
 28 29  1  0  0  0  0
 29 30  2  0  0  0  0
 29 34  1  0  0  0  0
 30 32  1  0  0  0  0
 31 30  1  0  0  0  0
 32 33  2  0  0  0  0
 34 33  1  0  0  0  0
M  END
>  <minimizedAffinity>
-5.5487628

$$$$

 OpenBabel03242515583D

 34 37  0  0  0  0  0  0  0  0999 V2000
   38.0690   28.9880   41.1780 C   0  0  0  0  0  0  0  0  0  0  0  0
   37.9950   29.5480   42.4810 C   0  0  0  0  0  0  0  0  0  0  0  0
   37.6110   28.8400   43.5960 C   0  0  0  0  0  0  0  0  0  0  0  0
   37.2770   27.5360   43.4930 C   0  0  0  0  0  0  0  0  0  0  0  0
   37.3290   26.9280   42.2370 C   0  0  0  0  0  0  0  0  0  0  0  0
   36.9820   25.6160   42.1920 C   0  0  0  0  0  0  0  0  0  0  0  0
   37.0090   24.9560   40.9780 C   0  0  0  0  0  0  0  0  0  0  0  0
   37.3930   25.7020   39.8680 C   0  0  0  0  0  0  0  0  0  0  0  0
   37.7190   27.0000   40.0080 C   0  0  0  0  0  0  0  0  0  0  0  0
   37.7150   27.6730   41.1490 C   0  0  0  0  0  0  0  0  0  0  0  0
   38.2520   30.5890   42.6160 H   0  0  0  0  0  0  0  0  0  0  0  0
   37.5810   29.3420   44.5480 H   0  0  0  0  0  0  0  0  0  0  0  0
   36.9790   26.9890   44.3710 H   0  0  0  0  0  0  0  0  0  0  0  0
   36.6850   25.0930   43.1300 H   0  0  0  0  0  0  0  0  0  0  0  0
   36.7100   23.8960   41.0740 H   0  0  0  0  0  0  0  0  0  0  0  0
   37.3090   24.9540   39.0990 H   0  0  0  0  0  0  0  0  0  0  0  0
   37.7430   31.1810   38.3470 C   0  0  0  0  0  0  0  0  0  0  0  0
   39.1020   31.3490   37.9320 C   0  0  0  0  0  0  0  0  0  0  0  0
   40.1540   30.6810   38.6270 C   0  0  0  0  0  0  0  0  0  0  0  0
   39.7960   29.9110   39.6580 N   0  0  0  0  0  0  0  0  0  0  0  0
   38.5620   29.7450   40.0520 C   0  0  0  0  0  0  0  0  0  0  0  0
   37.5410   30.3830   39.3910 N   0  0  0  0  0  0  0  0  0  0  0  0
   36.9740   31.7010   37.8000 H   0  0  0  0  0  0  0  0  0  0  0  0
   41.1170   30.8990   38.2190 H   0  0  0  0  0  0  0  0  0  0  0  0
   39.3190   32.2000   36.8190 N   0  0  0  0  0  0  0  0  0  0  0  0
   38.6120   32.1220   36.0280 H   0  0  0  0  0  0  0  0  0  0  0  0
   40.1600   32.7820   36.9600 H   0  0  0  0  0  0  0  0  0  0  0  0
   38.0320   27.4710   38.7700 O   0  0  0  0  0  0  0  0  0  0  0  0
   38.8840   26.7350   37.8470 C   0  0  0  0  0  0  0  0  0  0  0  0
   40.1290   26.8400   38.2390 C   0  0  0  0  0  0  0  0  0  0  0  0
   40.7660   27.3020   39.0170 H   0  0  0  0  0  0  0  0  0  0  0  0
   41.1360   26.2530   37.5510 C   0  0  0  0  0  3  0  0  0  0  0  0
   40.8040   25.5320   36.4100 C   0  0  0  0  0  3  0  0  0  0  0  0
   38.9410   25.7980   36.4550 S   0  0  0  0  0  0  0  0  0  0  0  0
  1  2  1  0  0  0  0
  2 11  1  0  0  0  0
  2  3  2  0  0  0  0
  3 12  1  0  0  0  0
  4  3  1  0  0  0  0
  4 13  1  0  0  0  0
  5  4  2  0  0  0  0
  6  5  1  0  0  0  0
  6 14  1  0  0  0  0
  7 15  1  0  0  0  0
  7  6  2  0  0  0  0
  8  9  2  0  0  0  0
  8  7  1  0  0  0  0
  9 10  1  0  0  0  0
 10  1  2  0  0  0  0
 10  5  1  0  0  0  0
 16  8  1  0  0  0  0
 17 22  1  0  0  0  0
 18 17  2  0  0  0  0
 18 19  1  0  0  0  0
 19 20  2  0  0  0  0
 20 21  1  0  0  0  0
 21  1  1  0  0  0  0
 22 21  2  0  0  0  0
 23 17  1  0  0  0  0
 24 19  1  0  0  0  0
 25 27  1  0  0  0  0
 25 18  1  0  0  0  0
 26 25  1  0  0  0  0
 28  9  1  0  0  0  0
 29 30  2  0  0  0  0
 29 28  1  0  0  0  0
 30 31  1  0  0  0  0
 32 30  1  0  0  0  0
 33 34  1  0  0  0  0
 33 32  2  0  0  0  0
 34 29  1  0  0  0  0
M  END
>  <minimizedAffinity>
-5.48068428

$$$$
