
 OpenBabel03252508563D

 21 22  0  0  0  0  0  0  0  0999 V2000
   45.3880   34.5790   41.3860 C   0  0  0  0  0  0  0  0  0  0  0  0
   44.6130   33.9340   40.9690 H   0  0  0  0  0  0  0  0  0  0  0  0
   45.2280   35.5890   40.9790 H   0  0  0  0  0  0  0  0  0  0  0  0
   44.5400   35.7780   44.8620 C   0  0  0  0  0  0  0  0  0  0  0  0
   44.6670   35.7280   43.4480 C   0  0  0  0  0  0  0  0  0  0  0  0
   45.2600   34.6210   42.8600 C   0  0  0  0  0  0  0  0  0  0  0  0
   45.6900   33.6350   43.6850 N   0  0  0  0  0  0  0  0  0  0  0  0
   45.5640   33.6950   45.0190 C   0  0  0  0  0  0  0  0  0  0  0  0
   44.9950   34.7570   45.5970 N   0  0  0  0  0  0  0  0  0  0  0  0
   44.0710   36.6620   45.2770 H   0  0  0  0  0  0  0  0  0  0  0  0
   44.3180   36.5270   42.7910 H   0  0  0  0  0  0  0  0  0  0  0  0
   45.9300   32.8700   45.6200 H   0  0  0  0  0  0  0  0  0  0  0  0
   46.7740   34.0980   41.0280 C   0  0  0  0  0  0  0  0  0  0  0  0
   46.9410   33.1350   41.5950 H   0  0  0  0  0  0  0  0  0  0  0  0
   47.5630   34.7800   41.3360 H   0  0  0  0  0  0  0  0  0  0  0  0
   46.8580   33.7390   39.6070 C   0  0  0  0  0  0  0  0  0  0  0  0
   45.9690   33.0640   38.8030 C   0  0  0  0  0  0  0  0  0  0  0  0
   45.0470   32.7290   39.2530 H   0  0  0  0  0  0  0  0  0  0  0  0
   46.2700   32.8460   37.4970 C   0  0  0  0  0  3  0  0  0  0  0  0
   47.5610   33.3710   37.0630 C   0  0  0  0  0  3  0  0  0  0  0  0
   48.2290   34.1480   38.6170 S   0  0  0  0  0  0  0  0  0  0  0  0
  1  6  1  0  0  0  0
  2  1  1  0  0  0  0
  3  1  1  0  0  0  0
  4 10  1  0  0  0  0
  4  9  1  0  0  0  0
  5  4  2  0  0  0  0
  6  5  1  0  0  0  0
  6  7  2  0  0  0  0
  7  8  1  0  0  0  0
  8  9  2  0  0  0  0
  8 12  1  0  0  0  0
 11  5  1  0  0  0  0
 13 15  1  0  0  0  0
 13  1  1  0  0  0  0
 13 14  1  0  0  0  0
 16 13  1  0  0  0  0
 17 18  1  0  0  0  0
 17 16  2  0  0  0  0
 19 17  1  0  0  0  0
 20 19  2  0  0  0  0
 20 21  1  0  0  0  0
 21 16  1  0  0  0  0
M  END
>  <minimizedAffinity>
-3.54605818

>  <minimizedRMSD>
2.30277061

$$$$
