
     RDKit          3D

 42 45  0  0  0  0  0  0  0  0999 V2000
   45.7921   34.1191   41.0791 C   0  0  0  0  0  0  0  0  0  0  0  0
   46.4254   34.7559   42.1603 C   0  0  0  0  0  0  0  0  0  0  0  0
   47.7732   35.0989   41.9787 C   0  0  0  0  0  0  0  0  0  0  0  0
   48.3792   34.8008   40.7878 N   0  0  0  0  0  0  0  0  0  0  0  0
   47.7262   34.1978   39.8044 C   0  0  0  0  0  0  0  0  0  0  0  0
   46.4294   33.8503   39.9363 N   0  0  0  0  0  0  0  0  0  0  0  0
   45.6915   35.0247   43.3765 C   0  0  0  0  0  0  0  0  0  0  0  0
   45.0454   36.2353   43.6119 C   0  0  0  0  0  0  0  0  0  0  0  0
   44.4834   36.0824   44.8511 C   0  0  0  0  0  0  0  0  0  0  0  0
   44.7668   34.8509   45.3489 N   0  0  0  0  0  0  0  0  0  0  0  0
   45.4952   34.2482   44.4296 N   0  0  0  0  0  0  0  0  0  0  0  0
   44.4641   33.7707   41.2324 O   0  0  0  0  0  0  0  0  0  0  0  0
   43.3886   34.4657   40.7681 C   0  0  0  0  0  0  0  0  0  0  0  0
   43.2987   35.7231   40.5475 O   0  0  0  0  0  0  0  0  0  0  0  0
   42.0484   34.0761   40.3799 N   0  0  0  0  0  0  0  0  0  0  0  0
   41.6896   34.3561   39.0096 C   0  0  0  0  0  0  0  0  0  0  0  0
   40.8417   35.6322   39.0830 C   0  0  0  0  0  0  0  0  0  0  0  0
   40.0196   35.5289   40.3746 C   0  0  0  0  0  0  0  0  0  0  0  0
   39.7276   34.0669   40.7246 C   0  0  0  0  0  0  0  0  0  0  0  0
   41.0159   33.4331   41.2107 C   0  0  1  0  0  0  0  0  0  0  0  0
   48.2753   35.5885   42.7986 H   0  0  0  0  0  0  0  0  0  0  0  0
   48.2271   33.9700   38.8658 H   0  0  0  0  0  0  0  0  0  0  0  0
   44.9790   37.1159   42.9874 H   0  0  0  0  0  0  0  0  0  0  0  0
   43.8871   36.7706   45.4364 H   0  0  0  0  0  0  0  0  0  0  0  0
   44.5237   34.3646   46.2452 H   0  0  0  0  0  0  0  0  0  0  0  0
   41.0581   33.5535   38.5793 H   0  0  0  0  0  0  0  0  0  0  0  0
   42.5509   34.6102   38.3764 H   0  0  0  0  0  0  0  0  0  0  0  0
   41.5532   36.4919   39.1760 H   0  0  0  0  0  0  0  0  0  0  0  0
   40.1796   35.7334   38.1960 H   0  0  0  0  0  0  0  0  0  0  0  0
   39.1178   36.1233   40.2484 H   0  0  0  0  0  0  0  0  0  0  0  0
   40.6002   35.9615   41.2226 H   0  0  0  0  0  0  0  0  0  0  0  0
   39.4049   33.5836   39.7896 H   0  0  0  0  0  0  0  0  0  0  0  0
   38.9314   34.0911   41.4889 H   0  0  0  0  0  0  0  0  0  0  0  0
   41.1950   33.8579   42.2250 H   0  0  0  0  0  0  0  0  0  0  0  0
   41.0787   32.0458   41.1967 C   0  0  0  0  0  0  0  0  0  0  0  0
   41.9923   31.0721   41.5350 C   0  0  0  0  0  0  0  0  0  0  0  0
   42.9224   31.4514   41.9164 H   0  0  0  0  0  0  0  0  0  0  0  0
   41.7509   29.7361   41.4029 C   0  0  0  0  0  0  0  0  0  0  0  0
   40.3783   29.3971   40.8460 C   0  0  0  0  0  0  0  0  0  0  0  0
   39.6684   31.1398   40.6095 S   0  0  0  0  0  0  0  0  0  0  0  0
   42.4465   28.9614   41.6597 H   0  0  0  0  0  0  0  0  0  0  0  0
   40.1448   28.3339   40.7242 H   0  0  0  0  0  0  0  0  0  0  0  0
  1 12  1  0
  1  2  1  0
  2  7  1  0
  3  2  2  0
  4  3  1  0
  5  6  1  0
  5  4  2  0
  6  1  2  0
  7  8  1  0
  7 11  2  0
  8  9  2  0
  9 10  1  0
 11 10  1  0
 13 12  1  0
 14 13  2  0
 15 13  1  0
 15 20  1  0
 16 17  1  0
 16 15  1  0
 17 18  1  0
 18 19  1  0
 19 20  1  0
  3 21  1  0
  5 22  1  0
  8 23  1  0
  9 24  1  0
 10 25  1  0
 16 26  1  0
 16 27  1  0
 17 28  1  0
 17 29  1  0
 18 30  1  0
 18 31  1  0
 19 32  1  0
 19 33  1  0
 20 34  1  1
 35 36  2  0
 36 37  1  0
 36 38  1  0
 38 39  2  0
 39 40  1  0
 40 35  1  0
 38 41  1  0
 39 42  1  0
 20 35  1  0
M  ISO  8  21  14  22  14  23  14  24  14  25   9  26  13  27  13  28  13
M  ISO  7  29  13  30  13  31  13  32  13  33  13  34  13  37  15
M  END
>  <DihAtoms>  (1) 
14,19,34,35

>  <DihDeg>  (1) 
-134.8636763101102

$$$$
