
 OpenBabel03252508463D

 42 44  0  0  0  0  0  0  0  0999 V2000
   42.9910   32.4420   41.6890 C   0  0  0  0  0  0  0  0  0  0  0  0
   42.0630   32.8940   41.2910 H   0  0  0  0  0  0  0  0  0  0  0  0
   43.5420   32.0270   40.7940 H   0  0  0  0  0  0  0  0  0  0  0  0
   43.6710   34.8410   41.9120 C   0  0  0  0  0  0  0  0  0  0  0  0
   43.8810   33.5120   42.2260 C   0  0  0  0  0  0  0  0  0  0  0  0
   44.9390   33.1870   43.0510 C   0  0  0  0  0  0  0  0  0  0  0  0
   45.7510   34.1770   43.5400 C   0  0  0  0  0  0  0  0  0  0  0  0
   45.5620   35.5070   43.2410 C   0  0  0  0  0  0  0  0  0  0  0  0
   44.4890   35.7830   42.4100 C   0  0  0  0  0  0  0  0  0  0  0  0
   45.1520   32.1650   43.3310 H   0  0  0  0  0  0  0  0  0  0  0  0
   46.5840   33.9280   44.1890 H   0  0  0  0  0  0  0  0  0  0  0  0
   46.1490   36.3270   43.5830 H   0  0  0  0  0  0  0  0  0  0  0  0
   44.2620   36.8000   42.1210 H   0  0  0  0  0  0  0  0  0  0  0  0
   40.2500   35.7330   40.5550 C   0  0  0  0  0  0  0  0  0  0  0  0
   41.2740   35.4890   41.4860 C   0  0  0  0  0  0  0  0  0  0  0  0
   42.5340   35.1190   41.0330 C   0  0  0  0  0  0  0  0  0  0  0  0
   42.7090   35.0110   39.6870 N   0  0  0  0  0  0  0  0  0  0  0  0
   41.7140   35.2490   38.8040 C   0  0  0  0  0  0  0  0  0  0  0  0
   40.4870   35.6090   39.2480 N   0  0  0  0  0  0  0  0  0  0  0  0
   39.2890   36.0170   40.9220 H   0  0  0  0  0  0  0  0  0  0  0  0
   41.1340   35.5760   42.5530 H   0  0  0  0  0  0  0  0  0  0  0  0
   41.9920   35.1250   37.7720 H   0  0  0  0  0  0  0  0  0  0  0  0
   42.6810   31.3940   42.6040 N   0  0  0  0  0  0  0  0  0  0  0  0
   43.0320   31.5250   43.5710 H   0  0  0  0  0  0  0  0  0  0  0  0
   41.0190   31.0200   42.6350 S   0  0  0  0  0  0  0  0  0  0  0  0
   40.1730   32.2590   42.4540 O   0  0  0  0  0  0  0  0  0  0  0  0
   39.8680   32.7460   43.2790 H   0  0  0  0  0  0  0  0  0  0  0  0
   40.6380   30.3370   43.9050 O   0  0  0  0  0  0  0  0  0  0  0  0
   39.8040   30.4610   44.4210 H   0  0  0  0  0  0  0  0  0  0  0  0
   40.6980   29.9870   41.3470 O   0  0  0  0  0  0  0  0  0  0  0  0
   39.9920   28.8990   41.8290 C   0  0  0  0  0  0  0  0  0  0  0  0
   39.0830   28.8050   41.2310 H   0  0  0  0  0  0  0  0  0  0  0  0
   39.7200   28.9480   42.8920 H   0  0  0  0  0  0  0  0  0  0  0  0
   40.8220   27.6340   41.6800 C   0  0  0  0  0  0  0  0  0  0  0  0
   41.7060   27.6510   42.3520 H   0  0  0  0  0  0  0  0  0  0  0  0
   41.1150   27.5230   40.6130 H   0  0  0  0  0  0  0  0  0  0  0  0
   39.9790   26.4260   41.9590 C   0  0  0  0  0  0  0  0  0  0  0  0
   40.2840   25.3410   42.8320 C   0  0  0  0  0  0  0  0  0  0  0  0
   41.2190   25.3680   43.3560 H   0  0  0  0  0  0  0  0  0  0  0  0
   39.3500   24.3610   42.9190 C   0  0  0  0  0  3  0  0  0  0  0  0
   38.1390   24.4220   42.1790 C   0  0  0  0  0  3  0  0  0  0  0  0
   38.3260   26.0290   41.2570 S   0  0  0  0  0  0  0  0  0  0  0  0
  1  5  1  0  0  0  0
  1 23  1  0  0  0  0
  2  1  1  0  0  0  0
  3  1  1  0  0  0  0
  4  5  2  0  0  0  0
  4  9  1  0  0  0  0
  5  6  1  0  0  0  0
  6 10  1  0  0  0  0
  6  7  2  0  0  0  0
  7 11  1  0  0  0  0
  8  7  1  0  0  0  0
  8 12  1  0  0  0  0
  9  8  2  0  0  0  0
 13  9  1  0  0  0  0
 14 20  1  0  0  0  0
 14 15  1  0  0  0  0
 15 21  1  0  0  0  0
 16 15  2  0  0  0  0
 16  4  1  0  0  0  0
 17 16  1  0  0  0  0
 18 19  1  0  0  0  0
 18 17  2  0  0  0  0
 19 14  2  0  0  0  0
 22 18  1  0  0  0  0
 23 25  1  0  0  0  0
 23 24  1  0  0  0  0
 25 28  1  0  0  0  0
 26 25  1  0  0  0  0
 26 27  1  0  0  0  0
 28 29  1  0  0  0  0
 30 31  1  0  0  0  0
 30 25  1  0  0  0  0
 31 33  1  0  0  0  0
 32 31  1  0  0  0  0
 34 31  1  0  0  0  0
 34 37  1  0  0  0  0
 34 35  1  0  0  0  0
 36 34  1  0  0  0  0
 37 38  2  0  0  0  0
 38 40  1  0  0  0  0
 38 39  1  0  0  0  0
 41 40  2  0  0  0  0
 42 37  1  0  0  0  0
 42 41  1  0  0  0  0
M  END
>  <minimizedAffinity>
-4.93152857

>  <minimizedRMSD>
0.28703475

$$$$
