
 OpenBabel03252509243D

 24 26  0  0  1  0  0  0  0  0999 V2000
   46.2970   34.8960   41.8560 C   0  0  1  0  0  0  0  0  0  0  0  0
   47.8370   35.0380   41.7340 C   0  0  0  0  0  0  0  0  0  0  0  0
   46.9940   33.8240   41.2410 C   0  0  2  0  0  0  0  0  0  0  0  0
   45.7420   35.6920   41.3270 H   0  0  0  0  0  0  0  0  0  0  0  0
   48.1510   35.7390   40.9440 H   0  0  0  0  0  0  0  0  0  0  0  0
   48.4600   34.9240   42.6150 H   0  0  0  0  0  0  0  0  0  0  0  0
   47.2140   32.9180   41.8530 H   0  0  0  0  0  0  0  0  0  0  0  0
   44.6910   35.4530   45.1990 C   0  0  0  0  0  0  0  0  0  0  0  0
   45.0690   35.7070   43.8390 C   0  0  0  0  0  0  0  0  0  0  0  0
   45.8980   34.7510   43.3130 C   0  0  0  0  0  0  0  0  0  0  0  0
   46.3170   33.6550   44.0470 N   0  0  0  0  0  0  0  0  0  0  0  0
   45.9270   33.4750   45.3150 C   0  0  0  0  0  0  0  0  0  0  0  0
   45.1040   34.3860   45.8970 N   0  0  0  0  0  0  0  0  0  0  0  0
   44.0440   36.1620   45.6650 H   0  0  0  0  0  0  0  0  0  0  0  0
   46.3670   32.5630   45.6940 H   0  0  0  0  0  0  0  0  0  0  0  0
   44.6400   36.8470   43.1170 N   0  0  0  0  0  0  0  0  0  0  0  0
   45.2180   37.6550   43.4710 H   0  0  0  0  0  0  0  0  0  0  0  0
   43.9020   36.9120   42.3770 H   0  0  0  0  0  0  0  0  0  0  0  0
   46.8790   33.6260   39.8000 C   0  0  0  0  0  0  0  0  0  0  0  0
   45.9240   33.1330   38.9840 C   0  0  0  0  0  0  0  0  0  0  0  0
   45.0200   32.7970   39.4670 H   0  0  0  0  0  0  0  0  0  0  0  0
   46.1430   33.0860   37.6270 C   0  0  0  0  0  3  0  0  0  0  0  0
   47.3880   33.5710   37.1740 C   0  0  0  0  0  3  0  0  0  0  0  0
   48.2350   34.0920   38.7090 S   0  0  0  0  0  0  0  0  0  0  0  0
  1  4  1  6  0  0  0
  1 10  1  0  0  0  0
  2  1  1  0  0  0  0
  2  6  1  0  0  0  0
  3  2  1  0  0  0  0
  3  7  1  1  0  0  0
  3  1  1  0  0  0  0
  5  2  1  0  0  0  0
  8 14  1  0  0  0  0
  8 13  1  0  0  0  0
  9  8  2  0  0  0  0
 10  9  1  0  0  0  0
 10 11  2  0  0  0  0
 11 12  1  0  0  0  0
 12 15  1  0  0  0  0
 12 13  2  0  0  0  0
 16 17  1  0  0  0  0
 16  9  1  0  0  0  0
 18 16  1  0  0  0  0
 19  3  1  0  0  0  0
 20 21  1  0  0  0  0
 20 19  2  0  0  0  0
 22 20  1  0  0  0  0
 23 22  2  0  0  0  0
 23 24  1  0  0  0  0
 24 19  1  0  0  0  0
M  END
>  <minimizedAffinity>
-4.70885277

>  <minimizedRMSD>
0.442231804

$$$$
