
 OpenBabel03252504533D

 18 19  0  0  0  0  0  0  0  0999 V2000
   44.3630   35.8530   44.4320 C   0  0  0  0  0  0  0  0  0  0  0  0
   44.7130   35.1590   43.2610 C   0  0  0  0  0  0  0  0  0  0  0  0
   45.3470   33.9340   43.4250 C   0  0  0  0  0  0  0  0  0  0  0  0
   45.5940   33.4740   44.6970 N   0  0  0  0  0  0  0  0  0  0  0  0
   45.2350   34.1870   45.7860 C   0  0  0  0  0  0  0  0  0  0  0  0
   44.6230   35.3700   45.6520 N   0  0  0  0  0  0  0  0  0  0  0  0
   43.8670   36.8100   44.2710 H   0  0  0  0  0  0  0  0  0  0  0  0
   44.5070   35.5420   42.2890 H   0  0  0  0  0  0  0  0  0  0  0  0
   45.4310   33.8210   46.7850 H   0  0  0  0  0  0  0  0  0  0  0  0
   45.7120   33.2090   42.2050 C   0  0  0  0  0  0  0  0  0  0  0  0
   46.1020   32.1920   42.4310 H   0  0  0  0  0  0  0  0  0  0  0  0
   44.8380   33.1290   41.5340 H   0  0  0  0  0  0  0  0  0  0  0  0
   46.8010   33.9330   41.5070 C   0  0  0  0  0  0  0  0  0  0  0  0
   47.0860   34.0300   40.1810 C   0  0  0  0  0  0  0  0  0  0  0  0
   46.4440   33.5120   39.4830 H   0  0  0  0  0  0  0  0  0  0  0  0
   48.1760   34.7820   39.8140 C   0  0  0  0  0  3  0  0  0  0  0  0
   48.9180   35.3940   40.7720 C   0  0  0  0  0  3  0  0  0  0  0  0
   48.0560   34.9030   42.3300 S   0  0  0  0  0  0  0  0  0  0  0  0
  1  6  1  0  0  0  0
  2  3  1  0  0  0  0
  2  1  2  0  0  0  0
  3  4  2  0  0  0  0
  4  5  1  0  0  0  0
  5  9  1  0  0  0  0
  6  5  2  0  0  0  0
  7  1  1  0  0  0  0
  8  2  1  0  0  0  0
 10 11  1  0  0  0  0
 10  3  1  0  0  0  0
 12 10  1  0  0  0  0
 13 10  1  0  0  0  0
 13 18  1  0  0  0  0
 14 13  2  0  0  0  0
 15 14  1  0  0  0  0
 16 14  1  0  0  0  0
 16 17  2  0  0  0  0
 17 18  1  0  0  0  0
M  END
>  <minimizedAffinity>
-3.70535707

>  <minimizedRMSD>
1.94182003

$$$$
