
 OpenBabel03242523433D

 21 22  0  0  1  0  0  0  0  0999 V2000
   36.9480   27.2860   42.6070 C   0  0  1  0  0  0  0  0  0  0  0  0
   36.0530   27.0200   43.2040 H   0  0  0  0  0  0  0  0  0  0  0  0
   37.3980   29.6190   42.0670 C   0  0  0  0  0  0  0  0  0  0  0  0
   36.6480   28.4700   41.8340 C   0  0  0  0  0  0  0  0  0  0  0  0
   35.6470   28.5500   40.8560 C   0  0  0  0  0  0  0  0  0  0  0  0
   35.4850   29.7410   40.2100 N   0  0  0  0  0  0  0  0  0  0  0  0
   36.2180   30.8290   40.4530 C   0  0  0  0  0  0  0  0  0  0  0  0
   37.1900   30.7720   41.3950 N   0  0  0  0  0  0  0  0  0  0  0  0
   38.1780   29.5980   42.8140 H   0  0  0  0  0  0  0  0  0  0  0  0
   35.0530   27.6890   40.6480 H   0  0  0  0  0  0  0  0  0  0  0  0
   35.9090   31.6510   39.8230 H   0  0  0  0  0  0  0  0  0  0  0  0
   37.3910   26.1820   41.8280 C   0  0  0  0  0  0  0  0  0  0  0  0
   36.9450   24.8130   42.1340 C   0  0  0  0  0  0  0  0  0  0  0  0
   36.2890   24.3890   42.8710 H   0  0  0  0  0  0  0  0  0  0  0  0
   37.3840   23.7810   41.3890 C   0  0  0  0  0  3  0  0  0  0  0  0
   38.3510   24.1200   40.2370 C   0  0  0  0  0  3  0  0  0  0  0  0
   38.4660   26.0230   40.4480 S   0  0  0  0  0  0  0  0  0  0  0  0
   37.9780   27.6950   43.6800 C   0  0  0  0  0  0  0  0  0  0  0  0
   38.9050   28.0140   43.2100 H   0  0  0  0  0  0  0  0  0  0  0  0
   37.5210   28.4540   44.3080 H   0  0  0  0  0  0  0  0  0  0  0  0
   38.1950   26.7800   44.2800 H   0  0  0  0  0  0  0  0  0  0  0  0
  1  2  1  1  0  0  0
  1 18  1  0  0  0  0
  3  9  1  0  0  0  0
  4  3  1  0  0  0  0
  4  1  1  0  0  0  0
  5  4  2  0  0  0  0
  6  7  2  0  0  0  0
  6  5  1  0  0  0  0
  7  8  1  0  0  0  0
  8  3  2  0  0  0  0
 10  5  1  0  0  0  0
 11  7  1  0  0  0  0
 12 13  2  0  0  0  0
 12  1  1  0  0  0  0
 13 14  1  0  0  0  0
 15 13  1  0  0  0  0
 16 17  1  0  0  0  0
 16 15  2  0  0  0  0
 17 12  1  0  0  0  0
 18 21  1  0  0  0  0
 18 20  1  0  0  0  0
 19 18  1  0  0  0  0
M  END
>  <minimizedAffinity>
-4.14541435

$$$$

 OpenBabel03242523433D

 21 22  0  0  1  0  0  0  0  0999 V2000
   37.2940   27.1180   42.6910 C   0  0  1  0  0  0  0  0  0  0  0  0
   36.4510   26.8470   43.3580 H   0  0  0  0  0  0  0  0  0  0  0  0
   35.8540   28.3770   41.1820 C   0  0  0  0  0  0  0  0  0  0  0  0
   36.9670   28.3530   42.0180 C   0  0  0  0  0  0  0  0  0  0  0  0
   37.6950   29.5450   42.1430 C   0  0  0  0  0  0  0  0  0  0  0  0
   37.2600   30.6310   41.4400 N   0  0  0  0  0  0  0  0  0  0  0  0
   36.1890   30.6270   40.6450 C   0  0  0  0  0  0  0  0  0  0  0  0
   35.4730   29.4850   40.5100 N   0  0  0  0  0  0  0  0  0  0  0  0
   35.2680   27.4790   41.0590 H   0  0  0  0  0  0  0  0  0  0  0  0
   38.5540   29.5660   42.7750 H   0  0  0  0  0  0  0  0  0  0  0  0
   36.0400   31.5980   40.1940 H   0  0  0  0  0  0  0  0  0  0  0  0
   37.6180   26.0470   41.8130 C   0  0  0  0  0  0  0  0  0  0  0  0
   36.9490   24.7410   41.9330 C   0  0  0  0  0  0  0  0  0  0  0  0
   36.1860   24.3500   42.5810 H   0  0  0  0  0  0  0  0  0  0  0  0
   37.2770   23.7380   41.0970 C   0  0  0  0  0  3  0  0  0  0  0  0
   38.3630   24.0410   40.0450 C   0  0  0  0  0  3  0  0  0  0  0  0
   38.7500   25.8670   40.4820 S   0  0  0  0  0  0  0  0  0  0  0  0
   38.4370   27.4290   43.6790 C   0  0  0  0  0  0  0  0  0  0  0  0
   39.3260   27.7440   43.1390 H   0  0  0  0  0  0  0  0  0  0  0  0
   38.0720   28.1650   44.3900 H   0  0  0  0  0  0  0  0  0  0  0  0
   38.6750   26.4740   44.2040 H   0  0  0  0  0  0  0  0  0  0  0  0
  1  2  1  1  0  0  0
  1 18  1  0  0  0  0
  3  4  1  0  0  0  0
  4  5  2  0  0  0  0
  4  1  1  0  0  0  0
  5 10  1  0  0  0  0
  6  5  1  0  0  0  0
  7  6  2  0  0  0  0
  8  7  1  0  0  0  0
  8  3  2  0  0  0  0
  9  3  1  0  0  0  0
 11  7  1  0  0  0  0
 12 13  2  0  0  0  0
 12  1  1  0  0  0  0
 13 14  1  0  0  0  0
 15 13  1  0  0  0  0
 16 17  1  0  0  0  0
 16 15  2  0  0  0  0
 17 12  1  0  0  0  0
 18 21  1  0  0  0  0
 18 20  1  0  0  0  0
 19 18  1  0  0  0  0
M  END
>  <minimizedAffinity>
-4.08193159

$$$$

 OpenBabel03242523433D

 21 22  0  0  1  0  0  0  0  0999 V2000
   36.9650   27.3050   42.2660 C   0  0  1  0  0  0  0  0  0  0  0  0
   36.2800   26.6120   41.7380 H   0  0  0  0  0  0  0  0  0  0  0  0
   35.8010   28.8390   40.7740 C   0  0  0  0  0  0  0  0  0  0  0  0
   36.8440   28.6140   41.6680 C   0  0  0  0  0  0  0  0  0  0  0  0
   37.7070   29.6890   41.9230 C   0  0  0  0  0  0  0  0  0  0  0  0
   37.4610   30.8660   41.2790 N   0  0  0  0  0  0  0  0  0  0  0  0
   36.4530   31.0560   40.4250 C   0  0  0  0  0  0  0  0  0  0  0  0
   35.6090   30.0290   40.1650 N   0  0  0  0  0  0  0  0  0  0  0  0
   35.1150   28.0350   40.5510 H   0  0  0  0  0  0  0  0  0  0  0  0
   38.5170   29.5560   42.6040 H   0  0  0  0  0  0  0  0  0  0  0  0
   36.4600   32.0650   40.0390 H   0  0  0  0  0  0  0  0  0  0  0  0
   38.2930   26.7970   42.2860 C   0  0  0  0  0  0  0  0  0  0  0  0
   39.0240   26.6400   43.5550 C   0  0  0  0  0  0  0  0  0  0  0  0
   38.7780   26.8210   44.5850 H   0  0  0  0  0  0  0  0  0  0  0  0
   40.2840   26.1660   43.5500 C   0  0  0  0  0  3  0  0  0  0  0  0
   40.8870   25.8140   42.1760 C   0  0  0  0  0  3  0  0  0  0  0  0
   39.4090   26.2650   41.0390 S   0  0  0  0  0  0  0  0  0  0  0  0
   36.3520   27.3940   43.6800 C   0  0  0  0  0  0  0  0  0  0  0  0
   36.9260   28.0820   44.2960 H   0  0  0  0  0  0  0  0  0  0  0  0
   35.3060   27.6680   43.5730 H   0  0  0  0  0  0  0  0  0  0  0  0
   36.4380   26.3770   44.1300 H   0  0  0  0  0  0  0  0  0  0  0  0
  1  2  1  6  0  0  0
  1 12  1  0  0  0  0
  1 18  1  0  0  0  0
  3  4  1  0  0  0  0
  4  5  2  0  0  0  0
  4  1  1  0  0  0  0
  5 10  1  0  0  0  0
  6  5  1  0  0  0  0
  7  6  2  0  0  0  0
  8  7  1  0  0  0  0
  8  3  2  0  0  0  0
  9  3  1  0  0  0  0
 11  7  1  0  0  0  0
 12 13  2  0  0  0  0
 13 14  1  0  0  0  0
 15 13  1  0  0  0  0
 16 15  2  0  0  0  0
 17 16  1  0  0  0  0
 17 12  1  0  0  0  0
 18 21  1  0  0  0  0
 18 19  1  0  0  0  0
 20 18  1  0  0  0  0
M  END
>  <minimizedAffinity>
-4.04050541

$$$$

 OpenBabel03242523433D

 21 22  0  0  1  0  0  0  0  0999 V2000
   37.8550   27.9990   43.5350 C   0  0  1  0  0  0  0  0  0  0  0  0
   38.0900   28.3020   44.5750 H   0  0  0  0  0  0  0  0  0  0  0  0
   38.2110   25.9410   42.2800 C   0  0  0  0  0  0  0  0  0  0  0  0
   38.7020   26.8840   43.1800 C   0  0  0  0  0  0  0  0  0  0  0  0
   39.9940   26.6750   43.6800 C   0  0  0  0  0  0  0  0  0  0  0  0
   40.6700   25.5710   43.2490 N   0  0  0  0  0  0  0  0  0  0  0  0
   40.1770   24.6810   42.3840 C   0  0  0  0  0  0  0  0  0  0  0  0
   38.9300   24.8650   41.8910 N   0  0  0  0  0  0  0  0  0  0  0  0
   37.2190   26.0670   41.8730 H   0  0  0  0  0  0  0  0  0  0  0  0
   40.4050   27.3760   44.3710 H   0  0  0  0  0  0  0  0  0  0  0  0
   40.8910   23.8930   42.1930 H   0  0  0  0  0  0  0  0  0  0  0  0
   37.9500   29.1050   42.6450 C   0  0  0  0  0  0  0  0  0  0  0  0
   36.8050   29.5040   41.8090 C   0  0  0  0  0  0  0  0  0  0  0  0
   35.8010   29.1390   41.6950 H   0  0  0  0  0  0  0  0  0  0  0  0
   36.9190   30.5480   40.9670 C   0  0  0  0  0  3  0  0  0  0  0  0
   38.2820   31.2690   40.9380 C   0  0  0  0  0  3  0  0  0  0  0  0
   39.2360   30.2290   42.2370 S   0  0  0  0  0  0  0  0  0  0  0  0
   36.4140   27.4580   43.6420 C   0  0  0  0  0  0  0  0  0  0  0  0
   36.0760   27.0940   42.6760 H   0  0  0  0  0  0  0  0  0  0  0  0
   36.3990   26.7050   44.4260 H   0  0  0  0  0  0  0  0  0  0  0  0
   35.7690   28.3220   43.9290 H   0  0  0  0  0  0  0  0  0  0  0  0
  1 18  1  0  0  0  0
  1  2  1  1  0  0  0
  3  4  1  0  0  0  0
  4  1  1  0  0  0  0
  4  5  2  0  0  0  0
  5 10  1  0  0  0  0
  6  5  1  0  0  0  0
  7  6  2  0  0  0  0
  8  3  2  0  0  0  0
  8  7  1  0  0  0  0
  9  3  1  0  0  0  0
 11  7  1  0  0  0  0
 12  1  1  0  0  0  0
 13 12  2  0  0  0  0
 14 13  1  0  0  0  0
 15 13  1  0  0  0  0
 16 15  2  0  0  0  0
 16 17  1  0  0  0  0
 17 12  1  0  0  0  0
 18 21  1  0  0  0  0
 18 20  1  0  0  0  0
 19 18  1  0  0  0  0
M  END
>  <minimizedAffinity>
-4.01281118

$$$$

 OpenBabel03242523433D

 21 22  0  0  1  0  0  0  0  0999 V2000
   37.4490   27.6820   42.6630 C   0  0  1  0  0  0  0  0  0  0  0  0
   38.2970   27.9860   43.3090 H   0  0  0  0  0  0  0  0  0  0  0  0
   37.0700   25.3100   42.2570 C   0  0  0  0  0  0  0  0  0  0  0  0
   37.8070   26.4590   41.9820 C   0  0  0  0  0  0  0  0  0  0  0  0
   38.8510   26.3400   41.0550 C   0  0  0  0  0  0  0  0  0  0  0  0
   39.0650   25.1140   40.4960 N   0  0  0  0  0  0  0  0  0  0  0  0
   38.3450   24.0270   40.7770 C   0  0  0  0  0  0  0  0  0  0  0  0
   37.3320   24.1220   41.6710 N   0  0  0  0  0  0  0  0  0  0  0  0
   36.2580   25.3610   42.9670 H   0  0  0  0  0  0  0  0  0  0  0  0
   39.4360   27.1990   40.8170 H   0  0  0  0  0  0  0  0  0  0  0  0
   38.6980   23.1740   40.2150 H   0  0  0  0  0  0  0  0  0  0  0  0
   37.0640   28.7390   41.7930 C   0  0  0  0  0  0  0  0  0  0  0  0
   35.8070   28.6700   41.0290 C   0  0  0  0  0  0  0  0  0  0  0  0
   35.0130   27.9490   40.9620 H   0  0  0  0  0  0  0  0  0  0  0  0
   35.4660   29.6770   40.2040 C   0  0  0  0  0  3  0  0  0  0  0  0
   36.4470   30.8630   40.1160 C   0  0  0  0  0  3  0  0  0  0  0  0
   37.7980   30.2690   41.3400 S   0  0  0  0  0  0  0  0  0  0  0  0
   36.3430   27.3290   43.6780 C   0  0  0  0  0  0  0  0  0  0  0  0
   35.4540   26.9790   43.1600 H   0  0  0  0  0  0  0  0  0  0  0  0
   36.7530   26.6090   44.3810 H   0  0  0  0  0  0  0  0  0  0  0  0
   36.0810   28.2750   44.2080 H   0  0  0  0  0  0  0  0  0  0  0  0
  1  2  1  1  0  0  0
  1 18  1  0  0  0  0
  3  9  1  0  0  0  0
  4  3  1  0  0  0  0
  4  1  1  0  0  0  0
  5  4  2  0  0  0  0
  6  7  2  0  0  0  0
  6  5  1  0  0  0  0
  7  8  1  0  0  0  0
  8  3  2  0  0  0  0
 10  5  1  0  0  0  0
 11  7  1  0  0  0  0
 12  1  1  0  0  0  0
 13 12  2  0  0  0  0
 14 13  1  0  0  0  0
 15 13  1  0  0  0  0
 16 15  2  0  0  0  0
 16 17  1  0  0  0  0
 17 12  1  0  0  0  0
 18 21  1  0  0  0  0
 18 20  1  0  0  0  0
 19 18  1  0  0  0  0
M  END
>  <minimizedAffinity>
-3.92088127

$$$$

 OpenBabel03242523433D

 21 22  0  0  1  0  0  0  0  0999 V2000
   36.3980   28.9840   40.0110 C   0  0  1  0  0  0  0  0  0  0  0  0
   36.4760   28.3350   39.1160 H   0  0  0  0  0  0  0  0  0  0  0  0
   36.9000   31.2820   40.6470 C   0  0  0  0  0  0  0  0  0  0  0  0
   36.7900   30.3240   39.6420 C   0  0  0  0  0  0  0  0  0  0  0  0
   37.0720   30.7400   38.3330 C   0  0  0  0  0  0  0  0  0  0  0  0
   37.4290   32.0430   38.1450 N   0  0  0  0  0  0  0  0  0  0  0  0
   37.5280   32.9420   39.1260 C   0  0  0  0  0  0  0  0  0  0  0  0
   37.2590   32.5600   40.3970 N   0  0  0  0  0  0  0  0  0  0  0  0
   36.6910   31.0010   41.6690 H   0  0  0  0  0  0  0  0  0  0  0  0
   36.9990   30.0350   37.5370 H   0  0  0  0  0  0  0  0  0  0  0  0
   37.8240   33.9060   38.7380 H   0  0  0  0  0  0  0  0  0  0  0  0
   37.1360   28.4440   41.1010 C   0  0  0  0  0  0  0  0  0  0  0  0
   36.4520   27.9700   42.3160 C   0  0  0  0  0  0  0  0  0  0  0  0
   35.4230   27.9140   42.6200 H   0  0  0  0  0  0  0  0  0  0  0  0
   37.1700   27.4710   43.3400 C   0  0  0  0  0  3  0  0  0  0  0  0
   38.7000   27.4310   43.1580 C   0  0  0  0  0  3  0  0  0  0  0  0
   38.8470   28.1820   41.3990 S   0  0  0  0  0  0  0  0  0  0  0  0
   34.8820   29.0170   40.2920 C   0  0  0  0  0  0  0  0  0  0  0  0
   34.6700   29.6580   41.1430 H   0  0  0  0  0  0  0  0  0  0  0  0
   34.3810   29.3210   39.3770 H   0  0  0  0  0  0  0  0  0  0  0  0
   34.5840   27.9770   40.5630 H   0  0  0  0  0  0  0  0  0  0  0  0
  1  2  1  6  0  0  0
  1 18  1  0  0  0  0
  1 12  1  0  0  0  0
  3  9  1  0  0  0  0
  4  1  1  0  0  0  0
  4  3  2  0  0  0  0
  5  4  1  0  0  0  0
  6  5  2  0  0  0  0
  6  7  1  0  0  0  0
  7  8  2  0  0  0  0
  8  3  1  0  0  0  0
 10  5  1  0  0  0  0
 11  7  1  0  0  0  0
 12 17  1  0  0  0  0
 12 13  2  0  0  0  0
 13 14  1  0  0  0  0
 13 15  1  0  0  0  0
 16 15  2  0  0  0  0
 17 16  1  0  0  0  0
 18 21  1  0  0  0  0
 18 19  1  0  0  0  0
 20 18  1  0  0  0  0
M  END
>  <minimizedAffinity>
-3.91360474

$$$$

 OpenBabel03242523433D

 21 22  0  0  1  0  0  0  0  0999 V2000
   37.3840   28.6270   42.9060 C   0  0  1  0  0  0  0  0  0  0  0  0
   37.1650   29.4120   43.6570 H   0  0  0  0  0  0  0  0  0  0  0  0
   39.1180   27.0390   43.5470 C   0  0  0  0  0  0  0  0  0  0  0  0
   38.7820   28.2760   43.0040 C   0  0  0  0  0  0  0  0  0  0  0  0
   39.8400   29.0970   42.5880 C   0  0  0  0  0  0  0  0  0  0  0  0
   41.1100   28.6240   42.7470 N   0  0  0  0  0  0  0  0  0  0  0  0
   41.4050   27.4330   43.2720 C   0  0  0  0  0  0  0  0  0  0  0  0
   40.3970   26.6260   43.6800 N   0  0  0  0  0  0  0  0  0  0  0  0
   38.3310   26.3780   43.8800 H   0  0  0  0  0  0  0  0  0  0  0  0
   39.6230   30.0520   42.1660 H   0  0  0  0  0  0  0  0  0  0  0  0
   42.4740   27.2770   43.2980 H   0  0  0  0  0  0  0  0  0  0  0  0
   36.9780   29.0340   41.6050 C   0  0  0  0  0  0  0  0  0  0  0  0
   36.5880   30.4280   41.3350 C   0  0  0  0  0  0  0  0  0  0  0  0
   36.5350   31.3170   41.9350 H   0  0  0  0  0  0  0  0  0  0  0  0
   36.1980   30.7890   40.0980 C   0  0  0  0  0  3  0  0  0  0  0  0
   36.1880   29.6830   39.0240 C   0  0  0  0  0  3  0  0  0  0  0  0
   36.7930   28.1950   40.0730 S   0  0  0  0  0  0  0  0  0  0  0  0
   36.5770   27.4160   43.4180 C   0  0  0  0  0  0  0  0  0  0  0  0
   36.7370   26.5560   42.7720 H   0  0  0  0  0  0  0  0  0  0  0  0
   36.8540   27.2450   44.4540 H   0  0  0  0  0  0  0  0  0  0  0  0
   35.5000   27.6990   43.3510 H   0  0  0  0  0  0  0  0  0  0  0  0
  1  4  1  0  0  0  0
  1 18  1  0  0  0  0
  1  2  1  1  0  0  0
  3  8  1  0  0  0  0
  3  9  1  0  0  0  0
  4  3  2  0  0  0  0
  5  6  2  0  0  0  0
  5  4  1  0  0  0  0
  6  7  1  0  0  0  0
  7 11  1  0  0  0  0
  7  8  2  0  0  0  0
 10  5  1  0  0  0  0
 12  1  1  0  0  0  0
 13 12  2  0  0  0  0
 13 14  1  0  0  0  0
 15 13  1  0  0  0  0
 16 17  1  0  0  0  0
 16 15  2  0  0  0  0
 17 12  1  0  0  0  0
 18 20  1  0  0  0  0
 19 18  1  0  0  0  0
 21 18  1  0  0  0  0
M  END
>  <minimizedAffinity>
-3.86112452

$$$$

 OpenBabel03242523433D

 21 22  0  0  1  0  0  0  0  0999 V2000
   37.3130   29.5010   40.3780 C   0  0  1  0  0  0  0  0  0  0  0  0
   37.6170   29.0760   39.4000 H   0  0  0  0  0  0  0  0  0  0  0  0
   37.0270   31.8490   39.7910 C   0  0  0  0  0  0  0  0  0  0  0  0
   37.7700   30.8700   40.4450 C   0  0  0  0  0  0  0  0  0  0  0  0
   38.9200   31.2920   41.1270 C   0  0  0  0  0  0  0  0  0  0  0  0
   39.2210   32.6230   41.0980 N   0  0  0  0  0  0  0  0  0  0  0  0
   38.4920   33.5420   40.4630 C   0  0  0  0  0  0  0  0  0  0  0  0
   37.3780   33.1530   39.7980 N   0  0  0  0  0  0  0  0  0  0  0  0
   36.1350   31.5630   39.2540 H   0  0  0  0  0  0  0  0  0  0  0  0
   39.5140   30.5720   41.6410 H   0  0  0  0  0  0  0  0  0  0  0  0
   38.9240   34.5250   40.5780 H   0  0  0  0  0  0  0  0  0  0  0  0
   37.7620   28.6860   41.4530 C   0  0  0  0  0  0  0  0  0  0  0  0
   36.9490   28.5210   42.6690 C   0  0  0  0  0  0  0  0  0  0  0  0
   35.9910   28.8930   42.9820 H   0  0  0  0  0  0  0  0  0  0  0  0
   37.3970   27.7520   43.6790 C   0  0  0  0  0  3  0  0  0  0  0  0
   38.7720   27.0820   43.4810 C   0  0  0  0  0  3  0  0  0  0  0  0
   39.2100   27.7310   41.7310 S   0  0  0  0  0  0  0  0  0  0  0  0
   35.7740   29.5420   40.2800 C   0  0  0  0  0  0  0  0  0  0  0  0
   35.3510   29.9780   41.1820 H   0  0  0  0  0  0  0  0  0  0  0  0
   35.5120   30.0760   39.3700 H   0  0  0  0  0  0  0  0  0  0  0  0
   35.4290   28.4830   40.2160 H   0  0  0  0  0  0  0  0  0  0  0  0
  1  2  1  6  0  0  0
  1  4  1  0  0  0  0
  1 12  1  0  0  0  0
  3  8  2  0  0  0  0
  3  4  1  0  0  0  0
  4  5  2  0  0  0  0
  5 10  1  0  0  0  0
  6  5  1  0  0  0  0
  7 11  1  0  0  0  0
  7  6  2  0  0  0  0
  8  7  1  0  0  0  0
  9  3  1  0  0  0  0
 12 17  1  0  0  0  0
 12 13  2  0  0  0  0
 13 14  1  0  0  0  0
 13 15  1  0  0  0  0
 16 15  2  0  0  0  0
 17 16  1  0  0  0  0
 18  1  1  0  0  0  0
 18 19  1  0  0  0  0
 20 18  1  0  0  0  0
 21 18  1  0  0  0  0
M  END
>  <minimizedAffinity>
-3.79888463

$$$$

 OpenBabel03242523433D

 21 22  0  0  1  0  0  0  0  0999 V2000
   36.9280   28.7170   42.1950 C   0  0  1  0  0  0  0  0  0  0  0  0
   35.9470   28.9870   42.6350 H   0  0  0  0  0  0  0  0  0  0  0  0
   36.3510   30.6940   40.8930 C   0  0  0  0  0  0  0  0  0  0  0  0
   37.3010   29.7390   41.2450 C   0  0  0  0  0  0  0  0  0  0  0  0
   38.5620   29.8430   40.6420 C   0  0  0  0  0  0  0  0  0  0  0  0
   38.7610   30.8660   39.7610 N   0  0  0  0  0  0  0  0  0  0  0  0
   37.8330   31.7690   39.4400 C   0  0  0  0  0  0  0  0  0  0  0  0
   36.6080   31.6850   40.0120 N   0  0  0  0  0  0  0  0  0  0  0  0
   35.3670   30.6470   41.3360 H   0  0  0  0  0  0  0  0  0  0  0  0
   39.3160   29.1300   40.8870 H   0  0  0  0  0  0  0  0  0  0  0  0
   38.2180   32.4810   38.7240 H   0  0  0  0  0  0  0  0  0  0  0  0
   36.9030   27.4030   41.6540 C   0  0  0  0  0  0  0  0  0  0  0  0
   37.1430   26.2280   42.5080 C   0  0  0  0  0  0  0  0  0  0  0  0
   37.3450   26.0940   43.5540 H   0  0  0  0  0  0  0  0  0  0  0  0
   37.1230   24.9930   41.9720 C   0  0  0  0  0  3  0  0  0  0  0  0
   36.8430   24.8980   40.4590 C   0  0  0  0  0  3  0  0  0  0  0  0
   36.6410   26.7580   40.0410 S   0  0  0  0  0  0  0  0  0  0  0  0
   37.8950   28.8370   43.3920 C   0  0  0  0  0  0  0  0  0  0  0  0
   38.9130   28.6250   43.0760 H   0  0  0  0  0  0  0  0  0  0  0  0
   37.7670   29.8250   43.8250 H   0  0  0  0  0  0  0  0  0  0  0  0
   37.5930   28.0540   44.1270 H   0  0  0  0  0  0  0  0  0  0  0  0
  1  2  1  1  0  0  0
  1 18  1  0  0  0  0
  3  4  1  0  0  0  0
  3  9  1  0  0  0  0
  4  1  1  0  0  0  0
  5 10  1  0  0  0  0
  5  4  2  0  0  0  0
  6  5  1  0  0  0  0
  7  6  2  0  0  0  0
  7  8  1  0  0  0  0
  8  3  2  0  0  0  0
 11  7  1  0  0  0  0
 12  1  1  0  0  0  0
 12 13  2  0  0  0  0
 13 14  1  0  0  0  0
 15 13  1  0  0  0  0
 16 15  2  0  0  0  0
 17 16  1  0  0  0  0
 17 12  1  0  0  0  0
 18 20  1  0  0  0  0
 18 21  1  0  0  0  0
 19 18  1  0  0  0  0
M  END
>  <minimizedAffinity>
-3.79500031

$$$$
