
 OpenBabel03252509233D

 24 26  0  0  1  0  0  0  0  0999 V2000
   46.7260   34.8390   41.9630 C   0  0  1  0  0  0  0  0  0  0  0  0
   48.1650   35.4150   42.0250 C   0  0  0  0  0  0  0  0  0  0  0  0
   47.7870   33.9530   41.6420 C   0  0  2  0  0  0  0  0  0  0  0  0
   46.0800   35.3600   41.2340 H   0  0  0  0  0  0  0  0  0  0  0  0
   48.4120   36.0700   41.1740 H   0  0  0  0  0  0  0  0  0  0  0  0
   48.6290   35.6050   42.9880 H   0  0  0  0  0  0  0  0  0  0  0  0
   48.1320   33.2380   42.4270 H   0  0  0  0  0  0  0  0  0  0  0  0
   44.6010   35.4980   44.9810 C   0  0  0  0  0  0  0  0  0  0  0  0
   45.1550   35.6810   43.6710 C   0  0  0  0  0  0  0  0  0  0  0  0
   46.1290   34.7710   43.3560 C   0  0  0  0  0  0  0  0  0  0  0  0
   46.5240   33.7800   44.2390 N   0  0  0  0  0  0  0  0  0  0  0  0
   45.9660   33.6620   45.4490 C   0  0  0  0  0  0  0  0  0  0  0  0
   44.9920   34.5330   45.8250 N   0  0  0  0  0  0  0  0  0  0  0  0
   43.8360   36.1770   45.2860 H   0  0  0  0  0  0  0  0  0  0  0  0
   46.4190   32.8290   45.9680 H   0  0  0  0  0  0  0  0  0  0  0  0
   44.7440   36.7160   42.7950 N   0  0  0  0  0  0  0  0  0  0  0  0
   45.1950   37.6000   43.1520 H   0  0  0  0  0  0  0  0  0  0  0  0
   44.1220   36.6530   41.9560 H   0  0  0  0  0  0  0  0  0  0  0  0
   47.9890   33.5470   40.2560 C   0  0  0  0  0  0  0  0  0  0  0  0
   47.4780   33.9390   39.0690 C   0  0  0  0  0  0  0  0  0  0  0  0
   46.7500   34.7330   39.1100 H   0  0  0  0  0  0  0  0  0  0  0  0
   47.8990   33.3270   37.9110 C   0  0  0  0  0  3  0  0  0  0  0  0
   48.8600   32.3040   38.0510 C   0  0  0  0  0  3  0  0  0  0  0  0
   49.1540   32.2320   39.8560 S   0  0  0  0  0  0  0  0  0  0  0  0
  1  4  1  6  0  0  0
  1  2  1  0  0  0  0
  1 10  1  0  0  0  0
  2  6  1  0  0  0  0
  3  1  1  0  0  0  0
  3  2  1  0  0  0  0
  3  7  1  1  0  0  0
  5  2  1  0  0  0  0
  8 14  1  0  0  0  0
  8 13  1  0  0  0  0
  9  8  2  0  0  0  0
 10  9  1  0  0  0  0
 10 11  2  0  0  0  0
 11 12  1  0  0  0  0
 12 13  2  0  0  0  0
 12 15  1  0  0  0  0
 16 17  1  0  0  0  0
 16  9  1  0  0  0  0
 18 16  1  0  0  0  0
 19  3  1  0  0  0  0
 20 21  1  0  0  0  0
 20 19  2  0  0  0  0
 22 23  2  0  0  0  0
 22 20  1  0  0  0  0
 23 24  1  0  0  0  0
 24 19  1  0  0  0  0
M  END
>  <minimizedAffinity>
-4.64850712

>  <minimizedRMSD>
0.589375973

$$$$
