
 OpenBabel03242512393D

 31 34  0  0  0  0  0  0  0  0999 V2000
   36.2940   29.9310   40.6850 C   0  0  0  0  0  0  0  0  0  0  0  0
   36.1990   31.1290   41.0560 O   0  0  0  0  0  0  0  0  0  0  0  0
   34.5460   29.1210   39.0320 C   0  0  0  0  0  0  0  0  0  0  0  0
   35.7870   29.6600   39.3160 C   0  0  0  0  0  0  0  0  0  0  0  0
   36.6480   29.9650   38.2700 C   0  0  0  0  0  0  0  0  0  0  0  0
   36.3270   29.7550   36.9390 C   0  0  0  0  0  0  0  0  0  0  0  0
   36.9800   29.9640   35.7790 N   0  0  0  0  0  0  0  0  0  0  0  0
   36.1970   29.5770   34.7640 C   0  0  0  0  0  0  0  0  0  0  0  0
   34.9980   29.1020   35.2990 C   0  0  0  0  0  0  0  0  0  0  0  0
   35.0860   29.2170   36.6800 C   0  0  0  0  0  0  0  0  0  0  0  0
   34.2250   28.9110   37.7000 C   0  0  0  0  0  0  0  0  0  0  0  0
   33.9030   28.8980   39.8710 H   0  0  0  0  0  0  0  0  0  0  0  0
   37.6580   30.3960   38.3930 H   0  0  0  0  0  0  0  0  0  0  0  0
   37.9420   30.3630   35.6580 H   0  0  0  0  0  0  0  0  0  0  0  0
   36.4670   29.6320   33.7110 H   0  0  0  0  0  0  0  0  0  0  0  0
   34.1730   28.7200   34.7150 H   0  0  0  0  0  0  0  0  0  0  0  0
   33.2550   28.4900   37.4740 H   0  0  0  0  0  0  0  0  0  0  0  0
   36.8340   28.8460   41.4540 C   0  0  0  0  0  0  0  0  0  0  0  0
   37.3250   29.1590   42.7060 C   0  0  0  0  0  0  0  0  0  0  0  0
   37.8570   28.0870   43.4570 C   0  0  0  0  0  0  0  0  0  0  0  0
   37.8580   26.8300   42.9180 N   0  0  0  0  0  0  0  0  0  0  0  0
   37.3690   26.5940   41.7020 C   0  0  0  0  0  0  0  0  0  0  0  0
   36.8540   27.5980   40.9640 N   0  0  0  0  0  0  0  0  0  0  0  0
   37.3420   30.1210   43.1610 H   0  0  0  0  0  0  0  0  0  0  0  0
   38.2640   28.2310   44.4450 H   0  0  0  0  0  0  0  0  0  0  0  0
   37.4240   25.2210   41.2380 C   0  0  0  0  0  0  0  0  0  0  0  0
   36.5730   24.4730   40.5020 C   0  0  0  0  0  0  0  0  0  0  0  0
   35.6620   24.9590   40.1780 H   0  0  0  0  0  0  0  0  0  0  0  0
   36.8790   23.1820   40.2070 C   0  0  0  0  0  3  0  0  0  0  0  0
   38.0760   22.6740   40.6800 C   0  0  0  0  0  3  0  0  0  0  0  0
   38.8300   24.0380   41.5840 S   0  0  0  0  0  0  0  0  0  0  0  0
  1  2  2  0  0  0  0
  1 18  1  0  0  0  0
  3  4  1  0  0  0  0
  3 12  1  0  0  0  0
  4  1  1  0  0  0  0
  5 13  1  0  0  0  0
  5  4  2  0  0  0  0
  6  5  1  0  0  0  0
  7  6  1  0  0  0  0
  8  9  2  0  0  0  0
  8  7  1  0  0  0  0
  9 10  1  0  0  0  0
 10  6  2  0  0  0  0
 10 11  1  0  0  0  0
 11  3  2  0  0  0  0
 14  7  1  0  0  0  0
 15  8  1  0  0  0  0
 16  9  1  0  0  0  0
 17 11  1  0  0  0  0
 18 19  1  0  0  0  0
 19 24  1  0  0  0  0
 19 20  2  0  0  0  0
 20 25  1  0  0  0  0
 21 20  1  0  0  0  0
 22 21  2  0  0  0  0
 23 18  2  0  0  0  0
 23 22  1  0  0  0  0
 26 31  1  0  0  0  0
 26 22  1  0  0  0  0
 27 26  2  0  0  0  0
 28 27  1  0  0  0  0
 29 27  1  0  0  0  0
 29 30  2  0  0  0  0
 30 31  1  0  0  0  0
M  END
>  <minimizedAffinity>
-5.80379486

$$$$

 OpenBabel03242512393D

 31 34  0  0  0  0  0  0  0  0999 V2000
   35.9550   29.2730   40.1910 C   0  0  0  0  0  0  0  0  0  0  0  0
   34.7350   29.3170   39.8890 O   0  0  0  0  0  0  0  0  0  0  0  0
   36.6210   27.9350   42.2420 C   0  0  0  0  0  0  0  0  0  0  0  0
   36.3820   28.0310   40.8850 C   0  0  0  0  0  0  0  0  0  0  0  0
   36.5590   26.9100   40.0840 C   0  0  0  0  0  0  0  0  0  0  0  0
   36.9690   25.6840   40.5800 C   0  0  0  0  0  0  0  0  0  0  0  0
   37.2060   24.4830   40.0150 N   0  0  0  0  0  0  0  0  0  0  0  0
   37.5890   23.6230   40.9670 C   0  0  0  0  0  0  0  0  0  0  0  0
   37.5960   24.3040   42.1870 C   0  0  0  0  0  0  0  0  0  0  0  0
   37.2020   25.6110   41.9350 C   0  0  0  0  0  0  0  0  0  0  0  0
   37.0310   26.7070   42.7380 C   0  0  0  0  0  0  0  0  0  0  0  0
   36.4710   28.8280   42.8330 H   0  0  0  0  0  0  0  0  0  0  0  0
   36.3940   26.8860   38.9920 H   0  0  0  0  0  0  0  0  0  0  0  0
   37.1140   24.2320   39.0010 H   0  0  0  0  0  0  0  0  0  0  0  0
   37.8450   22.5790   40.8000 H   0  0  0  0  0  0  0  0  0  0  0  0
   37.8660   23.8630   43.1360 H   0  0  0  0  0  0  0  0  0  0  0  0
   37.2200   26.6280   43.8000 H   0  0  0  0  0  0  0  0  0  0  0  0
   36.9310   30.2920   39.9270 C   0  0  0  0  0  0  0  0  0  0  0  0
   36.6890   31.5370   40.4730 C   0  0  0  0  0  0  0  0  0  0  0  0
   37.6520   32.5360   40.2070 C   0  0  0  0  0  0  0  0  0  0  0  0
   38.7420   32.2260   39.4420 N   0  0  0  0  0  0  0  0  0  0  0  0
   38.9180   31.0030   38.9440 C   0  0  0  0  0  0  0  0  0  0  0  0
   38.0150   30.0310   39.1820 N   0  0  0  0  0  0  0  0  0  0  0  0
   35.8560   31.8190   41.0720 H   0  0  0  0  0  0  0  0  0  0  0  0
   37.5520   33.5400   40.5890 H   0  0  0  0  0  0  0  0  0  0  0  0
   40.1120   30.7940   38.1500 C   0  0  0  0  0  0  0  0  0  0  0  0
   40.7390   29.6750   37.7230 C   0  0  0  0  0  0  0  0  0  0  0  0
   40.2910   28.7340   38.0110 H   0  0  0  0  0  0  0  0  0  0  0  0
   41.8700   29.7700   36.9750 C   0  0  0  0  0  3  0  0  0  0  0  0
   42.3450   31.0330   36.6720 C   0  0  0  0  0  3  0  0  0  0  0  0
   41.1810   32.1640   37.4550 S   0  0  0  0  0  0  0  0  0  0  0  0
  1  4  1  0  0  0  0
  2  1  2  0  0  0  0
  3 11  1  0  0  0  0
  3 12  1  0  0  0  0
  4  3  2  0  0  0  0
  5  6  2  0  0  0  0
  5  4  1  0  0  0  0
  6 10  1  0  0  0  0
  7  6  1  0  0  0  0
  7  8  1  0  0  0  0
  8  9  2  0  0  0  0
  9 16  1  0  0  0  0
 10  9  1  0  0  0  0
 10 11  2  0  0  0  0
 11 17  1  0  0  0  0
 13  5  1  0  0  0  0
 14  7  1  0  0  0  0
 15  8  1  0  0  0  0
 18  1  1  0  0  0  0
 18 19  1  0  0  0  0
 19 24  1  0  0  0  0
 20 19  2  0  0  0  0
 20 25  1  0  0  0  0
 21 20  1  0  0  0  0
 22 23  1  0  0  0  0
 22 21  2  0  0  0  0
 23 18  2  0  0  0  0
 26 22  1  0  0  0  0
 27 28  1  0  0  0  0
 27 26  2  0  0  0  0
 29 27  1  0  0  0  0
 30 29  2  0  0  0  0
 30 31  1  0  0  0  0
 31 26  1  0  0  0  0
M  END
>  <minimizedAffinity>
-5.71146441

$$$$

 OpenBabel03242512393D

 31 34  0  0  0  0  0  0  0  0999 V2000
   37.2370   27.1320   42.3960 C   0  0  0  0  0  0  0  0  0  0  0  0
   36.4060   26.9840   43.3290 O   0  0  0  0  0  0  0  0  0  0  0  0
   36.7620   26.2660   40.0580 C   0  0  0  0  0  0  0  0  0  0  0  0
   37.2000   26.0740   41.3550 C   0  0  0  0  0  0  0  0  0  0  0  0
   37.6260   24.8110   41.7460 C   0  0  0  0  0  0  0  0  0  0  0  0
   37.6350   23.7180   40.8950 C   0  0  0  0  0  0  0  0  0  0  0  0
   37.9920   22.4270   41.0410 N   0  0  0  0  0  0  0  0  0  0  0  0
   37.7970   21.7880   39.8810 C   0  0  0  0  0  0  0  0  0  0  0  0
   37.2940   22.7100   38.9590 C   0  0  0  0  0  0  0  0  0  0  0  0
   37.1930   23.9330   39.6090 C   0  0  0  0  0  0  0  0  0  0  0  0
   36.7710   25.1720   39.2080 C   0  0  0  0  0  0  0  0  0  0  0  0
   36.4390   27.2620   39.7900 H   0  0  0  0  0  0  0  0  0  0  0  0
   37.9920   24.5570   42.7570 H   0  0  0  0  0  0  0  0  0  0  0  0
   38.3660   21.9690   41.9070 H   0  0  0  0  0  0  0  0  0  0  0  0
   38.0010   20.7340   39.7060 H   0  0  0  0  0  0  0  0  0  0  0  0
   37.0400   22.4780   37.9350 H   0  0  0  0  0  0  0  0  0  0  0  0
   36.4290   25.3190   38.1920 H   0  0  0  0  0  0  0  0  0  0  0  0
   38.1830   28.2030   42.2660 C   0  0  0  0  0  0  0  0  0  0  0  0
   39.4350   27.9940   42.8120 C   0  0  0  0  0  0  0  0  0  0  0  0
   40.3600   29.0530   42.6830 C   0  0  0  0  0  0  0  0  0  0  0  0
   39.9780   30.1990   42.0420 N   0  0  0  0  0  0  0  0  0  0  0  0
   38.7530   30.3390   41.5360 C   0  0  0  0  0  0  0  0  0  0  0  0
   37.8500   29.3440   41.6440 N   0  0  0  0  0  0  0  0  0  0  0  0
   39.7710   27.1200   43.3180 H   0  0  0  0  0  0  0  0  0  0  0  0
   41.3620   28.9860   43.0770 H   0  0  0  0  0  0  0  0  0  0  0  0
   38.4650   31.5980   40.8780 C   0  0  0  0  0  0  0  0  0  0  0  0
   37.3390   32.0990   40.3240 C   0  0  0  0  0  0  0  0  0  0  0  0
   36.4620   31.4680   40.3590 H   0  0  0  0  0  0  0  0  0  0  0  0
   37.3490   33.3370   39.7600 C   0  0  0  0  0  3  0  0  0  0  0  0
   38.5350   34.0490   39.7770 C   0  0  0  0  0  3  0  0  0  0  0  0
   39.7110   32.9670   40.6110 S   0  0  0  0  0  0  0  0  0  0  0  0
  1  2  2  0  0  0  0
  3  4  1  0  0  0  0
  4  5  2  0  0  0  0
  4  1  1  0  0  0  0
  5 13  1  0  0  0  0
  6  7  1  0  0  0  0
  6  5  1  0  0  0  0
  7 14  1  0  0  0  0
  8  7  1  0  0  0  0
  9 10  1  0  0  0  0
  9  8  2  0  0  0  0
 10  6  2  0  0  0  0
 11 10  1  0  0  0  0
 11  3  2  0  0  0  0
 12  3  1  0  0  0  0
 15  8  1  0  0  0  0
 16  9  1  0  0  0  0
 17 11  1  0  0  0  0
 18  1  1  0  0  0  0
 18 19  1  0  0  0  0
 19 24  1  0  0  0  0
 20 19  2  0  0  0  0
 20 25  1  0  0  0  0
 21 20  1  0  0  0  0
 22 23  1  0  0  0  0
 22 21  2  0  0  0  0
 23 18  2  0  0  0  0
 26 22  1  0  0  0  0
 27 28  1  0  0  0  0
 27 26  2  0  0  0  0
 29 30  2  0  0  0  0
 29 27  1  0  0  0  0
 30 31  1  0  0  0  0
 31 26  1  0  0  0  0
M  END
>  <minimizedAffinity>
-5.66751003

$$$$

 OpenBabel03242512393D

 31 34  0  0  0  0  0  0  0  0999 V2000
   35.5780   29.0530   39.8510 C   0  0  0  0  0  0  0  0  0  0  0  0
   34.3390   29.1900   40.0170 O   0  0  0  0  0  0  0  0  0  0  0  0
   36.4510   28.0440   42.0100 C   0  0  0  0  0  0  0  0  0  0  0  0
   36.1980   27.9680   40.6530 C   0  0  0  0  0  0  0  0  0  0  0  0
   36.5520   26.8170   39.9620 C   0  0  0  0  0  0  0  0  0  0  0  0
   37.1540   25.7260   40.5670 C   0  0  0  0  0  0  0  0  0  0  0  0
   37.5790   24.5290   40.1160 N   0  0  0  0  0  0  0  0  0  0  0  0
   38.0960   23.8380   41.1400 C   0  0  0  0  0  0  0  0  0  0  0  0
   37.9950   24.6270   42.2880 C   0  0  0  0  0  0  0  0  0  0  0  0
   37.3960   25.8240   41.9180 C   0  0  0  0  0  0  0  0  0  0  0  0
   37.0530   26.9520   42.6140 C   0  0  0  0  0  0  0  0  0  0  0  0
   36.1610   28.9550   42.5140 H   0  0  0  0  0  0  0  0  0  0  0  0
   36.3930   26.6610   38.8790 H   0  0  0  0  0  0  0  0  0  0  0  0
   37.5280   24.1690   39.1330 H   0  0  0  0  0  0  0  0  0  0  0  0
   38.5150   22.8370   41.0710 H   0  0  0  0  0  0  0  0  0  0  0  0
   38.3330   24.3290   43.2710 H   0  0  0  0  0  0  0  0  0  0  0  0
   37.2530   27.0080   43.6760 H   0  0  0  0  0  0  0  0  0  0  0  0
   36.4080   29.8340   38.9780 C   0  0  0  0  0  0  0  0  0  0  0  0
   36.2550   29.6190   37.6220 C   0  0  0  0  0  0  0  0  0  0  0  0
   37.0760   30.3890   36.7690 C   0  0  0  0  0  0  0  0  0  0  0  0
   37.9560   31.2820   37.3160 N   0  0  0  0  0  0  0  0  0  0  0  0
   38.0560   31.4420   38.6350 C   0  0  0  0  0  0  0  0  0  0  0  0
   37.2840   30.7210   39.4720 N   0  0  0  0  0  0  0  0  0  0  0  0
   35.5840   28.9370   37.1570 H   0  0  0  0  0  0  0  0  0  0  0  0
   37.0300   30.2940   35.6960 H   0  0  0  0  0  0  0  0  0  0  0  0
   39.0230   32.4180   39.0960 C   0  0  0  0  0  0  0  0  0  0  0  0
   38.9760   33.3610   40.0620 C   0  0  0  0  0  0  0  0  0  0  0  0
   38.0520   33.4330   40.6210 H   0  0  0  0  0  0  0  0  0  0  0  0
   40.0520   34.1610   40.2890 C   0  0  0  0  0  3  0  0  0  0  0  0
   41.1770   33.9730   39.5070 C   0  0  0  0  0  3  0  0  0  0  0  0
   40.7440   32.6240   38.3920 S   0  0  0  0  0  0  0  0  0  0  0  0
  1  2  2  0  0  0  0
  1  4  1  0  0  0  0
  3 12  1  0  0  0  0
  3 11  1  0  0  0  0
  4  3  2  0  0  0  0
  5  6  2  0  0  0  0
  5  4  1  0  0  0  0
  6 10  1  0  0  0  0
  7  6  1  0  0  0  0
  7  8  1  0  0  0  0
  8  9  2  0  0  0  0
  9 16  1  0  0  0  0
 10  9  1  0  0  0  0
 10 11  2  0  0  0  0
 11 17  1  0  0  0  0
 13  5  1  0  0  0  0
 14  7  1  0  0  0  0
 15  8  1  0  0  0  0
 18 23  1  0  0  0  0
 18  1  1  0  0  0  0
 19 18  2  0  0  0  0
 20 21  2  0  0  0  0
 20 19  1  0  0  0  0
 21 22  1  0  0  0  0
 22 26  1  0  0  0  0
 22 23  2  0  0  0  0
 24 19  1  0  0  0  0
 25 20  1  0  0  0  0
 26 27  2  0  0  0  0
 27 29  1  0  0  0  0
 27 28  1  0  0  0  0
 30 29  2  0  0  0  0
 31 26  1  0  0  0  0
 31 30  1  0  0  0  0
M  END
>  <minimizedAffinity>
-5.64578581

$$$$

 OpenBabel03242512393D

 31 34  0  0  0  0  0  0  0  0999 V2000
   36.8670   27.4030   42.6140 C   0  0  0  0  0  0  0  0  0  0  0  0
   36.2030   27.4910   43.6800 O   0  0  0  0  0  0  0  0  0  0  0  0
   35.7790   28.6530   40.6920 C   0  0  0  0  0  0  0  0  0  0  0  0
   36.7260   28.5600   41.6950 C   0  0  0  0  0  0  0  0  0  0  0  0
   37.6320   29.5980   41.8690 C   0  0  0  0  0  0  0  0  0  0  0  0
   37.6400   30.7370   41.0810 C   0  0  0  0  0  0  0  0  0  0  0  0
   38.4010   31.8490   41.0580 N   0  0  0  0  0  0  0  0  0  0  0  0
   37.9730   32.6490   40.0740 C   0  0  0  0  0  0  0  0  0  0  0  0
   36.8960   32.0200   39.4440 C   0  0  0  0  0  0  0  0  0  0  0  0
   36.6890   30.8070   40.0880 C   0  0  0  0  0  0  0  0  0  0  0  0
   35.7880   29.7930   39.9030 C   0  0  0  0  0  0  0  0  0  0  0  0
   35.0900   27.8270   40.5870 H   0  0  0  0  0  0  0  0  0  0  0  0
   38.4240   29.6170   42.6400 H   0  0  0  0  0  0  0  0  0  0  0  0
   39.2030   32.0790   41.6930 H   0  0  0  0  0  0  0  0  0  0  0  0
   38.4020   33.6170   39.8230 H   0  0  0  0  0  0  0  0  0  0  0  0
   36.3460   32.4320   38.6100 H   0  0  0  0  0  0  0  0  0  0  0  0
   35.0490   29.8690   39.1170 H   0  0  0  0  0  0  0  0  0  0  0  0
   37.7170   26.3110   42.2340 C   0  0  0  0  0  0  0  0  0  0  0  0
   37.0920   25.1220   41.9140 C   0  0  0  0  0  0  0  0  0  0  0  0
   37.9340   24.0510   41.5430 C   0  0  0  0  0  0  0  0  0  0  0  0
   39.2880   24.2430   41.5210 N   0  0  0  0  0  0  0  0  0  0  0  0
   39.8300   25.4170   41.8410 C   0  0  0  0  0  0  0  0  0  0  0  0
   39.0500   26.4570   42.1980 N   0  0  0  0  0  0  0  0  0  0  0  0
   36.0450   24.9320   41.9180 H   0  0  0  0  0  0  0  0  0  0  0  0
   37.5410   23.0830   41.2760 H   0  0  0  0  0  0  0  0  0  0  0  0
   41.2760   25.5010   41.7800 C   0  0  0  0  0  0  0  0  0  0  0  0
   42.1440   25.5230   40.7450 C   0  0  0  0  0  0  0  0  0  0  0  0
   41.7140   25.4690   39.7530 H   0  0  0  0  0  0  0  0  0  0  0  0
   43.4820   25.6060   40.9770 C   0  0  0  0  0  3  0  0  0  0  0  0
   43.9100   25.6690   42.2910 C   0  0  0  0  0  3  0  0  0  0  0  0
   42.3990   25.6070   43.2720 S   0  0  0  0  0  0  0  0  0  0  0  0
  1  2  2  0  0  0  0
  3  4  1  0  0  0  0
  4  5  2  0  0  0  0
  4  1  1  0  0  0  0
  5 13  1  0  0  0  0
  6  5  1  0  0  0  0
  7  6  1  0  0  0  0
  7 14  1  0  0  0  0
  8  7  1  0  0  0  0
  9  8  2  0  0  0  0
  9 10  1  0  0  0  0
 10  6  2  0  0  0  0
 11 10  1  0  0  0  0
 11  3  2  0  0  0  0
 12  3  1  0  0  0  0
 15  8  1  0  0  0  0
 16  9  1  0  0  0  0
 17 11  1  0  0  0  0
 18  1  1  0  0  0  0
 19 24  1  0  0  0  0
 19 18  2  0  0  0  0
 20 19  1  0  0  0  0
 21 20  2  0  0  0  0
 21 22  1  0  0  0  0
 22 23  2  0  0  0  0
 23 18  1  0  0  0  0
 25 20  1  0  0  0  0
 26 22  1  0  0  0  0
 26 31  1  0  0  0  0
 27 29  1  0  0  0  0
 27 26  2  0  0  0  0
 28 27  1  0  0  0  0
 29 30  2  0  0  0  0
 30 31  1  0  0  0  0
M  END
>  <minimizedAffinity>
-5.57243633

$$$$

 OpenBabel03242512393D

 31 34  0  0  0  0  0  0  0  0999 V2000
   36.4360   29.9850   40.9780 C   0  0  0  0  0  0  0  0  0  0  0  0
   36.1510   31.1470   41.3660 O   0  0  0  0  0  0  0  0  0  0  0  0
   34.7260   29.0580   39.3470 C   0  0  0  0  0  0  0  0  0  0  0  0
   35.9480   29.6450   39.6170 C   0  0  0  0  0  0  0  0  0  0  0  0
   36.8080   29.9340   38.5660 C   0  0  0  0  0  0  0  0  0  0  0  0
   36.5040   29.6620   37.2420 C   0  0  0  0  0  0  0  0  0  0  0  0
   37.1590   29.8460   36.0800 N   0  0  0  0  0  0  0  0  0  0  0  0
   36.3970   29.3950   35.0750 C   0  0  0  0  0  0  0  0  0  0  0  0
   35.2080   28.9040   35.6210 C   0  0  0  0  0  0  0  0  0  0  0  0
   35.2820   29.0770   36.9970 C   0  0  0  0  0  0  0  0  0  0  0  0
   34.4220   28.7860   38.0220 C   0  0  0  0  0  0  0  0  0  0  0  0
   34.0830   28.8480   40.1900 H   0  0  0  0  0  0  0  0  0  0  0  0
   37.8030   30.4010   38.6790 H   0  0  0  0  0  0  0  0  0  0  0  0
   38.1100   30.2690   35.9490 H   0  0  0  0  0  0  0  0  0  0  0  0
   36.6730   29.4160   34.0230 H   0  0  0  0  0  0  0  0  0  0  0  0
   34.4000   28.4750   35.0470 H   0  0  0  0  0  0  0  0  0  0  0  0
   33.4670   28.3260   37.8070 H   0  0  0  0  0  0  0  0  0  0  0  0
   37.1690   28.9990   41.7210 C   0  0  0  0  0  0  0  0  0  0  0  0
   36.4510   27.9130   42.1830 C   0  0  0  0  0  0  0  0  0  0  0  0
   37.1780   26.9480   42.9160 C   0  0  0  0  0  0  0  0  0  0  0  0
   38.5170   27.1360   43.1230 N   0  0  0  0  0  0  0  0  0  0  0  0
   39.1510   28.2070   42.6490 C   0  0  0  0  0  0  0  0  0  0  0  0
   38.4820   29.1430   41.9470 N   0  0  0  0  0  0  0  0  0  0  0  0
   35.4120   27.7300   42.0440 H   0  0  0  0  0  0  0  0  0  0  0  0
   36.7070   26.0650   43.3180 H   0  0  0  0  0  0  0  0  0  0  0  0
   40.5700   28.2960   42.9320 C   0  0  0  0  0  0  0  0  0  0  0  0
   41.4650   29.2980   42.7940 C   0  0  0  0  0  0  0  0  0  0  0  0
   41.0870   30.2310   42.3990 H   0  0  0  0  0  0  0  0  0  0  0  0
   42.7650   29.1050   43.1430 C   0  0  0  0  0  3  0  0  0  0  0  0
   43.1280   27.8650   43.6370 C   0  0  0  0  0  3  0  0  0  0  0  0
   41.6050   26.9000   43.6240 S   0  0  0  0  0  0  0  0  0  0  0  0
  1  2  2  0  0  0  0
  1 18  1  0  0  0  0
  3  4  1  0  0  0  0
  3 12  1  0  0  0  0
  4  1  1  0  0  0  0
  5 13  1  0  0  0  0
  5  4  2  0  0  0  0
  6  5  1  0  0  0  0
  7  6  1  0  0  0  0
  8  9  2  0  0  0  0
  8  7  1  0  0  0  0
  9 10  1  0  0  0  0
 10  6  2  0  0  0  0
 10 11  1  0  0  0  0
 11  3  2  0  0  0  0
 14  7  1  0  0  0  0
 15  8  1  0  0  0  0
 16  9  1  0  0  0  0
 17 11  1  0  0  0  0
 18 23  2  0  0  0  0
 18 19  1  0  0  0  0
 19 20  2  0  0  0  0
 20 21  1  0  0  0  0
 20 25  1  0  0  0  0
 22 26  1  0  0  0  0
 22 21  2  0  0  0  0
 23 22  1  0  0  0  0
 24 19  1  0  0  0  0
 26 31  1  0  0  0  0
 27 26  2  0  0  0  0
 27 29  1  0  0  0  0
 28 27  1  0  0  0  0
 29 30  2  0  0  0  0
 31 30  1  0  0  0  0
M  END
>  <minimizedAffinity>
-5.56056118

$$$$

 OpenBabel03242512393D

 31 34  0  0  0  0  0  0  0  0999 V2000
   37.6610   30.8200   38.8500 C   0  0  0  0  0  0  0  0  0  0  0  0
   37.3190   30.5020   37.6820 O   0  0  0  0  0  0  0  0  0  0  0  0
   35.9260   29.3810   40.0170 C   0  0  0  0  0  0  0  0  0  0  0  0
   37.2090   29.8820   39.9100 C   0  0  0  0  0  0  0  0  0  0  0  0
   38.1610   29.5160   40.8520 C   0  0  0  0  0  0  0  0  0  0  0  0
   37.8900   28.6620   41.9090 C   0  0  0  0  0  0  0  0  0  0  0  0
   38.6300   28.1740   42.9240 N   0  0  0  0  0  0  0  0  0  0  0  0
   37.8610   27.3760   43.6770 C   0  0  0  0  0  0  0  0  0  0  0  0
   36.5810   27.3580   43.1180 C   0  0  0  0  0  0  0  0  0  0  0  0
   36.6060   28.1750   41.9960 C   0  0  0  0  0  0  0  0  0  0  0  0
   35.6560   28.5270   41.0750 C   0  0  0  0  0  0  0  0  0  0  0  0
   35.2130   29.6870   39.2650 H   0  0  0  0  0  0  0  0  0  0  0  0
   39.2110   29.8630   40.8530 H   0  0  0  0  0  0  0  0  0  0  0  0
   39.6420   28.3660   43.1190 H   0  0  0  0  0  0  0  0  0  0  0  0
   38.1940   26.8440   44.5660 H   0  0  0  0  0  0  0  0  0  0  0  0
   35.7460   26.7970   43.5140 H   0  0  0  0  0  0  0  0  0  0  0  0
   34.6520   28.1320   41.1620 H   0  0  0  0  0  0  0  0  0  0  0  0
   38.4250   31.9770   39.2240 C   0  0  0  0  0  0  0  0  0  0  0  0
   37.7440   32.9800   39.8860 C   0  0  0  0  0  0  0  0  0  0  0  0
   38.5020   34.1160   40.2480 C   0  0  0  0  0  0  0  0  0  0  0  0
   39.8320   34.1610   39.9330 N   0  0  0  0  0  0  0  0  0  0  0  0
   40.4290   33.1580   39.2930 C   0  0  0  0  0  0  0  0  0  0  0  0
   39.7310   32.0610   38.9350 N   0  0  0  0  0  0  0  0  0  0  0  0
   36.7130   32.9850   40.1490 H   0  0  0  0  0  0  0  0  0  0  0  0
   38.0600   34.9530   40.7670 H   0  0  0  0  0  0  0  0  0  0  0  0
   41.8430   33.3190   39.0140 C   0  0  0  0  0  0  0  0  0  0  0  0
   42.9270   33.3850   39.8170 C   0  0  0  0  0  0  0  0  0  0  0  0
   42.7460   33.3070   40.8800 H   0  0  0  0  0  0  0  0  0  0  0  0
   44.1660   33.5440   39.2790 C   0  0  0  0  0  3  0  0  0  0  0  0
   44.2700   33.6320   37.9020 C   0  0  0  0  0  3  0  0  0  0  0  0
   42.5760   33.4910   37.3020 S   0  0  0  0  0  0  0  0  0  0  0  0
  1 18  1  0  0  0  0
  1  4  1  0  0  0  0
  2  1  2  0  0  0  0
  3 11  1  0  0  0  0
  4  3  2  0  0  0  0
  4  5  1  0  0  0  0
  5 13  1  0  0  0  0
  5  6  2  0  0  0  0
  6 10  1  0  0  0  0
  6  7  1  0  0  0  0
  7 14  1  0  0  0  0
  7  8  1  0  0  0  0
  8 15  1  0  0  0  0
  9 16  1  0  0  0  0
  9  8  2  0  0  0  0
 10  9  1  0  0  0  0
 11 17  1  0  0  0  0
 11 10  2  0  0  0  0
 12  3  1  0  0  0  0
 18 19  1  0  0  0  0
 19 24  1  0  0  0  0
 19 20  2  0  0  0  0
 20 25  1  0  0  0  0
 21 20  1  0  0  0  0
 22 21  2  0  0  0  0
 23 18  2  0  0  0  0
 23 22  1  0  0  0  0
 26 22  1  0  0  0  0
 26 27  2  0  0  0  0
 27 28  1  0  0  0  0
 29 27  1  0  0  0  0
 30 29  2  0  0  0  0
 31 30  1  0  0  0  0
 31 26  1  0  0  0  0
M  END
>  <minimizedAffinity>
-5.55500269

$$$$

 OpenBabel03242512393D

 31 34  0  0  0  0  0  0  0  0999 V2000
   37.6500   30.7270   38.3780 C   0  0  0  0  0  0  0  0  0  0  0  0
   37.2080   30.7460   37.2000 O   0  0  0  0  0  0  0  0  0  0  0  0
   38.8780   32.4460   39.7840 C   0  0  0  0  0  0  0  0  0  0  0  0
   38.7610   31.6760   38.6420 C   0  0  0  0  0  0  0  0  0  0  0  0
   39.7240   31.7870   37.6480 C   0  0  0  0  0  0  0  0  0  0  0  0
   40.8110   32.6410   37.7390 C   0  0  0  0  0  0  0  0  0  0  0  0
   41.8490   32.9160   36.9260 N   0  0  0  0  0  0  0  0  0  0  0  0
   42.6260   33.8380   37.5100 C   0  0  0  0  0  0  0  0  0  0  0  0
   42.0590   34.1610   38.7450 C   0  0  0  0  0  0  0  0  0  0  0  0
   40.9070   33.3980   38.8850 C   0  0  0  0  0  0  0  0  0  0  0  0
   39.9660   33.3000   39.8740 C   0  0  0  0  0  0  0  0  0  0  0  0
   38.1110   32.3320   40.5360 H   0  0  0  0  0  0  0  0  0  0  0  0
   39.7180   31.2170   36.7010 H   0  0  0  0  0  0  0  0  0  0  0  0
   42.0450   32.4960   35.9850 H   0  0  0  0  0  0  0  0  0  0  0  0
   43.5370   34.2500   37.0810 H   0  0  0  0  0  0  0  0  0  0  0  0
   42.4690   34.8800   39.4390 H   0  0  0  0  0  0  0  0  0  0  0  0
   40.0620   33.9040   40.7670 H   0  0  0  0  0  0  0  0  0  0  0  0
   37.1810   29.8900   39.4450 C   0  0  0  0  0  0  0  0  0  0  0  0
   35.8130   29.8240   39.6250 C   0  0  0  0  0  0  0  0  0  0  0  0
   35.3590   29.0000   40.6780 C   0  0  0  0  0  0  0  0  0  0  0  0
   36.2720   28.3300   41.4450 N   0  0  0  0  0  0  0  0  0  0  0  0
   37.5810   28.4360   41.2190 C   0  0  0  0  0  0  0  0  0  0  0  0
   38.0430   29.2150   40.2200 N   0  0  0  0  0  0  0  0  0  0  0  0
   35.0700   30.3270   39.0520 H   0  0  0  0  0  0  0  0  0  0  0  0
   34.3090   28.8840   40.8980 H   0  0  0  0  0  0  0  0  0  0  0  0
   38.4520   27.6790   42.0960 C   0  0  0  0  0  0  0  0  0  0  0  0
   39.4450   28.0470   42.9340 C   0  0  0  0  0  0  0  0  0  0  0  0
   39.6630   29.1060   42.9880 H   0  0  0  0  0  0  0  0  0  0  0  0
   40.1150   27.1080   43.6540 C   0  0  0  0  0  3  0  0  0  0  0  0
   39.7440   25.7840   43.4980 C   0  0  0  0  0  3  0  0  0  0  0  0
   38.4020   25.8200   42.2960 S   0  0  0  0  0  0  0  0  0  0  0  0
  1  4  1  0  0  0  0
  1 18  1  0  0  0  0
  2  1  2  0  0  0  0
  3 11  1  0  0  0  0
  3 12  1  0  0  0  0
  4  3  2  0  0  0  0
  5  6  2  0  0  0  0
  5  4  1  0  0  0  0
  6 10  1  0  0  0  0
  7  8  1  0  0  0  0
  7  6  1  0  0  0  0
  8  9  2  0  0  0  0
  9 10  1  0  0  0  0
  9 16  1  0  0  0  0
 10 11  2  0  0  0  0
 11 17  1  0  0  0  0
 13  5  1  0  0  0  0
 14  7  1  0  0  0  0
 15  8  1  0  0  0  0
 18 19  2  0  0  0  0
 18 23  1  0  0  0  0
 19 20  1  0  0  0  0
 20 25  1  0  0  0  0
 20 21  2  0  0  0  0
 22 21  1  0  0  0  0
 22 26  1  0  0  0  0
 23 22  2  0  0  0  0
 24 19  1  0  0  0  0
 26 31  1  0  0  0  0
 26 27  2  0  0  0  0
 27 28  1  0  0  0  0
 27 29  1  0  0  0  0
 30 29  2  0  0  0  0
 31 30  1  0  0  0  0
M  END
>  <minimizedAffinity>
-5.5496254

$$$$

 OpenBabel03242512393D

 31 34  0  0  0  0  0  0  0  0999 V2000
   37.8720   32.3960   39.4740 C   0  0  0  0  0  0  0  0  0  0  0  0
   36.9590   33.2290   39.2430 O   0  0  0  0  0  0  0  0  0  0  0  0
   36.5250   30.2470   39.5750 C   0  0  0  0  0  0  0  0  0  0  0  0
   37.4210   31.1420   40.1290 C   0  0  0  0  0  0  0  0  0  0  0  0
   37.9400   30.8870   41.3920 C   0  0  0  0  0  0  0  0  0  0  0  0
   37.6040   29.7690   42.1370 C   0  0  0  0  0  0  0  0  0  0  0  0
   37.9660   29.3170   43.3530 N   0  0  0  0  0  0  0  0  0  0  0  0
   37.3310   28.1640   43.5960 C   0  0  0  0  0  0  0  0  0  0  0  0
   36.5320   27.8700   42.4880 C   0  0  0  0  0  0  0  0  0  0  0  0
   36.7090   28.8920   41.5660 C   0  0  0  0  0  0  0  0  0  0  0  0
   36.1880   29.1290   40.3220 C   0  0  0  0  0  0  0  0  0  0  0  0
   36.1430   30.4780   38.5910 H   0  0  0  0  0  0  0  0  0  0  0  0
   38.6600   31.5400   41.9180 H   0  0  0  0  0  0  0  0  0  0  0  0
   38.6330   29.7710   44.0230 H   0  0  0  0  0  0  0  0  0  0  0  0
   37.4330   27.5720   44.5030 H   0  0  0  0  0  0  0  0  0  0  0  0
   35.9020   26.9960   42.4000 H   0  0  0  0  0  0  0  0  0  0  0  0
   35.4870   28.4260   39.8920 H   0  0  0  0  0  0  0  0  0  0  0  0
   39.2650   32.5570   39.1640 C   0  0  0  0  0  0  0  0  0  0  0  0
   39.9010   33.6470   39.7240 C   0  0  0  0  0  0  0  0  0  0  0  0
   41.2700   33.8010   39.4130 C   0  0  0  0  0  0  0  0  0  0  0  0
   41.8770   32.8870   38.5960 N   0  0  0  0  0  0  0  0  0  0  0  0
   41.2060   31.8550   38.0880 C   0  0  0  0  0  0  0  0  0  0  0  0
   39.8980   31.6830   38.3680 N   0  0  0  0  0  0  0  0  0  0  0  0
   39.4670   34.3790   40.3630 H   0  0  0  0  0  0  0  0  0  0  0  0
   41.8530   34.6210   39.8020 H   0  0  0  0  0  0  0  0  0  0  0  0
   41.9550   30.9520   37.2370 C   0  0  0  0  0  0  0  0  0  0  0  0
   43.0570   31.1240   36.4740 C   0  0  0  0  0  0  0  0  0  0  0  0
   43.4930   32.1140   36.4720 H   0  0  0  0  0  0  0  0  0  0  0  0
   43.5610   30.0830   35.7590 C   0  0  0  0  0  3  0  0  0  0  0  0
   42.9140   28.8630   35.8430 C   0  0  0  0  0  3  0  0  0  0  0  0
   41.5320   29.1510   36.9640 S   0  0  0  0  0  0  0  0  0  0  0  0
  1  4  1  0  0  0  0
  2  1  2  0  0  0  0
  3  4  2  0  0  0  0
  3 11  1  0  0  0  0
  4  5  1  0  0  0  0
  5 13  1  0  0  0  0
  5  6  2  0  0  0  0
  6  7  1  0  0  0  0
  7  8  1  0  0  0  0
  7 14  1  0  0  0  0
  8 15  1  0  0  0  0
  9  8  2  0  0  0  0
 10  6  1  0  0  0  0
 10  9  1  0  0  0  0
 11 10  2  0  0  0  0
 12  3  1  0  0  0  0
 16  9  1  0  0  0  0
 17 11  1  0  0  0  0
 18  1  1  0  0  0  0
 18 19  1  0  0  0  0
 19 24  1  0  0  0  0
 20 19  2  0  0  0  0
 20 25  1  0  0  0  0
 21 20  1  0  0  0  0
 22 23  1  0  0  0  0
 22 21  2  0  0  0  0
 23 18  2  0  0  0  0
 26 22  1  0  0  0  0
 27 26  2  0  0  0  0
 28 27  1  0  0  0  0
 29 30  2  0  0  0  0
 29 27  1  0  0  0  0
 30 31  1  0  0  0  0
 31 26  1  0  0  0  0
M  END
>  <minimizedAffinity>
-5.50929928

$$$$
