
 OpenBabel03242522113D

 17 18  0  0  0  0  0  0  0  0999 V2000
   44.5180   35.6040   44.9900 C   0  0  0  0  0  0  0  0  0  0  0  0
   45.2150   35.6440   43.7800 C   0  0  0  0  0  0  0  0  0  0  0  0
   46.1980   34.7010   43.5340 C   0  0  0  0  0  0  0  0  0  0  0  0
   46.4030   33.7890   44.5250 N   0  0  0  0  0  0  0  0  0  0  0  0
   45.7310   33.7560   45.6810 C   0  0  0  0  0  0  0  0  0  0  0  0
   44.7790   34.6680   45.9240 N   0  0  0  0  0  0  0  0  0  0  0  0
   43.7380   36.2970   45.2660 H   0  0  0  0  0  0  0  0  0  0  0  0
   45.9870   32.9720   46.4040 H   0  0  0  0  0  0  0  0  0  0  0  0
   46.9090   34.7170   42.3340 C   0  0  0  0  0  0  0  0  0  0  0  0
   48.0330   35.3020   41.9180 C   0  0  0  0  0  0  0  0  0  0  0  0
   48.6520   35.9440   42.5320 H   0  0  0  0  0  0  0  0  0  0  0  0
   48.5320   35.1560   40.6620 C   0  0  0  0  0  0  0  0  0  0  0  0
   47.6950   34.2710   39.7880 C   0  0  0  0  0  0  0  0  0  0  0  0
   46.2990   33.7970   40.9680 S   0  0  0  0  0  0  0  0  0  0  0  0
   44.8350   36.6880   42.8850 N   0  0  0  0  0  0  0  0  0  0  0  0
   45.1080   37.6970   42.8030 H   0  0  0  0  0  0  0  0  0  0  0  0
   44.1640   36.1170   42.3030 H   0  0  0  0  0  0  0  0  0  0  0  0
  1  7  1  0  0  0  0
  1  6  1  0  0  0  0
  2  1  2  0  0  0  0
  3  2  1  0  0  0  0
  3  4  2  0  0  0  0
  4  5  1  0  0  0  0
  5  6  2  0  0  0  0
  5  8  1  0  0  0  0
  9  3  1  0  0  0  0
 10  9  2  0  0  0  0
 10 11  1  0  0  0  0
 12 10  1  0  0  0  0
 13 12  2  0  0  0  0
 13 14  1  0  0  0  0
 14  9  1  0  0  0  0
 15  2  1  0  0  0  0
 16 15  1  0  0  0  0
 17 15  1  0  0  0  0
M  END
>  <minimizedAffinity>
-4.63980579

>  <minimizedRMSD>
1.96047568

$$$$
