
 OpenBabel03242523533D

 42 45  0  0  1  0  0  0  0  0999 V2000
   42.8170   34.5010   38.7690 C   0  0  1  0  0  0  0  0  0  0  0  0
   42.9570   35.1830   40.1200 C   0  0  1  0  0  0  0  0  0  0  0  0
   41.6690   35.4230   40.6320 O   0  0  0  0  0  0  0  0  0  0  0  0
   40.7470   35.7520   39.6350 C   0  0  0  0  0  0  0  0  0  0  0  0
   40.4350   34.5640   38.7430 C   0  0  2  0  0  0  0  0  0  0  0  0
   41.6480   33.5790   38.8890 C   0  0  1  0  0  0  0  0  0  0  0  0
   43.7620   33.9630   38.5010 H   0  0  0  0  0  0  0  0  0  0  0  0
   43.5560   36.1060   40.0810 H   0  0  0  0  0  0  0  0  0  0  0  0
   39.8220   36.0240   40.1540 H   0  0  0  0  0  0  0  0  0  0  0  0
   41.0640   36.6380   39.0520 H   0  0  0  0  0  0  0  0  0  0  0  0
   39.5040   34.0580   39.0360 H   0  0  0  0  0  0  0  0  0  0  0  0
   41.4320   33.3150   39.9770 H   0  0  0  0  0  0  0  0  0  0  0  0
   42.6050   35.4410   37.7500 O   0  0  0  0  0  0  0  0  0  0  0  0
   43.4190   35.9220   37.5330 H   0  0  0  0  0  0  0  0  0  0  0  0
   40.4540   34.9650   37.4150 O   0  0  0  0  0  0  0  0  0  0  0  0
   39.5350   35.1730   37.0790 H   0  0  0  0  0  0  0  0  0  0  0  0
   43.4880   34.2060   40.9770 O   0  0  0  0  0  0  0  0  0  0  0  0
   44.6000   34.3480   41.7100 C   0  0  0  0  0  0  0  0  0  0  0  0
   45.8590   34.4460   41.0990 C   0  0  0  0  0  0  0  0  0  0  0  0
   46.9760   34.5920   41.9050 C   0  0  0  0  0  0  0  0  0  0  0  0
   46.8170   34.6380   43.2790 N   0  0  0  0  0  0  0  0  0  0  0  0
   45.5870   34.5410   43.8310 C   0  0  0  0  0  0  0  0  0  0  0  0
   44.4840   34.3960   43.0500 N   0  0  0  0  0  0  0  0  0  0  0  0
   45.9900   34.4110   40.0310 H   0  0  0  0  0  0  0  0  0  0  0  0
   45.5390   34.5840   44.9120 H   0  0  0  0  0  0  0  0  0  0  0  0
   48.3520   34.6880   41.3300 C   0  0  0  0  0  0  0  0  0  0  0  0
   49.0780   36.0220   41.5080 C   0  0  0  0  0  0  0  0  0  0  0  0
   49.5070   34.6990   42.1710 C   0  0  0  0  0  0  0  0  0  0  0  0
   48.4120   34.2980   40.2750 H   0  0  0  0  0  0  0  0  0  0  0  0
   48.6350   36.7540   42.1840 H   0  0  0  0  0  0  0  0  0  0  0  0
   49.7600   36.3450   40.6990 H   0  0  0  0  0  0  0  0  0  0  0  0
   50.4600   34.2360   41.8430 H   0  0  0  0  0  0  0  0  0  0  0  0
   49.3630   34.6350   43.2780 H   0  0  0  0  0  0  0  0  0  0  0  0
   41.5090   32.6250   37.9480 O   0  0  0  0  0  0  0  0  0  0  0  0
   40.8450   31.4720   37.9730 C   0  0  0  0  0  0  0  0  0  0  0  0
   39.6600   31.3080   37.4090 O   0  0  0  0  0  0  0  0  0  0  0  0
   41.1660   30.0450   38.5890 C   0  0  0  0  0  0  0  0  0  0  0  0
   41.6090   28.9510   38.0790 C   0  0  0  0  0  0  0  0  0  0  0  0
   41.8140   28.9970   37.0160 H   0  0  0  0  0  0  0  0  0  0  0  0
   41.7830   27.8560   38.8660 C   0  0  0  0  0  3  0  0  0  0  0  0
   41.4570   28.0080   40.2170 C   0  0  0  0  0  3  0  0  0  0  0  0
   40.8820   29.8440   40.2640 S   0  0  0  0  0  0  0  0  0  0  0  0
  1  7  1  6  0  0  0
  1  6  1  0  0  0  0
  1  2  1  0  0  0  0
  2  8  1  6  0  0  0
  2  3  1  0  0  0  0
  2 17  1  0  0  0  0
  4  9  1  0  0  0  0
  4  3  1  0  0  0  0
  5  6  1  0  0  0  0
  5 11  1  1  0  0  0
  5  4  1  0  0  0  0
  6 12  1  1  0  0  0
 10  4  1  0  0  0  0
 13  1  1  0  0  0  0
 14 13  1  0  0  0  0
 15  5  1  0  0  0  0
 16 15  1  0  0  0  0
 17 18  1  0  0  0  0
 18 23  1  0  0  0  0
 19 18  2  0  0  0  0
 19 20  1  0  0  0  0
 20 21  2  0  0  0  0
 21 22  1  0  0  0  0
 22 25  1  0  0  0  0
 23 22  2  0  0  0  0
 24 19  1  0  0  0  0
 26 27  1  0  0  0  0
 26 20  1  0  0  0  0
 26 28  1  0  0  0  0
 27 28  1  0  0  0  0
 27 30  1  0  0  0  0
 28 33  1  0  0  0  0
 29 26  1  0  0  0  0
 31 27  1  0  0  0  0
 32 28  1  0  0  0  0
 34 35  1  0  0  0  0
 34  6  1  0  0  0  0
 35 37  1  0  0  0  0
 36 35  2  0  0  0  0
 37 42  1  0  0  0  0
 38 37  2  0  0  0  0
 38 40  1  0  0  0  0
 39 38  1  0  0  0  0
 40 41  2  0  0  0  0
 41 42  1  0  0  0  0
M  END
>  <minimizedAffinity>
-5.62745857

>  <minimizedRMSD>
0.228112966

$$$$
