
 OpenBabel03252506423D

 37 40  0  0  1  0  0  0  0  0999 V2000
   49.2900   33.2070   41.4580 N   0  0  1  0  0  0  0  0  0  0  0  0
   50.6430   33.1390   42.0200 C   0  0  0  0  0  0  0  0  0  0  0  0
   51.3140   31.8350   41.7170 C   0  0  0  0  0  0  0  0  0  0  0  0
   50.6240   30.7710   42.5470 C   0  0  0  0  0  0  0  0  0  0  0  0
   49.1510   31.0070   42.5880 C   0  0  0  0  0  0  0  0  0  0  0  0
   48.7200   31.8840   41.4200 C   0  0  2  0  0  0  0  0  0  0  0  0
   50.5730   33.2120   43.1410 H   0  0  0  0  0  0  0  0  0  0  0  0
   51.2290   34.0270   41.7010 H   0  0  0  0  0  0  0  0  0  0  0  0
   51.3840   31.6110   40.6530 H   0  0  0  0  0  0  0  0  0  0  0  0
   52.3570   31.9270   42.0870 H   0  0  0  0  0  0  0  0  0  0  0  0
   50.9970   30.8660   43.6040 H   0  0  0  0  0  0  0  0  0  0  0  0
   50.9320   29.7790   42.2040 H   0  0  0  0  0  0  0  0  0  0  0  0
   48.8480   31.5670   43.4940 H   0  0  0  0  0  0  0  0  0  0  0  0
   48.5650   30.0630   42.4700 H   0  0  0  0  0  0  0  0  0  0  0  0
   47.6290   32.0290   41.5870 H   0  0  0  0  0  0  0  0  0  0  0  0
   47.1650   34.5560   42.0090 C   0  0  1  0  0  0  0  0  0  0  0  0
   48.2890   35.4580   41.7160 C   0  0  0  0  0  0  0  0  0  0  0  0
   48.5680   34.1170   42.2840 C   0  0  2  0  0  0  0  0  0  0  0  0
   46.6840   34.0860   41.1290 H   0  0  0  0  0  0  0  0  0  0  0  0
   48.4090   36.3560   42.3690 H   0  0  0  0  0  0  0  0  0  0  0  0
   48.5580   35.6880   40.6490 H   0  0  0  0  0  0  0  0  0  0  0  0
   48.8560   34.1270   43.3760 H   0  0  0  0  0  0  0  0  0  0  0  0
   45.4940   36.0300   43.1770 C   0  0  0  0  0  0  0  0  0  0  0  0
   46.2650   34.8510   43.1570 C   0  0  0  0  0  0  0  0  0  0  0  0
   46.1490   33.9680   44.2420 C   0  0  0  0  0  0  0  0  0  0  0  0
   45.3030   34.2970   45.2530 N   0  0  0  0  0  0  0  0  0  0  0  0
   44.5740   35.4430   45.2390 C   0  0  0  0  0  0  0  0  0  0  0  0
   44.6650   36.3220   44.1970 N   0  0  0  0  0  0  0  0  0  0  0  0
   45.6290   36.6660   42.3140 H   0  0  0  0  0  0  0  0  0  0  0  0
   46.7300   33.0500   44.2570 H   0  0  0  0  0  0  0  0  0  0  0  0
   43.9000   35.7070   46.0400 H   0  0  0  0  0  0  0  0  0  0  0  0
   48.8890   31.1940   40.1360 C   0  0  0  0  0  0  0  0  0  0  0  0
   48.8360   29.9200   39.7920 C   0  0  0  0  0  0  0  0  0  0  0  0
   48.6320   29.1820   40.5550 H   0  0  0  0  0  0  0  0  0  0  0  0
   49.0370   29.5590   38.4880 C   0  0  0  0  0  3  0  0  0  0  0  0
   49.2930   30.5590   37.5700 C   0  0  0  0  0  3  0  0  0  0  0  0
   49.2560   32.1660   38.5810 S   0  0  0  0  0  0  0  0  0  0  0  0
  1  2  1  1  0  0  0
  1 18  1  0  0  0  0
  2  7  1  0  0  0  0
  3  2  1  0  0  0  0
  3 10  1  0  0  0  0
  3  4  1  0  0  0  0
  4  5  1  0  0  0  0
  4 11  1  0  0  0  0
  5 13  1  0  0  0  0
  6  1  1  0  0  0  0
  6 15  1  1  0  0  0
  6  5  1  0  0  0  0
  8  2  1  0  0  0  0
  9  3  1  0  0  0  0
 12  4  1  0  0  0  0
 14  5  1  0  0  0  0
 16 19  1  6  0  0  0
 16 18  1  0  0  0  0
 16 24  1  0  0  0  0
 17 16  1  0  0  0  0
 17 18  1  0  0  0  0
 17 20  1  0  0  0  0
 18 22  1  1  0  0  0
 21 17  1  0  0  0  0
 23 28  1  0  0  0  0
 24 23  2  0  0  0  0
 24 25  1  0  0  0  0
 25 30  1  0  0  0  0
 25 26  2  0  0  0  0
 27 26  1  0  0  0  0
 27 31  1  0  0  0  0
 28 27  2  0  0  0  0
 29 23  1  0  0  0  0
 32  6  1  0  0  0  0
 33 32  2  0  0  0  0
 33 34  1  0  0  0  0
 35 33  1  0  0  0  0
 36 35  2  0  0  0  0
 36 37  1  0  0  0  0
 37 32  1  0  0  0  0
M  END
>  <minimizedAffinity>
-4.68339348

>  <minimizedRMSD>
0.082353428

$$$$
