
 OpenBabel03252508463D

 42 44  0  0  0  0  0  0  0  0999 V2000
   43.0150   32.4840   41.6580 C   0  0  0  0  0  0  0  0  0  0  0  0
   42.0990   32.9350   41.2320 H   0  0  0  0  0  0  0  0  0  0  0  0
   43.5860   32.0570   40.7820 H   0  0  0  0  0  0  0  0  0  0  0  0
   43.6770   34.8870   41.9000 C   0  0  0  0  0  0  0  0  0  0  0  0
   43.8950   33.5570   42.2050 C   0  0  0  0  0  0  0  0  0  0  0  0
   44.9530   33.2340   43.0300 C   0  0  0  0  0  0  0  0  0  0  0  0
   45.7570   34.2260   43.5290 C   0  0  0  0  0  0  0  0  0  0  0  0
   45.5590   35.5570   43.2390 C   0  0  0  0  0  0  0  0  0  0  0  0
   44.4860   35.8310   42.4070 C   0  0  0  0  0  0  0  0  0  0  0  0
   45.1730   32.2110   43.3030 H   0  0  0  0  0  0  0  0  0  0  0  0
   46.5900   33.9780   44.1780 H   0  0  0  0  0  0  0  0  0  0  0  0
   46.1400   36.3780   43.5890 H   0  0  0  0  0  0  0  0  0  0  0  0
   44.2530   36.8490   42.1250 H   0  0  0  0  0  0  0  0  0  0  0  0
   40.2610   35.7910   40.5390 C   0  0  0  0  0  0  0  0  0  0  0  0
   41.2850   35.5500   41.4710 C   0  0  0  0  0  0  0  0  0  0  0  0
   42.5400   35.1630   41.0200 C   0  0  0  0  0  0  0  0  0  0  0  0
   42.7110   35.0350   39.6750 N   0  0  0  0  0  0  0  0  0  0  0  0
   41.7150   35.2700   38.7920 C   0  0  0  0  0  0  0  0  0  0  0  0
   40.4930   35.6470   39.2330 N   0  0  0  0  0  0  0  0  0  0  0  0
   39.3030   36.0880   40.9050 H   0  0  0  0  0  0  0  0  0  0  0  0
   41.1470   35.6530   42.5370 H   0  0  0  0  0  0  0  0  0  0  0  0
   41.9900   35.1300   37.7600 H   0  0  0  0  0  0  0  0  0  0  0  0
   42.6780   31.4490   42.5770 N   0  0  0  0  0  0  0  0  0  0  0  0
   43.0220   31.5800   43.5460 H   0  0  0  0  0  0  0  0  0  0  0  0
   41.0080   31.1040   42.5940 S   0  0  0  0  0  0  0  0  0  0  0  0
   40.1850   32.3650   42.4560 O   0  0  0  0  0  0  0  0  0  0  0  0
   39.8900   32.8280   43.2980 H   0  0  0  0  0  0  0  0  0  0  0  0
   40.6140   30.3860   43.8400 O   0  0  0  0  0  0  0  0  0  0  0  0
   39.7820   30.5060   44.3600 H   0  0  0  0  0  0  0  0  0  0  0  0
   40.6690   30.1240   41.2710 O   0  0  0  0  0  0  0  0  0  0  0  0
   39.9030   29.0570   41.7070 C   0  0  0  0  0  0  0  0  0  0  0  0
   39.0040   29.0220   41.0880 H   0  0  0  0  0  0  0  0  0  0  0  0
   39.6110   29.0890   42.7650 H   0  0  0  0  0  0  0  0  0  0  0  0
   40.6770   27.7590   41.5390 C   0  0  0  0  0  0  0  0  0  0  0  0
   41.5250   27.7010   42.2530 H   0  0  0  0  0  0  0  0  0  0  0  0
   41.0190   27.6820   40.4830 H   0  0  0  0  0  0  0  0  0  0  0  0
   39.7630   26.5850   41.7190 C   0  0  0  0  0  0  0  0  0  0  0  0
   40.0170   25.3960   42.4640 C   0  0  0  0  0  0  0  0  0  0  0  0
   40.9650   25.3090   42.9580 H   0  0  0  0  0  0  0  0  0  0  0  0
   39.0230   24.4740   42.4790 C   0  0  0  0  0  3  0  0  0  0  0  0
   37.8000   24.6890   41.7890 C   0  0  0  0  0  3  0  0  0  0  0  0
   38.0700   26.3690   41.0330 S   0  0  0  0  0  0  0  0  0  0  0  0
  1  5  1  0  0  0  0
  1 23  1  0  0  0  0
  2  1  1  0  0  0  0
  3  1  1  0  0  0  0
  4  5  2  0  0  0  0
  4  9  1  0  0  0  0
  5  6  1  0  0  0  0
  6 10  1  0  0  0  0
  6  7  2  0  0  0  0
  7 11  1  0  0  0  0
  8  7  1  0  0  0  0
  8 12  1  0  0  0  0
  9  8  2  0  0  0  0
 13  9  1  0  0  0  0
 14 20  1  0  0  0  0
 14 15  1  0  0  0  0
 15 21  1  0  0  0  0
 16 15  2  0  0  0  0
 16  4  1  0  0  0  0
 17 16  1  0  0  0  0
 18 19  1  0  0  0  0
 18 17  2  0  0  0  0
 19 14  2  0  0  0  0
 22 18  1  0  0  0  0
 23 25  1  0  0  0  0
 23 24  1  0  0  0  0
 25 28  1  0  0  0  0
 26 25  1  0  0  0  0
 26 27  1  0  0  0  0
 28 29  1  0  0  0  0
 30 31  1  0  0  0  0
 30 25  1  0  0  0  0
 31 33  1  0  0  0  0
 32 31  1  0  0  0  0
 34 31  1  0  0  0  0
 34 37  1  0  0  0  0
 34 35  1  0  0  0  0
 36 34  1  0  0  0  0
 37 38  2  0  0  0  0
 38 40  1  0  0  0  0
 38 39  1  0  0  0  0
 41 40  2  0  0  0  0
 42 37  1  0  0  0  0
 42 41  1  0  0  0  0
M  END
>  <minimizedAffinity>
-4.93529797

>  <minimizedRMSD>
0.370078504

$$$$
