
 OpenBabel03252509213D

 22 24  0  0  0  0  0  0  0  0999 V2000
   45.1770   35.8970   43.3510 C   0  0  0  0  0  0  0  0  0  0  0  0
   46.1170   34.8570   43.1870 C   0  0  0  0  0  0  0  0  0  0  0  0
   46.2650   34.0310   44.2700 C   0  0  0  0  0  0  0  0  0  0  0  0
   45.5070   34.2750   45.4000 N   0  0  0  0  0  0  0  0  0  0  0  0
   44.6270   35.2700   45.5160 C   0  0  0  0  0  0  0  0  0  0  0  0
   44.4810   36.0780   44.4610 N   0  0  0  0  0  0  0  0  0  0  0  0
   44.9890   36.5920   42.5690 H   0  0  0  0  0  0  0  0  0  0  0  0
   44.1670   35.2450   46.4910 H   0  0  0  0  0  0  0  0  0  0  0  0
   47.1500   32.8060   44.2040 C   0  0  0  0  0  0  0  0  0  0  0  0
   46.9460   31.9330   45.4500 C   0  0  0  0  0  0  0  0  0  0  0  0
   46.5240   31.5120   44.0090 C   0  0  0  0  0  0  0  0  0  0  0  0
   48.2290   33.0700   44.1690 H   0  0  0  0  0  0  0  0  0  0  0  0
   47.7800   31.3630   45.8660 H   0  0  0  0  0  0  0  0  0  0  0  0
   46.0920   32.1260   46.1180 H   0  0  0  0  0  0  0  0  0  0  0  0
   45.4420   31.5030   43.8020 H   0  0  0  0  0  0  0  0  0  0  0  0
   47.1610   30.7240   43.5520 H   0  0  0  0  0  0  0  0  0  0  0  0
   46.8610   34.7070   41.9850 C   0  0  0  0  0  0  0  0  0  0  0  0
   46.2890   34.0220   40.9000 C   0  0  0  0  0  0  0  0  0  0  0  0
   45.3260   33.5490   40.7710 H   0  0  0  0  0  0  0  0  0  0  0  0
   46.9250   33.8330   39.7340 C   0  0  0  0  0  3  0  0  0  0  0  0
   48.2470   34.3620   39.6120 C   0  0  0  0  0  3  0  0  0  0  0  0
   48.4450   35.1330   41.3190 S   0  0  0  0  0  0  0  0  0  0  0  0
  1  6  1  0  0  0  0
  2  1  2  0  0  0  0
  2  3  1  0  0  0  0
  3  4  2  0  0  0  0
  4  5  1  0  0  0  0
  5  8  1  0  0  0  0
  6  5  2  0  0  0  0
  7  1  1  0  0  0  0
  9  3  1  0  0  0  0
  9 10  1  0  0  0  0
 10 13  1  0  0  0  0
 10 14  1  0  0  0  0
 11  9  1  0  0  0  0
 11 10  1  0  0  0  0
 12  9  1  0  0  0  0
 15 11  1  0  0  0  0
 16 11  1  0  0  0  0
 17  2  1  0  0  0  0
 18 17  2  0  0  0  0
 19 18  1  0  0  0  0
 20 18  1  0  0  0  0
 21 20  2  0  0  0  0
 21 22  1  0  0  0  0
 22 17  1  0  0  0  0
M  END
>  <minimizedAffinity>
-4.41617918

>  <minimizedRMSD>
3.36862969

$$$$
