
 OpenBabel03252507553D

 41 44  0  0  1  0  0  0  0  0999 V2000
   45.6800   32.1970   40.5220 C   0  0  2  0  0  0  0  0  0  0  0  0
   44.9440   32.6980   39.2790 C   0  0  0  0  0  0  0  0  0  0  0  0
   44.8060   31.3460   38.5500 C   0  0  0  0  0  0  0  0  0  0  0  0
   44.5810   30.3440   39.6390 C   0  0  1  0  0  0  0  0  0  0  0  0
   44.7440   31.0910   40.9300 C   0  0  0  0  0  0  0  0  0  0  0  0
   46.6540   31.8210   40.1980 H   0  0  0  0  0  0  0  0  0  0  0  0
   43.9370   33.0360   39.5450 H   0  0  0  0  0  0  0  0  0  0  0  0
   45.5410   33.3990   38.6910 H   0  0  0  0  0  0  0  0  0  0  0  0
   45.7930   31.1220   38.0810 H   0  0  0  0  0  0  0  0  0  0  0  0
   43.9790   31.3870   37.8200 H   0  0  0  0  0  0  0  0  0  0  0  0
   45.3170   29.5110   39.6220 H   0  0  0  0  0  0  0  0  0  0  0  0
   45.2680   30.4850   41.7000 H   0  0  0  0  0  0  0  0  0  0  0  0
   43.7990   31.5290   41.3000 H   0  0  0  0  0  0  0  0  0  0  0  0
   46.5710   35.3260   42.4200 C   0  0  0  0  0  0  0  0  0  0  0  0
   46.5310   34.4150   41.3530 C   0  0  0  0  0  0  0  0  0  0  0  0
   45.7860   33.2580   41.5590 C   0  0  0  0  0  0  0  0  0  0  0  0
   45.1220   33.0350   42.7740 N   0  0  0  0  0  0  0  0  0  0  0  0
   45.2050   33.9590   43.7650 C   0  0  0  0  0  0  0  0  0  0  0  0
   45.9280   35.0970   43.5830 N   0  0  0  0  0  0  0  0  0  0  0  0
   47.1440   36.2370   42.2890 H   0  0  0  0  0  0  0  0  0  0  0  0
   47.0270   34.5570   40.4140 H   0  0  0  0  0  0  0  0  0  0  0  0
   44.6530   33.6730   44.6470 H   0  0  0  0  0  0  0  0  0  0  0  0
   43.1980   29.7320   39.6490 C   0  0  2  0  0  0  0  0  0  0  0  0
   42.3220   30.1240   38.5500 C   0  0  0  0  0  0  0  0  0  0  0  0
   42.0080   30.5310   39.9500 C   0  0  1  0  0  0  0  0  0  0  0  0
   43.1860   28.6750   39.9650 H   0  0  0  0  0  0  0  0  0  0  0  0
   42.6760   30.8440   37.8100 H   0  0  0  0  0  0  0  0  0  0  0  0
   41.7120   29.3090   38.0640 H   0  0  0  0  0  0  0  0  0  0  0  0
   42.1650   31.5780   40.2480 H   0  0  0  0  0  0  0  0  0  0  0  0
   40.9320   29.8790   40.5970 O   0  0  0  0  0  0  0  0  0  0  0  0
   39.7180   29.8410   42.9010 O   0  0  0  0  0  0  0  0  0  0  0  0
   40.5920   30.7010   42.0190 P   0  0  1  0  0  0  0  0  0  0  0  0
   42.0470   31.0010   42.8810 O   0  0  0  0  0  0  0  0  0  0  0  0
   42.5950   31.6180   42.3060 H   0  0  0  0  0  0  0  0  0  0  0  0
   39.8520   32.1740   41.8210 O   0  0  0  0  0  0  0  0  0  0  0  0
   40.5870   33.2330   41.2950 C   0  0  0  0  0  0  0  0  0  0  0  0
   41.8650   33.6620   41.3280 C   0  0  0  0  0  0  0  0  0  0  0  0
   42.4910   33.0090   41.9210 H   0  0  0  0  0  0  0  0  0  0  0  0
   42.2540   34.7800   40.6760 C   0  0  0  0  0  3  0  0  0  0  0  0
   41.2320   35.4500   39.9720 C   0  0  0  0  0  3  0  0  0  0  0  0
   39.7180   34.3750   40.3150 S   0  0  0  0  0  0  0  0  0  0  0  0
  1  6  1  6  0  0  0
  1  5  1  0  0  0  0
  1 16  1  0  0  0  0
  2  7  1  0  0  0  0
  2  1  1  0  0  0  0
  3  2  1  0  0  0  0
  3  4  1  0  0  0  0
  4 11  1  6  0  0  0
  4 23  1  0  0  0  0
  4  5  1  0  0  0  0
  5 13  1  0  0  0  0
  5 12  1  0  0  0  0
  8  2  1  0  0  0  0
  9  3  1  0  0  0  0
 10  3  1  0  0  0  0
 14 19  1  0  0  0  0
 15 16  1  0  0  0  0
 15 14  2  0  0  0  0
 16 17  2  0  0  0  0
 17 18  1  0  0  0  0
 18 22  1  0  0  0  0
 19 18  2  0  0  0  0
 20 14  1  0  0  0  0
 21 15  1  0  0  0  0
 23 25  1  0  0  0  0
 23 26  1  1  0  0  0
 24 23  1  0  0  0  0
 24 25  1  0  0  0  0
 25 29  1  1  0  0  0
 25 30  1  0  0  0  0
 27 24  1  0  0  0  0
 28 24  1  0  0  0  0
 30 32  1  0  0  0  0
 32 33  1  0  0  0  0
 32 31  2  1  0  0  0
 34 33  1  0  0  0  0
 35 32  1  0  0  0  0
 36 37  2  0  0  0  0
 36 35  1  0  0  0  0
 37 38  1  0  0  0  0
 39 37  1  0  0  0  0
 40 41  1  0  0  0  0
 40 39  2  0  0  0  0
 41 36  1  0  0  0  0
M  END
>  <minimizedAffinity>
-3.80572081

>  <minimizedRMSD>
9.17066669

$$$$
