REMARK  Name = 
REMARK  2 active torsions:
REMARK  status: ('A' for Active; 'I' for Inactive)
REMARK    1  A    between atoms: C_2  and  C_17
REMARK    2  A    between atoms: C_3  and  C_7
REMARK                            x       y       z     vdW  Elec       q    Type
REMARK                         _______ _______ _______ _____ _____    ______ ____
ROOT
ATOM      1  C   UNL     1      44.593  35.889  44.332  0.00  0.00    +0.000 A 
ATOM      2  C   UNL     1      45.333  35.919  43.130  0.00  0.00    +0.000 A 
ATOM      3  C   UNL     1      46.292  34.948  43.015  0.00  0.00    +0.000 A 
ATOM      4  N   UNL     1      46.454  34.047  44.051  0.00  0.00    +0.000 NA
ATOM      5  C   UNL     1      45.733  34.052  45.173  0.00  0.00    +0.000 A 
ATOM      6  N   UNL     1      44.796  34.999  45.288  0.00  0.00    +0.000 NA
ATOM      7  H   UNL     1      43.825  36.601  44.519  0.00  0.00    +0.000 HD
ATOM      8  H   UNL     1      46.051  33.251  45.820  0.00  0.00    +0.000 HD
ENDROOT
BRANCH   3   9
ATOM      9  C   UNL     1      47.087  34.781  41.739  0.00  0.00    +0.000 C 
ATOM     10  C   UNL     1      48.456  35.461  41.870  0.00  0.00    +0.000 C 
ATOM     11  C   UNL     1      48.253  33.919  41.760  0.00  0.00    +0.000 C 
ATOM     12  H   UNL     1      46.579  35.244  40.865  0.00  0.00    +0.000 HD
ATOM     13  H   UNL     1      48.928  35.922  40.999  0.00  0.00    +0.000 HD
ATOM     14  H   UNL     1      48.812  35.787  42.860  0.00  0.00    +0.000 HD
ATOM     15  H   UNL     1      48.433  33.338  42.679  0.00  0.00    +0.000 HD
ATOM     16  H   UNL     1      48.556  33.481  40.784  0.00  0.00    +0.000 HD
ENDBRANCH   3   9
BRANCH   2  17
ATOM     17  C   UNL     1      45.098  36.905  42.134  0.00  0.00    +0.000 A 
ATOM     18  C   UNL     1      44.778  36.503  40.827  0.00  0.00    +0.000 A 
ATOM     19  H   UNL     1      44.658  35.526  40.380  0.00  0.00    +0.000 HD
ATOM     20  C   UNL     1      44.546  37.369  39.829  0.00  0.00    +0.000 A 
ATOM     21  C   UNL     1      44.636  38.763  40.133  0.00  0.00    +0.000 A 
ATOM     22  S   UNL     1      45.077  38.667  41.962  0.00  0.00    +0.000 S 
ENDBRANCH   2  17
TORSDOF 2
