
 OpenBabel03252504533D

 18 19  0  0  0  0  0  0  0  0999 V2000
   44.3700   35.9010   44.5340 C   0  0  0  0  0  0  0  0  0  0  0  0
   44.4350   35.2880   43.2700 C   0  0  0  0  0  0  0  0  0  0  0  0
   44.9540   34.0000   43.2270 C   0  0  0  0  0  0  0  0  0  0  0  0
   45.3670   33.4050   44.3950 N   0  0  0  0  0  0  0  0  0  0  0  0
   45.2800   34.0450   45.5810 C   0  0  0  0  0  0  0  0  0  0  0  0
   44.7830   35.2870   45.6470 N   0  0  0  0  0  0  0  0  0  0  0  0
   43.9580   36.9100   44.5350 H   0  0  0  0  0  0  0  0  0  0  0  0
   44.1060   35.7750   42.3830 H   0  0  0  0  0  0  0  0  0  0  0  0
   45.6060   33.5730   46.4980 H   0  0  0  0  0  0  0  0  0  0  0  0
   45.0230   33.3580   41.9110 C   0  0  0  0  0  0  0  0  0  0  0  0
   44.7740   32.2750   41.9670 H   0  0  0  0  0  0  0  0  0  0  0  0
   44.3350   33.8600   41.2060 H   0  0  0  0  0  0  0  0  0  0  0  0
   46.4080   33.4490   41.3890 C   0  0  0  0  0  0  0  0  0  0  0  0
   47.0380   34.4570   40.7310 C   0  0  0  0  0  0  0  0  0  0  0  0
   46.4800   35.3620   40.5320 H   0  0  0  0  0  0  0  0  0  0  0  0
   48.3470   34.2610   40.3600 C   0  0  0  0  0  3  0  0  0  0  0  0
   48.9550   33.0860   40.6580 C   0  0  0  0  0  3  0  0  0  0  0  0
   47.6240   32.1480   41.5310 S   0  0  0  0  0  0  0  0  0  0  0  0
  1  7  1  0  0  0  0
  1  6  1  0  0  0  0
  2  1  2  0  0  0  0
  3  2  1  0  0  0  0
  3  4  2  0  0  0  0
  4  5  1  0  0  0  0
  5  6  2  0  0  0  0
  5  9  1  0  0  0  0
  8  2  1  0  0  0  0
 10 11  1  0  0  0  0
 10  3  1  0  0  0  0
 12 10  1  0  0  0  0
 13 18  1  0  0  0  0
 13 10  1  0  0  0  0
 14 13  2  0  0  0  0
 15 14  1  0  0  0  0
 16 17  2  0  0  0  0
 16 14  1  0  0  0  0
 17 18  1  0  0  0  0
M  END
>  <minimizedAffinity>
-3.38412023

>  <minimizedRMSD>
2.47752309

$$$$
