
 OpenBabel03252508073D

 41 44  0  0  0  0  0  0  0  0999 V2000
   45.1850   35.5570   43.0960 C   0  0  0  0  0  0  0  0  0  0  0  0
   45.5440   34.2210   43.1800 C   0  0  0  0  0  0  0  0  0  0  0  0
   45.4440   33.5540   44.3760 C   0  0  0  0  0  0  0  0  0  0  0  0
   44.9750   34.2720   45.4570 N   0  0  0  0  0  0  0  0  0  0  0  0
   44.6290   35.5550   45.3760 C   0  0  0  0  0  0  0  0  0  0  0  0
   44.7390   36.1890   44.1900 N   0  0  0  0  0  0  0  0  0  0  0  0
   45.2660   36.0920   42.1420 H   0  0  0  0  0  0  0  0  0  0  0  0
   44.2690   36.0700   46.2530 H   0  0  0  0  0  0  0  0  0  0  0  0
   45.7700   32.2000   44.6200 C   0  0  0  0  0  0  0  0  0  0  0  0
   45.4260   31.1450   43.7720 C   0  0  0  0  0  0  0  0  0  0  0  0
   45.6830   29.8270   44.0400 C   0  0  0  0  0  0  0  0  0  0  0  0
   46.3180   29.4800   45.2060 C   0  0  0  0  0  0  0  0  0  0  0  0
   46.6810   30.5430   46.0900 C   0  0  0  0  0  0  0  0  0  0  0  0
   47.3130   30.2000   47.2560 C   0  0  0  0  0  0  0  0  0  0  0  0
   47.6930   31.1790   48.1510 C   0  0  0  0  0  0  0  0  0  0  0  0
   47.4260   32.5230   47.8550 C   0  0  0  0  0  0  0  0  0  0  0  0
   46.7750   32.8210   46.6460 C   0  0  0  0  0  0  0  0  0  0  0  0
   46.4040   31.8340   45.7750 C   0  0  0  0  0  0  0  0  0  0  0  0
   44.9240   31.3690   42.8410 H   0  0  0  0  0  0  0  0  0  0  0  0
   45.3830   29.0590   43.3240 H   0  0  0  0  0  0  0  0  0  0  0  0
   46.5240   28.4600   45.4300 H   0  0  0  0  0  0  0  0  0  0  0  0
   47.5110   29.1540   47.4650 H   0  0  0  0  0  0  0  0  0  0  0  0
   48.1890   30.8430   49.0570 H   0  0  0  0  0  0  0  0  0  0  0  0
   47.7600   33.2050   48.6100 H   0  0  0  0  0  0  0  0  0  0  0  0
   46.6840   33.8850   46.5920 H   0  0  0  0  0  0  0  0  0  0  0  0
   45.9900   33.6250   42.0310 O   0  0  0  0  0  0  0  0  0  0  0  0
   48.1620   32.3910   41.2470 O   0  0  0  0  0  0  0  0  0  0  0  0
   47.5730   33.7450   41.4420 P   0  0  1  0  0  0  0  0  0  0  0  0
   47.5940   34.5130   39.9330 O   0  0  0  0  0  0  0  0  0  0  0  0
   47.7290   33.7700   38.7270 C   0  0  0  0  0  0  0  0  0  0  0  0
   48.5970   33.3790   37.6570 C   0  0  0  0  0  0  0  0  0  0  0  0
   49.5310   33.8540   37.8740 H   0  0  0  0  0  0  0  0  0  0  0  0
   47.9930   32.5640   36.7430 C   0  0  0  0  0  3  0  0  0  0  0  0
   46.7080   32.1590   36.8250 C   0  0  0  0  0  3  0  0  0  0  0  0
   46.0860   32.9180   38.3200 S   0  0  0  0  0  0  0  0  0  0  0  0
   48.4750   34.6500   42.5250 O   0  0  0  0  0  0  0  0  0  0  0  0
   49.6860   35.2760   42.2760 C   0  0  0  0  0  0  0  0  0  0  0  0
   49.3790   36.3570   41.7410 O   0  0  0  0  0  0  0  0  0  0  0  0
   50.7860   34.4580   42.7210 N   0  0  0  0  0  0  0  0  0  0  0  0
   51.5170   33.9440   42.1740 H   0  0  0  0  0  0  0  0  0  0  0  0
   50.8910   34.3430   43.7520 H   0  0  0  0  0  0  0  0  0  0  0  0
  1  2  2  0  0  0  0
  1  6  1  0  0  0  0
  2  3  1  0  0  0  0
  3  9  1  0  0  0  0
  3  4  2  0  0  0  0
  5  4  1  0  0  0  0
  5  8  1  0  0  0  0
  6  5  2  0  0  0  0
  7  1  1  0  0  0  0
  9 18  1  0  0  0  0
 10 11  1  0  0  0  0
 10  9  2  0  0  0  0
 11 12  2  0  0  0  0
 12 21  1  0  0  0  0
 12 13  1  0  0  0  0
 13 14  1  0  0  0  0
 14 22  1  0  0  0  0
 14 15  2  0  0  0  0
 15 23  1  0  0  0  0
 16 15  1  0  0  0  0
 16 24  1  0  0  0  0
 17 16  2  0  0  0  0
 18 13  2  0  0  0  0
 18 17  1  0  0  0  0
 19 10  1  0  0  0  0
 20 11  1  0  0  0  0
 25 17  1  0  0  0  0
 26  2  1  0  0  0  0
 28 27  2  6  0  0  0
 28 26  1  0  0  0  0
 28 36  1  0  0  0  0
 29 28  1  0  0  0  0
 30 29  1  0  0  0  0
 31 32  1  0  0  0  0
 31 30  2  0  0  0  0
 33 34  2  0  0  0  0
 33 31  1  0  0  0  0
 34 35  1  0  0  0  0
 35 30  1  0  0  0  0
 37 36  1  0  0  0  0
 37 39  1  0  0  0  0
 38 37  2  0  0  0  0
 39 41  1  0  0  0  0
 40 39  1  0  0  0  0
M  END
>  <minimizedAffinity>
-6.10150766

>  <minimizedRMSD>
1.36164248

$$$$
