
 OpenBabel03252509233D

 24 26  0  0  1  0  0  0  0  0999 V2000
   46.4980   34.7050   42.0090 C   0  0  1  0  0  0  0  0  0  0  0  0
   47.9420   35.2720   41.9860 C   0  0  0  0  0  0  0  0  0  0  0  0
   47.5440   33.7880   41.7260 C   0  0  2  0  0  0  0  0  0  0  0  0
   45.8330   35.1740   41.2620 H   0  0  0  0  0  0  0  0  0  0  0  0
   48.1670   35.8600   41.0810 H   0  0  0  0  0  0  0  0  0  0  0  0
   48.4340   35.5300   42.9180 H   0  0  0  0  0  0  0  0  0  0  0  0
   47.9080   33.1330   42.5520 H   0  0  0  0  0  0  0  0  0  0  0  0
   44.5150   35.6540   45.0470 C   0  0  0  0  0  0  0  0  0  0  0  0
   45.0380   35.7340   43.7140 C   0  0  0  0  0  0  0  0  0  0  0  0
   45.9410   34.7460   43.4200 C   0  0  0  0  0  0  0  0  0  0  0  0
   46.2980   33.7760   44.3410 N   0  0  0  0  0  0  0  0  0  0  0  0
   45.7720   33.7570   45.5720 C   0  0  0  0  0  0  0  0  0  0  0  0
   44.8690   34.7080   45.9280 N   0  0  0  0  0  0  0  0  0  0  0  0
   43.8050   36.3950   45.3370 H   0  0  0  0  0  0  0  0  0  0  0  0
   46.1860   32.9230   46.1200 H   0  0  0  0  0  0  0  0  0  0  0  0
   44.6680   36.7480   42.7970 N   0  0  0  0  0  0  0  0  0  0  0  0
   45.1860   37.6170   43.0950 H   0  0  0  0  0  0  0  0  0  0  0  0
   44.0180   36.6840   41.9800 H   0  0  0  0  0  0  0  0  0  0  0  0
   47.7030   33.2780   40.3690 C   0  0  0  0  0  0  0  0  0  0  0  0
   48.7460   32.8170   39.6460 C   0  0  0  0  0  0  0  0  0  0  0  0
   49.7000   32.8070   40.1490 H   0  0  0  0  0  0  0  0  0  0  0  0
   48.5460   32.4000   38.3510 C   0  0  0  0  0  3  0  0  0  0  0  0
   47.2280   32.4860   37.8570 C   0  0  0  0  0  3  0  0  0  0  0  0
   46.2830   33.1700   39.2670 S   0  0  0  0  0  0  0  0  0  0  0  0
  1  4  1  6  0  0  0
  1 10  1  0  0  0  0
  2  1  1  0  0  0  0
  2  6  1  0  0  0  0
  3  2  1  0  0  0  0
  3  1  1  0  0  0  0
  3  7  1  1  0  0  0
  5  2  1  0  0  0  0
  8 14  1  0  0  0  0
  8 13  1  0  0  0  0
  9  8  2  0  0  0  0
 10  9  1  0  0  0  0
 10 11  2  0  0  0  0
 11 12  1  0  0  0  0
 12 13  2  0  0  0  0
 12 15  1  0  0  0  0
 16 17  1  0  0  0  0
 16  9  1  0  0  0  0
 18 16  1  0  0  0  0
 19  3  1  0  0  0  0
 20 21  1  0  0  0  0
 20 19  2  0  0  0  0
 22 20  1  0  0  0  0
 23 22  2  0  0  0  0
 23 24  1  0  0  0  0
 24 19  1  0  0  0  0
M  END
>  <minimizedAffinity>
-4.46815681

>  <minimizedRMSD>
0.718197584

$$$$
