
 OpenBabel03242520063D

 43 47  0  0  1  0  0  0  0  0999 V2000
   37.8830   29.1670   40.0320 N   0  0  0  0  0  0  0  0  0  0  0  0
   38.0430   30.3240   39.2080 C   0  0  1  0  0  0  0  0  0  0  0  0
   36.7460   31.0760   39.1700 C   0  0  0  0  0  0  0  0  0  0  0  0
   36.5700   31.5740   40.5250 N   0  0  0  0  0  0  0  0  0  0  0  0
   36.3220   30.5040   41.4460 C   0  0  0  0  0  0  0  0  0  0  0  0
   37.1660   29.2770   41.2430 C   0  0  2  0  0  0  0  0  0  0  0  0
   37.4960   28.4160   39.3750 H   0  0  0  0  0  0  0  0  0  0  0  0
   38.2770   30.0310   38.1740 H   0  0  0  0  0  0  0  0  0  0  0  0
   35.8890   30.3710   38.9690 H   0  0  0  0  0  0  0  0  0  0  0  0
   36.7680   31.9170   38.4680 H   0  0  0  0  0  0  0  0  0  0  0  0
   37.4960   32.0270   40.7770 H   0  0  0  0  0  0  0  0  0  0  0  0
   36.4570   30.9570   42.4730 H   0  0  0  0  0  0  0  0  0  0  0  0
   35.2240   30.3230   41.4010 H   0  0  0  0  0  0  0  0  0  0  0  0
   36.4140   28.4350   41.2190 H   0  0  0  0  0  0  0  0  0  0  0  0
   40.7690   31.8980   40.8170 C   0  0  0  0  0  0  0  0  0  0  0  0
   40.3910   32.9090   39.9470 C   0  0  0  0  0  0  0  0  0  0  0  0
   39.3210   32.4630   39.2260 C   0  0  0  0  0  0  0  0  0  0  0  0
   39.0660   31.2060   39.6590 N   0  0  0  0  0  0  0  0  0  0  0  0
   39.9340   30.8930   40.6000 N   0  0  0  0  0  0  0  0  0  0  0  0
   40.8580   33.8800   39.8540 H   0  0  0  0  0  0  0  0  0  0  0  0
   38.7880   33.0230   38.4550 H   0  0  0  0  0  0  0  0  0  0  0  0
   43.8150   32.9560   42.5730 C   0  0  0  0  0  0  0  0  0  0  0  0
   43.9270   32.0150   43.6040 C   0  0  0  0  0  0  0  0  0  0  0  0
   42.9560   31.0320   43.6790 C   0  0  0  0  0  0  0  0  0  0  0  0
   41.9560   31.0380   42.7530 N   0  0  0  0  0  0  0  0  0  0  0  0
   41.8800   31.9590   41.7760 C   0  0  0  0  0  0  0  0  0  0  0  0
   42.8030   32.9270   41.6710 N   0  0  0  0  0  0  0  0  0  0  0  0
   44.5930   33.7150   42.5420 H   0  0  0  0  0  0  0  0  0  0  0  0
   44.7460   32.0620   44.3110 H   0  0  0  0  0  0  0  0  0  0  0  0
   42.9780   30.2720   44.4480 H   0  0  0  0  0  0  0  0  0  0  0  0
   38.0420   29.1300   42.4740 C   0  0  1  0  0  0  0  0  0  0  0  0
   37.3570   28.4820   43.6670 C   0  0  0  0  0  0  0  0  0  0  0  0
   38.5170   27.8520   42.9940 C   0  0  1  0  0  0  0  0  0  0  0  0
   38.6520   30.0350   42.7700 H   0  0  0  0  0  0  0  0  0  0  0  0
   36.3280   28.0610   43.5270 H   0  0  0  0  0  0  0  0  0  0  0  0
   37.4700   28.9380   44.6580 H   0  0  0  0  0  0  0  0  0  0  0  0
   39.5180   27.8740   43.5070 H   0  0  0  0  0  0  0  0  0  0  0  0
   38.1830   26.5390   42.3370 C   0  0  0  0  0  0  0  0  0  0  0  0
   37.0250   25.6640   42.4120 C   0  0  0  0  0  0  0  0  0  0  0  0
   36.3040   26.0610   43.0990 H   0  0  0  0  0  0  0  0  0  0  0  0
   37.1240   24.5690   41.6090 C   0  0  0  0  0  3  0  0  0  0  0  0
   38.1660   24.2860   40.8120 C   0  0  0  0  0  3  0  0  0  0  0  0
   39.3000   25.6600   41.0930 S   0  0  0  0  0  0  0  0  0  0  0  0
  1  6  1  0  0  0  0
  2  8  1  6  0  0  0
  2 18  1  0  0  0  0
  2  1  1  0  0  0  0
  3  2  1  0  0  0  0
  3  4  1  0  0  0  0
  4 11  1  0  0  0  0
  4  5  1  0  0  0  0
  5 12  1  0  0  0  0
  6 14  1  1  0  0  0
  6  5  1  0  0  0  0
  6 31  1  0  0  0  0
  7  1  1  0  0  0  0
  9  3  1  0  0  0  0
 10  3  1  0  0  0  0
 13  5  1  0  0  0  0
 15 26  1  0  0  0  0
 16 15  1  0  0  0  0
 17 18  1  0  0  0  0
 17 16  2  0  0  0  0
 18 19  1  0  0  0  0
 19 15  2  0  0  0  0
 20 16  1  0  0  0  0
 21 17  1  0  0  0  0
 22 23  1  0  0  0  0
 23 24  2  0  0  0  0
 23 29  1  0  0  0  0
 24 30  1  0  0  0  0
 25 24  1  0  0  0  0
 26 25  2  0  0  0  0
 27 26  1  0  0  0  0
 27 22  2  0  0  0  0
 28 22  1  0  0  0  0
 31 34  1  1  0  0  0
 31 33  1  0  0  0  0
 31 32  1  0  0  0  0
 32 36  1  0  0  0  0
 33 37  1  1  0  0  0
 33 32  1  0  0  0  0
 35 32  1  0  0  0  0
 38 39  2  0  0  0  0
 38 33  1  0  0  0  0
 39 40  1  0  0  0  0
 41 39  1  0  0  0  0
 42 43  1  0  0  0  0
 42 41  2  0  0  0  0
 43 38  1  0  0  0  0
M  END
>  <minimizedAffinity>
-5.78811836

$$$$

 OpenBabel03242520063D

 43 47  0  0  1  0  0  0  0  0999 V2000
   37.0080   27.6200   40.0250 N   0  0  0  0  0  0  0  0  0  0  0  0
   37.4470   28.4280   38.9300 C   0  0  1  0  0  0  0  0  0  0  0  0
   36.3710   29.4180   38.5950 C   0  0  0  0  0  0  0  0  0  0  0  0
   36.3160   30.3040   39.7460 N   0  0  0  0  0  0  0  0  0  0  0  0
   35.8120   29.6250   40.9030 C   0  0  0  0  0  0  0  0  0  0  0  0
   36.3340   28.2310   41.1050 C   0  0  2  0  0  0  0  0  0  0  0  0
   36.4530   26.8250   39.5720 H   0  0  0  0  0  0  0  0  0  0  0  0
   37.6070   27.8090   38.0350 H   0  0  0  0  0  0  0  0  0  0  0  0
   35.3690   28.9030   38.5330 H   0  0  0  0  0  0  0  0  0  0  0  0
   36.6000   29.9970   37.6930 H   0  0  0  0  0  0  0  0  0  0  0  0
   37.3230   30.5820   39.9310 H   0  0  0  0  0  0  0  0  0  0  0  0
   36.0490   30.3060   41.7750 H   0  0  0  0  0  0  0  0  0  0  0  0
   34.7030   29.6990   40.8310 H   0  0  0  0  0  0  0  0  0  0  0  0
   35.4000   27.6140   41.2570 H   0  0  0  0  0  0  0  0  0  0  0  0
   40.1460   30.7070   39.0420 C   0  0  0  0  0  0  0  0  0  0  0  0
   40.5800   29.7810   39.9770 C   0  0  0  0  0  0  0  0  0  0  0  0
   39.6340   28.8000   40.0660 C   0  0  0  0  0  0  0  0  0  0  0  0
   38.6510   29.1390   39.1970 N   0  0  0  0  0  0  0  0  0  0  0  0
   38.9760   30.2700   38.6030 N   0  0  0  0  0  0  0  0  0  0  0  0
   41.5040   29.8230   40.5380 H   0  0  0  0  0  0  0  0  0  0  0  0
   39.6760   27.9240   40.7140 H   0  0  0  0  0  0  0  0  0  0  0  0
   41.3890   34.1610   38.9490 C   0  0  0  0  0  0  0  0  0  0  0  0
   42.2390   34.1610   37.8350 C   0  0  0  0  0  0  0  0  0  0  0  0
   42.3690   32.9750   37.1330 C   0  0  0  0  0  0  0  0  0  0  0  0
   41.6710   31.8880   37.5640 N   0  0  0  0  0  0  0  0  0  0  0  0
   40.8640   31.9240   38.6400 C   0  0  0  0  0  0  0  0  0  0  0  0
   40.7120   33.0560   39.3450 N   0  0  0  0  0  0  0  0  0  0  0  0
   41.3090   35.1080   39.4790 H   0  0  0  0  0  0  0  0  0  0  0  0
   42.7680   35.0580   37.5410 H   0  0  0  0  0  0  0  0  0  0  0  0
   43.0060   32.9010   36.2630 H   0  0  0  0  0  0  0  0  0  0  0  0
   37.1440   28.2380   42.3890 C   0  0  1  0  0  0  0  0  0  0  0  0
   36.5500   27.4090   43.5180 C   0  0  0  0  0  0  0  0  0  0  0  0
   37.8620   27.0800   42.9120 C   0  0  1  0  0  0  0  0  0  0  0  0
   37.5150   29.2440   42.7460 H   0  0  0  0  0  0  0  0  0  0  0  0
   35.6530   26.7750   43.2990 H   0  0  0  0  0  0  0  0  0  0  0  0
   36.4960   27.8420   44.5250 H   0  0  0  0  0  0  0  0  0  0  0  0
   38.7980   27.3060   43.4920 H   0  0  0  0  0  0  0  0  0  0  0  0
   37.8730   25.7500   42.2050 C   0  0  0  0  0  0  0  0  0  0  0  0
   36.8600   24.7260   42.0130 C   0  0  0  0  0  0  0  0  0  0  0  0
   35.9510   25.0050   42.5080 H   0  0  0  0  0  0  0  0  0  0  0  0
   37.2920   23.6740   41.2630 C   0  0  0  0  0  3  0  0  0  0  0  0
   38.5210   23.5540   40.7360 C   0  0  0  0  0  3  0  0  0  0  0  0
   39.3590   25.0610   41.2640 S   0  0  0  0  0  0  0  0  0  0  0  0
  1  6  1  0  0  0  0
  2  8  1  6  0  0  0
  2 18  1  0  0  0  0
  2  1  1  0  0  0  0
  3  2  1  0  0  0  0
  3  4  1  0  0  0  0
  4 11  1  0  0  0  0
  4  5  1  0  0  0  0
  5  6  1  0  0  0  0
  5 12  1  0  0  0  0
  6 14  1  1  0  0  0
  6 31  1  0  0  0  0
  7  1  1  0  0  0  0
  9  3  1  0  0  0  0
 10  3  1  0  0  0  0
 13  5  1  0  0  0  0
 15 16  1  0  0  0  0
 16 17  2  0  0  0  0
 16 20  1  0  0  0  0
 17 21  1  0  0  0  0
 18 17  1  0  0  0  0
 19 15  2  0  0  0  0
 19 18  1  0  0  0  0
 22 27  1  0  0  0  0
 22 28  1  0  0  0  0
 23 22  2  0  0  0  0
 24 25  2  0  0  0  0
 24 23  1  0  0  0  0
 25 26  1  0  0  0  0
 26 15  1  0  0  0  0
 26 27  2  0  0  0  0
 29 23  1  0  0  0  0
 30 24  1  0  0  0  0
 31 34  1  1  0  0  0
 31 33  1  0  0  0  0
 31 32  1  0  0  0  0
 32 36  1  0  0  0  0
 33 37  1  1  0  0  0
 33 32  1  0  0  0  0
 35 32  1  0  0  0  0
 38 33  1  0  0  0  0
 39 38  2  0  0  0  0
 39 40  1  0  0  0  0
 41 39  1  0  0  0  0
 42 41  2  0  0  0  0
 42 43  1  0  0  0  0
 43 38  1  0  0  0  0
M  END
>  <minimizedAffinity>
-5.63396978

$$$$

 OpenBabel03242520063D

 43 47  0  0  1  0  0  0  0  0999 V2000
   37.5980   28.2580   40.1050 N   0  0  0  0  0  0  0  0  0  0  0  0
   36.8580   28.7270   38.9760 C   0  0  1  0  0  0  0  0  0  0  0  0
   35.4660   29.0720   39.4170 C   0  0  0  0  0  0  0  0  0  0  0  0
   35.6320   30.2230   40.2890 N   0  0  0  0  0  0  0  0  0  0  0  0
   36.3010   29.8640   41.5050 C   0  0  0  0  0  0  0  0  0  0  0  0
   37.4600   28.9210   41.3440 C   0  0  2  0  0  0  0  0  0  0  0  0
   37.3820   27.2100   40.1570 H   0  0  0  0  0  0  0  0  0  0  0  0
   36.7700   27.9350   38.2180 H   0  0  0  0  0  0  0  0  0  0  0  0
   35.0380   28.2420   40.0510 H   0  0  0  0  0  0  0  0  0  0  0  0
   34.8130   29.3360   38.5770 H   0  0  0  0  0  0  0  0  0  0  0  0
   36.2530   30.8930   39.7500 H   0  0  0  0  0  0  0  0  0  0  0  0
   36.6030   30.8440   41.9800 H   0  0  0  0  0  0  0  0  0  0  0  0
   35.4990   29.4990   42.1870 H   0  0  0  0  0  0  0  0  0  0  0  0
   37.2490   28.1050   42.0950 H   0  0  0  0  0  0  0  0  0  0  0  0
   38.8510   31.4790   38.0040 C   0  0  0  0  0  0  0  0  0  0  0  0
   37.8470   31.5660   37.0520 C   0  0  0  0  0  0  0  0  0  0  0  0
   36.9620   30.5520   37.2830 C   0  0  0  0  0  0  0  0  0  0  0  0
   37.4340   29.8710   38.3550 N   0  0  0  0  0  0  0  0  0  0  0  0
   38.5510   30.4370   38.7640 N   0  0  0  0  0  0  0  0  0  0  0  0
   37.7730   32.3060   36.2670 H   0  0  0  0  0  0  0  0  0  0  0  0
   36.0590   30.3450   36.7070 H   0  0  0  0  0  0  0  0  0  0  0  0
   41.1560   34.0710   39.2080 C   0  0  0  0  0  0  0  0  0  0  0  0
   42.1990   34.0250   38.2730 C   0  0  0  0  0  0  0  0  0  0  0  0
   42.0930   33.1060   37.2440 C   0  0  0  0  0  0  0  0  0  0  0  0
   40.9900   32.3060   37.2020 N   0  0  0  0  0  0  0  0  0  0  0  0
   40.0070   32.3780   38.1190 C   0  0  0  0  0  0  0  0  0  0  0  0
   40.0750   33.2570   39.1300 N   0  0  0  0  0  0  0  0  0  0  0  0
   41.2700   34.8040   40.0040 H   0  0  0  0  0  0  0  0  0  0  0  0
   43.0500   34.6870   38.3600 H   0  0  0  0  0  0  0  0  0  0  0  0
   42.8580   33.0140   36.4870 H   0  0  0  0  0  0  0  0  0  0  0  0
   38.7090   29.6750   41.7620 C   0  0  1  0  0  0  0  0  0  0  0  0
   38.9590   29.7050   43.2620 C   0  0  0  0  0  0  0  0  0  0  0  0
   39.8980   29.0430   42.3260 C   0  0  1  0  0  0  0  0  0  0  0  0
   38.8750   30.6840   41.2800 H   0  0  0  0  0  0  0  0  0  0  0  0
   38.2980   29.0900   43.9250 H   0  0  0  0  0  0  0  0  0  0  0  0
   39.2290   30.6560   43.7380 H   0  0  0  0  0  0  0  0  0  0  0  0
   40.8770   29.5470   42.0930 H   0  0  0  0  0  0  0  0  0  0  0  0
   39.9980   27.5550   42.5360 C   0  0  0  0  0  0  0  0  0  0  0  0
   39.5920   26.6840   43.6260 C   0  0  0  0  0  0  0  0  0  0  0  0
   39.1640   27.2590   44.4220 H   0  0  0  0  0  0  0  0  0  0  0  0
   39.8450   25.3670   43.3860 C   0  0  0  0  0  3  0  0  0  0  0  0
   40.4090   24.8800   42.2700 C   0  0  0  0  0  3  0  0  0  0  0  0
   40.7110   26.3490   41.2690 S   0  0  0  0  0  0  0  0  0  0  0  0
  1  7  1  0  0  0  0
  1  6  1  0  0  0  0
  2  8  1  6  0  0  0
  2  3  1  0  0  0  0
  2  1  1  0  0  0  0
  3  9  1  0  0  0  0
  3  4  1  0  0  0  0
  4  5  1  0  0  0  0
  5 12  1  0  0  0  0
  5 13  1  0  0  0  0
  6  5  1  0  0  0  0
  6 31  1  0  0  0  0
  6 14  1  1  0  0  0
 10  3  1  0  0  0  0
 11  4  1  0  0  0  0
 15 26  1  0  0  0  0
 15 19  2  0  0  0  0
 16 17  2  0  0  0  0
 16 15  1  0  0  0  0
 17 18  1  0  0  0  0
 18 19  1  0  0  0  0
 18  2  1  0  0  0  0
 20 16  1  0  0  0  0
 21 17  1  0  0  0  0
 22 28  1  0  0  0  0
 23 29  1  0  0  0  0
 23 22  2  0  0  0  0
 24 23  1  0  0  0  0
 25 24  2  0  0  0  0
 25 26  1  0  0  0  0
 26 27  2  0  0  0  0
 27 22  1  0  0  0  0
 30 24  1  0  0  0  0
 31 34  1  6  0  0  0
 31 33  1  0  0  0  0
 31 32  1  0  0  0  0
 32 36  1  0  0  0  0
 32 35  1  0  0  0  0
 33 37  1  6  0  0  0
 33 38  1  0  0  0  0
 33 32  1  0  0  0  0
 38 39  2  0  0  0  0
 39 40  1  0  0  0  0
 41 39  1  0  0  0  0
 42 41  2  0  0  0  0
 43 42  1  0  0  0  0
 43 38  1  0  0  0  0
M  END
>  <minimizedAffinity>
-5.35465574

$$$$

 OpenBabel03242520063D

 43 47  0  0  1  0  0  0  0  0999 V2000
   37.3500   27.9960   39.5260 N   0  0  0  0  0  0  0  0  0  0  0  0
   37.3940   29.0930   38.6100 C   0  0  1  0  0  0  0  0  0  0  0  0
   36.0040   29.6260   38.4240 C   0  0  0  0  0  0  0  0  0  0  0  0
   35.6560   30.1990   39.7140 N   0  0  0  0  0  0  0  0  0  0  0  0
   35.5050   29.1830   40.7130 C   0  0  0  0  0  0  0  0  0  0  0  0
   36.5360   28.0910   40.6760 C   0  0  2  0  0  0  0  0  0  0  0  0
   37.1300   27.1420   38.9190 H   0  0  0  0  0  0  0  0  0  0  0  0
   37.7460   28.7560   37.6240 H   0  0  0  0  0  0  0  0  0  0  0  0
   35.2810   28.7810   38.2370 H   0  0  0  0  0  0  0  0  0  0  0  0
   35.9520   30.4000   37.6500 H   0  0  0  0  0  0  0  0  0  0  0  0
   36.4810   30.8110   39.9790 H   0  0  0  0  0  0  0  0  0  0  0  0
   35.4930   29.7340   41.7000 H   0  0  0  0  0  0  0  0  0  0  0  0
   34.4530   28.8290   40.6180 H   0  0  0  0  0  0  0  0  0  0  0  0
   35.9240   27.1420   40.6840 H   0  0  0  0  0  0  0  0  0  0  0  0
   39.7910   31.1740   40.1650 C   0  0  0  0  0  0  0  0  0  0  0  0
   39.2140   32.0860   39.2940 C   0  0  0  0  0  0  0  0  0  0  0  0
   38.2380   31.4370   38.5930 C   0  0  0  0  0  0  0  0  0  0  0  0
   38.2350   30.1580   39.0390 N   0  0  0  0  0  0  0  0  0  0  0  0
   39.1610   30.0260   39.9670 N   0  0  0  0  0  0  0  0  0  0  0  0
   39.4850   33.1270   39.1880 H   0  0  0  0  0  0  0  0  0  0  0  0
   37.5970   31.8770   37.8280 H   0  0  0  0  0  0  0  0  0  0  0  0
   41.9560   31.0990   43.1290 C   0  0  0  0  0  0  0  0  0  0  0  0
   42.9560   32.0280   42.8130 C   0  0  0  0  0  0  0  0  0  0  0  0
   42.8690   32.6660   41.5880 C   0  0  0  0  0  0  0  0  0  0  0  0
   41.8260   32.3550   40.7680 N   0  0  0  0  0  0  0  0  0  0  0  0
   40.8830   31.4550   41.1050 C   0  0  0  0  0  0  0  0  0  0  0  0
   40.9340   30.8180   42.2850 N   0  0  0  0  0  0  0  0  0  0  0  0
   42.0530   30.6150   44.0980 H   0  0  0  0  0  0  0  0  0  0  0  0
   43.7610   32.2330   43.5060 H   0  0  0  0  0  0  0  0  0  0  0  0
   43.6040   33.3940   41.2760 H   0  0  0  0  0  0  0  0  0  0  0  0
   37.3310   28.1850   41.9660 C   0  0  1  0  0  0  0  0  0  0  0  0
   36.7190   27.4420   43.1440 C   0  0  0  0  0  0  0  0  0  0  0  0
   38.0350   27.0620   42.5780 C   0  0  1  0  0  0  0  0  0  0  0  0
   37.7050   29.2110   42.2550 H   0  0  0  0  0  0  0  0  0  0  0  0
   35.8200   26.7990   42.9590 H   0  0  0  0  0  0  0  0  0  0  0  0
   36.6570   27.9450   44.1160 H   0  0  0  0  0  0  0  0  0  0  0  0
   38.9670   27.3240   43.1520 H   0  0  0  0  0  0  0  0  0  0  0  0
   38.0460   25.6860   41.9670 C   0  0  0  0  0  0  0  0  0  0  0  0
   37.0650   24.6140   41.9340 C   0  0  0  0  0  0  0  0  0  0  0  0
   36.1890   24.8940   42.4840 H   0  0  0  0  0  0  0  0  0  0  0  0
   37.4790   23.5260   41.2260 C   0  0  0  0  0  3  0  0  0  0  0  0
   38.6650   23.4140   40.6060 C   0  0  0  0  0  3  0  0  0  0  0  0
   39.4780   24.9850   40.9540 S   0  0  0  0  0  0  0  0  0  0  0  0
  1  6  1  0  0  0  0
  2  8  1  6  0  0  0
  2 18  1  0  0  0  0
  2  1  1  0  0  0  0
  3  2  1  0  0  0  0
  3  4  1  0  0  0  0
  4 11  1  0  0  0  0
  4  5  1  0  0  0  0
  5 12  1  0  0  0  0
  6 14  1  1  0  0  0
  6  5  1  0  0  0  0
  6 31  1  0  0  0  0
  7  1  1  0  0  0  0
  9  3  1  0  0  0  0
 10  3  1  0  0  0  0
 13  5  1  0  0  0  0
 15 26  1  0  0  0  0
 16 15  1  0  0  0  0
 17 18  1  0  0  0  0
 17 16  2  0  0  0  0
 18 19  1  0  0  0  0
 19 15  2  0  0  0  0
 20 16  1  0  0  0  0
 21 17  1  0  0  0  0
 22 28  1  0  0  0  0
 23 22  1  0  0  0  0
 23 29  1  0  0  0  0
 24 23  2  0  0  0  0
 25 26  2  0  0  0  0
 25 24  1  0  0  0  0
 26 27  1  0  0  0  0
 27 22  2  0  0  0  0
 30 24  1  0  0  0  0
 31 34  1  1  0  0  0
 31 33  1  0  0  0  0
 31 32  1  0  0  0  0
 32 36  1  0  0  0  0
 33 32  1  0  0  0  0
 33 37  1  1  0  0  0
 35 32  1  0  0  0  0
 38 33  1  0  0  0  0
 39 38  2  0  0  0  0
 39 40  1  0  0  0  0
 41 39  1  0  0  0  0
 42 43  1  0  0  0  0
 42 41  2  0  0  0  0
 43 38  1  0  0  0  0
M  END
>  <minimizedAffinity>
-5.31594181

$$$$

 OpenBabel03242520063D

 43 47  0  0  1  0  0  0  0  0999 V2000
   39.0620   29.2980   40.9250 N   0  0  0  0  0  0  0  0  0  0  0  0
   38.9800   28.4670   42.0850 C   0  0  1  0  0  0  0  0  0  0  0  0
   38.3180   29.2370   43.1890 C   0  0  0  0  0  0  0  0  0  0  0  0
   36.9490   29.4230   42.7360 N   0  0  0  0  0  0  0  0  0  0  0  0
   36.8880   30.3100   41.6120 C   0  0  0  0  0  0  0  0  0  0  0  0
   37.9560   30.1050   40.5760 C   0  0  2  0  0  0  0  0  0  0  0  0
   39.9700   29.8510   41.0490 H   0  0  0  0  0  0  0  0  0  0  0  0
   39.9870   28.1970   42.4360 H   0  0  0  0  0  0  0  0  0  0  0  0
   38.7740   30.2650   43.2780 H   0  0  0  0  0  0  0  0  0  0  0  0
   38.3220   28.6930   44.1400 H   0  0  0  0  0  0  0  0  0  0  0  0
   36.6260   28.4620   42.4250 H   0  0  0  0  0  0  0  0  0  0  0  0
   35.8460   30.1850   41.1900 H   0  0  0  0  0  0  0  0  0  0  0  0
   36.8540   31.3360   42.0450 H   0  0  0  0  0  0  0  0  0  0  0  0
   38.3820   31.1380   40.4200 H   0  0  0  0  0  0  0  0  0  0  0  0
   37.0970   25.7640   40.8020 C   0  0  0  0  0  0  0  0  0  0  0  0
   37.2640   25.3360   42.1100 C   0  0  0  0  0  0  0  0  0  0  0  0
   37.9900   26.2860   42.7710 C   0  0  0  0  0  0  0  0  0  0  0  0
   38.2510   27.2630   41.8700 N   0  0  0  0  0  0  0  0  0  0  0  0
   37.7130   26.9330   40.7130 N   0  0  0  0  0  0  0  0  0  0  0  0
   36.8880   24.4160   42.5350 H   0  0  0  0  0  0  0  0  0  0  0  0
   38.2910   26.2480   43.8190 H   0  0  0  0  0  0  0  0  0  0  0  0
   35.2460   23.1650   38.9850 C   0  0  0  0  0  0  0  0  0  0  0  0
   35.0340   23.7480   37.7290 C   0  0  0  0  0  0  0  0  0  0  0  0
   35.5320   25.0240   37.5260 C   0  0  0  0  0  0  0  0  0  0  0  0
   36.1920   25.6320   38.5510 N   0  0  0  0  0  0  0  0  0  0  0  0
   36.3760   25.0410   39.7460 C   0  0  0  0  0  0  0  0  0  0  0  0
   35.9090   23.8050   39.9790 N   0  0  0  0  0  0  0  0  0  0  0  0
   34.8420   22.1630   39.1120 H   0  0  0  0  0  0  0  0  0  0  0  0
   34.5020   23.2150   36.9530 H   0  0  0  0  0  0  0  0  0  0  0  0
   35.4060   25.5360   36.5830 H   0  0  0  0  0  0  0  0  0  0  0  0
   37.2630   29.6520   39.3030 C   0  0  1  0  0  0  0  0  0  0  0  0
   36.7890   30.7840   38.4030 C   0  0  0  0  0  0  0  0  0  0  0  0
   37.8210   29.8140   37.9640 C   0  0  1  0  0  0  0  0  0  0  0  0
   36.4860   28.8390   39.4130 H   0  0  0  0  0  0  0  0  0  0  0  0
   37.0780   31.8330   38.6690 H   0  0  0  0  0  0  0  0  0  0  0  0
   35.7750   30.7430   37.9860 H   0  0  0  0  0  0  0  0  0  0  0  0
   37.5370   29.0230   37.2170 H   0  0  0  0  0  0  0  0  0  0  0  0
   39.1660   30.4470   37.7210 C   0  0  0  0  0  0  0  0  0  0  0  0
   39.6000   31.8290   37.6050 C   0  0  0  0  0  0  0  0  0  0  0  0
   38.7610   32.4900   37.6930 H   0  0  0  0  0  0  0  0  0  0  0  0
   40.9420   31.9580   37.4150 C   0  0  0  0  0  3  0  0  0  0  0  0
   41.8130   30.9390   37.3380 C   0  0  0  0  0  3  0  0  0  0  0  0
   40.7770   29.4780   37.5390 S   0  0  0  0  0  0  0  0  0  0  0  0
  1  7  1  0  0  0  0
  1  2  1  0  0  0  0
  2  8  1  1  0  0  0
  2  3  1  0  0  0  0
  3  9  1  0  0  0  0
  3 10  1  0  0  0  0
  4  3  1  0  0  0  0
  5 13  1  0  0  0  0
  5  4  1  0  0  0  0
  6 14  1  6  0  0  0
  6  1  1  0  0  0  0
  6  5  1  0  0  0  0
 11  4  1  0  0  0  0
 12  5  1  0  0  0  0
 15 16  1  0  0  0  0
 16 20  1  0  0  0  0
 16 17  2  0  0  0  0
 17 21  1  0  0  0  0
 18  2  1  0  0  0  0
 18 17  1  0  0  0  0
 19 15  2  0  0  0  0
 19 18  1  0  0  0  0
 22 28  1  0  0  0  0
 22 27  1  0  0  0  0
 23 22  2  0  0  0  0
 24 23  1  0  0  0  0
 24 25  2  0  0  0  0
 25 26  1  0  0  0  0
 26 27  2  0  0  0  0
 26 15  1  0  0  0  0
 29 23  1  0  0  0  0
 30 24  1  0  0  0  0
 31 34  1  1  0  0  0
 31  6  1  0  0  0  0
 32 35  1  0  0  0  0
 32 31  1  0  0  0  0
 33 37  1  6  0  0  0
 33 32  1  0  0  0  0
 33 31  1  0  0  0  0
 36 32  1  0  0  0  0
 38 33  1  0  0  0  0
 39 40  1  0  0  0  0
 39 38  2  0  0  0  0
 41 39  1  0  0  0  0
 42 41  2  0  0  0  0
 42 43  1  0  0  0  0
 43 38  1  0  0  0  0
M  END
>  <minimizedAffinity>
-5.2552371

$$$$

 OpenBabel03242520063D

 43 47  0  0  1  0  0  0  0  0999 V2000
   37.0730   28.0230   40.1800 N   0  0  0  0  0  0  0  0  0  0  0  0
   36.3620   29.0180   39.4400 C   0  0  1  0  0  0  0  0  0  0  0  0
   35.3090   29.6210   40.3220 C   0  0  0  0  0  0  0  0  0  0  0  0
   36.0530   30.3410   41.3420 N   0  0  0  0  0  0  0  0  0  0  0  0
   36.7550   29.4410   42.2080 C   0  0  0  0  0  0  0  0  0  0  0  0
   37.4270   28.2850   41.5220 C   0  0  2  0  0  0  0  0  0  0  0  0
   36.4960   27.1290   40.0600 H   0  0  0  0  0  0  0  0  0  0  0  0
   35.8440   28.5630   38.5830 H   0  0  0  0  0  0  0  0  0  0  0  0
   34.7300   28.8110   40.8520 H   0  0  0  0  0  0  0  0  0  0  0  0
   34.6560   30.3160   39.7820 H   0  0  0  0  0  0  0  0  0  0  0  0
   36.7660   30.9200   40.8100 H   0  0  0  0  0  0  0  0  0  0  0  0
   37.4860   30.0870   42.7820 H   0  0  0  0  0  0  0  0  0  0  0  0
   36.0200   29.1490   42.9920 H   0  0  0  0  0  0  0  0  0  0  0  0
   37.0730   27.3840   42.1030 H   0  0  0  0  0  0  0  0  0  0  0  0
   38.9870   31.0300   38.1920 C   0  0  0  0  0  0  0  0  0  0  0  0
   37.9780   31.9770   38.2650 C   0  0  0  0  0  0  0  0  0  0  0  0
   36.8570   31.3580   38.7420 C   0  0  0  0  0  0  0  0  0  0  0  0
   37.1950   30.0630   38.9480 N   0  0  0  0  0  0  0  0  0  0  0  0
   38.4590   29.8920   38.6160 N   0  0  0  0  0  0  0  0  0  0  0  0
   38.0600   33.0200   37.9950 H   0  0  0  0  0  0  0  0  0  0  0  0
   35.8890   31.8300   38.9150 H   0  0  0  0  0  0  0  0  0  0  0  0
   42.0920   32.7140   37.1900 C   0  0  0  0  0  0  0  0  0  0  0  0
   42.9380   31.6460   36.8610 C   0  0  0  0  0  0  0  0  0  0  0  0
   42.4280   30.3660   36.9870 C   0  0  0  0  0  0  0  0  0  0  0  0
   41.1440   30.2210   37.4210 N   0  0  0  0  0  0  0  0  0  0  0  0
   40.3600   31.2700   37.7290 C   0  0  0  0  0  0  0  0  0  0  0  0
   40.8200   32.5260   37.6180 N   0  0  0  0  0  0  0  0  0  0  0  0
   42.5230   33.7070   37.0810 H   0  0  0  0  0  0  0  0  0  0  0  0
   43.9500   31.8260   36.5220 H   0  0  0  0  0  0  0  0  0  0  0  0
   43.0220   29.4950   36.7510 H   0  0  0  0  0  0  0  0  0  0  0  0
   38.9220   28.4540   41.7240 C   0  0  1  0  0  0  0  0  0  0  0  0
   39.4710   27.7920   42.9790 C   0  0  0  0  0  0  0  0  0  0  0  0
   39.8910   27.3670   41.6210 C   0  0  1  0  0  0  0  0  0  0  0  0
   39.3380   29.4940   41.5720 H   0  0  0  0  0  0  0  0  0  0  0  0
   38.7850   27.1450   43.5840 H   0  0  0  0  0  0  0  0  0  0  0  0
   40.1590   28.3560   43.6210 H   0  0  0  0  0  0  0  0  0  0  0  0
   40.9140   27.6570   41.2560 H   0  0  0  0  0  0  0  0  0  0  0  0
   39.4870   25.9550   41.2890 C   0  0  0  0  0  0  0  0  0  0  0  0
   38.9370   24.8720   42.0870 C   0  0  0  0  0  0  0  0  0  0  0  0
   38.8370   25.1780   43.1090 H   0  0  0  0  0  0  0  0  0  0  0  0
   38.6800   23.7460   41.3640 C   0  0  0  0  0  3  0  0  0  0  0  0
   38.8990   23.6080   40.0470 C   0  0  0  0  0  3  0  0  0  0  0  0
   39.5730   25.2060   39.5570 S   0  0  0  0  0  0  0  0  0  0  0  0
  1  6  1  0  0  0  0
  2  8  1  6  0  0  0
  2  1  1  0  0  0  0
  2  3  1  0  0  0  0
  3  9  1  0  0  0  0
  3  4  1  0  0  0  0
  4  5  1  0  0  0  0
  5 12  1  0  0  0  0
  5 13  1  0  0  0  0
  6 31  1  0  0  0  0
  6 14  1  1  0  0  0
  6  5  1  0  0  0  0
  7  1  1  0  0  0  0
 10  3  1  0  0  0  0
 11  4  1  0  0  0  0
 15 16  1  0  0  0  0
 15 19  2  0  0  0  0
 16 17  2  0  0  0  0
 17 21  1  0  0  0  0
 17 18  1  0  0  0  0
 18  2  1  0  0  0  0
 19 18  1  0  0  0  0
 20 16  1  0  0  0  0
 22 27  1  0  0  0  0
 23 24  1  0  0  0  0
 23 22  2  0  0  0  0
 24 25  2  0  0  0  0
 25 26  1  0  0  0  0
 26 15  1  0  0  0  0
 27 26  2  0  0  0  0
 28 22  1  0  0  0  0
 29 23  1  0  0  0  0
 30 24  1  0  0  0  0
 31 34  1  6  0  0  0
 31 32  1  0  0  0  0
 32 35  1  0  0  0  0
 32 36  1  0  0  0  0
 33 37  1  6  0  0  0
 33 31  1  0  0  0  0
 33 32  1  0  0  0  0
 38 33  1  0  0  0  0
 38 39  2  0  0  0  0
 39 40  1  0  0  0  0
 41 39  1  0  0  0  0
 42 41  2  0  0  0  0
 43 42  1  0  0  0  0
 43 38  1  0  0  0  0
M  END
>  <minimizedAffinity>
-5.24923372

$$$$

 OpenBabel03242520063D

 43 47  0  0  1  0  0  0  0  0999 V2000
   39.5140   32.5850   40.3570 N   0  0  0  0  0  0  0  0  0  0  0  0
   38.1230   32.4710   40.6630 C   0  0  1  0  0  0  0  0  0  0  0  0
   37.3260   32.8900   39.4630 C   0  0  0  0  0  0  0  0  0  0  0  0
   37.5980   31.8670   38.4660 N   0  0  0  0  0  0  0  0  0  0  0  0
   38.9570   31.9270   38.0160 C   0  0  0  0  0  0  0  0  0  0  0  0
   39.9790   32.1600   39.0930 C   0  0  2  0  0  0  0  0  0  0  0  0
   39.7610   33.6030   40.5800 H   0  0  0  0  0  0  0  0  0  0  0  0
   37.8530   33.1520   41.4840 H   0  0  0  0  0  0  0  0  0  0  0  0
   37.7210   33.8620   39.0490 H   0  0  0  0  0  0  0  0  0  0  0  0
   36.2500   32.9290   39.6670 H   0  0  0  0  0  0  0  0  0  0  0  0
   37.4510   30.9440   38.9680 H   0  0  0  0  0  0  0  0  0  0  0  0
   39.1300   30.9580   37.4580 H   0  0  0  0  0  0  0  0  0  0  0  0
   38.9660   32.6840   37.1990 H   0  0  0  0  0  0  0  0  0  0  0  0
   40.5940   33.0200   38.6990 H   0  0  0  0  0  0  0  0  0  0  0  0
   37.9280   29.1130   41.7490 C   0  0  0  0  0  0  0  0  0  0  0  0
   36.5960   29.3400   41.4410 C   0  0  0  0  0  0  0  0  0  0  0  0
   36.4820   30.6250   40.9920 C   0  0  0  0  0  0  0  0  0  0  0  0
   37.7290   31.1550   41.0330 N   0  0  0  0  0  0  0  0  0  0  0  0
   38.5660   30.2430   41.4840 N   0  0  0  0  0  0  0  0  0  0  0  0
   35.7870   28.6280   41.5370 H   0  0  0  0  0  0  0  0  0  0  0  0
   35.5620   31.1120   40.6680 H   0  0  0  0  0  0  0  0  0  0  0  0
   39.9430   26.7150   43.6650 C   0  0  0  0  0  0  0  0  0  0  0  0
   39.4900   25.4750   43.1930 C   0  0  0  0  0  0  0  0  0  0  0  0
   38.5020   25.4840   42.2240 C   0  0  0  0  0  0  0  0  0  0  0  0
   38.0310   26.6870   41.7900 N   0  0  0  0  0  0  0  0  0  0  0  0
   38.4890   27.8590   42.2670 C   0  0  0  0  0  0  0  0  0  0  0  0
   39.4470   27.8900   43.2060 N   0  0  0  0  0  0  0  0  0  0  0  0
   40.7190   26.6730   44.4260 H   0  0  0  0  0  0  0  0  0  0  0  0
   39.9040   24.5520   43.5770 H   0  0  0  0  0  0  0  0  0  0  0  0
   38.1050   24.5660   41.8140 H   0  0  0  0  0  0  0  0  0  0  0  0
   40.8460   30.9150   39.1620 C   0  0  1  0  0  0  0  0  0  0  0  0
   42.1000   30.9680   38.3020 C   0  0  0  0  0  0  0  0  0  0  0  0
   42.1670   30.8700   39.7800 C   0  0  1  0  0  0  0  0  0  0  0  0
   40.3120   29.9230   39.0790 H   0  0  0  0  0  0  0  0  0  0  0  0
   42.3550   31.9310   37.7900 H   0  0  0  0  0  0  0  0  0  0  0  0
   42.3530   30.1030   37.6770 H   0  0  0  0  0  0  0  0  0  0  0  0
   42.4560   29.8870   40.2450 H   0  0  0  0  0  0  0  0  0  0  0  0
   42.7970   32.0750   40.4280 C   0  0  0  0  0  0  0  0  0  0  0  0
   43.3530   33.3050   39.8920 C   0  0  0  0  0  0  0  0  0  0  0  0
   43.3050   33.3000   38.8210 H   0  0  0  0  0  0  0  0  0  0  0  0
   43.7960   34.1610   40.8550 C   0  0  0  0  0  3  0  0  0  0  0  0
   43.7440   33.9310   42.1760 C   0  0  0  0  0  3  0  0  0  0  0  0
   42.9830   32.3010   42.2940 S   0  0  0  0  0  0  0  0  0  0  0  0
  1  7  1  0  0  0  0
  1  2  1  0  0  0  0
  2 18  1  0  0  0  0
  2  8  1  1  0  0  0
  3 10  1  0  0  0  0
  3  2  1  0  0  0  0
  4 11  1  0  0  0  0
  4  3  1  0  0  0  0
  5  4  1  0  0  0  0
  5  6  1  0  0  0  0
  6 14  1  6  0  0  0
  6 31  1  0  0  0  0
  6  1  1  0  0  0  0
  9  3  1  0  0  0  0
 12  5  1  0  0  0  0
 13  5  1  0  0  0  0
 15 26  1  0  0  0  0
 16 20  1  0  0  0  0
 16 15  1  0  0  0  0
 17 18  1  0  0  0  0
 17 16  2  0  0  0  0
 18 19  1  0  0  0  0
 19 15  2  0  0  0  0
 21 17  1  0  0  0  0
 22 28  1  0  0  0  0
 23 29  1  0  0  0  0
 23 22  2  0  0  0  0
 24 23  1  0  0  0  0
 25 24  2  0  0  0  0
 25 26  1  0  0  0  0
 26 27  2  0  0  0  0
 27 22  1  0  0  0  0
 30 24  1  0  0  0  0
 31 34  1  6  0  0  0
 31 33  1  0  0  0  0
 32 31  1  0  0  0  0
 32 33  1  0  0  0  0
 33 37  1  1  0  0  0
 33 38  1  0  0  0  0
 35 32  1  0  0  0  0
 36 32  1  0  0  0  0
 38 43  1  0  0  0  0
 39 38  2  0  0  0  0
 39 41  1  0  0  0  0
 40 39  1  0  0  0  0
 41 42  2  0  0  0  0
 42 43  1  0  0  0  0
M  END
>  <minimizedAffinity>
-5.18994188

$$$$

 OpenBabel03242520063D

 43 47  0  0  1  0  0  0  0  0999 V2000
   38.2030   29.5750   42.2600 N   0  0  0  0  0  0  0  0  0  0  0  0
   38.3910   28.6050   43.2930 C   0  0  1  0  0  0  0  0  0  0  0  0
   37.0560   28.0410   43.6790 C   0  0  0  0  0  0  0  0  0  0  0  0
   36.6200   27.2960   42.5090 N   0  0  0  0  0  0  0  0  0  0  0  0
   36.3220   28.1720   41.4150 C   0  0  0  0  0  0  0  0  0  0  0  0
   37.2910   29.3020   41.2170 C   0  0  2  0  0  0  0  0  0  0  0  0
   37.9940   30.4890   42.7780 H   0  0  0  0  0  0  0  0  0  0  0  0
   38.8150   29.0780   44.1920 H   0  0  0  0  0  0  0  0  0  0  0  0
   36.3080   28.8710   43.8330 H   0  0  0  0  0  0  0  0  0  0  0  0
   37.1180   27.3690   44.5430 H   0  0  0  0  0  0  0  0  0  0  0  0
   37.4500   26.6920   42.2390 H   0  0  0  0  0  0  0  0  0  0  0  0
   36.2480   27.5010   40.5070 H   0  0  0  0  0  0  0  0  0  0  0  0
   35.2660   28.4900   41.5700 H   0  0  0  0  0  0  0  0  0  0  0  0
   36.6310   30.2160   41.1550 H   0  0  0  0  0  0  0  0  0  0  0  0
   40.5580   26.3430   41.6560 C   0  0  0  0  0  0  0  0  0  0  0  0
   40.4340   25.7070   42.8810 C   0  0  0  0  0  0  0  0  0  0  0  0
   39.6070   26.4620   43.6630 C   0  0  0  0  0  0  0  0  0  0  0  0
   39.2460   27.5310   42.9140 N   0  0  0  0  0  0  0  0  0  0  0  0
   39.8200   27.4390   41.7320 N   0  0  0  0  0  0  0  0  0  0  0  0
   40.9050   24.7770   43.1700 H   0  0  0  0  0  0  0  0  0  0  0  0
   39.3080   26.2340   44.6870 H   0  0  0  0  0  0  0  0  0  0  0  0
   43.3120   24.9710   39.6520 C   0  0  0  0  0  0  0  0  0  0  0  0
   42.7980   24.9990   38.3480 C   0  0  0  0  0  0  0  0  0  0  0  0
   41.5150   25.4900   38.1790 C   0  0  0  0  0  0  0  0  0  0  0  0
   40.8340   25.9130   39.2810 N   0  0  0  0  0  0  0  0  0  0  0  0
   41.3590   25.8700   40.5190 C   0  0  0  0  0  0  0  0  0  0  0  0
   42.6000   25.4010   40.7220 N   0  0  0  0  0  0  0  0  0  0  0  0
   44.3220   24.5790   39.7510 H   0  0  0  0  0  0  0  0  0  0  0  0
   43.3890   24.6490   37.5120 H   0  0  0  0  0  0  0  0  0  0  0  0
   41.0540   25.5430   37.2040 H   0  0  0  0  0  0  0  0  0  0  0  0
   37.9660   29.0810   39.8750 C   0  0  1  0  0  0  0  0  0  0  0  0
   37.1450   29.5200   38.6720 C   0  0  0  0  0  0  0  0  0  0  0  0
   38.4410   30.1560   39.0090 C   0  0  1  0  0  0  0  0  0  0  0  0
   38.4550   28.0750   39.7160 H   0  0  0  0  0  0  0  0  0  0  0  0
   36.1840   30.0670   38.8530 H   0  0  0  0  0  0  0  0  0  0  0  0
   37.0640   28.8480   37.8090 H   0  0  0  0  0  0  0  0  0  0  0  0
   39.3420   29.9160   38.3800 H   0  0  0  0  0  0  0  0  0  0  0  0
   38.3100   31.6090   39.3820 C   0  0  0  0  0  0  0  0  0  0  0  0
   37.2710   32.5980   39.1500 C   0  0  0  0  0  0  0  0  0  0  0  0
   36.4710   32.1690   38.5790 H   0  0  0  0  0  0  0  0  0  0  0  0
   37.5490   33.8120   39.7010 C   0  0  0  0  0  3  0  0  0  0  0  0
   38.6590   34.1090   40.3950 C   0  0  0  0  0  3  0  0  0  0  0  0
   39.5920   32.5670   40.3860 S   0  0  0  0  0  0  0  0  0  0  0  0
  1  7  1  0  0  0  0
  1  2  1  0  0  0  0
  2  3  1  0  0  0  0
  2  8  1  1  0  0  0
  3  9  1  0  0  0  0
  3 10  1  0  0  0  0
  4  3  1  0  0  0  0
  5 13  1  0  0  0  0
  5  4  1  0  0  0  0
  6 14  1  6  0  0  0
  6  5  1  0  0  0  0
  6  1  1  0  0  0  0
 11  4  1  0  0  0  0
 12  5  1  0  0  0  0
 15 19  2  0  0  0  0
 15 16  1  0  0  0  0
 16 20  1  0  0  0  0
 16 17  2  0  0  0  0
 17 21  1  0  0  0  0
 18  2  1  0  0  0  0
 18 17  1  0  0  0  0
 19 18  1  0  0  0  0
 22 28  1  0  0  0  0
 22 27  1  0  0  0  0
 23 22  2  0  0  0  0
 24 23  1  0  0  0  0
 24 25  2  0  0  0  0
 25 26  1  0  0  0  0
 26 27  2  0  0  0  0
 26 15  1  0  0  0  0
 29 23  1  0  0  0  0
 30 24  1  0  0  0  0
 31 34  1  6  0  0  0
 31  6  1  0  0  0  0
 32 35  1  0  0  0  0
 32 33  1  0  0  0  0
 32 31  1  0  0  0  0
 33 37  1  6  0  0  0
 33 38  1  0  0  0  0
 33 31  1  0  0  0  0
 36 32  1  0  0  0  0
 38 43  1  0  0  0  0
 39 38  2  0  0  0  0
 39 41  1  0  0  0  0
 40 39  1  0  0  0  0
 41 42  2  0  0  0  0
 43 42  1  0  0  0  0
M  END
>  <minimizedAffinity>
-5.1525445

$$$$

 OpenBabel03242520063D

 43 47  0  0  1  0  0  0  0  0999 V2000
   38.7460   28.2850   41.1060 N   0  0  0  0  0  0  0  0  0  0  0  0
   39.4900   27.2960   41.8210 C   0  0  1  0  0  0  0  0  0  0  0  0
   39.3650   27.5630   43.2920 C   0  0  0  0  0  0  0  0  0  0  0  0
   37.9670   27.3040   43.5940 N   0  0  0  0  0  0  0  0  0  0  0  0
   37.1130   28.2840   42.9910 C   0  0  0  0  0  0  0  0  0  0  0  0
   37.4760   28.6720   41.5860 C   0  0  2  0  0  0  0  0  0  0  0  0
   39.4240   29.1050   40.9890 H   0  0  0  0  0  0  0  0  0  0  0  0
   40.5590   27.3620   41.5700 H   0  0  0  0  0  0  0  0  0  0  0  0
   39.5480   28.6550   43.5090 H   0  0  0  0  0  0  0  0  0  0  0  0
   40.0010   26.9040   43.8930 H   0  0  0  0  0  0  0  0  0  0  0  0
   37.7570   26.3610   43.1550 H   0  0  0  0  0  0  0  0  0  0  0  0
   36.0680   27.8570   43.0660 H   0  0  0  0  0  0  0  0  0  0  0  0
   37.0810   29.1330   43.7120 H   0  0  0  0  0  0  0  0  0  0  0  0
   37.5020   29.8000   41.6160 H   0  0  0  0  0  0  0  0  0  0  0  0
   37.9280   24.3490   40.6500 C   0  0  0  0  0  0  0  0  0  0  0  0
   38.7990   23.8020   41.5790 C   0  0  0  0  0  0  0  0  0  0  0  0
   39.5030   24.8260   42.1470 C   0  0  0  0  0  0  0  0  0  0  0  0
   39.0580   25.9640   41.5630 N   0  0  0  0  0  0  0  0  0  0  0  0
   38.1280   25.6580   40.6810 N   0  0  0  0  0  0  0  0  0  0  0  0
   38.9040   22.7520   41.8160 H   0  0  0  0  0  0  0  0  0  0  0  0
   40.2690   24.7270   42.9170 H   0  0  0  0  0  0  0  0  0  0  0  0
   36.5410   22.1980   38.0170 C   0  0  0  0  0  0  0  0  0  0  0  0
   35.1660   22.2190   38.2840 C   0  0  0  0  0  0  0  0  0  0  0  0
   34.7380   22.9730   39.3630 C   0  0  0  0  0  0  0  0  0  0  0  0
   35.6710   23.6440   40.0950 N   0  0  0  0  0  0  0  0  0  0  0  0
   36.9850   23.5990   39.8100 C   0  0  0  0  0  0  0  0  0  0  0  0
   37.4370   22.8800   38.7710 N   0  0  0  0  0  0  0  0  0  0  0  0
   36.8450   21.5960   37.1640 H   0  0  0  0  0  0  0  0  0  0  0  0
   34.4720   21.6650   37.6660 H   0  0  0  0  0  0  0  0  0  0  0  0
   33.6920   23.0370   39.6290 H   0  0  0  0  0  0  0  0  0  0  0  0
   36.3350   28.2220   40.6900 C   0  0  1  0  0  0  0  0  0  0  0  0
   35.1920   29.2190   40.5700 C   0  0  0  0  0  0  0  0  0  0  0  0
   36.0170   28.8290   39.4010 C   0  0  1  0  0  0  0  0  0  0  0  0
   35.9660   27.1640   40.8360 H   0  0  0  0  0  0  0  0  0  0  0  0
   35.3170   30.2310   41.0340 H   0  0  0  0  0  0  0  0  0  0  0  0
   34.1600   28.8600   40.6660 H   0  0  0  0  0  0  0  0  0  0  0  0
   35.5730   28.1390   38.6320 H   0  0  0  0  0  0  0  0  0  0  0  0
   36.8140   29.9710   38.8280 C   0  0  0  0  0  0  0  0  0  0  0  0
   36.7700   31.4080   39.0370 C   0  0  0  0  0  0  0  0  0  0  0  0
   35.9860   31.6600   39.7240 H   0  0  0  0  0  0  0  0  0  0  0  0
   37.7140   32.0860   38.3270 C   0  0  0  0  0  3  0  0  0  0  0  0
   38.6140   31.5230   37.5050 C   0  0  0  0  0  3  0  0  0  0  0  0
   38.2400   29.7620   37.6070 S   0  0  0  0  0  0  0  0  0  0  0  0
  1  6  1  0  0  0  0
  1  2  1  0  0  0  0
  2  8  1  6  0  0  0
  2  3  1  0  0  0  0
  3  9  1  0  0  0  0
  3  4  1  0  0  0  0
  3 10  1  0  0  0  0
  5 12  1  0  0  0  0
  5  4  1  0  0  0  0
  5 13  1  0  0  0  0
  6 14  1  6  0  0  0
  6  5  1  0  0  0  0
  7  1  1  0  0  0  0
 11  4  1  0  0  0  0
 15 19  2  0  0  0  0
 15 16  1  0  0  0  0
 16 20  1  0  0  0  0
 16 17  2  0  0  0  0
 17 21  1  0  0  0  0
 18  2  1  0  0  0  0
 18 17  1  0  0  0  0
 19 18  1  0  0  0  0
 22 23  2  0  0  0  0
 22 27  1  0  0  0  0
 23 24  1  0  0  0  0
 24 30  1  0  0  0  0
 24 25  2  0  0  0  0
 26 25  1  0  0  0  0
 26 15  1  0  0  0  0
 27 26  2  0  0  0  0
 28 22  1  0  0  0  0
 29 23  1  0  0  0  0
 31 34  1  1  0  0  0
 31  6  1  0  0  0  0
 32 36  1  0  0  0  0
 32 31  1  0  0  0  0
 32 35  1  0  0  0  0
 33 37  1  6  0  0  0
 33 32  1  0  0  0  0
 33 31  1  0  0  0  0
 38 39  2  0  0  0  0
 38 33  1  0  0  0  0
 39 40  1  0  0  0  0
 41 39  1  0  0  0  0
 42 43  1  0  0  0  0
 42 41  2  0  0  0  0
 43 38  1  0  0  0  0
M  END
>  <minimizedAffinity>
-5.13154793

$$$$
