
 OpenBabel03242520513D

 19 20  0  0  0  0  0  0  0  0999 V2000
   44.4910   35.9060   44.7030 C   0  0  0  0  0  0  0  0  0  0  0  0
   45.2180   35.9390   43.5110 C   0  0  0  0  0  0  0  0  0  0  0  0
   46.1930   34.9790   43.2480 C   0  0  0  0  0  0  0  0  0  0  0  0
   46.3820   34.0380   44.2000 N   0  0  0  0  0  0  0  0  0  0  0  0
   45.6780   34.0150   45.3430 C   0  0  0  0  0  0  0  0  0  0  0  0
   44.7400   34.9360   45.6000 N   0  0  0  0  0  0  0  0  0  0  0  0
   43.7550   36.7020   44.8060 H   0  0  0  0  0  0  0  0  0  0  0  0
   45.0770   36.6800   42.7490 H   0  0  0  0  0  0  0  0  0  0  0  0
   45.9240   32.9580   46.3570 C   0  0  0  0  0  0  0  0  0  0  0  0
   45.2260   32.9670   47.6110 C   0  0  0  0  0  0  0  0  0  0  0  0
   44.5040   33.7220   47.8770 H   0  0  0  0  0  0  0  0  0  0  0  0
   45.5260   31.9480   48.4780 C   0  0  0  0  0  0  0  0  0  0  0  0
   46.4490   30.9510   48.1800 C   0  0  0  0  0  0  0  0  0  0  0  0
   46.9880   31.4990   46.4420 S   0  0  0  0  0  0  0  0  0  0  0  0
   46.9760   34.8940   42.1230 O   0  0  0  0  0  0  0  0  0  0  0  0
   46.4020   34.1910   41.0030 C   0  0  0  0  0  0  0  0  0  0  0  0
   45.1420   34.6930   40.7280 F   0  0  0  0  0  0  0  0  0  0  0  0
   47.2390   34.4080   39.9000 F   0  0  0  0  0  0  0  0  0  0  0  0
   46.3750   32.8070   41.2490 F   0  0  0  0  0  0  0  0  0  0  0  0
  1  7  1  0  0  0  0
  1  6  1  0  0  0  0
  2  1  2  0  0  0  0
  3  2  1  0  0  0  0
  3  4  2  0  0  0  0
  4  5  1  0  0  0  0
  5  6  2  0  0  0  0
  5  9  1  0  0  0  0
  8  2  1  0  0  0  0
  9 14  1  0  0  0  0
  9 10  2  0  0  0  0
 10 11  1  0  0  0  0
 10 12  1  0  0  0  0
 13 12  2  0  0  0  0
 14 13  1  0  0  0  0
 15  3  1  0  0  0  0
 16 19  1  0  0  0  0
 16 15  1  0  0  0  0
 17 16  1  0  0  0  0
 18 16  1  0  0  0  0
M  END
>  <minimizedAffinity>
-4.87035036

>  <minimizedRMSD>
0.711950064

$$$$
