
 OpenBabel03242517333D

 44 47  0  0  1  0  0  0  0  0999 V2000
   40.1090   28.3560   41.4980 C   0  0  0  0  0  0  0  0  0  0  0  0
   39.4370   28.8400   42.6550 C   0  0  0  0  0  0  0  0  0  0  0  0
   39.1210   30.1910   42.7140 C   0  0  0  0  0  0  0  0  0  0  0  0
   39.4750   30.9640   41.6590 N   0  0  0  0  0  0  0  0  0  0  0  0
   40.1030   30.5180   40.5770 C   0  0  0  0  0  0  0  0  0  0  0  0
   40.3960   29.2230   40.5400 N   0  0  0  0  0  0  0  0  0  0  0  0
   40.4250   31.3880   39.5450 N   0  0  0  0  0  0  0  0  0  0  0  0
   41.2610   32.5410   39.7960 C   0  0  0  0  0  0  0  0  0  0  0  0
   41.1670   33.5940   38.7370 C   0  0  0  0  0  0  0  0  0  0  0  0
   40.9580   33.1340   37.4040 N   0  0  0  0  0  0  0  0  0  0  0  0
   40.9630   31.6940   37.2990 C   0  0  0  0  0  0  0  0  0  0  0  0
   39.9050   31.1270   38.1870 C   0  0  2  0  0  0  0  0  0  0  0  0
   40.3430   27.3100   41.4760 H   0  0  0  0  0  0  0  0  0  0  0  0
   39.1680   28.1930   43.4820 H   0  0  0  0  0  0  0  0  0  0  0  0
   38.6060   30.5930   43.5850 H   0  0  0  0  0  0  0  0  0  0  0  0
   41.0430   32.9570   40.7780 H   0  0  0  0  0  0  0  0  0  0  0  0
   42.3200   32.1780   39.7950 H   0  0  0  0  0  0  0  0  0  0  0  0
   40.2860   34.2410   39.0080 H   0  0  0  0  0  0  0  0  0  0  0  0
   42.0500   34.2620   38.8630 H   0  0  0  0  0  0  0  0  0  0  0  0
   41.6420   33.5190   36.7280 H   0  0  0  0  0  0  0  0  0  0  0  0
   41.9530   31.2980   37.6590 H   0  0  0  0  0  0  0  0  0  0  0  0
   40.9230   31.4210   36.2440 H   0  0  0  0  0  0  0  0  0  0  0  0
   39.8500   30.0420   38.0650 H   0  0  0  0  0  0  0  0  0  0  0  0
   38.5620   31.7840   37.9870 C   0  0  0  0  0  0  0  0  0  0  0  0
   38.5330   32.5160   37.1740 H   0  0  0  0  0  0  0  0  0  0  0  0
   38.1690   32.2610   38.8950 H   0  0  0  0  0  0  0  0  0  0  0  0
   37.6020   30.6700   37.6490 C   0  0  0  0  0  3  0  0  0  0  0  0
   36.6160   30.3620   38.4920 C   0  0  0  0  0  3  0  0  0  0  0  0
   35.6170   29.2890   38.2590 C   0  0  0  0  0  0  0  0  0  0  0  0
   34.6190   29.6990   37.9870 H   0  0  0  0  0  0  0  0  0  0  0  0
   35.9410   28.6670   37.4090 H   0  0  0  0  0  0  0  0  0  0  0  0
   35.5280   28.4180   39.4950 C   0  0  2  0  0  0  0  0  0  0  0  0
   35.8800   29.0310   40.8150 C   0  0  0  0  0  0  0  0  0  0  0  0
   36.7530   27.9680   40.1700 C   0  0  1  0  0  0  0  0  0  0  0  0
   34.6920   27.6710   39.4830 H   0  0  0  0  0  0  0  0  0  0  0  0
   36.1740   30.0930   40.7760 H   0  0  0  0  0  0  0  0  0  0  0  0
   35.3700   28.7040   41.7430 H   0  0  0  0  0  0  0  0  0  0  0  0
   37.7070   28.3850   39.7930 H   0  0  0  0  0  0  0  0  0  0  0  0
   36.8450   26.6450   40.7260 C   0  0  0  0  0  0  0  0  0  0  0  0
   37.1130   26.0550   41.9140 C   0  0  0  0  0  0  0  0  0  0  0  0
   37.3240   26.7770   42.6850 H   0  0  0  0  0  0  0  0  0  0  0  0
   37.1050   24.7120   42.0670 C   0  0  0  0  0  3  0  0  0  0  0  0
   36.8000   23.9320   40.9120 C   0  0  0  0  0  3  0  0  0  0  0  0
   36.5160   25.2340   39.5630 S   0  0  0  0  0  0  0  0  0  0  0  0
  1  2  1  0  0  0  0
  2  3  2  0  0  0  0
  2 14  1  0  0  0  0
  3 15  1  0  0  0  0
  4  3  1  0  0  0  0
  5  4  2  0  0  0  0
  6  5  1  0  0  0  0
  6  1  2  0  0  0  0
  7  8  1  0  0  0  0
  7  5  1  0  0  0  0
  8 16  1  0  0  0  0
  9 19  1  0  0  0  0
  9 18  1  0  0  0  0
  9  8  1  0  0  0  0
 10  9  1  0  0  0  0
 11 10  1  0  0  0  0
 11 21  1  0  0  0  0
 11 12  1  0  0  0  0
 12 23  1  6  0  0  0
 12  7  1  0  0  0  0
 13  1  1  0  0  0  0
 17  8  1  0  0  0  0
 20 10  1  0  0  0  0
 22 11  1  0  0  0  0
 24 12  1  0  0  0  0
 24 26  1  0  0  0  0
 25 24  1  0  0  0  0
 27 24  1  0  0  0  0
 27 28  2  0  0  0  0
 29 28  1  0  0  0  0
 29 32  1  0  0  0  0
 30 29  1  0  0  0  0
 31 29  1  0  0  0  0
 32 35  1  1  0  0  0
 32 34  1  0  0  0  0
 32 33  1  0  0  0  0
 33 37  1  0  0  0  0
 34 38  1  6  0  0  0
 34 39  1  0  0  0  0
 34 33  1  0  0  0  0
 36 33  1  0  0  0  0
 39 40  2  0  0  0  0
 40 42  1  0  0  0  0
 40 41  1  0  0  0  0
 43 42  2  0  0  0  0
 44 39  1  0  0  0  0
 44 43  1  0  0  0  0
M  END
>  <minimizedAffinity>
-5.61252213

$$$$

 OpenBabel03242517333D

 44 47  0  0  1  0  0  0  0  0999 V2000
   39.5130   32.2450   40.7320 C   0  0  0  0  0  0  0  0  0  0  0  0
   38.8280   33.4920   40.7060 C   0  0  0  0  0  0  0  0  0  0  0  0
   37.7040   33.6060   39.8990 C   0  0  0  0  0  0  0  0  0  0  0  0
   37.3310   32.5170   39.1850 N   0  0  0  0  0  0  0  0  0  0  0  0
   37.9670   31.3510   39.2050 C   0  0  0  0  0  0  0  0  0  0  0  0
   39.0400   31.2620   39.9830 N   0  0  0  0  0  0  0  0  0  0  0  0
   37.5090   30.2900   38.4370 N   0  0  0  0  0  0  0  0  0  0  0  0
   37.3910   30.4240   37.0020 C   0  0  0  0  0  0  0  0  0  0  0  0
   36.5010   29.3990   36.3730 C   0  0  0  0  0  0  0  0  0  0  0  0
   36.4990   28.1070   36.9770 N   0  0  0  0  0  0  0  0  0  0  0  0
   37.4470   27.9910   38.0590 C   0  0  0  0  0  0  0  0  0  0  0  0
   37.1440   29.0200   39.0980 C   0  0  2  0  0  0  0  0  0  0  0  0
   40.3780   32.1820   41.3630 H   0  0  0  0  0  0  0  0  0  0  0  0
   39.1520   34.3450   41.2910 H   0  0  0  0  0  0  0  0  0  0  0  0
   37.1550   34.5470   39.8570 H   0  0  0  0  0  0  0  0  0  0  0  0
   37.0650   31.4300   36.7440 H   0  0  0  0  0  0  0  0  0  0  0  0
   38.4130   30.2660   36.5760 H   0  0  0  0  0  0  0  0  0  0  0  0
   35.4510   29.8000   36.4450 H   0  0  0  0  0  0  0  0  0  0  0  0
   36.7230   29.3980   35.2820 H   0  0  0  0  0  0  0  0  0  0  0  0
   36.6720   27.3410   36.3010 H   0  0  0  0  0  0  0  0  0  0  0  0
   38.4830   28.2000   37.6720 H   0  0  0  0  0  0  0  0  0  0  0  0
   37.4790   26.9520   38.3870 H   0  0  0  0  0  0  0  0  0  0  0  0
   37.8100   28.9000   39.9570 H   0  0  0  0  0  0  0  0  0  0  0  0
   35.6920   29.0250   39.5090 C   0  0  0  0  0  0  0  0  0  0  0  0
   35.0930   28.2290   39.0560 H   0  0  0  0  0  0  0  0  0  0  0  0
   35.1890   29.9830   39.3270 H   0  0  0  0  0  0  0  0  0  0  0  0
   35.6840   28.8230   41.0040 C   0  0  0  0  0  3  0  0  0  0  0  0
   36.4440   27.8740   41.5520 C   0  0  0  0  0  3  0  0  0  0  0  0
   36.5160   27.5910   43.0070 C   0  0  0  0  0  0  0  0  0  0  0  0
   35.7390   28.1430   43.5790 H   0  0  0  0  0  0  0  0  0  0  0  0
   36.3270   26.5190   43.1800 H   0  0  0  0  0  0  0  0  0  0  0  0
   37.9040   27.9290   43.5100 C   0  0  2  0  0  0  0  0  0  0  0  0
   38.4290   29.3070   43.2530 C   0  0  0  0  0  0  0  0  0  0  0  0
   39.0140   28.0880   42.5600 C   0  0  1  0  0  0  0  0  0  0  0  0
   38.1800   27.4480   44.4840 H   0  0  0  0  0  0  0  0  0  0  0  0
   37.7420   29.9780   42.7130 H   0  0  0  0  0  0  0  0  0  0  0  0
   39.1130   29.7940   43.9760 H   0  0  0  0  0  0  0  0  0  0  0  0
   38.7530   28.0540   41.4840 H   0  0  0  0  0  0  0  0  0  0  0  0
   40.3320   27.6120   42.8810 C   0  0  0  0  0  0  0  0  0  0  0  0
   41.6060   28.0700   42.8930 C   0  0  0  0  0  0  0  0  0  0  0  0
   41.6700   29.0950   42.5670 H   0  0  0  0  0  0  0  0  0  0  0  0
   42.6450   27.2950   43.2780 C   0  0  0  0  0  3  0  0  0  0  0  0
   42.3400   25.9580   43.6740 C   0  0  0  0  0  3  0  0  0  0  0  0
   40.4590   25.8540   43.4690 S   0  0  0  0  0  0  0  0  0  0  0  0
  1 13  1  0  0  0  0
  2  1  1  0  0  0  0
  2 14  1  0  0  0  0
  3  2  2  0  0  0  0
  4  5  2  0  0  0  0
  4  3  1  0  0  0  0
  5  6  1  0  0  0  0
  6  1  2  0  0  0  0
  7 12  1  0  0  0  0
  7  5  1  0  0  0  0
  8  7  1  0  0  0  0
  9 18  1  0  0  0  0
  9 10  1  0  0  0  0
  9  8  1  0  0  0  0
 10 11  1  0  0  0  0
 11 22  1  0  0  0  0
 11 12  1  0  0  0  0
 12 24  1  0  0  0  0
 12 23  1  1  0  0  0
 15  3  1  0  0  0  0
 16  8  1  0  0  0  0
 17  8  1  0  0  0  0
 19  9  1  0  0  0  0
 20 10  1  0  0  0  0
 21 11  1  0  0  0  0
 24 27  1  0  0  0  0
 25 24  1  0  0  0  0
 26 24  1  0  0  0  0
 27 28  2  0  0  0  0
 28 29  1  0  0  0  0
 29 31  1  0  0  0  0
 29 32  1  0  0  0  0
 29 30  1  0  0  0  0
 32 35  1  1  0  0  0
 33 32  1  0  0  0  0
 33 37  1  0  0  0  0
 34 38  1  6  0  0  0
 34 39  1  0  0  0  0
 34 33  1  0  0  0  0
 34 32  1  0  0  0  0
 36 33  1  0  0  0  0
 39 40  2  0  0  0  0
 39 44  1  0  0  0  0
 40 42  1  0  0  0  0
 41 40  1  0  0  0  0
 42 43  2  0  0  0  0
 44 43  1  0  0  0  0
M  END
>  <minimizedAffinity>
-5.5895524

$$$$

 OpenBabel03242517333D

 44 47  0  0  1  0  0  0  0  0999 V2000
   37.0230   30.2010   36.3070 C   0  0  0  0  0  0  0  0  0  0  0  0
   37.7020   28.9520   36.3730 C   0  0  0  0  0  0  0  0  0  0  0  0
   38.7380   28.8160   37.2880 C   0  0  0  0  0  0  0  0  0  0  0  0
   39.0360   29.8870   38.0610 N   0  0  0  0  0  0  0  0  0  0  0  0
   38.4060   31.0550   38.0030 C   0  0  0  0  0  0  0  0  0  0  0  0
   37.4180   31.1660   37.1220 N   0  0  0  0  0  0  0  0  0  0  0  0
   38.7840   32.0970   38.8390 N   0  0  0  0  0  0  0  0  0  0  0  0
   40.1380   32.6030   38.8090 C   0  0  0  0  0  0  0  0  0  0  0  0
   40.5130   33.3930   40.0230 C   0  0  0  0  0  0  0  0  0  0  0  0
   39.4710   34.1600   40.6240 N   0  0  0  0  0  0  0  0  0  0  0  0
   38.2340   34.1060   39.8830 C   0  0  0  0  0  0  0  0  0  0  0  0
   37.7900   32.6860   39.7590 C   0  0  2  0  0  0  0  0  0  0  0  0
   36.2270   30.2810   35.5930 H   0  0  0  0  0  0  0  0  0  0  0  0
   37.4380   28.1140   35.7390 H   0  0  0  0  0  0  0  0  0  0  0  0
   39.2770   27.8720   37.3640 H   0  0  0  0  0  0  0  0  0  0  0  0
   40.8400   31.7870   38.6450 H   0  0  0  0  0  0  0  0  0  0  0  0
   40.2040   33.3020   37.9380 H   0  0  0  0  0  0  0  0  0  0  0  0
   40.8630   32.6490   40.7930 H   0  0  0  0  0  0  0  0  0  0  0  0
   41.4260   33.9760   39.7650 H   0  0  0  0  0  0  0  0  0  0  0  0
   39.7290   35.1530   40.7690 H   0  0  0  0  0  0  0  0  0  0  0  0
   38.4060   34.4970   38.8410 H   0  0  0  0  0  0  0  0  0  0  0  0
   37.5290   34.8080   40.3280 H   0  0  0  0  0  0  0  0  0  0  0  0
   36.8170   32.6350   39.2610 H   0  0  0  0  0  0  0  0  0  0  0  0
   37.7820   31.9600   41.0820 C   0  0  0  0  0  0  0  0  0  0  0  0
   37.5070   32.5840   41.9380 H   0  0  0  0  0  0  0  0  0  0  0  0
   38.7310   31.4580   41.3110 H   0  0  0  0  0  0  0  0  0  0  0  0
   36.7500   30.8670   40.9480 C   0  0  0  0  0  3  0  0  0  0  0  0
   36.9700   29.6730   41.5010 C   0  0  0  0  0  3  0  0  0  0  0  0
   36.0260   28.5300   41.4330 C   0  0  0  0  0  0  0  0  0  0  0  0
   35.0280   28.7860   41.8540 H   0  0  0  0  0  0  0  0  0  0  0  0
   35.8580   28.2570   40.3790 H   0  0  0  0  0  0  0  0  0  0  0  0
   36.6310   27.3440   42.1550 C   0  0  2  0  0  0  0  0  0  0  0  0
   36.4920   27.2790   43.6440 C   0  0  0  0  0  0  0  0  0  0  0  0
   37.8360   27.5180   42.9780 C   0  0  1  0  0  0  0  0  0  0  0  0
   36.5780   26.3760   41.5920 H   0  0  0  0  0  0  0  0  0  0  0  0
   35.9390   28.1180   44.1000 H   0  0  0  0  0  0  0  0  0  0  0  0
   36.4030   26.3030   44.1600 H   0  0  0  0  0  0  0  0  0  0  0  0
   38.1930   28.5570   43.1190 H   0  0  0  0  0  0  0  0  0  0  0  0
   38.8650   26.5140   43.0010 C   0  0  0  0  0  0  0  0  0  0  0  0
   39.0170   25.2050   42.6950 C   0  0  0  0  0  0  0  0  0  0  0  0
   38.1060   24.7680   42.3210 H   0  0  0  0  0  0  0  0  0  0  0  0
   40.1960   24.5620   42.8550 C   0  0  0  0  0  3  0  0  0  0  0  0
   41.2850   25.3280   43.3670 C   0  0  0  0  0  3  0  0  0  0  0  0
   40.5340   27.0510   43.6160 S   0  0  0  0  0  0  0  0  0  0  0  0
  1  2  2  0  0  0  0
  1  6  1  0  0  0  0
  2  3  1  0  0  0  0
  3 15  1  0  0  0  0
  3  4  2  0  0  0  0
  5  4  1  0  0  0  0
  5  7  1  0  0  0  0
  6  5  2  0  0  0  0
  7 12  1  0  0  0  0
  8  7  1  0  0  0  0
  8  9  1  0  0  0  0
  9 10  1  0  0  0  0
  9 18  1  0  0  0  0
 10 20  1  0  0  0  0
 11 22  1  0  0  0  0
 11 10  1  0  0  0  0
 12 23  1  6  0  0  0
 12 11  1  0  0  0  0
 12 24  1  0  0  0  0
 13  1  1  0  0  0  0
 14  2  1  0  0  0  0
 16  8  1  0  0  0  0
 17  8  1  0  0  0  0
 19  9  1  0  0  0  0
 21 11  1  0  0  0  0
 24 26  1  0  0  0  0
 24 25  1  0  0  0  0
 27 24  1  0  0  0  0
 27 28  2  0  0  0  0
 29 28  1  0  0  0  0
 29 30  1  0  0  0  0
 29 32  1  0  0  0  0
 31 29  1  0  0  0  0
 32 35  1  6  0  0  0
 32 34  1  0  0  0  0
 32 33  1  0  0  0  0
 33 36  1  0  0  0  0
 33 37  1  0  0  0  0
 34 39  1  0  0  0  0
 34 38  1  1  0  0  0
 34 33  1  0  0  0  0
 39 44  1  0  0  0  0
 40 42  1  0  0  0  0
 40 39  2  0  0  0  0
 41 40  1  0  0  0  0
 42 43  2  0  0  0  0
 43 44  1  0  0  0  0
M  END
>  <minimizedAffinity>
-5.55640078

$$$$

 OpenBabel03242517333D

 44 47  0  0  1  0  0  0  0  0999 V2000
   36.8480   25.1060   38.4760 C   0  0  0  0  0  0  0  0  0  0  0  0
   35.8890   24.1080   38.8080 C   0  0  0  0  0  0  0  0  0  0  0  0
   35.8900   23.6010   40.1010 C   0  0  0  0  0  0  0  0  0  0  0  0
   36.8080   24.0930   40.9670 N   0  0  0  0  0  0  0  0  0  0  0  0
   37.7060   25.0230   40.6620 C   0  0  0  0  0  0  0  0  0  0  0  0
   37.6900   25.4950   39.4210 N   0  0  0  0  0  0  0  0  0  0  0  0
   38.6090   25.4650   41.6190 N   0  0  0  0  0  0  0  0  0  0  0  0
   39.5050   24.5310   42.2640 C   0  0  0  0  0  0  0  0  0  0  0  0
   40.0930   25.0440   43.5410 C   0  0  0  0  0  0  0  0  0  0  0  0
   40.3490   26.4450   43.6000 N   0  0  0  0  0  0  0  0  0  0  0  0
   40.0740   27.1210   42.3540 C   0  0  0  0  0  0  0  0  0  0  0  0
   38.6470   26.8990   41.9740 C   0  0  2  0  0  0  0  0  0  0  0  0
   36.8280   25.4800   37.4720 H   0  0  0  0  0  0  0  0  0  0  0  0
   35.1670   23.7360   38.0900 H   0  0  0  0  0  0  0  0  0  0  0  0
   35.1670   22.8370   40.3870 H   0  0  0  0  0  0  0  0  0  0  0  0
   39.0040   23.5780   42.4240 H   0  0  0  0  0  0  0  0  0  0  0  0
   40.3600   24.3640   41.5610 H   0  0  0  0  0  0  0  0  0  0  0  0
   39.3480   24.8090   44.3520 H   0  0  0  0  0  0  0  0  0  0  0  0
   40.9720   24.4020   43.7770 H   0  0  0  0  0  0  0  0  0  0  0  0
   41.3180   26.6700   43.8910 H   0  0  0  0  0  0  0  0  0  0  0  0
   40.7120   26.6770   41.5410 H   0  0  0  0  0  0  0  0  0  0  0  0
   40.4090   28.1550   42.4360 H   0  0  0  0  0  0  0  0  0  0  0  0
   38.4040   27.4620   41.0680 H   0  0  0  0  0  0  0  0  0  0  0  0
   37.6890   27.2020   43.0990 C   0  0  0  0  0  0  0  0  0  0  0  0
   38.0790   27.8970   43.8490 H   0  0  0  0  0  0  0  0  0  0  0  0
   37.3230   26.3050   43.6160 H   0  0  0  0  0  0  0  0  0  0  0  0
   36.4820   27.8370   42.4540 C   0  0  0  0  0  3  0  0  0  0  0  0
   36.6280   28.5860   41.3610 C   0  0  0  0  0  3  0  0  0  0  0  0
   35.5130   29.2550   40.6450 C   0  0  0  0  0  0  0  0  0  0  0  0
   34.9990   28.5690   39.9360 H   0  0  0  0  0  0  0  0  0  0  0  0
   34.7520   29.5760   41.3750 H   0  0  0  0  0  0  0  0  0  0  0  0
   36.0470   30.4770   39.9270 C   0  0  2  0  0  0  0  0  0  0  0  0
   36.5480   30.3080   38.5270 C   0  0  0  0  0  0  0  0  0  0  0  0
   37.4890   30.6160   39.6800 C   0  0  1  0  0  0  0  0  0  0  0  0
   35.5140   31.4330   40.1700 H   0  0  0  0  0  0  0  0  0  0  0  0
   36.4780   29.2850   38.1240 H   0  0  0  0  0  0  0  0  0  0  0  0
   36.4460   31.1270   37.7890 H   0  0  0  0  0  0  0  0  0  0  0  0
   38.1220   29.7470   39.9450 H   0  0  0  0  0  0  0  0  0  0  0  0
   38.1360   31.8950   39.7890 C   0  0  0  0  0  0  0  0  0  0  0  0
   37.8440   33.1530   40.1940 C   0  0  0  0  0  0  0  0  0  0  0  0
   36.8280   33.2410   40.5400 H   0  0  0  0  0  0  0  0  0  0  0  0
   38.7550   34.1520   40.1500 C   0  0  0  0  0  3  0  0  0  0  0  0
   40.0520   33.8210   39.6540 C   0  0  0  0  0  3  0  0  0  0  0  0
   39.9090   31.9760   39.2420 S   0  0  0  0  0  0  0  0  0  0  0  0
  1  2  2  0  0  0  0
  1  6  1  0  0  0  0
  2  3  1  0  0  0  0
  3 15  1  0  0  0  0
  3  4  2  0  0  0  0
  5  4  1  0  0  0  0
  5  7  1  0  0  0  0
  6  5  2  0  0  0  0
  7 12  1  0  0  0  0
  7  8  1  0  0  0  0
  8 16  1  0  0  0  0
  8  9  1  0  0  0  0
  9 10  1  0  0  0  0
  9 19  1  0  0  0  0
  9 18  1  0  0  0  0
 10 20  1  0  0  0  0
 11 22  1  0  0  0  0
 11 10  1  0  0  0  0
 12 23  1  6  0  0  0
 12 11  1  0  0  0  0
 12 24  1  0  0  0  0
 13  1  1  0  0  0  0
 14  2  1  0  0  0  0
 17  8  1  0  0  0  0
 21 11  1  0  0  0  0
 24 26  1  0  0  0  0
 24 25  1  0  0  0  0
 27 24  1  0  0  0  0
 28 27  2  0  0  0  0
 29 28  1  0  0  0  0
 29 31  1  0  0  0  0
 30 29  1  0  0  0  0
 32 35  1  1  0  0  0
 32 29  1  0  0  0  0
 33 34  1  0  0  0  0
 33 32  1  0  0  0  0
 34 39  1  0  0  0  0
 34 32  1  0  0  0  0
 34 38  1  1  0  0  0
 36 33  1  0  0  0  0
 37 33  1  0  0  0  0
 39 40  2  0  0  0  0
 40 41  1  0  0  0  0
 42 40  1  0  0  0  0
 43 42  2  0  0  0  0
 44 43  1  0  0  0  0
 44 39  1  0  0  0  0
M  END
>  <minimizedAffinity>
-5.48483324

$$$$

 OpenBabel03242517333D

 44 47  0  0  1  0  0  0  0  0999 V2000
   40.0190   27.1150   38.6640 C   0  0  0  0  0  0  0  0  0  0  0  0
   41.3190   27.6760   38.8070 C   0  0  0  0  0  0  0  0  0  0  0  0
   41.4320   28.9230   39.4090 C   0  0  0  0  0  0  0  0  0  0  0  0
   40.2920   29.5260   39.8210 N   0  0  0  0  0  0  0  0  0  0  0  0
   39.0760   29.0070   39.6890 C   0  0  0  0  0  0  0  0  0  0  0  0
   38.9880   27.8140   39.1110 N   0  0  0  0  0  0  0  0  0  0  0  0
   37.9640   29.7020   40.1440 N   0  0  0  0  0  0  0  0  0  0  0  0
   37.6690   31.0230   39.6350 C   0  0  0  0  0  0  0  0  0  0  0  0
   36.7340   31.8070   40.5000 C   0  0  0  0  0  0  0  0  0  0  0  0
   35.7310   31.0590   41.1850 N   0  0  0  0  0  0  0  0  0  0  0  0
   35.7410   29.6570   40.8420 C   0  0  0  0  0  0  0  0  0  0  0  0
   37.0830   29.0800   41.1540 C   0  0  2  0  0  0  0  0  0  0  0  0
   39.9570   26.1520   38.1960 H   0  0  0  0  0  0  0  0  0  0  0  0
   42.2120   27.1660   38.4660 H   0  0  0  0  0  0  0  0  0  0  0  0
   42.4130   29.3800   39.5350 H   0  0  0  0  0  0  0  0  0  0  0  0
   38.5930   31.5740   39.4640 H   0  0  0  0  0  0  0  0  0  0  0  0
   37.1560   30.8830   38.6500 H   0  0  0  0  0  0  0  0  0  0  0  0
   37.3680   32.3070   41.2850 H   0  0  0  0  0  0  0  0  0  0  0  0
   36.3430   32.6470   39.8820 H   0  0  0  0  0  0  0  0  0  0  0  0
   34.7740   31.4290   41.0360 H   0  0  0  0  0  0  0  0  0  0  0  0
   35.5750   29.5430   39.7340 H   0  0  0  0  0  0  0  0  0  0  0  0
   34.8770   29.1780   41.3020 H   0  0  0  0  0  0  0  0  0  0  0  0
   37.0850   28.0030   40.9650 H   0  0  0  0  0  0  0  0  0  0  0  0
   37.5490   29.4070   42.5510 C   0  0  0  0  0  0  0  0  0  0  0  0
   36.7510   29.7230   43.2300 H   0  0  0  0  0  0  0  0  0  0  0  0
   38.3470   30.1600   42.5810 H   0  0  0  0  0  0  0  0  0  0  0  0
   38.1500   28.1340   43.0950 C   0  0  0  0  0  3  0  0  0  0  0  0
   39.4750   28.0000   43.1610 C   0  0  0  0  0  3  0  0  0  0  0  0
   40.1720   26.7970   43.6790 C   0  0  0  0  0  0  0  0  0  0  0  0
   41.2290   26.7460   43.3380 H   0  0  0  0  0  0  0  0  0  0  0  0
   40.2010   26.8380   44.7800 H   0  0  0  0  0  0  0  0  0  0  0  0
   39.4060   25.5600   43.2570 C   0  0  2  0  0  0  0  0  0  0  0  0
   40.1850   24.3190   42.9520 C   0  0  0  0  0  0  0  0  0  0  0  0
   39.4640   25.0960   41.8640 C   0  0  1  0  0  0  0  0  0  0  0  0
   38.4110   25.4310   43.7580 H   0  0  0  0  0  0  0  0  0  0  0  0
   41.2770   24.4090   43.0710 H   0  0  0  0  0  0  0  0  0  0  0  0
   39.7570   23.3190   43.1610 H   0  0  0  0  0  0  0  0  0  0  0  0
   40.1690   25.6280   41.1950 H   0  0  0  0  0  0  0  0  0  0  0  0
   38.2980   24.5590   41.2170 C   0  0  0  0  0  0  0  0  0  0  0  0
   36.9680   24.4510   41.4390 C   0  0  0  0  0  0  0  0  0  0  0  0
   36.6770   24.8940   42.3780 H   0  0  0  0  0  0  0  0  0  0  0  0
   36.1380   23.8500   40.5580 C   0  0  0  0  0  3  0  0  0  0  0  0
   36.7290   23.3260   39.3690 C   0  0  0  0  0  3  0  0  0  0  0  0
   38.5680   23.7410   39.5700 S   0  0  0  0  0  0  0  0  0  0  0  0
  1  2  2  0  0  0  0
  1  6  1  0  0  0  0
  2  3  1  0  0  0  0
  3 15  1  0  0  0  0
  3  4  2  0  0  0  0
  5  4  1  0  0  0  0
  5  7  1  0  0  0  0
  6  5  2  0  0  0  0
  7 12  1  0  0  0  0
  8  7  1  0  0  0  0
  8  9  1  0  0  0  0
  9 10  1  0  0  0  0
  9 18  1  0  0  0  0
 11 12  1  0  0  0  0
 11 10  1  0  0  0  0
 11 22  1  0  0  0  0
 12 23  1  6  0  0  0
 12 24  1  0  0  0  0
 13  1  1  0  0  0  0
 14  2  1  0  0  0  0
 16  8  1  0  0  0  0
 17  8  1  0  0  0  0
 19  9  1  0  0  0  0
 20 10  1  0  0  0  0
 21 11  1  0  0  0  0
 24 26  1  0  0  0  0
 24 27  1  0  0  0  0
 24 25  1  0  0  0  0
 27 28  2  0  0  0  0
 28 29  1  0  0  0  0
 29 31  1  0  0  0  0
 30 29  1  0  0  0  0
 32 29  1  0  0  0  0
 32 35  1  1  0  0  0
 33 36  1  0  0  0  0
 33 37  1  0  0  0  0
 33 32  1  0  0  0  0
 34 38  1  6  0  0  0
 34 33  1  0  0  0  0
 34 32  1  0  0  0  0
 39 40  2  0  0  0  0
 39 34  1  0  0  0  0
 40 41  1  0  0  0  0
 42 40  1  0  0  0  0
 43 44  1  0  0  0  0
 43 42  2  0  0  0  0
 44 39  1  0  0  0  0
M  END
>  <minimizedAffinity>
-5.47464466

$$$$

 OpenBabel03242517333D

 44 47  0  0  1  0  0  0  0  0999 V2000
   39.6080   28.6850   37.2480 C   0  0  0  0  0  0  0  0  0  0  0  0
   40.9540   28.3850   36.8960 C   0  0  0  0  0  0  0  0  0  0  0  0
   41.9580   29.2150   37.3770 C   0  0  0  0  0  0  0  0  0  0  0  0
   41.5890   30.2610   38.1540 N   0  0  0  0  0  0  0  0  0  0  0  0
   40.3340   30.5460   38.4850 C   0  0  0  0  0  0  0  0  0  0  0  0
   39.3880   29.7410   38.0150 N   0  0  0  0  0  0  0  0  0  0  0  0
   40.0540   31.6420   39.2880 N   0  0  0  0  0  0  0  0  0  0  0  0
   40.4540   32.9700   38.8790 C   0  0  0  0  0  0  0  0  0  0  0  0
   40.4840   33.9620   39.9990 C   0  0  0  0  0  0  0  0  0  0  0  0
   39.5060   33.7890   41.0220 N   0  0  0  0  0  0  0  0  0  0  0  0
   38.5820   32.7160   40.7420 C   0  0  0  0  0  0  0  0  0  0  0  0
   39.3400   31.4410   40.5670 C   0  0  2  0  0  0  0  0  0  0  0  0
   38.8510   28.0310   36.8640 H   0  0  0  0  0  0  0  0  0  0  0  0
   41.2150   27.5390   36.2710 H   0  0  0  0  0  0  0  0  0  0  0  0
   42.9990   29.0120   37.1270 H   0  0  0  0  0  0  0  0  0  0  0  0
   41.4160   32.9320   38.3700 H   0  0  0  0  0  0  0  0  0  0  0  0
   39.6850   33.3300   38.1510 H   0  0  0  0  0  0  0  0  0  0  0  0
   41.4940   33.8640   40.4860 H   0  0  0  0  0  0  0  0  0  0  0  0
   40.4960   34.9750   39.5370 H   0  0  0  0  0  0  0  0  0  0  0  0
   38.9630   34.6510   41.2160 H   0  0  0  0  0  0  0  0  0  0  0  0
   38.0490   32.9260   39.7730 H   0  0  0  0  0  0  0  0  0  0  0  0
   37.7970   32.7240   41.4970 H   0  0  0  0  0  0  0  0  0  0  0  0
   38.6500   30.6060   40.4240 H   0  0  0  0  0  0  0  0  0  0  0  0
   40.3120   31.1810   41.6910 C   0  0  0  0  0  0  0  0  0  0  0  0
   40.7890   32.0800   42.0930 H   0  0  0  0  0  0  0  0  0  0  0  0
   41.0980   30.4590   41.4320 H   0  0  0  0  0  0  0  0  0  0  0  0
   39.5050   30.5450   42.7960 C   0  0  0  0  0  3  0  0  0  0  0  0
   38.6640   29.5490   42.5170 C   0  0  0  0  0  3  0  0  0  0  0  0
   37.8250   28.8510   43.5240 C   0  0  0  0  0  0  0  0  0  0  0  0
   37.9950   29.2400   44.5520 H   0  0  0  0  0  0  0  0  0  0  0  0
   36.7610   29.0260   43.2970 H   0  0  0  0  0  0  0  0  0  0  0  0
   38.1010   27.3630   43.4530 C   0  0  2  0  0  0  0  0  0  0  0  0
   39.5050   26.8960   43.6800 C   0  0  0  0  0  0  0  0  0  0  0  0
   38.8440   26.8040   42.3150 C   0  0  1  0  0  0  0  0  0  0  0  0
   37.2750   26.7140   43.8440 H   0  0  0  0  0  0  0  0  0  0  0  0
   40.2360   27.6940   43.8920 H   0  0  0  0  0  0  0  0  0  0  0  0
   39.7030   25.9180   44.1590 H   0  0  0  0  0  0  0  0  0  0  0  0
   39.2680   27.5320   41.5960 H   0  0  0  0  0  0  0  0  0  0  0  0
   38.4800   25.5330   41.7500 C   0  0  0  0  0  0  0  0  0  0  0  0
   37.4860   24.6210   41.8500 C   0  0  0  0  0  0  0  0  0  0  0  0
   36.7330   24.9190   42.5610 H   0  0  0  0  0  0  0  0  0  0  0  0
   37.4800   23.4820   41.1220 C   0  0  0  0  0  3  0  0  0  0  0  0
   38.5780   23.2770   40.2340 C   0  0  0  0  0  3  0  0  0  0  0  0
   39.6460   24.8220   40.4900 S   0  0  0  0  0  0  0  0  0  0  0  0
  1  6  1  0  0  0  0
  2  1  2  0  0  0  0
  2  3  1  0  0  0  0
  3  4  2  0  0  0  0
  4  5  1  0  0  0  0
  5  7  1  0  0  0  0
  6  5  2  0  0  0  0
  7 12  1  0  0  0  0
  8  7  1  0  0  0  0
  8  9  1  0  0  0  0
  9 18  1  0  0  0  0
  9 10  1  0  0  0  0
 10 20  1  0  0  0  0
 11 10  1  0  0  0  0
 11 22  1  0  0  0  0
 12 23  1  6  0  0  0
 12 11  1  0  0  0  0
 12 24  1  0  0  0  0
 13  1  1  0  0  0  0
 14  2  1  0  0  0  0
 15  3  1  0  0  0  0
 16  8  1  0  0  0  0
 17  8  1  0  0  0  0
 19  9  1  0  0  0  0
 21 11  1  0  0  0  0
 24 25  1  0  0  0  0
 24 27  1  0  0  0  0
 26 24  1  0  0  0  0
 28 27  2  0  0  0  0
 28 29  1  0  0  0  0
 29 30  1  0  0  0  0
 31 29  1  0  0  0  0
 32 29  1  0  0  0  0
 32 33  1  0  0  0  0
 32 35  1  1  0  0  0
 33 36  1  0  0  0  0
 33 37  1  0  0  0  0
 34 38  1  6  0  0  0
 34 32  1  0  0  0  0
 34 33  1  0  0  0  0
 39 40  2  0  0  0  0
 39 34  1  0  0  0  0
 40 41  1  0  0  0  0
 42 40  1  0  0  0  0
 43 44  1  0  0  0  0
 43 42  2  0  0  0  0
 44 39  1  0  0  0  0
M  END
>  <minimizedAffinity>
-5.42501354

$$$$

 OpenBabel03242517333D

 44 47  0  0  1  0  0  0  0  0999 V2000
   35.7990   28.6000   39.3360 C   0  0  0  0  0  0  0  0  0  0  0  0
   36.4510   27.4390   38.8340 C   0  0  0  0  0  0  0  0  0  0  0  0
   37.7980   27.5320   38.5070 C   0  0  0  0  0  0  0  0  0  0  0  0
   38.4060   28.7290   38.6890 N   0  0  0  0  0  0  0  0  0  0  0  0
   37.8020   29.8160   39.1570 C   0  0  0  0  0  0  0  0  0  0  0  0
   36.5140   29.7070   39.4630 N   0  0  0  0  0  0  0  0  0  0  0  0
   38.5100   31.0000   39.3090 N   0  0  0  0  0  0  0  0  0  0  0  0
   39.1630   31.6120   38.1730 C   0  0  0  0  0  0  0  0  0  0  0  0
   40.2180   32.6040   38.5480 C   0  0  0  0  0  0  0  0  0  0  0  0
   39.9830   33.3580   39.7350 N   0  0  0  0  0  0  0  0  0  0  0  0
   38.6950   33.0870   40.3280 C   0  0  0  0  0  0  0  0  0  0  0  0
   38.5900   31.6310   40.6430 C   0  0  2  0  0  0  0  0  0  0  0  0
   34.7600   28.5030   39.5800 H   0  0  0  0  0  0  0  0  0  0  0  0
   35.9350   26.4960   38.7000 H   0  0  0  0  0  0  0  0  0  0  0  0
   38.3270   26.6610   38.1220 H   0  0  0  0  0  0  0  0  0  0  0  0
   39.5680   30.8450   37.5150 H   0  0  0  0  0  0  0  0  0  0  0  0
   38.3760   32.1760   37.6120 H   0  0  0  0  0  0  0  0  0  0  0  0
   41.1650   32.0170   38.7100 H   0  0  0  0  0  0  0  0  0  0  0  0
   40.4250   33.2190   37.6430 H   0  0  0  0  0  0  0  0  0  0  0  0
   40.0730   34.3810   39.5920 H   0  0  0  0  0  0  0  0  0  0  0  0
   37.8850   33.3310   39.5870 H   0  0  0  0  0  0  0  0  0  0  0  0
   38.5360   33.7830   41.1520 H   0  0  0  0  0  0  0  0  0  0  0  0
   37.6480   31.4210   41.1570 H   0  0  0  0  0  0  0  0  0  0  0  0
   39.7790   31.1120   41.4140 C   0  0  0  0  0  0  0  0  0  0  0  0
   40.4830   31.8880   41.7320 H   0  0  0  0  0  0  0  0  0  0  0  0
   40.3400   30.3330   40.8810 H   0  0  0  0  0  0  0  0  0  0  0  0
   39.2160   30.4550   42.6500 C   0  0  0  0  0  3  0  0  0  0  0  0
   38.2770   29.5150   42.5340 C   0  0  0  0  0  3  0  0  0  0  0  0
   37.6570   28.8030   43.6800 C   0  0  0  0  0  0  0  0  0  0  0  0
   38.0490   29.1610   44.6570 H   0  0  0  0  0  0  0  0  0  0  0  0
   36.5730   29.0000   43.6880 H   0  0  0  0  0  0  0  0  0  0  0  0
   37.8820   27.3140   43.5180 C   0  0  2  0  0  0  0  0  0  0  0  0
   39.2770   26.7920   43.6670 C   0  0  0  0  0  0  0  0  0  0  0  0
   38.5660   26.7970   42.3240 C   0  0  1  0  0  0  0  0  0  0  0  0
   37.0500   26.6690   43.9020 H   0  0  0  0  0  0  0  0  0  0  0  0
   40.0410   27.5540   43.8950 H   0  0  0  0  0  0  0  0  0  0  0  0
   39.4600   25.7820   44.0840 H   0  0  0  0  0  0  0  0  0  0  0  0
   38.9890   27.5500   41.6310 H   0  0  0  0  0  0  0  0  0  0  0  0
   38.1420   25.5710   41.7040 C   0  0  0  0  0  0  0  0  0  0  0  0
   37.0260   24.8110   41.6080 C   0  0  0  0  0  0  0  0  0  0  0  0
   36.1990   25.2350   42.1520 H   0  0  0  0  0  0  0  0  0  0  0  0
   37.0000   23.6600   40.8990 C   0  0  0  0  0  3  0  0  0  0  0  0
   38.2110   23.2740   40.2500 C   0  0  0  0  0  3  0  0  0  0  0  0
   39.4190   24.6620   40.7070 S   0  0  0  0  0  0  0  0  0  0  0  0
  1  6  1  0  0  0  0
  1 13  1  0  0  0  0
  2  1  2  0  0  0  0
  3  4  2  0  0  0  0
  3  2  1  0  0  0  0
  4  5  1  0  0  0  0
  5  7  1  0  0  0  0
  5  6  2  0  0  0  0
  7 12  1  0  0  0  0
  8  9  1  0  0  0  0
  8  7  1  0  0  0  0
  9 18  1  0  0  0  0
  9 10  1  0  0  0  0
 10 11  1  0  0  0  0
 11 12  1  0  0  0  0
 11 22  1  0  0  0  0
 12 23  1  1  0  0  0
 12 24  1  0  0  0  0
 14  2  1  0  0  0  0
 15  3  1  0  0  0  0
 16  8  1  0  0  0  0
 17  8  1  0  0  0  0
 19  9  1  0  0  0  0
 20 10  1  0  0  0  0
 21 11  1  0  0  0  0
 24 25  1  0  0  0  0
 24 27  1  0  0  0  0
 26 24  1  0  0  0  0
 28 27  2  0  0  0  0
 28 29  1  0  0  0  0
 29 31  1  0  0  0  0
 29 30  1  0  0  0  0
 32 33  1  0  0  0  0
 32 29  1  0  0  0  0
 32 35  1  1  0  0  0
 33 36  1  0  0  0  0
 33 37  1  0  0  0  0
 34 38  1  6  0  0  0
 34 32  1  0  0  0  0
 34 33  1  0  0  0  0
 39 34  1  0  0  0  0
 40 39  2  0  0  0  0
 40 41  1  0  0  0  0
 42 40  1  0  0  0  0
 43 44  1  0  0  0  0
 43 42  2  0  0  0  0
 44 39  1  0  0  0  0
M  END
>  <minimizedAffinity>
-5.33372355

$$$$

 OpenBabel03242517333D

 44 47  0  0  1  0  0  0  0  0999 V2000
   37.9990   24.4690   39.8880 C   0  0  0  0  0  0  0  0  0  0  0  0
   37.3520   23.6990   40.8950 C   0  0  0  0  0  0  0  0  0  0  0  0
   36.9550   24.3420   42.0590 C   0  0  0  0  0  0  0  0  0  0  0  0
   37.2100   25.6680   42.1610 N   0  0  0  0  0  0  0  0  0  0  0  0
   37.8140   26.3920   41.2250 C   0  0  0  0  0  0  0  0  0  0  0  0
   38.1870   25.7580   40.1190 N   0  0  0  0  0  0  0  0  0  0  0  0
   38.0330   27.7480   41.4200 N   0  0  0  0  0  0  0  0  0  0  0  0
   38.8060   28.2090   42.5520 C   0  0  0  0  0  0  0  0  0  0  0  0
   38.5970   29.6540   42.8770 C   0  0  0  0  0  0  0  0  0  0  0  0
   38.3550   30.5210   41.7710 N   0  0  0  0  0  0  0  0  0  0  0  0
   38.4470   29.8480   40.4980 C   0  0  0  0  0  0  0  0  0  0  0  0
   37.4680   28.7200   40.4610 C   0  0  2  0  0  0  0  0  0  0  0  0
   38.2970   23.9490   38.9990 H   0  0  0  0  0  0  0  0  0  0  0  0
   37.1630   22.6370   40.7810 H   0  0  0  0  0  0  0  0  0  0  0  0
   36.4560   23.7810   42.8490 H   0  0  0  0  0  0  0  0  0  0  0  0
   38.6070   27.5830   43.4220 H   0  0  0  0  0  0  0  0  0  0  0  0
   39.8840   28.0940   42.2760 H   0  0  0  0  0  0  0  0  0  0  0  0
   37.6900   29.7040   43.5430 H   0  0  0  0  0  0  0  0  0  0  0  0
   39.4400   29.9670   43.5340 H   0  0  0  0  0  0  0  0  0  0  0  0
   38.9830   31.3460   41.7560 H   0  0  0  0  0  0  0  0  0  0  0  0
   39.4750   29.4050   40.3830 H   0  0  0  0  0  0  0  0  0  0  0  0
   38.3750   30.5910   39.7030 H   0  0  0  0  0  0  0  0  0  0  0  0
   37.4760   28.2430   39.4760 H   0  0  0  0  0  0  0  0  0  0  0  0
   36.0790   29.1390   40.8720 C   0  0  0  0  0  0  0  0  0  0  0  0
   36.0020   30.1760   41.2130 H   0  0  0  0  0  0  0  0  0  0  0  0
   35.6340   28.4890   41.6370 H   0  0  0  0  0  0  0  0  0  0  0  0
   35.2200   28.9870   39.6410 C   0  0  0  0  0  3  0  0  0  0  0  0
   35.7530   29.1630   38.4310 C   0  0  0  0  0  3  0  0  0  0  0  0
   35.0040   29.0360   37.1560 C   0  0  0  0  0  0  0  0  0  0  0  0
   35.1820   29.8990   36.4780 H   0  0  0  0  0  0  0  0  0  0  0  0
   35.3490   28.1400   36.6170 H   0  0  0  0  0  0  0  0  0  0  0  0
   33.5280   28.8830   37.4620 C   0  0  2  0  0  0  0  0  0  0  0  0
   32.7150   27.9890   36.5790 C   0  0  0  0  0  0  0  0  0  0  0  0
   32.5240   29.4970   36.5810 C   0  0  1  0  0  0  0  0  0  0  0  0
   33.2710   28.8970   38.5540 H   0  0  0  0  0  0  0  0  0  0  0  0
   33.2740   27.5000   35.7650 H   0  0  0  0  0  0  0  0  0  0  0  0
   31.8580   27.4190   36.9890 H   0  0  0  0  0  0  0  0  0  0  0  0
   32.9030   29.9660   35.6520 H   0  0  0  0  0  0  0  0  0  0  0  0
   31.3340   30.0940   37.1230 C   0  0  0  0  0  0  0  0  0  0  0  0
   30.5590   29.9990   38.2280 C   0  0  0  0  0  0  0  0  0  0  0  0
   30.9290   29.2610   38.9200 H   0  0  0  0  0  0  0  0  0  0  0  0
   29.4580   30.7650   38.4010 C   0  0  0  0  0  3  0  0  0  0  0  0
   29.1420   31.6870   37.3580 C   0  0  0  0  0  3  0  0  0  0  0  0
   30.5210   31.4050   36.0880 S   0  0  0  0  0  0  0  0  0  0  0  0
  1  6  2  0  0  0  0
  1  2  1  0  0  0  0
  2  3  2  0  0  0  0
  3  4  1  0  0  0  0
  3 15  1  0  0  0  0
  5  7  1  0  0  0  0
  5  4  2  0  0  0  0
  6  5  1  0  0  0  0
  7  8  1  0  0  0  0
  8  9  1  0  0  0  0
  8 16  1  0  0  0  0
  9 19  1  0  0  0  0
  9 18  1  0  0  0  0
 10  9  1  0  0  0  0
 11 10  1  0  0  0  0
 12 23  1  6  0  0  0
 12 11  1  0  0  0  0
 12 24  1  0  0  0  0
 12  7  1  0  0  0  0
 13  1  1  0  0  0  0
 14  2  1  0  0  0  0
 17  8  1  0  0  0  0
 20 10  1  0  0  0  0
 21 11  1  0  0  0  0
 22 11  1  0  0  0  0
 24 25  1  0  0  0  0
 24 26  1  0  0  0  0
 27 24  1  0  0  0  0
 28 27  2  0  0  0  0
 29 32  1  0  0  0  0
 29 28  1  0  0  0  0
 30 29  1  0  0  0  0
 31 29  1  0  0  0  0
 32 35  1  1  0  0  0
 33 34  1  0  0  0  0
 33 37  1  0  0  0  0
 33 32  1  0  0  0  0
 34 38  1  6  0  0  0
 34 39  1  0  0  0  0
 34 32  1  0  0  0  0
 36 33  1  0  0  0  0
 39 40  2  0  0  0  0
 40 42  1  0  0  0  0
 40 41  1  0  0  0  0
 43 42  2  0  0  0  0
 44 39  1  0  0  0  0
 44 43  1  0  0  0  0
M  END
>  <minimizedAffinity>
-5.31630611

$$$$

 OpenBabel03242517333D

 44 47  0  0  1  0  0  0  0  0999 V2000
   38.6350   28.7980   37.1750 C   0  0  0  0  0  0  0  0  0  0  0  0
   39.8790   28.1600   36.9080 C   0  0  0  0  0  0  0  0  0  0  0  0
   41.0230   28.6790   37.5000 C   0  0  0  0  0  0  0  0  0  0  0  0
   40.8790   29.7650   38.2970 N   0  0  0  0  0  0  0  0  0  0  0  0
   39.7210   30.3650   38.5480 C   0  0  0  0  0  0  0  0  0  0  0  0
   38.6390   29.8540   37.9730 N   0  0  0  0  0  0  0  0  0  0  0  0
   39.6740   31.4750   39.3800 N   0  0  0  0  0  0  0  0  0  0  0  0
   40.4430   32.6580   39.0640 C   0  0  0  0  0  0  0  0  0  0  0  0
   40.6400   33.5770   40.2290 C   0  0  0  0  0  0  0  0  0  0  0  0
   39.5690   33.6440   41.1680 N   0  0  0  0  0  0  0  0  0  0  0  0
   38.4220   32.8640   40.7710 C   0  0  0  0  0  0  0  0  0  0  0  0
   38.8290   31.4380   40.5920 C   0  0  2  0  0  0  0  0  0  0  0  0
   37.7670   28.3790   36.7060 H   0  0  0  0  0  0  0  0  0  0  0  0
   39.9590   27.2910   36.2650 H   0  0  0  0  0  0  0  0  0  0  0  0
   41.9910   28.2130   37.3170 H   0  0  0  0  0  0  0  0  0  0  0  0
   41.3990   32.3780   38.6250 H   0  0  0  0  0  0  0  0  0  0  0  0
   39.8590   33.2290   38.2990 H   0  0  0  0  0  0  0  0  0  0  0  0
   41.5450   33.2000   40.7830 H   0  0  0  0  0  0  0  0  0  0  0  0
   40.9570   34.5620   39.8180 H   0  0  0  0  0  0  0  0  0  0  0  0
   39.2590   34.6140   41.3630 H   0  0  0  0  0  0  0  0  0  0  0  0
   38.0450   33.2330   39.7770 H   0  0  0  0  0  0  0  0  0  0  0  0
   37.6060   33.0610   41.4670 H   0  0  0  0  0  0  0  0  0  0  0  0
   37.9570   30.8210   40.3590 H   0  0  0  0  0  0  0  0  0  0  0  0
   39.6010   30.8980   41.7710 C   0  0  0  0  0  0  0  0  0  0  0  0
   39.9030   31.6580   42.4980 H   0  0  0  0  0  0  0  0  0  0  0  0
   40.4900   30.3210   41.4850 H   0  0  0  0  0  0  0  0  0  0  0  0
   38.6750   29.9290   42.4630 C   0  0  0  0  0  3  0  0  0  0  0  0
   39.1190   28.7230   42.8180 C   0  0  0  0  0  3  0  0  0  0  0  0
   38.2980   27.6940   43.5040 C   0  0  0  0  0  0  0  0  0  0  0  0
   38.9090   26.8290   43.8440 H   0  0  0  0  0  0  0  0  0  0  0  0
   37.8470   28.1320   44.4090 H   0  0  0  0  0  0  0  0  0  0  0  0
   37.1900   27.2440   42.5750 C   0  0  2  0  0  0  0  0  0  0  0  0
   37.0650   25.7810   42.2840 C   0  0  0  0  0  0  0  0  0  0  0  0
   37.5100   26.7700   41.2200 C   0  0  1  0  0  0  0  0  0  0  0  0
   36.2400   27.8330   42.6570 H   0  0  0  0  0  0  0  0  0  0  0  0
   37.8040   25.1380   42.7900 H   0  0  0  0  0  0  0  0  0  0  0  0
   36.0730   25.3250   42.0990 H   0  0  0  0  0  0  0  0  0  0  0  0
   38.5850   26.6640   40.9750 H   0  0  0  0  0  0  0  0  0  0  0  0
   36.6610   27.0940   40.1060 C   0  0  0  0  0  0  0  0  0  0  0  0
   36.2730   26.5510   38.9290 C   0  0  0  0  0  0  0  0  0  0  0  0
   36.7260   25.5880   38.7590 H   0  0  0  0  0  0  0  0  0  0  0  0
   35.4130   27.1800   38.0960 C   0  0  0  0  0  3  0  0  0  0  0  0
   34.9270   28.4550   38.5130 C   0  0  0  0  0  3  0  0  0  0  0  0
   35.7710   28.7230   40.1890 S   0  0  0  0  0  0  0  0  0  0  0  0
  1  6  1  0  0  0  0
  2  1  2  0  0  0  0
  2  3  1  0  0  0  0
  3  4  2  0  0  0  0
  4  5  1  0  0  0  0
  5  7  1  0  0  0  0
  6  5  2  0  0  0  0
  7 12  1  0  0  0  0
  8  7  1  0  0  0  0
  8  9  1  0  0  0  0
  9 18  1  0  0  0  0
  9 10  1  0  0  0  0
 10 20  1  0  0  0  0
 11 10  1  0  0  0  0
 11 22  1  0  0  0  0
 12 23  1  6  0  0  0
 12 11  1  0  0  0  0
 12 24  1  0  0  0  0
 13  1  1  0  0  0  0
 14  2  1  0  0  0  0
 15  3  1  0  0  0  0
 16  8  1  0  0  0  0
 17  8  1  0  0  0  0
 19  9  1  0  0  0  0
 21 11  1  0  0  0  0
 24 27  1  0  0  0  0
 24 25  1  0  0  0  0
 26 24  1  0  0  0  0
 27 28  2  0  0  0  0
 28 29  1  0  0  0  0
 29 30  1  0  0  0  0
 29 31  1  0  0  0  0
 32 35  1  1  0  0  0
 32 29  1  0  0  0  0
 33 32  1  0  0  0  0
 33 36  1  0  0  0  0
 34 38  1  6  0  0  0
 34 33  1  0  0  0  0
 34 32  1  0  0  0  0
 37 33  1  0  0  0  0
 39 44  1  0  0  0  0
 39 34  1  0  0  0  0
 40 39  2  0  0  0  0
 41 40  1  0  0  0  0
 42 43  2  0  0  0  0
 42 40  1  0  0  0  0
 43 44  1  0  0  0  0
M  END
>  <minimizedAffinity>
-5.28624344

$$$$
