
 OpenBabel03252508173D

 44 48  0  0  1  0  0  0  0  0999 V2000
   47.2070   31.1510   46.9390 C   0  0  0  0  0  0  0  0  0  0  0  0
   48.1890   30.7830   46.6870 H   0  0  0  0  0  0  0  0  0  0  0  0
   46.4170   30.3600   46.8100 H   0  0  0  0  0  0  0  0  0  0  0  0
   47.0120   31.7620   48.2850 C   0  0  1  0  0  0  0  0  0  0  0  0
   46.2650   30.9120   49.2560 C   0  0  0  0  0  0  0  0  0  0  0  0
   47.6860   31.1880   49.4670 C   0  0  1  0  0  0  0  0  0  0  0  0
   46.5450   32.7920   48.2820 H   0  0  0  0  0  0  0  0  0  0  0  0
   45.5480   31.3030   49.9770 H   0  0  0  0  0  0  0  0  0  0  0  0
   46.0390   29.8510   48.9740 H   0  0  0  0  0  0  0  0  0  0  0  0
   47.9440   31.9320   50.2490 H   0  0  0  0  0  0  0  0  0  0  0  0
   48.7270   30.1380   49.2390 C   0  0  2  0  0  0  0  0  0  0  0  0
   49.7620   30.0140   50.3810 C   0  0  0  0  0  0  0  0  0  0  0  0
   50.1750   30.5950   49.0910 C   0  0  1  0  0  0  0  0  0  0  0  0
   48.4400   29.1380   48.8990 H   0  0  0  0  0  0  0  0  0  0  0  0
   49.6270   30.6590   51.2500 H   0  0  0  0  0  0  0  0  0  0  0  0
   50.2050   29.0440   50.6220 H   0  0  0  0  0  0  0  0  0  0  0  0
   50.3590   31.6890   49.1270 H   0  0  0  0  0  0  0  0  0  0  0  0
   50.8590   29.8920   48.0510 C   0  0  0  0  0  0  0  0  0  0  0  0
   50.4560   29.1300   47.0510 C   0  0  0  0  0  0  0  0  0  0  0  0
   49.4240   28.9090   46.8100 H   0  0  0  0  0  0  0  0  0  0  0  0
   51.2960   28.5240   46.1610 C   0  0  0  0  0  3  0  0  0  0  0  0
   52.6760   28.7580   46.3670 C   0  0  0  0  0  3  0  0  0  0  0  0
   52.7400   29.9000   47.9100 S   0  0  0  0  0  0  0  0  0  0  0  0
   46.1230   33.1000   46.1740 C   0  0  0  0  0  3  0  0  0  0  0  0
   46.8970   32.1520   45.8490 C   0  0  0  0  0  3  0  0  0  0  0  0
   44.5250   35.8910   44.3720 C   0  0  0  0  0  0  0  0  0  0  0  0
   45.1530   35.8660   43.1340 C   0  0  0  0  0  0  0  0  0  0  0  0
   46.0940   34.9000   42.9560 C   0  0  0  0  0  0  0  0  0  0  0  0
   46.3780   34.0240   43.9600 N   0  0  0  0  0  0  0  0  0  0  0  0
   45.7480   34.0780   45.1490 C   0  0  0  0  0  0  0  0  0  0  0  0
   44.8320   35.0160   45.3250 N   0  0  0  0  0  0  0  0  0  0  0  0
   43.7660   36.6220   44.6050 H   0  0  0  0  0  0  0  0  0  0  0  0
   44.9100   36.5710   42.3590 H   0  0  0  0  0  0  0  0  0  0  0  0
   46.8350   34.7500   41.7070 C   0  0  0  0  0  0  0  0  0  0  0  0
   48.0530   35.3440   41.4540 C   0  0  0  0  0  0  0  0  0  0  0  0
   48.7390   35.1870   40.2650 C   0  0  0  0  0  0  0  0  0  0  0  0
   48.2140   34.4110   39.2640 C   0  0  0  0  0  0  0  0  0  0  0  0
   47.0050   33.8000   39.4690 C   0  0  0  0  0  0  0  0  0  0  0  0
   46.3460   33.9800   40.6740 C   0  0  0  0  0  0  0  0  0  0  0  0
   48.4800   35.9640   42.2410 H   0  0  0  0  0  0  0  0  0  0  0  0
   49.6770   35.6890   40.1690 H   0  0  0  0  0  0  0  0  0  0  0  0
   48.7220   34.2650   38.3240 H   0  0  0  0  0  0  0  0  0  0  0  0
   46.5460   33.1780   38.7130 H   0  0  0  0  0  0  0  0  0  0  0  0
   45.3900   33.4810   40.8010 H   0  0  0  0  0  0  0  0  0  0  0  0
  1  4  1  0  0  0  0
  2  1  1  0  0  0  0
  3  1  1  0  0  0  0
  4  7  1  1  0  0  0
  4  5  1  0  0  0  0
  4  6  1  0  0  0  0
  5  6  1  0  0  0  0
  5  8  1  0  0  0  0
  6 10  1  1  0  0  0
  9  5  1  0  0  0  0
 11 14  1  6  0  0  0
 11  6  1  0  0  0  0
 11 12  1  0  0  0  0
 12 16  1  0  0  0  0
 12 15  1  0  0  0  0
 13 17  1  1  0  0  0
 13 11  1  0  0  0  0
 13 12  1  0  0  0  0
 18 13  1  0  0  0  0
 19 18  2  0  0  0  0
 20 19  1  0  0  0  0
 21 22  2  0  0  0  0
 21 19  1  0  0  0  0
 22 23  1  0  0  0  0
 23 18  1  0  0  0  0
 25 24  2  0  0  0  0
 25  1  1  0  0  0  0
 26 32  1  0  0  0  0
 26 31  1  0  0  0  0
 27 26  2  0  0  0  0
 28 27  1  0  0  0  0
 28 29  2  0  0  0  0
 29 30  1  0  0  0  0
 30 31  2  0  0  0  0
 30 24  1  0  0  0  0
 33 27  1  0  0  0  0
 34 28  1  0  0  0  0
 35 34  1  0  0  0  0
 35 40  1  0  0  0  0
 36 35  2  0  0  0  0
 37 38  2  0  0  0  0
 37 36  1  0  0  0  0
 38 39  1  0  0  0  0
 39 44  1  0  0  0  0
 39 34  2  0  0  0  0
 41 36  1  0  0  0  0
 42 37  1  0  0  0  0
 43 38  1  0  0  0  0
M  END
>  <minimizedAffinity>
-6.15024567

>  <minimizedRMSD>
1.1700424

$$$$
