
 OpenBabel03252507043D

 44 47  0  0  0  0  0  0  0  0999 V2000
   41.9880   32.7280   41.9910 C   0  0  0  0  0  0  0  0  0  0  0  0
   41.6710   32.4400   43.0150 H   0  0  0  0  0  0  0  0  0  0  0  0
   42.1050   33.8640   42.0630 H   0  0  0  0  0  0  0  0  0  0  0  0
   41.1250   32.3470   41.0410 N   0  0  0  0  0  0  0  0  0  0  0  0
   40.4540   31.0870   40.9430 C   0  0  0  0  0  0  0  0  0  0  0  0
   39.0580   31.5330   41.3860 C   0  0  0  0  0  0  0  0  0  0  0  0
   38.4720   32.5510   40.5320 C   0  0  0  0  0  0  0  0  0  0  0  0
   39.3450   33.4150   39.7690 C   0  0  0  0  0  0  0  0  0  0  0  0
   40.8310   33.3670   40.0140 C   0  0  0  0  0  0  0  0  0  0  0  0
   40.8570   30.4100   41.7320 H   0  0  0  0  0  0  0  0  0  0  0  0
   40.4260   30.5820   39.9940 H   0  0  0  0  0  0  0  0  0  0  0  0
   39.2070   31.9480   42.4160 H   0  0  0  0  0  0  0  0  0  0  0  0
   38.4380   30.6240   41.5120 H   0  0  0  0  0  0  0  0  0  0  0  0
   37.7720   32.0570   39.8010 H   0  0  0  0  0  0  0  0  0  0  0  0
   37.7830   33.2030   41.1450 H   0  0  0  0  0  0  0  0  0  0  0  0
   39.0360   34.1120   39.0500 H   0  0  0  0  0  0  0  0  0  0  0  0
   41.9750   34.3850   39.2240 S   0  0  0  0  0  0  0  0  0  0  0  0
   41.4360   35.4310   38.0390 C   0  0  0  0  0  0  0  0  0  0  0  0
   40.5020   36.1350   37.3190 C   0  0  0  0  0  0  0  0  0  0  0  0
   39.5480   35.9120   37.7240 H   0  0  0  0  0  0  0  0  0  0  0  0
   40.8010   36.9550   36.2850 C   0  0  0  0  0  3  0  0  0  0  0  0
   42.2320   37.0760   35.9410 C   0  0  0  0  0  3  0  0  0  0  0  0
   42.9930   35.9180   37.2350 S   0  0  0  0  0  0  0  0  0  0  0  0
   43.3720   32.2350   41.7720 C   0  0  0  0  0  0  0  0  0  0  0  0
   43.5350   31.7840   40.7730 H   0  0  0  0  0  0  0  0  0  0  0  0
   43.5570   31.4160   42.4980 H   0  0  0  0  0  0  0  0  0  0  0  0
   44.3070   33.3340   42.0730 C   0  0  0  0  0  0  0  0  0  0  0  0
   43.8340   34.5940   42.3690 C   0  0  0  0  0  0  0  0  0  0  0  0
   44.7560   35.5940   42.6330 C   0  0  0  0  0  0  0  0  0  0  0  0
   46.0890   35.2790   42.5900 N   0  0  0  0  0  0  0  0  0  0  0  0
   46.5030   34.0500   42.3020 C   0  0  0  0  0  0  0  0  0  0  0  0
   45.5990   33.1010   42.0490 N   0  0  0  0  0  0  0  0  0  0  0  0
   42.8550   35.0280   42.4670 H   0  0  0  0  0  0  0  0  0  0  0  0
   44.5770   36.6360   42.8800 H   0  0  0  0  0  0  0  0  0  0  0  0
   47.9440   33.7970   42.3050 C   0  0  0  0  0  0  0  0  0  0  0  0
   48.4260   32.5060   42.1400 C   0  0  0  0  0  0  0  0  0  0  0  0
   49.7960   32.2810   42.1570 C   0  0  0  0  0  0  0  0  0  0  0  0
   50.5650   33.4130   42.3440 C   0  0  0  0  0  0  0  0  0  0  0  0
   50.1150   34.7090   42.5110 C   0  0  0  0  0  0  0  0  0  0  0  0
   48.7670   34.8420   42.4810 N   0  0  0  0  0  0  0  0  0  0  0  0
   47.7690   31.6580   41.9950 H   0  0  0  0  0  0  0  0  0  0  0  0
   50.2610   31.3130   42.0360 H   0  0  0  0  0  0  0  0  0  0  0  0
   51.6460   33.2770   42.3650 H   0  0  0  0  0  0  0  0  0  0  0  0
   50.7840   35.5230   42.6500 H   0  0  0  0  0  0  0  0  0  0  0  0
  1  3  1  0  0  0  0
  1  2  1  0  0  0  0
  4  1  1  0  0  0  0
  5  4  1  0  0  0  0
  5  6  1  0  0  0  0
  5 10  1  0  0  0  0
  6 13  1  0  0  0  0
  6 12  1  0  0  0  0
  7 15  1  0  0  0  0
  7  6  1  0  0  0  0
  8  9  2  0  0  0  0
  8  7  1  0  0  0  0
  9  4  1  0  0  0  0
 11  5  1  0  0  0  0
 14  7  1  0  0  0  0
 16  8  1  0  0  0  0
 17  9  1  0  0  0  0
 18 17  1  0  0  0  0
 19 20  1  0  0  0  0
 19 18  2  0  0  0  0
 21 19  1  0  0  0  0
 22 21  2  0  0  0  0
 22 23  1  0  0  0  0
 23 18  1  0  0  0  0
 24  1  1  0  0  0  0
 24 27  1  0  0  0  0
 24 26  1  0  0  0  0
 25 24  1  0  0  0  0
 27 28  1  0  0  0  0
 28 33  1  0  0  0  0
 28 29  2  0  0  0  0
 29 34  1  0  0  0  0
 30 29  1  0  0  0  0
 31 35  1  0  0  0  0
 31 30  2  0  0  0  0
 32 27  2  0  0  0  0
 32 31  1  0  0  0  0
 35 40  1  0  0  0  0
 36 37  1  0  0  0  0
 36 35  2  0  0  0  0
 37 38  2  0  0  0  0
 38 43  1  0  0  0  0
 38 39  1  0  0  0  0
 39 44  1  0  0  0  0
 40 39  2  0  0  0  0
 41 36  1  0  0  0  0
 42 37  1  0  0  0  0
M  END
>  <minimizedAffinity>
-3.6910553

>  <minimizedRMSD>
1.07150781

$$$$
