
 OpenBabel03242523533D

 42 45  0  0  1  0  0  0  0  0999 V2000
   42.6750   34.4100   38.8850 C   0  0  1  0  0  0  0  0  0  0  0  0
   42.9990   35.1660   40.1640 C   0  0  1  0  0  0  0  0  0  0  0  0
   41.7910   35.5780   40.7550 O   0  0  0  0  0  0  0  0  0  0  0  0
   40.8240   35.9330   39.8110 C   0  0  0  0  0  0  0  0  0  0  0  0
   40.3180   34.7270   39.0410 C   0  0  2  0  0  0  0  0  0  0  0  0
   41.4330   33.6290   39.1680 C   0  0  1  0  0  0  0  0  0  0  0  0
   43.5330   33.7570   38.5860 H   0  0  0  0  0  0  0  0  0  0  0  0
   43.6820   36.0140   40.0050 H   0  0  0  0  0  0  0  0  0  0  0  0
   39.9800   36.3380   40.3780 H   0  0  0  0  0  0  0  0  0  0  0  0
   41.1770   36.7380   39.1380 H   0  0  0  0  0  0  0  0  0  0  0  0
   39.3690   34.3440   39.4450 H   0  0  0  0  0  0  0  0  0  0  0  0
   41.2860   33.4660   40.2870 H   0  0  0  0  0  0  0  0  0  0  0  0
   42.4720   35.2940   37.8160 O   0  0  0  0  0  0  0  0  0  0  0  0
   43.3080   35.6700   37.4980 H   0  0  0  0  0  0  0  0  0  0  0  0
   40.2620   35.0300   37.6880 O   0  0  0  0  0  0  0  0  0  0  0  0
   39.3430   35.3120   37.4110 H   0  0  0  0  0  0  0  0  0  0  0  0
   43.5010   34.2000   41.0500 O   0  0  0  0  0  0  0  0  0  0  0  0
   44.6240   34.3240   41.7680 C   0  0  0  0  0  0  0  0  0  0  0  0
   45.8720   34.4490   41.1400 C   0  0  0  0  0  0  0  0  0  0  0  0
   47.0020   34.5760   41.9320 C   0  0  0  0  0  0  0  0  0  0  0  0
   46.8660   34.5770   43.3090 N   0  0  0  0  0  0  0  0  0  0  0  0
   45.6450   34.4550   43.8780 C   0  0  0  0  0  0  0  0  0  0  0  0
   44.5300   34.3290   43.1110 N   0  0  0  0  0  0  0  0  0  0  0  0
   45.9850   34.4490   40.0700 H   0  0  0  0  0  0  0  0  0  0  0  0
   45.6140   34.4630   44.9600 H   0  0  0  0  0  0  0  0  0  0  0  0
   48.3680   34.6980   41.3380 C   0  0  0  0  0  0  0  0  0  0  0  0
   49.0760   36.0410   41.5190 C   0  0  0  0  0  0  0  0  0  0  0  0
   49.5340   34.7190   42.1620 C   0  0  0  0  0  0  0  0  0  0  0  0
   48.4180   34.3190   40.2790 H   0  0  0  0  0  0  0  0  0  0  0  0
   48.6320   36.7600   42.2080 H   0  0  0  0  0  0  0  0  0  0  0  0
   49.7410   36.3820   40.7030 H   0  0  0  0  0  0  0  0  0  0  0  0
   50.4890   34.2730   41.8160 H   0  0  0  0  0  0  0  0  0  0  0  0
   49.4080   34.6420   43.2700 H   0  0  0  0  0  0  0  0  0  0  0  0
   41.1180   32.6330   38.3180 O   0  0  0  0  0  0  0  0  0  0  0  0
   40.1740   31.6980   38.3900 C   0  0  0  0  0  0  0  0  0  0  0  0
   39.4490   31.3210   37.3500 O   0  0  0  0  0  0  0  0  0  0  0  0
   39.6290   30.7910   39.5730 C   0  0  0  0  0  0  0  0  0  0  0  0
   39.8250   29.5620   39.8950 C   0  0  0  0  0  0  0  0  0  0  0  0
   40.5000   29.0240   39.2400 H   0  0  0  0  0  0  0  0  0  0  0  0
   39.2040   29.0370   40.9840 C   0  0  0  0  0  3  0  0  0  0  0  0
   38.3700   29.9040   41.6980 C   0  0  0  0  0  3  0  0  0  0  0  0
   38.5510   31.5260   40.6780 S   0  0  0  0  0  0  0  0  0  0  0  0
  1  7  1  6  0  0  0
  1  6  1  0  0  0  0
  1  2  1  0  0  0  0
  2  8  1  6  0  0  0
  2  3  1  0  0  0  0
  2 17  1  0  0  0  0
  4  9  1  0  0  0  0
  4  3  1  0  0  0  0
  5  6  1  0  0  0  0
  5 11  1  1  0  0  0
  5  4  1  0  0  0  0
  6 12  1  1  0  0  0
 10  4  1  0  0  0  0
 13  1  1  0  0  0  0
 14 13  1  0  0  0  0
 15  5  1  0  0  0  0
 16 15  1  0  0  0  0
 17 18  1  0  0  0  0
 18 23  1  0  0  0  0
 19 18  2  0  0  0  0
 19 20  1  0  0  0  0
 20 21  2  0  0  0  0
 21 22  1  0  0  0  0
 22 25  1  0  0  0  0
 23 22  2  0  0  0  0
 24 19  1  0  0  0  0
 26 27  1  0  0  0  0
 26 20  1  0  0  0  0
 26 28  1  0  0  0  0
 27 28  1  0  0  0  0
 27 30  1  0  0  0  0
 28 33  1  0  0  0  0
 29 26  1  0  0  0  0
 31 27  1  0  0  0  0
 32 28  1  0  0  0  0
 34 35  1  0  0  0  0
 34  6  1  0  0  0  0
 35 37  1  0  0  0  0
 36 35  2  0  0  0  0
 37 38  2  0  0  0  0
 37 42  1  0  0  0  0
 38 40  1  0  0  0  0
 39 38  1  0  0  0  0
 40 41  2  0  0  0  0
 42 41  1  0  0  0  0
M  END
>  <minimizedAffinity>
-5.96883106

>  <minimizedRMSD>
1.57494152

$$$$
