REMARK  Name = 
REMARK  7 active torsions:
REMARK  status: ('A' for Active; 'I' for Inactive)
REMARK    1  A    between atoms: C_2  and  O_17
REMARK    2  A    between atoms: C_3  and  C_7
REMARK    3  A    between atoms: O_17  and  P_19
REMARK    4  A    between atoms: P_19  and  O_20
REMARK    5  A    between atoms: P_19  and  O_21
REMARK    6  A    between atoms: O_20  and  C_36
REMARK    7  A    between atoms: O_21  and  C_22
REMARK                            x       y       z     vdW  Elec       q    Type
REMARK                         _______ _______ _______ _____ _____    ______ ____
ROOT
ATOM      1  C   UNL     1      45.134  36.014  42.911  0.00  0.00    +0.000 A 
ATOM      2  C   UNL     1      45.372  34.649  42.909  0.00  0.00    +0.000 A 
ATOM      3  C   UNL     1      45.214  33.920  44.062  0.00  0.00    +0.000 A 
ATOM      4  N   UNL     1      44.813  34.608  45.189  0.00  0.00    +0.000 NA
ATOM      5  C   UNL     1      44.584  35.920  45.190  0.00  0.00    +0.000 A 
ATOM      6  N   UNL     1      44.748  36.614  44.045  0.00  0.00    +0.000 NA
ATOM      7  H   UNL     1      45.261  36.598  41.991  0.00  0.00    +0.000 HD
ATOM      8  H   UNL     1      44.273  36.409  46.100  0.00  0.00    +0.000 HD
ENDROOT
BRANCH   3   9
ATOM      9  C   UNL     1      45.417  32.530  44.219  0.00  0.00    +0.000 A 
ATOM     10  C   UNL     1      44.940  31.562  43.333  0.00  0.00    +0.000 A 
ATOM     11  C   UNL     1      45.079  30.212  43.519  0.00  0.00    +0.000 A 
ATOM     12  C   UNL     1      45.723  29.741  44.636  0.00  0.00    +0.000 A 
ATOM     13  C   UNL     1      46.222  30.713  45.557  0.00  0.00    +0.000 A 
ATOM     14  C   UNL     1      46.864  30.246  46.674  0.00  0.00    +0.000 A 
ATOM     15  C   UNL     1      47.371  31.133  47.601  0.00  0.00    +0.000 A 
ATOM     16  C   UNL     1      47.224  32.511  47.389  0.00  0.00    +0.000 A 
ATOM     17  C   UNL     1      46.557  32.937  46.228  0.00  0.00    +0.000 A 
ATOM     18  C   UNL     1      46.058  32.040  45.324  0.00  0.00    +0.000 A 
ATOM     19  H   UNL     1      44.425  31.884  42.439  0.00  0.00    +0.000 HD
ATOM     20  H   UNL     1      44.678  29.518  42.778  0.00  0.00    +0.000 HD
ATOM     21  H   UNL     1      45.839  28.695  44.796  0.00  0.00    +0.000 HD
ATOM     22  H   UNL     1      46.968  29.176  46.818  0.00  0.00    +0.000 HD
ATOM     23  H   UNL     1      47.868  30.701  48.465  0.00  0.00    +0.000 HD
ATOM     24  H   UNL     1      47.652  33.114  48.163  0.00  0.00    +0.000 HD
ATOM     25  H   UNL     1      46.567  34.006  46.235  0.00  0.00    +0.000 HD
ENDBRANCH   3   9
BRANCH   2  26
ATOM     26  O   UNL     1      45.760  34.088  41.722  0.00  0.00    +0.000 OA
BRANCH  26  28
ATOM     27  O   UNL     1      47.684  32.428  41.091  0.00  0.00    +0.000 OA
ATOM     28  P   UNL     1      47.371  33.876  41.245  0.00  0.00    +0.000 P 
BRANCH  28  29
ATOM     29  O   UNL     1      47.651  34.603  39.742  0.00  0.00    +0.000 OA
BRANCH  29  30
ATOM     30  C   UNL     1      48.822  34.311  38.986  0.00  0.00    +0.000 A 
ATOM     31  C   UNL     1      49.595  33.303  38.325  0.00  0.00    +0.000 A 
ATOM     32  H   UNL     1      49.047  32.396  38.474  0.00  0.00    +0.000 HD
ATOM     33  C   UNL     1      50.731  33.788  37.743  0.00  0.00    +0.000 A 
ATOM     34  C   UNL     1      51.102  35.086  37.778  0.00  0.00    +0.000 A 
ATOM     35  S   UNL     1      49.811  35.903  38.709  0.00  0.00    +0.000 S 
ENDBRANCH  29  30
ENDBRANCH  28  29
BRANCH  28  36
ATOM     36  O   UNL     1      48.362  34.594  42.389  0.00  0.00    +0.000 OA
BRANCH  36  37
ATOM     37  C   UNL     1      49.534  35.294  42.149  0.00  0.00    +0.000 C 
ATOM     38  O   UNL     1      49.201  36.211  41.375  0.00  0.00    +0.000 OA
ATOM     39  N   UNL     1      50.637  34.706  42.865  0.00  0.00    +0.000 N 
ATOM     40  H   UNL     1      51.475  34.184  42.516  0.00  0.00    +0.000 HD
ATOM     41  H   UNL     1      50.620  34.803  43.904  0.00  0.00    +0.000 HD
ENDBRANCH  36  37
ENDBRANCH  28  36
ENDBRANCH  26  28
ENDBRANCH   2  26
TORSDOF 7
