
 OpenBabel03252504533D

 18 19  0  0  0  0  0  0  0  0999 V2000
   44.5450   36.0520   44.5560 C   0  0  0  0  0  0  0  0  0  0  0  0
   45.1900   35.9670   43.3100 C   0  0  0  0  0  0  0  0  0  0  0  0
   46.0250   34.8750   43.1120 C   0  0  0  0  0  0  0  0  0  0  0  0
   46.1740   33.9540   44.1230 N   0  0  0  0  0  0  0  0  0  0  0  0
   45.5280   34.0910   45.3000 C   0  0  0  0  0  0  0  0  0  0  0  0
   44.7180   35.1350   45.5130 N   0  0  0  0  0  0  0  0  0  0  0  0
   43.8970   36.9200   44.6800 H   0  0  0  0  0  0  0  0  0  0  0  0
   45.0540   36.6960   42.5460 H   0  0  0  0  0  0  0  0  0  0  0  0
   45.6480   33.3640   46.0920 H   0  0  0  0  0  0  0  0  0  0  0  0
   46.6990   34.7830   41.8140 C   0  0  0  0  0  0  0  0  0  0  0  0
   46.2320   34.0140   41.1600 H   0  0  0  0  0  0  0  0  0  0  0  0
   46.6790   35.7640   41.3050 H   0  0  0  0  0  0  0  0  0  0  0  0
   48.1080   34.3660   42.0160 C   0  0  0  0  0  0  0  0  0  0  0  0
   49.1880   35.0820   42.4250 C   0  0  0  0  0  0  0  0  0  0  0  0
   49.0490   36.1300   42.6520 H   0  0  0  0  0  0  0  0  0  0  0  0
   50.3910   34.4250   42.5250 C   0  0  0  0  0  0  0  0  0  0  0  0
   50.4590   33.1050   42.2160 C   0  0  0  0  0  0  0  0  0  0  0  0
   48.7170   32.7100   41.7430 S   0  0  0  0  0  0  0  0  0  0  0  0
  1  7  1  0  0  0  0
  1  6  1  0  0  0  0
  2  1  2  0  0  0  0
  3  2  1  0  0  0  0
  3  4  2  0  0  0  0
  4  5  1  0  0  0  0
  5  6  2  0  0  0  0
  5  9  1  0  0  0  0
  8  2  1  0  0  0  0
 10 13  1  0  0  0  0
 10  3  1  0  0  0  0
 11 10  1  0  0  0  0
 12 10  1  0  0  0  0
 13 14  2  0  0  0  0
 14 16  1  0  0  0  0
 14 15  1  0  0  0  0
 17 16  2  0  0  0  0
 18 13  1  0  0  0  0
 18 17  1  0  0  0  0
M  END
>  <minimizedAffinity>
-4.34686708

>  <minimizedRMSD>
1.79169297

$$$$
