
 OpenBabel03252509233D

 24 26  0  0  1  0  0  0  0  0999 V2000
   46.8940   34.8770   41.9560 C   0  0  1  0  0  0  0  0  0  0  0  0
   48.2970   35.5310   42.0590 C   0  0  0  0  0  0  0  0  0  0  0  0
   48.0090   34.0640   41.6220 C   0  0  2  0  0  0  0  0  0  0  0  0
   46.2280   35.3850   41.2350 H   0  0  0  0  0  0  0  0  0  0  0  0
   48.5170   36.2280   41.2340 H   0  0  0  0  0  0  0  0  0  0  0  0
   48.7360   35.7150   43.0340 H   0  0  0  0  0  0  0  0  0  0  0  0
   48.3830   33.3440   42.3880 H   0  0  0  0  0  0  0  0  0  0  0  0
   44.7060   35.3240   44.9680 C   0  0  0  0  0  0  0  0  0  0  0  0
   45.2680   35.5830   43.6750 C   0  0  0  0  0  0  0  0  0  0  0  0
   46.2830   34.7270   43.3360 C   0  0  0  0  0  0  0  0  0  0  0  0
   46.7080   33.7180   44.1830 N   0  0  0  0  0  0  0  0  0  0  0  0
   46.1410   33.5280   45.3810 C   0  0  0  0  0  0  0  0  0  0  0  0
   45.1270   34.3410   45.7770 N   0  0  0  0  0  0  0  0  0  0  0  0
   43.9100   35.9570   45.2890 H   0  0  0  0  0  0  0  0  0  0  0  0
   46.6220   32.6940   45.8720 H   0  0  0  0  0  0  0  0  0  0  0  0
   44.8250   36.6340   42.8350 N   0  0  0  0  0  0  0  0  0  0  0  0
   45.2340   37.5210   43.2340 H   0  0  0  0  0  0  0  0  0  0  0  0
   44.2170   36.5800   41.9850 H   0  0  0  0  0  0  0  0  0  0  0  0
   48.2520   33.7180   40.2260 C   0  0  0  0  0  0  0  0  0  0  0  0
   47.9650   34.2980   39.0410 C   0  0  0  0  0  0  0  0  0  0  0  0
   47.4340   35.2350   39.0920 H   0  0  0  0  0  0  0  0  0  0  0  0
   48.3500   33.6860   37.8720 C   0  0  0  0  0  3  0  0  0  0  0  0
   49.0370   32.4610   37.9980 C   0  0  0  0  0  3  0  0  0  0  0  0
   49.1240   32.1980   39.8070 S   0  0  0  0  0  0  0  0  0  0  0  0
  1  4  1  6  0  0  0
  1  2  1  0  0  0  0
  1 10  1  0  0  0  0
  2  6  1  0  0  0  0
  3  1  1  0  0  0  0
  3  2  1  0  0  0  0
  3  7  1  1  0  0  0
  5  2  1  0  0  0  0
  8 14  1  0  0  0  0
  8 13  1  0  0  0  0
  9  8  2  0  0  0  0
 10  9  1  0  0  0  0
 10 11  2  0  0  0  0
 11 12  1  0  0  0  0
 12 13  2  0  0  0  0
 12 15  1  0  0  0  0
 16 17  1  0  0  0  0
 16  9  1  0  0  0  0
 18 16  1  0  0  0  0
 19  3  1  0  0  0  0
 20 21  1  0  0  0  0
 20 19  2  0  0  0  0
 22 23  2  0  0  0  0
 22 20  1  0  0  0  0
 23 24  1  0  0  0  0
 24 19  1  0  0  0  0
M  END
>  <minimizedAffinity>
-4.76191139

>  <minimizedRMSD>
0.73099333

$$$$
