
 OpenBabel03252508543D

 40 43  0  0  1  0  0  0  0  0999 V2000
   43.2990   34.4100   40.7170 C   0  0  0  0  0  0  0  0  0  0  0  0
   43.2450   35.6030   40.2590 O   0  0  0  0  0  0  0  0  0  0  0  0
   41.9360   34.0030   40.4370 N   0  0  0  0  0  0  0  0  0  0  0  0
   41.5510   34.0280   39.0460 C   0  0  0  0  0  0  0  0  0  0  0  0
   40.7490   35.3250   38.8880 C   0  0  0  0  0  0  0  0  0  0  0  0
   39.9580   35.5030   40.1910 C   0  0  0  0  0  0  0  0  0  0  0  0
   39.6270   34.1480   40.8220 C   0  0  0  0  0  0  0  0  0  0  0  0
   40.9050   33.5710   41.3970 C   0  0  1  0  0  0  0  0  0  0  0  0
   40.8820   33.1810   38.7910 H   0  0  0  0  0  0  0  0  0  0  0  0
   42.4030   34.1220   38.3590 H   0  0  0  0  0  0  0  0  0  0  0  0
   41.4900   36.1590   38.7990 H   0  0  0  0  0  0  0  0  0  0  0  0
   40.0670   35.2780   38.0110 H   0  0  0  0  0  0  0  0  0  0  0  0
   39.0730   36.0950   39.9690 H   0  0  0  0  0  0  0  0  0  0  0  0
   40.5740   36.0690   40.9280 H   0  0  0  0  0  0  0  0  0  0  0  0
   39.2630   33.5070   40.0050 H   0  0  0  0  0  0  0  0  0  0  0  0
   38.8510   34.3480   41.5830 H   0  0  0  0  0  0  0  0  0  0  0  0
   41.1250   34.1760   42.3060 H   0  0  0  0  0  0  0  0  0  0  0  0
   40.9220   32.2060   41.6490 C   0  0  0  0  0  0  0  0  0  0  0  0
   41.8390   31.2650   42.0620 C   0  0  0  0  0  0  0  0  0  0  0  0
   42.8210   31.6570   42.2470 H   0  0  0  0  0  0  0  0  0  0  0  0
   41.5410   29.9440   42.2260 C   0  0  0  0  0  3  0  0  0  0  0  0
   40.0980   29.5820   41.9140 C   0  0  0  0  0  3  0  0  0  0  0  0
   39.4190   31.2850   41.4240 S   0  0  0  0  0  0  0  0  0  0  0  0
   44.3620   33.7770   41.2850 O   0  0  0  0  0  0  0  0  0  0  0  0
   45.6940   34.1030   41.1190 C   0  0  0  0  0  0  0  0  0  0  0  0
   46.3460   34.7350   42.1910 C   0  0  0  0  0  0  0  0  0  0  0  0
   47.6980   35.0560   41.9970 C   0  0  0  0  0  0  0  0  0  0  0  0
   48.2880   34.7430   40.8020 N   0  0  0  0  0  0  0  0  0  0  0  0
   47.6170   34.1460   39.8260 C   0  0  0  0  0  0  0  0  0  0  0  0
   46.3160   33.8190   39.9720 N   0  0  0  0  0  0  0  0  0  0  0  0
   48.2150   35.5420   42.8100 H   0  0  0  0  0  0  0  0  0  0  0  0
   48.1060   33.9060   38.8850 H   0  0  0  0  0  0  0  0  0  0  0  0
   45.6270   35.0210   43.4140 C   0  0  0  0  0  0  0  0  0  0  0  0
   44.9930   36.2380   43.6440 C   0  0  0  0  0  0  0  0  0  0  0  0
   44.4430   36.1000   44.8910 C   0  0  0  0  0  0  0  0  0  0  0  0
   44.7230   34.8720   45.3970 N   0  0  0  0  0  0  0  0  0  0  0  0
   45.4370   34.2550   44.4760 N   0  0  0  0  0  0  0  0  0  0  0  0
   44.9270   37.1130   43.0120 H   0  0  0  0  0  0  0  0  0  0  0  0
   43.8590   36.7990   45.4750 H   0  0  0  0  0  0  0  0  0  0  0  0
   44.4860   34.3960   46.3000 H   0  0  0  0  0  0  0  0  0  0  0  0
  1 24  1  0  0  0  0
  2  1  2  0  0  0  0
  3  1  1  0  0  0  0
  3  8  1  0  0  0  0
  4  3  1  0  0  0  0
  5  4  1  0  0  0  0
  5  6  1  0  0  0  0
  6  7  1  0  0  0  0
  6 14  1  0  0  0  0
  7  8  1  0  0  0  0
  7 16  1  0  0  0  0
  8 18  1  0  0  0  0
  8 17  1  1  0  0  0
  9  4  1  0  0  0  0
 10  4  1  0  0  0  0
 11  5  1  0  0  0  0
 12  5  1  0  0  0  0
 13  6  1  0  0  0  0
 15  7  1  0  0  0  0
 18 19  2  0  0  0  0
 19 21  1  0  0  0  0
 19 20  1  0  0  0  0
 22 21  2  0  0  0  0
 23 18  1  0  0  0  0
 23 22  1  0  0  0  0
 25 24  1  0  0  0  0
 25 26  1  0  0  0  0
 26 33  1  0  0  0  0
 27 26  2  0  0  0  0
 27 31  1  0  0  0  0
 28 27  1  0  0  0  0
 29 30  1  0  0  0  0
 29 28  2  0  0  0  0
 30 25  2  0  0  0  0
 32 29  1  0  0  0  0
 33 34  1  0  0  0  0
 33 37  2  0  0  0  0
 34 35  2  0  0  0  0
 35 36  1  0  0  0  0
 35 39  1  0  0  0  0
 36 40  1  0  0  0  0
 37 36  1  0  0  0  0
 38 34  1  0  0  0  0
M  END
>  <minimizedAffinity>
-6.58150434

>  <minimizedRMSD>
0.400018185

$$$$
