
     RDKit          3D

 27 29  0  0  0  0  0  0  0  0999 V2000
   45.5237   34.1529   44.4197 C   0  0  0  0  0  0  0  0  0  0  0  0
   46.4924   33.6020   43.5407 C   0  0  0  0  0  0  0  0  0  0  0  0
   47.3891   32.6625   44.0579 C   0  0  0  0  0  0  0  0  0  0  0  0
   47.2723   32.3398   45.3717 N   0  0  0  0  0  0  0  0  0  0  0  0
   46.3377   32.8864   46.1748 C   0  0  0  0  0  0  0  0  0  0  0  0
   45.4717   33.7895   45.6855 N   0  0  0  0  0  0  0  0  0  0  0  0
   46.4034   32.3893   47.5847 C   0  0  0  0  0  0  0  0  0  0  0  0
   45.3799   32.9066   48.3525 F   0  0  0  0  0  0  0  0  0  0  0  0
   47.6165   32.7653   48.1652 F   0  0  0  0  0  0  0  0  0  0  0  0
   46.3914   30.9987   47.5715 F   0  0  0  0  0  0  0  0  0  0  0  0
   44.5782   35.1608   43.8786 C   0  0  1  0  0  0  0  0  0  0  0  0
   44.8633   36.6011   44.3287 C   0  0  0  0  0  0  0  0  0  0  0  0
   44.9985   36.1621   42.8965 C   0  0  2  0  0  0  0  0  0  0  0  0
   46.5660   33.8783   42.4887 H   0  0  0  0  0  0  0  0  0  0  0  0
   48.1587   32.1918   43.4600 H   0  0  0  0  0  0  0  0  0  0  0  0
   43.5168   34.8395   43.9295 H   0  0  0  0  0  0  0  0  0  0  0  0
   45.7572   36.7979   44.9446 H   0  0  0  0  0  0  0  0  0  0  0  0
   43.9505   37.1699   44.5530 H   0  0  0  0  0  0  0  0  0  0  0  0
   46.0581   36.1208   42.5679 H   0  0  0  0  0  0  0  0  0  0  0  0
   44.0703   36.6003   41.8834 C   0  0  0  0  0  0  0  0  0  0  0  0
   42.8817   37.2483   41.8808 C   0  0  0  0  0  0  0  0  0  0  0  0
   42.5097   37.5188   42.8548 H   0  0  0  0  0  0  0  0  0  0  0  0
   42.2211   37.5281   40.7248 C   0  0  0  0  0  0  0  0  0  0  0  0
   42.9005   37.0723   39.4967 C   0  0  0  0  0  0  0  0  0  0  0  0
   44.4690   36.2619   40.1395 S   0  0  0  0  0  0  0  0  0  0  0  0
   41.2757   38.0405   40.6814 H   0  0  0  0  0  0  0  0  0  0  0  0
   42.3538   37.3008   38.4928 H   0  0  0  0  0  0  0  0  0  0  0  0
  1  6  2  0
  2  3  2  0
  2  1  1  0
  3  4  1  0
  4  5  2  0
  5  7  1  0
  6  5  1  0
  7  9  1  0
  7  8  1  0
 10  7  1  0
 11 12  1  0
 11  1  1  0
 13 11  1  0
 13 12  1  0
  2 14  1  0
  3 15  1  0
 11 16  1  6
 12 17  1  0
 12 18  1  0
 13 19  1  6
 20 21  2  0
 21 22  1  0
 21 23  1  0
 23 24  2  0
 24 25  1  0
 25 20  1  0
 23 26  1  0
 24 27  1  0
 13 20  1  0
M  ISO  7  14  14  15  14  16  13  17  13  18  13  19  13  22  15
M  END
>  <DihAtoms>  (1) 
10,12,19,20

>  <DihDeg>  (1) 
-146.7929385658654

$$$$
