
 OpenBabel03252508543D

 40 43  0  0  1  0  0  0  0  0999 V2000
   43.2680   34.3570   40.6590 C   0  0  0  0  0  0  0  0  0  0  0  0
   43.2070   35.5720   40.2610 O   0  0  0  0  0  0  0  0  0  0  0  0
   41.9020   33.9630   40.3760 N   0  0  0  0  0  0  0  0  0  0  0  0
   41.5010   34.0550   38.9930 C   0  0  0  0  0  0  0  0  0  0  0  0
   40.6950   35.3570   38.9070 C   0  0  0  0  0  0  0  0  0  0  0  0
   39.9200   35.4700   40.2270 C   0  0  0  0  0  0  0  0  0  0  0  0
   39.5980   34.0850   40.7950 C   0  0  0  0  0  0  0  0  0  0  0  0
   40.8830   33.4830   41.3260 C   0  0  1  0  0  0  0  0  0  0  0  0
   40.8300   33.2210   38.7040 H   0  0  0  0  0  0  0  0  0  0  0  0
   42.3450   34.1840   38.3010 H   0  0  0  0  0  0  0  0  0  0  0  0
   41.4350   36.1960   38.8510 H   0  0  0  0  0  0  0  0  0  0  0  0
   40.0040   35.3520   38.0370 H   0  0  0  0  0  0  0  0  0  0  0  0
   39.0320   36.0710   40.0450 H   0  0  0  0  0  0  0  0  0  0  0  0
   40.5440   36.0000   40.9830 H   0  0  0  0  0  0  0  0  0  0  0  0
   39.2250   33.4840   39.9510 H   0  0  0  0  0  0  0  0  0  0  0  0
   38.8310   34.2470   41.5730 H   0  0  0  0  0  0  0  0  0  0  0  0
   41.1130   34.0430   42.2610 H   0  0  0  0  0  0  0  0  0  0  0  0
   40.9040   32.1070   41.5110 C   0  0  0  0  0  0  0  0  0  0  0  0
   40.5630   31.2170   42.5050 C   0  0  0  0  0  0  0  0  0  0  0  0
   40.1720   31.6750   43.3950 H   0  0  0  0  0  0  0  0  0  0  0  0
   40.7050   29.8650   42.3840 C   0  0  0  0  0  3  0  0  0  0  0  0
   41.2740   29.4090   41.0520 C   0  0  0  0  0  3  0  0  0  0  0  0
   41.5070   31.0830   40.1910 S   0  0  0  0  0  0  0  0  0  0  0  0
   44.3380   33.6990   41.1840 O   0  0  0  0  0  0  0  0  0  0  0  0
   45.6690   34.0130   40.9870 C   0  0  0  0  0  0  0  0  0  0  0  0
   46.3480   34.6520   42.0390 C   0  0  0  0  0  0  0  0  0  0  0  0
   47.6980   34.9600   41.8130 C   0  0  0  0  0  0  0  0  0  0  0  0
   48.2620   34.6280   40.6100 N   0  0  0  0  0  0  0  0  0  0  0  0
   47.5660   34.0250   39.6560 C   0  0  0  0  0  0  0  0  0  0  0  0
   46.2660   33.7100   39.8310 N   0  0  0  0  0  0  0  0  0  0  0  0
   48.2350   35.4510   42.6100 H   0  0  0  0  0  0  0  0  0  0  0  0
   48.0350   33.7700   38.7080 H   0  0  0  0  0  0  0  0  0  0  0  0
   45.6560   34.9580   43.2710 C   0  0  0  0  0  0  0  0  0  0  0  0
   45.0310   36.1810   43.4970 C   0  0  0  0  0  0  0  0  0  0  0  0
   44.5070   36.0640   44.7570 C   0  0  0  0  0  0  0  0  0  0  0  0
   44.7940   34.8420   45.2750 N   0  0  0  0  0  0  0  0  0  0  0  0
   45.4860   34.2090   44.3490 N   0  0  0  0  0  0  0  0  0  0  0  0
   44.9540   37.0470   42.8530 H   0  0  0  0  0  0  0  0  0  0  0  0
   43.9370   36.7730   45.3440 H   0  0  0  0  0  0  0  0  0  0  0  0
   44.5750   34.3800   46.1900 H   0  0  0  0  0  0  0  0  0  0  0  0
  1 24  1  0  0  0  0
  2  1  2  0  0  0  0
  3  1  1  0  0  0  0
  3  8  1  0  0  0  0
  4  3  1  0  0  0  0
  5  4  1  0  0  0  0
  5  6  1  0  0  0  0
  6  7  1  0  0  0  0
  6 14  1  0  0  0  0
  7  8  1  0  0  0  0
  7 16  1  0  0  0  0
  8 18  1  0  0  0  0
  8 17  1  1  0  0  0
  9  4  1  0  0  0  0
 10  4  1  0  0  0  0
 11  5  1  0  0  0  0
 12  5  1  0  0  0  0
 13  6  1  0  0  0  0
 15  7  1  0  0  0  0
 18 19  2  0  0  0  0
 19 20  1  0  0  0  0
 21 19  1  0  0  0  0
 22 21  2  0  0  0  0
 23 22  1  0  0  0  0
 23 18  1  0  0  0  0
 25 24  1  0  0  0  0
 25 26  1  0  0  0  0
 26 33  1  0  0  0  0
 27 26  2  0  0  0  0
 27 31  1  0  0  0  0
 28 27  1  0  0  0  0
 29 30  1  0  0  0  0
 29 28  2  0  0  0  0
 30 25  2  0  0  0  0
 32 29  1  0  0  0  0
 33 34  1  0  0  0  0
 33 37  2  0  0  0  0
 34 35  2  0  0  0  0
 35 36  1  0  0  0  0
 35 39  1  0  0  0  0
 36 40  1  0  0  0  0
 37 36  1  0  0  0  0
 38 34  1  0  0  0  0
M  END
>  <minimizedAffinity>
-6.51753139

>  <minimizedRMSD>
0.445400536

$$$$
