
 OpenBabel03242511093D

 40 44  0  0  1  0  0  0  0  0999 V2000
   46.9850   32.6710   44.2650 C   0  0  0  0  0  0  0  0  0  0  0  0
   47.0710   31.8910   45.4120 C   0  0  0  0  0  0  0  0  0  0  0  0
   46.3900   32.1740   46.5940 C   0  0  0  0  0  0  0  0  0  0  0  0
   45.5810   33.2770   46.6600 C   0  0  0  0  0  0  0  0  0  0  0  0
   45.4620   34.0800   45.5520 C   0  0  0  0  0  0  0  0  0  0  0  0
   44.6690   35.2030   45.5940 C   0  0  0  0  0  0  0  0  0  0  0  0
   44.5140   36.0510   44.5490 C   0  0  0  0  0  0  0  0  0  0  0  0
   45.2030   35.7250   43.4180 C   0  0  0  0  0  0  0  0  0  0  0  0
   46.0190   34.5920   43.3270 C   0  0  0  0  0  0  0  0  0  0  0  0
   46.1600   33.7610   44.3870 C   0  0  0  0  0  0  0  0  0  0  0  0
   47.6660   30.9960   45.4760 H   0  0  0  0  0  0  0  0  0  0  0  0
   46.4700   31.5560   47.4770 H   0  0  0  0  0  0  0  0  0  0  0  0
   45.0450   33.5140   47.5690 H   0  0  0  0  0  0  0  0  0  0  0  0
   44.1620   35.3800   46.5220 H   0  0  0  0  0  0  0  0  0  0  0  0
   43.8800   36.8960   44.6790 H   0  0  0  0  0  0  0  0  0  0  0  0
   45.0300   36.4580   42.6060 H   0  0  0  0  0  0  0  0  0  0  0  0
   46.6150   34.5110   41.9790 C   0  0  0  0  0  0  0  0  0  0  0  0
   47.9170   35.2890   41.8320 C   0  0  0  0  0  0  0  0  0  0  0  0
   48.3960   35.9330   42.5940 H   0  0  0  0  0  0  0  0  0  0  0  0
   48.5950   35.2090   40.6730 C   0  0  0  0  0  0  0  0  0  0  0  0
   48.1520   34.4610   39.6340 C   0  0  0  0  0  0  0  0  0  0  0  0
   46.5870   33.7930   40.4040 S   0  0  0  0  0  0  0  0  0  0  0  0
   47.7240   32.3020   43.1460 N   0  0  0  0  0  0  0  0  0  0  0  0
   47.3400   33.1160   42.6290 H   0  0  0  0  0  0  0  0  0  0  0  0
   49.8740   31.0930   42.5380 C   0  0  1  0  0  0  0  0  0  0  0  0
   48.7410   30.4230   41.7860 C   0  0  0  0  0  0  0  0  0  0  0  0
   48.5460   31.1180   43.1240 C   0  0  2  0  0  0  0  0  0  0  0  0
   50.3100   31.9390   41.9990 H   0  0  0  0  0  0  0  0  0  0  0  0
   48.7940   29.3080   41.8210 H   0  0  0  0  0  0  0  0  0  0  0  0
   48.3530   30.9290   40.9040 H   0  0  0  0  0  0  0  0  0  0  0  0
   48.4060   30.4650   44.0340 H   0  0  0  0  0  0  0  0  0  0  0  0
   51.6480   28.7830   44.8520 C   0  0  0  0  0  0  0  0  0  0  0  0
   52.9220   28.6760   44.2170 C   0  0  0  0  0  0  0  0  0  0  0  0
   53.1260   29.3950   43.0110 C   0  0  0  0  0  0  0  0  0  0  0  0
   52.1380   30.1400   42.5110 N   0  0  0  0  0  0  0  0  0  0  0  0
   50.9310   30.2180   43.1460 C   0  0  0  0  0  0  0  0  0  0  0  0
   50.7020   29.5440   44.3000 N   0  0  0  0  0  0  0  0  0  0  0  0
   51.4460   28.2560   45.7700 H   0  0  0  0  0  0  0  0  0  0  0  0
   53.6430   28.0590   44.6930 H   0  0  0  0  0  0  0  0  0  0  0  0
   54.1010   29.2920   42.5570 H   0  0  0  0  0  0  0  0  0  0  0  0
  1 10  2  0  0  0  0
  1  2  1  0  0  0  0
  2 11  1  0  0  0  0
  2  3  2  0  0  0  0
  3  4  1  0  0  0  0
  3 12  1  0  0  0  0
  4 13  1  0  0  0  0
  5  6  1  0  0  0  0
  5  4  2  0  0  0  0
  6 14  1  0  0  0  0
  7 15  1  0  0  0  0
  7  6  2  0  0  0  0
  8  7  1  0  0  0  0
  9  8  2  0  0  0  0
  9 10  1  0  0  0  0
 10  5  1  0  0  0  0
 16  8  1  0  0  0  0
 17  9  1  0  0  0  0
 18 17  2  0  0  0  0
 18 19  1  0  0  0  0
 20 18  1  0  0  0  0
 21 22  1  0  0  0  0
 21 20  2  0  0  0  0
 22 17  1  0  0  0  0
 23  1  1  0  0  0  0
 24 23  1  0  0  0  0
 25 28  1  6  0  0  0
 25 27  1  0  0  0  0
 25 36  1  0  0  0  0
 26 29  1  0  0  0  0
 26 25  1  0  0  0  0
 26 27  1  0  0  0  0
 27 23  1  0  0  0  0
 27 31  1  1  0  0  0
 30 26  1  0  0  0  0
 32 38  1  0  0  0  0
 33 39  1  0  0  0  0
 33 32  2  0  0  0  0
 34 33  1  0  0  0  0
 35 34  2  0  0  0  0
 35 36  1  0  0  0  0
 36 37  2  0  0  0  0
 37 32  1  0  0  0  0
 40 34  1  0  0  0  0
M  END
>  <minimizedAffinity>
-5.82299995

>  <minimizedRMSD>
2.50466323

$$$$
