
 OpenBabel03242518153D

 29 31  0  0  0  0  0  0  0  0999 V2000
   46.8390   33.0490   44.3910 C   0  0  0  0  0  0  0  0  0  0  0  0
   47.6920   33.6250   44.8650 H   0  0  0  0  0  0  0  0  0  0  0  0
   46.4110   32.4840   45.2350 H   0  0  0  0  0  0  0  0  0  0  0  0
   45.8810   33.9910   43.9320 C   0  0  0  0  0  0  0  0  0  0  0  0
   45.0920   35.0340   44.4750 C   0  0  0  0  0  0  0  0  0  0  0  0
   44.2400   35.7530   43.7130 C   0  0  0  0  0  0  0  0  0  0  0  0
   44.1670   35.4170   42.3220 C   0  0  0  0  0  0  0  0  0  0  0  0
   45.3270   34.0580   42.1060 S   0  0  0  0  0  0  0  0  0  0  0  0
   45.2780   35.1390   45.5140 H   0  0  0  0  0  0  0  0  0  0  0  0
   43.6420   36.5460   44.1290 H   0  0  0  0  0  0  0  0  0  0  0  0
   43.4380   35.9530   41.4090 O   0  0  0  0  0  0  0  0  0  0  0  0
   42.2290   35.4230   41.0030 C   0  0  0  0  0  0  0  0  0  0  0  0
   41.0430   35.2260   41.5920 C   0  0  0  0  0  0  0  0  0  0  0  0
   40.9800   35.5400   42.6190 H   0  0  0  0  0  0  0  0  0  0  0  0
   40.0160   34.6620   40.8970 C   0  0  0  0  0  0  0  0  0  0  0  0
   40.3240   34.3060   39.4950 C   0  0  0  0  0  0  0  0  0  0  0  0
   42.0960   34.8400   39.3450 S   0  0  0  0  0  0  0  0  0  0  0  0
   47.3600   32.0820   43.4050 C   0  0  0  0  0  0  0  0  0  0  0  0
   47.4300   31.0390   43.8050 H   0  0  0  0  0  0  0  0  0  0  0  0
   46.7270   31.9960   42.4820 H   0  0  0  0  0  0  0  0  0  0  0  0
   48.6920   32.4740   42.9570 C   0  0  0  0  0  0  0  0  0  0  0  0
   49.0380   33.8110   42.8430 C   0  0  0  0  0  0  0  0  0  0  0  0
   50.3360   34.1140   42.4060 C   0  0  0  0  0  0  0  0  0  0  0  0
   51.1670   33.0790   42.1210 N   0  0  0  0  0  0  0  0  0  0  0  0
   50.7940   31.8010   42.2440 C   0  0  0  0  0  0  0  0  0  0  0  0
   49.5800   31.5110   42.6530 N   0  0  0  0  0  0  0  0  0  0  0  0
   48.3720   34.6080   43.0710 H   0  0  0  0  0  0  0  0  0  0  0  0
   50.6700   35.1490   42.2950 H   0  0  0  0  0  0  0  0  0  0  0  0
   51.5570   31.0940   41.9840 H   0  0  0  0  0  0  0  0  0  0  0  0
  1  2  1  0  0  0  0
  1  3  1  0  0  0  0
  4  1  1  0  0  0  0
  4  5  2  0  0  0  0
  5  9  1  0  0  0  0
  6 10  1  0  0  0  0
  6  5  1  0  0  0  0
  7  6  2  0  0  0  0
  8  7  1  0  0  0  0
  8  4  1  0  0  0  0
 11  7  1  0  0  0  0
 12 11  1  0  0  0  0
 12 13  2  0  0  0  0
 13 14  1  0  0  0  0
 15 13  1  0  0  0  0
 16 15  2  0  0  0  0
 17 16  1  0  0  0  0
 17 12  1  0  0  0  0
 18 19  1  0  0  0  0
 18  1  1  0  0  0  0
 20 18  1  0  0  0  0
 21 18  1  0  0  0  0
 22 21  1  0  0  0  0
 22 27  1  0  0  0  0
 23 22  2  0  0  0  0
 24 25  2  0  0  0  0
 24 23  1  0  0  0  0
 25 26  1  0  0  0  0
 26 21  2  0  0  0  0
 28 23  1  0  0  0  0
 29 25  1  0  0  0  0
M  END
>  <minimizedAffinity>
-4.56289911

>  <minimizedRMSD>
9.03156185

$$$$
