
     RDKit          3D

 32 34  0  0  0  0  0  0  0  0999 V2000
   44.4824   35.7508   45.0070 C   0  0  0  0  0  0  0  0  0  0  0  0
   45.1152   35.7105   43.7554 C   0  0  0  0  0  0  0  0  0  0  0  0
   46.0126   34.7164   43.4829 C   0  0  0  0  0  0  0  0  0  0  0  0
   46.2308   33.8156   44.4731 N   0  0  0  0  0  0  0  0  0  0  0  0
   45.6313   33.8540   45.6582 C   0  0  0  0  0  0  0  0  0  0  0  0
   44.7441   34.8213   45.9529 N   0  0  0  0  0  0  0  0  0  0  0  0
   45.9540   32.8446   46.5987 N   0  0  0  0  0  0  0  0  0  0  0  0
   45.1649   32.5660   47.8064 C   0  0  0  0  0  0  0  0  0  0  0  0
   46.2433   32.2283   48.8144 C   0  0  0  0  0  0  0  0  0  0  0  0
   47.5241   32.0686   48.0416 C   0  0  0  0  0  0  0  0  0  0  0  0
   47.0365   31.9048   46.6276 C   0  0  1  0  0  0  0  0  0  0  0  0
   44.7653   36.7467   42.8189 N   0  0  0  0  0  0  0  0  0  0  0  0
   46.4775   30.1963   46.3739 S   0  0  0  0  0  0  0  0  0  0  0  0
   43.7678   36.5251   45.2515 H   0  0  0  0  0  0  0  0  0  0  0  0
   46.4982   34.6876   42.5192 H   0  0  0  0  0  0  0  0  0  0  0  0
   44.6233   33.5116   48.0906 H   0  0  0  0  0  0  0  0  0  0  0  0
   44.4501   31.7390   47.6374 H   0  0  0  0  0  0  0  0  0  0  0  0
   46.3069   32.9799   49.6302 H   0  0  0  0  0  0  0  0  0  0  0  0
   45.9732   31.2417   49.2587 H   0  0  0  0  0  0  0  0  0  0  0  0
   48.0857   33.0249   48.0990 H   0  0  0  0  0  0  0  0  0  0  0  0
   48.1269   31.1998   48.3776 H   0  0  0  0  0  0  0  0  0  0  0  0
   47.8355   32.1772   45.8852 H   0  0  0  0  0  0  0  0  0  0  0  0
   44.5364   37.6978   43.1324 H   0  0  0  0  0  0  0  0  0  0  0  0
   44.7400   36.5336   41.7768 H   0  0  0  0  0  0  0  0  0  0  0  0
   45.8423   29.8531   44.8423 C   0  0  0  0  0  0  0  0  0  0  0  0
   44.7866   30.2848   44.0016 C   0  0  0  0  0  0  0  0  0  0  0  0
   44.2368   31.0579   44.4962 H   0  0  0  0  0  0  0  0  0  0  0  0
   44.5763   29.7452   42.7683 C   0  0  0  0  0  0  0  0  0  0  0  0
   45.5200   28.6654   42.3389 C   0  0  0  0  0  0  0  0  0  0  0  0
   46.6785   28.5158   43.8138 S   0  0  0  0  0  0  0  0  0  0  0  0
   43.7600   30.1157   42.1799 H   0  0  0  0  0  0  0  0  0  0  0  0
   45.2950   28.2629   41.3186 H   0  0  0  0  0  0  0  0  0  0  0  0
  1  6  2  0
  2  1  1  0
  3  2  2  0
  3  4  1  0
  4  5  2  0
  5  6  1  0
  5  7  1  0
  7 11  1  0
  7  8  1  0
  8  9  1  0
 10  9  1  0
 11 10  1  0
 12  2  1  0
 13 11  1  0
  1 14  1  0
  3 15  1  0
  8 16  1  0
  8 17  1  0
  9 18  1  0
  9 19  1  0
 10 20  1  0
 10 21  1  0
 11 22  1  6
 12 23  1  0
 12 24  1  0
 25 26  2  0
 26 27  1  0
 26 28  1  0
 28 29  2  0
 29 30  1  0
 30 25  1  0
 28 31  1  0
 29 32  1  0
 13 25  1  0
M  ISO  8  14  14  15  14  16  13  17  13  18  13  19  13  20  13  21  13
M  ISO  2  22  13  27  15
M  END
>  <DihAtoms>  (1) 
10,12,24,25

>  <DihDeg>  (1) 
-89.4471314600523

$$$$
