
     RDKit          3D

 20 21  0  0  0  0  0  0  0  0999 V2000
   44.5702   36.0011   44.4903 C   0  0  0  0  0  0  0  0  0  0  0  0
   45.3051   35.9245   43.2937 C   0  0  0  0  0  0  0  0  0  0  0  0
   46.1914   34.8617   43.1709 C   0  0  0  0  0  0  0  0  0  0  0  0
   46.3014   33.9598   44.2033 N   0  0  0  0  0  0  0  0  0  0  0  0
   45.5683   34.0856   45.3299 C   0  0  0  0  0  0  0  0  0  0  0  0
   44.7078   35.1021   45.4698 N   0  0  0  0  0  0  0  0  0  0  0  0
   46.9579   34.7801   41.9251 C   0  0  0  0  0  0  0  0  0  0  0  0
   43.8842   36.8451   44.5563 H   0  0  0  0  0  0  0  0  0  0  0  0
   45.1975   36.6393   42.5116 H   0  0  0  0  0  0  0  0  0  0  0  0
   45.6579   33.3743   46.1390 H   0  0  0  0  0  0  0  0  0  0  0  0
   47.2358   33.7309   41.6804 H   0  0  0  0  0  0  0  0  0  0  0  0
   46.3762   35.2130   41.0908 H   0  0  0  0  0  0  0  0  0  0  0  0
   48.2279   35.5300   42.0759 C   0  0  0  0  0  0  0  0  0  0  0  0
   48.5173   36.8338   41.8229 C   0  0  0  0  0  0  0  0  0  0  0  0
   47.7251   37.4677   41.4495 H   0  0  0  0  0  0  0  0  0  0  0  0
   49.8013   37.2624   42.0590 C   0  0  0  0  0  0  0  0  0  0  0  0
   50.7225   36.3838   42.5292 C   0  0  0  0  0  0  0  0  0  0  0  0
   49.7550   34.8162   42.6670 S   0  0  0  0  0  0  0  0  0  0  0  0
   50.1151   38.3015   41.8797 H   0  0  0  0  0  0  0  0  0  0  0  0
   51.7382   36.5105   42.7697 H   0  0  0  0  0  0  0  0  0  0  0  0
  1  6  2  0
  2  1  1  0
  3  2  2  0
  3  4  1  0
  4  5  2  0
  5  6  1  0
  7  3  1  0
  1  8  1  0
  2  9  1  0
  5 10  1  0
  7 11  1  0
  7 12  1  0
 13 14  2  0
 14 15  1  0
 14 16  1  0
 16 17  2  0
 17 18  1  0
 18 13  1  0
 16 19  1  0
 17 20  1  0
  7 13  1  0
M  ISO  6   8  14   9  14  10  14  11   8  12   8  15  15
M  END
>  <DihAtoms>  (1) 
2,6,12,13

>  <DihDeg>  (1) 
90.00689871162325

$$$$
