
 OpenBabel03242514003D

 38 42  0  0  0  0  0  0  0  0999 V2000
   36.9550   31.9650   40.1070 C   0  0  0  0  0  0  0  0  0  0  0  0
   37.1120   31.0710   39.0660 C   0  0  0  0  0  0  0  0  0  0  0  0
   38.3330   31.1310   38.3490 C   0  0  0  0  0  0  0  0  0  0  0  0
   39.2470   32.0390   38.7190 N   0  0  0  0  0  0  0  0  0  0  0  0
   39.0690   32.8990   39.7370 C   0  0  0  0  0  0  0  0  0  0  0  0
   37.8950   32.8430   40.4270 N   0  0  0  0  0  0  0  0  0  0  0  0
   36.0100   31.8950   40.6360 H   0  0  0  0  0  0  0  0  0  0  0  0
   38.5230   30.4580   37.5210 H   0  0  0  0  0  0  0  0  0  0  0  0
   40.0150   33.9060   40.1930 C   0  0  0  0  0  0  0  0  0  0  0  0
   39.7490   35.2630   40.0960 C   0  0  0  0  0  0  0  0  0  0  0  0
   40.8570   35.9300   40.6200 C   0  0  0  0  0  0  0  0  0  0  0  0
   41.7320   34.9830   41.0060 N   0  0  0  0  0  0  0  0  0  0  0  0
   41.2180   33.7840   40.7460 N   0  0  0  0  0  0  0  0  0  0  0  0
   38.9010   35.8230   39.7150 H   0  0  0  0  0  0  0  0  0  0  0  0
   41.0190   36.9970   40.7150 H   0  0  0  0  0  0  0  0  0  0  0  0
   43.0110   35.2220   41.6010 C   0  0  0  0  0  0  0  0  0  0  0  0
   43.3220   36.0320   42.5990 C   0  0  0  0  0  0  0  0  0  0  0  0
   42.5500   36.6400   43.0940 H   0  0  0  0  0  0  0  0  0  0  0  0
   44.6330   36.0940   43.0030 C   0  0  0  0  0  3  0  0  0  0  0  0
   45.5460   35.3190   42.3560 C   0  0  0  0  0  3  0  0  0  0  0  0
   44.4800   34.4510   41.0990 S   0  0  0  0  0  0  0  0  0  0  0  0
   36.1740   30.1360   38.6810 O   0  0  0  0  0  0  0  0  0  0  0  0
   36.2780   28.7660   38.9160 C   0  0  0  0  0  0  0  0  0  0  0  0
   36.1120   27.7480   38.0110 C   0  0  0  0  0  0  0  0  0  0  0  0
   36.2540   26.4420   38.4300 C   0  0  0  0  0  0  0  0  0  0  0  0
   36.5580   26.1000   39.7300 C   0  0  0  0  0  0  0  0  0  0  0  0
   36.6790   24.8100   40.0560 N   0  0  0  0  0  0  0  0  0  0  0  0
   36.9770   24.4400   41.3270 C   0  0  0  0  0  0  0  0  0  0  0  0
   37.1470   25.4390   42.2540 C   0  0  0  0  0  0  0  0  0  0  0  0
   37.0220   26.8070   41.9190 C   0  0  0  0  0  0  0  0  0  0  0  0
   36.7180   27.1470   40.6160 C   0  0  0  0  0  0  0  0  0  0  0  0
   36.5870   28.4790   40.2500 C   0  0  0  0  0  0  0  0  0  0  0  0
   35.8770   28.0560   37.0110 H   0  0  0  0  0  0  0  0  0  0  0  0
   36.1100   25.6950   37.6610 H   0  0  0  0  0  0  0  0  0  0  0  0
   37.0730   23.4020   41.5840 H   0  0  0  0  0  0  0  0  0  0  0  0
   37.3840   25.1260   43.2620 H   0  0  0  0  0  0  0  0  0  0  0  0
   37.1660   27.5460   42.6810 H   0  0  0  0  0  0  0  0  0  0  0  0
   36.7320   29.2190   41.0190 H   0  0  0  0  0  0  0  0  0  0  0  0
  1  6  1  0  0  0  0
  1  7  1  0  0  0  0
  2  1  2  0  0  0  0
  3  4  2  0  0  0  0
  3  2  1  0  0  0  0
  4  5  1  0  0  0  0
  5  9  1  0  0  0  0
  5  6  2  0  0  0  0
  8  3  1  0  0  0  0
  9 13  2  0  0  0  0
 10  9  1  0  0  0  0
 10 11  2  0  0  0  0
 11 15  1  0  0  0  0
 11 12  1  0  0  0  0
 12 16  1  0  0  0  0
 13 12  1  0  0  0  0
 14 10  1  0  0  0  0
 16 17  2  0  0  0  0
 17 19  1  0  0  0  0
 17 18  1  0  0  0  0
 20 19  2  0  0  0  0
 21 16  1  0  0  0  0
 21 20  1  0  0  0  0
 22 23  1  0  0  0  0
 22  2  1  0  0  0  0
 23 32  1  0  0  0  0
 24 25  1  0  0  0  0
 24 23  2  0  0  0  0
 25 26  2  0  0  0  0
 26 27  1  0  0  0  0
 26 31  1  0  0  0  0
 27 28  2  0  0  0  0
 28 35  1  0  0  0  0
 28 29  1  0  0  0  0
 29 36  1  0  0  0  0
 30 29  2  0  0  0  0
 30 37  1  0  0  0  0
 31 30  1  0  0  0  0
 32 31  2  0  0  0  0
 32 38  1  0  0  0  0
 33 24  1  0  0  0  0
 34 25  1  0  0  0  0
M  END
>  <minimizedAffinity>
-6.70060253

$$$$

 OpenBabel03242514003D

 38 42  0  0  0  0  0  0  0  0999 V2000
   38.5470   27.3570   40.9290 C   0  0  0  0  0  0  0  0  0  0  0  0
   37.7550   26.8720   41.9510 C   0  0  0  0  0  0  0  0  0  0  0  0
   36.9290   27.8090   42.6200 C   0  0  0  0  0  0  0  0  0  0  0  0
   36.9660   29.0900   42.2260 N   0  0  0  0  0  0  0  0  0  0  0  0
   37.7470   29.5360   41.2270 C   0  0  0  0  0  0  0  0  0  0  0  0
   38.5430   28.6370   40.5830 N   0  0  0  0  0  0  0  0  0  0  0  0
   39.1690   26.6170   40.4360 H   0  0  0  0  0  0  0  0  0  0  0  0
   36.2820   27.4960   43.4310 H   0  0  0  0  0  0  0  0  0  0  0  0
   37.8370   30.9070   40.7470 C   0  0  0  0  0  0  0  0  0  0  0  0
   36.8550   31.4730   39.9490 C   0  0  0  0  0  0  0  0  0  0  0  0
   37.2600   32.7810   39.6790 C   0  0  0  0  0  0  0  0  0  0  0  0
   38.4390   32.9580   40.3030 N   0  0  0  0  0  0  0  0  0  0  0  0
   38.7700   31.8350   40.9350 N   0  0  0  0  0  0  0  0  0  0  0  0
   35.9210   31.0940   39.5470 H   0  0  0  0  0  0  0  0  0  0  0  0
   36.7540   33.5350   39.0880 H   0  0  0  0  0  0  0  0  0  0  0  0
   39.2160   34.1600   40.2940 C   0  0  0  0  0  0  0  0  0  0  0  0
   38.8060   35.4110   40.1650 C   0  0  0  0  0  0  0  0  0  0  0  0
   37.7370   35.6450   40.0450 H   0  0  0  0  0  0  0  0  0  0  0  0
   39.7480   36.4110   40.1860 C   0  0  0  0  0  3  0  0  0  0  0  0
   41.0550   36.0630   40.3390 C   0  0  0  0  0  3  0  0  0  0  0  0
   40.9400   34.2080   40.4590 S   0  0  0  0  0  0  0  0  0  0  0  0
   37.7150   25.5560   42.3610 O   0  0  0  0  0  0  0  0  0  0  0  0
   37.6300   24.4610   41.5030 C   0  0  0  0  0  0  0  0  0  0  0  0
   38.6090   23.5430   41.2210 C   0  0  0  0  0  0  0  0  0  0  0  0
   38.3400   22.5180   40.3380 C   0  0  0  0  0  0  0  0  0  0  0  0
   37.1200   22.3640   39.7160 C   0  0  0  0  0  0  0  0  0  0  0  0
   36.9400   21.3430   38.8740 N   0  0  0  0  0  0  0  0  0  0  0  0
   35.7510   21.1630   38.2450 C   0  0  0  0  0  0  0  0  0  0  0  0
   34.7520   22.0680   38.5090 C   0  0  0  0  0  0  0  0  0  0  0  0
   34.9330   23.1520   39.4000 C   0  0  0  0  0  0  0  0  0  0  0  0
   36.1560   23.3040   40.0220 C   0  0  0  0  0  0  0  0  0  0  0  0
   36.3700   24.3550   40.9010 C   0  0  0  0  0  0  0  0  0  0  0  0
   39.5430   23.6970   41.7250 H   0  0  0  0  0  0  0  0  0  0  0  0
   39.1610   21.8340   40.1660 H   0  0  0  0  0  0  0  0  0  0  0  0
   35.6100   20.3410   37.5690 H   0  0  0  0  0  0  0  0  0  0  0  0
   33.8110   21.9100   38.0000 H   0  0  0  0  0  0  0  0  0  0  0  0
   34.1200   23.8290   39.5700 H   0  0  0  0  0  0  0  0  0  0  0  0
   35.5510   25.0330   41.0700 H   0  0  0  0  0  0  0  0  0  0  0  0
  1  2  1  0  0  0  0
  2 22  1  0  0  0  0
  2  3  2  0  0  0  0
  3  8  1  0  0  0  0
  4  3  1  0  0  0  0
  5  4  2  0  0  0  0
  6  1  2  0  0  0  0
  6  5  1  0  0  0  0
  7  1  1  0  0  0  0
  9 13  2  0  0  0  0
  9  5  1  0  0  0  0
 10  9  1  0  0  0  0
 11 10  2  0  0  0  0
 11 12  1  0  0  0  0
 12 13  1  0  0  0  0
 14 10  1  0  0  0  0
 15 11  1  0  0  0  0
 16 12  1  0  0  0  0
 16 21  1  0  0  0  0
 17 19  1  0  0  0  0
 17 16  2  0  0  0  0
 18 17  1  0  0  0  0
 19 20  2  0  0  0  0
 20 21  1  0  0  0  0
 23 22  1  0  0  0  0
 24 23  1  0  0  0  0
 24 33  1  0  0  0  0
 25 24  2  0  0  0  0
 26 31  1  0  0  0  0
 26 25  1  0  0  0  0
 27 26  2  0  0  0  0
 28 29  2  0  0  0  0
 28 27  1  0  0  0  0
 29 30  1  0  0  0  0
 30 37  1  0  0  0  0
 30 31  2  0  0  0  0
 31 32  1  0  0  0  0
 32 38  1  0  0  0  0
 32 23  2  0  0  0  0
 34 25  1  0  0  0  0
 35 28  1  0  0  0  0
 36 29  1  0  0  0  0
M  END
>  <minimizedAffinity>
-6.44757891

$$$$

 OpenBabel03242514003D

 38 42  0  0  0  0  0  0  0  0999 V2000
   38.1860   34.2760   39.9210 C   0  0  0  0  0  0  0  0  0  0  0  0
   39.5530   34.1190   40.0390 C   0  0  0  0  0  0  0  0  0  0  0  0
   40.0450   32.7900   40.0600 C   0  0  0  0  0  0  0  0  0  0  0  0
   39.1670   31.7820   39.9640 N   0  0  0  0  0  0  0  0  0  0  0  0
   37.8390   31.9620   39.8490 C   0  0  0  0  0  0  0  0  0  0  0  0
   37.3640   33.2400   39.8300 N   0  0  0  0  0  0  0  0  0  0  0  0
   37.8390   35.3050   39.9090 H   0  0  0  0  0  0  0  0  0  0  0  0
   41.1070   32.5950   40.1500 H   0  0  0  0  0  0  0  0  0  0  0  0
   36.8320   30.9190   39.7400 C   0  0  0  0  0  0  0  0  0  0  0  0
   36.0720   30.5140   40.8260 C   0  0  0  0  0  0  0  0  0  0  0  0
   35.2180   29.5090   40.3690 C   0  0  0  0  0  0  0  0  0  0  0  0
   35.4810   29.3440   39.0590 N   0  0  0  0  0  0  0  0  0  0  0  0
   36.4440   30.1880   38.6990 N   0  0  0  0  0  0  0  0  0  0  0  0
   36.0440   30.8260   41.8650 H   0  0  0  0  0  0  0  0  0  0  0  0
   34.4760   28.9500   40.9250 H   0  0  0  0  0  0  0  0  0  0  0  0
   34.8330   28.4110   38.1880 C   0  0  0  0  0  0  0  0  0  0  0  0
   35.1900   27.1730   37.8880 C   0  0  0  0  0  0  0  0  0  0  0  0
   36.0950   26.7240   38.3250 H   0  0  0  0  0  0  0  0  0  0  0  0
   34.4020   26.4620   37.0160 C   0  0  0  0  0  3  0  0  0  0  0  0
   33.2930   27.0670   36.5070 C   0  0  0  0  0  3  0  0  0  0  0  0
   33.3770   28.7450   37.3110 S   0  0  0  0  0  0  0  0  0  0  0  0
   40.4600   35.1530   40.1400 O   0  0  0  0  0  0  0  0  0  0  0  0
   41.7800   35.0110   40.5640 C   0  0  0  0  0  0  0  0  0  0  0  0
   42.7670   34.2550   39.9830 C   0  0  0  0  0  0  0  0  0  0  0  0
   44.0250   34.2360   40.5480 C   0  0  0  0  0  0  0  0  0  0  0  0
   44.3480   34.9470   41.6840 C   0  0  0  0  0  0  0  0  0  0  0  0
   45.5900   34.8760   42.1690 N   0  0  0  0  0  0  0  0  0  0  0  0
   45.9400   35.5640   43.2850 C   0  0  0  0  0  0  0  0  0  0  0  0
   44.9710   36.3280   43.8880 C   0  0  0  0  0  0  0  0  0  0  0  0
   43.6530   36.4110   43.3810 C   0  0  0  0  0  0  0  0  0  0  0  0
   43.3320   35.6970   42.2440 C   0  0  0  0  0  0  0  0  0  0  0  0
   42.0490   35.7540   41.7180 C   0  0  0  0  0  0  0  0  0  0  0  0
   42.4760   33.7170   39.1020 H   0  0  0  0  0  0  0  0  0  0  0  0
   44.7500   33.6190   40.0350 H   0  0  0  0  0  0  0  0  0  0  0  0
   46.9400   35.5030   43.6730 H   0  0  0  0  0  0  0  0  0  0  0  0
   45.2670   36.8690   44.7770 H   0  0  0  0  0  0  0  0  0  0  0  0
   42.9360   37.0230   43.8910 H   0  0  0  0  0  0  0  0  0  0  0  0
   41.3320   36.3700   42.2320 H   0  0  0  0  0  0  0  0  0  0  0  0
  1  2  1  0  0  0  0
  2  3  2  0  0  0  0
  2 22  1  0  0  0  0
  3  8  1  0  0  0  0
  4  3  1  0  0  0  0
  5  4  2  0  0  0  0
  6  5  1  0  0  0  0
  6  1  2  0  0  0  0
  7  1  1  0  0  0  0
  9  5  1  0  0  0  0
  9 10  1  0  0  0  0
 10 14  1  0  0  0  0
 11 10  2  0  0  0  0
 11 15  1  0  0  0  0
 12 11  1  0  0  0  0
 13 12  1  0  0  0  0
 13  9  2  0  0  0  0
 16 12  1  0  0  0  0
 17 16  2  0  0  0  0
 17 18  1  0  0  0  0
 19 17  1  0  0  0  0
 20 19  2  0  0  0  0
 20 21  1  0  0  0  0
 21 16  1  0  0  0  0
 22 23  1  0  0  0  0
 23 32  1  0  0  0  0
 24 25  1  0  0  0  0
 24 23  2  0  0  0  0
 25 26  2  0  0  0  0
 26 27  1  0  0  0  0
 26 31  1  0  0  0  0
 27 28  2  0  0  0  0
 28 35  1  0  0  0  0
 28 29  1  0  0  0  0
 29 36  1  0  0  0  0
 30 29  2  0  0  0  0
 30 37  1  0  0  0  0
 31 30  1  0  0  0  0
 32 38  1  0  0  0  0
 32 31  2  0  0  0  0
 33 24  1  0  0  0  0
 34 25  1  0  0  0  0
M  END
>  <minimizedAffinity>
-6.43311024

$$$$

 OpenBabel03242514003D

 38 42  0  0  0  0  0  0  0  0999 V2000
   37.1080   31.5000   40.4290 C   0  0  0  0  0  0  0  0  0  0  0  0
   37.4150   30.1650   40.2530 C   0  0  0  0  0  0  0  0  0  0  0  0
   38.7900   29.8270   40.1790 C   0  0  0  0  0  0  0  0  0  0  0  0
   39.6950   30.8110   40.2840 N   0  0  0  0  0  0  0  0  0  0  0  0
   39.3700   32.1040   40.4550 C   0  0  0  0  0  0  0  0  0  0  0  0
   38.0480   32.4300   40.5250 N   0  0  0  0  0  0  0  0  0  0  0  0
   36.0480   31.7260   40.4810 H   0  0  0  0  0  0  0  0  0  0  0  0
   39.1010   28.7990   40.0430 H   0  0  0  0  0  0  0  0  0  0  0  0
   40.2960   33.2190   40.5770 C   0  0  0  0  0  0  0  0  0  0  0  0
   40.0060   34.4750   40.0680 C   0  0  0  0  0  0  0  0  0  0  0  0
   41.1000   35.2910   40.3590 C   0  0  0  0  0  0  0  0  0  0  0  0
   41.9910   34.5240   41.0150 N   0  0  0  0  0  0  0  0  0  0  0  0
   41.5000   33.2940   41.1370 N   0  0  0  0  0  0  0  0  0  0  0  0
   39.1490   34.8760   39.5360 H   0  0  0  0  0  0  0  0  0  0  0  0
   41.2430   36.3380   40.1200 H   0  0  0  0  0  0  0  0  0  0  0  0
   43.2640   34.9570   41.5050 C   0  0  0  0  0  0  0  0  0  0  0  0
   44.4720   34.5830   41.1160 C   0  0  0  0  0  0  0  0  0  0  0  0
   44.6030   33.8450   40.3100 H   0  0  0  0  0  0  0  0  0  0  0  0
   45.5600   35.1430   41.7410 C   0  0  0  0  0  3  0  0  0  0  0  0
   45.3390   36.0520   42.7310 C   0  0  0  0  0  3  0  0  0  0  0  0
   43.4780   36.1160   42.7750 S   0  0  0  0  0  0  0  0  0  0  0  0
   36.4880   29.1500   40.1440 O   0  0  0  0  0  0  0  0  0  0  0  0
   36.6950   27.8370   40.5650 C   0  0  0  0  0  0  0  0  0  0  0  0
   36.8420   27.3870   41.8530 C   0  0  0  0  0  0  0  0  0  0  0  0
   37.0420   26.0410   42.0790 C   0  0  0  0  0  0  0  0  0  0  0  0
   37.1020   25.1100   41.0640 C   0  0  0  0  0  0  0  0  0  0  0  0
   37.2990   23.8250   41.3680 N   0  0  0  0  0  0  0  0  0  0  0  0
   37.3640   22.8840   40.3920 C   0  0  0  0  0  0  0  0  0  0  0  0
   37.2200   23.3070   39.0930 C   0  0  0  0  0  0  0  0  0  0  0  0
   37.0110   24.6660   38.7620 C   0  0  0  0  0  0  0  0  0  0  0  0
   36.9510   25.5960   39.7810 C   0  0  0  0  0  0  0  0  0  0  0  0
   36.7480   26.9380   39.4940 C   0  0  0  0  0  0  0  0  0  0  0  0
   36.7890   28.1420   42.6130 H   0  0  0  0  0  0  0  0  0  0  0  0
   37.1480   25.7610   43.1190 H   0  0  0  0  0  0  0  0  0  0  0  0
   37.5220   21.8510   40.6400 H   0  0  0  0  0  0  0  0  0  0  0  0
   37.2750   22.5440   38.3290 H   0  0  0  0  0  0  0  0  0  0  0  0
   36.9060   24.9420   37.7320 H   0  0  0  0  0  0  0  0  0  0  0  0
   36.6420   27.2110   38.4580 H   0  0  0  0  0  0  0  0  0  0  0  0
  1  7  1  0  0  0  0
  1  6  1  0  0  0  0
  2  1  2  0  0  0  0
  3  2  1  0  0  0  0
  3  4  2  0  0  0  0
  4  5  1  0  0  0  0
  5  6  2  0  0  0  0
  5  9  1  0  0  0  0
  8  3  1  0  0  0  0
  9 13  2  0  0  0  0
 10 11  2  0  0  0  0
 10  9  1  0  0  0  0
 11 12  1  0  0  0  0
 12 13  1  0  0  0  0
 12 16  1  0  0  0  0
 14 10  1  0  0  0  0
 15 11  1  0  0  0  0
 16 21  1  0  0  0  0
 17 16  2  0  0  0  0
 17 19  1  0  0  0  0
 18 17  1  0  0  0  0
 19 20  2  0  0  0  0
 20 21  1  0  0  0  0
 22  2  1  0  0  0  0
 22 23  1  0  0  0  0
 23 24  1  0  0  0  0
 24 25  2  0  0  0  0
 24 33  1  0  0  0  0
 25 34  1  0  0  0  0
 26 27  1  0  0  0  0
 26 25  1  0  0  0  0
 28 35  1  0  0  0  0
 28 27  2  0  0  0  0
 29 28  1  0  0  0  0
 30 29  2  0  0  0  0
 30 31  1  0  0  0  0
 31 26  2  0  0  0  0
 32 31  1  0  0  0  0
 32 23  2  0  0  0  0
 36 29  1  0  0  0  0
 37 30  1  0  0  0  0
 38 32  1  0  0  0  0
M  END
>  <minimizedAffinity>
-6.18862152

$$$$

 OpenBabel03242514003D

 38 42  0  0  0  0  0  0  0  0999 V2000
   35.4690   27.2930   38.1850 C   0  0  0  0  0  0  0  0  0  0  0  0
   34.4800   28.2440   38.0290 C   0  0  0  0  0  0  0  0  0  0  0  0
   34.2910   29.1540   39.0980 C   0  0  0  0  0  0  0  0  0  0  0  0
   35.0740   29.0380   40.1810 N   0  0  0  0  0  0  0  0  0  0  0  0
   36.0310   28.1020   40.3080 C   0  0  0  0  0  0  0  0  0  0  0  0
   36.2130   27.2260   39.2800 N   0  0  0  0  0  0  0  0  0  0  0  0
   35.5900   26.6110   37.3490 H   0  0  0  0  0  0  0  0  0  0  0  0
   33.5330   29.9260   39.0420 H   0  0  0  0  0  0  0  0  0  0  0  0
   36.9140   27.9190   41.4490 C   0  0  0  0  0  0  0  0  0  0  0  0
   36.4330   27.8350   42.7460 C   0  0  0  0  0  0  0  0  0  0  0  0
   37.5410   27.6630   43.5770 C   0  0  0  0  0  0  0  0  0  0  0  0
   38.6250   27.6500   42.7800 N   0  0  0  0  0  0  0  0  0  0  0  0
   38.2380   27.8040   41.5170 N   0  0  0  0  0  0  0  0  0  0  0  0
   35.4330   27.8770   43.1660 H   0  0  0  0  0  0  0  0  0  0  0  0
   37.5650   27.5570   44.6550 H   0  0  0  0  0  0  0  0  0  0  0  0
   39.9800   27.4950   43.2150 C   0  0  0  0  0  0  0  0  0  0  0  0
   40.4880   26.5890   44.0330 C   0  0  0  0  0  0  0  0  0  0  0  0
   39.8510   25.8130   44.4820 H   0  0  0  0  0  0  0  0  0  0  0  0
   41.8330   26.6410   44.3060 C   0  0  0  0  0  3  0  0  0  0  0  0
   42.5740   27.6220   43.7210 C   0  0  0  0  0  3  0  0  0  0  0  0
   41.2850   28.5250   42.7260 S   0  0  0  0  0  0  0  0  0  0  0  0
   33.6720   28.3660   36.9170 O   0  0  0  0  0  0  0  0  0  0  0  0
   32.5870   29.2360   36.8190 C   0  0  0  0  0  0  0  0  0  0  0  0
   31.6530   29.5200   37.7830 C   0  0  0  0  0  0  0  0  0  0  0  0
   30.6420   30.4140   37.5020 C   0  0  0  0  0  0  0  0  0  0  0  0
   30.5170   31.0470   36.2830 C   0  0  0  0  0  0  0  0  0  0  0  0
   29.5080   31.9000   36.0910 N   0  0  0  0  0  0  0  0  0  0  0  0
   29.3570   32.5400   34.9030 C   0  0  0  0  0  0  0  0  0  0  0  0
   30.2770   32.2740   33.9190 C   0  0  0  0  0  0  0  0  0  0  0  0
   31.3500   31.3730   34.1140 C   0  0  0  0  0  0  0  0  0  0  0  0
   31.4720   30.7390   35.3350 C   0  0  0  0  0  0  0  0  0  0  0  0
   32.5110   29.8490   35.5620 C   0  0  0  0  0  0  0  0  0  0  0  0
   31.7850   29.0070   38.7160 H   0  0  0  0  0  0  0  0  0  0  0  0
   29.9440   30.5870   38.3100 H   0  0  0  0  0  0  0  0  0  0  0  0
   28.5440   33.2250   34.7520 H   0  0  0  0  0  0  0  0  0  0  0  0
   30.1420   32.7920   32.9790 H   0  0  0  0  0  0  0  0  0  0  0  0
   32.0400   31.2010   33.3130 H   0  0  0  0  0  0  0  0  0  0  0  0
   33.2030   29.6800   34.7550 H   0  0  0  0  0  0  0  0  0  0  0  0
  1  6  1  0  0  0  0
  2  1  2  0  0  0  0
  2  3  1  0  0  0  0
  3  4  2  0  0  0  0
  4  5  1  0  0  0  0
  5  9  1  0  0  0  0
  6  5  2  0  0  0  0
  7  1  1  0  0  0  0
  8  3  1  0  0  0  0
  9 13  2  0  0  0  0
  9 10  1  0  0  0  0
 10 14  1  0  0  0  0
 10 11  2  0  0  0  0
 11 15  1  0  0  0  0
 12 16  1  0  0  0  0
 12 11  1  0  0  0  0
 13 12  1  0  0  0  0
 16 17  2  0  0  0  0
 17 19  1  0  0  0  0
 17 18  1  0  0  0  0
 20 19  2  0  0  0  0
 21 16  1  0  0  0  0
 21 20  1  0  0  0  0
 22  2  1  0  0  0  0
 23 22  1  0  0  0  0
 23 24  1  0  0  0  0
 24 33  1  0  0  0  0
 25 24  2  0  0  0  0
 25 34  1  0  0  0  0
 26 25  1  0  0  0  0
 27 26  1  0  0  0  0
 28 27  2  0  0  0  0
 29 30  2  0  0  0  0
 29 28  1  0  0  0  0
 30 31  1  0  0  0  0
 31 32  1  0  0  0  0
 31 26  2  0  0  0  0
 32 23  2  0  0  0  0
 35 28  1  0  0  0  0
 36 29  1  0  0  0  0
 37 30  1  0  0  0  0
 38 32  1  0  0  0  0
M  END
>  <minimizedAffinity>
-6.12087536

$$$$

 OpenBabel03242514003D

 38 42  0  0  0  0  0  0  0  0999 V2000
   36.5060   30.1060   39.7690 C   0  0  0  0  0  0  0  0  0  0  0  0
   37.1980   30.9720   40.5930 C   0  0  0  0  0  0  0  0  0  0  0  0
   37.8840   30.4000   41.6920 C   0  0  0  0  0  0  0  0  0  0  0  0
   37.8220   29.0720   41.8630 N   0  0  0  0  0  0  0  0  0  0  0  0
   37.1410   28.2490   41.0460 C   0  0  0  0  0  0  0  0  0  0  0  0
   36.4790   28.7980   39.9880 N   0  0  0  0  0  0  0  0  0  0  0  0
   35.9900   30.5730   38.9370 H   0  0  0  0  0  0  0  0  0  0  0  0
   38.4470   31.0210   42.3780 H   0  0  0  0  0  0  0  0  0  0  0  0
   37.0310   26.8040   41.1700 C   0  0  0  0  0  0  0  0  0  0  0  0
   37.0600   26.1670   42.4000 C   0  0  0  0  0  0  0  0  0  0  0  0
   36.9310   24.8000   42.1500 C   0  0  0  0  0  0  0  0  0  0  0  0
   36.8330   24.6580   40.8150 N   0  0  0  0  0  0  0  0  0  0  0  0
   36.8940   25.8580   40.2440 N   0  0  0  0  0  0  0  0  0  0  0  0
   37.1560   26.5310   43.4180 H   0  0  0  0  0  0  0  0  0  0  0  0
   36.9120   23.9830   42.8610 H   0  0  0  0  0  0  0  0  0  0  0  0
   36.6850   23.4190   40.1150 C   0  0  0  0  0  0  0  0  0  0  0  0
   35.6440   22.9720   39.4330 C   0  0  0  0  0  0  0  0  0  0  0  0
   34.7280   23.5740   39.3420 H   0  0  0  0  0  0  0  0  0  0  0  0
   35.7360   21.7360   38.8400 C   0  0  0  0  0  3  0  0  0  0  0  0
   36.8940   21.0350   38.9840 C   0  0  0  0  0  3  0  0  0  0  0  0
   37.9110   22.1980   40.0240 S   0  0  0  0  0  0  0  0  0  0  0  0
   37.2640   32.3390   40.4220 O   0  0  0  0  0  0  0  0  0  0  0  0
   38.4260   33.0440   40.1130 C   0  0  0  0  0  0  0  0  0  0  0  0
   38.8960   34.1840   40.7140 C   0  0  0  0  0  0  0  0  0  0  0  0
   40.0750   34.7450   40.2690 C   0  0  0  0  0  0  0  0  0  0  0  0
   40.8170   34.2130   39.2370 C   0  0  0  0  0  0  0  0  0  0  0  0
   41.9490   34.8170   38.8660 N   0  0  0  0  0  0  0  0  0  0  0  0
   42.7020   34.3180   37.8540 C   0  0  0  0  0  0  0  0  0  0  0  0
   42.2540   33.1770   37.2330 C   0  0  0  0  0  0  0  0  0  0  0  0
   41.0580   32.5300   37.6200 C   0  0  0  0  0  0  0  0  0  0  0  0
   40.3160   33.0660   38.6540 C   0  0  0  0  0  0  0  0  0  0  0  0
   39.1370   32.4580   39.0600 C   0  0  0  0  0  0  0  0  0  0  0  0
   38.2900   34.5670   41.5120 H   0  0  0  0  0  0  0  0  0  0  0  0
   40.3820   35.6420   40.7910 H   0  0  0  0  0  0  0  0  0  0  0  0
   43.6120   34.8080   37.5580 H   0  0  0  0  0  0  0  0  0  0  0  0
   42.8670   32.7940   36.4290 H   0  0  0  0  0  0  0  0  0  0  0  0
   40.7550   31.6420   37.1020 H   0  0  0  0  0  0  0  0  0  0  0  0
   38.8360   31.5660   38.5370 H   0  0  0  0  0  0  0  0  0  0  0  0
  1  6  2  0  0  0  0
  1  2  1  0  0  0  0
  2  3  2  0  0  0  0
  3  4  1  0  0  0  0
  3  8  1  0  0  0  0
  5  9  1  0  0  0  0
  5  4  2  0  0  0  0
  6  5  1  0  0  0  0
  7  1  1  0  0  0  0
  9 10  1  0  0  0  0
 10 14  1  0  0  0  0
 11 10  2  0  0  0  0
 11 15  1  0  0  0  0
 12 11  1  0  0  0  0
 13 12  1  0  0  0  0
 13  9  2  0  0  0  0
 16 12  1  0  0  0  0
 17 16  2  0  0  0  0
 18 17  1  0  0  0  0
 19 20  2  0  0  0  0
 19 17  1  0  0  0  0
 20 21  1  0  0  0  0
 21 16  1  0  0  0  0
 22  2  1  0  0  0  0
 23 22  1  0  0  0  0
 23 24  1  0  0  0  0
 24 33  1  0  0  0  0
 25 24  2  0  0  0  0
 25 34  1  0  0  0  0
 26 25  1  0  0  0  0
 27 26  1  0  0  0  0
 28 27  2  0  0  0  0
 29 30  2  0  0  0  0
 29 28  1  0  0  0  0
 30 31  1  0  0  0  0
 31 32  1  0  0  0  0
 31 26  2  0  0  0  0
 32 23  2  0  0  0  0
 35 28  1  0  0  0  0
 36 29  1  0  0  0  0
 37 30  1  0  0  0  0
 38 32  1  0  0  0  0
M  END
>  <minimizedAffinity>
-6.11011219

$$$$

 OpenBabel03242514003D

 38 42  0  0  0  0  0  0  0  0999 V2000
   36.9870   26.9500   40.3120 C   0  0  0  0  0  0  0  0  0  0  0  0
   37.2330   26.3780   41.5450 C   0  0  0  0  0  0  0  0  0  0  0  0
   37.6590   27.2470   42.5800 C   0  0  0  0  0  0  0  0  0  0  0  0
   37.7950   28.5510   42.3040 N   0  0  0  0  0  0  0  0  0  0  0  0
   37.5490   29.0830   41.0930 C   0  0  0  0  0  0  0  0  0  0  0  0
   37.1390   28.2490   40.0960 N   0  0  0  0  0  0  0  0  0  0  0  0
   36.6620   26.2600   39.5400 H   0  0  0  0  0  0  0  0  0  0  0  0
   37.8690   26.8650   43.5720 H   0  0  0  0  0  0  0  0  0  0  0  0
   37.6740   30.4850   40.7240 C   0  0  0  0  0  0  0  0  0  0  0  0
   36.6610   31.1670   40.0700 C   0  0  0  0  0  0  0  0  0  0  0  0
   37.1140   32.4720   39.8740 C   0  0  0  0  0  0  0  0  0  0  0  0
   38.3520   32.5350   40.3990 N   0  0  0  0  0  0  0  0  0  0  0  0
   38.6730   31.3460   40.9010 N   0  0  0  0  0  0  0  0  0  0  0  0
   35.6750   30.8710   39.7260 H   0  0  0  0  0  0  0  0  0  0  0  0
   36.6020   33.2990   39.3970 H   0  0  0  0  0  0  0  0  0  0  0  0
   39.1930   33.6930   40.4190 C   0  0  0  0  0  0  0  0  0  0  0  0
   38.8450   34.9680   40.4690 C   0  0  0  0  0  0  0  0  0  0  0  0
   37.7850   35.2640   40.5050 H   0  0  0  0  0  0  0  0  0  0  0  0
   39.8400   35.9150   40.4780 C   0  0  0  0  0  3  0  0  0  0  0  0
   41.1340   35.4920   40.4340 C   0  0  0  0  0  3  0  0  0  0  0  0
   40.9240   33.6430   40.3750 S   0  0  0  0  0  0  0  0  0  0  0  0
   37.0950   25.0360   41.8340 O   0  0  0  0  0  0  0  0  0  0  0  0
   36.8450   24.0430   40.8880 C   0  0  0  0  0  0  0  0  0  0  0  0
   35.7950   23.9730   40.0080 C   0  0  0  0  0  0  0  0  0  0  0  0
   35.7130   22.9060   39.1390 C   0  0  0  0  0  0  0  0  0  0  0  0
   36.6450   21.8900   39.1060 C   0  0  0  0  0  0  0  0  0  0  0  0
   36.4930   20.8910   38.2330 N   0  0  0  0  0  0  0  0  0  0  0  0
   37.3920   19.8770   38.1770 C   0  0  0  0  0  0  0  0  0  0  0  0
   38.4540   19.9210   39.0470 C   0  0  0  0  0  0  0  0  0  0  0  0
   38.6230   20.9750   39.9740 C   0  0  0  0  0  0  0  0  0  0  0  0
   37.6880   21.9910   40.0050 C   0  0  0  0  0  0  0  0  0  0  0  0
   37.8230   23.0410   40.9020 C   0  0  0  0  0  0  0  0  0  0  0  0
   35.0930   24.7810   40.0650 H   0  0  0  0  0  0  0  0  0  0  0  0
   34.8590   22.9190   38.4760 H   0  0  0  0  0  0  0  0  0  0  0  0
   37.2660   19.0750   37.4730 H   0  0  0  0  0  0  0  0  0  0  0  0
   39.1600   19.1050   38.9880 H   0  0  0  0  0  0  0  0  0  0  0  0
   39.4700   20.9620   40.6310 H   0  0  0  0  0  0  0  0  0  0  0  0
   38.6740   23.0240   41.5590 H   0  0  0  0  0  0  0  0  0  0  0  0
  1  2  1  0  0  0  0
  2 22  1  0  0  0  0
  2  3  2  0  0  0  0
  3  8  1  0  0  0  0
  4  3  1  0  0  0  0
  5  4  2  0  0  0  0
  6  1  2  0  0  0  0
  6  5  1  0  0  0  0
  7  1  1  0  0  0  0
  9 13  2  0  0  0  0
  9  5  1  0  0  0  0
 10  9  1  0  0  0  0
 11 10  2  0  0  0  0
 11 12  1  0  0  0  0
 12 16  1  0  0  0  0
 12 13  1  0  0  0  0
 14 10  1  0  0  0  0
 15 11  1  0  0  0  0
 16 17  2  0  0  0  0
 17 19  1  0  0  0  0
 17 18  1  0  0  0  0
 20 19  2  0  0  0  0
 21 16  1  0  0  0  0
 21 20  1  0  0  0  0
 23 32  1  0  0  0  0
 23 22  1  0  0  0  0
 24 33  1  0  0  0  0
 24 23  2  0  0  0  0
 25 24  1  0  0  0  0
 26 25  2  0  0  0  0
 26 31  1  0  0  0  0
 27 26  1  0  0  0  0
 28 27  2  0  0  0  0
 28 29  1  0  0  0  0
 29 30  2  0  0  0  0
 30 31  1  0  0  0  0
 30 37  1  0  0  0  0
 31 32  2  0  0  0  0
 32 38  1  0  0  0  0
 34 25  1  0  0  0  0
 35 28  1  0  0  0  0
 36 29  1  0  0  0  0
M  END
>  <minimizedAffinity>
-6.02359819

$$$$

 OpenBabel03242514003D

 38 42  0  0  0  0  0  0  0  0999 V2000
   38.4960   30.7320   39.1640 C   0  0  0  0  0  0  0  0  0  0  0  0
   37.8600   31.8150   39.7390 C   0  0  0  0  0  0  0  0  0  0  0  0
   36.9440   31.5390   40.7850 C   0  0  0  0  0  0  0  0  0  0  0  0
   36.7550   30.2620   41.1470 N   0  0  0  0  0  0  0  0  0  0  0  0
   37.3880   29.2250   40.5710 C   0  0  0  0  0  0  0  0  0  0  0  0
   38.2680   29.4890   39.5640 N   0  0  0  0  0  0  0  0  0  0  0  0
   39.1900   30.9750   38.3660 H   0  0  0  0  0  0  0  0  0  0  0  0
   36.4110   32.3410   41.2800 H   0  0  0  0  0  0  0  0  0  0  0  0
   37.2320   27.8200   40.9130 C   0  0  0  0  0  0  0  0  0  0  0  0
   37.0710   27.3940   42.2210 C   0  0  0  0  0  0  0  0  0  0  0  0
   36.9520   26.0040   42.1820 C   0  0  0  0  0  0  0  0  0  0  0  0
   37.0440   25.6440   40.8880 N   0  0  0  0  0  0  0  0  0  0  0  0
   37.2100   26.7340   40.1440 N   0  0  0  0  0  0  0  0  0  0  0  0
   37.0270   27.9210   43.1690 H   0  0  0  0  0  0  0  0  0  0  0  0
   36.8140   25.3150   43.0070 H   0  0  0  0  0  0  0  0  0  0  0  0
   36.9730   24.3060   40.3870 C   0  0  0  0  0  0  0  0  0  0  0  0
   35.9730   23.7080   39.7600 C   0  0  0  0  0  0  0  0  0  0  0  0
   35.0330   24.2430   39.5570 H   0  0  0  0  0  0  0  0  0  0  0  0
   36.1380   22.4020   39.3680 C   0  0  0  0  0  3  0  0  0  0  0  0
   37.3220   21.7890   39.6450 C   0  0  0  0  0  3  0  0  0  0  0  0
   38.2550   23.1470   40.5140 S   0  0  0  0  0  0  0  0  0  0  0  0
   38.0500   33.1300   39.3690 O   0  0  0  0  0  0  0  0  0  0  0  0
   39.0060   33.9790   39.9240 C   0  0  0  0  0  0  0  0  0  0  0  0
   38.9050   35.3320   40.1250 C   0  0  0  0  0  0  0  0  0  0  0  0
   39.9630   36.0120   40.6920 C   0  0  0  0  0  0  0  0  0  0  0  0
   41.1340   35.3940   41.0740 C   0  0  0  0  0  0  0  0  0  0  0  0
   42.1120   36.1240   41.6170 N   0  0  0  0  0  0  0  0  0  0  0  0
   43.2770   35.5450   42.0040 C   0  0  0  0  0  0  0  0  0  0  0  0
   43.4050   34.1910   41.8140 C   0  0  0  0  0  0  0  0  0  0  0  0
   42.3750   33.4090   41.2410 C   0  0  0  0  0  0  0  0  0  0  0  0
   41.2030   34.0320   40.8580 C   0  0  0  0  0  0  0  0  0  0  0  0
   40.1710   33.2970   40.2920 C   0  0  0  0  0  0  0  0  0  0  0  0
   37.9790   35.7760   39.8150 H   0  0  0  0  0  0  0  0  0  0  0  0
   39.8100   37.0750   40.8190 H   0  0  0  0  0  0  0  0  0  0  0  0
   44.0610   36.1360   42.4400 H   0  0  0  0  0  0  0  0  0  0  0  0
   44.3400   33.7460   42.1270 H   0  0  0  0  0  0  0  0  0  0  0  0
   42.5280   32.3560   41.1150 H   0  0  0  0  0  0  0  0  0  0  0  0
   40.3280   32.2390   40.1680 H   0  0  0  0  0  0  0  0  0  0  0  0
  1  6  2  0  0  0  0
  1  2  1  0  0  0  0
  2  3  2  0  0  0  0
  3  4  1  0  0  0  0
  3  8  1  0  0  0  0
  5  9  1  0  0  0  0
  5  4  2  0  0  0  0
  6  5  1  0  0  0  0
  7  1  1  0  0  0  0
  9 10  1  0  0  0  0
 10 14  1  0  0  0  0
 11 10  2  0  0  0  0
 11 15  1  0  0  0  0
 12 11  1  0  0  0  0
 13 12  1  0  0  0  0
 13  9  2  0  0  0  0
 16 21  1  0  0  0  0
 16 12  1  0  0  0  0
 17 16  2  0  0  0  0
 18 17  1  0  0  0  0
 19 20  2  0  0  0  0
 19 17  1  0  0  0  0
 20 21  1  0  0  0  0
 22  2  1  0  0  0  0
 22 23  1  0  0  0  0
 23 24  2  0  0  0  0
 23 32  1  0  0  0  0
 24 25  1  0  0  0  0
 25 34  1  0  0  0  0
 25 26  2  0  0  0  0
 26 27  1  0  0  0  0
 27 28  2  0  0  0  0
 28 35  1  0  0  0  0
 29 28  1  0  0  0  0
 29 36  1  0  0  0  0
 30 29  2  0  0  0  0
 31 26  1  0  0  0  0
 31 30  1  0  0  0  0
 32 31  2  0  0  0  0
 33 24  1  0  0  0  0
 37 30  1  0  0  0  0
 38 32  1  0  0  0  0
M  END
>  <minimizedAffinity>
-6.02327108

$$$$

 OpenBabel03242514003D

 38 42  0  0  0  0  0  0  0  0999 V2000
   39.3900   32.0750   41.2350 C   0  0  0  0  0  0  0  0  0  0  0  0
   40.1330   32.3400   40.1010 C   0  0  0  0  0  0  0  0  0  0  0  0
   40.3930   31.2490   39.2360 C   0  0  0  0  0  0  0  0  0  0  0  0
   39.9080   30.0430   39.5650 N   0  0  0  0  0  0  0  0  0  0  0  0
   39.1860   29.8110   40.6760 C   0  0  0  0  0  0  0  0  0  0  0  0
   38.9370   30.8600   41.5100 N   0  0  0  0  0  0  0  0  0  0  0  0
   39.2090   32.9310   41.8780 H   0  0  0  0  0  0  0  0  0  0  0  0
   40.9690   31.3860   38.3280 H   0  0  0  0  0  0  0  0  0  0  0  0
   38.6300   28.5340   41.0940 C   0  0  0  0  0  0  0  0  0  0  0  0
   38.1350   28.3300   42.3720 C   0  0  0  0  0  0  0  0  0  0  0  0
   37.6870   27.0100   42.4260 C   0  0  0  0  0  0  0  0  0  0  0  0
   37.9200   26.4720   41.2140 N   0  0  0  0  0  0  0  0  0  0  0  0
   38.4820   27.3900   40.4320 N   0  0  0  0  0  0  0  0  0  0  0  0
   38.0510   28.9730   43.2420 H   0  0  0  0  0  0  0  0  0  0  0  0
   37.2360   26.4840   43.2590 H   0  0  0  0  0  0  0  0  0  0  0  0
   37.6140   25.1300   40.8230 C   0  0  0  0  0  0  0  0  0  0  0  0
   38.0440   23.9960   41.3500 C   0  0  0  0  0  0  0  0  0  0  0  0
   38.7310   23.9970   42.2090 H   0  0  0  0  0  0  0  0  0  0  0  0
   37.6090   22.8150   40.7990 C   0  0  0  0  0  3  0  0  0  0  0  0
   36.7580   22.8730   39.7370 C   0  0  0  0  0  3  0  0  0  0  0  0
   36.5660   24.7120   39.5090 S   0  0  0  0  0  0  0  0  0  0  0  0
   40.6350   33.5790   39.7590 O   0  0  0  0  0  0  0  0  0  0  0  0
   41.3970   34.3860   40.6020 C   0  0  0  0  0  0  0  0  0  0  0  0
   41.1850   35.7060   40.9100 C   0  0  0  0  0  0  0  0  0  0  0  0
   42.0520   36.3460   41.7710 C   0  0  0  0  0  0  0  0  0  0  0  0
   43.1360   35.7200   42.3480 C   0  0  0  0  0  0  0  0  0  0  0  0
   43.9280   36.4110   43.1720 N   0  0  0  0  0  0  0  0  0  0  0  0
   45.0030   35.8240   43.7550 C   0  0  0  0  0  0  0  0  0  0  0  0
   45.2390   34.5020   43.4640 C   0  0  0  0  0  0  0  0  0  0  0  0
   44.4060   33.7620   42.5930 C   0  0  0  0  0  0  0  0  0  0  0  0
   43.3210   34.3920   42.0170 C   0  0  0  0  0  0  0  0  0  0  0  0
   42.4820   33.6980   41.1570 C   0  0  0  0  0  0  0  0  0  0  0  0
   40.3320   36.1570   40.4410 H   0  0  0  0  0  0  0  0  0  0  0  0
   41.8210   37.3850   41.9660 H   0  0  0  0  0  0  0  0  0  0  0  0
   45.6370   36.3830   44.4170 H   0  0  0  0  0  0  0  0  0  0  0  0
   46.1000   34.0510   43.9380 H   0  0  0  0  0  0  0  0  0  0  0  0
   44.6350   32.7330   42.4010 H   0  0  0  0  0  0  0  0  0  0  0  0
   42.7150   32.6650   40.9670 H   0  0  0  0  0  0  0  0  0  0  0  0
  1  6  1  0  0  0  0
  1  7  1  0  0  0  0
  2  1  2  0  0  0  0
  3  4  2  0  0  0  0
  3  2  1  0  0  0  0
  4  5  1  0  0  0  0
  5  9  1  0  0  0  0
  5  6  2  0  0  0  0
  8  3  1  0  0  0  0
  9 10  1  0  0  0  0
 10 11  2  0  0  0  0
 10 14  1  0  0  0  0
 11 15  1  0  0  0  0
 12 11  1  0  0  0  0
 13  9  2  0  0  0  0
 13 12  1  0  0  0  0
 16 12  1  0  0  0  0
 16 17  2  0  0  0  0
 17 18  1  0  0  0  0
 19 17  1  0  0  0  0
 20 19  2  0  0  0  0
 21 20  1  0  0  0  0
 21 16  1  0  0  0  0
 22  2  1  0  0  0  0
 22 23  1  0  0  0  0
 23 24  2  0  0  0  0
 23 32  1  0  0  0  0
 24 25  1  0  0  0  0
 25 34  1  0  0  0  0
 25 26  2  0  0  0  0
 26 27  1  0  0  0  0
 27 28  2  0  0  0  0
 28 35  1  0  0  0  0
 29 28  1  0  0  0  0
 29 36  1  0  0  0  0
 30 29  2  0  0  0  0
 31 26  1  0  0  0  0
 31 30  1  0  0  0  0
 32 31  2  0  0  0  0
 33 24  1  0  0  0  0
 37 30  1  0  0  0  0
 38 32  1  0  0  0  0
M  END
>  <minimizedAffinity>
-5.91379547

$$$$
