
 OpenBabel03242518073D

 32 34  0  0  1  0  0  0  0  0999 V2000
   46.2730   34.1500   42.8410 N   0  0  0  0  0  0  0  0  0  0  0  0
   46.9140   35.3890   42.5630 C   0  0  0  0  0  0  0  0  0  0  0  0
   47.9410   35.2140   41.5110 C   0  0  0  0  0  0  0  0  0  0  0  0
   47.8140   34.0480   40.6150 C   0  0  0  0  0  0  0  0  0  0  0  0
   46.4950   33.3720   40.5440 C   0  0  0  0  0  0  0  0  0  0  0  0
   45.6540   33.4040   41.7900 C   0  0  2  0  0  0  0  0  0  0  0  0
   46.1630   36.1300   42.2230 H   0  0  0  0  0  0  0  0  0  0  0  0
   47.3730   35.8270   43.4960 H   0  0  0  0  0  0  0  0  0  0  0  0
   48.9440   35.1730   42.0170 H   0  0  0  0  0  0  0  0  0  0  0  0
   48.0080   36.1800   40.9280 H   0  0  0  0  0  0  0  0  0  0  0  0
   48.5820   33.2610   40.8790 H   0  0  0  0  0  0  0  0  0  0  0  0
   48.1100   34.3580   39.5880 H   0  0  0  0  0  0  0  0  0  0  0  0
   46.6600   32.3180   40.1710 H   0  0  0  0  0  0  0  0  0  0  0  0
   45.9170   33.8440   39.7250 H   0  0  0  0  0  0  0  0  0  0  0  0
   45.5360   32.3530   42.1250 H   0  0  0  0  0  0  0  0  0  0  0  0
   45.3540   34.2000   45.1100 C   0  0  0  0  0  0  0  0  0  0  0  0
   46.2510   33.6560   44.1780 C   0  0  0  0  0  0  0  0  0  0  0  0
   47.1130   32.6170   44.6190 C   0  0  0  0  0  0  0  0  0  0  0  0
   47.0070   32.2260   45.9080 N   0  0  0  0  0  0  0  0  0  0  0  0
   46.1300   32.7780   46.7720 C   0  0  0  0  0  0  0  0  0  0  0  0
   45.3070   33.7620   46.3730 N   0  0  0  0  0  0  0  0  0  0  0  0
   44.4920   35.2340   44.6730 N   0  0  0  0  0  0  0  0  0  0  0  0
   47.8080   32.1900   43.9070 H   0  0  0  0  0  0  0  0  0  0  0  0
   46.0580   32.4540   47.8020 H   0  0  0  0  0  0  0  0  0  0  0  0
   45.1010   36.0520   44.3840 H   0  0  0  0  0  0  0  0  0  0  0  0
   43.4650   35.3120   44.5940 H   0  0  0  0  0  0  0  0  0  0  0  0
   44.2890   33.8850   41.4570 C   0  0  0  0  0  0  0  0  0  0  0  0
   43.8800   35.1470   41.1230 C   0  0  0  0  0  0  0  0  0  0  0  0
   44.6060   35.9460   41.0730 H   0  0  0  0  0  0  0  0  0  0  0  0
   42.5710   35.3570   40.8640 C   0  0  0  0  0  0  0  0  0  0  0  0
   41.7000   34.2580   40.9560 C   0  0  0  0  0  0  0  0  0  0  0  0
   42.8670   32.8390   41.4470 S   0  0  0  0  0  0  0  0  0  0  0  0
  1 17  1  0  0  0  0
  2  1  1  0  0  0  0
  2  8  1  0  0  0  0
  3  9  1  0  0  0  0
  3  2  1  0  0  0  0
  4 11  1  0  0  0  0
  4  3  1  0  0  0  0
  5  4  1  0  0  0  0
  5  6  1  0  0  0  0
  6 15  1  1  0  0  0
  6  1  1  0  0  0  0
  7  2  1  0  0  0  0
 10  3  1  0  0  0  0
 12  4  1  0  0  0  0
 13  5  1  0  0  0  0
 14  5  1  0  0  0  0
 16 21  1  0  0  0  0
 17 18  1  0  0  0  0
 17 16  2  0  0  0  0
 18 19  2  0  0  0  0
 19 20  1  0  0  0  0
 20 24  1  0  0  0  0
 21 20  2  0  0  0  0
 22 16  1  0  0  0  0
 23 18  1  0  0  0  0
 25 22  1  0  0  0  0
 26 22  1  0  0  0  0
 27  6  1  0  0  0  0
 28 27  2  0  0  0  0
 29 28  1  0  0  0  0
 30 31  2  0  0  0  0
 30 28  1  0  0  0  0
 31 32  1  0  0  0  0
 32 27  1  0  0  0  0
M  END
>  <minimizedAffinity>
-5.08838272

>  <minimizedRMSD>
2.090137

$$$$
