
 OpenBabel03252505513D

 22 23  0  0  0  0  0  0  0  0999 V2000
   44.6320   35.2540   45.1720 C   0  0  0  0  0  0  0  0  0  0  0  0
   45.3490   34.9920   44.0060 C   0  0  0  0  0  0  0  0  0  0  0  0
   46.2780   33.9330   44.0320 C   0  0  0  0  0  0  0  0  0  0  0  0
   46.4300   33.2270   45.1760 N   0  0  0  0  0  0  0  0  0  0  0  0
   45.7190   33.5120   46.2750 C   0  0  0  0  0  0  0  0  0  0  0  0
   44.8200   34.5170   46.2950 N   0  0  0  0  0  0  0  0  0  0  0  0
   43.9160   36.0620   45.1680 H   0  0  0  0  0  0  0  0  0  0  0  0
   46.8080   33.7620   43.1240 H   0  0  0  0  0  0  0  0  0  0  0  0
   45.0750   35.8560   42.8100 C   0  0  0  0  0  0  0  0  0  0  0  0
   45.2860   37.1380   43.2240 F   0  0  0  0  0  0  0  0  0  0  0  0
   43.7300   35.6690   42.5020 F   0  0  0  0  0  0  0  0  0  0  0  0
   45.8740   35.4310   41.7840 F   0  0  0  0  0  0  0  0  0  0  0  0
   45.8440   32.8140   47.4620 O   0  0  0  0  0  0  0  0  0  0  0  0
   47.0180   32.1050   47.8000 C   0  0  0  0  0  0  0  0  0  0  0  0
   47.8320   32.2860   47.0490 H   0  0  0  0  0  0  0  0  0  0  0  0
   47.3680   32.3010   48.8280 H   0  0  0  0  0  0  0  0  0  0  0  0
   46.6860   30.6600   47.6750 C   0  0  0  0  0  0  0  0  0  0  0  0
   47.4560   29.6070   47.3900 C   0  0  0  0  0  0  0  0  0  0  0  0
   48.5100   29.7830   47.2130 H   0  0  0  0  0  0  0  0  0  0  0  0
   46.9430   28.3400   47.3220 C   0  0  0  0  0  0  0  0  0  0  0  0
   45.5160   28.2780   47.5850 C   0  0  0  0  0  0  0  0  0  0  0  0
   45.0810   30.0760   47.9020 S   0  0  0  0  0  0  0  0  0  0  0  0
  1  6  1  0  0  0  0
  2  3  1  0  0  0  0
  2  1  2  0  0  0  0
  3  4  2  0  0  0  0
  4  5  1  0  0  0  0
  5  6  2  0  0  0  0
  5 13  1  0  0  0  0
  7  1  1  0  0  0  0
  8  3  1  0  0  0  0
  9 10  1  0  0  0  0
  9  2  1  0  0  0  0
 11  9  1  0  0  0  0
 12  9  1  0  0  0  0
 13 14  1  0  0  0  0
 14 16  1  0  0  0  0
 15 14  1  0  0  0  0
 17 14  1  0  0  0  0
 17 22  1  0  0  0  0
 18 17  2  0  0  0  0
 19 18  1  0  0  0  0
 20 18  1  0  0  0  0
 20 21  2  0  0  0  0
 21 22  1  0  0  0  0
M  END
>  <minimizedAffinity>
-4.50828648

>  <minimizedRMSD>
2.38268089

$$$$
