
 OpenBabel03242511483D

 41 43  0  0  0  0  0  0  0  0999 V2000
   38.0720   29.2050   43.0600 C   0  0  0  0  0  0  0  0  0  0  0  0
   39.1480   29.2990   42.8070 H   0  0  0  0  0  0  0  0  0  0  0  0
   37.8760   30.0130   43.7940 H   0  0  0  0  0  0  0  0  0  0  0  0
   35.4770   28.9510   40.4920 C   0  0  0  0  0  0  0  0  0  0  0  0
   35.8120   30.0030   39.6110 C   0  0  0  0  0  0  0  0  0  0  0  0
   36.9130   30.7530   39.9390 C   0  0  0  0  0  0  0  0  0  0  0  0
   37.6200   30.4730   41.0530 N   0  0  0  0  0  0  0  0  0  0  0  0
   37.2510   29.4500   41.8590 C   0  0  0  0  0  0  0  0  0  0  0  0
   36.2090   28.7010   41.5990 N   0  0  0  0  0  0  0  0  0  0  0  0
   34.6100   28.3360   40.2630 H   0  0  0  0  0  0  0  0  0  0  0  0
   35.1660   30.1240   38.7540 H   0  0  0  0  0  0  0  0  0  0  0  0
   37.2580   31.8590   39.0070 C   0  0  0  0  0  0  0  0  0  0  0  0
   38.2240   31.6760   38.5280 H   0  0  0  0  0  0  0  0  0  0  0  0
   36.5110   31.9310   38.1830 H   0  0  0  0  0  0  0  0  0  0  0  0
   37.2720   33.2020   39.7110 C   0  0  0  0  0  0  0  0  0  0  0  0
   36.6870   33.9520   39.1390 H   0  0  0  0  0  0  0  0  0  0  0  0
   36.8870   33.1150   40.7460 H   0  0  0  0  0  0  0  0  0  0  0  0
   38.6750   33.6720   39.7330 C   0  0  0  0  0  0  0  0  0  0  0  0
   39.8360   33.1230   39.3780 C   0  0  0  0  0  0  0  0  0  0  0  0
   39.7740   32.1140   38.9850 H   0  0  0  0  0  0  0  0  0  0  0  0
   41.0180   33.7850   39.5010 C   0  0  0  0  0  3  0  0  0  0  0  0
   40.9240   35.0980   40.0340 C   0  0  0  0  0  3  0  0  0  0  0  0
   39.0700   35.2740   40.3230 S   0  0  0  0  0  0  0  0  0  0  0  0
   37.7250   27.8470   43.6170 C   0  0  0  0  0  0  0  0  0  0  0  0
   37.4720   27.9510   44.6900 H   0  0  0  0  0  0  0  0  0  0  0  0
   36.7890   27.4490   43.1380 H   0  0  0  0  0  0  0  0  0  0  0  0
   38.7900   26.8840   43.4270 C   0  0  0  0  0  0  0  0  0  0  0  0
   40.0700   26.9250   43.9210 C   0  0  0  0  0  0  0  0  0  0  0  0
   41.0010   25.9600   43.6840 C   0  0  0  0  0  0  0  0  0  0  0  0
   40.6350   24.8810   42.9010 C   0  0  0  0  0  0  0  0  0  0  0  0
   39.3550   24.8340   42.4020 C   0  0  0  0  0  0  0  0  0  0  0  0
   38.4310   25.8230   42.6570 C   0  0  0  0  0  0  0  0  0  0  0  0
   40.3140   27.7910   44.5320 H   0  0  0  0  0  0  0  0  0  0  0  0
   41.9810   26.0750   44.1130 H   0  0  0  0  0  0  0  0  0  0  0  0
   41.4270   24.1470   42.7510 H   0  0  0  0  0  0  0  0  0  0  0  0
   39.2340   23.9200   41.8100 H   0  0  0  0  0  0  0  0  0  0  0  0
   37.2230   25.6850   40.5610 C   0  0  0  0  0  0  0  0  0  0  0  0
   38.0340   26.1340   39.6550 O   0  0  0  0  0  0  0  0  0  0  0  0
   37.2120   25.4640   41.9860 N   0  0  0  0  0  0  0  0  0  0  0  0
   36.3920   25.4670   39.8920 H   0  0  0  0  0  0  0  0  0  0  0  0
   36.3140   25.0780   42.2840 H   0  0  0  0  0  0  0  0  0  0  0  0
  1 24  1  0  0  0  0
  1  3  1  0  0  0  0
  2  1  1  0  0  0  0
  4  9  1  0  0  0  0
  5  6  1  0  0  0  0
  5  4  2  0  0  0  0
  6  7  2  0  0  0  0
  7  8  1  0  0  0  0
  8  1  1  0  0  0  0
  9  8  2  0  0  0  0
 10  4  1  0  0  0  0
 11  5  1  0  0  0  0
 12 15  1  0  0  0  0
 12  6  1  0  0  0  0
 13 12  1  0  0  0  0
 14 12  1  0  0  0  0
 15 18  1  0  0  0  0
 15 17  1  0  0  0  0
 16 15  1  0  0  0  0
 18 23  1  0  0  0  0
 19 21  1  0  0  0  0
 19 18  2  0  0  0  0
 20 19  1  0  0  0  0
 21 22  2  0  0  0  0
 22 23  1  0  0  0  0
 24 25  1  0  0  0  0
 26 24  1  0  0  0  0
 27 24  1  0  0  0  0
 27 28  1  0  0  0  0
 28 33  1  0  0  0  0
 29 28  2  0  0  0  0
 29 34  1  0  0  0  0
 30 29  1  0  0  0  0
 31 32  1  0  0  0  0
 31 30  2  0  0  0  0
 32 27  2  0  0  0  0
 35 30  1  0  0  0  0
 36 31  1  0  0  0  0
 37 39  1  0  0  0  0
 38 37  2  0  0  0  0
 39 41  1  0  0  0  0
 39 32  1  0  0  0  0
 40 37  1  0  0  0  0
M  END
>  <minimizedAffinity>
-5.92619371

$$$$

 OpenBabel03242511483D

 41 43  0  0  0  0  0  0  0  0999 V2000
   35.7110   28.9690   40.9470 C   0  0  0  0  0  0  0  0  0  0  0  0
   35.6000   28.4090   39.9970 H   0  0  0  0  0  0  0  0  0  0  0  0
   34.7680   28.7880   41.5020 H   0  0  0  0  0  0  0  0  0  0  0  0
   38.3430   28.5290   43.4520 C   0  0  0  0  0  0  0  0  0  0  0  0
   38.9020   27.2820   43.0960 C   0  0  0  0  0  0  0  0  0  0  0  0
   38.3480   26.6470   42.0120 C   0  0  0  0  0  0  0  0  0  0  0  0
   37.3250   27.2130   41.3410 N   0  0  0  0  0  0  0  0  0  0  0  0
   36.8320   28.4130   41.7290 C   0  0  0  0  0  0  0  0  0  0  0  0
   37.3180   29.0650   42.7560 N   0  0  0  0  0  0  0  0  0  0  0  0
   38.7580   29.0600   44.3060 H   0  0  0  0  0  0  0  0  0  0  0  0
   39.7180   26.9370   43.7130 H   0  0  0  0  0  0  0  0  0  0  0  0
   38.9420   25.3330   41.6440 C   0  0  0  0  0  0  0  0  0  0  0  0
   39.0440   25.2440   40.5590 H   0  0  0  0  0  0  0  0  0  0  0  0
   39.9690   25.2310   42.0630 H   0  0  0  0  0  0  0  0  0  0  0  0
   38.1250   24.1770   42.1880 C   0  0  0  0  0  0  0  0  0  0  0  0
   38.7870   23.3740   42.5720 H   0  0  0  0  0  0  0  0  0  0  0  0
   37.4270   24.5180   42.9790 H   0  0  0  0  0  0  0  0  0  0  0  0
   37.3630   23.6070   41.0560 C   0  0  0  0  0  0  0  0  0  0  0  0
   36.1920   23.9000   40.4920 C   0  0  0  0  0  0  0  0  0  0  0  0
   35.6560   24.7320   40.9370 H   0  0  0  0  0  0  0  0  0  0  0  0
   35.7030   23.2040   39.4310 C   0  0  0  0  0  3  0  0  0  0  0  0
   36.5290   22.1440   38.9700 C   0  0  0  0  0  3  0  0  0  0  0  0
   37.9950   22.2460   40.1500 S   0  0  0  0  0  0  0  0  0  0  0  0
   35.9570   30.4410   40.7270 C   0  0  0  0  0  0  0  0  0  0  0  0
   35.0080   30.9920   40.8820 H   0  0  0  0  0  0  0  0  0  0  0  0
   36.6560   30.8470   41.5070 H   0  0  0  0  0  0  0  0  0  0  0  0
   36.5080   30.7180   39.4170 C   0  0  0  0  0  0  0  0  0  0  0  0
   36.5290   29.9000   38.3140 C   0  0  0  0  0  0  0  0  0  0  0  0
   37.0750   30.2600   37.1190 C   0  0  0  0  0  0  0  0  0  0  0  0
   37.6380   31.5180   37.0140 C   0  0  0  0  0  0  0  0  0  0  0  0
   37.6220   32.3410   38.1150 C   0  0  0  0  0  0  0  0  0  0  0  0
   37.0630   31.9540   39.3130 C   0  0  0  0  0  0  0  0  0  0  0  0
   36.0750   28.9210   38.4410 H   0  0  0  0  0  0  0  0  0  0  0  0
   37.0460   29.5540   36.3070 H   0  0  0  0  0  0  0  0  0  0  0  0
   38.0560   31.7410   36.0320 H   0  0  0  0  0  0  0  0  0  0  0  0
   38.1050   33.2910   37.8600 H   0  0  0  0  0  0  0  0  0  0  0  0
   38.5290   33.1320   40.8400 C   0  0  0  0  0  0  0  0  0  0  0  0
   39.6610   32.5000   40.8030 O   0  0  0  0  0  0  0  0  0  0  0  0
   37.2220   33.0410   40.2380 N   0  0  0  0  0  0  0  0  0  0  0  0
   38.8310   33.8920   41.5590 H   0  0  0  0  0  0  0  0  0  0  0  0
   36.6130   33.7860   40.5830 H   0  0  0  0  0  0  0  0  0  0  0  0
  1  3  1  0  0  0  0
  1  8  1  0  0  0  0
  2  1  1  0  0  0  0
  4 10  1  0  0  0  0
  5  4  1  0  0  0  0
  5 11  1  0  0  0  0
  6  5  2  0  0  0  0
  7  8  2  0  0  0  0
  7  6  1  0  0  0  0
  8  9  1  0  0  0  0
  9  4  2  0  0  0  0
 12  6  1  0  0  0  0
 12 14  1  0  0  0  0
 12 15  1  0  0  0  0
 13 12  1  0  0  0  0
 15 16  1  0  0  0  0
 15 17  1  0  0  0  0
 18 15  1  0  0  0  0
 19 20  1  0  0  0  0
 19 18  2  0  0  0  0
 21 19  1  0  0  0  0
 22 21  2  0  0  0  0
 22 23  1  0  0  0  0
 23 18  1  0  0  0  0
 24 25  1  0  0  0  0
 24  1  1  0  0  0  0
 24 26  1  0  0  0  0
 27 24  1  0  0  0  0
 28 33  1  0  0  0  0
 28 27  2  0  0  0  0
 29 28  1  0  0  0  0
 30 29  2  0  0  0  0
 30 31  1  0  0  0  0
 31 32  2  0  0  0  0
 32 27  1  0  0  0  0
 32 39  1  0  0  0  0
 34 29  1  0  0  0  0
 35 30  1  0  0  0  0
 36 31  1  0  0  0  0
 37 40  1  0  0  0  0
 38 37  2  0  0  0  0
 39 41  1  0  0  0  0
 39 37  1  0  0  0  0
M  END
>  <minimizedAffinity>
-5.91313839

$$$$

 OpenBabel03242511483D

 41 43  0  0  0  0  0  0  0  0999 V2000
   39.5340   30.7890   42.3860 C   0  0  0  0  0  0  0  0  0  0  0  0
   39.1920   31.6710   42.9640 H   0  0  0  0  0  0  0  0  0  0  0  0
   40.4180   30.4070   42.9360 H   0  0  0  0  0  0  0  0  0  0  0  0
   37.2260   28.1660   43.4800 C   0  0  0  0  0  0  0  0  0  0  0  0
   36.5380   27.8450   42.2890 C   0  0  0  0  0  0  0  0  0  0  0  0
   36.8960   28.5460   41.1640 C   0  0  0  0  0  0  0  0  0  0  0  0
   37.8620   29.4850   41.2250 N   0  0  0  0  0  0  0  0  0  0  0  0
   38.4880   29.7480   42.3960 C   0  0  0  0  0  0  0  0  0  0  0  0
   38.1890   29.1130   43.5020 N   0  0  0  0  0  0  0  0  0  0  0  0
   36.9680   27.6310   44.3900 H   0  0  0  0  0  0  0  0  0  0  0  0
   35.7860   27.0750   42.3720 H   0  0  0  0  0  0  0  0  0  0  0  0
   36.1650   28.2030   39.9150 C   0  0  0  0  0  0  0  0  0  0  0  0
   36.8240   28.2850   39.0450 H   0  0  0  0  0  0  0  0  0  0  0  0
   35.8120   27.1460   39.9390 H   0  0  0  0  0  0  0  0  0  0  0  0
   34.9400   29.0750   39.7240 C   0  0  0  0  0  0  0  0  0  0  0  0
   34.2000   28.8960   40.5320 H   0  0  0  0  0  0  0  0  0  0  0  0
   35.2150   30.1480   39.6790 H   0  0  0  0  0  0  0  0  0  0  0  0
   34.3020   28.6650   38.4540 C   0  0  0  0  0  0  0  0  0  0  0  0
   33.2710   29.1300   37.7480 C   0  0  0  0  0  0  0  0  0  0  0  0
   32.7690   29.9940   38.1700 H   0  0  0  0  0  0  0  0  0  0  0  0
   32.8760   28.5580   36.5790 C   0  0  0  0  0  3  0  0  0  0  0  0
   33.6400   27.4330   36.1670 C   0  0  0  0  0  3  0  0  0  0  0  0
   34.9100   27.2910   37.5530 S   0  0  0  0  0  0  0  0  0  0  0  0
   39.8670   31.1270   40.9550 C   0  0  0  0  0  0  0  0  0  0  0  0
   40.8160   30.6260   40.6770 H   0  0  0  0  0  0  0  0  0  0  0  0
   39.1000   30.6950   40.2560 H   0  0  0  0  0  0  0  0  0  0  0  0
   39.9510   32.5550   40.7300 C   0  0  0  0  0  0  0  0  0  0  0  0
   41.0730   33.3450   40.6950 C   0  0  0  0  0  0  0  0  0  0  0  0
   41.0430   34.6880   40.4720 C   0  0  0  0  0  0  0  0  0  0  0  0
   39.8140   35.2860   40.2710 C   0  0  0  0  0  0  0  0  0  0  0  0
   38.6860   34.5010   40.3050 C   0  0  0  0  0  0  0  0  0  0  0  0
   38.7420   33.1440   40.5320 C   0  0  0  0  0  0  0  0  0  0  0  0
   42.0180   32.8320   40.8580 H   0  0  0  0  0  0  0  0  0  0  0  0
   41.9740   35.2280   40.4620 H   0  0  0  0  0  0  0  0  0  0  0  0
   39.8620   36.3620   40.0980 H   0  0  0  0  0  0  0  0  0  0  0  0
   37.8050   35.1300   40.1270 H   0  0  0  0  0  0  0  0  0  0  0  0
   36.9360   32.2220   39.2070 C   0  0  0  0  0  0  0  0  0  0  0  0
   37.3850   32.1570   37.9920 O   0  0  0  0  0  0  0  0  0  0  0  0
   37.3970   32.6420   40.5080 N   0  0  0  0  0  0  0  0  0  0  0  0
   35.9490   31.8120   39.0010 H   0  0  0  0  0  0  0  0  0  0  0  0
   36.6660   32.5080   41.2100 H   0  0  0  0  0  0  0  0  0  0  0  0
  1  8  1  0  0  0  0
  1  3  1  0  0  0  0
  1  2  1  0  0  0  0
  4  9  1  0  0  0  0
  4 10  1  0  0  0  0
  5 11  1  0  0  0  0
  5  4  2  0  0  0  0
  6  7  2  0  0  0  0
  6  5  1  0  0  0  0
  7  8  1  0  0  0  0
  8  9  2  0  0  0  0
 12 14  1  0  0  0  0
 12  6  1  0  0  0  0
 13 12  1  0  0  0  0
 15 12  1  0  0  0  0
 15 16  1  0  0  0  0
 17 15  1  0  0  0  0
 18 15  1  0  0  0  0
 19 20  1  0  0  0  0
 19 18  2  0  0  0  0
 21 19  1  0  0  0  0
 22 21  2  0  0  0  0
 22 23  1  0  0  0  0
 23 18  1  0  0  0  0
 24  1  1  0  0  0  0
 25 24  1  0  0  0  0
 26 24  1  0  0  0  0
 27 24  1  0  0  0  0
 28 27  1  0  0  0  0
 28 33  1  0  0  0  0
 29 28  2  0  0  0  0
 30 31  2  0  0  0  0
 30 29  1  0  0  0  0
 31 32  1  0  0  0  0
 32 27  2  0  0  0  0
 34 29  1  0  0  0  0
 35 30  1  0  0  0  0
 36 31  1  0  0  0  0
 37 39  1  0  0  0  0
 38 37  2  0  0  0  0
 39 32  1  0  0  0  0
 39 41  1  0  0  0  0
 40 37  1  0  0  0  0
M  END
>  <minimizedAffinity>
-5.56301451

$$$$

 OpenBabel03242511483D

 41 43  0  0  0  0  0  0  0  0999 V2000
   36.5300   31.2710   40.8900 C   0  0  0  0  0  0  0  0  0  0  0  0
   35.6440   30.6060   40.8560 H   0  0  0  0  0  0  0  0  0  0  0  0
   36.2360   32.1120   41.5500 H   0  0  0  0  0  0  0  0  0  0  0  0
   39.8960   30.3820   42.0220 C   0  0  0  0  0  0  0  0  0  0  0  0
   39.6800   29.1600   42.6980 C   0  0  0  0  0  0  0  0  0  0  0  0
   38.3880   28.6970   42.7350 C   0  0  0  0  0  0  0  0  0  0  0  0
   37.3980   29.3960   42.1450 N   0  0  0  0  0  0  0  0  0  0  0  0
   37.6660   30.5620   41.5110 C   0  0  0  0  0  0  0  0  0  0  0  0
   38.8770   31.0540   41.4430 N   0  0  0  0  0  0  0  0  0  0  0  0
   40.9070   30.7780   41.9730 H   0  0  0  0  0  0  0  0  0  0  0  0
   40.5560   28.6980   43.1280 H   0  0  0  0  0  0  0  0  0  0  0  0
   38.1710   27.4110   43.4490 C   0  0  0  0  0  0  0  0  0  0  0  0
   38.9920   26.7150   43.2550 H   0  0  0  0  0  0  0  0  0  0  0  0
   38.1500   27.5680   44.5520 H   0  0  0  0  0  0  0  0  0  0  0  0
   36.8480   26.7750   43.0680 C   0  0  0  0  0  0  0  0  0  0  0  0
   36.3820   26.2790   43.9450 H   0  0  0  0  0  0  0  0  0  0  0  0
   36.1560   27.5230   42.6310 H   0  0  0  0  0  0  0  0  0  0  0  0
   37.1390   25.7180   42.0750 C   0  0  0  0  0  0  0  0  0  0  0  0
   37.5130   24.4420   42.1700 C   0  0  0  0  0  0  0  0  0  0  0  0
   37.6410   24.0680   43.1810 H   0  0  0  0  0  0  0  0  0  0  0  0
   37.7190   23.6630   41.0750 C   0  0  0  0  0  3  0  0  0  0  0  0
   37.5090   24.3080   39.8260 C   0  0  0  0  0  3  0  0  0  0  0  0
   37.0110   26.0460   40.3590 S   0  0  0  0  0  0  0  0  0  0  0  0
   36.9480   31.7510   39.5230 C   0  0  0  0  0  0  0  0  0  0  0  0
   36.4340   32.7080   39.3040 H   0  0  0  0  0  0  0  0  0  0  0  0
   38.0420   32.0040   39.5080 H   0  0  0  0  0  0  0  0  0  0  0  0
   36.6820   30.7720   38.4890 C   0  0  0  0  0  0  0  0  0  0  0  0
   35.8060   29.7150   38.5260 C   0  0  0  0  0  0  0  0  0  0  0  0
   35.6280   28.8480   37.4910 C   0  0  0  0  0  0  0  0  0  0  0  0
   36.3700   29.0450   36.3420 C   0  0  0  0  0  0  0  0  0  0  0  0
   37.2490   30.1010   36.2990 C   0  0  0  0  0  0  0  0  0  0  0  0
   37.4110   30.9650   37.3590 C   0  0  0  0  0  0  0  0  0  0  0  0
   35.2430   29.5980   39.4480 H   0  0  0  0  0  0  0  0  0  0  0  0
   34.9190   28.0470   37.6090 H   0  0  0  0  0  0  0  0  0  0  0  0
   36.1790   28.3160   35.5540 H   0  0  0  0  0  0  0  0  0  0  0  0
   37.7510   30.1110   35.3240 H   0  0  0  0  0  0  0  0  0  0  0  0
   39.7150   31.6970   37.5210 C   0  0  0  0  0  0  0  0  0  0  0  0
   40.3090   30.8320   38.2830 O   0  0  0  0  0  0  0  0  0  0  0  0
   38.3990   31.9370   36.9820 N   0  0  0  0  0  0  0  0  0  0  0  0
   40.5860   32.3250   37.3380 H   0  0  0  0  0  0  0  0  0  0  0  0
   38.3940   32.7820   36.4060 H   0  0  0  0  0  0  0  0  0  0  0  0
  1  8  1  0  0  0  0
  1  3  1  0  0  0  0
  2  1  1  0  0  0  0
  4  5  1  0  0  0  0
  5  6  2  0  0  0  0
  5 11  1  0  0  0  0
  6 12  1  0  0  0  0
  7  6  1  0  0  0  0
  8  7  2  0  0  0  0
  9  8  1  0  0  0  0
  9  4  2  0  0  0  0
 10  4  1  0  0  0  0
 12 14  1  0  0  0  0
 13 12  1  0  0  0  0
 15 12  1  0  0  0  0
 15 16  1  0  0  0  0
 17 15  1  0  0  0  0
 18 19  2  0  0  0  0
 18 15  1  0  0  0  0
 19 20  1  0  0  0  0
 21 19  1  0  0  0  0
 22 23  1  0  0  0  0
 22 21  2  0  0  0  0
 23 18  1  0  0  0  0
 24  1  1  0  0  0  0
 25 24  1  0  0  0  0
 26 24  1  0  0  0  0
 27 28  1  0  0  0  0
 27 24  1  0  0  0  0
 28 33  1  0  0  0  0
 29 34  1  0  0  0  0
 29 28  2  0  0  0  0
 30 29  1  0  0  0  0
 31 30  2  0  0  0  0
 31 32  1  0  0  0  0
 32 27  2  0  0  0  0
 35 30  1  0  0  0  0
 36 31  1  0  0  0  0
 37 38  2  0  0  0  0
 39 32  1  0  0  0  0
 39 37  1  0  0  0  0
 40 37  1  0  0  0  0
 41 39  1  0  0  0  0
M  END
>  <minimizedAffinity>
-5.52888107

$$$$

 OpenBabel03242511483D

 41 43  0  0  0  0  0  0  0  0999 V2000
   37.3080   26.5700   39.9860 C   0  0  0  0  0  0  0  0  0  0  0  0
   36.8010   26.0030   39.1790 H   0  0  0  0  0  0  0  0  0  0  0  0
   38.3890   26.5190   39.7400 H   0  0  0  0  0  0  0  0  0  0  0  0
   35.4450   29.6720   40.5370 C   0  0  0  0  0  0  0  0  0  0  0  0
   36.2010   30.6180   39.8110 C   0  0  0  0  0  0  0  0  0  0  0  0
   37.3180   30.1490   39.1660 C   0  0  0  0  0  0  0  0  0  0  0  0
   37.6480   28.8430   39.2390 N   0  0  0  0  0  0  0  0  0  0  0  0
   36.8830   27.9820   39.9510 C   0  0  0  0  0  0  0  0  0  0  0  0
   35.8080   28.3720   40.5880 N   0  0  0  0  0  0  0  0  0  0  0  0
   34.5540   30.0090   41.0610 H   0  0  0  0  0  0  0  0  0  0  0  0
   35.8310   31.6320   39.8300 H   0  0  0  0  0  0  0  0  0  0  0  0
   38.1090   31.1520   38.4040 C   0  0  0  0  0  0  0  0  0  0  0  0
   38.2240   30.8450   37.3610 H   0  0  0  0  0  0  0  0  0  0  0  0
   37.5870   32.1360   38.3830 H   0  0  0  0  0  0  0  0  0  0  0  0
   39.4700   31.3860   39.0310 C   0  0  0  0  0  0  0  0  0  0  0  0
   39.6090   30.7400   39.9230 H   0  0  0  0  0  0  0  0  0  0  0  0
   40.2830   31.2170   38.2970 H   0  0  0  0  0  0  0  0  0  0  0  0
   39.5000   32.7890   39.5030 C   0  0  0  0  0  0  0  0  0  0  0  0
   38.5890   33.6010   40.0370 C   0  0  0  0  0  0  0  0  0  0  0  0
   37.6010   33.1720   40.1670 H   0  0  0  0  0  0  0  0  0  0  0  0
   38.8800   34.8810   40.3950 C   0  0  0  0  0  3  0  0  0  0  0  0
   40.2210   35.2860   40.1560 C   0  0  0  0  0  3  0  0  0  0  0  0
   40.9760   33.7290   39.4100 S   0  0  0  0  0  0  0  0  0  0  0  0
   37.0200   26.0100   41.3560 C   0  0  0  0  0  0  0  0  0  0  0  0
   36.2900   26.6680   41.8680 H   0  0  0  0  0  0  0  0  0  0  0  0
   36.5040   25.0150   41.2780 H   0  0  0  0  0  0  0  0  0  0  0  0
   38.2200   25.8510   42.1510 C   0  0  0  0  0  0  0  0  0  0  0  0
   39.1740   24.8680   42.0610 C   0  0  0  0  0  0  0  0  0  0  0  0
   40.2750   24.8100   42.8610 C   0  0  0  0  0  0  0  0  0  0  0  0
   40.4380   25.7960   43.8150 C   0  0  0  0  0  0  0  0  0  0  0  0
   39.4850   26.7830   43.9120 C   0  0  0  0  0  0  0  0  0  0  0  0
   38.3800   26.8200   43.0910 C   0  0  0  0  0  0  0  0  0  0  0  0
   39.0070   24.1140   41.2960 H   0  0  0  0  0  0  0  0  0  0  0  0
   40.9720   24.0020   42.7180 H   0  0  0  0  0  0  0  0  0  0  0  0
   41.3380   25.6900   44.4200 H   0  0  0  0  0  0  0  0  0  0  0  0
   39.7670   27.4770   44.7120 H   0  0  0  0  0  0  0  0  0  0  0  0
   38.1570   29.2320   43.0520 C   0  0  0  0  0  0  0  0  0  0  0  0
   39.2000   29.6740   42.4220 O   0  0  0  0  0  0  0  0  0  0  0  0
   37.5990   27.9670   43.4630 N   0  0  0  0  0  0  0  0  0  0  0  0
   37.7010   30.2020   43.2430 H   0  0  0  0  0  0  0  0  0  0  0  0
   36.7190   28.1060   43.9630 H   0  0  0  0  0  0  0  0  0  0  0  0
  1 24  1  0  0  0  0
  2  1  1  0  0  0  0
  3  1  1  0  0  0  0
  4  9  1  0  0  0  0
  4 10  1  0  0  0  0
  5 11  1  0  0  0  0
  5  4  2  0  0  0  0
  6  7  2  0  0  0  0
  6  5  1  0  0  0  0
  7  8  1  0  0  0  0
  8  1  1  0  0  0  0
  8  9  2  0  0  0  0
 12 15  1  0  0  0  0
 12  6  1  0  0  0  0
 13 12  1  0  0  0  0
 14 12  1  0  0  0  0
 15 18  1  0  0  0  0
 15 16  1  0  0  0  0
 17 15  1  0  0  0  0
 18 19  2  0  0  0  0
 19 20  1  0  0  0  0
 19 21  1  0  0  0  0
 22 21  2  0  0  0  0
 23 18  1  0  0  0  0
 23 22  1  0  0  0  0
 24 25  1  0  0  0  0
 24 27  1  0  0  0  0
 26 24  1  0  0  0  0
 27 32  1  0  0  0  0
 28 27  2  0  0  0  0
 28 29  1  0  0  0  0
 29 30  2  0  0  0  0
 30 31  1  0  0  0  0
 30 35  1  0  0  0  0
 31 36  1  0  0  0  0
 32 39  1  0  0  0  0
 32 31  2  0  0  0  0
 33 28  1  0  0  0  0
 34 29  1  0  0  0  0
 37 40  1  0  0  0  0
 37 39  1  0  0  0  0
 38 37  2  0  0  0  0
 39 41  1  0  0  0  0
M  END
>  <minimizedAffinity>
-5.48888159

$$$$

 OpenBabel03242511483D

 41 43  0  0  0  0  0  0  0  0999 V2000
   37.2950   32.0340   38.7720 C   0  0  0  0  0  0  0  0  0  0  0  0
   38.2340   32.0060   38.1840 H   0  0  0  0  0  0  0  0  0  0  0  0
   36.5830   32.6170   38.1540 H   0  0  0  0  0  0  0  0  0  0  0  0
   35.7370   28.7880   38.1130 C   0  0  0  0  0  0  0  0  0  0  0  0
   35.8220   28.1460   39.3680 C   0  0  0  0  0  0  0  0  0  0  0  0
   36.4130   28.8560   40.3840 C   0  0  0  0  0  0  0  0  0  0  0  0
   36.8750   30.1030   40.1630 N   0  0  0  0  0  0  0  0  0  0  0  0
   36.7650   30.6670   38.9380 C   0  0  0  0  0  0  0  0  0  0  0  0
   36.2130   30.0390   37.9300 N   0  0  0  0  0  0  0  0  0  0  0  0
   35.2760   28.2550   37.2860 H   0  0  0  0  0  0  0  0  0  0  0  0
   35.4150   27.1470   39.4150 H   0  0  0  0  0  0  0  0  0  0  0  0
   36.4990   28.1710   41.7020 C   0  0  0  0  0  0  0  0  0  0  0  0
   37.2110   28.6800   42.3570 H   0  0  0  0  0  0  0  0  0  0  0  0
   35.5170   28.1970   42.2280 H   0  0  0  0  0  0  0  0  0  0  0  0
   36.8810   26.7110   41.5510 C   0  0  0  0  0  0  0  0  0  0  0  0
   36.0830   26.0520   41.9510 H   0  0  0  0  0  0  0  0  0  0  0  0
   37.0980   26.4620   40.4930 H   0  0  0  0  0  0  0  0  0  0  0  0
   38.0860   26.4850   42.3790 C   0  0  0  0  0  0  0  0  0  0  0  0
   38.7430   27.2240   43.2730 C   0  0  0  0  0  0  0  0  0  0  0  0
   38.3300   28.2110   43.4540 H   0  0  0  0  0  0  0  0  0  0  0  0
   39.8540   26.7720   43.9120 C   0  0  0  0  0  3  0  0  0  0  0  0
   40.2630   25.4580   43.5580 C   0  0  0  0  0  3  0  0  0  0  0  0
   38.9610   24.9690   42.2870 S   0  0  0  0  0  0  0  0  0  0  0  0
   37.4850   32.6500   40.1360 C   0  0  0  0  0  0  0  0  0  0  0  0
   36.6300   33.3200   40.3520 H   0  0  0  0  0  0  0  0  0  0  0  0
   37.4400   31.8620   40.9360 H   0  0  0  0  0  0  0  0  0  0  0  0
   38.7410   33.3600   40.2510 C   0  0  0  0  0  0  0  0  0  0  0  0
   38.9590   34.7150   40.1950 C   0  0  0  0  0  0  0  0  0  0  0  0
   40.1890   35.2860   40.3170 C   0  0  0  0  0  0  0  0  0  0  0  0
   41.2760   34.4540   40.5080 C   0  0  0  0  0  0  0  0  0  0  0  0
   41.0650   33.0970   40.5650 C   0  0  0  0  0  0  0  0  0  0  0  0
   39.8110   32.5430   40.4380 C   0  0  0  0  0  0  0  0  0  0  0  0
   38.0760   35.3310   40.0450 H   0  0  0  0  0  0  0  0  0  0  0  0
   40.2650   36.3580   40.2610 H   0  0  0  0  0  0  0  0  0  0  0  0
   42.2300   34.9760   40.5990 H   0  0  0  0  0  0  0  0  0  0  0  0
   42.0250   32.5900   40.7200 H   0  0  0  0  0  0  0  0  0  0  0  0
   39.9490   30.6060   41.8870 C   0  0  0  0  0  0  0  0  0  0  0  0
   39.8570   31.0610   43.0970 O   0  0  0  0  0  0  0  0  0  0  0  0
   39.9520   31.1170   40.5380 N   0  0  0  0  0  0  0  0  0  0  0  0
   40.0410   29.5540   42.1530 H   0  0  0  0  0  0  0  0  0  0  0  0
   40.0580   30.3560   39.8650 H   0  0  0  0  0  0  0  0  0  0  0  0
  1  8  1  0  0  0  0
  1 24  1  0  0  0  0
  2  1  1  0  0  0  0
  3  1  1  0  0  0  0
  4  5  1  0  0  0  0
  5 11  1  0  0  0  0
  5  6  2  0  0  0  0
  6 12  1  0  0  0  0
  7  6  1  0  0  0  0
  8  7  2  0  0  0  0
  9  4  2  0  0  0  0
  9  8  1  0  0  0  0
 10  4  1  0  0  0  0
 12 14  1  0  0  0  0
 12 13  1  0  0  0  0
 15 12  1  0  0  0  0
 15 16  1  0  0  0  0
 15 18  1  0  0  0  0
 17 15  1  0  0  0  0
 18 19  2  0  0  0  0
 19 20  1  0  0  0  0
 19 21  1  0  0  0  0
 22 21  2  0  0  0  0
 23 18  1  0  0  0  0
 23 22  1  0  0  0  0
 24 27  1  0  0  0  0
 24 25  1  0  0  0  0
 24 26  1  0  0  0  0
 27 32  1  0  0  0  0
 28 27  2  0  0  0  0
 28 29  1  0  0  0  0
 29 30  2  0  0  0  0
 30 31  1  0  0  0  0
 30 35  1  0  0  0  0
 31 36  1  0  0  0  0
 32 39  1  0  0  0  0
 32 31  2  0  0  0  0
 33 28  1  0  0  0  0
 34 29  1  0  0  0  0
 37 40  1  0  0  0  0
 37 38  2  0  0  0  0
 39 37  1  0  0  0  0
 41 39  1  0  0  0  0
M  END
>  <minimizedAffinity>
-5.48539591

$$$$

 OpenBabel03242511483D

 41 43  0  0  0  0  0  0  0  0999 V2000
   38.9820   31.0110   38.3340 C   0  0  0  0  0  0  0  0  0  0  0  0
   38.8770   30.3060   37.4850 H   0  0  0  0  0  0  0  0  0  0  0  0
   38.6520   31.9930   37.9380 H   0  0  0  0  0  0  0  0  0  0  0  0
   35.9740   30.2300   40.2680 C   0  0  0  0  0  0  0  0  0  0  0  0
   36.5020   29.8690   41.5270 C   0  0  0  0  0  0  0  0  0  0  0  0
   37.8690   29.9080   41.6550 C   0  0  0  0  0  0  0  0  0  0  0  0
   38.6390   30.2800   40.6120 N   0  0  0  0  0  0  0  0  0  0  0  0
   38.0750   30.6160   39.4290 C   0  0  0  0  0  0  0  0  0  0  0  0
   36.7780   30.5970   39.2470 N   0  0  0  0  0  0  0  0  0  0  0  0
   34.8950   30.2110   40.1310 H   0  0  0  0  0  0  0  0  0  0  0  0
   35.7800   29.5920   42.2800 H   0  0  0  0  0  0  0  0  0  0  0  0
   38.4170   29.5260   42.9830 C   0  0  0  0  0  0  0  0  0  0  0  0
   39.4740   29.2570   42.9040 H   0  0  0  0  0  0  0  0  0  0  0  0
   38.3650   30.3810   43.6950 H   0  0  0  0  0  0  0  0  0  0  0  0
   37.6340   28.3850   43.6050 C   0  0  0  0  0  0  0  0  0  0  0  0
   37.5320   28.5290   44.7010 H   0  0  0  0  0  0  0  0  0  0  0  0
   36.6370   28.2790   43.1320 H   0  0  0  0  0  0  0  0  0  0  0  0
   38.4220   27.1500   43.4010 C   0  0  0  0  0  0  0  0  0  0  0  0
   39.5560   26.6830   43.9240 C   0  0  0  0  0  0  0  0  0  0  0  0
   40.0280   27.3240   44.6600 H   0  0  0  0  0  0  0  0  0  0  0  0
   40.0830   25.4840   43.5580 C   0  0  0  0  0  3  0  0  0  0  0  0
   39.3400   24.7690   42.5800 C   0  0  0  0  0  3  0  0  0  0  0  0
   37.8900   25.9300   42.2620 S   0  0  0  0  0  0  0  0  0  0  0  0
   40.3910   31.0680   38.8690 C   0  0  0  0  0  0  0  0  0  0  0  0
   40.3710   30.8730   39.9590 H   0  0  0  0  0  0  0  0  0  0  0  0
   41.0120   30.2350   38.4400 H   0  0  0  0  0  0  0  0  0  0  0  0
   41.0410   32.3290   38.5800 C   0  0  0  0  0  0  0  0  0  0  0  0
   41.7630   32.6760   37.4640 C   0  0  0  0  0  0  0  0  0  0  0  0
   42.3350   33.8990   37.2880 C   0  0  0  0  0  0  0  0  0  0  0  0
   42.1800   34.8410   38.2880 C   0  0  0  0  0  0  0  0  0  0  0  0
   41.4590   34.4990   39.4070 C   0  0  0  0  0  0  0  0  0  0  0  0
   40.8890   33.2550   39.5630 C   0  0  0  0  0  0  0  0  0  0  0  0
   41.8590   31.9060   36.7030 H   0  0  0  0  0  0  0  0  0  0  0  0
   42.8830   34.0840   36.3800 H   0  0  0  0  0  0  0  0  0  0  0  0
   42.6620   35.7970   38.0820 H   0  0  0  0  0  0  0  0  0  0  0  0
   41.4340   35.3540   40.0930 H   0  0  0  0  0  0  0  0  0  0  0  0
   38.9050   33.8240   40.8310 C   0  0  0  0  0  0  0  0  0  0  0  0
   38.0990   34.3940   39.9900 O   0  0  0  0  0  0  0  0  0  0  0  0
   40.2220   33.2370   40.8350 N   0  0  0  0  0  0  0  0  0  0  0  0
   38.2530   33.8940   41.7000 H   0  0  0  0  0  0  0  0  0  0  0  0
   40.4630   32.9000   41.7690 H   0  0  0  0  0  0  0  0  0  0  0  0
  1 24  1  0  0  0  0
  1  8  1  0  0  0  0
  2  1  1  0  0  0  0
  3  1  1  0  0  0  0
  4  5  1  0  0  0  0
  5  6  2  0  0  0  0
  5 11  1  0  0  0  0
  6 12  1  0  0  0  0
  7  6  1  0  0  0  0
  8  7  2  0  0  0  0
  9  8  1  0  0  0  0
  9  4  2  0  0  0  0
 10  4  1  0  0  0  0
 12 15  1  0  0  0  0
 12 14  1  0  0  0  0
 13 12  1  0  0  0  0
 15 16  1  0  0  0  0
 17 15  1  0  0  0  0
 18 15  1  0  0  0  0
 18 19  2  0  0  0  0
 19 20  1  0  0  0  0
 21 19  1  0  0  0  0
 22 21  2  0  0  0  0
 23 22  1  0  0  0  0
 23 18  1  0  0  0  0
 24 25  1  0  0  0  0
 26 24  1  0  0  0  0
 27 24  1  0  0  0  0
 27 32  1  0  0  0  0
 28 27  2  0  0  0  0
 29 28  1  0  0  0  0
 29 30  2  0  0  0  0
 30 31  1  0  0  0  0
 31 32  2  0  0  0  0
 31 36  1  0  0  0  0
 32 39  1  0  0  0  0
 33 28  1  0  0  0  0
 34 29  1  0  0  0  0
 35 30  1  0  0  0  0
 37 39  1  0  0  0  0
 37 40  1  0  0  0  0
 38 37  2  0  0  0  0
 39 41  1  0  0  0  0
M  END
>  <minimizedAffinity>
-5.48009825

$$$$

 OpenBabel03242511483D

 41 43  0  0  0  0  0  0  0  0999 V2000
   40.4090   31.1710   41.7730 C   0  0  0  0  0  0  0  0  0  0  0  0
   40.8580   31.9720   42.3940 H   0  0  0  0  0  0  0  0  0  0  0  0
   40.9700   31.1980   40.8160 H   0  0  0  0  0  0  0  0  0  0  0  0
   42.0060   28.2600   43.3140 C   0  0  0  0  0  0  0  0  0  0  0  0
   40.9090   27.4130   43.5820 C   0  0  0  0  0  0  0  0  0  0  0  0
   39.6690   27.8800   43.2230 C   0  0  0  0  0  0  0  0  0  0  0  0
   39.5400   29.0910   42.6430 N   0  0  0  0  0  0  0  0  0  0  0  0
   40.6300   29.8580   42.4100 C   0  0  0  0  0  0  0  0  0  0  0  0
   41.8370   29.4670   42.7310 N   0  0  0  0  0  0  0  0  0  0  0  0
   43.0030   27.9220   43.5850 H   0  0  0  0  0  0  0  0  0  0  0  0
   41.1450   26.4690   44.0500 H   0  0  0  0  0  0  0  0  0  0  0  0
   38.5180   26.9820   43.5100 C   0  0  0  0  0  0  0  0  0  0  0  0
   38.5010   26.1390   42.8130 H   0  0  0  0  0  0  0  0  0  0  0  0
   38.6030   26.5420   44.5300 H   0  0  0  0  0  0  0  0  0  0  0  0
   37.1990   27.7280   43.4580 C   0  0  0  0  0  0  0  0  0  0  0  0
   36.4210   27.1920   44.0410 H   0  0  0  0  0  0  0  0  0  0  0  0
   37.3120   28.7680   43.8240 H   0  0  0  0  0  0  0  0  0  0  0  0
   36.7540   27.7360   42.0460 C   0  0  0  0  0  0  0  0  0  0  0  0
   36.0530   28.5940   41.3060 C   0  0  0  0  0  0  0  0  0  0  0  0
   35.7200   29.4890   41.8210 H   0  0  0  0  0  0  0  0  0  0  0  0
   35.7730   28.3610   39.9960 C   0  0  0  0  0  3  0  0  0  0  0  0
   36.2820   27.1400   39.4760 C   0  0  0  0  0  3  0  0  0  0  0  0
   37.1520   26.4050   40.9780 S   0  0  0  0  0  0  0  0  0  0  0  0
   38.9290   31.3640   41.5590 C   0  0  0  0  0  0  0  0  0  0  0  0
   38.3760   30.6420   42.1910 H   0  0  0  0  0  0  0  0  0  0  0  0
   38.6040   32.3750   41.9270 H   0  0  0  0  0  0  0  0  0  0  0  0
   38.5500   31.2310   40.1680 C   0  0  0  0  0  0  0  0  0  0  0  0
   38.8020   30.1830   39.3160 C   0  0  0  0  0  0  0  0  0  0  0  0
   38.3970   30.1550   38.0160 C   0  0  0  0  0  0  0  0  0  0  0  0
   37.6940   31.2410   37.5300 C   0  0  0  0  0  0  0  0  0  0  0  0
   37.4390   32.2930   38.3770 C   0  0  0  0  0  0  0  0  0  0  0  0
   37.8590   32.2980   39.6890 C   0  0  0  0  0  0  0  0  0  0  0  0
   39.3570   29.3500   39.7410 H   0  0  0  0  0  0  0  0  0  0  0  0
   38.6390   29.2910   37.4220 H   0  0  0  0  0  0  0  0  0  0  0  0
   37.4000   31.1530   36.4840 H   0  0  0  0  0  0  0  0  0  0  0  0
   36.8760   33.0620   37.8360 H   0  0  0  0  0  0  0  0  0  0  0  0
   38.4350   34.5760   40.2820 C   0  0  0  0  0  0  0  0  0  0  0  0
   39.6620   34.7420   39.9010 O   0  0  0  0  0  0  0  0  0  0  0  0
   37.4340   33.5370   40.2780 N   0  0  0  0  0  0  0  0  0  0  0  0
   38.2880   35.5780   40.6810 H   0  0  0  0  0  0  0  0  0  0  0  0
   36.5680   33.8700   40.7080 H   0  0  0  0  0  0  0  0  0  0  0  0
  1  2  1  0  0  0  0
  1  8  1  0  0  0  0
  3  1  1  0  0  0  0
  4  5  1  0  0  0  0
  4 10  1  0  0  0  0
  5 11  1  0  0  0  0
  6 12  1  0  0  0  0
  6  5  2  0  0  0  0
  7  6  1  0  0  0  0
  8  7  2  0  0  0  0
  8  9  1  0  0  0  0
  9  4  2  0  0  0  0
 12 14  1  0  0  0  0
 13 12  1  0  0  0  0
 15 12  1  0  0  0  0
 15 17  1  0  0  0  0
 15 16  1  0  0  0  0
 18 15  1  0  0  0  0
 19 20  1  0  0  0  0
 19 18  2  0  0  0  0
 21 19  1  0  0  0  0
 22 21  2  0  0  0  0
 22 23  1  0  0  0  0
 23 18  1  0  0  0  0
 24  1  1  0  0  0  0
 24 26  1  0  0  0  0
 24 25  1  0  0  0  0
 27 24  1  0  0  0  0
 28 33  1  0  0  0  0
 28 27  2  0  0  0  0
 29 28  1  0  0  0  0
 30 29  2  0  0  0  0
 30 31  1  0  0  0  0
 31 32  2  0  0  0  0
 32 27  1  0  0  0  0
 32 39  1  0  0  0  0
 34 29  1  0  0  0  0
 35 30  1  0  0  0  0
 36 31  1  0  0  0  0
 37 40  1  0  0  0  0
 38 37  2  0  0  0  0
 39 37  1  0  0  0  0
 39 41  1  0  0  0  0
M  END
>  <minimizedAffinity>
-5.4693594

$$$$

 OpenBabel03242511483D

 41 43  0  0  0  0  0  0  0  0999 V2000
   37.0580   26.8890   40.0960 C   0  0  0  0  0  0  0  0  0  0  0  0
   36.3350   26.1690   39.6630 H   0  0  0  0  0  0  0  0  0  0  0  0
   38.0580   26.4890   39.8310 H   0  0  0  0  0  0  0  0  0  0  0  0
   36.4160   29.5250   37.6400 C   0  0  0  0  0  0  0  0  0  0  0  0
   36.6260   30.7040   38.3900 C   0  0  0  0  0  0  0  0  0  0  0  0
   36.9780   30.5390   39.7070 C   0  0  0  0  0  0  0  0  0  0  0  0
   37.1100   29.3020   40.2270 N   0  0  0  0  0  0  0  0  0  0  0  0
   36.8960   28.2090   39.4570 C   0  0  0  0  0  0  0  0  0  0  0  0
   36.5570   28.3030   38.1960 N   0  0  0  0  0  0  0  0  0  0  0  0
   36.1350   29.6190   36.5930 H   0  0  0  0  0  0  0  0  0  0  0  0
   36.4890   31.6330   37.8580 H   0  0  0  0  0  0  0  0  0  0  0  0
   37.1970   31.7850   40.4900 C   0  0  0  0  0  0  0  0  0  0  0  0
   36.4140   31.9130   41.2420 H   0  0  0  0  0  0  0  0  0  0  0  0
   38.1600   31.7380   41.0480 H   0  0  0  0  0  0  0  0  0  0  0  0
   37.2640   33.0060   39.5930 C   0  0  0  0  0  0  0  0  0  0  0  0
   37.2870   32.7090   38.5240 H   0  0  0  0  0  0  0  0  0  0  0  0
   36.4160   33.6920   39.7890 H   0  0  0  0  0  0  0  0  0  0  0  0
   38.5430   33.6920   39.8800 C   0  0  0  0  0  0  0  0  0  0  0  0
   38.8570   34.8850   40.3840 C   0  0  0  0  0  0  0  0  0  0  0  0
   38.0130   35.5130   40.6520 H   0  0  0  0  0  0  0  0  0  0  0  0
   40.1450   35.2860   40.5510 C   0  0  0  0  0  3  0  0  0  0  0  0
   41.1290   34.3430   40.1490 C   0  0  0  0  0  3  0  0  0  0  0  0
   40.0730   32.9060   39.5420 S   0  0  0  0  0  0  0  0  0  0  0  0
   36.8960   27.0490   41.5870 C   0  0  0  0  0  0  0  0  0  0  0  0
   36.5050   28.0630   41.8010 H   0  0  0  0  0  0  0  0  0  0  0  0
   36.1090   26.3490   41.9780 H   0  0  0  0  0  0  0  0  0  0  0  0
   38.1310   26.8080   42.3050 C   0  0  0  0  0  0  0  0  0  0  0  0
   39.0670   27.7250   42.7150 C   0  0  0  0  0  0  0  0  0  0  0  0
   40.2010   27.3920   43.3910 C   0  0  0  0  0  0  0  0  0  0  0  0
   40.4200   26.0580   43.6790 C   0  0  0  0  0  0  0  0  0  0  0  0
   39.4870   25.1350   43.2700 C   0  0  0  0  0  0  0  0  0  0  0  0
   38.3470   25.4960   42.5870 C   0  0  0  0  0  0  0  0  0  0  0  0
   38.8540   28.7620   42.4690 H   0  0  0  0  0  0  0  0  0  0  0  0
   40.8800   28.1790   43.6740 H   0  0  0  0  0  0  0  0  0  0  0  0
   41.3450   25.8620   44.2210 H   0  0  0  0  0  0  0  0  0  0  0  0
   39.8130   24.1350   43.5770 H   0  0  0  0  0  0  0  0  0  0  0  0
   38.0270   23.5870   41.1310 C   0  0  0  0  0  0  0  0  0  0  0  0
   38.9130   23.7050   40.1920 O   0  0  0  0  0  0  0  0  0  0  0  0
   37.6050   24.2970   42.3130 N   0  0  0  0  0  0  0  0  0  0  0  0
   37.5840   22.6590   40.7730 H   0  0  0  0  0  0  0  0  0  0  0  0
   36.8270   23.8130   42.7670 H   0  0  0  0  0  0  0  0  0  0  0  0
  1 24  1  0  0  0  0
  2  1  1  0  0  0  0
  3  1  1  0  0  0  0
  4  9  2  0  0  0  0
  4  5  1  0  0  0  0
  5  6  2  0  0  0  0
  6  7  1  0  0  0  0
  6 12  1  0  0  0  0
  8  1  1  0  0  0  0
  8  7  2  0  0  0  0
  9  8  1  0  0  0  0
 10  4  1  0  0  0  0
 11  5  1  0  0  0  0
 12 14  1  0  0  0  0
 12 13  1  0  0  0  0
 15 17  1  0  0  0  0
 15 18  1  0  0  0  0
 15 12  1  0  0  0  0
 16 15  1  0  0  0  0
 18 19  2  0  0  0  0
 19 21  1  0  0  0  0
 19 20  1  0  0  0  0
 22 21  2  0  0  0  0
 23 18  1  0  0  0  0
 23 22  1  0  0  0  0
 24 25  1  0  0  0  0
 24 26  1  0  0  0  0
 24 27  1  0  0  0  0
 27 32  2  0  0  0  0
 27 28  1  0  0  0  0
 28 29  2  0  0  0  0
 29 34  1  0  0  0  0
 29 30  1  0  0  0  0
 30 35  1  0  0  0  0
 31 36  1  0  0  0  0
 31 30  2  0  0  0  0
 32 31  1  0  0  0  0
 33 28  1  0  0  0  0
 37 39  1  0  0  0  0
 38 37  2  0  0  0  0
 39 32  1  0  0  0  0
 39 41  1  0  0  0  0
 40 37  1  0  0  0  0
M  END
>  <minimizedAffinity>
-5.46611691

$$$$
