
 OpenBabel03242523533D

 42 45  0  0  1  0  0  0  0  0999 V2000
   42.7750   34.4560   38.8560 C   0  0  1  0  0  0  0  0  0  0  0  0
   42.9350   35.2190   40.1610 C   0  0  1  0  0  0  0  0  0  0  0  0
   41.6550   35.5470   40.6440 O   0  0  0  0  0  0  0  0  0  0  0  0
   40.7550   35.8490   39.6190 C   0  0  0  0  0  0  0  0  0  0  0  0
   40.3990   34.6200   38.8020 C   0  0  2  0  0  0  0  0  0  0  0  0
   41.5660   33.5950   39.0230 C   0  0  1  0  0  0  0  0  0  0  0  0
   43.6970   33.8630   38.6320 H   0  0  0  0  0  0  0  0  0  0  0  0
   43.5730   36.1100   40.0680 H   0  0  0  0  0  0  0  0  0  0  0  0
   39.8390   36.1940   40.1090 H   0  0  0  0  0  0  0  0  0  0  0  0
   41.1140   36.6810   38.9830 H   0  0  0  0  0  0  0  0  0  0  0  0
   39.4440   34.1740   39.1170 H   0  0  0  0  0  0  0  0  0  0  0  0
   41.3310   33.4120   40.1240 H   0  0  0  0  0  0  0  0  0  0  0  0
   42.6120   35.3360   37.7760 O   0  0  0  0  0  0  0  0  0  0  0  0
   43.4470   35.7670   37.5360 H   0  0  0  0  0  0  0  0  0  0  0  0
   40.4440   34.9320   37.4510 O   0  0  0  0  0  0  0  0  0  0  0  0
   39.5370   35.1580   37.0930 H   0  0  0  0  0  0  0  0  0  0  0  0
   43.4170   34.2780   41.0850 O   0  0  0  0  0  0  0  0  0  0  0  0
   44.5500   34.4010   41.7880 C   0  0  0  0  0  0  0  0  0  0  0  0
   45.7930   34.4830   41.1430 C   0  0  0  0  0  0  0  0  0  0  0  0
   46.9340   34.6110   41.9200 C   0  0  0  0  0  0  0  0  0  0  0  0
   46.8130   34.6530   43.2980 N   0  0  0  0  0  0  0  0  0  0  0  0
   45.5960   34.5710   43.8820 C   0  0  0  0  0  0  0  0  0  0  0  0
   44.4710   34.4450   43.1310 N   0  0  0  0  0  0  0  0  0  0  0  0
   45.8950   34.4510   40.0730 H   0  0  0  0  0  0  0  0  0  0  0  0
   45.5780   34.6110   44.9640 H   0  0  0  0  0  0  0  0  0  0  0  0
   48.2950   34.6880   41.3090 C   0  0  0  0  0  0  0  0  0  0  0  0
   49.0550   36.0020   41.4950 C   0  0  0  0  0  0  0  0  0  0  0  0
   49.4730   34.6560   42.1160 C   0  0  0  0  0  0  0  0  0  0  0  0
   48.3170   34.3210   40.2440 H   0  0  0  0  0  0  0  0  0  0  0  0
   48.6490   36.7280   42.1980 H   0  0  0  0  0  0  0  0  0  0  0  0
   49.7220   36.3280   40.6740 H   0  0  0  0  0  0  0  0  0  0  0  0
   50.4060   34.1790   41.7510 H   0  0  0  0  0  0  0  0  0  0  0  0
   49.3590   34.5700   43.2250 H   0  0  0  0  0  0  0  0  0  0  0  0
   41.3930   32.5890   38.1440 O   0  0  0  0  0  0  0  0  0  0  0  0
   40.7040   31.4550   38.2490 C   0  0  0  0  0  0  0  0  0  0  0  0
   39.8600   31.0340   37.3220 O   0  0  0  0  0  0  0  0  0  0  0  0
   40.6370   30.3220   39.3580 C   0  0  0  0  0  0  0  0  0  0  0  0
   39.6770   29.6000   39.8150 C   0  0  0  0  0  0  0  0  0  0  0  0
   38.7120   29.7850   39.3570 H   0  0  0  0  0  0  0  0  0  0  0  0
   39.9160   28.6920   40.7970 C   0  0  0  0  0  3  0  0  0  0  0  0
   41.2370   28.6080   41.2520 C   0  0  0  0  0  3  0  0  0  0  0  0
   42.0990   29.9350   40.1580 S   0  0  0  0  0  0  0  0  0  0  0  0
  1  7  1  6  0  0  0
  1  6  1  0  0  0  0
  1  2  1  0  0  0  0
  2  8  1  6  0  0  0
  2  3  1  0  0  0  0
  2 17  1  0  0  0  0
  4  9  1  0  0  0  0
  4  3  1  0  0  0  0
  5  6  1  0  0  0  0
  5 11  1  1  0  0  0
  5  4  1  0  0  0  0
  6 12  1  1  0  0  0
 10  4  1  0  0  0  0
 13  1  1  0  0  0  0
 14 13  1  0  0  0  0
 15  5  1  0  0  0  0
 16 15  1  0  0  0  0
 17 18  1  0  0  0  0
 18 23  1  0  0  0  0
 19 18  2  0  0  0  0
 19 20  1  0  0  0  0
 20 21  2  0  0  0  0
 21 22  1  0  0  0  0
 22 25  1  0  0  0  0
 23 22  2  0  0  0  0
 24 19  1  0  0  0  0
 26 27  1  0  0  0  0
 26 20  1  0  0  0  0
 26 28  1  0  0  0  0
 27 28  1  0  0  0  0
 27 30  1  0  0  0  0
 28 33  1  0  0  0  0
 29 26  1  0  0  0  0
 31 27  1  0  0  0  0
 32 28  1  0  0  0  0
 34 35  1  0  0  0  0
 34  6  1  0  0  0  0
 35 37  1  0  0  0  0
 36 35  2  0  0  0  0
 37 38  2  0  0  0  0
 37 42  1  0  0  0  0
 38 40  1  0  0  0  0
 39 38  1  0  0  0  0
 40 41  2  0  0  0  0
 42 41  1  0  0  0  0
M  END
>  <minimizedAffinity>
-5.74660015

>  <minimizedRMSD>
0.913258791

$$$$
