
 OpenBabel03252508173D

 44 48  0  0  1  0  0  0  0  0999 V2000
   47.2930   31.1180   46.9250 C   0  0  0  0  0  0  0  0  0  0  0  0
   48.2480   30.7130   46.6290 H   0  0  0  0  0  0  0  0  0  0  0  0
   46.4700   30.3550   46.8430 H   0  0  0  0  0  0  0  0  0  0  0  0
   47.1870   31.7470   48.2730 C   0  0  1  0  0  0  0  0  0  0  0  0
   46.4580   30.9340   49.2870 C   0  0  0  0  0  0  0  0  0  0  0  0
   47.8970   31.1570   49.4270 C   0  0  1  0  0  0  0  0  0  0  0  0
   46.7600   32.7940   48.2830 H   0  0  0  0  0  0  0  0  0  0  0  0
   45.7930   31.3560   50.0390 H   0  0  0  0  0  0  0  0  0  0  0  0
   46.1790   29.8800   49.0270 H   0  0  0  0  0  0  0  0  0  0  0  0
   48.2200   31.8970   50.1880 H   0  0  0  0  0  0  0  0  0  0  0  0
   48.8850   30.0670   49.1580 C   0  0  2  0  0  0  0  0  0  0  0  0
   49.8710   29.8050   50.3200 C   0  0  0  0  0  0  0  0  0  0  0  0
   50.3610   30.4480   49.0870 C   0  0  1  0  0  0  0  0  0  0  0  0
   48.5560   29.1100   48.7390 H   0  0  0  0  0  0  0  0  0  0  0  0
   49.7420   30.3970   51.2280 H   0  0  0  0  0  0  0  0  0  0  0  0
   50.2510   28.7980   50.5060 H   0  0  0  0  0  0  0  0  0  0  0  0
   50.6040   31.5250   49.2060 H   0  0  0  0  0  0  0  0  0  0  0  0
   51.0410   29.7800   48.0220 C   0  0  0  0  0  0  0  0  0  0  0  0
   52.2870   29.8010   47.5850 C   0  0  0  0  0  0  0  0  0  0  0  0
   53.0950   30.3710   48.0240 H   0  0  0  0  0  0  0  0  0  0  0  0
   52.7350   29.0820   46.5140 C   0  0  0  0  0  3  0  0  0  0  0  0
   51.7660   28.2820   45.8670 C   0  0  0  0  0  3  0  0  0  0  0  0
   50.1520   28.5920   46.8600 S   0  0  0  0  0  0  0  0  0  0  0  0
   46.1850   33.0610   46.1780 C   0  0  0  0  0  3  0  0  0  0  0  0
   46.9640   32.1220   45.8420 C   0  0  0  0  0  3  0  0  0  0  0  0
   44.5430   35.8430   44.4010 C   0  0  0  0  0  0  0  0  0  0  0  0
   45.1650   35.8310   43.1580 C   0  0  0  0  0  0  0  0  0  0  0  0
   46.1160   34.8780   42.9700 C   0  0  0  0  0  0  0  0  0  0  0  0
   46.4160   34.0000   43.9670 N   0  0  0  0  0  0  0  0  0  0  0  0
   45.7930   34.0390   45.1610 C   0  0  0  0  0  0  0  0  0  0  0  0
   44.8660   34.9660   45.3470 N   0  0  0  0  0  0  0  0  0  0  0  0
   43.7770   36.5630   44.6410 H   0  0  0  0  0  0  0  0  0  0  0  0
   44.9080   36.5380   42.3880 H   0  0  0  0  0  0  0  0  0  0  0  0
   46.8520   34.7430   41.7160 C   0  0  0  0  0  0  0  0  0  0  0  0
   48.0640   35.3480   41.4620 C   0  0  0  0  0  0  0  0  0  0  0  0
   48.7440   35.2050   40.2680 C   0  0  0  0  0  0  0  0  0  0  0  0
   48.2200   34.4340   39.2630 C   0  0  0  0  0  0  0  0  0  0  0  0
   47.0160   33.8120   39.4690 C   0  0  0  0  0  0  0  0  0  0  0  0
   46.3630   33.9780   40.6790 C   0  0  0  0  0  0  0  0  0  0  0  0
   48.4900   35.9650   42.2510 H   0  0  0  0  0  0  0  0  0  0  0  0
   49.6780   35.7160   40.1710 H   0  0  0  0  0  0  0  0  0  0  0  0
   48.7240   34.2990   38.3190 H   0  0  0  0  0  0  0  0  0  0  0  0
   46.5580   33.1930   38.7110 H   0  0  0  0  0  0  0  0  0  0  0  0
   45.4110   33.4710   40.8070 H   0  0  0  0  0  0  0  0  0  0  0  0
  1  4  1  0  0  0  0
  2  1  1  0  0  0  0
  3  1  1  0  0  0  0
  4  7  1  1  0  0  0
  4  5  1  0  0  0  0
  4  6  1  0  0  0  0
  5  6  1  0  0  0  0
  5  8  1  0  0  0  0
  6 10  1  1  0  0  0
  9  5  1  0  0  0  0
 11 14  1  6  0  0  0
 11  6  1  0  0  0  0
 11 12  1  0  0  0  0
 12 16  1  0  0  0  0
 12 15  1  0  0  0  0
 13 11  1  0  0  0  0
 13 17  1  1  0  0  0
 13 12  1  0  0  0  0
 18 13  1  0  0  0  0
 19 18  2  0  0  0  0
 19 20  1  0  0  0  0
 21 19  1  0  0  0  0
 22 21  2  0  0  0  0
 22 23  1  0  0  0  0
 23 18  1  0  0  0  0
 25 24  2  0  0  0  0
 25  1  1  0  0  0  0
 26 32  1  0  0  0  0
 26 31  1  0  0  0  0
 27 26  2  0  0  0  0
 28 27  1  0  0  0  0
 28 29  2  0  0  0  0
 29 30  1  0  0  0  0
 30 31  2  0  0  0  0
 30 24  1  0  0  0  0
 33 27  1  0  0  0  0
 34 28  1  0  0  0  0
 35 34  1  0  0  0  0
 35 40  1  0  0  0  0
 36 35  2  0  0  0  0
 37 38  2  0  0  0  0
 37 36  1  0  0  0  0
 38 39  1  0  0  0  0
 39 44  1  0  0  0  0
 39 34  2  0  0  0  0
 41 36  1  0  0  0  0
 42 37  1  0  0  0  0
 43 38  1  0  0  0  0
M  END
>  <minimizedAffinity>
-6.13387918

>  <minimizedRMSD>
1.25242949

$$$$
