
 OpenBabel03242520173D

 28 30  0  0  0  0  0  0  0  0999 V2000
   44.2330   34.5750   41.3540 C   0  0  0  0  0  0  0  0  0  0  0  0
   43.1170   35.3120   40.9260 C   0  0  0  0  0  0  0  0  0  0  0  0
   42.5620   35.0540   39.6650 C   0  0  0  0  0  0  0  0  0  0  0  0
   43.1660   34.0780   38.9200 N   0  0  0  0  0  0  0  0  0  0  0  0
   44.2550   33.3870   39.3810 C   0  0  0  0  0  0  0  0  0  0  0  0
   44.7740   33.6320   40.5680 N   0  0  0  0  0  0  0  0  0  0  0  0
   42.7370   36.0560   41.6030 H   0  0  0  0  0  0  0  0  0  0  0  0
   44.6490   32.6350   38.7010 H   0  0  0  0  0  0  0  0  0  0  0  0
   44.8070   34.8570   42.6930 C   0  0  0  0  0  0  0  0  0  0  0  0
   46.2830   35.3560   42.6180 C   0  0  0  0  0  0  0  0  0  0  0  0
   45.1510   36.1740   43.1320 C   0  0  0  0  0  0  0  0  0  0  0  0
   44.6910   33.9800   43.3930 H   0  0  0  0  0  0  0  0  0  0  0  0
   46.9730   34.9480   43.3830 H   0  0  0  0  0  0  0  0  0  0  0  0
   46.7070   35.5410   41.6170 H   0  0  0  0  0  0  0  0  0  0  0  0
   44.7700   37.0410   42.5240 H   0  0  0  0  0  0  0  0  0  0  0  0
   45.1330   36.3990   44.2230 H   0  0  0  0  0  0  0  0  0  0  0  0
   41.3920   35.8100   39.1940 C   0  0  0  0  0  0  0  0  0  0  0  0
   41.0050   35.2580   38.3050 H   0  0  0  0  0  0  0  0  0  0  0  0
   41.6330   36.8250   38.8600 H   0  0  0  0  0  0  0  0  0  0  0  0
   40.2750   35.8310   40.2460 C   0  0  0  0  0  0  0  0  0  0  0  0
   39.5760   36.6510   39.9330 H   0  0  0  0  0  0  0  0  0  0  0  0
   40.6570   36.0980   41.2300 H   0  0  0  0  0  0  0  0  0  0  0  0
   39.5880   34.5720   40.2680 C   0  0  0  0  0  0  0  0  0  0  0  0
   38.7040   33.9690   39.3860 C   0  0  0  0  0  0  0  0  0  0  0  0
   38.4640   34.5280   38.4990 H   0  0  0  0  0  0  0  0  0  0  0  0
   38.1990   32.7360   39.6790 C   0  0  0  0  0  0  0  0  0  0  0  0
   38.6150   32.0970   40.9220 C   0  0  0  0  0  0  0  0  0  0  0  0
   39.7810   33.4340   41.5990 S   0  0  0  0  0  0  0  0  0  0  0  0
  1  9  1  0  0  0  0
  2  1  1  0  0  0  0
  2  7  1  0  0  0  0
  3  2  2  0  0  0  0
  4  5  2  0  0  0  0
  4  3  1  0  0  0  0
  5  6  1  0  0  0  0
  6  1  2  0  0  0  0
  8  5  1  0  0  0  0
  9 11  1  0  0  0  0
  9 12  1  0  0  0  0
 10  9  1  0  0  0  0
 10 11  1  0  0  0  0
 10 13  1  0  0  0  0
 11 16  1  0  0  0  0
 14 10  1  0  0  0  0
 15 11  1  0  0  0  0
 17  3  1  0  0  0  0
 17 20  1  0  0  0  0
 18 17  1  0  0  0  0
 19 17  1  0  0  0  0
 20 23  1  0  0  0  0
 20 22  1  0  0  0  0
 21 20  1  0  0  0  0
 23 28  1  0  0  0  0
 24 26  1  0  0  0  0
 24 23  2  0  0  0  0
 25 24  1  0  0  0  0
 26 27  2  0  0  0  0
 27 28  1  0  0  0  0
M  END
>  <minimizedAffinity>
-4.71373606

>  <minimizedRMSD>
1.69550431

$$$$
