
 OpenBabel03252507553D

 41 44  0  0  1  0  0  0  0  0999 V2000
   47.1690   34.7340   42.1390 C   0  0  2  0  0  0  0  0  0  0  0  0
   46.3590   34.3800   40.8910 C   0  0  0  0  0  0  0  0  0  0  0  0
   47.5360   34.2270   39.9060 C   0  0  0  0  0  0  0  0  0  0  0  0
   48.6390   33.6220   40.7170 C   0  0  1  0  0  0  0  0  0  0  0  0
   48.1420   33.5860   42.1320 C   0  0  0  0  0  0  0  0  0  0  0  0
   47.6560   35.6950   41.9530 H   0  0  0  0  0  0  0  0  0  0  0  0
   45.8950   33.3950   41.0080 H   0  0  0  0  0  0  0  0  0  0  0  0
   45.6930   35.1870   40.5800 H   0  0  0  0  0  0  0  0  0  0  0  0
   47.8560   35.2550   39.6130 H   0  0  0  0  0  0  0  0  0  0  0  0
   47.2370   33.6040   39.0460 H   0  0  0  0  0  0  0  0  0  0  0  0
   49.5770   34.2200   40.6910 H   0  0  0  0  0  0  0  0  0  0  0  0
   48.9440   33.8300   42.8630 H   0  0  0  0  0  0  0  0  0  0  0  0
   47.6070   32.6520   42.3800 H   0  0  0  0  0  0  0  0  0  0  0  0
   44.5890   35.5980   44.7430 C   0  0  0  0  0  0  0  0  0  0  0  0
   45.3030   35.6800   43.5380 C   0  0  0  0  0  0  0  0  0  0  0  0
   46.3170   34.7450   43.3580 C   0  0  0  0  0  0  0  0  0  0  0  0
   46.5940   33.7840   44.3420 N   0  0  0  0  0  0  0  0  0  0  0  0
   45.8640   33.7630   45.4860 C   0  0  0  0  0  0  0  0  0  0  0  0
   44.8670   34.6690   45.6810 N   0  0  0  0  0  0  0  0  0  0  0  0
   43.7920   36.3140   44.9120 H   0  0  0  0  0  0  0  0  0  0  0  0
   45.1150   36.4020   42.7690 H   0  0  0  0  0  0  0  0  0  0  0  0
   46.1720   32.9800   46.1620 H   0  0  0  0  0  0  0  0  0  0  0  0
   48.9920   32.2020   40.3320 C   0  0  2  0  0  0  0  0  0  0  0  0
   50.0660   31.5840   41.1020 C   0  0  0  0  0  0  0  0  0  0  0  0
   50.2490   31.8830   39.6530 C   0  0  1  0  0  0  0  0  0  0  0  0
   48.1140   31.5820   40.0820 H   0  0  0  0  0  0  0  0  0  0  0  0
   50.5750   32.1610   41.8750 H   0  0  0  0  0  0  0  0  0  0  0  0
   49.9130   30.5150   41.4280 H   0  0  0  0  0  0  0  0  0  0  0  0
   50.8940   32.7240   39.3600 H   0  0  0  0  0  0  0  0  0  0  0  0
   50.2430   30.7920   38.7520 O   0  0  0  0  0  0  0  0  0  0  0  0
   48.6060   31.0850   36.7480 O   0  0  0  0  0  0  0  0  0  0  0  0
   50.0150   31.3860   37.2010 P   0  0  1  0  0  0  0  0  0  0  0  0
   50.1950   33.0940   37.2000 O   0  0  0  0  0  0  0  0  0  0  0  0
   51.1520   33.2790   37.4490 H   0  0  0  0  0  0  0  0  0  0  0  0
   51.0700   30.8030   36.0600 O   0  0  0  0  0  0  0  0  0  0  0  0
   50.6380   30.6760   34.7430 C   0  0  0  0  0  0  0  0  0  0  0  0
   50.4060   31.4920   33.6960 C   0  0  0  0  0  0  0  0  0  0  0  0
   50.6100   32.5250   33.9400 H   0  0  0  0  0  0  0  0  0  0  0  0
   49.9720   31.0140   32.5080 C   0  0  0  0  0  3  0  0  0  0  0  0
   49.7840   29.6180   32.4550 C   0  0  0  0  0  3  0  0  0  0  0  0
   50.2680   29.0680   34.1960 S   0  0  0  0  0  0  0  0  0  0  0  0
  1  6  1  6  0  0  0
  1 16  1  0  0  0  0
  2  7  1  0  0  0  0
  2  1  1  0  0  0  0
  3  4  1  0  0  0  0
  3  2  1  0  0  0  0
  4 11  1  6  0  0  0
  4  5  1  0  0  0  0
  5  1  1  0  0  0  0
  5 13  1  0  0  0  0
  5 12  1  0  0  0  0
  8  2  1  0  0  0  0
  9  3  1  0  0  0  0
 10  3  1  0  0  0  0
 14 20  1  0  0  0  0
 14 19  1  0  0  0  0
 15 14  2  0  0  0  0
 16 15  1  0  0  0  0
 16 17  2  0  0  0  0
 17 18  1  0  0  0  0
 18 19  2  0  0  0  0
 18 22  1  0  0  0  0
 21 15  1  0  0  0  0
 23 26  1  6  0  0  0
 23  4  1  0  0  0  0
 23 24  1  0  0  0  0
 24 28  1  0  0  0  0
 24 27  1  0  0  0  0
 25 29  1  6  0  0  0
 25 23  1  0  0  0  0
 25 24  1  0  0  0  0
 30 25  1  0  0  0  0
 32 31  2  6  0  0  0
 32 30  1  0  0  0  0
 33 32  1  0  0  0  0
 33 34  1  0  0  0  0
 35 32  1  0  0  0  0
 36 35  1  0  0  0  0
 37 38  1  0  0  0  0
 37 36  2  0  0  0  0
 39 37  1  0  0  0  0
 40 39  2  0  0  0  0
 40 41  1  0  0  0  0
 41 36  1  0  0  0  0
M  END
>  <minimizedAffinity>
-5.05804634

>  <minimizedRMSD>
3.33058667

$$$$
