
 OpenBabel03252505113D

 41 44  0  0  1  0  0  0  0  0999 V2000
   44.5780   35.5860   44.6100 C   0  0  0  0  0  0  0  0  0  0  0  0
   45.2270   35.6120   43.3670 C   0  0  0  0  0  0  0  0  0  0  0  0
   46.3200   34.7040   43.1800 C   0  0  0  0  0  0  0  0  0  0  0  0
   46.6640   33.8790   44.2030 N   0  0  0  0  0  0  0  0  0  0  0  0
   46.0110   33.8910   45.3800 C   0  0  0  0  0  0  0  0  0  0  0  0
   44.9560   34.7540   45.5860 N   0  0  0  0  0  0  0  0  0  0  0  0
   43.7640   36.2960   44.6720 H   0  0  0  0  0  0  0  0  0  0  0  0
   44.9590   36.2550   42.5660 H   0  0  0  0  0  0  0  0  0  0  0  0
   46.4240   32.9730   46.4640 C   0  0  2  0  0  0  0  0  0  0  0  0
   46.9630   31.7470   45.7550 C   0  0  0  0  0  0  0  0  0  0  0  0
   46.0890   30.5620   45.7840 C   0  0  0  0  0  0  0  0  0  0  0  0
   45.8090   30.2930   47.2620 C   0  0  0  0  0  0  0  0  0  0  0  0
   45.0110   31.3660   47.8730 C   0  0  0  0  0  0  0  0  0  0  0  0
   45.3790   32.7280   47.4170 C   0  0  0  0  0  0  0  0  0  0  0  0
   47.2770   33.4910   46.9780 H   0  0  0  0  0  0  0  0  0  0  0  0
   47.9200   31.4710   46.2530 H   0  0  0  0  0  0  0  0  0  0  0  0
   47.2460   31.9410   44.6990 H   0  0  0  0  0  0  0  0  0  0  0  0
   46.6650   29.7030   45.4000 H   0  0  0  0  0  0  0  0  0  0  0  0
   45.1330   30.7190   45.2820 H   0  0  0  0  0  0  0  0  0  0  0  0
   45.1690   29.4000   47.2760 H   0  0  0  0  0  0  0  0  0  0  0  0
   46.7690   30.0990   47.7590 H   0  0  0  0  0  0  0  0  0  0  0  0
   44.2180   31.4110   48.5750 H   0  0  0  0  0  0  0  0  0  0  0  0
   44.6820   33.8760   47.9280 N   0  0  0  0  0  0  0  0  0  0  0  0
   43.6820   33.8180   47.5960 H   0  0  0  0  0  0  0  0  0  0  0  0
   45.1070   34.6170   48.5210 H   0  0  0  0  0  0  0  0  0  0  0  0
   47.0110   34.6950   41.9020 C   0  0  0  0  0  0  0  0  0  0  0  0
   48.1710   35.4000   41.7960 C   0  0  0  0  0  0  0  0  0  0  0  0
   48.8030   35.3580   40.5390 C   0  0  0  0  0  0  0  0  0  0  0  0
   48.1780   34.6060   39.5550 C   0  0  0  0  0  0  0  0  0  0  0  0
   47.0230   33.9040   39.6640 C   0  0  0  0  0  0  0  0  0  0  0  0
   46.4420   33.9720   40.8990 N   0  0  0  0  0  0  0  0  0  0  0  0
   48.5910   35.9600   42.6150 H   0  0  0  0  0  0  0  0  0  0  0  0
   49.7150   35.9050   40.4360 H   0  0  0  0  0  0  0  0  0  0  0  0
   48.7560   34.6520   38.6480 H   0  0  0  0  0  0  0  0  0  0  0  0
   46.4610   33.1780   38.6470 O   0  0  0  0  0  0  0  0  0  0  0  0
   47.1840   32.8710   37.5260 C   0  0  0  0  0  0  0  0  0  0  0  0
   47.9240   32.5880   36.4850 C   0  0  0  0  0  0  0  0  0  0  0  0
   48.8990   32.7500   36.9420 H   0  0  0  0  0  0  0  0  0  0  0  0
   47.4870   32.2230   35.2850 C   0  0  0  0  0  3  0  0  0  0  0  0
   46.1230   32.1360   35.1270 C   0  0  0  0  0  3  0  0  0  0  0  0
   45.5210   32.6330   36.8840 S   0  0  0  0  0  0  0  0  0  0  0  0
  1  7  1  0  0  0  0
  1  6  1  0  0  0  0
  2  1  2  0  0  0  0
  3  2  1  0  0  0  0
  3  4  2  0  0  0  0
  4  5  1  0  0  0  0
  5  6  2  0  0  0  0
  5  9  1  0  0  0  0
  8  2  1  0  0  0  0
  9 15  1  1  0  0  0
  9 14  1  0  0  0  0
 10 11  1  0  0  0  0
 10 16  1  0  0  0  0
 10  9  1  0  0  0  0
 11 12  1  0  0  0  0
 12 20  1  0  0  0  0
 12 21  1  0  0  0  0
 12 13  1  0  0  0  0
 13 22  1  0  0  0  0
 14 13  2  0  0  0  0
 14 23  1  0  0  0  0
 17 10  1  0  0  0  0
 18 11  1  0  0  0  0
 19 11  1  0  0  0  0
 23 25  1  0  0  0  0
 24 23  1  0  0  0  0
 26  3  1  0  0  0  0
 27 26  1  0  0  0  0
 27 32  1  0  0  0  0
 28 27  2  0  0  0  0
 29 30  2  0  0  0  0
 29 28  1  0  0  0  0
 30 31  1  0  0  0  0
 31 26  2  0  0  0  0
 33 28  1  0  0  0  0
 34 29  1  0  0  0  0
 35 30  1  0  0  0  0
 36 35  1  0  0  0  0
 37 38  1  0  0  0  0
 37 36  2  0  0  0  0
 39 37  1  0  0  0  0
 40 39  2  0  0  0  0
 40 41  1  0  0  0  0
 41 36  1  0  0  0  0
M  END
>  <minimizedAffinity>
-7.14202785

>  <minimizedRMSD>
0.584866822

$$$$
