REMARK  Name = 
REMARK  4 active torsions:
REMARK  status: ('A' for Active; 'I' for Inactive)
REMARK    1  A    between atoms: C_2  and  C_7
REMARK    2  A    between atoms: C_5  and  O_11
REMARK    3  A    between atoms: O_11  and  C_12
REMARK    4  A    between atoms: C_12  and  C_17
REMARK                            x       y       z     vdW  Elec       q    Type
REMARK                         _______ _______ _______ _____ _____    ______ ____
ROOT
ATOM      1  C   UNL     1      44.731  35.398  45.033  0.00  0.00    +0.000 A 
ATOM      2  C   UNL     1      45.605  34.938  44.050  0.00  0.00    +0.000 A 
ATOM      3  C   UNL     1      46.352  33.776  44.328  0.00  0.00    +0.000 A 
ATOM      4  N   UNL     1      46.188  33.167  45.526  0.00  0.00    +0.000 NA
ATOM      5  C   UNL     1      45.336  33.643  46.443  0.00  0.00    +0.000 A 
ATOM      6  N   UNL     1      44.602  34.752  46.219  0.00  0.00    +0.000 NA
ATOM      7  H   UNL     1      44.152  36.287  44.834  0.00  0.00    +0.000 HD
ATOM      8  H   UNL     1      47.010  33.453  43.555  0.00  0.00    +0.000 HD
ENDROOT
BRANCH   2   9
ATOM      9  C   UNL     1      45.682  35.713  42.767  0.00  0.00    +0.000 C 
ATOM     10  F   UNL     1      45.234  36.966  43.065  0.00  0.00    +0.000 F 
ATOM     11  F   UNL     1      44.802  35.087  41.888  0.00  0.00    +0.000 F 
ATOM     12  F   UNL     1      46.967  35.644  42.303  0.00  0.00    +0.000 F 
ENDBRANCH   2   9
BRANCH   5  13
ATOM     13  O   UNL     1      45.139  33.050  47.676  0.00  0.00    +0.000 OA
BRANCH  13  14
ATOM     14  C   UNL     1      46.139  32.280  48.311  0.00  0.00    +0.000 C 
ATOM     15  H   UNL     1      46.357  31.342  47.734  0.00  0.00    +0.000 HD
ATOM     16  H   UNL     1      47.062  32.847  48.520  0.00  0.00    +0.000 HD
BRANCH  14  17
ATOM     17  C   UNL     1      45.558  31.819  49.600  0.00  0.00    +0.000 A 
ATOM     18  C   UNL     1      45.958  30.869  50.450  0.00  0.00    +0.000 A 
ATOM     19  H   UNL     1      46.853  30.313  50.203  0.00  0.00    +0.000 HD
ATOM     20  C   UNL     1      45.267  30.600  51.601  0.00  0.00    +0.000 A 
ATOM     21  C   UNL     1      44.093  31.434  51.782  0.00  0.00    +0.000 A 
ATOM     22  S   UNL     1      44.126  32.522  50.252  0.00  0.00    +0.000 S 
ENDBRANCH  14  17
ENDBRANCH  13  14
ENDBRANCH   5  13
TORSDOF 4
