REMARK  Name = 
REMARK  4 active torsions:
REMARK  status: ('A' for Active; 'I' for Inactive)
REMARK    1  A    between atoms: C_1  and  C_8
REMARK    2  A    between atoms: C_2  and  S_7
REMARK    3  A    between atoms: C_8  and  C_9
REMARK    4  A    between atoms: C_9  and  C_17
REMARK                            x       y       z     vdW  Elec       q    Type
REMARK                         _______ _______ _______ _____ _____    ______ ____
ROOT
ATOM      1  C   UNL     1      48.548  35.340  40.967  0.00  0.00    +0.000 C 
ATOM      2  H   UNL     1      48.351  36.440  40.844  0.00  0.00    +0.000 HD
ATOM      3  H   UNL     1      49.632  35.240  41.134  0.00  0.00    +0.000 HD
ENDROOT
BRANCH   1   4
ATOM      4  C   UNL     1      47.740  34.850  42.092  0.00  0.00    +0.000 A 
ATOM      5  C   UNL     1      48.309  33.812  42.826  0.00  0.00    +0.000 A 
ATOM      6  C   UNL     1      47.598  33.296  43.909  0.00  0.00    +0.000 A 
ATOM      7  N   UNL     1      46.364  33.825  44.217  0.00  0.00    +0.000 NA
ATOM      8  C   UNL     1      45.864  34.830  43.471  0.00  0.00    +0.000 A 
ATOM      9  N   UNL     1      46.535  35.332  42.432  0.00  0.00    +0.000 NA
ATOM     10  H   UNL     1      47.994  32.495  44.507  0.00  0.00    +0.000 HD
ATOM     11  H   UNL     1      44.907  35.306  43.639  0.00  0.00    +0.000 HD
BRANCH   5  12
ATOM     12  S   UNL     1      49.910  33.139  42.410  0.00  0.00    +0.000 S 
ATOM     13  H   UNL     1      49.937  31.741  42.522  0.00  0.00    +0.000 HD
ENDBRANCH   5  12
ENDBRANCH   1   4
BRANCH   1  14
ATOM     14  C   UNL     1      48.198  34.705  39.644  0.00  0.00    +0.000 C 
ATOM     15  H   UNL     1      48.395  33.611  39.644  0.00  0.00    +0.000 HD
ATOM     16  H   UNL     1      47.157  34.952  39.399  0.00  0.00    +0.000 HD
BRANCH  14  17
ATOM     17  C   UNL     1      49.093  35.304  38.633  0.00  0.00    +0.000 A 
ATOM     18  C   UNL     1      50.071  36.249  38.796  0.00  0.00    +0.000 A 
ATOM     19  H   UNL     1      50.238  36.635  39.792  0.00  0.00    +0.000 HD
ATOM     20  C   UNL     1      50.802  36.687  37.757  0.00  0.00    +0.000 A 
ATOM     21  C   UNL     1      50.418  36.030  36.462  0.00  0.00    +0.000 A 
ATOM     22  S   UNL     1      49.026  34.855  36.969  0.00  0.00    +0.000 S 
ENDBRANCH  14  17
ENDBRANCH   1  14
TORSDOF 4
