
 OpenBabel03252506423D

 37 40  0  0  1  0  0  0  0  0999 V2000
   49.3000   33.2120   41.5110 N   0  0  1  0  0  0  0  0  0  0  0  0
   50.6600   33.1940   42.0600 C   0  0  0  0  0  0  0  0  0  0  0  0
   51.3600   31.8970   41.7900 C   0  0  0  0  0  0  0  0  0  0  0  0
   50.7030   30.8440   42.6610 C   0  0  0  0  0  0  0  0  0  0  0  0
   49.2260   31.0450   42.7100 C   0  0  0  0  0  0  0  0  0  0  0  0
   48.7630   31.8760   41.5200 C   0  0  2  0  0  0  0  0  0  0  0  0
   50.6000   33.3000   43.1790 H   0  0  0  0  0  0  0  0  0  0  0  0
   51.2220   34.0850   41.7070 H   0  0  0  0  0  0  0  0  0  0  0  0
   51.4250   31.6410   40.7340 H   0  0  0  0  0  0  0  0  0  0  0  0
   52.4030   32.0260   42.1460 H   0  0  0  0  0  0  0  0  0  0  0  0
   51.0850   30.9810   43.7110 H   0  0  0  0  0  0  0  0  0  0  0  0
   51.0320   29.8490   42.3450 H   0  0  0  0  0  0  0  0  0  0  0  0
   48.9180   31.6270   43.6020 H   0  0  0  0  0  0  0  0  0  0  0  0
   48.6620   30.0850   42.6280 H   0  0  0  0  0  0  0  0  0  0  0  0
   47.6700   32.0000   41.6940 H   0  0  0  0  0  0  0  0  0  0  0  0
   47.1520   34.5340   42.0360 C   0  0  1  0  0  0  0  0  0  0  0  0
   48.2580   35.4490   41.7130 C   0  0  0  0  0  0  0  0  0  0  0  0
   48.5650   34.1300   42.3160 C   0  0  2  0  0  0  0  0  0  0  0  0
   46.6760   34.0310   41.1720 H   0  0  0  0  0  0  0  0  0  0  0  0
   48.3630   36.3670   42.3400 H   0  0  0  0  0  0  0  0  0  0  0  0
   48.5170   35.6550   40.6380 H   0  0  0  0  0  0  0  0  0  0  0  0
   48.8580   34.1750   43.4050 H   0  0  0  0  0  0  0  0  0  0  0  0
   45.4870   36.0260   43.1900 C   0  0  0  0  0  0  0  0  0  0  0  0
   46.2530   34.8430   43.1800 C   0  0  0  0  0  0  0  0  0  0  0  0
   46.1310   33.9700   44.2730 C   0  0  0  0  0  0  0  0  0  0  0  0
   45.2850   34.3120   45.2800 N   0  0  0  0  0  0  0  0  0  0  0  0
   44.5610   35.4610   45.2550 C   0  0  0  0  0  0  0  0  0  0  0  0
   44.6580   36.3300   44.2060 N   0  0  0  0  0  0  0  0  0  0  0  0
   45.6260   36.6540   42.3220 H   0  0  0  0  0  0  0  0  0  0  0  0
   46.7080   33.0500   44.2960 H   0  0  0  0  0  0  0  0  0  0  0  0
   43.8880   35.7340   46.0530 H   0  0  0  0  0  0  0  0  0  0  0  0
   48.9350   31.1490   40.2560 C   0  0  0  0  0  0  0  0  0  0  0  0
   48.9020   29.8630   39.9520 C   0  0  0  0  0  0  0  0  0  0  0  0
   48.7160   29.1480   40.7390 H   0  0  0  0  0  0  0  0  0  0  0  0
   49.1020   29.4680   38.6590 C   0  0  0  0  0  3  0  0  0  0  0  0
   49.3330   30.4420   37.7090 C   0  0  0  0  0  3  0  0  0  0  0  0
   49.2750   32.0790   38.6690 S   0  0  0  0  0  0  0  0  0  0  0  0
  1  6  1  0  0  0  0
  1  2  1  1  0  0  0
  1 18  1  0  0  0  0
  2  7  1  0  0  0  0
  3  2  1  0  0  0  0
  3 10  1  0  0  0  0
  3  4  1  0  0  0  0
  4  5  1  0  0  0  0
  4 11  1  0  0  0  0
  5 13  1  0  0  0  0
  6 15  1  1  0  0  0
  6  5  1  0  0  0  0
  8  2  1  0  0  0  0
  9  3  1  0  0  0  0
 12  4  1  0  0  0  0
 14  5  1  0  0  0  0
 16 19  1  6  0  0  0
 16 18  1  0  0  0  0
 16 24  1  0  0  0  0
 17 16  1  0  0  0  0
 17 18  1  0  0  0  0
 17 20  1  0  0  0  0
 18 22  1  1  0  0  0
 21 17  1  0  0  0  0
 23 28  1  0  0  0  0
 24 23  2  0  0  0  0
 24 25  1  0  0  0  0
 25 30  1  0  0  0  0
 25 26  2  0  0  0  0
 27 26  1  0  0  0  0
 27 31  1  0  0  0  0
 28 27  2  0  0  0  0
 29 23  1  0  0  0  0
 32  6  1  0  0  0  0
 33 32  2  0  0  0  0
 33 34  1  0  0  0  0
 35 33  1  0  0  0  0
 36 35  2  0  0  0  0
 36 37  1  0  0  0  0
 37 32  1  0  0  0  0
M  END
>  <minimizedAffinity>
-4.67796659

>  <minimizedRMSD>
0.207170337

$$$$
