
 OpenBabel03242523543D

 42 45  0  0  1  0  0  0  0  0999 V2000
   42.8140   34.5030   38.7600 C   0  0  1  0  0  0  0  0  0  0  0  0
   42.9600   35.1840   40.1120 C   0  0  1  0  0  0  0  0  0  0  0  0
   41.6740   35.4250   40.6290 O   0  0  0  0  0  0  0  0  0  0  0  0
   40.7490   35.7550   39.6360 C   0  0  0  0  0  0  0  0  0  0  0  0
   40.4330   34.5690   38.7420 C   0  0  2  0  0  0  0  0  0  0  0  0
   41.6450   33.5820   38.8820 C   0  0  1  0  0  0  0  0  0  0  0  0
   43.7580   33.9650   38.4880 H   0  0  0  0  0  0  0  0  0  0  0  0
   43.5590   36.1060   40.0710 H   0  0  0  0  0  0  0  0  0  0  0  0
   39.8260   36.0280   40.1580 H   0  0  0  0  0  0  0  0  0  0  0  0
   41.0640   36.6420   39.0530 H   0  0  0  0  0  0  0  0  0  0  0  0
   39.5020   34.0630   39.0380 H   0  0  0  0  0  0  0  0  0  0  0  0
   41.4320   33.3170   39.9720 H   0  0  0  0  0  0  0  0  0  0  0  0
   42.6000   35.4450   37.7430 O   0  0  0  0  0  0  0  0  0  0  0  0
   43.4140   35.9260   37.5240 H   0  0  0  0  0  0  0  0  0  0  0  0
   40.4470   34.9720   37.4150 O   0  0  0  0  0  0  0  0  0  0  0  0
   39.5270   35.1820   37.0830 H   0  0  0  0  0  0  0  0  0  0  0  0
   43.4930   34.2050   40.9650 O   0  0  0  0  0  0  0  0  0  0  0  0
   44.6020   34.3480   41.7010 C   0  0  0  0  0  0  0  0  0  0  0  0
   45.8640   34.4440   41.0940 C   0  0  0  0  0  0  0  0  0  0  0  0
   46.9780   34.5930   41.9040 C   0  0  0  0  0  0  0  0  0  0  0  0
   46.8150   34.6410   43.2780 N   0  0  0  0  0  0  0  0  0  0  0  0
   45.5820   34.5450   43.8260 C   0  0  0  0  0  0  0  0  0  0  0  0
   44.4820   34.3990   43.0410 N   0  0  0  0  0  0  0  0  0  0  0  0
   45.9980   34.4070   40.0280 H   0  0  0  0  0  0  0  0  0  0  0  0
   45.5300   34.5910   44.9060 H   0  0  0  0  0  0  0  0  0  0  0  0
   48.3560   34.6860   41.3340 C   0  0  0  0  0  0  0  0  0  0  0  0
   49.0800   36.0220   41.5070 C   0  0  0  0  0  0  0  0  0  0  0  0
   49.5070   34.7040   42.1790 C   0  0  0  0  0  0  0  0  0  0  0  0
   48.4200   34.2910   40.2810 H   0  0  0  0  0  0  0  0  0  0  0  0
   48.6340   36.7570   42.1770 H   0  0  0  0  0  0  0  0  0  0  0  0
   49.7640   36.3420   40.6990 H   0  0  0  0  0  0  0  0  0  0  0  0
   50.4620   34.2400   41.8570 H   0  0  0  0  0  0  0  0  0  0  0  0
   49.3600   34.6450   43.2850 H   0  0  0  0  0  0  0  0  0  0  0  0
   41.5020   32.6300   37.9400 O   0  0  0  0  0  0  0  0  0  0  0  0
   40.8260   31.4840   37.9620 C   0  0  0  0  0  0  0  0  0  0  0  0
   39.6360   31.3360   37.4050 O   0  0  0  0  0  0  0  0  0  0  0  0
   41.1370   30.0490   38.5650 C   0  0  0  0  0  0  0  0  0  0  0  0
   42.2180   29.4930   38.9860 C   0  0  0  0  0  0  0  0  0  0  0  0
   43.1020   30.1170   38.9300 H   0  0  0  0  0  0  0  0  0  0  0  0
   42.1870   28.2170   39.4530 C   0  0  0  0  0  3  0  0  0  0  0  0
   40.9410   27.5840   39.4400 C   0  0  0  0  0  3  0  0  0  0  0  0
   39.8220   28.9670   38.7050 S   0  0  0  0  0  0  0  0  0  0  0  0
  1  7  1  6  0  0  0
  1  6  1  0  0  0  0
  1  2  1  0  0  0  0
  2  8  1  6  0  0  0
  2  3  1  0  0  0  0
  2 17  1  0  0  0  0
  4  9  1  0  0  0  0
  4  3  1  0  0  0  0
  5  6  1  0  0  0  0
  5 11  1  1  0  0  0
  5  4  1  0  0  0  0
  6 12  1  1  0  0  0
 10  4  1  0  0  0  0
 13  1  1  0  0  0  0
 14 13  1  0  0  0  0
 15  5  1  0  0  0  0
 16 15  1  0  0  0  0
 17 18  1  0  0  0  0
 18 23  1  0  0  0  0
 19 18  2  0  0  0  0
 19 20  1  0  0  0  0
 20 21  2  0  0  0  0
 21 22  1  0  0  0  0
 22 25  1  0  0  0  0
 23 22  2  0  0  0  0
 24 19  1  0  0  0  0
 26 27  1  0  0  0  0
 26 20  1  0  0  0  0
 26 28  1  0  0  0  0
 27 30  1  0  0  0  0
 27 28  1  0  0  0  0
 28 33  1  0  0  0  0
 29 26  1  0  0  0  0
 31 27  1  0  0  0  0
 32 28  1  0  0  0  0
 34 35  1  0  0  0  0
 34  6  1  0  0  0  0
 35 37  1  0  0  0  0
 36 35  2  0  0  0  0
 37 42  1  0  0  0  0
 37 38  2  0  0  0  0
 38 40  1  0  0  0  0
 39 38  1  0  0  0  0
 41 40  2  0  0  0  0
 42 41  1  0  0  0  0
M  END
>  <minimizedAffinity>
-5.62463427

>  <minimizedRMSD>
0.225546479

$$$$
