REMARK  Name = 
REMARK  6 active torsions:
REMARK  status: ('A' for Active; 'I' for Inactive)
REMARK    1  A    between atoms: C_2  and  O_17
REMARK    2  A    between atoms: C_3  and  C_7
REMARK    3  A    between atoms: O_17  and  P_19
REMARK    4  A    between atoms: P_19  and  O_20
REMARK    5  A    between atoms: P_19  and  O_21
REMARK    6  A    between atoms: O_21  and  C_32
REMARK                            x       y       z     vdW  Elec       q    Type
REMARK                         _______ _______ _______ _____ _____    ______ ____
ROOT
ATOM      1  C   UNL     1      46.229  35.218  42.737  0.00  0.00    +0.000 A 
ATOM      2  C   UNL     1      46.829  34.038  43.176  0.00  0.00    +0.000 A 
ATOM      3  C   UNL     1      46.418  33.473  44.369  0.00  0.00    +0.000 A 
ATOM      4  N   UNL     1      45.419  34.104  45.070  0.00  0.00    +0.000 NA
ATOM      5  C   UNL     1      44.856  35.236  44.627  0.00  0.00    +0.000 A 
ATOM      6  N   UNL     1      45.268  35.781  43.468  0.00  0.00    +0.000 NA
ATOM      7  H   UNL     1      46.521  35.702  41.808  0.00  0.00    +0.000 HD
ATOM      8  H   UNL     1      44.067  35.652  45.271  0.00  0.00    +0.000 HD
ENDROOT
BRANCH   3   9
ATOM      9  C   UNL     1      46.947  32.273  44.925  0.00  0.00    +0.000 A 
ATOM     10  C   UNL     1      47.657  31.311  44.225  0.00  0.00    +0.000 A 
ATOM     11  C   UNL     1      48.070  30.117  44.768  0.00  0.00    +0.000 A 
ATOM     12  C   UNL     1      47.779  29.820  46.084  0.00  0.00    +0.000 A 
ATOM     13  C   UNL     1      47.054  30.797  46.813  0.00  0.00    +0.000 A 
ATOM     14  C   UNL     1      46.759  30.510  48.119  0.00  0.00    +0.000 A 
ATOM     15  C   UNL     1      46.061  31.416  48.897  0.00  0.00    +0.000 A 
ATOM     16  C   UNL     1      45.661  32.632  48.337  0.00  0.00    +0.000 A 
ATOM     17  C   UNL     1      45.978  32.896  46.992  0.00  0.00    +0.000 A 
ATOM     18  C   UNL     1      46.668  31.968  46.240  0.00  0.00    +0.000 A 
ATOM     19  H   UNL     1      47.917  31.447  43.219  0.00  0.00    +0.000 HD
ATOM     20  H   UNL     1      48.623  29.370  44.224  0.00  0.00    +0.000 HD
ATOM     21  H   UNL     1      48.096  28.883  46.521  0.00  0.00    +0.000 HD
ATOM     22  H   UNL     1      47.092  29.544  48.532  0.00  0.00    +0.000 HD
ATOM     23  H   UNL     1      45.882  31.078  49.921  0.00  0.00    +0.000 HD
ATOM     24  H   UNL     1      45.139  33.209  49.078  0.00  0.00    +0.000 HD
ATOM     25  H   UNL     1      45.607  33.860  46.856  0.00  0.00    +0.000 HD
ENDBRANCH   3   9
BRANCH   2  26
ATOM     26  O   UNL     1      47.795  33.501  42.376  0.00  0.00    +0.000 OA
BRANCH  26  28
ATOM     27  O   UNL     1      50.309  33.293  41.619  0.00  0.00    +0.000 OA
ATOM     28  P   UNL     1      49.273  34.280  42.040  0.00  0.00    +0.000 P 
BRANCH  28  29
ATOM     29  O   UNL     1      49.091  35.385  40.768  0.00  0.00    +0.000 OA
ATOM     30  H   UNL     1      49.991  35.578  40.426  0.00  0.00    +0.000 HD
ENDBRANCH  28  29
BRANCH  28  31
ATOM     31  O   UNL     1      49.767  35.118  43.402  0.00  0.00    +0.000 OA
BRANCH  31  32
ATOM     32  C   UNL     1      49.540  36.401  43.728  0.00  0.00    +0.000 A 
ATOM     33  C   UNL     1      48.849  37.416  43.069  0.00  0.00    +0.000 A 
ATOM     34  H   UNL     1      48.401  37.161  42.121  0.00  0.00    +0.000 HD
ATOM     35  C   UNL     1      48.782  38.655  43.656  0.00  0.00    +0.000 A 
ATOM     36  C   UNL     1      49.377  38.889  44.854  0.00  0.00    +0.000 A 
ATOM     37  S   UNL     1      50.154  37.212  45.289  0.00  0.00    +0.000 S 
ENDBRANCH  31  32
ENDBRANCH  28  31
ENDBRANCH  26  28
ENDBRANCH   2  26
TORSDOF 6
