
 OpenBabel03252505223D

 25 27  0  0  0  0  0  0  0  0999 V2000
   38.0740   28.2390   39.7460 F   0  0  0  0  0  0  0  0  0  0  0  0
   37.7200   27.9850   41.0340 C   0  0  0  0  0  0  0  0  0  0  0  0
   37.6940   29.0620   41.9140 C   0  0  0  0  0  0  0  0  0  0  0  0
   37.3440   28.8510   43.2150 C   0  0  0  0  0  0  0  0  0  0  0  0
   37.0230   27.5900   43.6520 C   0  0  0  0  0  0  0  0  0  0  0  0
   37.0440   26.5020   42.7920 C   0  0  0  0  0  0  0  0  0  0  0  0
   37.4010   26.7300   41.4700 C   0  0  0  0  0  0  0  0  0  0  0  0
   37.3130   29.6680   43.9250 H   0  0  0  0  0  0  0  0  0  0  0  0
   36.7440   27.4030   44.6800 H   0  0  0  0  0  0  0  0  0  0  0  0
   36.7860   25.4940   43.1470 H   0  0  0  0  0  0  0  0  0  0  0  0
   37.4380   32.3760   40.3680 C   0  0  0  0  0  0  0  0  0  0  0  0
   38.7320   32.9150   40.5380 C   0  0  0  0  0  0  0  0  0  0  0  0
   39.6670   32.1150   41.1870 C   0  0  0  0  0  0  0  0  0  0  0  0
   39.2740   30.8810   41.6090 N   0  0  0  0  0  0  0  0  0  0  0  0
   38.0390   30.4020   41.4310 C   0  0  0  0  0  0  0  0  0  0  0  0
   37.1140   31.1500   40.8080 N   0  0  0  0  0  0  0  0  0  0  0  0
   36.7040   32.9900   39.8640 H   0  0  0  0  0  0  0  0  0  0  0  0
   38.9570   33.8960   40.1740 H   0  0  0  0  0  0  0  0  0  0  0  0
   40.6720   32.4760   41.3450 H   0  0  0  0  0  0  0  0  0  0  0  0
   37.4280   25.6420   40.5800 C   0  0  0  0  0  0  0  0  0  0  0  0
   36.4670   25.0280   39.8420 C   0  0  0  0  0  0  0  0  0  0  0  0
   35.4610   25.4150   39.9160 H   0  0  0  0  0  0  0  0  0  0  0  0
   36.7700   23.9610   39.0370 C   0  0  0  0  0  3  0  0  0  0  0  0
   38.1140   23.5320   39.0110 C   0  0  0  0  0  3  0  0  0  0  0  0
   38.9240   24.7520   40.2130 S   0  0  0  0  0  0  0  0  0  0  0  0
  1  2  1  0  0  0  0
  2  7  2  0  0  0  0
  2  3  1  0  0  0  0
  3  4  2  0  0  0  0
  4  5  1  0  0  0  0
  4  8  1  0  0  0  0
  5  9  1  0  0  0  0
  6 10  1  0  0  0  0
  6  5  2  0  0  0  0
  7  6  1  0  0  0  0
 11 12  2  0  0  0  0
 11 16  1  0  0  0  0
 12 13  1  0  0  0  0
 13 19  1  0  0  0  0
 13 14  2  0  0  0  0
 15 14  1  0  0  0  0
 15  3  1  0  0  0  0
 16 15  2  0  0  0  0
 17 11  1  0  0  0  0
 18 12  1  0  0  0  0
 20  7  1  0  0  0  0
 21 22  1  0  0  0  0
 21 20  2  0  0  0  0
 23 21  1  0  0  0  0
 24 23  2  0  0  0  0
 24 25  1  0  0  0  0
 25 20  1  0  0  0  0
M  END
>  <minimizedAffinity>
-4.79333878

$$$$

 OpenBabel03252505223D

 25 27  0  0  0  0  0  0  0  0999 V2000
   40.0970   29.9400   40.4970 F   0  0  0  0  0  0  0  0  0  0  0  0
   39.0720   30.8000   40.2580 C   0  0  0  0  0  0  0  0  0  0  0  0
   39.3070   31.8470   39.3720 C   0  0  0  0  0  0  0  0  0  0  0  0
   38.3050   32.7330   39.1050 C   0  0  0  0  0  0  0  0  0  0  0  0
   37.0780   32.5940   39.7050 C   0  0  0  0  0  0  0  0  0  0  0  0
   36.8220   31.5590   40.5920 C   0  0  0  0  0  0  0  0  0  0  0  0
   37.8490   30.6640   40.8550 C   0  0  0  0  0  0  0  0  0  0  0  0
   38.4570   33.5570   38.4200 H   0  0  0  0  0  0  0  0  0  0  0  0
   36.2720   33.2870   39.5060 H   0  0  0  0  0  0  0  0  0  0  0  0
   35.8370   31.4530   41.0690 H   0  0  0  0  0  0  0  0  0  0  0  0
   42.0400   31.6030   36.9410 C   0  0  0  0  0  0  0  0  0  0  0  0
   43.1130   32.2510   37.5920 C   0  0  0  0  0  0  0  0  0  0  0  0
   42.8640   32.7590   38.8620 C   0  0  0  0  0  0  0  0  0  0  0  0
   41.6170   32.6000   39.3860 N   0  0  0  0  0  0  0  0  0  0  0  0
   40.6230   31.9800   38.7410 C   0  0  0  0  0  0  0  0  0  0  0  0
   40.8320   31.4780   37.5130 N   0  0  0  0  0  0  0  0  0  0  0  0
   42.2240   31.2050   35.9530 H   0  0  0  0  0  0  0  0  0  0  0  0
   44.0650   32.3330   37.1080 H   0  0  0  0  0  0  0  0  0  0  0  0
   43.6480   33.2640   39.4080 H   0  0  0  0  0  0  0  0  0  0  0  0
   37.6110   29.6070   41.7500 C   0  0  0  0  0  0  0  0  0  0  0  0
   38.0540   29.3430   43.0070 C   0  0  0  0  0  0  0  0  0  0  0  0
   38.7260   30.0590   43.4570 H   0  0  0  0  0  0  0  0  0  0  0  0
   37.6580   28.2110   43.6710 C   0  0  0  0  0  3  0  0  0  0  0  0
   36.7780   27.3400   42.9960 C   0  0  0  0  0  3  0  0  0  0  0  0
   36.5480   28.2390   41.3440 S   0  0  0  0  0  0  0  0  0  0  0  0
  2  1  1  0  0  0  0
  2  7  1  0  0  0  0
  3  2  2  0  0  0  0
  4  3  1  0  0  0  0
  4  5  2  0  0  0  0
  5  6  1  0  0  0  0
  6  7  2  0  0  0  0
  6 10  1  0  0  0  0
  7 20  1  0  0  0  0
  8  4  1  0  0  0  0
  9  5  1  0  0  0  0
 11 16  2  0  0  0  0
 11 12  1  0  0  0  0
 12 13  2  0  0  0  0
 13 14  1  0  0  0  0
 13 19  1  0  0  0  0
 15  3  1  0  0  0  0
 15 14  2  0  0  0  0
 16 15  1  0  0  0  0
 17 11  1  0  0  0  0
 18 12  1  0  0  0  0
 20 21  2  0  0  0  0
 21 22  1  0  0  0  0
 21 23  1  0  0  0  0
 24 23  2  0  0  0  0
 25 20  1  0  0  0  0
 25 24  1  0  0  0  0
M  END
>  <minimizedAffinity>
-4.72470713

$$$$

 OpenBabel03252505223D

 25 27  0  0  0  0  0  0  0  0999 V2000
   37.8800   28.2160   39.6060 F   0  0  0  0  0  0  0  0  0  0  0  0
   37.6840   28.0820   40.9440 C   0  0  0  0  0  0  0  0  0  0  0  0
   37.5120   26.7930   41.4400 C   0  0  0  0  0  0  0  0  0  0  0  0
   37.3130   26.6140   42.7770 C   0  0  0  0  0  0  0  0  0  0  0  0
   37.2800   27.6930   43.6250 C   0  0  0  0  0  0  0  0  0  0  0  0
   37.4470   28.9870   43.1520 C   0  0  0  0  0  0  0  0  0  0  0  0
   37.6500   29.1560   41.7900 C   0  0  0  0  0  0  0  0  0  0  0  0
   37.1770   25.6250   43.1940 H   0  0  0  0  0  0  0  0  0  0  0  0
   37.1220   27.5710   44.6880 H   0  0  0  0  0  0  0  0  0  0  0  0
   37.4200   29.8470   43.8350 H   0  0  0  0  0  0  0  0  0  0  0  0
   38.7500   24.0200   39.3880 C   0  0  0  0  0  0  0  0  0  0  0  0
   37.5770   23.5120   38.7870 C   0  0  0  0  0  0  0  0  0  0  0  0
   36.3810   24.1430   39.1080 C   0  0  0  0  0  0  0  0  0  0  0  0
   36.4210   25.1970   39.9700 N   0  0  0  0  0  0  0  0  0  0  0  0
   37.5510   25.6530   40.5210 C   0  0  0  0  0  0  0  0  0  0  0  0
   38.7230   25.0640   40.2300 N   0  0  0  0  0  0  0  0  0  0  0  0
   39.6850   23.5350   39.1430 H   0  0  0  0  0  0  0  0  0  0  0  0
   37.6340   22.6770   38.1180 H   0  0  0  0  0  0  0  0  0  0  0  0
   35.4520   23.7970   38.6780 H   0  0  0  0  0  0  0  0  0  0  0  0
   37.8230   30.4580   41.2890 C   0  0  0  0  0  0  0  0  0  0  0  0
   37.0020   31.3060   40.6170 C   0  0  0  0  0  0  0  0  0  0  0  0
   36.0030   30.9590   40.3970 H   0  0  0  0  0  0  0  0  0  0  0  0
   37.4320   32.5500   40.2350 C   0  0  0  0  0  3  0  0  0  0  0  0
   38.7560   32.9070   40.5700 C   0  0  0  0  0  3  0  0  0  0  0  0
   39.3530   31.3490   41.4670 S   0  0  0  0  0  0  0  0  0  0  0  0
  1  2  1  0  0  0  0
  2  3  2  0  0  0  0
  2  7  1  0  0  0  0
  3  4  1  0  0  0  0
  4  8  1  0  0  0  0
  4  5  2  0  0  0  0
  5  9  1  0  0  0  0
  6  5  1  0  0  0  0
  6 10  1  0  0  0  0
  7  6  2  0  0  0  0
 11 16  1  0  0  0  0
 12 13  1  0  0  0  0
 12 11  2  0  0  0  0
 13 14  2  0  0  0  0
 14 15  1  0  0  0  0
 15  3  1  0  0  0  0
 16 15  2  0  0  0  0
 17 11  1  0  0  0  0
 18 12  1  0  0  0  0
 19 13  1  0  0  0  0
 20 25  1  0  0  0  0
 20  7  1  0  0  0  0
 21 20  2  0  0  0  0
 22 21  1  0  0  0  0
 23 24  2  0  0  0  0
 23 21  1  0  0  0  0
 24 25  1  0  0  0  0
M  END
>  <minimizedAffinity>
-4.69878292

$$$$

 OpenBabel03252505223D

 25 27  0  0  0  0  0  0  0  0999 V2000
   37.5560   27.2310   40.0450 F   0  0  0  0  0  0  0  0  0  0  0  0
   38.1860   27.0930   41.2420 C   0  0  0  0  0  0  0  0  0  0  0  0
   38.4340   28.2520   41.9720 C   0  0  0  0  0  0  0  0  0  0  0  0
   39.0630   28.1580   43.1780 C   0  0  0  0  0  0  0  0  0  0  0  0
   39.4500   26.9340   43.6660 C   0  0  0  0  0  0  0  0  0  0  0  0
   39.2150   25.7670   42.9540 C   0  0  0  0  0  0  0  0  0  0  0  0
   38.5730   25.8760   41.7290 C   0  0  0  0  0  0  0  0  0  0  0  0
   39.2700   29.0400   43.7700 H   0  0  0  0  0  0  0  0  0  0  0  0
   39.9510   26.8400   44.6190 H   0  0  0  0  0  0  0  0  0  0  0  0
   39.5270   24.7900   43.3490 H   0  0  0  0  0  0  0  0  0  0  0  0
   36.3370   31.0820   40.9560 C   0  0  0  0  0  0  0  0  0  0  0  0
   37.2670   31.9980   40.4190 C   0  0  0  0  0  0  0  0  0  0  0  0
   38.6030   31.6140   40.4210 C   0  0  0  0  0  0  0  0  0  0  0  0
   38.9200   30.3940   40.9350 N   0  0  0  0  0  0  0  0  0  0  0  0
   38.0130   29.5490   41.4360 C   0  0  0  0  0  0  0  0  0  0  0  0
   36.7140   29.8920   41.4480 N   0  0  0  0  0  0  0  0  0  0  0  0
   35.2950   31.3720   40.9580 H   0  0  0  0  0  0  0  0  0  0  0  0
   36.9320   32.9400   40.0330 H   0  0  0  0  0  0  0  0  0  0  0  0
   39.3580   32.2750   40.0220 H   0  0  0  0  0  0  0  0  0  0  0  0
   38.3230   24.7050   40.9900 C   0  0  0  0  0  0  0  0  0  0  0  0
   39.1220   23.8850   40.2600 C   0  0  0  0  0  0  0  0  0  0  0  0
   40.1710   24.1370   40.2020 H   0  0  0  0  0  0  0  0  0  0  0  0
   38.6110   22.7840   39.6250 C   0  0  0  0  0  3  0  0  0  0  0  0
   37.2270   22.5430   39.7620 C   0  0  0  0  0  3  0  0  0  0  0  0
   36.6970   23.9940   40.8610 S   0  0  0  0  0  0  0  0  0  0  0  0
  1  2  1  0  0  0  0
  2  7  2  0  0  0  0
  2  3  1  0  0  0  0
  3  4  2  0  0  0  0
  4  5  1  0  0  0  0
  4  8  1  0  0  0  0
  5  9  1  0  0  0  0
  6 10  1  0  0  0  0
  6  5  2  0  0  0  0
  7  6  1  0  0  0  0
 11 17  1  0  0  0  0
 11 16  1  0  0  0  0
 12 13  1  0  0  0  0
 12 11  2  0  0  0  0
 13 14  2  0  0  0  0
 14 15  1  0  0  0  0
 15 16  2  0  0  0  0
 15  3  1  0  0  0  0
 18 12  1  0  0  0  0
 19 13  1  0  0  0  0
 20  7  1  0  0  0  0
 21 20  2  0  0  0  0
 22 21  1  0  0  0  0
 23 24  2  0  0  0  0
 23 21  1  0  0  0  0
 24 25  1  0  0  0  0
 25 20  1  0  0  0  0
M  END
>  <minimizedAffinity>
-4.68257332

$$$$

 OpenBabel03252505223D

 25 27  0  0  0  0  0  0  0  0999 V2000
   36.0940   26.6310   39.0330 F   0  0  0  0  0  0  0  0  0  0  0  0
   36.2310   27.7130   39.8460 C   0  0  0  0  0  0  0  0  0  0  0  0
   35.6410   28.9030   39.4310 C   0  0  0  0  0  0  0  0  0  0  0  0
   35.7540   30.0120   40.2160 C   0  0  0  0  0  0  0  0  0  0  0  0
   36.4440   29.9560   41.4020 C   0  0  0  0  0  0  0  0  0  0  0  0
   37.0400   28.7800   41.8340 C   0  0  0  0  0  0  0  0  0  0  0  0
   36.9170   27.6580   41.0270 C   0  0  0  0  0  0  0  0  0  0  0  0
   35.3070   30.9530   39.9220 H   0  0  0  0  0  0  0  0  0  0  0  0
   36.5450   30.8250   42.0380 H   0  0  0  0  0  0  0  0  0  0  0  0
   37.5910   28.7400   42.7850 H   0  0  0  0  0  0  0  0  0  0  0  0
   32.9030   28.9420   36.9950 C   0  0  0  0  0  0  0  0  0  0  0  0
   33.5730   29.0270   35.7540 C   0  0  0  0  0  0  0  0  0  0  0  0
   34.9620   29.0690   35.7900 C   0  0  0  0  0  0  0  0  0  0  0  0
   35.5750   29.0270   37.0060 N   0  0  0  0  0  0  0  0  0  0  0  0
   34.9090   28.9450   38.1620 C   0  0  0  0  0  0  0  0  0  0  0  0
   33.5660   28.9020   38.1600 N   0  0  0  0  0  0  0  0  0  0  0  0
   31.8220   28.9080   36.9760 H   0  0  0  0  0  0  0  0  0  0  0  0
   33.0130   29.0550   34.8420 H   0  0  0  0  0  0  0  0  0  0  0  0
   35.5270   29.1340   34.8720 H   0  0  0  0  0  0  0  0  0  0  0  0
   37.5130   26.4560   41.4450 C   0  0  0  0  0  0  0  0  0  0  0  0
   37.0030   25.2630   41.8470 C   0  0  0  0  0  0  0  0  0  0  0  0
   35.9280   25.1650   41.8680 H   0  0  0  0  0  0  0  0  0  0  0  0
   37.8270   24.2300   42.2110 C   0  0  0  0  0  3  0  0  0  0  0  0
   39.2180   24.4600   42.1500 C   0  0  0  0  0  3  0  0  0  0  0  0
   39.2780   26.2530   41.5380 S   0  0  0  0  0  0  0  0  0  0  0  0
  1  2  1  0  0  0  0
  2  7  1  0  0  0  0
  3  2  2  0  0  0  0
  3  4  1  0  0  0  0
  4  5  2  0  0  0  0
  5  6  1  0  0  0  0
  5  9  1  0  0  0  0
  6 10  1  0  0  0  0
  7 20  1  0  0  0  0
  7  6  2  0  0  0  0
  8  4  1  0  0  0  0
 11 16  1  0  0  0  0
 12 13  1  0  0  0  0
 12 11  2  0  0  0  0
 13 14  2  0  0  0  0
 14 15  1  0  0  0  0
 15  3  1  0  0  0  0
 16 15  2  0  0  0  0
 17 11  1  0  0  0  0
 18 12  1  0  0  0  0
 19 13  1  0  0  0  0
 20 25  1  0  0  0  0
 20 21  2  0  0  0  0
 21 22  1  0  0  0  0
 21 23  1  0  0  0  0
 24 23  2  0  0  0  0
 25 24  1  0  0  0  0
M  END
>  <minimizedAffinity>
-4.65390348

$$$$

 OpenBabel03252505223D

 25 27  0  0  0  0  0  0  0  0999 V2000
   40.1180   30.3890   41.3460 F   0  0  0  0  0  0  0  0  0  0  0  0
   39.1240   31.1560   40.8230 C   0  0  0  0  0  0  0  0  0  0  0  0
   37.8180   30.6940   40.9640 C   0  0  0  0  0  0  0  0  0  0  0  0
   36.7920   31.4330   40.4540 C   0  0  0  0  0  0  0  0  0  0  0  0
   37.0420   32.6180   39.8080 C   0  0  0  0  0  0  0  0  0  0  0  0
   38.3360   33.0960   39.6560 C   0  0  0  0  0  0  0  0  0  0  0  0
   39.3720   32.3360   40.1790 C   0  0  0  0  0  0  0  0  0  0  0  0
   35.7650   31.1010   40.5470 H   0  0  0  0  0  0  0  0  0  0  0  0
   36.2410   33.2170   39.3970 H   0  0  0  0  0  0  0  0  0  0  0  0
   38.5310   34.0460   39.1390 H   0  0  0  0  0  0  0  0  0  0  0  0
   37.4160   28.2030   43.6230 C   0  0  0  0  0  0  0  0  0  0  0  0
   37.0930   27.0240   42.9170 C   0  0  0  0  0  0  0  0  0  0  0  0
   37.0210   27.1190   41.5310 C   0  0  0  0  0  0  0  0  0  0  0  0
   37.2640   28.3290   40.9560 N   0  0  0  0  0  0  0  0  0  0  0  0
   37.5690   29.4270   41.6560 C   0  0  0  0  0  0  0  0  0  0  0  0
   37.6460   29.3670   42.9960 N   0  0  0  0  0  0  0  0  0  0  0  0
   37.4750   28.1390   44.7010 H   0  0  0  0  0  0  0  0  0  0  0  0
   36.9160   26.1110   43.4480 H   0  0  0  0  0  0  0  0  0  0  0  0
   36.7770   26.2490   40.9400 H   0  0  0  0  0  0  0  0  0  0  0  0
   40.6900   32.8020   40.0370 C   0  0  0  0  0  0  0  0  0  0  0  0
   41.3900   33.7960   40.6450 C   0  0  0  0  0  0  0  0  0  0  0  0
   40.8760   34.3750   41.3980 H   0  0  0  0  0  0  0  0  0  0  0  0
   42.6950   34.0460   40.3100 C   0  0  0  0  0  3  0  0  0  0  0  0
   43.2740   33.2320   39.3140 C   0  0  0  0  0  3  0  0  0  0  0  0
   41.8330   32.0800   38.8810 S   0  0  0  0  0  0  0  0  0  0  0  0
  2  3  1  0  0  0  0
  2  1  1  0  0  0  0
  3 15  1  0  0  0  0
  4  8  1  0  0  0  0
  4  3  2  0  0  0  0
  5  4  1  0  0  0  0
  6  5  2  0  0  0  0
  6  7  1  0  0  0  0
  7  2  2  0  0  0  0
  9  5  1  0  0  0  0
 10  6  1  0  0  0  0
 11 17  1  0  0  0  0
 12 18  1  0  0  0  0
 12 11  2  0  0  0  0
 13 12  1  0  0  0  0
 14 13  2  0  0  0  0
 14 15  1  0  0  0  0
 15 16  2  0  0  0  0
 16 11  1  0  0  0  0
 19 13  1  0  0  0  0
 20  7  1  0  0  0  0
 20 21  2  0  0  0  0
 21 22  1  0  0  0  0
 23 21  1  0  0  0  0
 24 23  2  0  0  0  0
 25 24  1  0  0  0  0
 25 20  1  0  0  0  0
M  END
>  <minimizedAffinity>
-4.653018

$$$$

 OpenBabel03252505223D

 25 27  0  0  0  0  0  0  0  0999 V2000
   39.9080   30.4120   40.6650 F   0  0  0  0  0  0  0  0  0  0  0  0
   38.8220   30.4900   39.8510 C   0  0  0  0  0  0  0  0  0  0  0  0
   37.7250   29.6940   40.1700 C   0  0  0  0  0  0  0  0  0  0  0  0
   36.6150   29.7420   39.3800 C   0  0  0  0  0  0  0  0  0  0  0  0
   36.5800   30.5640   38.2810 C   0  0  0  0  0  0  0  0  0  0  0  0
   37.6620   31.3640   37.9440 C   0  0  0  0  0  0  0  0  0  0  0  0
   38.7850   31.3070   38.7560 C   0  0  0  0  0  0  0  0  0  0  0  0
   35.7460   29.1360   39.6010 H   0  0  0  0  0  0  0  0  0  0  0  0
   35.7080   30.6140   37.6420 H   0  0  0  0  0  0  0  0  0  0  0  0
   37.6280   32.0210   37.0630 H   0  0  0  0  0  0  0  0  0  0  0  0
   38.2520   26.7620   42.3060 C   0  0  0  0  0  0  0  0  0  0  0  0
   37.8680   27.2190   43.5860 C   0  0  0  0  0  0  0  0  0  0  0  0
   37.4340   28.5370   43.6800 C   0  0  0  0  0  0  0  0  0  0  0  0
   37.4100   29.2890   42.5440 N   0  0  0  0  0  0  0  0  0  0  0  0
   37.7800   28.8230   41.3470 C   0  0  0  0  0  0  0  0  0  0  0  0
   38.2040   27.5540   41.2230 N   0  0  0  0  0  0  0  0  0  0  0  0
   38.5900   25.7380   42.2230 H   0  0  0  0  0  0  0  0  0  0  0  0
   37.9170   26.5610   44.4290 H   0  0  0  0  0  0  0  0  0  0  0  0
   37.1280   28.9410   44.6330 H   0  0  0  0  0  0  0  0  0  0  0  0
   39.8930   32.1110   38.4340 C   0  0  0  0  0  0  0  0  0  0  0  0
   40.7970   32.0750   37.4210 C   0  0  0  0  0  0  0  0  0  0  0  0
   40.6870   31.2910   36.6860 H   0  0  0  0  0  0  0  0  0  0  0  0
   41.8040   33.0010   37.3420 C   0  0  0  0  0  3  0  0  0  0  0  0
   41.8600   33.9840   38.3520 C   0  0  0  0  0  3  0  0  0  0  0  0
   40.3770   33.5040   39.4300 S   0  0  0  0  0  0  0  0  0  0  0  0
  2  3  1  0  0  0  0
  2  1  1  0  0  0  0
  3 15  1  0  0  0  0
  4  8  1  0  0  0  0
  4  3  2  0  0  0  0
  5  4  1  0  0  0  0
  6  5  2  0  0  0  0
  6  7  1  0  0  0  0
  7  2  2  0  0  0  0
  9  5  1  0  0  0  0
 10  6  1  0  0  0  0
 11 12  1  0  0  0  0
 12 13  2  0  0  0  0
 12 18  1  0  0  0  0
 13 19  1  0  0  0  0
 14 13  1  0  0  0  0
 15 14  2  0  0  0  0
 16 15  1  0  0  0  0
 16 11  2  0  0  0  0
 17 11  1  0  0  0  0
 20  7  1  0  0  0  0
 20 25  1  0  0  0  0
 21 20  2  0  0  0  0
 22 21  1  0  0  0  0
 23 21  1  0  0  0  0
 23 24  2  0  0  0  0
 24 25  1  0  0  0  0
M  END
>  <minimizedAffinity>
-4.61444855

$$$$

 OpenBabel03252505223D

 25 27  0  0  0  0  0  0  0  0999 V2000
   39.9040   26.6220   41.3670 F   0  0  0  0  0  0  0  0  0  0  0  0
   38.8290   26.9780   42.1200 C   0  0  0  0  0  0  0  0  0  0  0  0
   38.9500   28.1180   42.9090 C   0  0  0  0  0  0  0  0  0  0  0  0
   37.8960   28.5100   43.6800 C   0  0  0  0  0  0  0  0  0  0  0  0
   36.7290   27.7880   43.6790 C   0  0  0  0  0  0  0  0  0  0  0  0
   36.5860   26.6480   42.9010 C   0  0  0  0  0  0  0  0  0  0  0  0
   37.6660   26.2600   42.1200 C   0  0  0  0  0  0  0  0  0  0  0  0
   37.9590   29.3920   44.3040 H   0  0  0  0  0  0  0  0  0  0  0  0
   35.8820   28.0840   44.2840 H   0  0  0  0  0  0  0  0  0  0  0  0
   35.6490   26.0740   42.9030 H   0  0  0  0  0  0  0  0  0  0  0  0
   42.4870   28.9990   43.3000 C   0  0  0  0  0  0  0  0  0  0  0  0
   42.5380   30.3400   42.8600 C   0  0  0  0  0  0  0  0  0  0  0  0
   41.3430   30.9100   42.4360 C   0  0  0  0  0  0  0  0  0  0  0  0
   40.2170   30.1450   42.4740 N   0  0  0  0  0  0  0  0  0  0  0  0
   40.2040   28.8770   42.8980 C   0  0  0  0  0  0  0  0  0  0  0  0
   41.3430   28.2980   43.3140 N   0  0  0  0  0  0  0  0  0  0  0  0
   43.4120   28.5480   43.6320 H   0  0  0  0  0  0  0  0  0  0  0  0
   43.4680   30.8720   42.8630 H   0  0  0  0  0  0  0  0  0  0  0  0
   41.3220   31.9320   42.0890 H   0  0  0  0  0  0  0  0  0  0  0  0
   37.5440   25.1080   41.3230 C   0  0  0  0  0  0  0  0  0  0  0  0
   37.9250   23.8170   41.5010 C   0  0  0  0  0  0  0  0  0  0  0  0
   38.4260   23.5710   42.4250 H   0  0  0  0  0  0  0  0  0  0  0  0
   37.6780   22.8700   40.5410 C   0  0  0  0  0  3  0  0  0  0  0  0
   37.0170   23.2950   39.3700 C   0  0  0  0  0  3  0  0  0  0  0  0
   36.7670   25.1390   39.7230 S   0  0  0  0  0  0  0  0  0  0  0  0
  1  2  1  0  0  0  0
  2  7  2  0  0  0  0
  2  3  1  0  0  0  0
  3  4  2  0  0  0  0
  4  8  1  0  0  0  0
  5  4  1  0  0  0  0
  5  9  1  0  0  0  0
  6 10  1  0  0  0  0
  6  5  2  0  0  0  0
  7  6  1  0  0  0  0
 11 16  1  0  0  0  0
 11 17  1  0  0  0  0
 12 18  1  0  0  0  0
 12 11  2  0  0  0  0
 13 14  2  0  0  0  0
 13 12  1  0  0  0  0
 14 15  1  0  0  0  0
 15  3  1  0  0  0  0
 15 16  2  0  0  0  0
 19 13  1  0  0  0  0
 20 21  2  0  0  0  0
 20  7  1  0  0  0  0
 21 22  1  0  0  0  0
 23 21  1  0  0  0  0
 24 25  1  0  0  0  0
 24 23  2  0  0  0  0
 25 20  1  0  0  0  0
M  END
>  <minimizedAffinity>
-4.61045361

$$$$

 OpenBabel03252505223D

 25 27  0  0  0  0  0  0  0  0999 V2000
   39.9140   29.2840   41.3490 F   0  0  0  0  0  0  0  0  0  0  0  0
   38.5620   29.3550   41.2220 C   0  0  0  0  0  0  0  0  0  0  0  0
   37.8260   28.2260   41.5700 C   0  0  0  0  0  0  0  0  0  0  0  0
   36.4680   28.2550   41.4580 C   0  0  0  0  0  0  0  0  0  0  0  0
   35.8320   29.3840   41.0050 C   0  0  0  0  0  0  0  0  0  0  0  0
   36.5460   30.5210   40.6510 C   0  0  0  0  0  0  0  0  0  0  0  0
   37.9280   30.4790   40.7710 C   0  0  0  0  0  0  0  0  0  0  0  0
   35.8670   27.3940   41.7200 H   0  0  0  0  0  0  0  0  0  0  0  0
   34.7560   29.4260   40.9080 H   0  0  0  0  0  0  0  0  0  0  0  0
   36.0320   31.4220   40.2900 H   0  0  0  0  0  0  0  0  0  0  0  0
   39.7830   25.9500   43.6730 C   0  0  0  0  0  0  0  0  0  0  0  0
   39.8150   24.7560   42.9180 C   0  0  0  0  0  0  0  0  0  0  0  0
   39.1550   24.7670   41.6950 C   0  0  0  0  0  0  0  0  0  0  0  0
   38.5300   25.9150   41.3120 N   0  0  0  0  0  0  0  0  0  0  0  0
   38.5210   27.0290   42.0520 C   0  0  0  0  0  0  0  0  0  0  0  0
   39.1500   27.0500   43.2380 N   0  0  0  0  0  0  0  0  0  0  0  0
   40.2940   25.9500   44.6260 H   0  0  0  0  0  0  0  0  0  0  0  0
   40.3300   23.8960   43.2940 H   0  0  0  0  0  0  0  0  0  0  0  0
   39.1460   23.8830   41.0750 H   0  0  0  0  0  0  0  0  0  0  0  0
   38.6710   31.6190   40.4190 C   0  0  0  0  0  0  0  0  0  0  0  0
   38.8330   32.8330   41.0060 C   0  0  0  0  0  0  0  0  0  0  0  0
   38.3080   33.0110   41.9330 H   0  0  0  0  0  0  0  0  0  0  0  0
   39.6340   33.7900   40.4380 C   0  0  0  0  0  3  0  0  0  0  0  0
   40.2760   33.4590   39.2270 C   0  0  0  0  0  3  0  0  0  0  0  0
   39.6640   31.6880   38.9440 S   0  0  0  0  0  0  0  0  0  0  0  0
  2  1  1  0  0  0  0
  2  3  1  0  0  0  0
  3 15  1  0  0  0  0
  4  3  2  0  0  0  0
  4  8  1  0  0  0  0
  5  4  1  0  0  0  0
  6  7  1  0  0  0  0
  6  5  2  0  0  0  0
  7  2  2  0  0  0  0
  9  5  1  0  0  0  0
 10  6  1  0  0  0  0
 11 17  1  0  0  0  0
 12 18  1  0  0  0  0
 12 11  2  0  0  0  0
 13 12  1  0  0  0  0
 14 13  2  0  0  0  0
 14 15  1  0  0  0  0
 15 16  2  0  0  0  0
 16 11  1  0  0  0  0
 19 13  1  0  0  0  0
 20  7  1  0  0  0  0
 20 21  2  0  0  0  0
 21 22  1  0  0  0  0
 23 21  1  0  0  0  0
 24 23  2  0  0  0  0
 25 24  1  0  0  0  0
 25 20  1  0  0  0  0
M  END
>  <minimizedAffinity>
-4.59159327

$$$$
