REMARK  Name = 
REMARK  3 active torsions:
REMARK  status: ('A' for Active; 'I' for Inactive)
REMARK    1  A    between atoms: C_2  and  N_10
REMARK    2  A    between atoms: C_3  and  C_7
REMARK    3  A    between atoms: C_9  and  C_19
REMARK                            x       y       z     vdW  Elec       q    Type
REMARK                         _______ _______ _______ _____ _____    ______ ____
ROOT
ATOM      1  C   UNL     1      46.544  34.986  41.936  0.00  0.00    +0.000 C 
ATOM      2  C   UNL     1      48.070  35.265  41.934  0.00  0.00    +0.000 C 
ATOM      3  C   UNL     1      47.382  33.972  41.403  0.00  0.00    +0.000 C 
ATOM      4  H   UNL     1      45.966  35.720  41.346  0.00  0.00    +0.000 HD
ATOM      5  H   UNL     1      48.384  35.979  41.155  0.00  0.00    +0.000 HD
ATOM      6  H   UNL     1      48.627  35.222  42.864  0.00  0.00    +0.000 HD
ATOM      7  H   UNL     1      47.630  33.099  42.052  0.00  0.00    +0.000 HD
ENDROOT
BRANCH   1  10
ATOM      8  C   UNL     1      44.633  35.454  45.128  0.00  0.00    +0.000 A 
ATOM      9  C   UNL     1      45.098  35.720  43.798  0.00  0.00    +0.000 A 
ATOM     10  C   UNL     1      46.042  34.829  43.359  0.00  0.00    +0.000 A 
ATOM     11  N   UNL     1      46.489  33.782  44.147  0.00  0.00    +0.000 NA
ATOM     12  C   UNL     1      46.014  33.588  45.383  0.00  0.00    +0.000 A 
ATOM     13  N   UNL     1      45.074  34.435  45.879  0.00  0.00    +0.000 NA
ATOM     14  H   UNL     1      43.895  36.113  45.527  0.00  0.00    +0.000 HD
ATOM     15  H   UNL     1      46.495  32.722  45.815  0.00  0.00    +0.000 HD
BRANCH   9  16
ATOM     16  N   UNL     1      44.636  36.810  43.020  0.00  0.00    +0.000 N 
ATOM     17  H   UNL     1      45.116  37.668  43.402  0.00  0.00    +0.000 HD
ATOM     18  H   UNL     1      43.958  36.803  42.223  0.00  0.00    +0.000 HD
ENDBRANCH   9  16
ENDBRANCH   1  10
BRANCH   3  19
ATOM     19  C   UNL     1      47.403  33.742  39.963  0.00  0.00    +0.000 A 
ATOM     20  C   UNL     1      46.489  33.344  39.053  0.00  0.00    +0.000 A 
ATOM     21  H   UNL     1      45.502  33.140  39.436  0.00  0.00    +0.000 HD
ATOM     22  C   UNL     1      46.849  33.225  37.731  0.00  0.00    +0.000 A 
ATOM     23  C   UNL     1      48.188  33.535  37.413  0.00  0.00    +0.000 A 
ATOM     24  S   UNL     1      48.919  33.999  39.025  0.00  0.00    +0.000 S 
ENDBRANCH   3  19
TORSDOF 3
