
 OpenBabel03242520183D

 28 30  0  0  0  0  0  0  0  0999 V2000
   37.6780   25.0610   42.1560 C   0  0  0  0  0  0  0  0  0  0  0  0
   37.2920   26.3680   42.4980 C   0  0  0  0  0  0  0  0  0  0  0  0
   38.1580   27.1640   43.2610 C   0  0  0  0  0  0  0  0  0  0  0  0
   39.3470   26.5950   43.6280 N   0  0  0  0  0  0  0  0  0  0  0  0
   39.6780   25.3150   43.2690 C   0  0  0  0  0  0  0  0  0  0  0  0
   38.8610   24.5690   42.5520 N   0  0  0  0  0  0  0  0  0  0  0  0
   36.3290   26.6970   42.1520 H   0  0  0  0  0  0  0  0  0  0  0  0
   40.6480   24.9720   43.6190 H   0  0  0  0  0  0  0  0  0  0  0  0
   36.7520   24.2310   41.3450 C   0  0  0  0  0  0  0  0  0  0  0  0
   36.8650   24.5270   39.8180 C   0  0  0  0  0  0  0  0  0  0  0  0
   37.2020   23.2190   40.4410 C   0  0  0  0  0  0  0  0  0  0  0  0
   35.6890   24.3050   41.7150 H   0  0  0  0  0  0  0  0  0  0  0  0
   35.9090   24.5660   39.2590 H   0  0  0  0  0  0  0  0  0  0  0  0
   37.6580   25.2210   39.4910 H   0  0  0  0  0  0  0  0  0  0  0  0
   38.2790   22.8980   40.5130 H   0  0  0  0  0  0  0  0  0  0  0  0
   36.5320   22.3560   40.2220 H   0  0  0  0  0  0  0  0  0  0  0  0
   37.7800   28.5360   43.6310 C   0  0  0  0  0  0  0  0  0  0  0  0
   38.0050   28.6360   44.7200 H   0  0  0  0  0  0  0  0  0  0  0  0
   36.7110   28.7420   43.5060 H   0  0  0  0  0  0  0  0  0  0  0  0
   38.6290   29.5750   42.8870 C   0  0  0  0  0  0  0  0  0  0  0  0
   39.5020   29.0090   42.4650 H   0  0  0  0  0  0  0  0  0  0  0  0
   39.0360   30.3210   43.5690 H   0  0  0  0  0  0  0  0  0  0  0  0
   37.8690   30.1790   41.8330 C   0  0  0  0  0  0  0  0  0  0  0  0
   36.5880   29.9530   41.3510 C   0  0  0  0  0  0  0  0  0  0  0  0
   36.0260   29.1780   41.8420 H   0  0  0  0  0  0  0  0  0  0  0  0
   36.1210   30.7010   40.3100 C   0  0  0  0  0  3  0  0  0  0  0  0
   36.9980   31.7180   39.7430 C   0  0  0  0  0  3  0  0  0  0  0  0
   38.5250   31.4810   40.8450 S   0  0  0  0  0  0  0  0  0  0  0  0
  1  2  2  0  0  0  0
  1  6  1  0  0  0  0
  2  3  1  0  0  0  0
  3  4  2  0  0  0  0
  3 17  1  0  0  0  0
  5  8  1  0  0  0  0
  5  4  1  0  0  0  0
  6  5  2  0  0  0  0
  7  2  1  0  0  0  0
  9 12  1  0  0  0  0
  9  1  1  0  0  0  0
 10 11  1  0  0  0  0
 10  9  1  0  0  0  0
 11 15  1  0  0  0  0
 11  9  1  0  0  0  0
 13 10  1  0  0  0  0
 14 10  1  0  0  0  0
 16 11  1  0  0  0  0
 17 18  1  0  0  0  0
 19 17  1  0  0  0  0
 20 22  1  0  0  0  0
 20 17  1  0  0  0  0
 21 20  1  0  0  0  0
 23 20  1  0  0  0  0
 24 23  2  0  0  0  0
 24 25  1  0  0  0  0
 26 24  1  0  0  0  0
 27 26  2  0  0  0  0
 27 28  1  0  0  0  0
 28 23  1  0  0  0  0
M  END
>  <minimizedAffinity>
-4.62614155

$$$$

 OpenBabel03242520183D

 28 30  0  0  0  0  0  0  0  0999 V2000
   37.6040   30.7670   40.7930 C   0  0  0  0  0  0  0  0  0  0  0  0
   37.2810   29.6980   41.6450 C   0  0  0  0  0  0  0  0  0  0  0  0
   38.1300   29.3930   42.7180 C   0  0  0  0  0  0  0  0  0  0  0  0
   39.2420   30.1770   42.8600 N   0  0  0  0  0  0  0  0  0  0  0  0
   39.5130   31.2090   42.0020 C   0  0  0  0  0  0  0  0  0  0  0  0
   38.7130   31.4940   40.9940 N   0  0  0  0  0  0  0  0  0  0  0  0
   36.3810   29.1550   41.4240 H   0  0  0  0  0  0  0  0  0  0  0  0
   40.4260   31.7610   42.2150 H   0  0  0  0  0  0  0  0  0  0  0  0
   36.6940   31.0820   39.6630 C   0  0  0  0  0  0  0  0  0  0  0  0
   37.3190   30.7320   38.2780 C   0  0  0  0  0  0  0  0  0  0  0  0
   36.1040   30.0760   38.8350 C   0  0  0  0  0  0  0  0  0  0  0  0
   36.3240   32.1470   39.7050 H   0  0  0  0  0  0  0  0  0  0  0  0
   37.1440   31.4670   37.4660 H   0  0  0  0  0  0  0  0  0  0  0  0
   38.2920   30.2130   38.2740 H   0  0  0  0  0  0  0  0  0  0  0  0
   36.1610   29.0100   39.1900 H   0  0  0  0  0  0  0  0  0  0  0  0
   35.1300   30.2910   38.3380 H   0  0  0  0  0  0  0  0  0  0  0  0
   37.8140   28.2800   43.6260 C   0  0  0  0  0  0  0  0  0  0  0  0
   36.8470   27.8540   43.2680 H   0  0  0  0  0  0  0  0  0  0  0  0
   37.6590   28.5950   44.6640 H   0  0  0  0  0  0  0  0  0  0  0  0
   38.8670   27.1670   43.5410 C   0  0  0  0  0  0  0  0  0  0  0  0
   39.0580   26.8470   44.6000 H   0  0  0  0  0  0  0  0  0  0  0  0
   39.8110   27.5390   43.1470 H   0  0  0  0  0  0  0  0  0  0  0  0
   38.3680   26.0670   42.7700 C   0  0  0  0  0  0  0  0  0  0  0  0
   37.1140   25.7750   42.2510 C   0  0  0  0  0  0  0  0  0  0  0  0
   36.3400   26.4960   42.4470 H   0  0  0  0  0  0  0  0  0  0  0  0
   36.9320   24.6260   41.5400 C   0  0  0  0  0  3  0  0  0  0  0  0
   38.0760   23.7410   41.3540 C   0  0  0  0  0  3  0  0  0  0  0  0
   39.4030   24.7250   42.2910 S   0  0  0  0  0  0  0  0  0  0  0  0
  1  6  2  0  0  0  0
  1  2  1  0  0  0  0
  2  3  2  0  0  0  0
  3  4  1  0  0  0  0
  3 17  1  0  0  0  0
  5  8  1  0  0  0  0
  5  4  2  0  0  0  0
  6  5  1  0  0  0  0
  7  2  1  0  0  0  0
  9 12  1  0  0  0  0
  9  1  1  0  0  0  0
 10 11  1  0  0  0  0
 10  9  1  0  0  0  0
 11 15  1  0  0  0  0
 11  9  1  0  0  0  0
 13 10  1  0  0  0  0
 14 10  1  0  0  0  0
 16 11  1  0  0  0  0
 17 19  1  0  0  0  0
 18 17  1  0  0  0  0
 20 17  1  0  0  0  0
 20 21  1  0  0  0  0
 22 20  1  0  0  0  0
 23 20  1  0  0  0  0
 24 25  1  0  0  0  0
 24 23  2  0  0  0  0
 26 24  1  0  0  0  0
 27 26  2  0  0  0  0
 27 28  1  0  0  0  0
 28 23  1  0  0  0  0
M  END
>  <minimizedAffinity>
-4.56256247

$$$$

 OpenBabel03242520183D

 28 30  0  0  0  0  0  0  0  0999 V2000
   37.6210   27.0050   41.7290 C   0  0  0  0  0  0  0  0  0  0  0  0
   36.8210   27.8040   40.8970 C   0  0  0  0  0  0  0  0  0  0  0  0
   36.6260   29.1540   41.2190 C   0  0  0  0  0  0  0  0  0  0  0  0
   37.2440   29.6080   42.3520 N   0  0  0  0  0  0  0  0  0  0  0  0
   38.0150   28.7880   43.1320 C   0  0  0  0  0  0  0  0  0  0  0  0
   38.1960   27.5180   42.8270 N   0  0  0  0  0  0  0  0  0  0  0  0
   36.3860   27.3280   40.0370 H   0  0  0  0  0  0  0  0  0  0  0  0
   38.4550   29.2600   44.0080 H   0  0  0  0  0  0  0  0  0  0  0  0
   37.8210   25.5770   41.3740 C   0  0  0  0  0  0  0  0  0  0  0  0
   36.8270   24.6320   42.1160 C   0  0  0  0  0  0  0  0  0  0  0  0
   36.8590   24.8150   40.6400 C   0  0  0  0  0  0  0  0  0  0  0  0
   38.8940   25.2570   41.5110 H   0  0  0  0  0  0  0  0  0  0  0  0
   37.2530   23.6820   42.4970 H   0  0  0  0  0  0  0  0  0  0  0  0
   36.0390   25.1010   42.7290 H   0  0  0  0  0  0  0  0  0  0  0  0
   36.0280   25.3770   40.1310 H   0  0  0  0  0  0  0  0  0  0  0  0
   37.2110   23.9570   40.0230 H   0  0  0  0  0  0  0  0  0  0  0  0
   35.7950   30.0140   40.3620 C   0  0  0  0  0  0  0  0  0  0  0  0
   35.5940   30.9380   40.9550 H   0  0  0  0  0  0  0  0  0  0  0  0
   34.8220   29.5750   40.1170 H   0  0  0  0  0  0  0  0  0  0  0  0
   36.5430   30.4350   39.0910 C   0  0  0  0  0  0  0  0  0  0  0  0
   35.7500   30.7180   38.3500 H   0  0  0  0  0  0  0  0  0  0  0  0
   37.0980   29.6040   38.6600 H   0  0  0  0  0  0  0  0  0  0  0  0
   37.3950   31.5560   39.3620 C   0  0  0  0  0  0  0  0  0  0  0  0
   37.1330   32.8630   39.7480 C   0  0  0  0  0  0  0  0  0  0  0  0
   36.0970   33.1210   39.8780 H   0  0  0  0  0  0  0  0  0  0  0  0
   38.1700   33.7280   39.9360 C   0  0  0  0  0  3  0  0  0  0  0  0
   39.5260   33.2370   39.7210 C   0  0  0  0  0  3  0  0  0  0  0  0
   39.1470   31.4420   39.2330 S   0  0  0  0  0  0  0  0  0  0  0  0
  1  6  1  0  0  0  0
  2  3  1  0  0  0  0
  2  1  2  0  0  0  0
  3  4  2  0  0  0  0
  4  5  1  0  0  0  0
  5  8  1  0  0  0  0
  6  5  2  0  0  0  0
  7  2  1  0  0  0  0
  9 12  1  0  0  0  0
  9  1  1  0  0  0  0
  9 10  1  0  0  0  0
 10 13  1  0  0  0  0
 10 14  1  0  0  0  0
 11  9  1  0  0  0  0
 11 10  1  0  0  0  0
 15 11  1  0  0  0  0
 16 11  1  0  0  0  0
 17 18  1  0  0  0  0
 17  3  1  0  0  0  0
 19 17  1  0  0  0  0
 20 23  1  0  0  0  0
 20 17  1  0  0  0  0
 21 20  1  0  0  0  0
 22 20  1  0  0  0  0
 23 24  2  0  0  0  0
 24 25  1  0  0  0  0
 24 26  1  0  0  0  0
 27 26  2  0  0  0  0
 28 23  1  0  0  0  0
 28 27  1  0  0  0  0
M  END
>  <minimizedAffinity>
-4.51449442

$$$$

 OpenBabel03242520183D

 28 30  0  0  0  0  0  0  0  0999 V2000
   37.0440   30.8820   40.6010 C   0  0  0  0  0  0  0  0  0  0  0  0
   37.3220   30.0590   41.7050 C   0  0  0  0  0  0  0  0  0  0  0  0
   36.6630   28.8280   41.8300 C   0  0  0  0  0  0  0  0  0  0  0  0
   35.7700   28.5100   40.8440 N   0  0  0  0  0  0  0  0  0  0  0  0
   35.5320   29.3480   39.7860 C   0  0  0  0  0  0  0  0  0  0  0  0
   36.1540   30.5040   39.6710 N   0  0  0  0  0  0  0  0  0  0  0  0
   38.0420   30.4240   42.4140 H   0  0  0  0  0  0  0  0  0  0  0  0
   34.8010   28.9880   39.0650 H   0  0  0  0  0  0  0  0  0  0  0  0
   37.7520   32.1810   40.4790 C   0  0  0  0  0  0  0  0  0  0  0  0
   38.4770   32.3400   39.1080 C   0  0  0  0  0  0  0  0  0  0  0  0
   37.3530   33.2030   39.5630 C   0  0  0  0  0  0  0  0  0  0  0  0
   38.4460   32.3630   41.3500 H   0  0  0  0  0  0  0  0  0  0  0  0
   39.4850   32.7990   39.1420 H   0  0  0  0  0  0  0  0  0  0  0  0
   38.3170   31.5520   38.3530 H   0  0  0  0  0  0  0  0  0  0  0  0
   36.3430   33.1020   39.0780 H   0  0  0  0  0  0  0  0  0  0  0  0
   37.5860   34.2650   39.8070 H   0  0  0  0  0  0  0  0  0  0  0  0
   36.9380   27.9470   42.9750 C   0  0  0  0  0  0  0  0  0  0  0  0
   36.0070   27.9410   43.5900 H   0  0  0  0  0  0  0  0  0  0  0  0
   37.7450   28.3100   43.6200 H   0  0  0  0  0  0  0  0  0  0  0  0
   37.2020   26.5040   42.5240 C   0  0  0  0  0  0  0  0  0  0  0  0
   36.9880   26.4850   41.4230 H   0  0  0  0  0  0  0  0  0  0  0  0
   36.5100   25.8060   42.9930 H   0  0  0  0  0  0  0  0  0  0  0  0
   38.5670   26.1450   42.7740 C   0  0  0  0  0  0  0  0  0  0  0  0
   39.5140   26.6210   43.6690 C   0  0  0  0  0  0  0  0  0  0  0  0
   39.1950   27.4160   44.3200 H   0  0  0  0  0  0  0  0  0  0  0  0
   40.7630   26.0730   43.6790 C   0  0  0  0  0  3  0  0  0  0  0  0
   41.0530   24.9990   42.7370 C   0  0  0  0  0  3  0  0  0  0  0  0
   39.3730   24.8720   41.8630 S   0  0  0  0  0  0  0  0  0  0  0  0
  1  2  1  0  0  0  0
  2  3  2  0  0  0  0
  2  7  1  0  0  0  0
  3 17  1  0  0  0  0
  4  3  1  0  0  0  0
  5  4  2  0  0  0  0
  6  5  1  0  0  0  0
  6  1  2  0  0  0  0
  8  5  1  0  0  0  0
  9  1  1  0  0  0  0
  9 12  1  0  0  0  0
 10 13  1  0  0  0  0
 10 11  1  0  0  0  0
 10  9  1  0  0  0  0
 11 16  1  0  0  0  0
 11  9  1  0  0  0  0
 14 10  1  0  0  0  0
 15 11  1  0  0  0  0
 17 18  1  0  0  0  0
 17 19  1  0  0  0  0
 20 23  1  0  0  0  0
 20 17  1  0  0  0  0
 20 22  1  0  0  0  0
 21 20  1  0  0  0  0
 23 24  2  0  0  0  0
 24 26  1  0  0  0  0
 24 25  1  0  0  0  0
 27 26  2  0  0  0  0
 28 27  1  0  0  0  0
 28 23  1  0  0  0  0
M  END
>  <minimizedAffinity>
-4.50905704

$$$$

 OpenBabel03242520183D

 28 30  0  0  0  0  0  0  0  0999 V2000
   37.2010   30.9170   39.9370 C   0  0  0  0  0  0  0  0  0  0  0  0
   37.6570   30.3370   41.1320 C   0  0  0  0  0  0  0  0  0  0  0  0
   36.9320   29.2830   41.7060 C   0  0  0  0  0  0  0  0  0  0  0  0
   35.8030   28.8870   41.0450 N   0  0  0  0  0  0  0  0  0  0  0  0
   35.3990   29.4850   39.8810 C   0  0  0  0  0  0  0  0  0  0  0  0
   36.0820   30.4760   39.3430 N   0  0  0  0  0  0  0  0  0  0  0  0
   38.5570   30.7420   41.5570 H   0  0  0  0  0  0  0  0  0  0  0  0
   34.4850   29.0850   39.4460 H   0  0  0  0  0  0  0  0  0  0  0  0
   37.9800   32.0300   39.3390 C   0  0  0  0  0  0  0  0  0  0  0  0
   37.3200   33.4210   39.5830 C   0  0  0  0  0  0  0  0  0  0  0  0
   38.6480   33.0230   40.1220 C   0  0  0  0  0  0  0  0  0  0  0  0
   38.1990   31.8500   38.2470 H   0  0  0  0  0  0  0  0  0  0  0  0
   37.3350   34.1240   38.7260 H   0  0  0  0  0  0  0  0  0  0  0  0
   36.4310   33.4550   40.2350 H   0  0  0  0  0  0  0  0  0  0  0  0
   38.7650   32.8250   41.2240 H   0  0  0  0  0  0  0  0  0  0  0  0
   39.5470   33.5260   39.6980 H   0  0  0  0  0  0  0  0  0  0  0  0
   37.3890   28.6570   42.9560 C   0  0  0  0  0  0  0  0  0  0  0  0
   37.1450   29.3800   43.7710 H   0  0  0  0  0  0  0  0  0  0  0  0
   38.4710   28.4900   42.9900 H   0  0  0  0  0  0  0  0  0  0  0  0
   36.6240   27.3590   43.2480 C   0  0  0  0  0  0  0  0  0  0  0  0
   35.6390   27.4610   42.7220 H   0  0  0  0  0  0  0  0  0  0  0  0
   36.4070   27.2540   44.3100 H   0  0  0  0  0  0  0  0  0  0  0  0
   37.3470   26.2300   42.7410 C   0  0  0  0  0  0  0  0  0  0  0  0
   36.9380   25.0300   42.1770 C   0  0  0  0  0  0  0  0  0  0  0  0
   35.8760   24.8850   42.0870 H   0  0  0  0  0  0  0  0  0  0  0  0
   37.8740   24.1220   41.7770 C   0  0  0  0  0  3  0  0  0  0  0  0
   39.2820   24.4560   41.9620 C   0  0  0  0  0  3  0  0  0  0  0  0
   39.1070   26.1730   42.7520 S   0  0  0  0  0  0  0  0  0  0  0  0
  1  2  1  0  0  0  0
  2  7  1  0  0  0  0
  2  3  2  0  0  0  0
  3 17  1  0  0  0  0
  4  3  1  0  0  0  0
  5  4  2  0  0  0  0
  6  5  1  0  0  0  0
  6  1  2  0  0  0  0
  8  5  1  0  0  0  0
  9 10  1  0  0  0  0
  9  1  1  0  0  0  0
  9 11  1  0  0  0  0
 10 11  1  0  0  0  0
 10 14  1  0  0  0  0
 11 15  1  0  0  0  0
 12  9  1  0  0  0  0
 13 10  1  0  0  0  0
 16 11  1  0  0  0  0
 17 19  1  0  0  0  0
 17 20  1  0  0  0  0
 17 18  1  0  0  0  0
 20 22  1  0  0  0  0
 21 20  1  0  0  0  0
 23 28  1  0  0  0  0
 23 20  1  0  0  0  0
 24 23  2  0  0  0  0
 25 24  1  0  0  0  0
 26 27  2  0  0  0  0
 26 24  1  0  0  0  0
 27 28  1  0  0  0  0
M  END
>  <minimizedAffinity>
-4.50283432

$$$$

 OpenBabel03242520183D

 28 30  0  0  0  0  0  0  0  0999 V2000
   37.4530   26.6420   42.3580 C   0  0  0  0  0  0  0  0  0  0  0  0
   36.7580   27.7400   41.8250 C   0  0  0  0  0  0  0  0  0  0  0  0
   37.2680   29.0330   42.0080 C   0  0  0  0  0  0  0  0  0  0  0  0
   38.4360   29.1350   42.7130 N   0  0  0  0  0  0  0  0  0  0  0  0
   39.0760   28.0330   43.2150 C   0  0  0  0  0  0  0  0  0  0  0  0
   38.5940   26.8180   43.0410 N   0  0  0  0  0  0  0  0  0  0  0  0
   35.8480   27.5280   41.2930 H   0  0  0  0  0  0  0  0  0  0  0  0
   39.9960   28.2380   43.7580 H   0  0  0  0  0  0  0  0  0  0  0  0
   36.9030   25.2780   42.1530 C   0  0  0  0  0  0  0  0  0  0  0  0
   37.2330   24.7060   40.7410 C   0  0  0  0  0  0  0  0  0  0  0  0
   37.7270   24.1180   42.0160 C   0  0  0  0  0  0  0  0  0  0  0  0
   35.7990   25.2330   42.3830 H   0  0  0  0  0  0  0  0  0  0  0  0
   36.4140   24.1540   40.2370 H   0  0  0  0  0  0  0  0  0  0  0  0
   37.9000   25.3000   40.0940 H   0  0  0  0  0  0  0  0  0  0  0  0
   38.8140   24.2160   42.2890 H   0  0  0  0  0  0  0  0  0  0  0  0
   37.3160   23.1280   42.3180 H   0  0  0  0  0  0  0  0  0  0  0  0
   36.5610   30.1990   41.4580 C   0  0  0  0  0  0  0  0  0  0  0  0
   37.3460   30.8460   40.9970 H   0  0  0  0  0  0  0  0  0  0  0  0
   36.0570   30.8030   42.2200 H   0  0  0  0  0  0  0  0  0  0  0  0
   35.5870   29.7940   40.3440 C   0  0  0  0  0  0  0  0  0  0  0  0
   34.6740   30.4300   40.4910 H   0  0  0  0  0  0  0  0  0  0  0  0
   35.2700   28.7570   40.4490 H   0  0  0  0  0  0  0  0  0  0  0  0
   36.1680   30.0430   39.0580 C   0  0  0  0  0  0  0  0  0  0  0  0
   37.0440   31.0150   38.5950 C   0  0  0  0  0  0  0  0  0  0  0  0
   37.3730   31.7400   39.3180 H   0  0  0  0  0  0  0  0  0  0  0  0
   37.4310   31.0010   37.2880 C   0  0  0  0  0  3  0  0  0  0  0  0
   36.9020   29.9540   36.4210 C   0  0  0  0  0  3  0  0  0  0  0  0
   35.8160   29.0200   37.6680 S   0  0  0  0  0  0  0  0  0  0  0  0
  1  6  1  0  0  0  0
  2  3  1  0  0  0  0
  2  1  2  0  0  0  0
  3  4  2  0  0  0  0
  4  5  1  0  0  0  0
  5  8  1  0  0  0  0
  6  5  2  0  0  0  0
  7  2  1  0  0  0  0
  9  1  1  0  0  0  0
  9 12  1  0  0  0  0
 10 11  1  0  0  0  0
 10  9  1  0  0  0  0
 11  9  1  0  0  0  0
 11 15  1  0  0  0  0
 11 16  1  0  0  0  0
 13 10  1  0  0  0  0
 14 10  1  0  0  0  0
 17  3  1  0  0  0  0
 17 19  1  0  0  0  0
 18 17  1  0  0  0  0
 20 22  1  0  0  0  0
 20 21  1  0  0  0  0
 20 17  1  0  0  0  0
 23 20  1  0  0  0  0
 24 23  2  0  0  0  0
 24 25  1  0  0  0  0
 26 24  1  0  0  0  0
 27 26  2  0  0  0  0
 27 28  1  0  0  0  0
 28 23  1  0  0  0  0
M  END
>  <minimizedAffinity>
-4.46634769

$$$$

 OpenBabel03242520183D

 28 30  0  0  0  0  0  0  0  0999 V2000
   35.7630   29.4400   40.1760 C   0  0  0  0  0  0  0  0  0  0  0  0
   35.8880   28.4290   41.1440 C   0  0  0  0  0  0  0  0  0  0  0  0
   36.8090   28.5870   42.1890 C   0  0  0  0  0  0  0  0  0  0  0  0
   37.5400   29.7440   42.1900 N   0  0  0  0  0  0  0  0  0  0  0  0
   37.3820   30.7000   41.2220 C   0  0  0  0  0  0  0  0  0  0  0  0
   36.5160   30.5480   40.2400 N   0  0  0  0  0  0  0  0  0  0  0  0
   35.2590   27.5660   41.0290 H   0  0  0  0  0  0  0  0  0  0  0  0
   38.0190   31.5760   41.3270 H   0  0  0  0  0  0  0  0  0  0  0  0
   34.7820   29.2600   39.0760 C   0  0  0  0  0  0  0  0  0  0  0  0
   35.4550   29.2540   37.6700 C   0  0  0  0  0  0  0  0  0  0  0  0
   34.7370   28.0900   38.2560 C   0  0  0  0  0  0  0  0  0  0  0  0
   33.9390   30.0070   39.1400 H   0  0  0  0  0  0  0  0  0  0  0  0
   34.9180   29.8030   36.8720 H   0  0  0  0  0  0  0  0  0  0  0  0
   36.5570   29.2800   37.6330 H   0  0  0  0  0  0  0  0  0  0  0  0
   35.3210   27.1910   38.5980 H   0  0  0  0  0  0  0  0  0  0  0  0
   33.7680   27.7960   37.7910 H   0  0  0  0  0  0  0  0  0  0  0  0
   36.9580   27.5460   43.2170 C   0  0  0  0  0  0  0  0  0  0  0  0
   36.1560   26.7960   43.0140 H   0  0  0  0  0  0  0  0  0  0  0  0
   36.8010   27.9140   44.2370 H   0  0  0  0  0  0  0  0  0  0  0  0
   38.3050   26.8230   43.0960 C   0  0  0  0  0  0  0  0  0  0  0  0
   38.6010   26.5520   44.1430 H   0  0  0  0  0  0  0  0  0  0  0  0
   39.0800   27.4830   42.7090 H   0  0  0  0  0  0  0  0  0  0  0  0
   38.1680   25.6420   42.2940 C   0  0  0  0  0  0  0  0  0  0  0  0
   37.0810   24.8350   41.9910 C   0  0  0  0  0  0  0  0  0  0  0  0
   36.1390   25.1230   42.4250 H   0  0  0  0  0  0  0  0  0  0  0  0
   37.2550   23.7510   41.1810 C   0  0  0  0  0  3  0  0  0  0  0  0
   38.5920   23.4830   40.6640 C   0  0  0  0  0  3  0  0  0  0  0  0
   39.5390   24.9270   41.4530 S   0  0  0  0  0  0  0  0  0  0  0  0
  1  6  2  0  0  0  0
  1  2  1  0  0  0  0
  2  3  2  0  0  0  0
  3  4  1  0  0  0  0
  3 17  1  0  0  0  0
  5  8  1  0  0  0  0
  5  4  2  0  0  0  0
  6  5  1  0  0  0  0
  7  2  1  0  0  0  0
  9 12  1  0  0  0  0
  9  1  1  0  0  0  0
 10 11  1  0  0  0  0
 10  9  1  0  0  0  0
 11 15  1  0  0  0  0
 11  9  1  0  0  0  0
 13 10  1  0  0  0  0
 14 10  1  0  0  0  0
 16 11  1  0  0  0  0
 17 19  1  0  0  0  0
 18 17  1  0  0  0  0
 20 17  1  0  0  0  0
 20 21  1  0  0  0  0
 22 20  1  0  0  0  0
 23 20  1  0  0  0  0
 24 23  2  0  0  0  0
 24 25  1  0  0  0  0
 26 24  1  0  0  0  0
 27 26  2  0  0  0  0
 27 28  1  0  0  0  0
 28 23  1  0  0  0  0
M  END
>  <minimizedAffinity>
-4.41269684

$$$$

 OpenBabel03242520183D

 28 30  0  0  0  0  0  0  0  0999 V2000
   37.2360   27.3280   41.2070 C   0  0  0  0  0  0  0  0  0  0  0  0
   36.7810   28.6220   40.9050 C   0  0  0  0  0  0  0  0  0  0  0  0
   36.9720   29.1350   39.6140 C   0  0  0  0  0  0  0  0  0  0  0  0
   37.6060   28.3170   38.7190 N   0  0  0  0  0  0  0  0  0  0  0  0
   38.0310   27.0610   39.0630 C   0  0  0  0  0  0  0  0  0  0  0  0
   37.8500   26.5820   40.2770 N   0  0  0  0  0  0  0  0  0  0  0  0
   36.3020   29.1670   41.6970 H   0  0  0  0  0  0  0  0  0  0  0  0
   38.5220   26.5040   38.2680 H   0  0  0  0  0  0  0  0  0  0  0  0
   37.0240   26.7970   42.5770 C   0  0  0  0  0  0  0  0  0  0  0  0
   38.0840   27.3230   43.5920 C   0  0  0  0  0  0  0  0  0  0  0  0
   36.6280   27.6180   43.6780 C   0  0  0  0  0  0  0  0  0  0  0  0
   36.9500   25.6710   42.5840 H   0  0  0  0  0  0  0  0  0  0  0  0
   38.4720   26.5800   44.3180 H   0  0  0  0  0  0  0  0  0  0  0  0
   38.7970   28.0840   43.2350 H   0  0  0  0  0  0  0  0  0  0  0  0
   36.2570   28.6550   43.4480 H   0  0  0  0  0  0  0  0  0  0  0  0
   36.0580   27.1560   44.5170 H   0  0  0  0  0  0  0  0  0  0  0  0
   36.5040   30.4860   39.2700 C   0  0  0  0  0  0  0  0  0  0  0  0
   35.4330   30.3760   38.9770 H   0  0  0  0  0  0  0  0  0  0  0  0
   37.0260   30.9240   38.4120 H   0  0  0  0  0  0  0  0  0  0  0  0
   36.5560   31.4250   40.4820 C   0  0  0  0  0  0  0  0  0  0  0  0
   36.6390   30.7590   41.3810 H   0  0  0  0  0  0  0  0  0  0  0  0
   35.6310   31.9900   40.5900 H   0  0  0  0  0  0  0  0  0  0  0  0
   37.6960   32.2900   40.3950 C   0  0  0  0  0  0  0  0  0  0  0  0
   37.8630   33.5790   39.9090 C   0  0  0  0  0  0  0  0  0  0  0  0
   36.9830   34.0540   39.5130 H   0  0  0  0  0  0  0  0  0  0  0  0
   39.0960   34.1600   39.9580 C   0  0  0  0  0  3  0  0  0  0  0  0
   40.1990   33.3930   40.5240 C   0  0  0  0  0  3  0  0  0  0  0  0
   39.2860   31.7890   40.9650 S   0  0  0  0  0  0  0  0  0  0  0  0
  1  9  1  0  0  0  0
  2  1  1  0  0  0  0
  2  7  1  0  0  0  0
  3  2  2  0  0  0  0
  4  5  2  0  0  0  0
  4  3  1  0  0  0  0
  5  6  1  0  0  0  0
  6  1  2  0  0  0  0
  8  5  1  0  0  0  0
  9 12  1  0  0  0  0
  9 10  1  0  0  0  0
  9 11  1  0  0  0  0
 10 11  1  0  0  0  0
 10 13  1  0  0  0  0
 11 16  1  0  0  0  0
 14 10  1  0  0  0  0
 15 11  1  0  0  0  0
 17  3  1  0  0  0  0
 17 20  1  0  0  0  0
 18 17  1  0  0  0  0
 19 17  1  0  0  0  0
 20 22  1  0  0  0  0
 20 21  1  0  0  0  0
 23 20  1  0  0  0  0
 23 28  1  0  0  0  0
 24 26  1  0  0  0  0
 24 23  2  0  0  0  0
 25 24  1  0  0  0  0
 26 27  2  0  0  0  0
 27 28  1  0  0  0  0
M  END
>  <minimizedAffinity>
-4.36087084

$$$$

 OpenBabel03242520183D

 28 30  0  0  0  0  0  0  0  0999 V2000
   38.3300   26.2250   42.3620 C   0  0  0  0  0  0  0  0  0  0  0  0
   37.4950   26.6120   41.3010 C   0  0  0  0  0  0  0  0  0  0  0  0
   36.7880   27.8190   41.3870 C   0  0  0  0  0  0  0  0  0  0  0  0
   36.9640   28.5510   42.5290 N   0  0  0  0  0  0  0  0  0  0  0  0
   37.7900   28.1300   43.5370 C   0  0  0  0  0  0  0  0  0  0  0  0
   38.4540   26.9940   43.4540 N   0  0  0  0  0  0  0  0  0  0  0  0
   37.4390   25.9460   40.4590 H   0  0  0  0  0  0  0  0  0  0  0  0
   37.8500   28.7950   44.3960 H   0  0  0  0  0  0  0  0  0  0  0  0
   39.0760   24.9450   42.2570 C   0  0  0  0  0  0  0  0  0  0  0  0
   40.5060   25.1350   41.6650 C   0  0  0  0  0  0  0  0  0  0  0  0
   40.2320   24.6500   43.0440 C   0  0  0  0  0  0  0  0  0  0  0  0
   38.4860   24.1610   41.7000 H   0  0  0  0  0  0  0  0  0  0  0  0
   40.8360   24.3660   40.9380 H   0  0  0  0  0  0  0  0  0  0  0  0
   40.8500   26.1670   41.4840 H   0  0  0  0  0  0  0  0  0  0  0  0
   40.4490   25.3200   43.9230 H   0  0  0  0  0  0  0  0  0  0  0  0
   40.4700   23.5850   43.2730 H   0  0  0  0  0  0  0  0  0  0  0  0
   35.9090   28.2490   40.2880 C   0  0  0  0  0  0  0  0  0  0  0  0
   34.9780   27.6390   40.3810 H   0  0  0  0  0  0  0  0  0  0  0  0
   36.3240   28.0490   39.2950 H   0  0  0  0  0  0  0  0  0  0  0  0
   35.5090   29.7230   40.4310 C   0  0  0  0  0  0  0  0  0  0  0  0
   35.5930   29.9570   41.5250 H   0  0  0  0  0  0  0  0  0  0  0  0
   34.4700   29.8840   40.1510 H   0  0  0  0  0  0  0  0  0  0  0  0
   36.3970   30.5550   39.6730 C   0  0  0  0  0  0  0  0  0  0  0  0
   36.7260   30.5940   38.3250 C   0  0  0  0  0  0  0  0  0  0  0  0
   36.2370   29.8710   37.6960 H   0  0  0  0  0  0  0  0  0  0  0  0
   37.6250   31.5190   37.8810 C   0  0  0  0  0  3  0  0  0  0  0  0
   38.2080   32.4370   38.8510 C   0  0  0  0  0  3  0  0  0  0  0  0
   37.3400   31.8350   40.4290 S   0  0  0  0  0  0  0  0  0  0  0  0
  1  6  1  0  0  0  0
  2  3  1  0  0  0  0
  2  1  2  0  0  0  0
  3  4  2  0  0  0  0
  4  5  1  0  0  0  0
  5  8  1  0  0  0  0
  6  5  2  0  0  0  0
  7  2  1  0  0  0  0
  9  1  1  0  0  0  0
  9 11  1  0  0  0  0
 10  9  1  0  0  0  0
 10 11  1  0  0  0  0
 11 16  1  0  0  0  0
 11 15  1  0  0  0  0
 12  9  1  0  0  0  0
 13 10  1  0  0  0  0
 14 10  1  0  0  0  0
 17 18  1  0  0  0  0
 17 20  1  0  0  0  0
 17  3  1  0  0  0  0
 19 17  1  0  0  0  0
 20 21  1  0  0  0  0
 22 20  1  0  0  0  0
 23 28  1  0  0  0  0
 23 20  1  0  0  0  0
 24 23  2  0  0  0  0
 25 24  1  0  0  0  0
 26 24  1  0  0  0  0
 26 27  2  0  0  0  0
 27 28  1  0  0  0  0
M  END
>  <minimizedAffinity>
-4.28165436

$$$$
