
 OpenBabel03242517183D

 30 32  0  0  0  0  0  0  0  0999 V2000
   36.7350   27.8350   42.1290 C   0  0  0  0  0  3  0  0  0  0  0  0
   37.3630   26.7040   41.9550 C   0  0  0  0  0  3  0  0  0  0  0  0
   36.3570   30.1200   41.1420 C   0  0  0  0  0  0  0  0  0  0  0  0
   37.2190   29.1490   41.7200 C   0  0  0  0  0  0  0  0  0  0  0  0
   38.5690   29.4780   41.8980 C   0  0  0  0  0  0  0  0  0  0  0  0
   38.9550   30.7270   41.4920 N   0  0  0  0  0  0  0  0  0  0  0  0
   38.1170   31.6160   40.9510 C   0  0  0  0  0  0  0  0  0  0  0  0
   36.8310   31.3080   40.7800 N   0  0  0  0  0  0  0  0  0  0  0  0
   35.3150   29.8690   41.0040 H   0  0  0  0  0  0  0  0  0  0  0  0
   39.2330   28.7500   42.3360 H   0  0  0  0  0  0  0  0  0  0  0  0
   38.8210   32.8390   40.6290 C   0  0  0  0  0  0  0  0  0  0  0  0
   38.2790   34.0990   40.3920 C   0  0  0  0  0  0  0  0  0  0  0  0
   37.2080   34.2220   40.4460 H   0  0  0  0  0  0  0  0  0  0  0  0
   39.0690   35.1510   40.1000 C   0  0  0  0  0  3  0  0  0  0  0  0
   40.4820   34.9950   40.0280 C   0  0  0  0  0  3  0  0  0  0  0  0
   40.6690   33.1570   40.4190 S   0  0  0  0  0  0  0  0  0  0  0  0
   36.8040   25.3930   42.4020 C   0  0  0  0  0  0  0  0  0  0  0  0
   35.7030   25.5870   42.5330 H   0  0  0  0  0  0  0  0  0  0  0  0
   37.1650   25.1060   43.4180 H   0  0  0  0  0  0  0  0  0  0  0  0
   39.1310   23.8660   42.2160 F   0  0  0  0  0  0  0  0  0  0  0  0
   38.1550   23.6330   41.3160 C   0  0  0  0  0  0  0  0  0  0  0  0
   36.9630   24.3810   41.3720 C   0  0  0  0  0  0  0  0  0  0  0  0
   36.0670   24.0410   40.4030 C   0  0  0  0  0  0  0  0  0  0  0  0
   36.1940   23.0860   39.4170 C   0  0  0  0  0  0  0  0  0  0  0  0
   37.4190   22.3920   39.4430 C   0  0  0  0  0  0  0  0  0  0  0  0
   38.4100   22.6380   40.3700 C   0  0  0  0  0  0  0  0  0  0  0  0
   35.1240   24.5770   40.3830 H   0  0  0  0  0  0  0  0  0  0  0  0
   35.4440   22.8760   38.6900 H   0  0  0  0  0  0  0  0  0  0  0  0
   37.6260   21.6160   38.7120 H   0  0  0  0  0  0  0  0  0  0  0  0
   39.3320   22.1080   40.3810 H   0  0  0  0  0  0  0  0  0  0  0  0
  2  1  2  0  0  0  0
  2 17  1  0  0  0  0
  3  4  1  0  0  0  0
  4  5  2  0  0  0  0
  4  1  1  0  0  0  0
  5 10  1  0  0  0  0
  6  5  1  0  0  0  0
  7  6  2  0  0  0  0
  8  7  1  0  0  0  0
  8  3  2  0  0  0  0
  9  3  1  0  0  0  0
 11  7  1  0  0  0  0
 12 13  1  0  0  0  0
 12 11  2  0  0  0  0
 14 12  1  0  0  0  0
 15 14  2  0  0  0  0
 15 16  1  0  0  0  0
 16 11  1  0  0  0  0
 17 18  1  0  0  0  0
 17 19  1  0  0  0  0
 21 22  1  0  0  0  0
 21 20  1  0  0  0  0
 22 17  1  0  0  0  0
 23 22  2  0  0  0  0
 24 25  2  0  0  0  0
 24 23  1  0  0  0  0
 25 26  1  0  0  0  0
 26 30  1  0  0  0  0
 26 21  2  0  0  0  0
 27 23  1  0  0  0  0
 28 24  1  0  0  0  0
 29 25  1  0  0  0  0
M  END
>  <minimizedAffinity>
-5.73199415

$$$$

 OpenBabel03242517183D

 30 32  0  0  0  0  0  0  0  0999 V2000
   34.2120   28.7510   37.3460 C   0  0  0  0  0  3  0  0  0  0  0  0
   32.9140   28.8780   37.3010 C   0  0  0  0  0  3  0  0  0  0  0  0
   34.7560   29.2530   39.7510 C   0  0  0  0  0  0  0  0  0  0  0  0
   35.0060   28.5370   38.5500 C   0  0  0  0  0  0  0  0  0  0  0  0
   36.0470   27.5990   38.5370 C   0  0  0  0  0  0  0  0  0  0  0  0
   36.7520   27.4480   39.7020 N   0  0  0  0  0  0  0  0  0  0  0  0
   36.4890   28.1400   40.8140 C   0  0  0  0  0  0  0  0  0  0  0  0
   35.5000   29.0320   40.8320 N   0  0  0  0  0  0  0  0  0  0  0  0
   33.9540   29.9760   39.7640 H   0  0  0  0  0  0  0  0  0  0  0  0
   36.2460   27.0490   37.6310 H   0  0  0  0  0  0  0  0  0  0  0  0
   37.4020   27.7570   41.8710 C   0  0  0  0  0  0  0  0  0  0  0  0
   37.1610   27.7380   43.2420 C   0  0  0  0  0  0  0  0  0  0  0  0
   36.1890   28.0370   43.6030 H   0  0  0  0  0  0  0  0  0  0  0  0
   38.1190   27.3550   44.1090 C   0  0  0  0  0  3  0  0  0  0  0  0
   39.4030   26.9590   43.6390 C   0  0  0  0  0  3  0  0  0  0  0  0
   39.1910   27.1650   41.7740 S   0  0  0  0  0  0  0  0  0  0  0  0
   32.1670   29.0970   36.0260 C   0  0  0  0  0  0  0  0  0  0  0  0
   31.4640   28.2210   35.9580 H   0  0  0  0  0  0  0  0  0  0  0  0
   32.8250   29.0030   35.1310 H   0  0  0  0  0  0  0  0  0  0  0  0
   31.8900   30.7750   33.8140 F   0  0  0  0  0  0  0  0  0  0  0  0
   31.2560   31.1270   34.9510 C   0  0  0  0  0  0  0  0  0  0  0  0
   31.3690   30.3100   36.0930 C   0  0  0  0  0  0  0  0  0  0  0  0
   30.6790   30.7860   37.1680 C   0  0  0  0  0  0  0  0  0  0  0  0
   29.9170   31.9300   37.2550 C   0  0  0  0  0  0  0  0  0  0  0  0
   29.8650   32.6800   36.0640 C   0  0  0  0  0  0  0  0  0  0  0  0
   30.5150   32.3100   34.9060 C   0  0  0  0  0  0  0  0  0  0  0  0
   30.7210   30.2090   38.0850 H   0  0  0  0  0  0  0  0  0  0  0  0
   29.4030   32.2390   38.1360 H   0  0  0  0  0  0  0  0  0  0  0  0
   29.2910   33.6010   36.0190 H   0  0  0  0  0  0  0  0  0  0  0  0
   30.4710   32.8820   34.0110 H   0  0  0  0  0  0  0  0  0  0  0  0
  1  4  1  0  0  0  0
  2  1  2  0  0  0  0
  3  9  1  0  0  0  0
  3  8  1  0  0  0  0
  4  3  2  0  0  0  0
  5  4  1  0  0  0  0
  5  6  2  0  0  0  0
  6  7  1  0  0  0  0
  7  8  2  0  0  0  0
  7 11  1  0  0  0  0
 10  5  1  0  0  0  0
 11 12  2  0  0  0  0
 12 13  1  0  0  0  0
 12 14  1  0  0  0  0
 15 14  2  0  0  0  0
 16 11  1  0  0  0  0
 16 15  1  0  0  0  0
 17 22  1  0  0  0  0
 17  2  1  0  0  0  0
 18 17  1  0  0  0  0
 19 17  1  0  0  0  0
 20 21  1  0  0  0  0
 21 22  1  0  0  0  0
 22 23  2  0  0  0  0
 23 24  1  0  0  0  0
 23 27  1  0  0  0  0
 24 28  1  0  0  0  0
 25 24  2  0  0  0  0
 26 21  2  0  0  0  0
 26 25  1  0  0  0  0
 29 25  1  0  0  0  0
 30 26  1  0  0  0  0
M  END
>  <minimizedAffinity>
-5.63135481

$$$$

 OpenBabel03242517183D

 30 32  0  0  0  0  0  0  0  0999 V2000
   33.9680   28.9510   38.6010 C   0  0  0  0  0  3  0  0  0  0  0  0
   33.7350   29.1370   37.3300 C   0  0  0  0  0  3  0  0  0  0  0  0
   35.3960   28.9810   40.6730 C   0  0  0  0  0  0  0  0  0  0  0  0
   35.2100   29.2720   39.2950 C   0  0  0  0  0  0  0  0  0  0  0  0
   36.2580   29.8830   38.5950 C   0  0  0  0  0  0  0  0  0  0  0  0
   37.3950   30.1560   39.3080 N   0  0  0  0  0  0  0  0  0  0  0  0
   37.5360   29.8690   40.6050 C   0  0  0  0  0  0  0  0  0  0  0  0
   36.5420   29.2870   41.2750 N   0  0  0  0  0  0  0  0  0  0  0  0
   34.5890   28.5090   41.2150 H   0  0  0  0  0  0  0  0  0  0  0  0
   36.1290   30.1080   37.5480 H   0  0  0  0  0  0  0  0  0  0  0  0
   38.8440   30.2770   41.0700 C   0  0  0  0  0  0  0  0  0  0  0  0
   39.2800   30.4080   42.3860 C   0  0  0  0  0  0  0  0  0  0  0  0
   38.5900   30.1870   43.1860 H   0  0  0  0  0  0  0  0  0  0  0  0
   40.5390   30.8020   42.6650 C   0  0  0  0  0  3  0  0  0  0  0  0
   41.4530   31.0930   41.6140 C   0  0  0  0  0  3  0  0  0  0  0  0
   40.3830   30.7640   40.0930 S   0  0  0  0  0  0  0  0  0  0  0  0
   32.4350   28.7820   36.6860 C   0  0  0  0  0  0  0  0  0  0  0  0
   31.8680   28.2270   37.4850 H   0  0  0  0  0  0  0  0  0  0  0  0
   32.5610   28.0420   35.8620 H   0  0  0  0  0  0  0  0  0  0  0  0
   30.7750   30.0280   38.5510 F   0  0  0  0  0  0  0  0  0  0  0  0
   30.8540   30.5730   37.3200 C   0  0  0  0  0  0  0  0  0  0  0  0
   31.6790   29.9760   36.3460 C   0  0  0  0  0  0  0  0  0  0  0  0
   31.6620   30.6290   35.1500 C   0  0  0  0  0  0  0  0  0  0  0  0
   30.9560   31.7610   34.8050 C   0  0  0  0  0  0  0  0  0  0  0  0
   30.1610   32.2830   35.8430 C   0  0  0  0  0  0  0  0  0  0  0  0
   30.0890   31.7200   37.0990 C   0  0  0  0  0  0  0  0  0  0  0  0
   32.2730   30.2260   34.3510 H   0  0  0  0  0  0  0  0  0  0  0  0
   30.9940   32.2170   33.8430 H   0  0  0  0  0  0  0  0  0  0  0  0
   29.5620   33.1750   35.6810 H   0  0  0  0  0  0  0  0  0  0  0  0
   29.4850   32.1210   37.8770 H   0  0  0  0  0  0  0  0  0  0  0  0
  1  4  1  0  0  0  0
  2  1  2  0  0  0  0
  3  9  1  0  0  0  0
  3  8  1  0  0  0  0
  4  3  2  0  0  0  0
  5  4  1  0  0  0  0
  5  6  2  0  0  0  0
  6  7  1  0  0  0  0
  7 11  1  0  0  0  0
  7  8  2  0  0  0  0
 10  5  1  0  0  0  0
 11 12  2  0  0  0  0
 12 14  1  0  0  0  0
 12 13  1  0  0  0  0
 15 14  2  0  0  0  0
 16 11  1  0  0  0  0
 16 15  1  0  0  0  0
 17  2  1  0  0  0  0
 17 18  1  0  0  0  0
 19 17  1  0  0  0  0
 21 20  1  0  0  0  0
 22 17  1  0  0  0  0
 22 21  2  0  0  0  0
 23 22  1  0  0  0  0
 24 23  2  0  0  0  0
 24 25  1  0  0  0  0
 25 26  2  0  0  0  0
 26 21  1  0  0  0  0
 26 30  1  0  0  0  0
 27 23  1  0  0  0  0
 28 24  1  0  0  0  0
 29 25  1  0  0  0  0
M  END
>  <minimizedAffinity>
-5.29681396

$$$$

 OpenBabel03242517183D

 30 32  0  0  0  0  0  0  0  0999 V2000
   35.2770   27.7670   37.6180 C   0  0  0  0  0  3  0  0  0  0  0  0
   35.5470   27.9020   38.8880 C   0  0  0  0  0  3  0  0  0  0  0  0
   33.0460   28.9250   37.4990 C   0  0  0  0  0  0  0  0  0  0  0  0
   34.2520   28.4990   36.8820 C   0  0  0  0  0  0  0  0  0  0  0  0
   34.4510   28.7980   35.5280 C   0  0  0  0  0  0  0  0  0  0  0  0
   33.4480   29.4870   34.8990 N   0  0  0  0  0  0  0  0  0  0  0  0
   32.3260   29.8730   35.5110 C   0  0  0  0  0  0  0  0  0  0  0  0
   32.1320   29.5910   36.7990 N   0  0  0  0  0  0  0  0  0  0  0  0
   32.8900   28.6960   38.5430 H   0  0  0  0  0  0  0  0  0  0  0  0
   35.3630   28.4800   35.0490 H   0  0  0  0  0  0  0  0  0  0  0  0
   31.4660   30.5790   34.5840 C   0  0  0  0  0  0  0  0  0  0  0  0
   31.2990   31.9540   34.4520 C   0  0  0  0  0  0  0  0  0  0  0  0
   31.8610   32.6100   35.1000 H   0  0  0  0  0  0  0  0  0  0  0  0
   30.4540   32.4670   33.5360 C   0  0  0  0  0  3  0  0  0  0  0  0
   29.7110   31.6080   32.6790 C   0  0  0  0  0  3  0  0  0  0  0  0
   30.2960   29.9100   33.2630 S   0  0  0  0  0  0  0  0  0  0  0  0
   36.6140   27.1150   39.5760 C   0  0  0  0  0  0  0  0  0  0  0  0
   37.5160   27.2240   38.9120 H   0  0  0  0  0  0  0  0  0  0  0  0
   36.3950   26.0210   39.5790 H   0  0  0  0  0  0  0  0  0  0  0  0
   36.7940   25.5330   41.8670 F   0  0  0  0  0  0  0  0  0  0  0  0
   37.0160   26.8560   42.0000 C   0  0  0  0  0  0  0  0  0  0  0  0
   36.9350   27.6930   40.8700 C   0  0  0  0  0  0  0  0  0  0  0  0
   37.1800   29.0040   41.1500 C   0  0  0  0  0  0  0  0  0  0  0  0
   37.4870   29.5750   42.3660 C   0  0  0  0  0  0  0  0  0  0  0  0
   37.5450   28.6590   43.4340 C   0  0  0  0  0  0  0  0  0  0  0  0
   37.3180   27.3070   43.2860 C   0  0  0  0  0  0  0  0  0  0  0  0
   37.1340   29.7090   40.3280 H   0  0  0  0  0  0  0  0  0  0  0  0
   37.6670   30.6150   42.5080 H   0  0  0  0  0  0  0  0  0  0  0  0
   37.7800   29.0000   44.4380 H   0  0  0  0  0  0  0  0  0  0  0  0
   37.3640   26.6230   44.0990 H   0  0  0  0  0  0  0  0  0  0  0  0
  1  2  2  0  0  0  0
  2 17  1  0  0  0  0
  3  9  1  0  0  0  0
  4  3  1  0  0  0  0
  4  1  1  0  0  0  0
  5  4  2  0  0  0  0
  6  7  2  0  0  0  0
  6  5  1  0  0  0  0
  7  8  1  0  0  0  0
  8  3  2  0  0  0  0
 10  5  1  0  0  0  0
 11  7  1  0  0  0  0
 12 11  2  0  0  0  0
 12 13  1  0  0  0  0
 14 12  1  0  0  0  0
 15 16  1  0  0  0  0
 15 14  2  0  0  0  0
 16 11  1  0  0  0  0
 17 19  1  0  0  0  0
 17 22  1  0  0  0  0
 18 17  1  0  0  0  0
 20 21  1  0  0  0  0
 21 26  1  0  0  0  0
 22 23  1  0  0  0  0
 22 21  2  0  0  0  0
 23 24  2  0  0  0  0
 24 28  1  0  0  0  0
 24 25  1  0  0  0  0
 25 29  1  0  0  0  0
 26 25  2  0  0  0  0
 26 30  1  0  0  0  0
 27 23  1  0  0  0  0
M  END
>  <minimizedAffinity>
-5.07969475

$$$$

 OpenBabel03242517183D

 30 32  0  0  0  0  0  0  0  0999 V2000
   38.0890   31.0880   40.6770 C   0  0  0  0  0  3  0  0  0  0  0  0
   37.7210   30.2140   41.5740 C   0  0  0  0  0  3  0  0  0  0  0  0
   39.5030   33.0210   39.9030 C   0  0  0  0  0  0  0  0  0  0  0  0
   39.3320   31.8510   40.6900 C   0  0  0  0  0  0  0  0  0  0  0  0
   40.3960   31.4290   41.4980 C   0  0  0  0  0  0  0  0  0  0  0  0
   41.5330   32.1910   41.4620 N   0  0  0  0  0  0  0  0  0  0  0  0
   41.6600   33.2870   40.7090 C   0  0  0  0  0  0  0  0  0  0  0  0
   40.6510   33.6930   39.9390 N   0  0  0  0  0  0  0  0  0  0  0  0
   38.6840   33.3490   39.2790 H   0  0  0  0  0  0  0  0  0  0  0  0
   40.2780   30.5420   42.1000 H   0  0  0  0  0  0  0  0  0  0  0  0
   42.9720   33.8710   40.8880 C   0  0  0  0  0  0  0  0  0  0  0  0
   44.0940   33.7140   40.0790 C   0  0  0  0  0  0  0  0  0  0  0  0
   44.0180   33.0910   39.2010 H   0  0  0  0  0  0  0  0  0  0  0  0
   45.2570   34.3260   40.3780 C   0  0  0  0  0  3  0  0  0  0  0  0
   45.3630   35.1500   41.5330 C   0  0  0  0  0  3  0  0  0  0  0  0
   43.6170   35.0180   42.2410 S   0  0  0  0  0  0  0  0  0  0  0  0
   36.4280   29.4700   41.4950 C   0  0  0  0  0  0  0  0  0  0  0  0
   35.9350   29.8630   40.5620 H   0  0  0  0  0  0  0  0  0  0  0  0
   35.7320   29.7450   42.3210 H   0  0  0  0  0  0  0  0  0  0  0  0
   36.7310   27.7650   43.6810 F   0  0  0  0  0  0  0  0  0  0  0  0
   36.8050   27.2220   42.4490 C   0  0  0  0  0  0  0  0  0  0  0  0
   36.6580   28.0460   41.3160 C   0  0  0  0  0  0  0  0  0  0  0  0
   36.7550   27.3670   40.1390 C   0  0  0  0  0  0  0  0  0  0  0  0
   36.9710   26.0200   39.9440 C   0  0  0  0  0  0  0  0  0  0  0  0
   37.1050   25.2810   41.1350 C   0  0  0  0  0  0  0  0  0  0  0  0
   37.0270   25.8450   42.3910 C   0  0  0  0  0  0  0  0  0  0  0  0
   36.6540   27.9370   39.2220 H   0  0  0  0  0  0  0  0  0  0  0  0
   37.0350   25.5580   38.9860 H   0  0  0  0  0  0  0  0  0  0  0  0
   37.2770   24.2090   41.1000 H   0  0  0  0  0  0  0  0  0  0  0  0
   37.1290   25.2790   43.2850 H   0  0  0  0  0  0  0  0  0  0  0  0
  1  4  1  0  0  0  0
  1  2  2  0  0  0  0
  3  8  2  0  0  0  0
  3  4  1  0  0  0  0
  4  5  2  0  0  0  0
  5 10  1  0  0  0  0
  6  5  1  0  0  0  0
  7 11  1  0  0  0  0
  7  6  2  0  0  0  0
  8  7  1  0  0  0  0
  9  3  1  0  0  0  0
 11 16  1  0  0  0  0
 12 14  1  0  0  0  0
 12 11  2  0  0  0  0
 13 12  1  0  0  0  0
 14 15  2  0  0  0  0
 15 16  1  0  0  0  0
 17  2  1  0  0  0  0
 17 19  1  0  0  0  0
 18 17  1  0  0  0  0
 21 20  1  0  0  0  0
 22 17  1  0  0  0  0
 22 21  2  0  0  0  0
 23 22  1  0  0  0  0
 24 23  2  0  0  0  0
 24 25  1  0  0  0  0
 25 26  2  0  0  0  0
 26 21  1  0  0  0  0
 26 30  1  0  0  0  0
 27 23  1  0  0  0  0
 28 24  1  0  0  0  0
 29 25  1  0  0  0  0
M  END
>  <minimizedAffinity>
-5.0642457

$$$$

 OpenBabel03242517183D

 30 32  0  0  0  0  0  0  0  0999 V2000
   33.7580   28.8900   38.3000 C   0  0  0  0  0  3  0  0  0  0  0  0
   33.4480   29.0560   37.0430 C   0  0  0  0  0  3  0  0  0  0  0  0
   36.2550   29.1200   38.0770 C   0  0  0  0  0  0  0  0  0  0  0  0
   35.0850   29.0700   38.8800 C   0  0  0  0  0  0  0  0  0  0  0  0
   35.2220   29.2010   40.2680 C   0  0  0  0  0  0  0  0  0  0  0  0
   36.4950   29.3660   40.7460 N   0  0  0  0  0  0  0  0  0  0  0  0
   37.5750   29.4080   39.9600 C   0  0  0  0  0  0  0  0  0  0  0  0
   37.4490   29.2850   38.6390 N   0  0  0  0  0  0  0  0  0  0  0  0
   36.1520   29.0200   37.0060 H   0  0  0  0  0  0  0  0  0  0  0  0
   34.3410   29.1650   40.8890 H   0  0  0  0  0  0  0  0  0  0  0  0
   38.7690   29.5930   40.7570 C   0  0  0  0  0  0  0  0  0  0  0  0
   40.0720   29.7940   40.3100 C   0  0  0  0  0  0  0  0  0  0  0  0
   40.2570   29.8210   39.2460 H   0  0  0  0  0  0  0  0  0  0  0  0
   41.0890   29.9510   41.1800 C   0  0  0  0  0  3  0  0  0  0  0  0
   40.8500   29.9160   42.5830 C   0  0  0  0  0  3  0  0  0  0  0  0
   38.9850   29.6280   42.6310 S   0  0  0  0  0  0  0  0  0  0  0  0
   32.0640   28.8530   36.5190 C   0  0  0  0  0  0  0  0  0  0  0  0
   31.5570   28.2230   37.3020 H   0  0  0  0  0  0  0  0  0  0  0  0
   32.0500   28.2250   35.5980 H   0  0  0  0  0  0  0  0  0  0  0  0
   32.1290   30.3890   34.1920 F   0  0  0  0  0  0  0  0  0  0  0  0
   31.4110   30.8590   35.2320 C   0  0  0  0  0  0  0  0  0  0  0  0
   31.3510   30.1160   36.4280 C   0  0  0  0  0  0  0  0  0  0  0  0
   30.5930   30.7080   37.3940 C   0  0  0  0  0  0  0  0  0  0  0  0
   29.9090   31.9030   37.3300 C   0  0  0  0  0  0  0  0  0  0  0  0
   30.0290   32.5700   36.0960 C   0  0  0  0  0  0  0  0  0  0  0  0
   30.7640   32.0810   35.0380 C   0  0  0  0  0  0  0  0  0  0  0  0
   30.5020   30.1940   38.3440 H   0  0  0  0  0  0  0  0  0  0  0  0
   29.3330   32.3030   38.1320 H   0  0  0  0  0  0  0  0  0  0  0  0
   29.5300   33.5210   35.9360 H   0  0  0  0  0  0  0  0  0  0  0  0
   30.8500   32.5930   34.1100 H   0  0  0  0  0  0  0  0  0  0  0  0
  1  4  1  0  0  0  0
  2  1  2  0  0  0  0
  3  8  2  0  0  0  0
  3  4  1  0  0  0  0
  4  5  2  0  0  0  0
  5  6  1  0  0  0  0
  5 10  1  0  0  0  0
  7  6  2  0  0  0  0
  7 11  1  0  0  0  0
  8  7  1  0  0  0  0
  9  3  1  0  0  0  0
 11 16  1  0  0  0  0
 12 11  2  0  0  0  0
 12 14  1  0  0  0  0
 13 12  1  0  0  0  0
 14 15  2  0  0  0  0
 15 16  1  0  0  0  0
 17  2  1  0  0  0  0
 17 18  1  0  0  0  0
 19 17  1  0  0  0  0
 20 21  1  0  0  0  0
 21 22  1  0  0  0  0
 22 17  1  0  0  0  0
 22 23  2  0  0  0  0
 23 27  1  0  0  0  0
 24 23  1  0  0  0  0
 24 28  1  0  0  0  0
 25 24  2  0  0  0  0
 26 21  2  0  0  0  0
 26 25  1  0  0  0  0
 29 25  1  0  0  0  0
 30 26  1  0  0  0  0
M  END
>  <minimizedAffinity>
-5.00533247

$$$$

 OpenBabel03242517183D

 30 32  0  0  0  0  0  0  0  0999 V2000
   37.0280   28.3650   41.6440 C   0  0  0  0  0  3  0  0  0  0  0  0
   36.9410   27.4820   42.6010 C   0  0  0  0  0  3  0  0  0  0  0  0
   36.5230   27.5900   39.3030 C   0  0  0  0  0  0  0  0  0  0  0  0
   36.2140   28.3920   40.4340 C   0  0  0  0  0  0  0  0  0  0  0  0
   35.0920   29.2280   40.3710 C   0  0  0  0  0  0  0  0  0  0  0  0
   34.3740   29.2040   39.2050 N   0  0  0  0  0  0  0  0  0  0  0  0
   34.6930   28.4360   38.1610 C   0  0  0  0  0  0  0  0  0  0  0  0
   35.7600   27.6390   38.2150 N   0  0  0  0  0  0  0  0  0  0  0  0
   37.3890   26.9440   39.3490 H   0  0  0  0  0  0  0  0  0  0  0  0
   34.8470   29.8420   41.2230 H   0  0  0  0  0  0  0  0  0  0  0  0
   33.7460   28.6330   37.0840 C   0  0  0  0  0  0  0  0  0  0  0  0
   32.4390   29.1040   37.1710 C   0  0  0  0  0  0  0  0  0  0  0  0
   32.0450   29.3660   38.1410 H   0  0  0  0  0  0  0  0  0  0  0  0
   31.6720   29.2320   36.0700 C   0  0  0  0  0  3  0  0  0  0  0  0
   32.1860   28.8890   34.7880 C   0  0  0  0  0  3  0  0  0  0  0  0
   33.9350   28.3300   35.2310 S   0  0  0  0  0  0  0  0  0  0  0  0
   37.8110   27.5170   43.8140 C   0  0  0  0  0  0  0  0  0  0  0  0
   37.3370   26.7820   44.5230 H   0  0  0  0  0  0  0  0  0  0  0  0
   37.7560   28.4970   44.3440 H   0  0  0  0  0  0  0  0  0  0  0  0
   39.8590   29.2930   43.1530 F   0  0  0  0  0  0  0  0  0  0  0  0
   40.1540   27.9780   43.1800 C   0  0  0  0  0  0  0  0  0  0  0  0
   39.1510   27.0450   43.5080 C   0  0  0  0  0  0  0  0  0  0  0  0
   39.5890   25.7550   43.4950 C   0  0  0  0  0  0  0  0  0  0  0  0
   40.8520   25.2830   43.2090 C   0  0  0  0  0  0  0  0  0  0  0  0
   41.7840   26.2900   42.8930 C   0  0  0  0  0  0  0  0  0  0  0  0
   41.4720   27.6330   42.8710 C   0  0  0  0  0  0  0  0  0  0  0  0
   38.8700   24.9800   43.7370 H   0  0  0  0  0  0  0  0  0  0  0  0
   41.1200   24.2520   43.2200 H   0  0  0  0  0  0  0  0  0  0  0  0
   42.8110   26.0310   42.6520 H   0  0  0  0  0  0  0  0  0  0  0  0
   42.1830   28.3860   42.6300 H   0  0  0  0  0  0  0  0  0  0  0  0
  1  2  2  0  0  0  0
  2 17  1  0  0  0  0
  3  9  1  0  0  0  0
  3  4  1  0  0  0  0
  4  1  1  0  0  0  0
  5  4  2  0  0  0  0
  5 10  1  0  0  0  0
  6  5  1  0  0  0  0
  7  8  1  0  0  0  0
  7  6  2  0  0  0  0
  8  3  2  0  0  0  0
 11 12  2  0  0  0  0
 11  7  1  0  0  0  0
 12 13  1  0  0  0  0
 14 12  1  0  0  0  0
 15 16  1  0  0  0  0
 15 14  2  0  0  0  0
 16 11  1  0  0  0  0
 17 19  1  0  0  0  0
 17 18  1  0  0  0  0
 20 21  1  0  0  0  0
 21 22  1  0  0  0  0
 22 17  1  0  0  0  0
 23 22  2  0  0  0  0
 23 27  1  0  0  0  0
 24 28  1  0  0  0  0
 24 23  1  0  0  0  0
 25 24  2  0  0  0  0
 26 25  1  0  0  0  0
 26 21  2  0  0  0  0
 29 25  1  0  0  0  0
 30 26  1  0  0  0  0
M  END
>  <minimizedAffinity>
-4.92896032

$$$$

 OpenBabel03242517183D

 30 32  0  0  0  0  0  0  0  0999 V2000
   37.0590   26.5780   41.6970 C   0  0  0  0  0  3  0  0  0  0  0  0
   37.7250   25.5540   41.2350 C   0  0  0  0  0  3  0  0  0  0  0  0
   36.4570   28.6390   40.3850 C   0  0  0  0  0  0  0  0  0  0  0  0
   37.2800   27.9720   41.3310 C   0  0  0  0  0  0  0  0  0  0  0  0
   38.3290   28.6870   41.9240 C   0  0  0  0  0  0  0  0  0  0  0  0
   38.4790   29.9920   41.5340 N   0  0  0  0  0  0  0  0  0  0  0  0
   37.6850   30.5880   40.6410 C   0  0  0  0  0  0  0  0  0  0  0  0
   36.6860   29.9120   40.0750 N   0  0  0  0  0  0  0  0  0  0  0  0
   35.6470   28.0900   39.9270 H   0  0  0  0  0  0  0  0  0  0  0  0
   38.9600   28.1920   42.6440 H   0  0  0  0  0  0  0  0  0  0  0  0
   38.0950   31.9620   40.4420 C   0  0  0  0  0  0  0  0  0  0  0  0
   37.3460   33.0090   39.9130 C   0  0  0  0  0  0  0  0  0  0  0  0
   36.3310   32.8150   39.6010 H   0  0  0  0  0  0  0  0  0  0  0  0
   37.8700   34.2440   39.7880 C   0  0  0  0  0  3  0  0  0  0  0  0
   39.2070   34.5060   40.1980 C   0  0  0  0  0  3  0  0  0  0  0  0
   39.7420   32.8040   40.8160 S   0  0  0  0  0  0  0  0  0  0  0  0
   37.4430   24.1500   41.6580 C   0  0  0  0  0  0  0  0  0  0  0  0
   36.6880   24.2510   42.4860 H   0  0  0  0  0  0  0  0  0  0  0  0
   38.3270   23.6680   42.1380 H   0  0  0  0  0  0  0  0  0  0  0  0
   38.6810   21.8960   40.5740 F   0  0  0  0  0  0  0  0  0  0  0  0
   37.4890   22.2630   40.0620 C   0  0  0  0  0  0  0  0  0  0  0  0
   36.8280   23.3950   40.5780 C   0  0  0  0  0  0  0  0  0  0  0  0
   35.6370   23.6500   39.9680 C   0  0  0  0  0  0  0  0  0  0  0  0
   35.0330   22.9500   38.9450 C   0  0  0  0  0  0  0  0  0  0  0  0
   35.7700   21.8360   38.4980 C   0  0  0  0  0  0  0  0  0  0  0  0
   36.9870   21.4690   39.0290 C   0  0  0  0  0  0  0  0  0  0  0  0
   35.0710   24.5080   40.3120 H   0  0  0  0  0  0  0  0  0  0  0  0
   34.0940   23.2110   38.5170 H   0  0  0  0  0  0  0  0  0  0  0  0
   35.3870   21.2120   37.6950 H   0  0  0  0  0  0  0  0  0  0  0  0
   37.5360   20.6260   38.6840 H   0  0  0  0  0  0  0  0  0  0  0  0
  2 17  1  0  0  0  0
  2  1  2  0  0  0  0
  3  4  1  0  0  0  0
  4  1  1  0  0  0  0
  4  5  2  0  0  0  0
  5 10  1  0  0  0  0
  6  5  1  0  0  0  0
  7  6  2  0  0  0  0
  8  3  2  0  0  0  0
  8  7  1  0  0  0  0
  9  3  1  0  0  0  0
 11  7  1  0  0  0  0
 11 16  1  0  0  0  0
 12 11  2  0  0  0  0
 13 12  1  0  0  0  0
 14 12  1  0  0  0  0
 14 15  2  0  0  0  0
 15 16  1  0  0  0  0
 17 19  1  0  0  0  0
 17 18  1  0  0  0  0
 21 20  1  0  0  0  0
 21 22  1  0  0  0  0
 22 17  1  0  0  0  0
 23 27  1  0  0  0  0
 23 22  2  0  0  0  0
 24 23  1  0  0  0  0
 25 24  2  0  0  0  0
 25 26  1  0  0  0  0
 26 21  2  0  0  0  0
 28 24  1  0  0  0  0
 29 25  1  0  0  0  0
 30 26  1  0  0  0  0
M  END
>  <minimizedAffinity>
-4.91066217

$$$$

 OpenBabel03242517183D

 30 32  0  0  0  0  0  0  0  0999 V2000
   35.6480   29.7740   38.4440 C   0  0  0  0  0  3  0  0  0  0  0  0
   35.0600   29.3440   37.3610 C   0  0  0  0  0  3  0  0  0  0  0  0
   37.1430   31.4580   39.5670 C   0  0  0  0  0  0  0  0  0  0  0  0
   36.8670   30.5720   38.4920 C   0  0  0  0  0  0  0  0  0  0  0  0
   37.8040   30.4710   37.4550 C   0  0  0  0  0  0  0  0  0  0  0  0
   38.9260   31.2480   37.5630 N   0  0  0  0  0  0  0  0  0  0  0  0
   39.1530   32.0720   38.5900 C   0  0  0  0  0  0  0  0  0  0  0  0
   38.2660   32.1720   39.5790 N   0  0  0  0  0  0  0  0  0  0  0  0
   36.4230   31.5390   40.3690 H   0  0  0  0  0  0  0  0  0  0  0  0
   37.6060   29.8010   36.6330 H   0  0  0  0  0  0  0  0  0  0  0  0
   40.4190   32.7520   38.4180 C   0  0  0  0  0  0  0  0  0  0  0  0
   41.3690   32.5500   37.4200 C   0  0  0  0  0  0  0  0  0  0  0  0
   41.1760   31.8050   36.6630 H   0  0  0  0  0  0  0  0  0  0  0  0
   42.5100   33.2670   37.3930 C   0  0  0  0  0  3  0  0  0  0  0  0
   42.7690   34.2510   38.3870 C   0  0  0  0  0  3  0  0  0  0  0  0
   41.2150   34.1160   39.4510 S   0  0  0  0  0  0  0  0  0  0  0  0
   33.8100   28.5280   37.3900 C   0  0  0  0  0  0  0  0  0  0  0  0
   33.5800   28.4030   38.4850 H   0  0  0  0  0  0  0  0  0  0  0  0
   33.9750   27.4900   37.0150 H   0  0  0  0  0  0  0  0  0  0  0  0
   31.7760   29.6500   38.9350 F   0  0  0  0  0  0  0  0  0  0  0  0
   31.7000   29.7980   37.5970 C   0  0  0  0  0  0  0  0  0  0  0  0
   32.7050   29.2470   36.7770 C   0  0  0  0  0  0  0  0  0  0  0  0
   32.5010   29.4700   35.4490 C   0  0  0  0  0  0  0  0  0  0  0  0
   31.4640   30.1480   34.8450 C   0  0  0  0  0  0  0  0  0  0  0  0
   30.5110   30.6620   35.7460 C   0  0  0  0  0  0  0  0  0  0  0  0
   30.5990   30.5070   37.1120 C   0  0  0  0  0  0  0  0  0  0  0  0
   33.2350   29.0730   34.7560 H   0  0  0  0  0  0  0  0  0  0  0  0
   31.3720   30.2830   33.7930 H   0  0  0  0  0  0  0  0  0  0  0  0
   29.6510   31.2150   35.3790 H   0  0  0  0  0  0  0  0  0  0  0  0
   29.8740   30.8980   37.7850 H   0  0  0  0  0  0  0  0  0  0  0  0
  1  4  1  0  0  0  0
  2 17  1  0  0  0  0
  2  1  2  0  0  0  0
  3  8  1  0  0  0  0
  3  9  1  0  0  0  0
  4  3  2  0  0  0  0
  5  6  2  0  0  0  0
  5  4  1  0  0  0  0
  6  7  1  0  0  0  0
  7  8  2  0  0  0  0
 10  5  1  0  0  0  0
 11  7  1  0  0  0  0
 11 16  1  0  0  0  0
 12 11  2  0  0  0  0
 13 12  1  0  0  0  0
 14 12  1  0  0  0  0
 14 15  2  0  0  0  0
 15 16  1  0  0  0  0
 17 18  1  0  0  0  0
 19 17  1  0  0  0  0
 21 20  1  0  0  0  0
 22 17  1  0  0  0  0
 22 21  2  0  0  0  0
 23 22  1  0  0  0  0
 24 23  2  0  0  0  0
 24 25  1  0  0  0  0
 25 26  2  0  0  0  0
 26 21  1  0  0  0  0
 26 30  1  0  0  0  0
 27 23  1  0  0  0  0
 28 24  1  0  0  0  0
 29 25  1  0  0  0  0
M  END
>  <minimizedAffinity>
-4.7802887

$$$$
