
 OpenBabel03242512593D

 25 27  0  0  0  0  0  0  0  0999 V2000
   37.8400   27.9090   39.6150 F   0  0  0  0  0  0  0  0  0  0  0  0
   37.6190   27.9810   40.9460 C   0  0  0  0  0  0  0  0  0  0  0  0
   37.6590   29.1840   41.6160 C   0  0  0  0  0  0  0  0  0  0  0  0
   37.4200   29.1440   42.9690 C   0  0  0  0  0  0  0  0  0  0  0  0
   37.1500   28.0100   43.6800 C   0  0  0  0  0  0  0  0  0  0  0  0
   37.1200   26.8380   42.9660 C   0  0  0  0  0  0  0  0  0  0  0  0
   37.3520   26.8050   41.6020 C   0  0  0  0  0  0  0  0  0  0  0  0
   37.4540   30.0870   43.4860 H   0  0  0  0  0  0  0  0  0  0  0  0
   36.9730   28.0540   44.7340 H   0  0  0  0  0  0  0  0  0  0  0  0
   36.9000   25.9430   43.5630 H   0  0  0  0  0  0  0  0  0  0  0  0
   37.2630   32.4420   39.7210 C   0  0  0  0  0  0  0  0  0  0  0  0
   36.9610   31.2930   40.4590 C   0  0  0  0  0  0  0  0  0  0  0  0
   37.9480   30.3790   40.8510 C   0  0  0  0  0  0  0  0  0  0  0  0
   39.2060   30.7040   40.4560 N   0  0  0  0  0  0  0  0  0  0  0  0
   39.5040   31.8050   39.7490 C   0  0  0  0  0  0  0  0  0  0  0  0
   38.5500   32.6550   39.3900 N   0  0  0  0  0  0  0  0  0  0  0  0
   36.4850   33.1110   39.4420 H   0  0  0  0  0  0  0  0  0  0  0  0
   35.9460   31.0440   40.7700 H   0  0  0  0  0  0  0  0  0  0  0  0
   40.5720   31.8950   39.5250 H   0  0  0  0  0  0  0  0  0  0  0  0
   37.2900   25.4730   40.9520 C   0  0  0  0  0  0  0  0  0  0  0  0
   36.4730   25.0500   39.9040 C   0  0  0  0  0  0  0  0  0  0  0  0
   35.7380   25.6530   39.3950 H   0  0  0  0  0  0  0  0  0  0  0  0
   36.5900   23.7840   39.4720 C   0  0  0  0  0  3  0  0  0  0  0  0
   37.5910   22.9240   40.1500 C   0  0  0  0  0  3  0  0  0  0  0  0
   38.2940   24.1240   41.4160 S   0  0  0  0  0  0  0  0  0  0  0  0
  1  2  1  0  0  0  0
  2  7  2  0  0  0  0
  2  3  1  0  0  0  0
  3  4  2  0  0  0  0
  4  8  1  0  0  0  0
  4  5  1  0  0  0  0
  5  9  1  0  0  0  0
  6 10  1  0  0  0  0
  6  5  2  0  0  0  0
  7  6  1  0  0  0  0
 11 12  1  0  0  0  0
 12 18  1  0  0  0  0
 12 13  2  0  0  0  0
 13  3  1  0  0  0  0
 14 13  1  0  0  0  0
 15 14  2  0  0  0  0
 16 11  2  0  0  0  0
 16 15  1  0  0  0  0
 17 11  1  0  0  0  0
 19 15  1  0  0  0  0
 20 25  1  0  0  0  0
 20  7  1  0  0  0  0
 21 20  2  0  0  0  0
 22 21  1  0  0  0  0
 23 21  1  0  0  0  0
 23 24  2  0  0  0  0
 24 25  1  0  0  0  0
M  END
>  <minimizedAffinity>
-4.91782808

$$$$

 OpenBabel03242512593D

 25 27  0  0  0  0  0  0  0  0999 V2000
   37.2080   30.8300   37.2480 F   0  0  0  0  0  0  0  0  0  0  0  0
   36.5140   30.3350   38.2960 C   0  0  0  0  0  0  0  0  0  0  0  0
   36.7310   30.7880   39.5790 C   0  0  0  0  0  0  0  0  0  0  0  0
   35.9710   30.2160   40.5700 C   0  0  0  0  0  0  0  0  0  0  0  0
   35.0330   29.2450   40.3720 C   0  0  0  0  0  0  0  0  0  0  0  0
   34.8540   28.8280   39.0770 C   0  0  0  0  0  0  0  0  0  0  0  0
   35.5850   29.3600   38.0280 C   0  0  0  0  0  0  0  0  0  0  0  0
   36.1460   30.5740   41.5700 H   0  0  0  0  0  0  0  0  0  0  0  0
   34.4770   28.8450   41.1940 H   0  0  0  0  0  0  0  0  0  0  0  0
   34.0930   28.0470   38.9470 H   0  0  0  0  0  0  0  0  0  0  0  0
   38.4010   34.1600   40.0350 C   0  0  0  0  0  0  0  0  0  0  0  0
   37.4190   33.1820   39.8420 C   0  0  0  0  0  0  0  0  0  0  0  0
   37.7300   31.8180   39.7760 C   0  0  0  0  0  0  0  0  0  0  0  0
   39.0500   31.5330   39.9140 N   0  0  0  0  0  0  0  0  0  0  0  0
   39.9980   32.4650   40.1000 C   0  0  0  0  0  0  0  0  0  0  0  0
   39.6770   33.7510   40.1590 N   0  0  0  0  0  0  0  0  0  0  0  0
   38.1240   35.1850   40.0800 H   0  0  0  0  0  0  0  0  0  0  0  0
   36.3610   33.4240   39.7330 H   0  0  0  0  0  0  0  0  0  0  0  0
   41.0040   32.0420   40.1890 H   0  0  0  0  0  0  0  0  0  0  0  0
   35.2940   28.8210   36.6780 C   0  0  0  0  0  0  0  0  0  0  0  0
   34.1420   28.9740   35.9060 C   0  0  0  0  0  0  0  0  0  0  0  0
   33.2620   29.5280   36.1910 H   0  0  0  0  0  0  0  0  0  0  0  0
   34.0990   28.3910   34.6970 C   0  0  0  0  0  3  0  0  0  0  0  0
   35.2930   27.6200   34.2720 C   0  0  0  0  0  3  0  0  0  0  0  0
   36.4140   27.8430   35.7660 S   0  0  0  0  0  0  0  0  0  0  0  0
  1  2  1  0  0  0  0
  2  3  1  0  0  0  0
  3 13  1  0  0  0  0
  3  4  2  0  0  0  0
  4  8  1  0  0  0  0
  5  4  1  0  0  0  0
  5  9  1  0  0  0  0
  6  5  2  0  0  0  0
  7  2  2  0  0  0  0
  7  6  1  0  0  0  0
 10  6  1  0  0  0  0
 11 17  1  0  0  0  0
 11 16  1  0  0  0  0
 12 11  2  0  0  0  0
 13 12  1  0  0  0  0
 13 14  2  0  0  0  0
 14 15  1  0  0  0  0
 15 16  2  0  0  0  0
 15 19  1  0  0  0  0
 18 12  1  0  0  0  0
 20  7  1  0  0  0  0
 21 22  1  0  0  0  0
 21 20  2  0  0  0  0
 23 21  1  0  0  0  0
 24 23  2  0  0  0  0
 24 25  1  0  0  0  0
 25 20  1  0  0  0  0
M  END
>  <minimizedAffinity>
-4.81407118

$$$$

 OpenBabel03242512593D

 25 27  0  0  0  0  0  0  0  0999 V2000
   40.2770   30.6400   41.3490 F   0  0  0  0  0  0  0  0  0  0  0  0
   39.2430   31.3300   40.8190 C   0  0  0  0  0  0  0  0  0  0  0  0
   39.4480   32.4670   40.0680 C   0  0  0  0  0  0  0  0  0  0  0  0
   38.3260   33.0910   39.5770 C   0  0  0  0  0  0  0  0  0  0  0  0
   37.0450   32.6660   39.7810 C   0  0  0  0  0  0  0  0  0  0  0  0
   36.8940   31.5290   40.5350 C   0  0  0  0  0  0  0  0  0  0  0  0
   37.9790   30.8500   41.0610 C   0  0  0  0  0  0  0  0  0  0  0  0
   38.4930   33.9780   38.9930 H   0  0  0  0  0  0  0  0  0  0  0  0
   36.2180   33.2030   39.3670 H   0  0  0  0  0  0  0  0  0  0  0  0
   35.8540   31.2110   40.6820 H   0  0  0  0  0  0  0  0  0  0  0  0
   42.8500   33.0700   38.5110 C   0  0  0  0  0  0  0  0  0  0  0  0
   41.5330   32.6330   38.6910 C   0  0  0  0  0  0  0  0  0  0  0  0
   40.8110   32.9070   39.8600 C   0  0  0  0  0  0  0  0  0  0  0  0
   41.4940   33.6250   40.7890 N   0  0  0  0  0  0  0  0  0  0  0  0
   42.7560   34.0480   40.6230 C   0  0  0  0  0  0  0  0  0  0  0  0
   43.4190   33.7750   39.5060 N   0  0  0  0  0  0  0  0  0  0  0  0
   43.3640   32.8410   37.6090 H   0  0  0  0  0  0  0  0  0  0  0  0
   40.9960   32.0570   37.9360 H   0  0  0  0  0  0  0  0  0  0  0  0
   43.1370   34.6110   41.4830 H   0  0  0  0  0  0  0  0  0  0  0  0
   37.6780   29.6360   41.8570 C   0  0  0  0  0  0  0  0  0  0  0  0
   38.0840   29.3160   43.1520 C   0  0  0  0  0  0  0  0  0  0  0  0
   38.7020   29.9310   43.7880 H   0  0  0  0  0  0  0  0  0  0  0  0
   37.6860   28.1470   43.6800 C   0  0  0  0  0  3  0  0  0  0  0  0
   36.8350   27.2760   42.8330 C   0  0  0  0  0  3  0  0  0  0  0  0
   36.6990   28.3150   41.2720 S   0  0  0  0  0  0  0  0  0  0  0  0
  2  7  1  0  0  0  0
  2  1  1  0  0  0  0
  3  2  2  0  0  0  0
  4  5  2  0  0  0  0
  4  3  1  0  0  0  0
  5  6  1  0  0  0  0
  6 10  1  0  0  0  0
  6  7  2  0  0  0  0
  7 20  1  0  0  0  0
  8  4  1  0  0  0  0
  9  5  1  0  0  0  0
 11 12  2  0  0  0  0
 11 16  1  0  0  0  0
 12 13  1  0  0  0  0
 13  3  1  0  0  0  0
 13 14  2  0  0  0  0
 15 14  1  0  0  0  0
 15 19  1  0  0  0  0
 16 15  2  0  0  0  0
 17 11  1  0  0  0  0
 18 12  1  0  0  0  0
 20 21  2  0  0  0  0
 21 23  1  0  0  0  0
 21 22  1  0  0  0  0
 24 23  2  0  0  0  0
 25 20  1  0  0  0  0
 25 24  1  0  0  0  0
M  END
>  <minimizedAffinity>
-4.80481148

$$$$

 OpenBabel03242512593D

 25 27  0  0  0  0  0  0  0  0999 V2000
   39.8550   29.3460   41.3750 F   0  0  0  0  0  0  0  0  0  0  0  0
   38.5150   29.2960   41.2110 C   0  0  0  0  0  0  0  0  0  0  0  0
   37.8180   30.3530   40.6680 C   0  0  0  0  0  0  0  0  0  0  0  0
   36.4580   30.1960   40.5460 C   0  0  0  0  0  0  0  0  0  0  0  0
   35.7650   29.0810   40.9210 C   0  0  0  0  0  0  0  0  0  0  0  0
   36.5050   28.0560   41.4540 C   0  0  0  0  0  0  0  0  0  0  0  0
   37.8780   28.1460   41.6070 C   0  0  0  0  0  0  0  0  0  0  0  0
   35.9200   31.0260   40.1220 H   0  0  0  0  0  0  0  0  0  0  0  0
   34.7040   29.0290   40.7950 H   0  0  0  0  0  0  0  0  0  0  0  0
   35.9220   27.1730   41.7460 H   0  0  0  0  0  0  0  0  0  0  0  0
   40.1080   32.7170   38.7880 C   0  0  0  0  0  0  0  0  0  0  0  0
   39.3960   31.5680   39.1490 C   0  0  0  0  0  0  0  0  0  0  0  0
   38.5650   31.5290   40.2760 C   0  0  0  0  0  0  0  0  0  0  0  0
   38.5120   32.6920   40.9760 N   0  0  0  0  0  0  0  0  0  0  0  0
   39.1900   33.7980   40.6360 C   0  0  0  0  0  0  0  0  0  0  0  0
   39.9720   33.8080   39.5630 N   0  0  0  0  0  0  0  0  0  0  0  0
   40.7280   32.7040   37.9240 H   0  0  0  0  0  0  0  0  0  0  0  0
   39.4480   30.6400   38.5770 H   0  0  0  0  0  0  0  0  0  0  0  0
   39.0210   34.6350   41.3230 H   0  0  0  0  0  0  0  0  0  0  0  0
   38.5570   26.9670   42.1970 C   0  0  0  0  0  0  0  0  0  0  0  0
   39.3810   26.9060   43.3210 C   0  0  0  0  0  0  0  0  0  0  0  0
   39.6560   27.7400   43.9470 H   0  0  0  0  0  0  0  0  0  0  0  0
   39.8920   25.7150   43.6770 C   0  0  0  0  0  3  0  0  0  0  0  0
   39.5350   24.5460   42.8370 C   0  0  0  0  0  3  0  0  0  0  0  0
   38.4300   25.3530   41.5480 S   0  0  0  0  0  0  0  0  0  0  0  0
  2  1  1  0  0  0  0
  2  7  1  0  0  0  0
  3  2  2  0  0  0  0
  4  3  1  0  0  0  0
  4  5  2  0  0  0  0
  5  6  1  0  0  0  0
  6  7  2  0  0  0  0
  6 10  1  0  0  0  0
  7 20  1  0  0  0  0
  8  4  1  0  0  0  0
  9  5  1  0  0  0  0
 11 12  2  0  0  0  0
 11 16  1  0  0  0  0
 12 13  1  0  0  0  0
 13  3  1  0  0  0  0
 13 14  2  0  0  0  0
 15 14  1  0  0  0  0
 15 19  1  0  0  0  0
 16 15  2  0  0  0  0
 17 11  1  0  0  0  0
 18 12  1  0  0  0  0
 20 21  2  0  0  0  0
 21 23  1  0  0  0  0
 21 22  1  0  0  0  0
 24 23  2  0  0  0  0
 25 20  1  0  0  0  0
 25 24  1  0  0  0  0
M  END
>  <minimizedAffinity>
-4.79219723

$$$$

 OpenBabel03242512593D

 25 27  0  0  0  0  0  0  0  0999 V2000
   37.8670   27.6880   39.6030 F   0  0  0  0  0  0  0  0  0  0  0  0
   37.6660   27.7480   40.9380 C   0  0  0  0  0  0  0  0  0  0  0  0
   37.5550   26.6050   41.6990 C   0  0  0  0  0  0  0  0  0  0  0  0
   37.3510   26.7800   43.0460 C   0  0  0  0  0  0  0  0  0  0  0  0
   37.2530   27.9900   43.6690 C   0  0  0  0  0  0  0  0  0  0  0  0
   37.3700   29.0980   42.8680 C   0  0  0  0  0  0  0  0  0  0  0  0
   37.5760   28.9960   41.5020 C   0  0  0  0  0  0  0  0  0  0  0  0
   37.2650   25.8830   43.6340 H   0  0  0  0  0  0  0  0  0  0  0  0
   37.0930   28.0510   44.7260 H   0  0  0  0  0  0  0  0  0  0  0  0
   37.2870   30.0570   43.3960 H   0  0  0  0  0  0  0  0  0  0  0  0
   36.6770   23.2960   40.0730 C   0  0  0  0  0  0  0  0  0  0  0  0
   36.5520   24.5260   40.7260 C   0  0  0  0  0  0  0  0  0  0  0  0
   37.6610   25.3280   41.0250 C   0  0  0  0  0  0  0  0  0  0  0  0
   38.8530   24.8100   40.6290 N   0  0  0  0  0  0  0  0  0  0  0  0
   38.9810   23.6310   40.0010 C   0  0  0  0  0  0  0  0  0  0  0  0
   37.9140   22.8910   39.7300 N   0  0  0  0  0  0  0  0  0  0  0  0
   35.8100   22.7170   39.8640 H   0  0  0  0  0  0  0  0  0  0  0  0
   35.5880   24.9310   41.0380 H   0  0  0  0  0  0  0  0  0  0  0  0
   40.0210   23.3830   39.7620 H   0  0  0  0  0  0  0  0  0  0  0  0
   37.6850   30.2700   40.7530 C   0  0  0  0  0  0  0  0  0  0  0  0
   36.6840   31.1910   40.4440 C   0  0  0  0  0  0  0  0  0  0  0  0
   35.6430   31.1050   40.7160 H   0  0  0  0  0  0  0  0  0  0  0  0
   37.0160   32.2900   39.7470 C   0  0  0  0  0  3  0  0  0  0  0  0
   38.4390   32.4410   39.3560 C   0  0  0  0  0  3  0  0  0  0  0  0
   39.1800   30.8760   40.0880 S   0  0  0  0  0  0  0  0  0  0  0  0
  1  2  1  0  0  0  0
  2  7  2  0  0  0  0
  2  3  1  0  0  0  0
  3  4  2  0  0  0  0
  4  8  1  0  0  0  0
  4  5  1  0  0  0  0
  5  9  1  0  0  0  0
  6 10  1  0  0  0  0
  6  5  2  0  0  0  0
  7  6  1  0  0  0  0
 11 12  1  0  0  0  0
 12 13  2  0  0  0  0
 12 18  1  0  0  0  0
 13  3  1  0  0  0  0
 14 13  1  0  0  0  0
 15 14  2  0  0  0  0
 16 15  1  0  0  0  0
 16 11  2  0  0  0  0
 17 11  1  0  0  0  0
 19 15  1  0  0  0  0
 20  7  1  0  0  0  0
 21 22  1  0  0  0  0
 21 20  2  0  0  0  0
 23 21  1  0  0  0  0
 24 23  2  0  0  0  0
 24 25  1  0  0  0  0
 25 20  1  0  0  0  0
M  END
>  <minimizedAffinity>
-4.79203701

$$$$

 OpenBabel03242512593D

 25 27  0  0  0  0  0  0  0  0999 V2000
   38.1370   28.2710   39.7490 F   0  0  0  0  0  0  0  0  0  0  0  0
   37.7820   28.1110   41.0430 C   0  0  0  0  0  0  0  0  0  0  0  0
   37.6890   29.1850   41.9000 C   0  0  0  0  0  0  0  0  0  0  0  0
   37.3210   28.9100   43.1950 C   0  0  0  0  0  0  0  0  0  0  0  0
   37.0470   27.6640   43.6790 C   0  0  0  0  0  0  0  0  0  0  0  0
   37.1530   26.6270   42.7860 C   0  0  0  0  0  0  0  0  0  0  0  0
   37.5190   26.8310   41.4670 C   0  0  0  0  0  0  0  0  0  0  0  0
   37.2510   29.7540   43.8590 H   0  0  0  0  0  0  0  0  0  0  0  0
   36.7650   27.5240   44.7020 H   0  0  0  0  0  0  0  0  0  0  0  0
   36.9260   25.6370   43.2030 H   0  0  0  0  0  0  0  0  0  0  0  0
   39.4820   32.4100   41.0340 C   0  0  0  0  0  0  0  0  0  0  0  0
   39.2180   31.1390   41.5540 C   0  0  0  0  0  0  0  0  0  0  0  0
   37.9840   30.5010   41.3730 C   0  0  0  0  0  0  0  0  0  0  0  0
   37.0790   31.2190   40.6590 N   0  0  0  0  0  0  0  0  0  0  0  0
   37.3250   32.4380   40.1560 C   0  0  0  0  0  0  0  0  0  0  0  0
   38.5030   33.0200   40.3420 N   0  0  0  0  0  0  0  0  0  0  0  0
   40.4330   32.8600   41.1940 H   0  0  0  0  0  0  0  0  0  0  0  0
   39.9550   30.5730   42.1260 H   0  0  0  0  0  0  0  0  0  0  0  0
   36.4720   32.8570   39.6110 H   0  0  0  0  0  0  0  0  0  0  0  0
   37.5960   25.6260   40.6080 C   0  0  0  0  0  0  0  0  0  0  0  0
   36.5770   24.9940   39.8950 C   0  0  0  0  0  0  0  0  0  0  0  0
   35.5440   25.3030   39.8670 H   0  0  0  0  0  0  0  0  0  0  0  0
   36.8800   23.9030   39.1740 C   0  0  0  0  0  3  0  0  0  0  0  0
   38.2920   23.4490   39.1900 C   0  0  0  0  0  3  0  0  0  0  0  0
   39.0690   24.7360   40.3200 S   0  0  0  0  0  0  0  0  0  0  0  0
  1  2  1  0  0  0  0
  2  7  2  0  0  0  0
  2  3  1  0  0  0  0
  3  4  2  0  0  0  0
  4  5  1  0  0  0  0
  4  8  1  0  0  0  0
  5  9  1  0  0  0  0
  6 10  1  0  0  0  0
  6  5  2  0  0  0  0
  7  6  1  0  0  0  0
 11 17  1  0  0  0  0
 11 12  1  0  0  0  0
 12 18  1  0  0  0  0
 13 12  2  0  0  0  0
 13  3  1  0  0  0  0
 14 13  1  0  0  0  0
 15 16  1  0  0  0  0
 15 14  2  0  0  0  0
 16 11  2  0  0  0  0
 19 15  1  0  0  0  0
 20  7  1  0  0  0  0
 21 20  2  0  0  0  0
 22 21  1  0  0  0  0
 23 24  2  0  0  0  0
 23 21  1  0  0  0  0
 24 25  1  0  0  0  0
 25 20  1  0  0  0  0
M  END
>  <minimizedAffinity>
-4.77568722

$$$$

 OpenBabel03242512593D

 25 27  0  0  0  0  0  0  0  0999 V2000
   38.5440   29.7570   41.2300 F   0  0  0  0  0  0  0  0  0  0  0  0
   37.6740   29.7440   40.1960 C   0  0  0  0  0  0  0  0  0  0  0  0
   37.5740   30.8090   39.3280 C   0  0  0  0  0  0  0  0  0  0  0  0
   36.6570   30.6910   38.3110 C   0  0  0  0  0  0  0  0  0  0  0  0
   35.8520   29.6080   38.1090 C   0  0  0  0  0  0  0  0  0  0  0  0
   35.9900   28.5730   39.0000 C   0  0  0  0  0  0  0  0  0  0  0  0
   36.8940   28.6240   40.0480 C   0  0  0  0  0  0  0  0  0  0  0  0
   36.5840   31.5270   37.6380 H   0  0  0  0  0  0  0  0  0  0  0  0
   35.1600   29.5850   37.2940 H   0  0  0  0  0  0  0  0  0  0  0  0
   35.3310   27.7150   38.8120 H   0  0  0  0  0  0  0  0  0  0  0  0
   40.4570   33.2600   39.1110 C   0  0  0  0  0  0  0  0  0  0  0  0
   39.6440   32.1460   38.8770 C   0  0  0  0  0  0  0  0  0  0  0  0
   38.4330   31.9520   39.5540 C   0  0  0  0  0  0  0  0  0  0  0  0
   38.1240   32.9300   40.4450 N   0  0  0  0  0  0  0  0  0  0  0  0
   38.8980   34.0010   40.6750 C   0  0  0  0  0  0  0  0  0  0  0  0
   40.0410   34.1610   40.0200 N   0  0  0  0  0  0  0  0  0  0  0  0
   41.3690   33.3700   38.5750 H   0  0  0  0  0  0  0  0  0  0  0  0
   39.9040   31.3690   38.1580 H   0  0  0  0  0  0  0  0  0  0  0  0
   38.4820   34.6780   41.4290 H   0  0  0  0  0  0  0  0  0  0  0  0
   36.9420   27.4390   40.9370 C   0  0  0  0  0  0  0  0  0  0  0  0
   36.8330   27.3850   42.3270 C   0  0  0  0  0  0  0  0  0  0  0  0
   36.6930   28.2310   42.9810 H   0  0  0  0  0  0  0  0  0  0  0  0
   36.9070   26.1870   42.9300 C   0  0  0  0  0  3  0  0  0  0  0  0
   37.1000   25.0010   42.0600 C   0  0  0  0  0  3  0  0  0  0  0  0
   37.1570   25.8060   40.3620 S   0  0  0  0  0  0  0  0  0  0  0  0
  2  1  1  0  0  0  0
  3 13  1  0  0  0  0
  3  2  2  0  0  0  0
  4  3  1  0  0  0  0
  5  4  2  0  0  0  0
  5  6  1  0  0  0  0
  6  7  2  0  0  0  0
  7  2  1  0  0  0  0
  7 20  1  0  0  0  0
  8  4  1  0  0  0  0
  9  5  1  0  0  0  0
 10  6  1  0  0  0  0
 11 16  1  0  0  0  0
 12 11  2  0  0  0  0
 12 13  1  0  0  0  0
 13 14  2  0  0  0  0
 14 15  1  0  0  0  0
 15 19  1  0  0  0  0
 16 15  2  0  0  0  0
 17 11  1  0  0  0  0
 18 12  1  0  0  0  0
 20 21  2  0  0  0  0
 21 23  1  0  0  0  0
 21 22  1  0  0  0  0
 24 23  2  0  0  0  0
 25 20  1  0  0  0  0
 25 24  1  0  0  0  0
M  END
>  <minimizedAffinity>
-4.77421427

$$$$

 OpenBabel03242512593D

 25 27  0  0  0  0  0  0  0  0999 V2000
   39.6550   26.8410   40.9730 F   0  0  0  0  0  0  0  0  0  0  0  0
   38.6510   27.0780   41.8460 C   0  0  0  0  0  0  0  0  0  0  0  0
   37.5330   26.2740   41.8910 C   0  0  0  0  0  0  0  0  0  0  0  0
   36.5730   26.6060   42.8160 C   0  0  0  0  0  0  0  0  0  0  0  0
   36.6520   27.6610   43.6780 C   0  0  0  0  0  0  0  0  0  0  0  0
   37.7850   28.4310   43.5940 C   0  0  0  0  0  0  0  0  0  0  0  0
   38.7920   28.1550   42.6850 C   0  0  0  0  0  0  0  0  0  0  0  0
   35.7020   25.9740   42.8450 H   0  0  0  0  0  0  0  0  0  0  0  0
   35.8640   27.8600   44.3740 H   0  0  0  0  0  0  0  0  0  0  0  0
   37.8220   29.2720   44.2990 H   0  0  0  0  0  0  0  0  0  0  0  0
   36.8680   24.1740   38.8060 C   0  0  0  0  0  0  0  0  0  0  0  0
   36.9260   25.2650   39.6800 C   0  0  0  0  0  0  0  0  0  0  0  0
   37.4610   25.1590   40.9700 C   0  0  0  0  0  0  0  0  0  0  0  0
   37.9130   23.9190   41.2920 N   0  0  0  0  0  0  0  0  0  0  0  0
   37.8630   22.8680   40.4600 C   0  0  0  0  0  0  0  0  0  0  0  0
   37.3500   22.9950   39.2430 N   0  0  0  0  0  0  0  0  0  0  0  0
   36.4540   24.2960   37.8350 H   0  0  0  0  0  0  0  0  0  0  0  0
   36.5590   26.2560   39.4080 H   0  0  0  0  0  0  0  0  0  0  0  0
   38.2740   21.9530   40.8990 H   0  0  0  0  0  0  0  0  0  0  0  0
   39.9630   29.0650   42.6990 C   0  0  0  0  0  0  0  0  0  0  0  0
   41.2960   28.7700   42.9850 C   0  0  0  0  0  0  0  0  0  0  0  0
   41.6830   27.7990   43.2500 H   0  0  0  0  0  0  0  0  0  0  0  0
   42.1970   29.7640   42.9350 C   0  0  0  0  0  3  0  0  0  0  0  0
   41.7000   31.1140   42.5750 C   0  0  0  0  0  3  0  0  0  0  0  0
   39.8670   30.7690   42.3330 S   0  0  0  0  0  0  0  0  0  0  0  0
  1  2  1  0  0  0  0
  2  3  2  0  0  0  0
  2  7  1  0  0  0  0
  3  4  1  0  0  0  0
  4  8  1  0  0  0  0
  4  5  2  0  0  0  0
  5  9  1  0  0  0  0
  6  5  1  0  0  0  0
  6 10  1  0  0  0  0
  7 20  1  0  0  0  0
  7  6  2  0  0  0  0
 11 16  2  0  0  0  0
 11 12  1  0  0  0  0
 12 13  2  0  0  0  0
 13 14  1  0  0  0  0
 13  3  1  0  0  0  0
 15 19  1  0  0  0  0
 15 14  2  0  0  0  0
 16 15  1  0  0  0  0
 17 11  1  0  0  0  0
 18 12  1  0  0  0  0
 20 21  2  0  0  0  0
 21 22  1  0  0  0  0
 23 21  1  0  0  0  0
 24 23  2  0  0  0  0
 25 24  1  0  0  0  0
 25 20  1  0  0  0  0
M  END
>  <minimizedAffinity>
-4.67307615

$$$$

 OpenBabel03242512593D

 25 27  0  0  0  0  0  0  0  0999 V2000
   40.0920   29.7510   40.3590 F   0  0  0  0  0  0  0  0  0  0  0  0
   39.1700   30.7170   40.1530 C   0  0  0  0  0  0  0  0  0  0  0  0
   39.4210   31.7820   39.3170 C   0  0  0  0  0  0  0  0  0  0  0  0
   38.4140   32.7070   39.1790 C   0  0  0  0  0  0  0  0  0  0  0  0
   37.2030   32.6410   39.8060 C   0  0  0  0  0  0  0  0  0  0  0  0
   37.0010   31.5590   40.6270 C   0  0  0  0  0  0  0  0  0  0  0  0
   37.9720   30.5900   40.8120 C   0  0  0  0  0  0  0  0  0  0  0  0
   38.6170   33.5370   38.5260 H   0  0  0  0  0  0  0  0  0  0  0  0
   36.4640   33.3990   39.6510 H   0  0  0  0  0  0  0  0  0  0  0  0
   36.0190   31.5320   41.1170 H   0  0  0  0  0  0  0  0  0  0  0  0
   42.9930   32.7050   38.4480 C   0  0  0  0  0  0  0  0  0  0  0  0
   41.7550   32.6650   39.0980 C   0  0  0  0  0  0  0  0  0  0  0  0
   40.7090   31.8420   38.6600 C   0  0  0  0  0  0  0  0  0  0  0  0
   41.0020   31.0960   37.5630 N   0  0  0  0  0  0  0  0  0  0  0  0
   42.1870   31.1280   36.9350 C   0  0  0  0  0  0  0  0  0  0  0  0
   43.1610   31.9170   37.3700 N   0  0  0  0  0  0  0  0  0  0  0  0
   43.7600   33.3440   38.8130 H   0  0  0  0  0  0  0  0  0  0  0  0
   41.5330   33.2700   39.9780 H   0  0  0  0  0  0  0  0  0  0  0  0
   42.2330   30.4570   36.0700 H   0  0  0  0  0  0  0  0  0  0  0  0
   37.6270   29.4740   41.7260 C   0  0  0  0  0  0  0  0  0  0  0  0
   38.0550   29.2530   43.0350 C   0  0  0  0  0  0  0  0  0  0  0  0
   38.7250   29.8860   43.5940 H   0  0  0  0  0  0  0  0  0  0  0  0
   37.6070   28.1630   43.6800 C   0  0  0  0  0  3  0  0  0  0  0  0
   36.6830   27.2690   42.9410 C   0  0  0  0  0  3  0  0  0  0  0  0
   36.5580   28.1650   41.2920 S   0  0  0  0  0  0  0  0  0  0  0  0
  2  1  1  0  0  0  0
  2  7  1  0  0  0  0
  3  2  2  0  0  0  0
  4  3  1  0  0  0  0
  4  5  2  0  0  0  0
  5  6  1  0  0  0  0
  6  7  2  0  0  0  0
  6 10  1  0  0  0  0
  7 20  1  0  0  0  0
  8  4  1  0  0  0  0
  9  5  1  0  0  0  0
 11 17  1  0  0  0  0
 11 12  1  0  0  0  0
 12 18  1  0  0  0  0
 13 12  2  0  0  0  0
 13  3  1  0  0  0  0
 14 13  1  0  0  0  0
 15 16  1  0  0  0  0
 15 14  2  0  0  0  0
 16 11  2  0  0  0  0
 19 15  1  0  0  0  0
 20 21  2  0  0  0  0
 21 22  1  0  0  0  0
 21 23  1  0  0  0  0
 24 23  2  0  0  0  0
 25 20  1  0  0  0  0
 25 24  1  0  0  0  0
M  END
>  <minimizedAffinity>
-4.66480541

$$$$
