
     RDKit          3D

 33 35  0  0  0  0  0  0  0  0999 V2000
   46.8529   34.8728   42.7050 C   0  0  0  0  0  0  0  0  0  0  0  0
   48.0629   34.5415   42.0759 C   0  0  0  0  0  0  0  0  0  0  0  0
   48.7659   33.4599   42.5975 C   0  0  0  0  0  0  0  0  0  0  0  0
   48.2392   32.8038   43.6699 N   0  0  0  0  0  0  0  0  0  0  0  0
   47.0876   33.1459   44.2419 C   0  0  0  0  0  0  0  0  0  0  0  0
   46.3809   34.1930   43.7577 N   0  0  0  0  0  0  0  0  0  0  0  0
   45.9975   30.3694   43.6002 Cl  0  0  0  0  0  0  0  0  0  0  0  0
   46.0623   31.1309   45.1913 C   0  0  0  0  0  0  0  0  0  0  0  0
   46.5775   32.4023   45.3883 C   0  0  0  0  0  0  0  0  0  0  0  0
   46.6149   32.9695   46.6387 C   0  0  0  0  0  0  0  0  0  0  0  0
   46.1236   32.2452   47.7214 C   0  0  0  0  0  0  0  0  0  0  0  0
   45.6178   30.9806   47.4855 C   0  0  0  0  0  0  0  0  0  0  0  0
   45.0163   30.1222   48.8850 Cl  0  0  0  0  0  0  0  0  0  0  0  0
   45.5694   30.3938   46.2502 C   0  0  0  0  0  0  0  0  0  0  0  0
   48.4944   35.3396   40.9375 C   0  0  0  0  0  0  0  0  0  0  0  0
   48.1370   34.5998   39.6769 C   0  0  0  0  0  0  0  0  0  0  0  0
   46.2799   35.7207   42.3135 H   0  0  0  0  0  0  0  0  0  0  0  0
   49.6930   33.1822   42.1393 H   0  0  0  0  0  0  0  0  0  0  0  0
   47.0312   33.9714   46.7313 H   0  0  0  0  0  0  0  0  0  0  0  0
   46.1578   32.7038   48.7084 H   0  0  0  0  0  0  0  0  0  0  0  0
   45.1582   29.3877   46.1160 H   0  0  0  0  0  0  0  0  0  0  0  0
   49.5922   35.4699   41.0197 H   0  0  0  0  0  0  0  0  0  0  0  0
   48.0470   36.3351   40.9904 H   0  0  0  0  0  0  0  0  0  0  0  0
   48.5127   35.2290   38.8175 H   0  0  0  0  0  0  0  0  0  0  0  0
   48.7939   33.6833   39.6130 H   0  0  0  0  0  0  0  0  0  0  0  0
   46.7467   34.3243   39.4845 C   0  0  0  0  0  0  0  0  0  0  0  0
   46.0110   33.4376   38.6193 C   0  0  0  0  0  0  0  0  0  0  0  0
   46.6546   32.8671   37.9789 H   0  0  0  0  0  0  0  0  0  0  0  0
   44.6606   33.4284   38.7110 C   0  0  0  0  0  0  0  0  0  0  0  0
   43.9656   34.2741   39.6409 C   0  0  0  0  0  0  0  0  0  0  0  0
   45.4115   35.1684   40.4606 S   0  0  0  0  0  0  0  0  0  0  0  0
   44.1123   32.7625   38.0610 H   0  0  0  0  0  0  0  0  0  0  0  0
   42.9017   34.2806   39.7274 H   0  0  0  0  0  0  0  0  0  0  0  0
  1  6  2  0
  2  3  2  0
  2  1  1  0
  3  4  1  0
  4  5  2  0
  5  9  1  0
  6  5  1  0
  7  8  1  0
  8  9  2  0
  8 14  1  0
  9 10  1  0
 10 11  2  0
 12 11  1  0
 12 13  1  0
 14 12  2  0
 15  2  1  0
 16 15  1  0
  1 17  1  0
  3 18  1  0
 10 19  1  0
 11 20  1  0
 14 21  1  0
 15 22  1  0
 15 23  1  0
 16 24  1  0
 16 25  1  0
 26 27  2  0
 27 28  1  0
 27 29  1  0
 29 30  2  0
 30 31  1  0
 31 26  1  0
 29 32  1  0
 30 33  1  0
 16 26  1  0
M  ISO  8  17  14  18  14  19  14  20  14  21  14  22   8  23   8  24   8
M  ISO  2  25   8  28  15
M  END
>  <DihAtoms>  (1) 
14,15,25,26

>  <DihDeg>  (1) 
90.57097671398768

$$$$
