
 OpenBabel03252509263D

 27 29  0  0  1  0  0  0  0  0999 V2000
   46.9930   35.1380   41.7780 C   0  0  1  0  0  0  0  0  0  0  0  0
   48.4900   35.5560   41.8540 C   0  0  0  0  0  0  0  0  0  0  0  0
   47.9090   34.3140   41.1040 C   0  0  2  0  0  0  0  0  0  0  0  0
   46.3650   35.8970   41.2680 H   0  0  0  0  0  0  0  0  0  0  0  0
   49.0440   35.3920   42.7710 H   0  0  0  0  0  0  0  0  0  0  0  0
   48.7930   36.3730   41.1810 H   0  0  0  0  0  0  0  0  0  0  0  0
   48.2040   33.3520   41.6290 H   0  0  0  0  0  0  0  0  0  0  0  0
   44.9800   34.8860   44.9360 C   0  0  0  0  0  0  0  0  0  0  0  0
   45.4180   35.3770   43.6670 C   0  0  0  0  0  0  0  0  0  0  0  0
   46.4870   34.7380   43.1350 C   0  0  0  0  0  0  0  0  0  0  0  0
   47.1060   33.6870   43.7860 N   0  0  0  0  0  0  0  0  0  0  0  0
   46.6570   33.2540   44.9900 C   0  0  0  0  0  0  0  0  0  0  0  0
   45.5920   33.8580   45.5650 N   0  0  0  0  0  0  0  0  0  0  0  0
   44.1200   35.4050   45.3560 H   0  0  0  0  0  0  0  0  0  0  0  0
   47.1340   32.4340   45.5090 H   0  0  0  0  0  0  0  0  0  0  0  0
   44.7910   36.4650   43.0170 N   0  0  0  0  0  0  0  0  0  0  0  0
   44.7480   37.4900   43.2650 H   0  0  0  0  0  0  0  0  0  0  0  0
   44.3560   36.0050   42.1930 H   0  0  0  0  0  0  0  0  0  0  0  0
   47.9960   34.2920   39.5950 C   0  0  0  0  0  0  0  0  0  0  0  0
   46.9300   34.2480   39.2350 H   0  0  0  0  0  0  0  0  0  0  0  0
   48.5280   35.1840   39.2060 H   0  0  0  0  0  0  0  0  0  0  0  0
   48.6270   33.0310   39.1650 C   0  0  0  0  0  0  0  0  0  0  0  0
   48.9390   32.4500   37.9700 C   0  0  0  0  0  0  0  0  0  0  0  0
   48.6900   32.9930   37.0690 H   0  0  0  0  0  0  0  0  0  0  0  0
   49.5460   31.2190   37.9920 C   0  0  0  0  0  3  0  0  0  0  0  0
   49.8060   30.6380   39.2040 C   0  0  0  0  0  3  0  0  0  0  0  0
   49.1460   31.9240   40.4010 S   0  0  0  0  0  0  0  0  0  0  0  0
  1  4  1  6  0  0  0
  1  2  1  0  0  0  0
  1 10  1  0  0  0  0
  2  5  1  0  0  0  0
  3  7  1  1  0  0  0
  3  1  1  0  0  0  0
  3  2  1  0  0  0  0
  6  2  1  0  0  0  0
  8 14  1  0  0  0  0
  8 13  1  0  0  0  0
  9  8  2  0  0  0  0
 10  9  1  0  0  0  0
 10 11  2  0  0  0  0
 11 12  1  0  0  0  0
 12 15  1  0  0  0  0
 12 13  2  0  0  0  0
 16 17  1  0  0  0  0
 16  9  1  0  0  0  0
 18 16  1  0  0  0  0
 19  3  1  0  0  0  0
 20 19  1  0  0  0  0
 21 19  1  0  0  0  0
 22 19  1  0  0  0  0
 22 27  1  0  0  0  0
 23 25  1  0  0  0  0
 23 22  2  0  0  0  0
 24 23  1  0  0  0  0
 25 26  2  0  0  0  0
 26 27  1  0  0  0  0
M  END
>  <minimizedAffinity>
-4.52178955

>  <minimizedRMSD>
0.765754163

$$$$
