
     RDKit          3D

 24 26  0  0  0  0  0  0  0  0999 V2000
   44.5761   35.7870   44.7226 C   0  0  0  0  0  0  0  0  0  0  0  0
   45.2740   35.5716   43.5056 C   0  0  0  0  0  0  0  0  0  0  0  0
   46.1452   34.4671   43.4287 C   0  0  0  0  0  0  0  0  0  0  0  0
   46.2659   33.6668   44.5355 N   0  0  0  0  0  0  0  0  0  0  0  0
   45.5735   33.9223   45.6709 C   0  0  0  0  0  0  0  0  0  0  0  0
   44.7287   34.9807   45.7671 N   0  0  0  0  0  0  0  0  0  0  0  0
   45.8709   32.9295   46.7025 C   0  0  0  0  0  0  0  0  0  0  0  0
   45.1375   32.7843   47.9074 C   0  0  0  0  0  0  0  0  0  0  0  0
   45.5012   31.8302   48.7893 C   0  0  0  0  0  0  0  0  0  0  0  0
   46.6067   31.0027   48.4818 C   0  0  0  0  0  0  0  0  0  0  0  0
   47.1313   31.6368   46.8557 S   0  0  0  0  0  0  0  0  0  0  0  0
   43.9096   36.6340   44.7779 H   0  0  0  0  0  0  0  0  0  0  0  0
   45.1672   36.2149   42.6381 H   0  0  0  0  0  0  0  0  0  0  0  0
   46.7149   34.2298   42.5413 H   0  0  0  0  0  0  0  0  0  0  0  0
   44.2936   33.4431   48.1030 H   0  0  0  0  0  0  0  0  0  0  0  0
   45.0192   31.6375   49.7198 H   0  0  0  0  0  0  0  0  0  0  0  0
   47.2140   29.9765   49.1335 C   0  0  0  0  0  0  0  0  0  0  0  0
   47.6550   28.7687   48.7346 C   0  0  0  0  0  0  0  0  0  0  0  0
   47.5323   28.4925   47.6971 H   0  0  0  0  0  0  0  0  0  0  0  0
   48.2481   27.8819   49.5824 C   0  0  0  0  0  0  0  0  0  0  0  0
   48.3833   28.3341   51.0041 C   0  0  0  0  0  0  0  0  0  0  0  0
   47.6138   30.0422   50.9497 S   0  0  0  0  0  0  0  0  0  0  0  0
   48.6198   26.9033   49.3206 H   0  0  0  0  0  0  0  0  0  0  0  0
   48.8936   27.5755   51.7409 H   0  0  0  0  0  0  0  0  0  0  0  0
  1  6  2  0
  2  1  1  0
  3  2  2  0
  3  4  1  0
  4  5  2  0
  5  6  1  0
  5  7  1  0
  7 11  1  0
  7  8  2  0
  8  9  1  0
 10  9  2  0
 11 10  1  0
  1 12  1  0
  2 13  1  0
  3 14  1  0
  8 15  1  0
  9 16  1  0
 17 18  2  0
 18 19  1  0
 18 20  1  0
 20 21  2  0
 21 22  1  0
 22 17  1  0
 20 23  1  0
 21 24  1  0
 10 17  1  0
M  ISO  6  12  14  13  14  14  14  15  14  16  14  19  15
M  END
>  <DihAtoms>  (1) 
8,9,16,17

>  <DihDeg>  (1) 
0.14081321201862024

$$$$
