
 OpenBabel03252508543D

 40 43  0  0  1  0  0  0  0  0999 V2000
   43.3860   34.4600   40.7780 C   0  0  0  0  0  0  0  0  0  0  0  0
   43.2980   35.7300   40.6440 O   0  0  0  0  0  0  0  0  0  0  0  0
   42.0550   34.0970   40.3330 N   0  0  0  0  0  0  0  0  0  0  0  0
   41.7280   34.4730   38.9780 C   0  0  0  0  0  0  0  0  0  0  0  0
   40.8750   35.7400   39.1210 C   0  0  0  0  0  0  0  0  0  0  0  0
   40.0240   35.5450   40.3840 C   0  0  0  0  0  0  0  0  0  0  0  0
   39.7280   34.0610   40.6220 C   0  0  0  0  0  0  0  0  0  0  0  0
   41.0060   33.3960   41.0920 C   0  0  1  0  0  0  0  0  0  0  0  0
   41.1080   33.7020   38.4770 H   0  0  0  0  0  0  0  0  0  0  0  0
   42.6030   34.7730   38.3830 H   0  0  0  0  0  0  0  0  0  0  0  0
   41.5810   36.5920   39.2920 H   0  0  0  0  0  0  0  0  0  0  0  0
   40.2330   35.9030   38.2290 H   0  0  0  0  0  0  0  0  0  0  0  0
   39.1230   36.1450   40.2780 H   0  0  0  0  0  0  0  0  0  0  0  0
   40.5830   35.9170   41.2730 H   0  0  0  0  0  0  0  0  0  0  0  0
   39.4280   33.6450   39.6480 H   0  0  0  0  0  0  0  0  0  0  0  0
   38.9140   34.0300   41.3680 H   0  0  0  0  0  0  0  0  0  0  0  0
   41.1610   33.7480   42.1370 H   0  0  0  0  0  0  0  0  0  0  0  0
   41.0740   32.0130   40.9810 C   0  0  0  0  0  0  0  0  0  0  0  0
   40.5690   31.0400   40.1460 C   0  0  0  0  0  0  0  0  0  0  0  0
   39.9480   31.4160   39.3540 H   0  0  0  0  0  0  0  0  0  0  0  0
   40.8260   29.7100   40.3010 C   0  0  0  0  0  3  0  0  0  0  0  0
   41.7240   29.3760   41.4800 C   0  0  0  0  0  3  0  0  0  0  0  0
   42.0390   31.1140   42.1690 S   0  0  0  0  0  0  0  0  0  0  0  0
   44.4520   33.7360   41.2160 O   0  0  0  0  0  0  0  0  0  0  0  0
   45.7840   34.0810   41.0920 C   0  0  0  0  0  0  0  0  0  0  0  0
   46.4140   34.6500   42.2120 C   0  0  0  0  0  0  0  0  0  0  0  0
   47.7660   34.9920   42.0590 C   0  0  0  0  0  0  0  0  0  0  0  0
   48.3780   34.7580   40.8570 N   0  0  0  0  0  0  0  0  0  0  0  0
   47.7270   34.2170   39.8360 C   0  0  0  0  0  0  0  0  0  0  0  0
   46.4270   33.8730   39.9400 N   0  0  0  0  0  0  0  0  0  0  0  0
   48.2660   35.4310   42.9090 H   0  0  0  0  0  0  0  0  0  0  0  0
   48.2330   34.0390   38.8900 H   0  0  0  0  0  0  0  0  0  0  0  0
   45.6740   34.8550   43.4370 C   0  0  0  0  0  0  0  0  0  0  0  0
   45.0500   36.0610   43.7450 C   0  0  0  0  0  0  0  0  0  0  0  0
   44.4730   35.8400   44.9660 C   0  0  0  0  0  0  0  0  0  0  0  0
   44.7270   34.5740   45.3860 N   0  0  0  0  0  0  0  0  0  0  0  0
   45.4520   34.0160   44.4360 N   0  0  0  0  0  0  0  0  0  0  0  0
   45.0070   36.9810   43.1770 H   0  0  0  0  0  0  0  0  0  0  0  0
   43.8850   36.5020   45.5890 H   0  0  0  0  0  0  0  0  0  0  0  0
   44.4650   34.0360   46.2470 H   0  0  0  0  0  0  0  0  0  0  0  0
  1 24  1  0  0  0  0
  2  1  2  0  0  0  0
  3  1  1  0  0  0  0
  3  8  1  0  0  0  0
  4  5  1  0  0  0  0
  4  3  1  0  0  0  0
  5 11  1  0  0  0  0
  5  6  1  0  0  0  0
  6  7  1  0  0  0  0
  6 14  1  0  0  0  0
  7  8  1  0  0  0  0
  7 16  1  0  0  0  0
  8 17  1  1  0  0  0
  9  4  1  0  0  0  0
 10  4  1  0  0  0  0
 12  5  1  0  0  0  0
 13  6  1  0  0  0  0
 15  7  1  0  0  0  0
 18  8  1  0  0  0  0
 18 23  1  0  0  0  0
 19 21  1  0  0  0  0
 19 18  2  0  0  0  0
 20 19  1  0  0  0  0
 21 22  2  0  0  0  0
 22 23  1  0  0  0  0
 25 24  1  0  0  0  0
 25 26  1  0  0  0  0
 26 33  1  0  0  0  0
 27 26  2  0  0  0  0
 27 31  1  0  0  0  0
 28 27  1  0  0  0  0
 29 30  1  0  0  0  0
 29 28  2  0  0  0  0
 30 25  2  0  0  0  0
 32 29  1  0  0  0  0
 33 34  1  0  0  0  0
 33 37  2  0  0  0  0
 34 35  2  0  0  0  0
 35 36  1  0  0  0  0
 35 39  1  0  0  0  0
 36 40  1  0  0  0  0
 37 36  1  0  0  0  0
 38 34  1  0  0  0  0
M  END
>  <minimizedAffinity>
-6.38162565

>  <minimizedRMSD>
0.220961511

$$$$
