
 OpenBabel03252505403D

 25 27  0  0  1  0  0  0  0  0999 V2000
   37.8640   31.3810   38.9490 C   0  0  1  0  0  0  0  0  0  0  0  0
   37.4460   32.8310   39.2340 C   0  0  0  0  0  0  0  0  0  0  0  0
   38.8120   32.3030   39.5760 C   0  0  2  0  0  0  0  0  0  0  0  0
   37.9730   31.1120   37.8780 H   0  0  0  0  0  0  0  0  0  0  0  0
   36.7020   33.0230   40.0260 H   0  0  0  0  0  0  0  0  0  0  0  0
   37.4050   33.4520   38.3290 H   0  0  0  0  0  0  0  0  0  0  0  0
   38.9590   32.1950   40.6720 H   0  0  0  0  0  0  0  0  0  0  0  0
   37.1240   30.3650   39.7390 C   0  0  0  0  0  0  0  0  0  0  0  0
   35.8700   29.9170   39.2480 C   0  0  0  0  0  0  0  0  0  0  0  0
   35.1830   28.9510   39.9890 C   0  0  0  0  0  0  0  0  0  0  0  0
   35.7640   28.5050   41.1320 N   0  0  0  0  0  0  0  0  0  0  0  0
   36.9580   28.9560   41.5650 C   0  0  0  0  0  0  0  0  0  0  0  0
   37.6240   29.8850   40.8590 N   0  0  0  0  0  0  0  0  0  0  0  0
   35.4240   30.2910   38.3260 H   0  0  0  0  0  0  0  0  0  0  0  0
   34.2210   28.5530   39.6900 H   0  0  0  0  0  0  0  0  0  0  0  0
   37.4070   28.3170   42.8420 C   0  0  0  0  0  0  0  0  0  0  0  0
   38.0120   29.2310   43.6790 F   0  0  0  0  0  0  0  0  0  0  0  0
   38.3250   27.3020   42.5660 F   0  0  0  0  0  0  0  0  0  0  0  0
   36.3150   27.7030   43.4440 F   0  0  0  0  0  0  0  0  0  0  0  0
   39.9860   32.7220   38.8500 C   0  0  0  0  0  0  0  0  0  0  0  0
   40.6360   32.2940   37.7430 C   0  0  0  0  0  0  0  0  0  0  0  0
   40.1980   31.4370   37.2600 H   0  0  0  0  0  0  0  0  0  0  0  0
   41.7590   32.9140   37.2870 C   0  0  0  0  0  3  0  0  0  0  0  0
   42.1970   34.0710   38.0920 C   0  0  0  0  0  3  0  0  0  0  0  0
   40.9170   34.1610   39.4640 S   0  0  0  0  0  0  0  0  0  0  0  0
  1  4  1  6  0  0  0
  1  2  1  0  0  0  0
  1  3  1  0  0  0  0
  1  8  1  0  0  0  0
  2  3  1  0  0  0  0
  2  5  1  0  0  0  0
  3  7  1  1  0  0  0
  6  2  1  0  0  0  0
  8 13  1  0  0  0  0
  9  8  2  0  0  0  0
  9 10  1  0  0  0  0
 10 11  2  0  0  0  0
 11 12  1  0  0  0  0
 12 16  1  0  0  0  0
 13 12  2  0  0  0  0
 14  9  1  0  0  0  0
 15 10  1  0  0  0  0
 16 19  1  0  0  0  0
 16 17  1  0  0  0  0
 18 16  1  0  0  0  0
 20 25  1  0  0  0  0
 20  3  1  0  0  0  0
 21 20  2  0  0  0  0
 22 21  1  0  0  0  0
 23 21  1  0  0  0  0
 23 24  2  0  0  0  0
 24 25  1  0  0  0  0
M  END
>  <minimizedAffinity>
-4.88885021

$$$$

 OpenBabel03252505403D

 25 27  0  0  1  0  0  0  0  0999 V2000
   38.9270   28.9770   42.3980 C   0  0  1  0  0  0  0  0  0  0  0  0
   37.7870   28.9180   43.4240 C   0  0  0  0  0  0  0  0  0  0  0  0
   37.8410   28.0100   42.2260 C   0  0  2  0  0  0  0  0  0  0  0  0
   39.9210   28.6400   42.7590 H   0  0  0  0  0  0  0  0  0  0  0  0
   37.0670   29.7530   43.4670 H   0  0  0  0  0  0  0  0  0  0  0  0
   38.0860   28.4490   44.3720 H   0  0  0  0  0  0  0  0  0  0  0  0
   37.0660   28.2630   41.4720 H   0  0  0  0  0  0  0  0  0  0  0  0
   38.9820   30.2370   41.6160 C   0  0  0  0  0  0  0  0  0  0  0  0
   39.9590   31.2040   41.9690 C   0  0  0  0  0  0  0  0  0  0  0  0
   40.0150   32.3840   41.2210 C   0  0  0  0  0  0  0  0  0  0  0  0
   39.1250   32.5260   40.2050 N   0  0  0  0  0  0  0  0  0  0  0  0
   38.2110   31.5840   39.9010 C   0  0  0  0  0  0  0  0  0  0  0  0
   38.1510   30.4470   40.6150 N   0  0  0  0  0  0  0  0  0  0  0  0
   40.6630   31.0660   42.7900 H   0  0  0  0  0  0  0  0  0  0  0  0
   40.7270   33.1740   41.4200 H   0  0  0  0  0  0  0  0  0  0  0  0
   37.3440   31.9510   38.7380 C   0  0  0  0  0  0  0  0  0  0  0  0
   36.3450   31.0210   38.5380 F   0  0  0  0  0  0  0  0  0  0  0  0
   38.1150   32.0210   37.5750 F   0  0  0  0  0  0  0  0  0  0  0  0
   36.8330   33.2270   38.9440 F   0  0  0  0  0  0  0  0  0  0  0  0
   38.1140   26.6000   42.3600 C   0  0  0  0  0  0  0  0  0  0  0  0
   37.4370   25.4590   42.0890 C   0  0  0  0  0  0  0  0  0  0  0  0
   36.4550   25.6010   41.6690 H   0  0  0  0  0  0  0  0  0  0  0  0
   37.9740   24.2330   42.3340 C   0  0  0  0  0  3  0  0  0  0  0  0
   39.3320   24.2560   42.9110 C   0  0  0  0  0  3  0  0  0  0  0  0
   39.7200   26.0890   43.0480 S   0  0  0  0  0  0  0  0  0  0  0  0
  1  4  1  1  0  0  0
  1  2  1  0  0  0  0
  2  5  1  0  0  0  0
  2  6  1  0  0  0  0
  3  7  1  6  0  0  0
  3 20  1  0  0  0  0
  3  1  1  0  0  0  0
  3  2  1  0  0  0  0
  8  9  1  0  0  0  0
  8  1  1  0  0  0  0
  9 14  1  0  0  0  0
 10 15  1  0  0  0  0
 10  9  2  0  0  0  0
 11 10  1  0  0  0  0
 12 11  2  0  0  0  0
 12 13  1  0  0  0  0
 13  8  2  0  0  0  0
 16 19  1  0  0  0  0
 16 12  1  0  0  0  0
 17 16  1  0  0  0  0
 18 16  1  0  0  0  0
 20 25  1  0  0  0  0
 21 23  1  0  0  0  0
 21 20  2  0  0  0  0
 22 21  1  0  0  0  0
 23 24  2  0  0  0  0
 24 25  1  0  0  0  0
M  END
>  <minimizedAffinity>
-4.83028269

$$$$

 OpenBabel03252505403D

 25 27  0  0  1  0  0  0  0  0999 V2000
   37.8990   25.5050   41.5970 C   0  0  1  0  0  0  0  0  0  0  0  0
   36.8740   24.5600   42.2380 C   0  0  0  0  0  0  0  0  0  0  0  0
   36.9800   24.7440   40.7490 C   0  0  2  0  0  0  0  0  0  0  0  0
   38.9620   25.1970   41.6840 H   0  0  0  0  0  0  0  0  0  0  0  0
   36.0300   24.9940   42.8010 H   0  0  0  0  0  0  0  0  0  0  0  0
   37.3240   23.6330   42.6210 H   0  0  0  0  0  0  0  0  0  0  0  0
   36.1140   25.3000   40.3310 H   0  0  0  0  0  0  0  0  0  0  0  0
   37.6770   26.9420   41.8960 C   0  0  0  0  0  0  0  0  0  0  0  0
   38.3180   27.4970   43.0350 C   0  0  0  0  0  0  0  0  0  0  0  0
   38.1160   28.8530   43.3050 C   0  0  0  0  0  0  0  0  0  0  0  0
   37.3170   29.5500   42.4570 N   0  0  0  0  0  0  0  0  0  0  0  0
   36.7250   28.9870   41.3860 C   0  0  0  0  0  0  0  0  0  0  0  0
   36.9140   27.6830   41.1200 N   0  0  0  0  0  0  0  0  0  0  0  0
   38.9560   26.9150   43.7000 H   0  0  0  0  0  0  0  0  0  0  0  0
   38.5650   29.3580   44.1510 H   0  0  0  0  0  0  0  0  0  0  0  0
   35.8990   29.9470   40.5900 C   0  0  0  0  0  0  0  0  0  0  0  0
   34.6470   29.4350   40.3190 F   0  0  0  0  0  0  0  0  0  0  0  0
   36.5300   30.2220   39.3740 F   0  0  0  0  0  0  0  0  0  0  0  0
   35.8300   31.1550   41.2750 F   0  0  0  0  0  0  0  0  0  0  0  0
   37.4950   23.7020   39.8940 C   0  0  0  0  0  0  0  0  0  0  0  0
   38.2680   22.6060   40.0720 C   0  0  0  0  0  0  0  0  0  0  0  0
   38.5950   22.4390   41.0850 H   0  0  0  0  0  0  0  0  0  0  0  0
   38.5970   21.7860   39.0370 C   0  0  0  0  0  3  0  0  0  0  0  0
   38.0470   22.1900   37.7280 C   0  0  0  0  0  3  0  0  0  0  0  0
   37.0820   23.7530   38.1220 S   0  0  0  0  0  0  0  0  0  0  0  0
  1  4  1  1  0  0  0
  1  8  1  0  0  0  0
  1  2  1  0  0  0  0
  2  6  1  0  0  0  0
  2  5  1  0  0  0  0
  3  7  1  6  0  0  0
  3  1  1  0  0  0  0
  3  2  1  0  0  0  0
  8  9  1  0  0  0  0
  9 10  2  0  0  0  0
  9 14  1  0  0  0  0
 10 15  1  0  0  0  0
 11 10  1  0  0  0  0
 12 11  2  0  0  0  0
 13 12  1  0  0  0  0
 13  8  2  0  0  0  0
 16 19  1  0  0  0  0
 16 12  1  0  0  0  0
 17 16  1  0  0  0  0
 18 16  1  0  0  0  0
 20 21  2  0  0  0  0
 20  3  1  0  0  0  0
 21 22  1  0  0  0  0
 23 21  1  0  0  0  0
 24 25  1  0  0  0  0
 24 23  2  0  0  0  0
 25 20  1  0  0  0  0
M  END
>  <minimizedAffinity>
-4.73093653

$$$$

 OpenBabel03252505403D

 25 27  0  0  1  0  0  0  0  0999 V2000
   37.2540   29.0470   40.5060 C   0  0  1  0  0  0  0  0  0  0  0  0
   35.8330   29.5700   40.7610 C   0  0  0  0  0  0  0  0  0  0  0  0
   37.0560   30.2680   41.2890 C   0  0  2  0  0  0  0  0  0  0  0  0
   37.6100   29.1090   39.4570 H   0  0  0  0  0  0  0  0  0  0  0  0
   35.1720   29.0030   41.4390 H   0  0  0  0  0  0  0  0  0  0  0  0
   35.3810   30.0380   39.8760 H   0  0  0  0  0  0  0  0  0  0  0  0
   37.1530   30.1730   42.3910 H   0  0  0  0  0  0  0  0  0  0  0  0
   37.5510   27.7450   41.1520 C   0  0  0  0  0  0  0  0  0  0  0  0
   38.3070   27.7490   42.3530 C   0  0  0  0  0  0  0  0  0  0  0  0
   38.5740   26.5210   42.9650 C   0  0  0  0  0  0  0  0  0  0  0  0
   38.0890   25.4030   42.3660 N   0  0  0  0  0  0  0  0  0  0  0  0
   37.3740   25.4400   41.2250 C   0  0  0  0  0  0  0  0  0  0  0  0
   37.1140   26.6170   40.6300 N   0  0  0  0  0  0  0  0  0  0  0  0
   38.6860   28.6610   42.8140 H   0  0  0  0  0  0  0  0  0  0  0  0
   39.1430   26.4310   43.8820 H   0  0  0  0  0  0  0  0  0  0  0  0
   36.9350   24.0890   40.7540 C   0  0  0  0  0  0  0  0  0  0  0  0
   36.9510   24.0030   39.3770 F   0  0  0  0  0  0  0  0  0  0  0  0
   35.6340   23.8330   41.1930 F   0  0  0  0  0  0  0  0  0  0  0  0
   37.7430   23.1240   41.3450 F   0  0  0  0  0  0  0  0  0  0  0  0
   37.4900   31.5360   40.7550 C   0  0  0  0  0  0  0  0  0  0  0  0
   36.9400   32.4870   39.9650 C   0  0  0  0  0  0  0  0  0  0  0  0
   35.9340   32.2810   39.6390 H   0  0  0  0  0  0  0  0  0  0  0  0
   37.6210   33.6130   39.6190 C   0  0  0  0  0  3  0  0  0  0  0  0
   38.9860   33.7050   40.1710 C   0  0  0  0  0  3  0  0  0  0  0  0
   39.1660   32.1200   41.1620 S   0  0  0  0  0  0  0  0  0  0  0  0
  1  4  1  6  0  0  0
  1  2  1  0  0  0  0
  1  8  1  0  0  0  0
  1  3  1  0  0  0  0
  2  3  1  0  0  0  0
  2  5  1  0  0  0  0
  3  7  1  1  0  0  0
  6  2  1  0  0  0  0
  8  9  1  0  0  0  0
  9 14  1  0  0  0  0
  9 10  2  0  0  0  0
 10 15  1  0  0  0  0
 11 10  1  0  0  0  0
 12 11  2  0  0  0  0
 13  8  2  0  0  0  0
 13 12  1  0  0  0  0
 16 18  1  0  0  0  0
 16 12  1  0  0  0  0
 16 19  1  0  0  0  0
 17 16  1  0  0  0  0
 20 25  1  0  0  0  0
 20  3  1  0  0  0  0
 21 20  2  0  0  0  0
 22 21  1  0  0  0  0
 23 21  1  0  0  0  0
 23 24  2  0  0  0  0
 24 25  1  0  0  0  0
M  END
>  <minimizedAffinity>
-4.70175409

$$$$

 OpenBabel03252505403D

 25 27  0  0  1  0  0  0  0  0999 V2000
   38.2000   27.8550   42.0720 C   0  0  1  0  0  0  0  0  0  0  0  0
   36.9450   27.6300   42.9270 C   0  0  0  0  0  0  0  0  0  0  0  0
   37.0270   27.2020   41.4880 C   0  0  2  0  0  0  0  0  0  0  0  0
   39.0900   27.2560   42.3530 H   0  0  0  0  0  0  0  0  0  0  0  0
   36.3390   28.5040   43.2220 H   0  0  0  0  0  0  0  0  0  0  0  0
   37.0630   26.8180   43.6580 H   0  0  0  0  0  0  0  0  0  0  0  0
   36.3890   27.8250   40.8270 H   0  0  0  0  0  0  0  0  0  0  0  0
   38.5110   29.2820   41.8070 C   0  0  0  0  0  0  0  0  0  0  0  0
   39.4960   29.9140   42.6100 C   0  0  0  0  0  0  0  0  0  0  0  0
   39.7950   31.2540   42.3480 C   0  0  0  0  0  0  0  0  0  0  0  0
   39.1190   31.8630   41.3400 N   0  0  0  0  0  0  0  0  0  0  0  0
   38.1900   31.2280   40.5990 C   0  0  0  0  0  0  0  0  0  0  0  0
   37.8970   29.9400   40.8450 N   0  0  0  0  0  0  0  0  0  0  0  0
   40.0250   29.4040   43.4150 H   0  0  0  0  0  0  0  0  0  0  0  0
   40.5310   31.8150   42.9110 H   0  0  0  0  0  0  0  0  0  0  0  0
   37.5840   32.0920   39.5380 C   0  0  0  0  0  0  0  0  0  0  0  0
   37.1430   33.2930   40.0540 F   0  0  0  0  0  0  0  0  0  0  0  0
   36.4930   31.4380   38.9600 F   0  0  0  0  0  0  0  0  0  0  0  0
   38.5140   32.2730   38.5210 F   0  0  0  0  0  0  0  0  0  0  0  0
   37.0970   25.8090   41.1180 C   0  0  0  0  0  0  0  0  0  0  0  0
   37.4350   24.6610   41.7500 C   0  0  0  0  0  0  0  0  0  0  0  0
   37.7270   24.7780   42.7810 H   0  0  0  0  0  0  0  0  0  0  0  0
   37.4030   23.4580   41.1160 C   0  0  0  0  0  3  0  0  0  0  0  0
   36.9750   23.5140   39.7040 C   0  0  0  0  0  3  0  0  0  0  0  0
   36.6500   25.3410   39.4170 S   0  0  0  0  0  0  0  0  0  0  0  0
  1  4  1  1  0  0  0
  1  2  1  0  0  0  0
  2  5  1  0  0  0  0
  2  6  1  0  0  0  0
  3  7  1  6  0  0  0
  3  1  1  0  0  0  0
  3  2  1  0  0  0  0
  8  1  1  0  0  0  0
  8  9  1  0  0  0  0
  9 14  1  0  0  0  0
 10  9  2  0  0  0  0
 10 15  1  0  0  0  0
 11 10  1  0  0  0  0
 12 13  1  0  0  0  0
 12 11  2  0  0  0  0
 13  8  2  0  0  0  0
 16 17  1  0  0  0  0
 16 12  1  0  0  0  0
 18 16  1  0  0  0  0
 19 16  1  0  0  0  0
 20  3  1  0  0  0  0
 20 21  2  0  0  0  0
 21 22  1  0  0  0  0
 23 21  1  0  0  0  0
 24 23  2  0  0  0  0
 25 24  1  0  0  0  0
 25 20  1  0  0  0  0
M  END
>  <minimizedAffinity>
-4.6870532

$$$$

 OpenBabel03252505403D

 25 27  0  0  1  0  0  0  0  0999 V2000
   35.6390   29.3770   39.9160 C   0  0  1  0  0  0  0  0  0  0  0  0
   36.4530   30.2640   38.9630 C   0  0  0  0  0  0  0  0  0  0  0  0
   35.7900   28.9920   38.5120 C   0  0  2  0  0  0  0  0  0  0  0  0
   34.6810   29.8060   40.2760 H   0  0  0  0  0  0  0  0  0  0  0  0
   37.5480   30.3150   39.0910 H   0  0  0  0  0  0  0  0  0  0  0  0
   35.9260   31.1850   38.6780 H   0  0  0  0  0  0  0  0  0  0  0  0
   36.5260   28.1890   38.2940 H   0  0  0  0  0  0  0  0  0  0  0  0
   36.4390   28.7390   40.9910 C   0  0  0  0  0  0  0  0  0  0  0  0
   36.9680   29.5670   42.0150 C   0  0  0  0  0  0  0  0  0  0  0  0
   37.7100   28.9610   43.0320 C   0  0  0  0  0  0  0  0  0  0  0  0
   37.8750   27.6140   42.9720 N   0  0  0  0  0  0  0  0  0  0  0  0
   37.3560   26.8610   41.9820 C   0  0  0  0  0  0  0  0  0  0  0  0
   36.6420   27.4370   41.0000 N   0  0  0  0  0  0  0  0  0  0  0  0
   36.8210   30.6470   42.0410 H   0  0  0  0  0  0  0  0  0  0  0  0
   38.1500   29.5150   43.8510 H   0  0  0  0  0  0  0  0  0  0  0  0
   37.6560   25.4020   42.1250 C   0  0  0  0  0  0  0  0  0  0  0  0
   38.0450   24.8450   40.9250 F   0  0  0  0  0  0  0  0  0  0  0  0
   36.5190   24.7260   42.5730 F   0  0  0  0  0  0  0  0  0  0  0  0
   38.6220   25.2380   43.1120 F   0  0  0  0  0  0  0  0  0  0  0  0
   34.6420   29.0080   37.6390 C   0  0  0  0  0  0  0  0  0  0  0  0
   33.3000   29.0440   37.8150 C   0  0  0  0  0  0  0  0  0  0  0  0
   32.9760   29.0690   38.8420 H   0  0  0  0  0  0  0  0  0  0  0  0
   32.4400   29.0480   36.7600 C   0  0  0  0  0  3  0  0  0  0  0  0
   33.0860   29.0110   35.4340 C   0  0  0  0  0  3  0  0  0  0  0  0
   34.9190   28.9730   35.8400 S   0  0  0  0  0  0  0  0  0  0  0  0
  1  4  1  1  0  0  0
  1  8  1  0  0  0  0
  2  5  1  0  0  0  0
  2  1  1  0  0  0  0
  3  7  1  6  0  0  0
  3  2  1  0  0  0  0
  3  1  1  0  0  0  0
  6  2  1  0  0  0  0
  8 13  2  0  0  0  0
  8  9  1  0  0  0  0
  9 14  1  0  0  0  0
  9 10  2  0  0  0  0
 10 15  1  0  0  0  0
 11 10  1  0  0  0  0
 12 16  1  0  0  0  0
 12 11  2  0  0  0  0
 13 12  1  0  0  0  0
 16 18  1  0  0  0  0
 16 19  1  0  0  0  0
 17 16  1  0  0  0  0
 20 21  2  0  0  0  0
 20  3  1  0  0  0  0
 21 22  1  0  0  0  0
 23 21  1  0  0  0  0
 24 25  1  0  0  0  0
 24 23  2  0  0  0  0
 25 20  1  0  0  0  0
M  END
>  <minimizedAffinity>
-4.66053629

$$$$

 OpenBabel03252505403D

 25 27  0  0  1  0  0  0  0  0999 V2000
   36.1640   29.8410   38.7180 C   0  0  1  0  0  0  0  0  0  0  0  0
   36.9590   29.3390   37.5040 C   0  0  0  0  0  0  0  0  0  0  0  0
   35.6480   28.7290   37.9180 C   0  0  2  0  0  0  0  0  0  0  0  0
   35.7190   30.8530   38.6190 H   0  0  0  0  0  0  0  0  0  0  0  0
   37.9090   28.8040   37.6750 H   0  0  0  0  0  0  0  0  0  0  0  0
   36.9000   30.0170   36.6410 H   0  0  0  0  0  0  0  0  0  0  0  0
   35.7740   27.7110   38.3430 H   0  0  0  0  0  0  0  0  0  0  0  0
   36.8360   29.6190   40.0220 C   0  0  0  0  0  0  0  0  0  0  0  0
   37.7670   30.5910   40.4720 C   0  0  0  0  0  0  0  0  0  0  0  0
   38.3870   30.3840   41.7070 C   0  0  0  0  0  0  0  0  0  0  0  0
   38.0560   29.2610   42.3960 N   0  0  0  0  0  0  0  0  0  0  0  0
   37.1670   28.3610   41.9340 C   0  0  0  0  0  0  0  0  0  0  0  0
   36.5660   28.5530   40.7480 N   0  0  0  0  0  0  0  0  0  0  0  0
   38.0160   31.4860   39.9000 H   0  0  0  0  0  0  0  0  0  0  0  0
   39.1090   31.0730   42.1270 H   0  0  0  0  0  0  0  0  0  0  0  0
   36.9510   27.2090   42.8650 C   0  0  0  0  0  0  0  0  0  0  0  0
   35.8550   27.4130   43.6780 F   0  0  0  0  0  0  0  0  0  0  0  0
   38.0740   27.0400   43.6790 F   0  0  0  0  0  0  0  0  0  0  0  0
   36.8330   26.0430   42.1160 F   0  0  0  0  0  0  0  0  0  0  0  0
   34.4510   28.9100   37.1340 C   0  0  0  0  0  0  0  0  0  0  0  0
   33.1330   29.0470   37.4070 C   0  0  0  0  0  0  0  0  0  0  0  0
   32.8800   29.0210   38.4540 H   0  0  0  0  0  0  0  0  0  0  0  0
   32.2090   29.2040   36.4210 C   0  0  0  0  0  3  0  0  0  0  0  0
   32.7610   29.2130   35.0520 C   0  0  0  0  0  3  0  0  0  0  0  0
   34.6060   28.9880   35.3210 S   0  0  0  0  0  0  0  0  0  0  0  0
  1  4  1  6  0  0  0
  1  8  1  0  0  0  0
  2  5  1  0  0  0  0
  2  3  1  0  0  0  0
  2  1  1  0  0  0  0
  3  7  1  1  0  0  0
  3  1  1  0  0  0  0
  6  2  1  0  0  0  0
  8  9  2  0  0  0  0
  8 13  1  0  0  0  0
  9 10  1  0  0  0  0
 10 15  1  0  0  0  0
 10 11  2  0  0  0  0
 12 11  1  0  0  0  0
 12 16  1  0  0  0  0
 13 12  2  0  0  0  0
 14  9  1  0  0  0  0
 16 17  1  0  0  0  0
 16 18  1  0  0  0  0
 19 16  1  0  0  0  0
 20 21  2  0  0  0  0
 20  3  1  0  0  0  0
 21 22  1  0  0  0  0
 23 21  1  0  0  0  0
 24 25  1  0  0  0  0
 24 23  2  0  0  0  0
 25 20  1  0  0  0  0
M  END
>  <minimizedAffinity>
-4.63683844

$$$$

 OpenBabel03252505403D

 25 27  0  0  1  0  0  0  0  0999 V2000
   37.6670   28.4310   40.8210 C   0  0  1  0  0  0  0  0  0  0  0  0
   36.4760   28.2580   41.7750 C   0  0  0  0  0  0  0  0  0  0  0  0
   36.7510   27.3020   40.6470 C   0  0  2  0  0  0  0  0  0  0  0  0
   38.6700   28.2700   41.2670 H   0  0  0  0  0  0  0  0  0  0  0  0
   35.6400   28.9750   41.7160 H   0  0  0  0  0  0  0  0  0  0  0  0
   36.7710   27.8950   42.7690 H   0  0  0  0  0  0  0  0  0  0  0  0
   36.0030   27.3910   39.8300 H   0  0  0  0  0  0  0  0  0  0  0  0
   37.5910   29.6380   39.9610 C   0  0  0  0  0  0  0  0  0  0  0  0
   37.0300   29.5040   38.6650 C   0  0  0  0  0  0  0  0  0  0  0  0
   36.9480   30.6460   37.8630 C   0  0  0  0  0  0  0  0  0  0  0  0
   37.4140   31.8120   38.3820 N   0  0  0  0  0  0  0  0  0  0  0  0
   37.9410   31.8980   39.6190 C   0  0  0  0  0  0  0  0  0  0  0  0
   38.0230   30.8040   40.3950 N   0  0  0  0  0  0  0  0  0  0  0  0
   36.6620   28.5560   38.2710 H   0  0  0  0  0  0  0  0  0  0  0  0
   36.5350   30.6360   36.8620 H   0  0  0  0  0  0  0  0  0  0  0  0
   38.3800   33.2820   39.9820 C   0  0  0  0  0  0  0  0  0  0  0  0
   39.5060   33.6570   39.2790 F   0  0  0  0  0  0  0  0  0  0  0  0
   38.6760   33.3430   41.3460 F   0  0  0  0  0  0  0  0  0  0  0  0
   37.3200   34.1580   39.7740 F   0  0  0  0  0  0  0  0  0  0  0  0
   37.2180   25.9600   40.8920 C   0  0  0  0  0  0  0  0  0  0  0  0
   37.2050   25.1150   41.9490 C   0  0  0  0  0  0  0  0  0  0  0  0
   36.7410   25.5060   42.8390 H   0  0  0  0  0  0  0  0  0  0  0  0
   37.7440   23.8670   41.8750 C   0  0  0  0  0  3  0  0  0  0  0  0
   38.3310   23.5230   40.5650 C   0  0  0  0  0  3  0  0  0  0  0  0
   38.0450   25.0680   39.5370 S   0  0  0  0  0  0  0  0  0  0  0  0
  1  4  1  1  0  0  0
  1  2  1  0  0  0  0
  2  6  1  0  0  0  0
  3  7  1  6  0  0  0
  3  1  1  0  0  0  0
  3 20  1  0  0  0  0
  3  2  1  0  0  0  0
  5  2  1  0  0  0  0
  8 13  1  0  0  0  0
  8  1  1  0  0  0  0
  9  8  2  0  0  0  0
 10 11  2  0  0  0  0
 10  9  1  0  0  0  0
 11 12  1  0  0  0  0
 12 16  1  0  0  0  0
 12 13  2  0  0  0  0
 14  9  1  0  0  0  0
 15 10  1  0  0  0  0
 16 18  1  0  0  0  0
 17 16  1  0  0  0  0
 19 16  1  0  0  0  0
 20 21  2  0  0  0  0
 21 22  1  0  0  0  0
 23 21  1  0  0  0  0
 24 23  2  0  0  0  0
 25 24  1  0  0  0  0
 25 20  1  0  0  0  0
M  END
>  <minimizedAffinity>
-4.60175228

$$$$

 OpenBabel03252505403D

 25 27  0  0  1  0  0  0  0  0999 V2000
   36.8330   28.9520   38.1400 C   0  0  1  0  0  0  0  0  0  0  0  0
   36.2740   30.1230   38.9610 C   0  0  0  0  0  0  0  0  0  0  0  0
   35.8710   28.6970   39.2140 C   0  0  2  0  0  0  0  0  0  0  0  0
   37.9090   28.7270   38.2900 H   0  0  0  0  0  0  0  0  0  0  0  0
   35.5780   30.8280   38.4750 H   0  0  0  0  0  0  0  0  0  0  0  0
   37.0000   30.5320   39.6770 H   0  0  0  0  0  0  0  0  0  0  0  0
   34.8240   28.4950   38.9050 H   0  0  0  0  0  0  0  0  0  0  0  0
   36.4260   28.9570   36.7130 C   0  0  0  0  0  0  0  0  0  0  0  0
   35.8080   27.7930   36.1870 C   0  0  0  0  0  0  0  0  0  0  0  0
   35.4150   27.8070   34.8460 C   0  0  0  0  0  0  0  0  0  0  0  0
   35.6530   28.9380   34.1340 N   0  0  0  0  0  0  0  0  0  0  0  0
   36.2440   30.0240   34.6690 C   0  0  0  0  0  0  0  0  0  0  0  0
   36.6250   30.0180   35.9580 N   0  0  0  0  0  0  0  0  0  0  0  0
   35.6260   26.8970   36.7800 H   0  0  0  0  0  0  0  0  0  0  0  0
   34.9360   26.9640   34.3630 H   0  0  0  0  0  0  0  0  0  0  0  0
   36.3960   31.1560   33.7010 C   0  0  0  0  0  0  0  0  0  0  0  0
   37.1230   32.1940   34.2470 F   0  0  0  0  0  0  0  0  0  0  0  0
   35.1380   31.6450   33.3420 F   0  0  0  0  0  0  0  0  0  0  0  0
   36.9750   30.6730   32.5330 F   0  0  0  0  0  0  0  0  0  0  0  0
   36.2950   27.9920   40.3990 C   0  0  0  0  0  0  0  0  0  0  0  0
   36.3410   28.2740   41.7220 C   0  0  0  0  0  0  0  0  0  0  0  0
   35.9800   29.2530   41.9910 H   0  0  0  0  0  0  0  0  0  0  0  0
   36.8120   27.3760   42.6290 C   0  0  0  0  0  3  0  0  0  0  0  0
   37.2580   26.0920   42.0560 C   0  0  0  0  0  3  0  0  0  0  0  0
   36.9510   26.3030   40.2150 S   0  0  0  0  0  0  0  0  0  0  0  0
  1  4  1  1  0  0  0
  1  2  1  0  0  0  0
  1  3  1  0  0  0  0
  2  3  1  0  0  0  0
  2  6  1  0  0  0  0
  3  7  1  6  0  0  0
  3 20  1  0  0  0  0
  5  2  1  0  0  0  0
  8  1  1  0  0  0  0
  9  8  1  0  0  0  0
  9 14  1  0  0  0  0
 10  9  2  0  0  0  0
 11 12  2  0  0  0  0
 11 10  1  0  0  0  0
 12 13  1  0  0  0  0
 13  8  2  0  0  0  0
 15 10  1  0  0  0  0
 16 17  1  0  0  0  0
 16 12  1  0  0  0  0
 18 16  1  0  0  0  0
 19 16  1  0  0  0  0
 20 21  2  0  0  0  0
 21 22  1  0  0  0  0
 21 23  1  0  0  0  0
 24 23  2  0  0  0  0
 25 20  1  0  0  0  0
 25 24  1  0  0  0  0
M  END
>  <minimizedAffinity>
-4.568542

$$$$
