
     RDKit          3D

 38 41  0  0  0  0  0  0  0  0999 V2000
   47.1537   31.2813   46.7172 C   0  0  0  0  0  0  0  0  0  0  0  0
   46.7723   31.7693   48.0945 C   0  0  1  0  0  0  0  0  0  0  0  0
   46.1791   30.7604   49.0115 C   0  0  0  0  0  0  0  0  0  0  0  0
   47.5147   31.2613   49.2735 C   0  0  1  0  0  0  0  0  0  0  0  0
   48.7765   30.5216   49.0324 C   0  0  0  0  0  0  0  0  0  0  0  0
   49.6040   30.2046   50.3006 C   0  0  0  0  0  0  0  0  0  0  0  0
   50.0639   31.2812   49.3999 C   0  0  0  0  0  0  0  0  0  0  0  0
   45.9369   33.1537   45.9186 C   0  0  0  0  0  0  0  0  0  0  0  0
   46.9275   32.3824   45.6967 C   0  0  0  0  0  0  0  0  0  0  0  0
   44.5158   36.1640   44.3546 C   0  0  0  0  0  0  0  0  0  0  0  0
   45.1080   36.1884   43.1010 C   0  0  0  0  0  0  0  0  0  0  0  0
   45.9865   35.1840   42.8332 C   0  0  0  0  0  0  0  0  0  0  0  0
   46.2431   34.2295   43.7650 N   0  0  0  0  0  0  0  0  0  0  0  0
   45.6569   34.2246   44.9722 C   0  0  0  0  0  0  0  0  0  0  0  0
   44.7991   35.2077   45.2331 N   0  0  0  0  0  0  0  0  0  0  0  0
   46.4614   30.4560   46.4228 H   0  0  0  0  0  0  0  0  0  0  0  0
   48.2192   30.9903   46.6819 H   0  0  0  0  0  0  0  0  0  0  0  0
   46.4506   32.8219   48.1770 H   0  0  0  0  0  0  0  0  0  0  0  0
   46.0970   29.7111   48.6364 H   0  0  0  0  0  0  0  0  0  0  0  0
   45.3158   31.0375   49.6630 H   0  0  0  0  0  0  0  0  0  0  0  0
   47.5840   31.9389   50.1806 H   0  0  0  0  0  0  0  0  0  0  0  0
   48.8549   29.7862   48.2077 H   0  0  0  0  0  0  0  0  0  0  0  0
   50.1580   29.2446   50.3035 H   0  0  0  0  0  0  0  0  0  0  0  0
   49.1112   30.4032   51.2711 H   0  0  0  0  0  0  0  0  0  0  0  0
   49.9400   32.3143   49.8099 H   0  0  0  0  0  0  0  0  0  0  0  0
   50.9277   31.0772   48.7475 H   0  0  0  0  0  0  0  0  0  0  0  0
   45.2138   33.1361   46.7510 H   0  0  0  0  0  0  0  0  0  0  0  0
   47.5830   32.4763   44.8504 H   0  0  0  0  0  0  0  0  0  0  0  0
   43.8215   36.9718   44.5471 H   0  0  0  0  0  0  0  0  0  0  0  0
   44.9844   36.8769   42.3015 H   0  0  0  0  0  0  0  0  0  0  0  0
   46.7402   34.9985   41.5705 C   0  0  0  0  0  0  0  0  0  0  0  0
   47.8519   35.7534   41.1675 C   0  0  0  0  0  0  0  0  0  0  0  0
   48.2274   36.5460   41.7945 H   0  0  0  0  0  0  0  0  0  0  0  0
   48.4125   35.4336   39.9702 C   0  0  0  0  0  0  0  0  0  0  0  0
   47.9279   34.4127   39.1642 C   0  0  0  0  0  0  0  0  0  0  0  0
   46.4652   33.8172   40.2587 S   0  0  0  0  0  0  0  0  0  0  0  0
   49.2702   35.9327   39.5413 H   0  0  0  0  0  0  0  0  0  0  0  0
   48.1379   33.9931   38.2902 H   0  0  0  0  0  0  0  0  0  0  0  0
  1  2  1  0
  2  3  1  0
  2  4  1  0
  3  4  1  0
  5  4  1  0
  5  7  1  0
  5  6  1  0
  7  6  1  0
  9  8  2  0
  9  1  1  0
 10 15  2  0
 11 10  1  0
 12 11  2  0
 12 13  1  0
 13 14  2  0
 14 15  1  0
 14  8  1  0
  1 16  1  0
  1 17  1  0
  2 18  1  6
  3 19  1  0
  3 20  1  0
  4 21  1  1
  5 22  1  0
  6 23  1  0
  6 24  1  0
  7 25  1  0
  7 26  1  0
  8 27  1  0
  9 28  1  0
 10 29  1  0
 11 30  1  0
 31 32  2  0
 32 33  1  0
 32 34  1  0
 34 35  2  0
 35 36  1  0
 36 31  1  0
 34 37  1  0
 35 38  1  0
 12 31  1  0
M  ISO  8  16   8  17   8  18  13  19  13  20  13  21  13  22  13  23  13
M  ISO  6  24  13  25  13  26  13  29  14  30  14  33  15
M  END
>  <DihAtoms>  (1) 
10,11,30,31

>  <DihDeg>  (1) 
2.7740507303740417e-05

$$$$
