
 OpenBabel03252508073D

 41 44  0  0  0  0  0  0  0  0999 V2000
   45.1360   35.5480   43.2220 C   0  0  0  0  0  0  0  0  0  0  0  0
   45.5200   34.2180   43.2840 C   0  0  0  0  0  0  0  0  0  0  0  0
   45.4560   33.5370   44.4750 C   0  0  0  0  0  0  0  0  0  0  0  0
   44.9970   34.2350   45.5730 N   0  0  0  0  0  0  0  0  0  0  0  0
   44.6280   35.5130   45.5130 C   0  0  0  0  0  0  0  0  0  0  0  0
   44.7020   36.1610   44.3320 N   0  0  0  0  0  0  0  0  0  0  0  0
   45.1870   36.0940   42.2720 H   0  0  0  0  0  0  0  0  0  0  0  0
   44.2780   36.0120   46.4030 H   0  0  0  0  0  0  0  0  0  0  0  0
   45.8100   32.1870   44.6970 C   0  0  0  0  0  0  0  0  0  0  0  0
   45.4830   31.1370   43.8360 C   0  0  0  0  0  0  0  0  0  0  0  0
   45.7680   29.8200   44.0830 C   0  0  0  0  0  0  0  0  0  0  0  0
   46.4150   29.4690   45.2420 C   0  0  0  0  0  0  0  0  0  0  0  0
   46.7620   30.5270   46.1390 C   0  0  0  0  0  0  0  0  0  0  0  0
   47.4070   30.1790   47.2970 C   0  0  0  0  0  0  0  0  0  0  0  0
   47.7710   31.1530   48.2030 C   0  0  0  0  0  0  0  0  0  0  0  0
   47.4760   32.4960   47.9290 C   0  0  0  0  0  0  0  0  0  0  0  0
   46.8130   32.7980   46.7270 C   0  0  0  0  0  0  0  0  0  0  0  0
   46.4570   31.8160   45.8440 C   0  0  0  0  0  0  0  0  0  0  0  0
   44.9720   31.3640   42.9110 H   0  0  0  0  0  0  0  0  0  0  0  0
   45.4790   29.0570   43.3580 H   0  0  0  0  0  0  0  0  0  0  0  0
   46.6430   28.4510   45.4500 H   0  0  0  0  0  0  0  0  0  0  0  0
   47.6270   29.1350   47.4890 H   0  0  0  0  0  0  0  0  0  0  0  0
   48.2780   30.8140   49.1020 H   0  0  0  0  0  0  0  0  0  0  0  0
   47.8010   33.1730   48.6920 H   0  0  0  0  0  0  0  0  0  0  0  0
   46.7000   33.8600   46.6900 H   0  0  0  0  0  0  0  0  0  0  0  0
   45.9510   33.6420   42.1200 O   0  0  0  0  0  0  0  0  0  0  0  0
   48.1530   32.3990   41.4420 O   0  0  0  0  0  0  0  0  0  0  0  0
   47.5330   33.7500   41.5270 P   0  0  1  0  0  0  0  0  0  0  0  0
   47.5420   34.3950   39.9610 O   0  0  0  0  0  0  0  0  0  0  0  0
   47.4180   33.5580   38.8160 C   0  0  0  0  0  0  0  0  0  0  0  0
   46.8280   32.3780   38.2590 C   0  0  0  0  0  0  0  0  0  0  0  0
   46.2380   31.9670   39.0510 H   0  0  0  0  0  0  0  0  0  0  0  0
   47.1850   32.1570   36.9590 C   0  0  0  0  0  3  0  0  0  0  0  0
   48.0110   32.9620   36.2560 C   0  0  0  0  0  3  0  0  0  0  0  0
   48.4560   34.2660   37.3980 S   0  0  0  0  0  0  0  0  0  0  0  0
   48.4100   34.7600   42.5350 O   0  0  0  0  0  0  0  0  0  0  0  0
   49.6260   35.3620   42.2530 C   0  0  0  0  0  0  0  0  0  0  0  0
   49.3260   36.4200   41.6670 O   0  0  0  0  0  0  0  0  0  0  0  0
   50.7190   34.5570   42.7320 N   0  0  0  0  0  0  0  0  0  0  0  0
   51.4440   34.0110   42.2090 H   0  0  0  0  0  0  0  0  0  0  0  0
   50.8270   34.4900   43.7680 H   0  0  0  0  0  0  0  0  0  0  0  0
  1  2  2  0  0  0  0
  1  6  1  0  0  0  0
  2  3  1  0  0  0  0
  3  9  1  0  0  0  0
  3  4  2  0  0  0  0
  5  4  1  0  0  0  0
  5  8  1  0  0  0  0
  6  5  2  0  0  0  0
  7  1  1  0  0  0  0
  9 18  1  0  0  0  0
 10 11  1  0  0  0  0
 10  9  2  0  0  0  0
 11 12  2  0  0  0  0
 12 21  1  0  0  0  0
 12 13  1  0  0  0  0
 13 14  1  0  0  0  0
 14 22  1  0  0  0  0
 14 15  2  0  0  0  0
 15 23  1  0  0  0  0
 16 15  1  0  0  0  0
 16 24  1  0  0  0  0
 17 16  2  0  0  0  0
 18 13  2  0  0  0  0
 18 17  1  0  0  0  0
 19 10  1  0  0  0  0
 20 11  1  0  0  0  0
 25 17  1  0  0  0  0
 26  2  1  0  0  0  0
 28 27  2  6  0  0  0
 28 26  1  0  0  0  0
 28 36  1  0  0  0  0
 29 28  1  0  0  0  0
 30 29  1  0  0  0  0
 31 30  2  0  0  0  0
 31 32  1  0  0  0  0
 33 31  1  0  0  0  0
 34 33  2  0  0  0  0
 34 35  1  0  0  0  0
 35 30  1  0  0  0  0
 37 36  1  0  0  0  0
 37 39  1  0  0  0  0
 38 37  2  0  0  0  0
 39 41  1  0  0  0  0
 40 39  1  0  0  0  0
M  END
>  <minimizedAffinity>
-6.30402756

>  <minimizedRMSD>
1.4243331

$$$$
