
 OpenBabel03242519303D

 40 43  0  0  0  0  0  0  0  0999 V2000
   37.0840   28.7360   41.7190 C   0  0  0  0  0  0  0  0  0  0  0  0
   35.8520   28.6720   41.0280 C   0  0  0  0  0  0  0  0  0  0  0  0
   35.4530   29.7530   40.2350 C   0  0  0  0  0  0  0  0  0  0  0  0
   36.3130   30.8250   40.1860 N   0  0  0  0  0  0  0  0  0  0  0  0
   37.5070   30.8400   40.8800 C   0  0  0  0  0  0  0  0  0  0  0  0
   37.8590   29.8110   41.6180 N   0  0  0  0  0  0  0  0  0  0  0  0
   35.1250   27.8890   41.0050 H   0  0  0  0  0  0  0  0  0  0  0  0
   34.5370   29.7930   39.6770 H   0  0  0  0  0  0  0  0  0  0  0  0
   37.3960   27.5430   42.5260 C   0  0  0  0  0  0  0  0  0  0  0  0
   38.2900   27.7700   43.6450 C   0  0  0  0  0  0  0  0  0  0  0  0
   39.6210   27.1470   43.5170 C   0  0  0  0  0  0  0  0  0  0  0  0
   39.4920   25.6380   43.2680 C   0  0  0  0  0  0  0  0  0  0  0  0
   38.4210   25.2730   42.3080 C   0  0  0  0  0  0  0  0  0  0  0  0
   37.9390   26.4860   41.5260 C   0  0  0  0  0  0  0  0  0  0  0  0
   36.4060   27.0940   42.8360 H   0  0  0  0  0  0  0  0  0  0  0  0
   37.8300   27.3730   44.5770 H   0  0  0  0  0  0  0  0  0  0  0  0
   38.4550   28.8590   43.8790 H   0  0  0  0  0  0  0  0  0  0  0  0
   40.2190   27.2600   44.4370 H   0  0  0  0  0  0  0  0  0  0  0  0
   40.2420   27.5050   42.6740 H   0  0  0  0  0  0  0  0  0  0  0  0
   39.2410   25.1920   44.2540 H   0  0  0  0  0  0  0  0  0  0  0  0
   40.4910   25.2190   43.0010 H   0  0  0  0  0  0  0  0  0  0  0  0
   38.8470   24.5830   41.5470 H   0  0  0  0  0  0  0  0  0  0  0  0
   37.5580   24.7520   42.7450 H   0  0  0  0  0  0  0  0  0  0  0  0
   37.1260   26.1310   40.8690 H   0  0  0  0  0  0  0  0  0  0  0  0
   38.7390   26.9290   40.9230 H   0  0  0  0  0  0  0  0  0  0  0  0
   38.2690   32.0630   40.7000 C   0  0  0  0  0  0  0  0  0  0  0  0
   37.6470   33.1450   40.1880 N   0  0  0  0  0  0  0  0  0  0  0  0
   38.5320   34.1640   40.1090 C   0  0  0  0  0  0  0  0  0  0  0  0
   39.7210   33.6930   40.5850 N   0  0  0  0  0  0  0  0  0  0  0  0
   39.5620   32.4130   40.9460 N   0  0  0  0  0  0  0  0  0  0  0  0
   38.3540   35.1770   39.7400 H   0  0  0  0  0  0  0  0  0  0  0  0
   40.9740   34.4340   40.6950 C   0  0  0  0  0  0  0  0  0  0  0  0
   40.7870   35.5320   40.7370 H   0  0  0  0  0  0  0  0  0  0  0  0
   41.5220   34.0960   41.6180 H   0  0  0  0  0  0  0  0  0  0  0  0
   41.8170   34.1040   39.5650 C   0  0  0  0  0  0  0  0  0  0  0  0
   41.8300   34.5070   38.2660 C   0  0  0  0  0  0  0  0  0  0  0  0
   41.0700   35.2210   37.9810 H   0  0  0  0  0  0  0  0  0  0  0  0
   42.7670   34.0180   37.3920 C   0  0  0  0  0  3  0  0  0  0  0  0
   43.6890   33.0950   37.9180 C   0  0  0  0  0  3  0  0  0  0  0  0
   43.1400   32.9710   39.7180 S   0  0  0  0  0  0  0  0  0  0  0  0
  1  9  1  0  0  0  0
  2  1  2  0  0  0  0
  3  2  1  0  0  0  0
  4  3  2  0  0  0  0
  4  5  1  0  0  0  0
  5  6  2  0  0  0  0
  6  1  1  0  0  0  0
  7  2  1  0  0  0  0
  8  3  1  0  0  0  0
  9 15  1  0  0  0  0
  9 10  1  0  0  0  0
 10 17  1  0  0  0  0
 10 16  1  0  0  0  0
 11 10  1  0  0  0  0
 11 18  1  0  0  0  0
 12 11  1  0  0  0  0
 12 20  1  0  0  0  0
 13 23  1  0  0  0  0
 13 12  1  0  0  0  0
 14 13  1  0  0  0  0
 14  9  1  0  0  0  0
 19 11  1  0  0  0  0
 21 12  1  0  0  0  0
 22 13  1  0  0  0  0
 24 14  1  0  0  0  0
 25 14  1  0  0  0  0
 26  5  1  0  0  0  0
 26 30  2  0  0  0  0
 27 26  1  0  0  0  0
 28 27  2  0  0  0  0
 28 29  1  0  0  0  0
 29 32  1  0  0  0  0
 29 30  1  0  0  0  0
 31 28  1  0  0  0  0
 32 33  1  0  0  0  0
 32 34  1  0  0  0  0
 35 40  1  0  0  0  0
 35 32  1  0  0  0  0
 36 35  2  0  0  0  0
 37 36  1  0  0  0  0
 38 39  2  0  0  0  0
 38 36  1  0  0  0  0
 39 40  1  0  0  0  0
M  END
>  <minimizedAffinity>
-5.92066145

$$$$

 OpenBabel03242519303D

 40 43  0  0  0  0  0  0  0  0999 V2000
   36.7240   28.2260   41.6240 C   0  0  0  0  0  0  0  0  0  0  0  0
   37.0600   29.5270   42.0650 C   0  0  0  0  0  0  0  0  0  0  0  0
   36.6490   30.6340   41.3130 C   0  0  0  0  0  0  0  0  0  0  0  0
   35.9320   30.3640   40.1720 N   0  0  0  0  0  0  0  0  0  0  0  0
   35.6280   29.0740   39.7820 C   0  0  0  0  0  0  0  0  0  0  0  0
   36.0250   28.0520   40.5070 N   0  0  0  0  0  0  0  0  0  0  0  0
   37.6080   29.8310   42.9300 H   0  0  0  0  0  0  0  0  0  0  0  0
   36.8590   31.6550   41.5700 H   0  0  0  0  0  0  0  0  0  0  0  0
   37.2140   27.1400   42.4910 C   0  0  0  0  0  0  0  0  0  0  0  0
   38.0520   27.5630   43.5970 C   0  0  0  0  0  0  0  0  0  0  0  0
   39.4660   27.1530   43.5020 C   0  0  0  0  0  0  0  0  0  0  0  0
   39.5800   25.6320   43.3300 C   0  0  0  0  0  0  0  0  0  0  0  0
   38.5880   25.0530   42.3910 C   0  0  0  0  0  0  0  0  0  0  0  0
   37.9260   26.1330   41.5480 C   0  0  0  0  0  0  0  0  0  0  0  0
   36.3060   26.5560   42.8250 H   0  0  0  0  0  0  0  0  0  0  0  0
   37.6530   27.1460   44.5490 H   0  0  0  0  0  0  0  0  0  0  0  0
   38.0400   28.6750   43.7740 H   0  0  0  0  0  0  0  0  0  0  0  0
   40.0300   27.4070   44.4140 H   0  0  0  0  0  0  0  0  0  0  0  0
   40.0280   27.5610   42.6410 H   0  0  0  0  0  0  0  0  0  0  0  0
   39.3940   25.2030   44.3380 H   0  0  0  0  0  0  0  0  0  0  0  0
   40.6340   25.3640   43.0860 H   0  0  0  0  0  0  0  0  0  0  0  0
   39.1230   24.4020   41.6670 H   0  0  0  0  0  0  0  0  0  0  0  0
   37.8150   24.4250   42.8540 H   0  0  0  0  0  0  0  0  0  0  0  0
   37.1850   25.6200   40.9090 H   0  0  0  0  0  0  0  0  0  0  0  0
   38.6500   26.6660   40.9220 H   0  0  0  0  0  0  0  0  0  0  0  0
   34.8670   29.0020   38.5490 C   0  0  0  0  0  0  0  0  0  0  0  0
   35.5170   29.1500   37.3760 N   0  0  0  0  0  0  0  0  0  0  0  0
   34.6270   29.0470   36.3630 C   0  0  0  0  0  0  0  0  0  0  0  0
   33.4060   28.8310   36.9320 N   0  0  0  0  0  0  0  0  0  0  0  0
   33.5500   28.8030   38.2630 N   0  0  0  0  0  0  0  0  0  0  0  0
   34.8230   29.1190   35.2910 H   0  0  0  0  0  0  0  0  0  0  0  0
   32.1350   28.6550   36.2340 C   0  0  0  0  0  0  0  0  0  0  0  0
   32.2760   28.0930   35.2810 H   0  0  0  0  0  0  0  0  0  0  0  0
   31.4180   28.1090   36.9070 H   0  0  0  0  0  0  0  0  0  0  0  0
   31.5560   29.9570   35.9760 C   0  0  0  0  0  0  0  0  0  0  0  0
   30.8610   30.8350   36.7480 C   0  0  0  0  0  0  0  0  0  0  0  0
   30.6840   30.5330   37.7710 H   0  0  0  0  0  0  0  0  0  0  0  0
   30.4240   32.0260   36.2310 C   0  0  0  0  0  3  0  0  0  0  0  0
   30.7350   32.2720   34.8810 C   0  0  0  0  0  3  0  0  0  0  0  0
   31.6820   30.7130   34.4040 S   0  0  0  0  0  0  0  0  0  0  0  0
  1  2  1  0  0  0  0
  1  9  1  0  0  0  0
  2  7  1  0  0  0  0
  3  8  1  0  0  0  0
  3  2  2  0  0  0  0
  4  3  1  0  0  0  0
  5  4  2  0  0  0  0
  5  6  1  0  0  0  0
  6  1  2  0  0  0  0
  9 15  1  0  0  0  0
  9 10  1  0  0  0  0
 10 17  1  0  0  0  0
 10 16  1  0  0  0  0
 11 10  1  0  0  0  0
 11 18  1  0  0  0  0
 12 11  1  0  0  0  0
 12 20  1  0  0  0  0
 13 23  1  0  0  0  0
 13 12  1  0  0  0  0
 14 13  1  0  0  0  0
 14  9  1  0  0  0  0
 19 11  1  0  0  0  0
 21 12  1  0  0  0  0
 22 13  1  0  0  0  0
 24 14  1  0  0  0  0
 25 14  1  0  0  0  0
 26  5  1  0  0  0  0
 27 26  1  0  0  0  0
 28 29  1  0  0  0  0
 28 27  2  0  0  0  0
 29 30  1  0  0  0  0
 30 26  2  0  0  0  0
 31 28  1  0  0  0  0
 32 34  1  0  0  0  0
 32 29  1  0  0  0  0
 33 32  1  0  0  0  0
 35 32  1  0  0  0  0
 35 36  2  0  0  0  0
 36 37  1  0  0  0  0
 38 36  1  0  0  0  0
 39 38  2  0  0  0  0
 40 39  1  0  0  0  0
 40 35  1  0  0  0  0
M  END
>  <minimizedAffinity>
-5.78780794

$$$$

 OpenBabel03242519303D

 40 43  0  0  0  0  0  0  0  0999 V2000
   37.2810   27.0220   41.8320 C   0  0  0  0  0  0  0  0  0  0  0  0
   36.9570   26.9360   43.2060 C   0  0  0  0  0  0  0  0  0  0  0  0
   37.2350   28.0200   44.0470 C   0  0  0  0  0  0  0  0  0  0  0  0
   37.8180   29.1160   43.4560 N   0  0  0  0  0  0  0  0  0  0  0  0
   38.1160   29.1530   42.1070 C   0  0  0  0  0  0  0  0  0  0  0  0
   37.8440   28.1210   41.3400 N   0  0  0  0  0  0  0  0  0  0  0  0
   36.5070   26.1330   43.7490 H   0  0  0  0  0  0  0  0  0  0  0  0
   37.0250   28.0430   45.0990 H   0  0  0  0  0  0  0  0  0  0  0  0
   36.9480   25.8200   41.0490 C   0  0  0  0  0  0  0  0  0  0  0  0
   36.9550   24.5750   41.7930 C   0  0  0  0  0  0  0  0  0  0  0  0
   38.0340   23.6360   41.4300 C   0  0  0  0  0  0  0  0  0  0  0  0
   38.0020   23.3290   39.9270 C   0  0  0  0  0  0  0  0  0  0  0  0
   37.7500   24.5150   39.0720 C   0  0  0  0  0  0  0  0  0  0  0  0
   37.9360   25.8090   39.8490 C   0  0  0  0  0  0  0  0  0  0  0  0
   35.9590   26.0260   40.5430 H   0  0  0  0  0  0  0  0  0  0  0  0
   35.9900   24.0420   41.6390 H   0  0  0  0  0  0  0  0  0  0  0  0
   37.0000   24.7160   42.9090 H   0  0  0  0  0  0  0  0  0  0  0  0
   37.9280   22.6680   41.9480 H   0  0  0  0  0  0  0  0  0  0  0  0
   39.0650   23.9950   41.6080 H   0  0  0  0  0  0  0  0  0  0  0  0
   37.1630   22.6150   39.7850 H   0  0  0  0  0  0  0  0  0  0  0  0
   38.9210   22.7630   39.6440 H   0  0  0  0  0  0  0  0  0  0  0  0
   38.5180   24.5430   38.2680 H   0  0  0  0  0  0  0  0  0  0  0  0
   36.7760   24.5290   38.5650 H   0  0  0  0  0  0  0  0  0  0  0  0
   37.6950   26.6310   39.1510 H   0  0  0  0  0  0  0  0  0  0  0  0
   38.9610   25.9230   40.2180 H   0  0  0  0  0  0  0  0  0  0  0  0
   38.7300   30.3970   41.6810 C   0  0  0  0  0  0  0  0  0  0  0  0
   39.9780   30.6820   42.1050 N   0  0  0  0  0  0  0  0  0  0  0  0
   40.3550   31.8760   41.5920 C   0  0  0  0  0  0  0  0  0  0  0  0
   39.3120   32.3280   40.8370 N   0  0  0  0  0  0  0  0  0  0  0  0
   38.3210   31.4280   40.8890 N   0  0  0  0  0  0  0  0  0  0  0  0
   41.3030   32.3970   41.7390 H   0  0  0  0  0  0  0  0  0  0  0  0
   39.2540   33.5780   40.0850 C   0  0  0  0  0  0  0  0  0  0  0  0
   38.3070   33.6510   39.5010 H   0  0  0  0  0  0  0  0  0  0  0  0
   39.3370   34.4420   40.8010 H   0  0  0  0  0  0  0  0  0  0  0  0
   40.4020   33.6520   39.2060 C   0  0  0  0  0  0  0  0  0  0  0  0
   41.4520   34.5120   39.1180 C   0  0  0  0  0  0  0  0  0  0  0  0
   41.4660   35.3210   39.8350 H   0  0  0  0  0  0  0  0  0  0  0  0
   42.4210   34.3370   38.1640 C   0  0  0  0  0  3  0  0  0  0  0  0
   42.2580   33.2350   37.3060 C   0  0  0  0  0  3  0  0  0  0  0  0
   40.6550   32.4730   37.9400 S   0  0  0  0  0  0  0  0  0  0  0  0
  1  2  1  0  0  0  0
  2  7  1  0  0  0  0
  2  3  2  0  0  0  0
  3  8  1  0  0  0  0
  4  3  1  0  0  0  0
  5  4  2  0  0  0  0
  6  1  2  0  0  0  0
  6  5  1  0  0  0  0
  9 10  1  0  0  0  0
  9  1  1  0  0  0  0
 10 17  1  0  0  0  0
 11 19  1  0  0  0  0
 11 10  1  0  0  0  0
 11 18  1  0  0  0  0
 12 11  1  0  0  0  0
 13 14  1  0  0  0  0
 13 12  1  0  0  0  0
 14 25  1  0  0  0  0
 14  9  1  0  0  0  0
 15  9  1  0  0  0  0
 16 10  1  0  0  0  0
 20 12  1  0  0  0  0
 21 12  1  0  0  0  0
 22 13  1  0  0  0  0
 23 13  1  0  0  0  0
 24 14  1  0  0  0  0
 26 27  1  0  0  0  0
 26  5  1  0  0  0  0
 28 31  1  0  0  0  0
 28 27  2  0  0  0  0
 29 30  1  0  0  0  0
 29 28  1  0  0  0  0
 30 26  2  0  0  0  0
 32 34  1  0  0  0  0
 32 29  1  0  0  0  0
 33 32  1  0  0  0  0
 35 32  1  0  0  0  0
 36 35  2  0  0  0  0
 36 37  1  0  0  0  0
 38 36  1  0  0  0  0
 39 40  1  0  0  0  0
 39 38  2  0  0  0  0
 40 35  1  0  0  0  0
M  END
>  <minimizedAffinity>
-5.59400749

$$$$

 OpenBabel03242519303D

 40 43  0  0  0  0  0  0  0  0999 V2000
   37.2180   26.7330   42.0110 C   0  0  0  0  0  0  0  0  0  0  0  0
   37.2060   27.1990   43.3470 C   0  0  0  0  0  0  0  0  0  0  0  0
   37.4060   28.5600   43.6010 C   0  0  0  0  0  0  0  0  0  0  0  0
   37.6050   29.3630   42.5030 N   0  0  0  0  0  0  0  0  0  0  0  0
   37.6080   28.8610   41.2160 C   0  0  0  0  0  0  0  0  0  0  0  0
   37.4170   27.5780   41.0050 N   0  0  0  0  0  0  0  0  0  0  0  0
   37.0610   26.6550   44.2550 H   0  0  0  0  0  0  0  0  0  0  0  0
   37.4140   29.0010   44.5790 H   0  0  0  0  0  0  0  0  0  0  0  0
   37.0030   25.2830   41.8670 C   0  0  0  0  0  0  0  0  0  0  0  0
   38.1040   24.4470   42.3080 C   0  0  0  0  0  0  0  0  0  0  0  0
   38.8080   23.7230   41.2320 C   0  0  0  0  0  0  0  0  0  0  0  0
   37.8230   22.8760   40.4140 C   0  0  0  0  0  0  0  0  0  0  0  0
   36.5410   23.5600   40.1150 C   0  0  0  0  0  0  0  0  0  0  0  0
   36.6350   25.0560   40.3750 C   0  0  0  0  0  0  0  0  0  0  0  0
   36.0310   25.0450   42.3930 H   0  0  0  0  0  0  0  0  0  0  0  0
   37.7290   23.6850   43.0270 H   0  0  0  0  0  0  0  0  0  0  0  0
   38.8850   25.0030   42.8990 H   0  0  0  0  0  0  0  0  0  0  0  0
   39.5620   23.0240   41.6320 H   0  0  0  0  0  0  0  0  0  0  0  0
   39.3100   24.3540   40.4750 H   0  0  0  0  0  0  0  0  0  0  0  0
   37.6030   21.9850   41.0410 H   0  0  0  0  0  0  0  0  0  0  0  0
   38.3380   22.4790   39.5090 H   0  0  0  0  0  0  0  0  0  0  0  0
   36.3330   23.4630   39.0270 H   0  0  0  0  0  0  0  0  0  0  0  0
   35.6610   23.1520   40.6310 H   0  0  0  0  0  0  0  0  0  0  0  0
   35.6350   25.4740   40.1620 H   0  0  0  0  0  0  0  0  0  0  0  0
   37.3830   25.5360   39.7360 H   0  0  0  0  0  0  0  0  0  0  0  0
   37.8370   29.8700   40.1980 C   0  0  0  0  0  0  0  0  0  0  0  0
   36.8870   30.8030   39.9840 N   0  0  0  0  0  0  0  0  0  0  0  0
   37.3030   31.6380   39.0050 C   0  0  0  0  0  0  0  0  0  0  0  0
   38.5350   31.2030   38.6130 N   0  0  0  0  0  0  0  0  0  0  0  0
   38.8630   30.1270   39.3390 N   0  0  0  0  0  0  0  0  0  0  0  0
   36.7730   32.4990   38.5910 H   0  0  0  0  0  0  0  0  0  0  0  0
   39.3810   31.7910   37.5780 C   0  0  0  0  0  0  0  0  0  0  0  0
   39.8610   31.0000   36.9560 H   0  0  0  0  0  0  0  0  0  0  0  0
   38.7560   32.4690   36.9330 H   0  0  0  0  0  0  0  0  0  0  0  0
   40.3850   32.6230   38.2080 C   0  0  0  0  0  0  0  0  0  0  0  0
   40.4000   33.3560   39.3540 C   0  0  0  0  0  0  0  0  0  0  0  0
   39.4930   33.3390   39.9420 H   0  0  0  0  0  0  0  0  0  0  0  0
   41.5160   34.0650   39.7160 C   0  0  0  0  0  3  0  0  0  0  0  0
   42.6160   33.9840   38.8430 C   0  0  0  0  0  3  0  0  0  0  0  0
   41.9640   32.8450   37.4900 S   0  0  0  0  0  0  0  0  0  0  0  0
  1  2  1  0  0  0  0
  2  3  2  0  0  0  0
  2  7  1  0  0  0  0
  3  8  1  0  0  0  0
  4  3  1  0  0  0  0
  5  4  2  0  0  0  0
  6  5  1  0  0  0  0
  6  1  2  0  0  0  0
  9  1  1  0  0  0  0
  9 10  1  0  0  0  0
  9 15  1  0  0  0  0
 10 17  1  0  0  0  0
 10 16  1  0  0  0  0
 11 18  1  0  0  0  0
 11 10  1  0  0  0  0
 12 20  1  0  0  0  0
 12 11  1  0  0  0  0
 13 14  1  0  0  0  0
 13 12  1  0  0  0  0
 13 23  1  0  0  0  0
 14  9  1  0  0  0  0
 19 11  1  0  0  0  0
 21 12  1  0  0  0  0
 22 13  1  0  0  0  0
 24 14  1  0  0  0  0
 25 14  1  0  0  0  0
 26  5  1  0  0  0  0
 27 26  1  0  0  0  0
 28 27  2  0  0  0  0
 29 28  1  0  0  0  0
 29 30  1  0  0  0  0
 30 26  2  0  0  0  0
 31 28  1  0  0  0  0
 32 35  1  0  0  0  0
 32 29  1  0  0  0  0
 33 32  1  0  0  0  0
 34 32  1  0  0  0  0
 35 36  2  0  0  0  0
 36 38  1  0  0  0  0
 36 37  1  0  0  0  0
 39 38  2  0  0  0  0
 40 35  1  0  0  0  0
 40 39  1  0  0  0  0
M  END
>  <minimizedAffinity>
-5.52419472

$$$$

 OpenBabel03242519303D

 40 43  0  0  0  0  0  0  0  0999 V2000
   36.7590   29.2410   39.6500 C   0  0  0  0  0  0  0  0  0  0  0  0
   36.3770   29.1580   38.2900 C   0  0  0  0  0  0  0  0  0  0  0  0
   36.7150   30.2000   37.4180 C   0  0  0  0  0  0  0  0  0  0  0  0
   37.4100   31.2520   37.9650 N   0  0  0  0  0  0  0  0  0  0  0  0
   37.7610   31.2870   39.3010 C   0  0  0  0  0  0  0  0  0  0  0  0
   37.4310   30.2950   40.0990 N   0  0  0  0  0  0  0  0  0  0  0  0
   35.8410   28.3880   37.7810 H   0  0  0  0  0  0  0  0  0  0  0  0
   36.4670   30.2230   36.3740 H   0  0  0  0  0  0  0  0  0  0  0  0
   36.3440   28.0910   40.4720 C   0  0  0  0  0  0  0  0  0  0  0  0
   36.4050   28.3020   41.9060 C   0  0  0  0  0  0  0  0  0  0  0  0
   37.4370   27.5160   42.6100 C   0  0  0  0  0  0  0  0  0  0  0  0
   37.2660   26.0180   42.3240 C   0  0  0  0  0  0  0  0  0  0  0  0
   36.9500   25.7040   40.9080 C   0  0  0  0  0  0  0  0  0  0  0  0
   37.2190   26.8970   40.0020 C   0  0  0  0  0  0  0  0  0  0  0  0
   35.3150   27.7910   40.1150 H   0  0  0  0  0  0  0  0  0  0  0  0
   35.4240   28.0420   42.3640 H   0  0  0  0  0  0  0  0  0  0  0  0
   36.5520   29.3800   42.1990 H   0  0  0  0  0  0  0  0  0  0  0  0
   37.3680   27.6340   43.7040 H   0  0  0  0  0  0  0  0  0  0  0  0
   38.4830   27.7260   42.3200 H   0  0  0  0  0  0  0  0  0  0  0  0
   36.4100   25.6890   42.9510 H   0  0  0  0  0  0  0  0  0  0  0  0
   38.1490   25.4620   42.7160 H   0  0  0  0  0  0  0  0  0  0  0  0
   37.6420   24.9080   40.5580 H   0  0  0  0  0  0  0  0  0  0  0  0
   35.9340   25.3280   40.7270 H   0  0  0  0  0  0  0  0  0  0  0  0
   36.9240   26.5880   38.9830 H   0  0  0  0  0  0  0  0  0  0  0  0
   38.2740   27.1890   40.0120 H   0  0  0  0  0  0  0  0  0  0  0  0
   38.4880   32.4840   39.6810 C   0  0  0  0  0  0  0  0  0  0  0  0
   37.8010   33.6320   39.8560 N   0  0  0  0  0  0  0  0  0  0  0  0
   38.6640   34.6120   40.2070 C   0  0  0  0  0  0  0  0  0  0  0  0
   39.9060   34.0490   40.2470 N   0  0  0  0  0  0  0  0  0  0  0  0
   39.8010   32.7520   39.9270 N   0  0  0  0  0  0  0  0  0  0  0  0
   38.4360   35.6580   40.4220 H   0  0  0  0  0  0  0  0  0  0  0  0
   41.1600   34.7190   40.5780 C   0  0  0  0  0  0  0  0  0  0  0  0
   41.0740   35.8210   40.4370 H   0  0  0  0  0  0  0  0  0  0  0  0
   41.4330   34.4820   41.6440 H   0  0  0  0  0  0  0  0  0  0  0  0
   42.2160   34.1800   39.7470 C   0  0  0  0  0  0  0  0  0  0  0  0
   43.2800   33.3730   40.0020 C   0  0  0  0  0  0  0  0  0  0  0  0
   43.3960   33.0470   41.0270 H   0  0  0  0  0  0  0  0  0  0  0  0
   44.1400   33.0120   38.9980 C   0  0  0  0  0  3  0  0  0  0  0  0
   43.8520   33.5190   37.7180 C   0  0  0  0  0  3  0  0  0  0  0  0
   42.2940   34.5320   38.0360 S   0  0  0  0  0  0  0  0  0  0  0  0
  1  6  1  0  0  0  0
  1  9  1  0  0  0  0
  2  1  2  0  0  0  0
  3  4  2  0  0  0  0
  3  2  1  0  0  0  0
  4  5  1  0  0  0  0
  5 26  1  0  0  0  0
  5  6  2  0  0  0  0
  7  2  1  0  0  0  0
  8  3  1  0  0  0  0
  9 10  1  0  0  0  0
 10 17  1  0  0  0  0
 10 16  1  0  0  0  0
 10 11  1  0  0  0  0
 11 18  1  0  0  0  0
 12 11  1  0  0  0  0
 12 21  1  0  0  0  0
 12 20  1  0  0  0  0
 13 12  1  0  0  0  0
 14 25  1  0  0  0  0
 14  9  1  0  0  0  0
 14 13  1  0  0  0  0
 15  9  1  0  0  0  0
 19 11  1  0  0  0  0
 22 13  1  0  0  0  0
 23 13  1  0  0  0  0
 24 14  1  0  0  0  0
 26 27  1  0  0  0  0
 26 30  2  0  0  0  0
 27 28  2  0  0  0  0
 28 29  1  0  0  0  0
 28 31  1  0  0  0  0
 29 32  1  0  0  0  0
 30 29  1  0  0  0  0
 32 34  1  0  0  0  0
 33 32  1  0  0  0  0
 35 36  2  0  0  0  0
 35 32  1  0  0  0  0
 36 37  1  0  0  0  0
 38 36  1  0  0  0  0
 39 40  1  0  0  0  0
 39 38  2  0  0  0  0
 40 35  1  0  0  0  0
M  END
>  <minimizedAffinity>
-5.49445105

$$$$

 OpenBabel03242519303D

 40 43  0  0  0  0  0  0  0  0999 V2000
   40.0670   33.0580   40.4150 C   0  0  0  0  0  0  0  0  0  0  0  0
   38.9640   33.8060   39.9410 C   0  0  0  0  0  0  0  0  0  0  0  0
   37.6760   33.2690   40.0440 C   0  0  0  0  0  0  0  0  0  0  0  0
   37.5780   32.0220   40.6140 N   0  0  0  0  0  0  0  0  0  0  0  0
   38.6870   31.3310   41.0630 C   0  0  0  0  0  0  0  0  0  0  0  0
   39.8860   31.8580   40.9540 N   0  0  0  0  0  0  0  0  0  0  0  0
   38.9430   34.7730   39.4870 H   0  0  0  0  0  0  0  0  0  0  0  0
   36.7830   33.7630   39.7110 H   0  0  0  0  0  0  0  0  0  0  0  0
   41.3730   33.7210   40.2480 C   0  0  0  0  0  0  0  0  0  0  0  0
   41.4280   34.7240   39.2010 C   0  0  0  0  0  0  0  0  0  0  0  0
   42.2680   34.3690   38.0410 C   0  0  0  0  0  0  0  0  0  0  0  0
   43.6940   34.0230   38.4890 C   0  0  0  0  0  0  0  0  0  0  0  0
   43.7580   33.1920   39.7170 C   0  0  0  0  0  0  0  0  0  0  0  0
   42.4040   32.5790   40.0430 C   0  0  0  0  0  0  0  0  0  0  0  0
   41.6620   34.1270   41.2620 H   0  0  0  0  0  0  0  0  0  0  0  0
   41.8270   35.6760   39.6160 H   0  0  0  0  0  0  0  0  0  0  0  0
   40.4170   35.0160   38.8010 H   0  0  0  0  0  0  0  0  0  0  0  0
   42.3590   35.2050   37.3280 H   0  0  0  0  0  0  0  0  0  0  0  0
   41.9450   33.4800   37.4670 H   0  0  0  0  0  0  0  0  0  0  0  0
   44.1840   34.9970   38.7040 H   0  0  0  0  0  0  0  0  0  0  0  0
   44.2600   33.5920   37.6300 H   0  0  0  0  0  0  0  0  0  0  0  0
   44.4330   32.3290   39.5260 H   0  0  0  0  0  0  0  0  0  0  0  0
   44.1540   33.7000   40.6060 H   0  0  0  0  0  0  0  0  0  0  0  0
   42.5360   32.0120   40.9810 H   0  0  0  0  0  0  0  0  0  0  0  0
   42.0560   31.9090   39.2490 H   0  0  0  0  0  0  0  0  0  0  0  0
   38.3730   30.0320   41.6290 C   0  0  0  0  0  0  0  0  0  0  0  0
   37.1130   29.7960   42.0530 N   0  0  0  0  0  0  0  0  0  0  0  0
   37.0410   28.5360   42.5370 C   0  0  0  0  0  0  0  0  0  0  0  0
   38.2840   27.9900   42.4050 N   0  0  0  0  0  0  0  0  0  0  0  0
   39.0970   28.9000   41.8520 N   0  0  0  0  0  0  0  0  0  0  0  0
   36.1680   28.0310   42.9570 H   0  0  0  0  0  0  0  0  0  0  0  0
   38.6930   26.6430   42.7930 C   0  0  0  0  0  0  0  0  0  0  0  0
   39.8020   26.5340   42.7540 H   0  0  0  0  0  0  0  0  0  0  0  0
   38.3160   26.4280   43.8310 H   0  0  0  0  0  0  0  0  0  0  0  0
   38.0570   25.6870   41.9110 C   0  0  0  0  0  0  0  0  0  0  0  0
   37.0520   24.7870   42.0850 C   0  0  0  0  0  0  0  0  0  0  0  0
   36.6130   24.7480   43.0720 H   0  0  0  0  0  0  0  0  0  0  0  0
   36.6410   23.9890   41.0490 C   0  0  0  0  0  3  0  0  0  0  0  0
   37.3140   24.1610   39.8250 C   0  0  0  0  0  3  0  0  0  0  0  0
   38.5540   25.5180   40.2430 S   0  0  0  0  0  0  0  0  0  0  0  0
  1  6  1  0  0  0  0
  2  3  1  0  0  0  0
  2  1  2  0  0  0  0
  3  4  2  0  0  0  0
  4  5  1  0  0  0  0
  5 26  1  0  0  0  0
  6  5  2  0  0  0  0
  7  2  1  0  0  0  0
  8  3  1  0  0  0  0
  9  1  1  0  0  0  0
  9 15  1  0  0  0  0
 10 16  1  0  0  0  0
 10  9  1  0  0  0  0
 11 12  1  0  0  0  0
 11 10  1  0  0  0  0
 12 20  1  0  0  0  0
 12 13  1  0  0  0  0
 13 14  1  0  0  0  0
 13 23  1  0  0  0  0
 14  9  1  0  0  0  0
 14 24  1  0  0  0  0
 17 10  1  0  0  0  0
 18 11  1  0  0  0  0
 19 11  1  0  0  0  0
 21 12  1  0  0  0  0
 22 13  1  0  0  0  0
 25 14  1  0  0  0  0
 26 30  2  0  0  0  0
 26 27  1  0  0  0  0
 27 28  2  0  0  0  0
 28 31  1  0  0  0  0
 29 28  1  0  0  0  0
 29 32  1  0  0  0  0
 30 29  1  0  0  0  0
 32 34  1  0  0  0  0
 33 32  1  0  0  0  0
 35 36  2  0  0  0  0
 35 32  1  0  0  0  0
 36 37  1  0  0  0  0
 38 36  1  0  0  0  0
 39 40  1  0  0  0  0
 39 38  2  0  0  0  0
 40 35  1  0  0  0  0
M  END
>  <minimizedAffinity>
-5.41381407

$$$$

 OpenBabel03242519303D

 40 43  0  0  0  0  0  0  0  0999 V2000
   32.8550   29.2570   37.2670 C   0  0  0  0  0  0  0  0  0  0  0  0
   33.5890   29.0310   36.0790 C   0  0  0  0  0  0  0  0  0  0  0  0
   34.9620   28.7700   36.1600 C   0  0  0  0  0  0  0  0  0  0  0  0
   35.5070   28.7530   37.4220 N   0  0  0  0  0  0  0  0  0  0  0  0
   34.7470   28.9790   38.5530 C   0  0  0  0  0  0  0  0  0  0  0  0
   33.4600   29.2230   38.4500 N   0  0  0  0  0  0  0  0  0  0  0  0
   33.2550   29.0240   35.0650 H   0  0  0  0  0  0  0  0  0  0  0  0
   35.5970   28.5870   35.3140 H   0  0  0  0  0  0  0  0  0  0  0  0
   31.4220   29.5280   37.0580 C   0  0  0  0  0  0  0  0  0  0  0  0
   31.1180   30.4590   35.9880 C   0  0  0  0  0  0  0  0  0  0  0  0
   30.5620   31.7540   36.4270 C   0  0  0  0  0  0  0  0  0  0  0  0
   29.3100   31.5430   37.2890 C   0  0  0  0  0  0  0  0  0  0  0  0
   29.4270   30.4320   38.2650 C   0  0  0  0  0  0  0  0  0  0  0  0
   30.8740   29.9930   38.4350 C   0  0  0  0  0  0  0  0  0  0  0  0
   30.9190   28.5250   36.9260 H   0  0  0  0  0  0  0  0  0  0  0  0
   30.3770   30.0020   35.2950 H   0  0  0  0  0  0  0  0  0  0  0  0
   31.9970   30.6840   35.3210 H   0  0  0  0  0  0  0  0  0  0  0  0
   30.2510   32.3780   35.5730 H   0  0  0  0  0  0  0  0  0  0  0  0
   31.2240   32.3710   37.0640 H   0  0  0  0  0  0  0  0  0  0  0  0
   28.4950   31.2930   36.5760 H   0  0  0  0  0  0  0  0  0  0  0  0
   29.0100   32.5120   37.7510 H   0  0  0  0  0  0  0  0  0  0  0  0
   29.1140   30.8030   39.2650 H   0  0  0  0  0  0  0  0  0  0  0  0
   28.8000   29.5550   38.0540 H   0  0  0  0  0  0  0  0  0  0  0  0
   30.8620   29.1470   39.1450 H   0  0  0  0  0  0  0  0  0  0  0  0
   31.5040   30.7990   38.8270 H   0  0  0  0  0  0  0  0  0  0  0  0
   35.5090   28.9210   39.7870 C   0  0  0  0  0  0  0  0  0  0  0  0
   36.0070   30.0670   40.2960 N   0  0  0  0  0  0  0  0  0  0  0  0
   36.6740   29.7880   41.4390 C   0  0  0  0  0  0  0  0  0  0  0  0
   36.5810   28.4400   41.6310 N   0  0  0  0  0  0  0  0  0  0  0  0
   35.8710   27.9110   40.6260 N   0  0  0  0  0  0  0  0  0  0  0  0
   37.1940   30.4870   42.0970 H   0  0  0  0  0  0  0  0  0  0  0  0
   37.1480   27.6730   42.7360 C   0  0  0  0  0  0  0  0  0  0  0  0
   37.9870   28.2260   43.2180 H   0  0  0  0  0  0  0  0  0  0  0  0
   36.3390   27.4580   43.4880 H   0  0  0  0  0  0  0  0  0  0  0  0
   37.6030   26.3920   42.2350 C   0  0  0  0  0  0  0  0  0  0  0  0
   37.0640   25.1440   42.2490 C   0  0  0  0  0  0  0  0  0  0  0  0
   36.0980   25.0480   42.7240 H   0  0  0  0  0  0  0  0  0  0  0  0
   37.7320   24.0880   41.6850 C   0  0  0  0  0  3  0  0  0  0  0  0
   38.9800   24.3780   41.1060 C   0  0  0  0  0  3  0  0  0  0  0  0
   39.1380   26.2310   41.4130 S   0  0  0  0  0  0  0  0  0  0  0  0
  1  6  1  0  0  0  0
  2  3  1  0  0  0  0
  2  1  2  0  0  0  0
  3  4  2  0  0  0  0
  4  5  1  0  0  0  0
  5 26  1  0  0  0  0
  6  5  2  0  0  0  0
  7  2  1  0  0  0  0
  8  3  1  0  0  0  0
  9  1  1  0  0  0  0
  9 14  1  0  0  0  0
 10 11  1  0  0  0  0
 10  9  1  0  0  0  0
 11 19  1  0  0  0  0
 11 12  1  0  0  0  0
 12 21  1  0  0  0  0
 12 13  1  0  0  0  0
 13 14  1  0  0  0  0
 13 22  1  0  0  0  0
 14 25  1  0  0  0  0
 14 24  1  0  0  0  0
 15  9  1  0  0  0  0
 16 10  1  0  0  0  0
 17 10  1  0  0  0  0
 18 11  1  0  0  0  0
 20 12  1  0  0  0  0
 23 13  1  0  0  0  0
 26 27  1  0  0  0  0
 26 30  2  0  0  0  0
 27 28  2  0  0  0  0
 28 29  1  0  0  0  0
 28 31  1  0  0  0  0
 29 32  1  0  0  0  0
 30 29  1  0  0  0  0
 32 33  1  0  0  0  0
 32 34  1  0  0  0  0
 35 36  2  0  0  0  0
 35 32  1  0  0  0  0
 36 37  1  0  0  0  0
 38 36  1  0  0  0  0
 39 40  1  0  0  0  0
 39 38  2  0  0  0  0
 40 35  1  0  0  0  0
M  END
>  <minimizedAffinity>
-5.40016794

$$$$

 OpenBabel03242519303D

 40 43  0  0  0  0  0  0  0  0999 V2000
   37.6700   28.6270   39.8210 C   0  0  0  0  0  0  0  0  0  0  0  0
   38.5890   29.6450   39.4750 C   0  0  0  0  0  0  0  0  0  0  0  0
   38.3160   30.4730   38.3800 C   0  0  0  0  0  0  0  0  0  0  0  0
   37.1440   30.2260   37.7060 N   0  0  0  0  0  0  0  0  0  0  0  0
   36.2770   29.2180   38.0830 C   0  0  0  0  0  0  0  0  0  0  0  0
   36.5570   28.4550   39.1150 N   0  0  0  0  0  0  0  0  0  0  0  0
   39.5160   29.9090   39.9360 H   0  0  0  0  0  0  0  0  0  0  0  0
   38.9540   31.2680   38.0450 H   0  0  0  0  0  0  0  0  0  0  0  0
   38.0660   27.8160   40.9860 C   0  0  0  0  0  0  0  0  0  0  0  0
   36.9880   27.0890   41.6290 C   0  0  0  0  0  0  0  0  0  0  0  0
   36.6370   27.5610   42.9820 C   0  0  0  0  0  0  0  0  0  0  0  0
   37.8700   27.5540   43.8960 C   0  0  0  0  0  0  0  0  0  0  0  0
   39.1070   28.0550   43.2470 C   0  0  0  0  0  0  0  0  0  0  0  0
   38.7960   28.7890   41.9510 C   0  0  0  0  0  0  0  0  0  0  0  0
   38.9070   27.1430   40.6420 H   0  0  0  0  0  0  0  0  0  0  0  0
   37.2620   26.0140   41.7160 H   0  0  0  0  0  0  0  0  0  0  0  0
   36.0350   27.0680   41.0280 H   0  0  0  0  0  0  0  0  0  0  0  0
   35.8890   26.9100   43.4630 H   0  0  0  0  0  0  0  0  0  0  0  0
   36.2620   28.6000   43.0480 H   0  0  0  0  0  0  0  0  0  0  0  0
   38.0300   26.4900   44.1730 H   0  0  0  0  0  0  0  0  0  0  0  0
   37.6270   28.0740   44.8520 H   0  0  0  0  0  0  0  0  0  0  0  0
   39.5730   28.8150   43.9110 H   0  0  0  0  0  0  0  0  0  0  0  0
   39.8790   27.2960   43.0620 H   0  0  0  0  0  0  0  0  0  0  0  0
   39.7670   29.0930   41.5230 H   0  0  0  0  0  0  0  0  0  0  0  0
   38.1710   29.6730   42.1210 H   0  0  0  0  0  0  0  0  0  0  0  0
   35.0990   29.1190   37.2410 C   0  0  0  0  0  0  0  0  0  0  0  0
   35.2520   29.1740   35.9020 N   0  0  0  0  0  0  0  0  0  0  0  0
   34.0380   29.0610   35.3160 C   0  0  0  0  0  0  0  0  0  0  0  0
   33.1240   28.9330   36.3210 N   0  0  0  0  0  0  0  0  0  0  0  0
   33.7690   28.9680   37.4950 N   0  0  0  0  0  0  0  0  0  0  0  0
   33.8090   29.0670   34.2480 H   0  0  0  0  0  0  0  0  0  0  0  0
   31.6790   28.7820   36.1750 C   0  0  0  0  0  0  0  0  0  0  0  0
   31.4070   28.5270   35.1250 H   0  0  0  0  0  0  0  0  0  0  0  0
   31.3210   27.9800   36.8770 H   0  0  0  0  0  0  0  0  0  0  0  0
   31.0350   30.0130   36.5840 C   0  0  0  0  0  0  0  0  0  0  0  0
   30.8380   31.2090   35.9670 C   0  0  0  0  0  0  0  0  0  0  0  0
   31.2290   31.2970   34.9630 H   0  0  0  0  0  0  0  0  0  0  0  0
   30.1770   32.2250   36.6060 C   0  0  0  0  0  3  0  0  0  0  0  0
   29.7280   31.9530   37.9110 C   0  0  0  0  0  3  0  0  0  0  0  0
   30.3020   30.1750   38.1640 S   0  0  0  0  0  0  0  0  0  0  0  0
  1  9  1  0  0  0  0
  2  1  1  0  0  0  0
  2  7  1  0  0  0  0
  3  2  2  0  0  0  0
  4  5  2  0  0  0  0
  4  3  1  0  0  0  0
  5  6  1  0  0  0  0
  6  1  2  0  0  0  0
  8  3  1  0  0  0  0
  9 10  1  0  0  0  0
  9 14  1  0  0  0  0
 10 16  1  0  0  0  0
 10 11  1  0  0  0  0
 11 19  1  0  0  0  0
 11 18  1  0  0  0  0
 11 12  1  0  0  0  0
 12 20  1  0  0  0  0
 12 21  1  0  0  0  0
 13 12  1  0  0  0  0
 13 22  1  0  0  0  0
 14 25  1  0  0  0  0
 14 13  1  0  0  0  0
 15  9  1  0  0  0  0
 17 10  1  0  0  0  0
 23 13  1  0  0  0  0
 24 14  1  0  0  0  0
 26 30  2  0  0  0  0
 26  5  1  0  0  0  0
 27 26  1  0  0  0  0
 28 27  2  0  0  0  0
 28 29  1  0  0  0  0
 29 30  1  0  0  0  0
 31 28  1  0  0  0  0
 32 29  1  0  0  0  0
 32 35  1  0  0  0  0
 32 34  1  0  0  0  0
 33 32  1  0  0  0  0
 35 40  1  0  0  0  0
 36 35  2  0  0  0  0
 36 38  1  0  0  0  0
 37 36  1  0  0  0  0
 38 39  2  0  0  0  0
 39 40  1  0  0  0  0
M  END
>  <minimizedAffinity>
-5.38227987

$$$$

 OpenBabel03242519303D

 40 43  0  0  0  0  0  0  0  0999 V2000
   37.1950   29.1870   41.6540 C   0  0  0  0  0  0  0  0  0  0  0  0
   37.8460   29.1520   42.9090 C   0  0  0  0  0  0  0  0  0  0  0  0
   38.2050   27.9180   43.4630 C   0  0  0  0  0  0  0  0  0  0  0  0
   37.8880   26.8030   42.7240 N   0  0  0  0  0  0  0  0  0  0  0  0
   37.2520   26.8880   41.5010 C   0  0  0  0  0  0  0  0  0  0  0  0
   36.9260   28.0600   41.0040 N   0  0  0  0  0  0  0  0  0  0  0  0
   38.1300   29.9590   43.5500 H   0  0  0  0  0  0  0  0  0  0  0  0
   38.6990   27.7960   44.4080 H   0  0  0  0  0  0  0  0  0  0  0  0
   36.8620   30.5390   41.1750 C   0  0  0  0  0  0  0  0  0  0  0  0
   36.0850   30.5880   39.9510 C   0  0  0  0  0  0  0  0  0  0  0  0
   36.8000   31.1300   38.7790 C   0  0  0  0  0  0  0  0  0  0  0  0
   37.3590   32.5260   39.0820 C   0  0  0  0  0  0  0  0  0  0  0  0
   37.9650   32.6560   40.4300 C   0  0  0  0  0  0  0  0  0  0  0  0
   38.2140   31.2940   41.0610 C   0  0  0  0  0  0  0  0  0  0  0  0
   36.3610   31.0740   42.0360 H   0  0  0  0  0  0  0  0  0  0  0  0
   35.1830   31.2200   40.1060 H   0  0  0  0  0  0  0  0  0  0  0  0
   35.6570   29.5920   39.6470 H   0  0  0  0  0  0  0  0  0  0  0  0
   36.1350   31.2430   37.9070 H   0  0  0  0  0  0  0  0  0  0  0  0
   37.6850   30.5540   38.4470 H   0  0  0  0  0  0  0  0  0  0  0  0
   36.4890   33.2150   39.0260 H   0  0  0  0  0  0  0  0  0  0  0  0
   38.0380   32.8420   38.2560 H   0  0  0  0  0  0  0  0  0  0  0  0
   38.9700   33.1190   40.3240 H   0  0  0  0  0  0  0  0  0  0  0  0
   37.4100   33.2900   41.1350 H   0  0  0  0  0  0  0  0  0  0  0  0
   38.6290   31.4860   42.0660 H   0  0  0  0  0  0  0  0  0  0  0  0
   38.9200   30.6940   40.4750 H   0  0  0  0  0  0  0  0  0  0  0  0
   37.0040   25.5980   40.8830 C   0  0  0  0  0  0  0  0  0  0  0  0
   37.4510   24.4860   41.5020 N   0  0  0  0  0  0  0  0  0  0  0  0
   37.1140   23.4050   40.7620 C   0  0  0  0  0  0  0  0  0  0  0  0
   36.4450   23.8700   39.6670 N   0  0  0  0  0  0  0  0  0  0  0  0
   36.3770   25.2050   39.7390 N   0  0  0  0  0  0  0  0  0  0  0  0
   37.3230   22.3560   40.9790 H   0  0  0  0  0  0  0  0  0  0  0  0
   35.8850   23.0710   38.5810 C   0  0  0  0  0  0  0  0  0  0  0  0
   36.1890   23.4760   37.5880 H   0  0  0  0  0  0  0  0  0  0  0  0
   36.2320   22.0060   38.6910 H   0  0  0  0  0  0  0  0  0  0  0  0
   34.4420   23.0550   38.7050 C   0  0  0  0  0  0  0  0  0  0  0  0
   33.5940   22.5290   39.6280 C   0  0  0  0  0  0  0  0  0  0  0  0
   34.0550   22.0080   40.4560 H   0  0  0  0  0  0  0  0  0  0  0  0
   32.2370   22.6690   39.4910 C   0  0  0  0  0  3  0  0  0  0  0  0
   31.7950   23.3750   38.3580 C   0  0  0  0  0  3  0  0  0  0  0  0
   33.4190   23.8230   37.5120 S   0  0  0  0  0  0  0  0  0  0  0  0
  1  2  1  0  0  0  0
  2  3  2  0  0  0  0
  2  7  1  0  0  0  0
  3  8  1  0  0  0  0
  4  3  1  0  0  0  0
  5  4  2  0  0  0  0
  6  5  1  0  0  0  0
  6  1  2  0  0  0  0
  9  1  1  0  0  0  0
  9 15  1  0  0  0  0
 10 16  1  0  0  0  0
 10  9  1  0  0  0  0
 11 12  1  0  0  0  0
 11 10  1  0  0  0  0
 12 13  1  0  0  0  0
 13 14  1  0  0  0  0
 13 23  1  0  0  0  0
 14  9  1  0  0  0  0
 14 24  1  0  0  0  0
 17 10  1  0  0  0  0
 18 11  1  0  0  0  0
 19 11  1  0  0  0  0
 20 12  1  0  0  0  0
 21 12  1  0  0  0  0
 22 13  1  0  0  0  0
 25 14  1  0  0  0  0
 26  5  1  0  0  0  0
 26 27  1  0  0  0  0
 28 31  1  0  0  0  0
 28 27  2  0  0  0  0
 29 30  1  0  0  0  0
 29 28  1  0  0  0  0
 30 26  2  0  0  0  0
 32 34  1  0  0  0  0
 32 35  1  0  0  0  0
 32 29  1  0  0  0  0
 33 32  1  0  0  0  0
 35 36  2  0  0  0  0
 36 37  1  0  0  0  0
 38 36  1  0  0  0  0
 39 38  2  0  0  0  0
 40 39  1  0  0  0  0
 40 35  1  0  0  0  0
M  END
>  <minimizedAffinity>
-5.33903599

$$$$
