
 OpenBabel03242523533D

 42 45  0  0  1  0  0  0  0  0999 V2000
   42.8230   34.3760   38.9400 C   0  0  1  0  0  0  0  0  0  0  0  0
   43.0330   35.1930   40.2050 C   0  0  1  0  0  0  0  0  0  0  0  0
   41.7760   35.6120   40.6760 O   0  0  0  0  0  0  0  0  0  0  0  0
   40.8860   35.9100   39.6410 C   0  0  0  0  0  0  0  0  0  0  0  0
   40.4590   34.6640   38.8880 C   0  0  2  0  0  0  0  0  0  0  0  0
   41.5720   33.5900   39.1550 C   0  0  1  0  0  0  0  0  0  0  0  0
   43.7110   33.7230   38.7420 H   0  0  0  0  0  0  0  0  0  0  0  0
   43.7170   36.0430   40.0640 H   0  0  0  0  0  0  0  0  0  0  0  0
   39.9930   36.3280   40.1170 H   0  0  0  0  0  0  0  0  0  0  0  0
   41.2840   36.6900   38.9620 H   0  0  0  0  0  0  0  0  0  0  0  0
   39.4840   34.2860   39.2290 H   0  0  0  0  0  0  0  0  0  0  0  0
   41.3340   33.4750   40.2650 H   0  0  0  0  0  0  0  0  0  0  0  0
   42.7000   35.2080   37.8180 O   0  0  0  0  0  0  0  0  0  0  0  0
   43.5550   35.5820   37.5540 H   0  0  0  0  0  0  0  0  0  0  0  0
   40.5120   34.9060   37.5220 O   0  0  0  0  0  0  0  0  0  0  0  0
   39.6150   35.1610   37.1580 H   0  0  0  0  0  0  0  0  0  0  0  0
   43.4700   34.2740   41.1720 O   0  0  0  0  0  0  0  0  0  0  0  0
   44.6130   34.3700   41.8630 C   0  0  0  0  0  0  0  0  0  0  0  0
   45.8460   34.4950   41.2040 C   0  0  0  0  0  0  0  0  0  0  0  0
   46.9970   34.5920   41.9680 C   0  0  0  0  0  0  0  0  0  0  0  0
   46.8980   34.5640   43.3480 N   0  0  0  0  0  0  0  0  0  0  0  0
   45.6910   34.4430   43.9470 C   0  0  0  0  0  0  0  0  0  0  0  0
   44.5550   34.3460   43.2070 N   0  0  0  0  0  0  0  0  0  0  0  0
   45.9300   34.5170   40.1320 H   0  0  0  0  0  0  0  0  0  0  0  0
   45.6900   34.4280   45.0290 H   0  0  0  0  0  0  0  0  0  0  0  0
   48.3480   34.7110   41.3410 C   0  0  0  0  0  0  0  0  0  0  0  0
   49.0750   36.0440   41.5270 C   0  0  0  0  0  0  0  0  0  0  0  0
   49.5360   34.7050   42.1340 C   0  0  0  0  0  0  0  0  0  0  0  0
   48.3660   34.3520   40.2730 H   0  0  0  0  0  0  0  0  0  0  0  0
   48.6570   36.7530   42.2410 H   0  0  0  0  0  0  0  0  0  0  0  0
   49.7220   36.3930   40.7010 H   0  0  0  0  0  0  0  0  0  0  0  0
   50.4770   34.2560   41.7540 H   0  0  0  0  0  0  0  0  0  0  0  0
   49.4390   34.6080   43.2430 H   0  0  0  0  0  0  0  0  0  0  0  0
   41.3390   32.5520   38.3280 O   0  0  0  0  0  0  0  0  0  0  0  0
   40.4730   31.5460   38.4220 C   0  0  0  0  0  0  0  0  0  0  0  0
   40.0890   30.8240   37.3830 O   0  0  0  0  0  0  0  0  0  0  0  0
   39.6810   30.9020   39.6370 C   0  0  0  0  0  0  0  0  0  0  0  0
   39.9790   30.7130   40.8740 C   0  0  0  0  0  0  0  0  0  0  0  0
   40.9640   31.0620   41.1620 H   0  0  0  0  0  0  0  0  0  0  0  0
   39.0860   30.1140   41.7050 C   0  0  0  0  0  3  0  0  0  0  0  0
   37.8660   29.7370   41.1320 C   0  0  0  0  0  3  0  0  0  0  0  0
   38.1100   30.3110   39.3110 S   0  0  0  0  0  0  0  0  0  0  0  0
  1  7  1  6  0  0  0
  1  6  1  0  0  0  0
  1  2  1  0  0  0  0
  2  8  1  6  0  0  0
  2  3  1  0  0  0  0
  2 17  1  0  0  0  0
  4  9  1  0  0  0  0
  4  3  1  0  0  0  0
  5  6  1  0  0  0  0
  5 11  1  1  0  0  0
  5  4  1  0  0  0  0
  6 12  1  1  0  0  0
 10  4  1  0  0  0  0
 13  1  1  0  0  0  0
 14 13  1  0  0  0  0
 15  5  1  0  0  0  0
 16 15  1  0  0  0  0
 17 18  1  0  0  0  0
 18 23  1  0  0  0  0
 19 18  2  0  0  0  0
 19 20  1  0  0  0  0
 20 21  2  0  0  0  0
 21 22  1  0  0  0  0
 22 25  1  0  0  0  0
 23 22  2  0  0  0  0
 24 19  1  0  0  0  0
 26 27  1  0  0  0  0
 26 20  1  0  0  0  0
 26 28  1  0  0  0  0
 27 28  1  0  0  0  0
 27 30  1  0  0  0  0
 28 33  1  0  0  0  0
 29 26  1  0  0  0  0
 31 27  1  0  0  0  0
 32 28  1  0  0  0  0
 34 35  1  0  0  0  0
 34  6  1  0  0  0  0
 35 37  1  0  0  0  0
 36 35  2  0  0  0  0
 37 38  2  0  0  0  0
 38 39  1  0  0  0  0
 38 40  1  0  0  0  0
 41 40  2  0  0  0  0
 42 37  1  0  0  0  0
 42 41  1  0  0  0  0
M  END
>  <minimizedAffinity>
-6.02927399

>  <minimizedRMSD>
1.68197787

$$$$
