
 OpenBabel03252509263D

 27 29  0  0  1  0  0  0  0  0999 V2000
   46.5820   35.0750   41.9140 C   0  0  1  0  0  0  0  0  0  0  0  0
   48.1150   35.3480   41.9180 C   0  0  0  0  0  0  0  0  0  0  0  0
   47.3940   34.1080   41.2960 C   0  0  2  0  0  0  0  0  0  0  0  0
   46.0150   35.8440   41.3520 H   0  0  0  0  0  0  0  0  0  0  0  0
   48.6790   35.2110   42.8330 H   0  0  0  0  0  0  0  0  0  0  0  0
   48.4740   36.0690   41.1670 H   0  0  0  0  0  0  0  0  0  0  0  0
   47.6110   33.1710   41.8990 H   0  0  0  0  0  0  0  0  0  0  0  0
   44.6900   35.3340   45.1450 C   0  0  0  0  0  0  0  0  0  0  0  0
   45.1380   35.6670   43.8290 C   0  0  0  0  0  0  0  0  0  0  0  0
   46.0840   34.8470   43.3130 C   0  0  0  0  0  0  0  0  0  0  0  0
   46.5780   33.7660   44.0210 N   0  0  0  0  0  0  0  0  0  0  0  0
   46.1240   33.4880   45.2690 C   0  0  0  0  0  0  0  0  0  0  0  0
   45.1790   34.2760   45.8300 N   0  0  0  0  0  0  0  0  0  0  0  0
   43.9290   35.9980   45.5520 H   0  0  0  0  0  0  0  0  0  0  0  0
   46.5030   32.6470   45.8320 H   0  0  0  0  0  0  0  0  0  0  0  0
   44.6420   36.7850   43.1200 N   0  0  0  0  0  0  0  0  0  0  0  0
   44.7530   37.8200   43.2910 H   0  0  0  0  0  0  0  0  0  0  0  0
   44.1130   36.3340   42.3470 H   0  0  0  0  0  0  0  0  0  0  0  0
   47.4300   33.9460   39.7940 C   0  0  0  0  0  0  0  0  0  0  0  0
   46.4680   33.4260   39.5260 H   0  0  0  0  0  0  0  0  0  0  0  0
   47.5280   34.9260   39.2820 H   0  0  0  0  0  0  0  0  0  0  0  0
   48.5140   33.0150   39.4340 C   0  0  0  0  0  0  0  0  0  0  0  0
   49.3770   32.2060   40.1170 C   0  0  0  0  0  0  0  0  0  0  0  0
   49.3040   32.1930   41.1950 H   0  0  0  0  0  0  0  0  0  0  0  0
   50.2760   31.4660   39.3900 C   0  0  0  0  0  3  0  0  0  0  0  0
   50.2640   31.5750   38.0260 C   0  0  0  0  0  3  0  0  0  0  0  0
   48.8810   32.8130   37.7480 S   0  0  0  0  0  0  0  0  0  0  0  0
  1  4  1  6  0  0  0
  1  2  1  0  0  0  0
  1 10  1  0  0  0  0
  2  5  1  0  0  0  0
  3  7  1  1  0  0  0
  3  1  1  0  0  0  0
  3  2  1  0  0  0  0
  6  2  1  0  0  0  0
  8 14  1  0  0  0  0
  8 13  1  0  0  0  0
  9  8  2  0  0  0  0
 10  9  1  0  0  0  0
 10 11  2  0  0  0  0
 11 12  1  0  0  0  0
 12 13  2  0  0  0  0
 12 15  1  0  0  0  0
 16 17  1  0  0  0  0
 16  9  1  0  0  0  0
 18 16  1  0  0  0  0
 19  3  1  0  0  0  0
 20 19  1  0  0  0  0
 21 19  1  0  0  0  0
 22 19  1  0  0  0  0
 22 23  2  0  0  0  0
 23 24  1  0  0  0  0
 25 23  1  0  0  0  0
 26 25  2  0  0  0  0
 27 26  1  0  0  0  0
 27 22  1  0  0  0  0
M  END
>  <minimizedAffinity>
-4.72411394

>  <minimizedRMSD>
0.370835334

$$$$
