
 OpenBabel03252508053D

 37 40  0  0  0  0  0  0  0  0999 V2000
   44.2020   34.7710   42.7020 C   0  0  0  0  0  0  0  0  0  0  0  0
   44.7220   33.4900   42.8830 C   0  0  0  0  0  0  0  0  0  0  0  0
   45.3450   33.1750   44.0760 C   0  0  0  0  0  0  0  0  0  0  0  0
   45.4150   34.1490   45.0430 N   0  0  0  0  0  0  0  0  0  0  0  0
   44.9060   35.3730   44.8460 C   0  0  0  0  0  0  0  0  0  0  0  0
   44.3080   35.6700   43.6790 N   0  0  0  0  0  0  0  0  0  0  0  0
   43.7070   35.0670   41.7800 H   0  0  0  0  0  0  0  0  0  0  0  0
   45.0210   36.0700   45.6890 H   0  0  0  0  0  0  0  0  0  0  0  0
   45.9140   31.9070   44.3860 C   0  0  0  0  0  0  0  0  0  0  0  0
   45.8450   30.7800   43.5830 C   0  0  0  0  0  0  0  0  0  0  0  0
   46.3200   29.5440   43.9540 C   0  0  0  0  0  0  0  0  0  0  0  0
   46.9040   29.3720   45.1920 C   0  0  0  0  0  0  0  0  0  0  0  0
   46.9830   30.5180   46.0250 C   0  0  0  0  0  0  0  0  0  0  0  0
   47.5590   30.3570   47.2560 C   0  0  0  0  0  0  0  0  0  0  0  0
   47.6780   31.4290   48.1220 C   0  0  0  0  0  0  0  0  0  0  0  0
   47.2060   32.6830   47.7260 C   0  0  0  0  0  0  0  0  0  0  0  0
   46.6170   32.8150   46.4550 C   0  0  0  0  0  0  0  0  0  0  0  0
   46.5050   31.7240   45.6180 C   0  0  0  0  0  0  0  0  0  0  0  0
   45.4130   30.8140   42.6290 H   0  0  0  0  0  0  0  0  0  0  0  0
   46.2680   28.6690   43.3280 H   0  0  0  0  0  0  0  0  0  0  0  0
   47.2780   28.4040   45.4960 H   0  0  0  0  0  0  0  0  0  0  0  0
   47.9250   29.3560   47.5370 H   0  0  0  0  0  0  0  0  0  0  0  0
   48.1520   31.1800   49.0750 H   0  0  0  0  0  0  0  0  0  0  0  0
   47.3820   33.3930   48.5130 H   0  0  0  0  0  0  0  0  0  0  0  0
   46.4010   33.8330   46.4100 H   0  0  0  0  0  0  0  0  0  0  0  0
   44.5680   32.6090   41.8530 O   0  0  0  0  0  0  0  0  0  0  0  0
   45.0170   31.6410   39.4450 O   0  0  0  0  0  0  0  0  0  0  0  0
   45.4270   32.7240   40.3850 P   0  0  1  0  0  0  0  0  0  0  0  0
   45.1040   34.1990   39.6170 O   0  0  0  0  0  0  0  0  0  0  0  0
   45.3690   34.0970   38.6770 H   0  0  0  0  0  0  0  0  0  0  0  0
   47.0670   32.6440   40.7080 O   0  0  0  0  0  0  0  0  0  0  0  0
   47.8790   33.6050   41.1790 C   0  0  0  0  0  0  0  0  0  0  0  0
   48.1230   34.9060   40.7440 C   0  0  0  0  0  0  0  0  0  0  0  0
   47.5780   35.2360   39.8730 H   0  0  0  0  0  0  0  0  0  0  0  0
   49.0260   35.6730   41.4380 C   0  0  0  0  0  3  0  0  0  0  0  0
   49.6690   35.1750   42.5250 C   0  0  0  0  0  3  0  0  0  0  0  0
   48.9820   33.4110   42.6680 S   0  0  0  0  0  0  0  0  0  0  0  0
  1  2  2  0  0  0  0
  1  6  1  0  0  0  0
  2  3  1  0  0  0  0
  3  9  1  0  0  0  0
  3  4  2  0  0  0  0
  5  4  1  0  0  0  0
  5  8  1  0  0  0  0
  6  5  2  0  0  0  0
  7  1  1  0  0  0  0
  9 18  1  0  0  0  0
 10 11  1  0  0  0  0
 10  9  2  0  0  0  0
 11 12  2  0  0  0  0
 12 21  1  0  0  0  0
 12 13  1  0  0  0  0
 13 14  1  0  0  0  0
 14 22  1  0  0  0  0
 14 15  2  0  0  0  0
 15 23  1  0  0  0  0
 16 15  1  0  0  0  0
 16 24  1  0  0  0  0
 17 16  2  0  0  0  0
 18 13  2  0  0  0  0
 18 17  1  0  0  0  0
 19 10  1  0  0  0  0
 20 11  1  0  0  0  0
 25 17  1  0  0  0  0
 26  2  1  0  0  0  0
 28 27  2  6  0  0  0
 28 31  1  0  0  0  0
 28 26  1  0  0  0  0
 29 28  1  0  0  0  0
 30 29  1  0  0  0  0
 31 32  1  0  0  0  0
 32 37  1  0  0  0  0
 33 32  2  0  0  0  0
 33 35  1  0  0  0  0
 34 33  1  0  0  0  0
 35 36  2  0  0  0  0
 36 37  1  0  0  0  0
M  END
>  <minimizedAffinity>
-5.79905891

>  <minimizedRMSD>
2.93146658

$$$$
