
 OpenBabel03252507033D

 44 47  0  0  0  0  0  0  0  0999 V2000
   41.8820   31.8010   41.6330 C   0  0  0  0  0  0  0  0  0  0  0  0
   41.9020   32.0370   42.7180 H   0  0  0  0  0  0  0  0  0  0  0  0
   41.4390   32.7470   41.1680 H   0  0  0  0  0  0  0  0  0  0  0  0
   41.1870   30.6940   41.3420 N   0  0  0  0  0  0  0  0  0  0  0  0
   41.3740   29.3890   41.8970 C   0  0  0  0  0  0  0  0  0  0  0  0
   40.1580   29.3550   42.8260 C   0  0  0  0  0  0  0  0  0  0  0  0
   38.8890   29.4960   42.1330 C   0  0  0  0  0  0  0  0  0  0  0  0
   38.8580   30.1740   40.8560 C   0  0  0  0  0  0  0  0  0  0  0  0
   40.0960   30.8790   40.3630 C   0  0  0  0  0  0  0  0  0  0  0  0
   42.2860   29.4050   42.5380 H   0  0  0  0  0  0  0  0  0  0  0  0
   41.3940   28.5390   41.2380 H   0  0  0  0  0  0  0  0  0  0  0  0
   40.3050   30.2240   43.5170 H   0  0  0  0  0  0  0  0  0  0  0  0
   40.2400   28.4480   43.4560 H   0  0  0  0  0  0  0  0  0  0  0  0
   38.4420   28.4730   41.9760 H   0  0  0  0  0  0  0  0  0  0  0  0
   38.1440   29.9980   42.8140 H   0  0  0  0  0  0  0  0  0  0  0  0
   38.0260   30.2460   40.2240 H   0  0  0  0  0  0  0  0  0  0  0  0
   40.1770   31.7780   38.8960 S   0  0  0  0  0  0  0  0  0  0  0  0
   40.5190   33.4120   38.9730 C   0  0  0  0  0  0  0  0  0  0  0  0
   41.1430   34.5780   38.6090 C   0  0  0  0  0  0  0  0  0  0  0  0
   41.8070   34.3560   37.8120 H   0  0  0  0  0  0  0  0  0  0  0  0
   40.9140   35.7770   39.1960 C   0  0  0  0  0  0  0  0  0  0  0  0
   39.9250   35.7880   40.2920 C   0  0  0  0  0  0  0  0  0  0  0  0
   39.4320   33.9580   40.3250 S   0  0  0  0  0  0  0  0  0  0  0  0
   43.2810   31.7740   41.1360 C   0  0  0  0  0  0  0  0  0  0  0  0
   43.3710   31.5140   40.0610 H   0  0  0  0  0  0  0  0  0  0  0  0
   43.8170   30.9680   41.6780 H   0  0  0  0  0  0  0  0  0  0  0  0
   43.9180   33.0590   41.4770 C   0  0  0  0  0  0  0  0  0  0  0  0
   43.1540   34.1910   41.6600 C   0  0  0  0  0  0  0  0  0  0  0  0
   43.8040   35.3750   41.9690 C   0  0  0  0  0  0  0  0  0  0  0  0
   45.1700   35.3600   42.0790 N   0  0  0  0  0  0  0  0  0  0  0  0
   45.8690   34.2450   41.8960 C   0  0  0  0  0  0  0  0  0  0  0  0
   45.2240   33.1150   41.5970 N   0  0  0  0  0  0  0  0  0  0  0  0
   42.1000   34.4010   41.6360 H   0  0  0  0  0  0  0  0  0  0  0  0
   43.3780   36.3580   42.1450 H   0  0  0  0  0  0  0  0  0  0  0  0
   47.3210   34.3150   42.0590 C   0  0  0  0  0  0  0  0  0  0  0  0
   48.0280   33.2050   42.5000 C   0  0  0  0  0  0  0  0  0  0  0  0
   49.4040   33.2910   42.6610 C   0  0  0  0  0  0  0  0  0  0  0  0
   49.9460   34.5250   42.3520 C   0  0  0  0  0  0  0  0  0  0  0  0
   49.2690   35.6460   41.9120 C   0  0  0  0  0  0  0  0  0  0  0  0
   47.9310   35.4770   41.7810 N   0  0  0  0  0  0  0  0  0  0  0  0
   47.5430   32.2640   42.7240 H   0  0  0  0  0  0  0  0  0  0  0  0
   50.0350   32.4820   42.9980 H   0  0  0  0  0  0  0  0  0  0  0  0
   51.0240   34.6320   42.4670 H   0  0  0  0  0  0  0  0  0  0  0  0
   49.7720   36.5580   41.6980 H   0  0  0  0  0  0  0  0  0  0  0  0
  1  2  1  0  0  0  0
  3  1  1  0  0  0  0
  4  1  1  0  0  0  0
  4  5  1  0  0  0  0
  5 10  1  0  0  0  0
  5  6  1  0  0  0  0
  6 13  1  0  0  0  0
  6 12  1  0  0  0  0
  7 15  1  0  0  0  0
  7  6  1  0  0  0  0
  8  7  1  0  0  0  0
  9  8  2  0  0  0  0
  9  4  1  0  0  0  0
 11  5  1  0  0  0  0
 14  7  1  0  0  0  0
 16  8  1  0  0  0  0
 17 18  1  0  0  0  0
 17  9  1  0  0  0  0
 18 23  1  0  0  0  0
 19 18  2  0  0  0  0
 19 21  1  0  0  0  0
 20 19  1  0  0  0  0
 21 22  2  0  0  0  0
 22 23  1  0  0  0  0
 24 27  1  0  0  0  0
 24  1  1  0  0  0  0
 24 26  1  0  0  0  0
 25 24  1  0  0  0  0
 27 32  2  0  0  0  0
 27 28  1  0  0  0  0
 28 29  2  0  0  0  0
 29 30  1  0  0  0  0
 29 34  1  0  0  0  0
 31 35  1  0  0  0  0
 31 30  2  0  0  0  0
 32 31  1  0  0  0  0
 33 28  1  0  0  0  0
 35 36  1  0  0  0  0
 36 37  2  0  0  0  0
 36 41  1  0  0  0  0
 37 42  1  0  0  0  0
 38 43  1  0  0  0  0
 38 37  1  0  0  0  0
 39 38  2  0  0  0  0
 40 39  1  0  0  0  0
 40 35  2  0  0  0  0
 44 39  1  0  0  0  0
M  END
>  <minimizedAffinity>
-5.11961508

>  <minimizedRMSD>
3.04288363

$$$$
