REMARK  Name = 
REMARK  5 active torsions:
REMARK  status: ('A' for Active; 'I' for Inactive)
REMARK    1  A    between atoms: C_3  and  C_14
REMARK    2  A    between atoms: C_5  and  C_7
REMARK    3  A    between atoms: C_12  and  N_13
REMARK    4  A    between atoms: C_18  and  O_20
REMARK    5  A    between atoms: O_20  and  C_36
REMARK                            x       y       z     vdW  Elec       q    Type
REMARK                         _______ _______ _______ _____ _____    ______ ____
ROOT
ATOM      1  C   UNL     1      44.586  35.587  44.612  0.00  0.00    +0.000 A 
ATOM      2  C   UNL     1      45.230  35.605  43.366  0.00  0.00    +0.000 A 
ATOM      3  C   UNL     1      46.318  34.691  43.178  0.00  0.00    +0.000 A 
ATOM      4  N   UNL     1      46.662  33.868  44.203  0.00  0.00    +0.000 NA
ATOM      5  C   UNL     1      46.014  33.887  45.383  0.00  0.00    +0.000 A 
ATOM      6  N   UNL     1      44.964  34.756  45.590  0.00  0.00    +0.000 NA
ATOM      7  H   UNL     1      43.776  36.301  44.675  0.00  0.00    +0.000 HD
ATOM      8  H   UNL     1      44.962  36.246  42.564  0.00  0.00    +0.000 HD
ENDROOT
BRANCH   5   9
ATOM      9  C   UNL     1      46.427  32.971  46.468  0.00  0.00    +0.000 C 
ATOM     10  C   UNL     1      46.973  31.747  45.762  0.00  0.00    +0.000 C 
ATOM     11  C   UNL     1      46.104  30.559  45.788  0.00  0.00    +0.000 C 
ATOM     12  C   UNL     1      45.820  30.289  47.265  0.00  0.00    +0.000 C 
ATOM     13  C   UNL     1      45.015  31.359  47.873  0.00  0.00    +0.000 C 
ATOM     14  C   UNL     1      45.379  32.723  47.418  0.00  0.00    +0.000 C 
ATOM     15  H   UNL     1      47.276  33.493  46.985  0.00  0.00    +0.000 HD
ATOM     16  H   UNL     1      47.930  31.475  46.263  0.00  0.00    +0.000 HD
ATOM     17  H   UNL     1      47.259  31.942  44.707  0.00  0.00    +0.000 HD
ATOM     18  H   UNL     1      46.685  29.702  45.406  0.00  0.00    +0.000 HD
ATOM     19  H   UNL     1      45.149  30.712  45.283  0.00  0.00    +0.000 HD
ATOM     20  H   UNL     1      45.183  29.394  47.277  0.00  0.00    +0.000 HD
ATOM     21  H   UNL     1      46.779  30.099  47.766  0.00  0.00    +0.000 HD
ATOM     22  H   UNL     1      44.220  31.401  48.572  0.00  0.00    +0.000 HD
BRANCH  14  23
ATOM     23  N   UNL     1      44.676  33.868  47.926  0.00  0.00    +0.000 N 
ATOM     24  H   UNL     1      43.677  33.806  47.590  0.00  0.00    +0.000 HD
ATOM     25  H   UNL     1      45.096  34.611  48.520  0.00  0.00    +0.000 HD
ENDBRANCH  14  23
ENDBRANCH   5   9
BRANCH   3  26
ATOM     26  C   UNL     1      47.004  34.673  41.898  0.00  0.00    +0.000 A 
ATOM     27  C   UNL     1      48.151  35.397  41.775  0.00  0.00    +0.000 A 
ATOM     28  C   UNL     1      48.778  35.346  40.516  0.00  0.00    +0.000 A 
ATOM     29  C   UNL     1      48.162  34.567  39.547  0.00  0.00    +0.000 A 
ATOM     30  C   UNL     1      47.020  33.847  39.672  0.00  0.00    +0.000 A 
ATOM     31  N   UNL     1      46.443  33.925  40.909  0.00  0.00    +0.000 NA
ATOM     32  H   UNL     1      48.565  35.977  42.584  0.00  0.00    +0.000 HD
ATOM     33  H   UNL     1      49.680  35.907  40.401  0.00  0.00    +0.000 HD
ATOM     34  H   UNL     1      48.736  34.609  38.637  0.00  0.00    +0.000 HD
BRANCH  30  35
ATOM     35  O   UNL     1      46.466  33.096  38.669  0.00  0.00    +0.000 OA
BRANCH  35  36
ATOM     36  C   UNL     1      47.066  33.021  37.441  0.00  0.00    +0.000 A 
ATOM     37  C   UNL     1      47.680  32.915  36.291  0.00  0.00    +0.000 A 
ATOM     38  H   UNL     1      48.494  32.267  36.611  0.00  0.00    +0.000 HD
ATOM     39  C   UNL     1      47.312  33.482  35.147  0.00  0.00    +0.000 A 
ATOM     40  C   UNL     1      46.173  34.254  35.182  0.00  0.00    +0.000 A 
ATOM     41  S   UNL     1      45.677  34.087  37.031  0.00  0.00    +0.000 S 
ENDBRANCH  35  36
ENDBRANCH  30  35
ENDBRANCH   3  26
TORSDOF 5
