REMARK  Name = 
REMARK  3 active torsions:
REMARK  status: ('A' for Active; 'I' for Inactive)
REMARK    1  A    between atoms: C_1  and  C_11
REMARK    2  A    between atoms: C_5  and  C_7
REMARK    3  A    between atoms: C_13  and  C_20
REMARK                            x       y       z     vdW  Elec       q    Type
REMARK                         _______ _______ _______ _____ _____    ______ ____
ROOT
ATOM      1  C   UNL     1      44.578  35.161  43.879  0.00  0.00    +0.000 C 
ATOM      2  C   UNL     1      44.863  36.601  44.329  0.00  0.00    +0.000 C 
ATOM      3  C   UNL     1      44.998  36.162  42.897  0.00  0.00    +0.000 C 
ATOM      4  H   UNL     1      43.517  34.840  43.929  0.00  0.00    +0.000 HD
ATOM      5  H   UNL     1      45.757  36.798  44.945  0.00  0.00    +0.000 HD
ATOM      6  H   UNL     1      43.950  37.170  44.553  0.00  0.00    +0.000 HD
ATOM      7  H   UNL     1      46.058  36.121  42.568  0.00  0.00    +0.000 HD
ENDROOT
BRANCH   1   8
ATOM      8  C   UNL     1      45.524  34.153  44.420  0.00  0.00    +0.000 A 
ATOM      9  C   UNL     1      46.492  33.602  43.541  0.00  0.00    +0.000 A 
ATOM     10  C   UNL     1      47.389  32.663  44.058  0.00  0.00    +0.000 A 
ATOM     11  N   UNL     1      47.272  32.340  45.372  0.00  0.00    +0.000 NA
ATOM     12  C   UNL     1      46.338  32.886  46.175  0.00  0.00    +0.000 A 
ATOM     13  N   UNL     1      45.472  33.789  45.685  0.00  0.00    +0.000 NA
ATOM     14  H   UNL     1      46.566  33.878  42.489  0.00  0.00    +0.000 HD
ATOM     15  H   UNL     1      48.159  32.192  43.460  0.00  0.00    +0.000 HD
BRANCH  12  16
ATOM     16  C   UNL     1      46.403  32.389  47.585  0.00  0.00    +0.000 C 
ATOM     17  F   UNL     1      45.380  32.907  48.352  0.00  0.00    +0.000 F 
ATOM     18  F   UNL     1      47.617  32.765  48.165  0.00  0.00    +0.000 F 
ATOM     19  F   UNL     1      46.391  30.999  47.572  0.00  0.00    +0.000 F 
ENDBRANCH  12  16
ENDBRANCH   1   8
BRANCH   3  20
ATOM     20  C   UNL     1      44.070  36.600  41.883  0.00  0.00    +0.000 A 
ATOM     21  C   UNL     1      42.882  37.248  41.881  0.00  0.00    +0.000 A 
ATOM     22  H   UNL     1      42.510  37.519  42.855  0.00  0.00    +0.000 HD
ATOM     23  C   UNL     1      42.221  37.528  40.725  0.00  0.00    +0.000 A 
ATOM     24  C   UNL     1      42.901  37.072  39.497  0.00  0.00    +0.000 A 
ATOM     25  S   UNL     1      44.469  36.262  40.139  0.00  0.00    +0.000 S 
ENDBRANCH   3  20
TORSDOF 3
