
 OpenBabel03252504143D

 32 34  0  0  0  0  0  0  0  0999 V2000
   46.7780   34.1140   42.9880 C   0  0  0  0  0  0  0  0  0  0  0  0
   45.6370   33.6770   42.3230 C   0  0  0  0  0  0  0  0  0  0  0  0
   44.8940   32.6460   42.9170 C   0  0  0  0  0  0  0  0  0  0  0  0
   45.3150   32.1300   44.1000 N   0  0  0  0  0  0  0  0  0  0  0  0
   46.4270   32.5820   44.7130 C   0  0  0  0  0  0  0  0  0  0  0  0
   47.1560   33.5770   44.1510 N   0  0  0  0  0  0  0  0  0  0  0  0
   44.0040   32.2900   42.4190 H   0  0  0  0  0  0  0  0  0  0  0  0
   47.3290   29.9220   44.9920 F   0  0  0  0  0  0  0  0  0  0  0  0
   47.3250   30.7360   46.1010 C   0  0  0  0  0  0  0  0  0  0  0  0
   46.8900   32.0320   45.9840 C   0  0  0  0  0  0  0  0  0  0  0  0
   46.9150   32.7910   47.1480 C   0  0  0  0  0  0  0  0  0  0  0  0
   47.3500   32.2630   48.3330 C   0  0  0  0  0  0  0  0  0  0  0  0
   47.7760   30.9480   48.3840 C   0  0  0  0  0  0  0  0  0  0  0  0
   47.7710   30.1500   47.2540 C   0  0  0  0  0  0  0  0  0  0  0  0
   46.5790   33.8170   47.0900 H   0  0  0  0  0  0  0  0  0  0  0  0
   47.3590   32.8790   49.2230 H   0  0  0  0  0  0  0  0  0  0  0  0
   48.1070   30.6020   49.3600 H   0  0  0  0  0  0  0  0  0  0  0  0
   48.2370   28.8040   47.4350 C   0  0  0  0  0  0  0  0  0  0  0  0
   47.4430   27.5730   47.3740 C   0  0  0  0  0  0  0  0  0  0  0  0
   46.3870   27.5100   47.1820 H   0  0  0  0  0  0  0  0  0  0  0  0
   48.1380   26.4200   47.5860 C   0  0  0  0  0  0  0  0  0  0  0  0
   49.5530   26.4380   47.8480 C   0  0  0  0  0  0  0  0  0  0  0  0
   49.8500   28.3120   47.7710 S   0  0  0  0  0  0  0  0  0  0  0  0
   45.2440   34.2890   41.0410 C   0  0  0  0  0  0  0  0  0  0  0  0
   44.9480   35.6270   41.2320 F   0  0  0  0  0  0  0  0  0  0  0  0
   46.3620   34.2630   40.1960 F   0  0  0  0  0  0  0  0  0  0  0  0
   44.2080   33.6960   40.3980 F   0  0  0  0  0  0  0  0  0  0  0  0
   47.4900   35.1130   42.4040 O   0  0  0  0  0  0  0  0  0  0  0  0
   48.8060   35.0420   41.9160 C   0  0  0  0  0  0  0  0  0  0  0  0
   49.6530   35.3250   42.9900 F   0  0  0  0  0  0  0  0  0  0  0  0
   49.0300   33.8110   41.3610 F   0  0  0  0  0  0  0  0  0  0  0  0
   49.0190   36.0800   41.0320 F   0  0  0  0  0  0  0  0  0  0  0  0
  1  6  1  0  0  0  0
  2  3  1  0  0  0  0
  2  1  2  0  0  0  0
  3  4  2  0  0  0  0
  4  5  1  0  0  0  0
  5 10  1  0  0  0  0
  6  5  2  0  0  0  0
  7  3  1  0  0  0  0
  8  9  1  0  0  0  0
  9 14  1  0  0  0  0
 10  9  2  0  0  0  0
 10 11  1  0  0  0  0
 11 12  2  0  0  0  0
 12 13  1  0  0  0  0
 12 16  1  0  0  0  0
 13 17  1  0  0  0  0
 14 18  1  0  0  0  0
 14 13  2  0  0  0  0
 15 11  1  0  0  0  0
 18 23  1  0  0  0  0
 19 18  2  0  0  0  0
 19 21  1  0  0  0  0
 20 19  1  0  0  0  0
 21 22  2  0  0  0  0
 23 22  1  0  0  0  0
 24 25  1  0  0  0  0
 24  2  1  0  0  0  0
 26 24  1  0  0  0  0
 27 24  1  0  0  0  0
 28  1  1  0  0  0  0
 29 28  1  0  0  0  0
 29 30  1  0  0  0  0
 31 29  1  0  0  0  0
 32 29  1  0  0  0  0
M  END
>  <minimizedAffinity>
-5.56535625

>  <minimizedRMSD>
0.451554447

$$$$
