
 OpenBabel03252507043D

 44 47  0  0  0  0  0  0  0  0999 V2000
   41.9370   33.1380   41.8490 C   0  0  0  0  0  0  0  0  0  0  0  0
   41.5290   32.7160   42.7920 H   0  0  0  0  0  0  0  0  0  0  0  0
   42.1260   34.2340   42.1130 H   0  0  0  0  0  0  0  0  0  0  0  0
   41.1190   32.9810   40.8000 N   0  0  0  0  0  0  0  0  0  0  0  0
   40.4150   31.7930   40.4280 C   0  0  0  0  0  0  0  0  0  0  0  0
   39.0110   32.2040   40.8760 C   0  0  0  0  0  0  0  0  0  0  0  0
   38.5080   33.3910   40.2060 C   0  0  0  0  0  0  0  0  0  0  0  0
   39.4510   34.3470   39.6690 C   0  0  0  0  0  0  0  0  0  0  0  0
   40.9180   34.1900   39.9760 C   0  0  0  0  0  0  0  0  0  0  0  0
   40.7500   30.9610   41.0910 H   0  0  0  0  0  0  0  0  0  0  0  0
   40.4270   31.4790   39.3990 H   0  0  0  0  0  0  0  0  0  0  0  0
   39.1130   32.4090   41.9730 H   0  0  0  0  0  0  0  0  0  0  0  0
   38.3560   31.3160   40.7920 H   0  0  0  0  0  0  0  0  0  0  0  0
   37.8360   33.0750   39.3580 H   0  0  0  0  0  0  0  0  0  0  0  0
   37.8060   33.9420   40.8960 H   0  0  0  0  0  0  0  0  0  0  0  0
   39.2070   35.1800   39.0830 H   0  0  0  0  0  0  0  0  0  0  0  0
   42.1370   35.2900   39.4570 S   0  0  0  0  0  0  0  0  0  0  0  0
   42.0050   35.9810   37.9410 C   0  0  0  0  0  0  0  0  0  0  0  0
   42.3380   36.1870   36.6260 C   0  0  0  0  0  0  0  0  0  0  0  0
   43.1540   35.5520   36.3960 H   0  0  0  0  0  0  0  0  0  0  0  0
   41.7020   37.0600   35.8100 C   0  0  0  0  0  3  0  0  0  0  0  0
   40.5860   37.8180   36.4080 C   0  0  0  0  0  3  0  0  0  0  0  0
   40.6100   37.1250   38.1730 S   0  0  0  0  0  0  0  0  0  0  0  0
   43.2950   32.5770   41.6350 C   0  0  0  0  0  0  0  0  0  0  0  0
   43.4710   32.2050   40.6050 H   0  0  0  0  0  0  0  0  0  0  0  0
   43.4010   31.6880   42.2900 H   0  0  0  0  0  0  0  0  0  0  0  0
   44.2840   33.5830   42.0640 C   0  0  0  0  0  0  0  0  0  0  0  0
   43.8720   34.8190   42.5150 C   0  0  0  0  0  0  0  0  0  0  0  0
   44.8430   35.7320   42.8950 C   0  0  0  0  0  0  0  0  0  0  0  0
   46.1590   35.3600   42.8080 N   0  0  0  0  0  0  0  0  0  0  0  0
   46.5120   34.1570   42.3690 C   0  0  0  0  0  0  0  0  0  0  0  0
   45.5620   33.2920   42.0050 N   0  0  0  0  0  0  0  0  0  0  0  0
   42.9160   35.2850   42.6710 H   0  0  0  0  0  0  0  0  0  0  0  0
   44.7150   36.7430   43.2700 H   0  0  0  0  0  0  0  0  0  0  0  0
   47.9390   33.8340   42.3330 C   0  0  0  0  0  0  0  0  0  0  0  0
   48.3540   32.5270   42.1250 C   0  0  0  0  0  0  0  0  0  0  0  0
   49.7110   32.2360   42.1070 C   0  0  0  0  0  0  0  0  0  0  0  0
   50.5380   33.3250   42.3050 C   0  0  0  0  0  0  0  0  0  0  0  0
   50.1550   34.6350   42.5150 C   0  0  0  0  0  0  0  0  0  0  0  0
   48.8140   34.8340   42.5180 N   0  0  0  0  0  0  0  0  0  0  0  0
   47.6530   31.7160   41.9740 H   0  0  0  0  0  0  0  0  0  0  0  0
   50.1260   31.2500   41.9510 H   0  0  0  0  0  0  0  0  0  0  0  0
   51.6110   33.1360   42.2990 H   0  0  0  0  0  0  0  0  0  0  0  0
   50.8660   35.4130   42.6600 H   0  0  0  0  0  0  0  0  0  0  0  0
  1  3  1  0  0  0  0
  1  2  1  0  0  0  0
  4  1  1  0  0  0  0
  5  4  1  0  0  0  0
  5  6  1  0  0  0  0
  5 10  1  0  0  0  0
  6 12  1  0  0  0  0
  7  6  1  0  0  0  0
  7 15  1  0  0  0  0
  8  9  2  0  0  0  0
  8  7  1  0  0  0  0
  9  4  1  0  0  0  0
 11  5  1  0  0  0  0
 13  6  1  0  0  0  0
 14  7  1  0  0  0  0
 16  8  1  0  0  0  0
 17  9  1  0  0  0  0
 18 23  1  0  0  0  0
 18 17  1  0  0  0  0
 19 18  2  0  0  0  0
 20 19  1  0  0  0  0
 21 22  2  0  0  0  0
 21 19  1  0  0  0  0
 22 23  1  0  0  0  0
 24  1  1  0  0  0  0
 24 27  1  0  0  0  0
 24 26  1  0  0  0  0
 25 24  1  0  0  0  0
 27 28  1  0  0  0  0
 28 33  1  0  0  0  0
 28 29  2  0  0  0  0
 29 34  1  0  0  0  0
 30 29  1  0  0  0  0
 31 30  2  0  0  0  0
 32 27  2  0  0  0  0
 32 31  1  0  0  0  0
 35 31  1  0  0  0  0
 35 40  1  0  0  0  0
 36 35  2  0  0  0  0
 37 36  1  0  0  0  0
 37 38  2  0  0  0  0
 38 39  1  0  0  0  0
 39 40  2  0  0  0  0
 39 44  1  0  0  0  0
 41 36  1  0  0  0  0
 42 37  1  0  0  0  0
 43 38  1  0  0  0  0
M  END
>  <minimizedAffinity>
-3.04493451

>  <minimizedRMSD>
0.85870868

$$$$
