
 OpenBabel03242520523D

 19 20  0  0  0  0  0  0  0  0999 V2000
   37.6320   28.6800   43.6740 C   0  0  0  0  0  0  0  0  0  0  0  0
   37.9210   27.3240   43.5040 C   0  0  0  0  0  0  0  0  0  0  0  0
   38.1090   26.7940   42.2300 C   0  0  0  0  0  0  0  0  0  0  0  0
   37.9960   27.6590   41.1960 N   0  0  0  0  0  0  0  0  0  0  0  0
   37.7170   28.9590   41.3700 C   0  0  0  0  0  0  0  0  0  0  0  0
   37.5350   29.4740   42.5930 N   0  0  0  0  0  0  0  0  0  0  0  0
   37.5040   28.9880   44.7110 H   0  0  0  0  0  0  0  0  0  0  0  0
   38.0130   26.6300   44.3160 H   0  0  0  0  0  0  0  0  0  0  0  0
   37.6050   29.8680   40.2010 C   0  0  0  0  0  0  0  0  0  0  0  0
   37.1130   31.2080   40.3560 C   0  0  0  0  0  0  0  0  0  0  0  0
   36.8080   31.6160   41.3060 H   0  0  0  0  0  0  0  0  0  0  0  0
   37.0470   31.9640   39.2140 C   0  0  0  0  0  3  0  0  0  0  0  0
   37.4290   31.4830   37.9670 C   0  0  0  0  0  3  0  0  0  0  0  0
   37.9600   29.7190   38.4350 S   0  0  0  0  0  0  0  0  0  0  0  0
   38.3980   25.4870   41.9200 O   0  0  0  0  0  0  0  0  0  0  0  0
   37.2650   24.6290   41.6770 C   0  0  0  0  0  0  0  0  0  0  0  0
   36.3400   24.7680   42.6970 F   0  0  0  0  0  0  0  0  0  0  0  0
   36.6860   25.0350   40.4670 F   0  0  0  0  0  0  0  0  0  0  0  0
   37.6810   23.2950   41.5220 F   0  0  0  0  0  0  0  0  0  0  0  0
  1  7  1  0  0  0  0
  2  1  1  0  0  0  0
  2  8  1  0  0  0  0
  3  2  2  0  0  0  0
  4  5  2  0  0  0  0
  4  3  1  0  0  0  0
  5  6  1  0  0  0  0
  6  1  2  0  0  0  0
  9 10  2  0  0  0  0
  9  5  1  0  0  0  0
 10 11  1  0  0  0  0
 12 10  1  0  0  0  0
 13 14  1  0  0  0  0
 13 12  2  0  0  0  0
 14  9  1  0  0  0  0
 15  3  1  0  0  0  0
 16 15  1  0  0  0  0
 16 17  1  0  0  0  0
 18 16  1  0  0  0  0
 19 16  1  0  0  0  0
M  END
>  <minimizedAffinity>
-4.45041752

$$$$

 OpenBabel03242520523D

 19 20  0  0  0  0  0  0  0  0999 V2000
   37.7490   28.0310   43.6410 C   0  0  0  0  0  0  0  0  0  0  0  0
   37.9940   29.2800   43.0670 C   0  0  0  0  0  0  0  0  0  0  0  0
   37.8830   29.4620   41.6910 C   0  0  0  0  0  0  0  0  0  0  0  0
   37.5310   28.3750   40.9680 N   0  0  0  0  0  0  0  0  0  0  0  0
   37.2970   27.1790   41.5280 C   0  0  0  0  0  0  0  0  0  0  0  0
   37.4030   26.9990   42.8510 N   0  0  0  0  0  0  0  0  0  0  0  0
   37.8640   28.0000   44.7240 H   0  0  0  0  0  0  0  0  0  0  0  0
   38.2740   30.1480   43.6310 H   0  0  0  0  0  0  0  0  0  0  0  0
   36.9120   26.0160   40.6890 C   0  0  0  0  0  0  0  0  0  0  0  0
   36.8620   24.6930   41.2430 C   0  0  0  0  0  0  0  0  0  0  0  0
   37.0950   24.4780   42.2740 H   0  0  0  0  0  0  0  0  0  0  0  0
   36.4960   23.6900   40.3840 C   0  0  0  0  0  3  0  0  0  0  0  0
   36.1850   23.9160   39.0480 C   0  0  0  0  0  3  0  0  0  0  0  0
   36.4360   25.7980   38.9580 S   0  0  0  0  0  0  0  0  0  0  0  0
   38.0940   30.6290   40.9990 O   0  0  0  0  0  0  0  0  0  0  0  0
   36.9120   31.3270   40.5580 C   0  0  0  0  0  0  0  0  0  0  0  0
   35.8770   31.1120   41.4510 F   0  0  0  0  0  0  0  0  0  0  0  0
   37.2210   32.6940   40.5270 F   0  0  0  0  0  0  0  0  0  0  0  0
   36.5690   30.9400   39.2510 F   0  0  0  0  0  0  0  0  0  0  0  0
  1  7  1  0  0  0  0
  2  8  1  0  0  0  0
  2  1  1  0  0  0  0
  3  2  2  0  0  0  0
  4  5  2  0  0  0  0
  4  3  1  0  0  0  0
  5  6  1  0  0  0  0
  6  1  2  0  0  0  0
  9 10  2  0  0  0  0
  9  5  1  0  0  0  0
 10 11  1  0  0  0  0
 12 10  1  0  0  0  0
 13 12  2  0  0  0  0
 14 13  1  0  0  0  0
 14  9  1  0  0  0  0
 15  3  1  0  0  0  0
 16 15  1  0  0  0  0
 16 17  1  0  0  0  0
 18 16  1  0  0  0  0
 19 16  1  0  0  0  0
M  END
>  <minimizedAffinity>
-4.42486143

$$$$

 OpenBabel03242520523D

 19 20  0  0  0  0  0  0  0  0999 V2000
   35.4460   29.0730   40.6770 C   0  0  0  0  0  0  0  0  0  0  0  0
   35.8970   30.3890   40.5450 C   0  0  0  0  0  0  0  0  0  0  0  0
   37.1690   30.7480   40.9810 C   0  0  0  0  0  0  0  0  0  0  0  0
   37.9190   29.7640   41.5260 N   0  0  0  0  0  0  0  0  0  0  0  0
   37.4770   28.5030   41.6490 C   0  0  0  0  0  0  0  0  0  0  0  0
   36.2530   28.1520   41.2310 N   0  0  0  0  0  0  0  0  0  0  0  0
   34.4360   28.9010   40.3040 H   0  0  0  0  0  0  0  0  0  0  0  0
   35.3110   31.1770   40.1140 H   0  0  0  0  0  0  0  0  0  0  0  0
   38.3400   27.4580   42.2540 C   0  0  0  0  0  0  0  0  0  0  0  0
   39.3800   27.8090   43.1800 C   0  0  0  0  0  0  0  0  0  0  0  0
   39.5840   28.8250   43.4770 H   0  0  0  0  0  0  0  0  0  0  0  0
   40.1210   26.7690   43.6800 C   0  0  0  0  0  3  0  0  0  0  0  0
   39.8970   25.4440   43.3270 C   0  0  0  0  0  3  0  0  0  0  0  0
   38.4430   25.6580   42.1200 S   0  0  0  0  0  0  0  0  0  0  0  0
   37.7360   31.9980   40.9120 O   0  0  0  0  0  0  0  0  0  0  0  0
   38.0080   32.4980   39.5870 C   0  0  0  0  0  0  0  0  0  0  0  0
   36.9120   33.1970   39.1130 F   0  0  0  0  0  0  0  0  0  0  0  0
   39.1040   33.3650   39.6850 F   0  0  0  0  0  0  0  0  0  0  0  0
   38.3740   31.4470   38.7280 F   0  0  0  0  0  0  0  0  0  0  0  0
  1  6  1  0  0  0  0
  2  1  2  0  0  0  0
  2  3  1  0  0  0  0
  3  4  2  0  0  0  0
  4  5  1  0  0  0  0
  5  9  1  0  0  0  0
  6  5  2  0  0  0  0
  7  1  1  0  0  0  0
  8  2  1  0  0  0  0
  9 10  2  0  0  0  0
 10 11  1  0  0  0  0
 10 12  1  0  0  0  0
 13 12  2  0  0  0  0
 14  9  1  0  0  0  0
 14 13  1  0  0  0  0
 15  3  1  0  0  0  0
 16 18  1  0  0  0  0
 16 15  1  0  0  0  0
 17 16  1  0  0  0  0
 19 16  1  0  0  0  0
M  END
>  <minimizedAffinity>
-4.38617325

$$$$

 OpenBabel03242520523D

 19 20  0  0  0  0  0  0  0  0999 V2000
   40.1330   27.7500   43.3260 C   0  0  0  0  0  0  0  0  0  0  0  0
   39.1960   26.7140   43.3300 C   0  0  0  0  0  0  0  0  0  0  0  0
   37.9590   26.8750   42.7110 C   0  0  0  0  0  0  0  0  0  0  0  0
   37.7320   28.0710   42.1220 N   0  0  0  0  0  0  0  0  0  0  0  0
   38.6380   29.0610   42.1250 C   0  0  0  0  0  0  0  0  0  0  0  0
   39.8300   28.9110   42.7190 N   0  0  0  0  0  0  0  0  0  0  0  0
   41.0660   27.5180   43.8380 H   0  0  0  0  0  0  0  0  0  0  0  0
   39.3650   25.7630   43.7940 H   0  0  0  0  0  0  0  0  0  0  0  0
   38.3410   30.3560   41.4620 C   0  0  0  0  0  0  0  0  0  0  0  0
   37.0410   30.6190   40.9110 C   0  0  0  0  0  0  0  0  0  0  0  0
   36.2320   29.9070   40.9490 H   0  0  0  0  0  0  0  0  0  0  0  0
   36.8710   31.8430   40.3200 C   0  0  0  0  0  3  0  0  0  0  0  0
   37.8820   32.7940   40.2470 C   0  0  0  0  0  3  0  0  0  0  0  0
   39.2860   31.8590   41.1250 S   0  0  0  0  0  0  0  0  0  0  0  0
   36.9510   25.9440   42.6400 O   0  0  0  0  0  0  0  0  0  0  0  0
   37.2270   24.7730   41.8460 C   0  0  0  0  0  0  0  0  0  0  0  0
   37.9570   25.1240   40.7250 F   0  0  0  0  0  0  0  0  0  0  0  0
   37.9840   23.9000   42.6380 F   0  0  0  0  0  0  0  0  0  0  0  0
   36.0320   24.1120   41.5100 F   0  0  0  0  0  0  0  0  0  0  0  0
  1  2  1  0  0  0  0
  1  7  1  0  0  0  0
  2  8  1  0  0  0  0
  3  2  2  0  0  0  0
  4  5  2  0  0  0  0
  4  3  1  0  0  0  0
  5  6  1  0  0  0  0
  6  1  2  0  0  0  0
  9  5  1  0  0  0  0
 10 11  1  0  0  0  0
 10  9  2  0  0  0  0
 12 10  1  0  0  0  0
 13 12  2  0  0  0  0
 13 14  1  0  0  0  0
 14  9  1  0  0  0  0
 15  3  1  0  0  0  0
 16 18  1  0  0  0  0
 16 15  1  0  0  0  0
 17 16  1  0  0  0  0
 19 16  1  0  0  0  0
M  END
>  <minimizedAffinity>
-4.37152004

$$$$

 OpenBabel03242520523D

 19 20  0  0  0  0  0  0  0  0999 V2000
   38.8010   29.5100   42.8810 C   0  0  0  0  0  0  0  0  0  0  0  0
   38.7910   30.4710   41.8680 C   0  0  0  0  0  0  0  0  0  0  0  0
   38.3140   30.1570   40.5980 C   0  0  0  0  0  0  0  0  0  0  0  0
   37.8730   28.8910   40.4180 N   0  0  0  0  0  0  0  0  0  0  0  0
   37.8870   27.9750   41.3970 C   0  0  0  0  0  0  0  0  0  0  0  0
   38.3450   28.2720   42.6210 N   0  0  0  0  0  0  0  0  0  0  0  0
   39.1950   29.8620   43.8350 H   0  0  0  0  0  0  0  0  0  0  0  0
   39.1390   31.4770   42.0000 H   0  0  0  0  0  0  0  0  0  0  0  0
   37.3890   26.5980   41.1480 C   0  0  0  0  0  0  0  0  0  0  0  0
   37.3140   25.6390   42.2130 C   0  0  0  0  0  0  0  0  0  0  0  0
   37.6080   25.8620   43.2270 H   0  0  0  0  0  0  0  0  0  0  0  0
   36.8430   24.3970   41.8770 C   0  0  0  0  0  3  0  0  0  0  0  0
   36.4510   24.0620   40.5860 C   0  0  0  0  0  3  0  0  0  0  0  0
   36.7850   25.7080   39.6950 S   0  0  0  0  0  0  0  0  0  0  0  0
   38.2470   31.0000   39.5160 O   0  0  0  0  0  0  0  0  0  0  0  0
   36.9420   31.5260   39.2020 C   0  0  0  0  0  0  0  0  0  0  0  0
   37.0520   32.8400   38.7810 F   0  0  0  0  0  0  0  0  0  0  0  0
   36.4170   30.7470   38.1620 F   0  0  0  0  0  0  0  0  0  0  0  0
   36.0800   31.3980   40.3050 F   0  0  0  0  0  0  0  0  0  0  0  0
  1  7  1  0  0  0  0
  2  8  1  0  0  0  0
  2  1  2  0  0  0  0
  3  2  1  0  0  0  0
  4  3  2  0  0  0  0
  4  5  1  0  0  0  0
  5  6  2  0  0  0  0
  6  1  1  0  0  0  0
  9  5  1  0  0  0  0
  9 10  2  0  0  0  0
 10 11  1  0  0  0  0
 12 10  1  0  0  0  0
 13 12  2  0  0  0  0
 14 13  1  0  0  0  0
 14  9  1  0  0  0  0
 15  3  1  0  0  0  0
 16 15  1  0  0  0  0
 16 19  1  0  0  0  0
 17 16  1  0  0  0  0
 18 16  1  0  0  0  0
M  END
>  <minimizedAffinity>
-4.28699732

$$$$

 OpenBabel03242520523D

 19 20  0  0  0  0  0  0  0  0999 V2000
   36.2290   28.9540   38.6110 C   0  0  0  0  0  0  0  0  0  0  0  0
   35.9710   28.1620   39.7320 C   0  0  0  0  0  0  0  0  0  0  0  0
   36.3940   28.5640   40.9960 C   0  0  0  0  0  0  0  0  0  0  0  0
   37.0550   29.7420   41.0620 N   0  0  0  0  0  0  0  0  0  0  0  0
   37.2980   30.4950   39.9790 C   0  0  0  0  0  0  0  0  0  0  0  0
   36.8930   30.1130   38.7610 N   0  0  0  0  0  0  0  0  0  0  0  0
   35.8540   28.5450   37.6730 H   0  0  0  0  0  0  0  0  0  0  0  0
   35.4480   27.2270   39.6910 H   0  0  0  0  0  0  0  0  0  0  0  0
   38.0270   31.7830   40.1060 C   0  0  0  0  0  0  0  0  0  0  0  0
   37.3750   33.0290   39.8190 C   0  0  0  0  0  0  0  0  0  0  0  0
   36.3450   33.0950   39.5040 H   0  0  0  0  0  0  0  0  0  0  0  0
   38.1370   34.1590   39.9650 C   0  0  0  0  0  3  0  0  0  0  0  0
   39.4670   34.1260   40.3680 C   0  0  0  0  0  3  0  0  0  0  0  0
   39.7090   32.2520   40.5770 S   0  0  0  0  0  0  0  0  0  0  0  0
   36.2080   27.8870   42.1760 O   0  0  0  0  0  0  0  0  0  0  0  0
   37.2570   26.9720   42.5540 C   0  0  0  0  0  0  0  0  0  0  0  0
   37.9100   27.4420   43.6790 F   0  0  0  0  0  0  0  0  0  0  0  0
   36.6520   25.7430   42.8480 F   0  0  0  0  0  0  0  0  0  0  0  0
   38.1410   26.7640   41.4810 F   0  0  0  0  0  0  0  0  0  0  0  0
  1  6  2  0  0  0  0
  1  2  1  0  0  0  0
  2  3  2  0  0  0  0
  3  4  1  0  0  0  0
  3 15  1  0  0  0  0
  5  9  1  0  0  0  0
  5  4  2  0  0  0  0
  6  5  1  0  0  0  0
  7  1  1  0  0  0  0
  8  2  1  0  0  0  0
  9 14  1  0  0  0  0
 10 12  1  0  0  0  0
 10  9  2  0  0  0  0
 11 10  1  0  0  0  0
 12 13  2  0  0  0  0
 13 14  1  0  0  0  0
 15 16  1  0  0  0  0
 16 18  1  0  0  0  0
 16 17  1  0  0  0  0
 19 16  1  0  0  0  0
M  END
>  <minimizedAffinity>
-4.27916908

$$$$

 OpenBabel03242520523D

 19 20  0  0  0  0  0  0  0  0999 V2000
   36.1490   28.1900   40.9740 C   0  0  0  0  0  0  0  0  0  0  0  0
   36.9160   27.5290   41.9370 C   0  0  0  0  0  0  0  0  0  0  0  0
   38.0120   28.1580   42.5220 C   0  0  0  0  0  0  0  0  0  0  0  0
   38.2770   29.4170   42.1060 N   0  0  0  0  0  0  0  0  0  0  0  0
   37.5340   30.0420   41.1800 C   0  0  0  0  0  0  0  0  0  0  0  0
   36.4780   29.4430   40.6140 N   0  0  0  0  0  0  0  0  0  0  0  0
   35.3150   27.6070   40.5820 H   0  0  0  0  0  0  0  0  0  0  0  0
   36.7150   26.5320   42.2730 H   0  0  0  0  0  0  0  0  0  0  0  0
   37.8660   31.4270   40.7580 C   0  0  0  0  0  0  0  0  0  0  0  0
   36.9810   32.1680   39.9050 C   0  0  0  0  0  0  0  0  0  0  0  0
   36.0500   31.7690   39.5350 H   0  0  0  0  0  0  0  0  0  0  0  0
   37.3810   33.4370   39.5730 C   0  0  0  0  0  3  0  0  0  0  0  0
   38.5700   33.9960   40.0260 C   0  0  0  0  0  3  0  0  0  0  0  0
   39.2450   32.5550   41.0660 S   0  0  0  0  0  0  0  0  0  0  0  0
   38.8470   27.6280   43.4750 O   0  0  0  0  0  0  0  0  0  0  0  0
   40.1770   27.2860   43.0330 C   0  0  0  0  0  0  0  0  0  0  0  0
   41.0630   28.2870   43.3880 F   0  0  0  0  0  0  0  0  0  0  0  0
   40.5380   26.0960   43.6790 F   0  0  0  0  0  0  0  0  0  0  0  0
   40.1880   27.0380   41.6500 F   0  0  0  0  0  0  0  0  0  0  0  0
  1  2  1  0  0  0  0
  2  8  1  0  0  0  0
  2  3  2  0  0  0  0
  3 15  1  0  0  0  0
  4  3  1  0  0  0  0
  5  4  2  0  0  0  0
  6  1  2  0  0  0  0
  6  5  1  0  0  0  0
  7  1  1  0  0  0  0
  9 14  1  0  0  0  0
  9  5  1  0  0  0  0
 10  9  2  0  0  0  0
 11 10  1  0  0  0  0
 12 10  1  0  0  0  0
 12 13  2  0  0  0  0
 13 14  1  0  0  0  0
 16 17  1  0  0  0  0
 16 15  1  0  0  0  0
 16 18  1  0  0  0  0
 19 16  1  0  0  0  0
M  END
>  <minimizedAffinity>
-4.24882698

$$$$

 OpenBabel03242520523D

 19 20  0  0  0  0  0  0  0  0999 V2000
   40.2820   25.2390   43.3130 C   0  0  0  0  0  0  0  0  0  0  0  0
   39.6950   26.4520   43.6790 C   0  0  0  0  0  0  0  0  0  0  0  0
   38.4570   26.8250   43.1640 C   0  0  0  0  0  0  0  0  0  0  0  0
   37.8760   25.9550   42.3070 N   0  0  0  0  0  0  0  0  0  0  0  0
   38.4470   24.7920   41.9600 C   0  0  0  0  0  0  0  0  0  0  0  0
   39.6390   24.4290   42.4530 N   0  0  0  0  0  0  0  0  0  0  0  0
   41.2500   25.0470   43.7740 H   0  0  0  0  0  0  0  0  0  0  0  0
   40.1470   27.1490   44.3570 H   0  0  0  0  0  0  0  0  0  0  0  0
   37.7670   23.8700   41.0150 C   0  0  0  0  0  0  0  0  0  0  0  0
   38.4030   22.6580   40.5830 C   0  0  0  0  0  0  0  0  0  0  0  0
   39.3860   22.3600   40.9140 H   0  0  0  0  0  0  0  0  0  0  0  0
   37.6910   21.8780   39.7090 C   0  0  0  0  0  3  0  0  0  0  0  0
   36.4230   22.2200   39.2550 C   0  0  0  0  0  3  0  0  0  0  0  0
   36.1700   23.8680   40.1670 S   0  0  0  0  0  0  0  0  0  0  0  0
   37.7690   27.9820   43.4380 O   0  0  0  0  0  0  0  0  0  0  0  0
   38.0950   29.1220   42.6170 C   0  0  0  0  0  0  0  0  0  0  0  0
   36.9770   29.9210   42.4550 F   0  0  0  0  0  0  0  0  0  0  0  0
   39.0910   29.8470   43.2860 F   0  0  0  0  0  0  0  0  0  0  0  0
   38.6280   28.7060   41.3850 F   0  0  0  0  0  0  0  0  0  0  0  0
  1  2  1  0  0  0  0
  1  7  1  0  0  0  0
  2  8  1  0  0  0  0
  3 15  1  0  0  0  0
  3  2  2  0  0  0  0
  4  3  1  0  0  0  0
  5  4  2  0  0  0  0
  5  6  1  0  0  0  0
  6  1  2  0  0  0  0
  9  5  1  0  0  0  0
 10 11  1  0  0  0  0
 10  9  2  0  0  0  0
 12 10  1  0  0  0  0
 13 12  2  0  0  0  0
 13 14  1  0  0  0  0
 14  9  1  0  0  0  0
 16 18  1  0  0  0  0
 16 15  1  0  0  0  0
 17 16  1  0  0  0  0
 19 16  1  0  0  0  0
M  END
>  <minimizedAffinity>
-4.08463097

$$$$

 OpenBabel03242520523D

 19 20  0  0  0  0  0  0  0  0999 V2000
   41.3430   28.4280   42.7780 C   0  0  0  0  0  0  0  0  0  0  0  0
   40.1930   27.8150   43.2810 C   0  0  0  0  0  0  0  0  0  0  0  0
   38.9500   28.4290   43.1530 C   0  0  0  0  0  0  0  0  0  0  0  0
   38.9310   29.6260   42.5260 N   0  0  0  0  0  0  0  0  0  0  0  0
   40.0420   30.2070   42.0460 C   0  0  0  0  0  0  0  0  0  0  0  0
   41.2400   29.6210   42.1670 N   0  0  0  0  0  0  0  0  0  0  0  0
   42.2620   27.8620   42.9320 H   0  0  0  0  0  0  0  0  0  0  0  0
   40.1960   26.8660   43.7810 H   0  0  0  0  0  0  0  0  0  0  0  0
   39.9680   31.5230   41.3630 C   0  0  0  0  0  0  0  0  0  0  0  0
   41.1590   32.2730   41.0800 C   0  0  0  0  0  0  0  0  0  0  0  0
   42.1470   31.9280   41.3410 H   0  0  0  0  0  0  0  0  0  0  0  0
   40.9810   33.4760   40.4480 C   0  0  0  0  0  3  0  0  0  0  0  0
   39.7290   33.9630   40.0900 C   0  0  0  0  0  3  0  0  0  0  0  0
   38.6250   32.5500   40.7210 S   0  0  0  0  0  0  0  0  0  0  0  0
   37.7460   27.9400   43.5990 O   0  0  0  0  0  0  0  0  0  0  0  0
   36.9210   27.2890   42.6110 C   0  0  0  0  0  0  0  0  0  0  0  0
   37.7170   26.7280   41.6290 F   0  0  0  0  0  0  0  0  0  0  0  0
   36.2080   26.2760   43.2650 F   0  0  0  0  0  0  0  0  0  0  0  0
   35.9840   28.1910   42.0780 F   0  0  0  0  0  0  0  0  0  0  0  0
  1  7  1  0  0  0  0
  1  2  1  0  0  0  0
  2  8  1  0  0  0  0
  3  2  2  0  0  0  0
  3 15  1  0  0  0  0
  4  3  1  0  0  0  0
  5  6  1  0  0  0  0
  5  4  2  0  0  0  0
  6  1  2  0  0  0  0
  9  5  1  0  0  0  0
 10 11  1  0  0  0  0
 10  9  2  0  0  0  0
 12 10  1  0  0  0  0
 13 12  2  0  0  0  0
 13 14  1  0  0  0  0
 14  9  1  0  0  0  0
 16 18  1  0  0  0  0
 16 15  1  0  0  0  0
 17 16  1  0  0  0  0
 19 16  1  0  0  0  0
M  END
>  <minimizedAffinity>
-4.05566788

$$$$
