REMARK  Name = 
REMARK  2 active torsions:
REMARK  status: ('A' for Active; 'I' for Inactive)
REMARK    1  A    between atoms: C_3  and  C_7
REMARK    2  A    between atoms: C_7  and  C_13
REMARK                            x       y       z     vdW  Elec       q    Type
REMARK                         _______ _______ _______ _____ _____    ______ ____
ROOT
ATOM      1  C   UNL     1      44.570  36.001  44.490  0.00  0.00    +0.000 A 
ATOM      2  C   UNL     1      45.305  35.925  43.294  0.00  0.00    +0.000 A 
ATOM      3  C   UNL     1      46.191  34.862  43.171  0.00  0.00    +0.000 A 
ATOM      4  N   UNL     1      46.301  33.960  44.203  0.00  0.00    +0.000 NA
ATOM      5  C   UNL     1      45.568  34.086  45.330  0.00  0.00    +0.000 A 
ATOM      6  N   UNL     1      44.708  35.102  45.470  0.00  0.00    +0.000 NA
ATOM      7  H   UNL     1      43.884  36.845  44.556  0.00  0.00    +0.000 HD
ATOM      8  H   UNL     1      45.197  36.639  42.512  0.00  0.00    +0.000 HD
ATOM      9  H   UNL     1      45.658  33.374  46.139  0.00  0.00    +0.000 HD
ENDROOT
BRANCH   3  10
ATOM     10  C   UNL     1      46.958  34.780  41.925  0.00  0.00    +0.000 C 
ATOM     11  H   UNL     1      47.236  33.731  41.680  0.00  0.00    +0.000 HD
ATOM     12  H   UNL     1      46.376  35.213  41.091  0.00  0.00    +0.000 HD
BRANCH  10  13
ATOM     13  C   UNL     1      48.228  35.530  42.076  0.00  0.00    +0.000 A 
ATOM     14  C   UNL     1      48.990  35.760  43.177  0.00  0.00    +0.000 A 
ATOM     15  H   UNL     1      48.658  35.350  44.121  0.00  0.00    +0.000 HD
ATOM     16  C   UNL     1      50.137  36.501  43.019  0.00  0.00    +0.000 A 
ATOM     17  C   UNL     1      50.464  36.971  41.789  0.00  0.00    +0.000 A 
ATOM     18  S   UNL     1      49.080  36.347  40.736  0.00  0.00    +0.000 S 
ENDBRANCH  10  13
ENDBRANCH   3  10
TORSDOF 2
