
 OpenBabel03242514183D

 38 40  0  0  0  0  0  0  0  0999 V2000
   37.8430   31.6170   39.9790 C   0  0  0  0  0  0  0  0  0  0  0  0
   39.1680   31.6060   40.3700 C   0  0  0  0  0  0  0  0  0  0  0  0
   39.7990   32.8130   40.4930 C   0  0  0  0  0  0  0  0  0  0  0  0
   39.0810   33.9680   40.2200 N   0  0  0  0  0  0  0  0  0  0  0  0
   37.8060   33.9600   39.8450 C   0  0  0  0  0  0  0  0  0  0  0  0
   37.2140   32.7850   39.7340 N   0  0  0  0  0  0  0  0  0  0  0  0
   40.8080   33.0620   40.7780 H   0  0  0  0  0  0  0  0  0  0  0  0
   37.2810   34.8840   39.6420 H   0  0  0  0  0  0  0  0  0  0  0  0
   37.2230   30.2980   39.8250 C   0  0  0  0  0  0  0  0  0  0  0  0
   37.1030   29.8130   38.4620 C   0  0  0  0  0  0  0  0  0  0  0  0
   35.7060   29.6860   38.0060 C   0  0  0  0  0  0  0  0  0  0  0  0
   34.9160   28.7630   38.9210 C   0  0  0  0  0  0  0  0  0  0  0  0
   35.1580   29.0290   40.3650 C   0  0  0  0  0  0  0  0  0  0  0  0
   35.8950   30.3310   40.5750 C   0  0  0  0  0  0  0  0  0  0  0  0
   37.7760   29.5250   40.4260 H   0  0  0  0  0  0  0  0  0  0  0  0
   37.6180   28.8410   38.2200 H   0  0  0  0  0  0  0  0  0  0  0  0
   37.5950   30.5510   37.7620 H   0  0  0  0  0  0  0  0  0  0  0  0
   35.2210   30.6970   38.1430 H   0  0  0  0  0  0  0  0  0  0  0  0
   35.5680   29.3830   36.9690 H   0  0  0  0  0  0  0  0  0  0  0  0
   35.2860   27.7160   38.7110 H   0  0  0  0  0  0  0  0  0  0  0  0
   33.8410   28.7670   38.6260 H   0  0  0  0  0  0  0  0  0  0  0  0
   35.7240   28.2020   40.8710 H   0  0  0  0  0  0  0  0  0  0  0  0
   34.1810   29.1000   40.8790 H   0  0  0  0  0  0  0  0  0  0  0  0
   36.1370   30.4600   41.6430 H   0  0  0  0  0  0  0  0  0  0  0  0
   35.2850   31.1700   40.1970 H   0  0  0  0  0  0  0  0  0  0  0  0
   40.0190   30.6480   40.6700 O   0  0  0  0  0  0  0  0  0  0  0  0
   40.3890   29.9310   41.7600 C   0  0  0  0  0  0  0  0  0  0  0  0
   41.3630   30.1320   42.2290 H   0  0  0  0  0  0  0  0  0  0  0  0
   40.4550   28.8460   41.4530 H   0  0  0  0  0  0  0  0  0  0  0  0
   39.3840   29.9300   42.8930 C   0  0  0  0  0  0  0  0  0  0  0  0
   38.8660   30.9120   42.8550 H   0  0  0  0  0  0  0  0  0  0  0  0
   39.9790   29.9640   43.8320 H   0  0  0  0  0  0  0  0  0  0  0  0
   38.4470   28.8650   42.9360 C   0  0  0  0  0  0  0  0  0  0  0  0
   37.3150   28.5430   43.6060 C   0  0  0  0  0  0  0  0  0  0  0  0
   37.0250   29.3050   44.3170 H   0  0  0  0  0  0  0  0  0  0  0  0
   36.6250   27.3960   43.4080 C   0  0  0  0  0  3  0  0  0  0  0  0
   37.1750   26.5150   42.4210 C   0  0  0  0  0  3  0  0  0  0  0  0
   38.6840   27.3910   41.8130 S   0  0  0  0  0  0  0  0  0  0  0  0
  1  2  1  0  0  0  0
  2  3  2  0  0  0  0
  2 26  1  0  0  0  0
  3  7  1  0  0  0  0
  4  3  1  0  0  0  0
  5  4  2  0  0  0  0
  6  5  1  0  0  0  0
  6  1  2  0  0  0  0
  8  5  1  0  0  0  0
  9  1  1  0  0  0  0
  9 15  1  0  0  0  0
  9 14  1  0  0  0  0
 10  9  1  0  0  0  0
 11 18  1  0  0  0  0
 11 10  1  0  0  0  0
 11 12  1  0  0  0  0
 12 13  1  0  0  0  0
 13 14  1  0  0  0  0
 13 22  1  0  0  0  0
 13 23  1  0  0  0  0
 14 24  1  0  0  0  0
 16 10  1  0  0  0  0
 17 10  1  0  0  0  0
 19 11  1  0  0  0  0
 20 12  1  0  0  0  0
 21 12  1  0  0  0  0
 25 14  1  0  0  0  0
 26 27  1  0  0  0  0
 27 28  1  0  0  0  0
 27 30  1  0  0  0  0
 29 27  1  0  0  0  0
 30 33  1  0  0  0  0
 30 32  1  0  0  0  0
 31 30  1  0  0  0  0
 33 34  2  0  0  0  0
 34 35  1  0  0  0  0
 36 34  1  0  0  0  0
 37 36  2  0  0  0  0
 38 37  1  0  0  0  0
 38 33  1  0  0  0  0
M  END
>  <minimizedAffinity>
-5.14933825

$$$$

 OpenBabel03242514183D

 38 40  0  0  0  0  0  0  0  0999 V2000
   37.6370   30.5360   38.7640 C   0  0  0  0  0  0  0  0  0  0  0  0
   37.1180   29.3700   39.2920 C   0  0  0  0  0  0  0  0  0  0  0  0
   36.5120   28.5010   38.4280 C   0  0  0  0  0  0  0  0  0  0  0  0
   36.4530   28.8350   37.0820 N   0  0  0  0  0  0  0  0  0  0  0  0
   36.9580   29.9620   36.5910 C   0  0  0  0  0  0  0  0  0  0  0  0
   37.5400   30.7870   37.4420 N   0  0  0  0  0  0  0  0  0  0  0  0
   36.0410   27.5450   38.5930 H   0  0  0  0  0  0  0  0  0  0  0  0
   36.8920   30.1850   35.5340 H   0  0  0  0  0  0  0  0  0  0  0  0
   38.2400   31.4520   39.7350 C   0  0  0  0  0  0  0  0  0  0  0  0
   37.3530   32.4570   40.2910 C   0  0  0  0  0  0  0  0  0  0  0  0
   37.7130   33.8340   39.9050 C   0  0  0  0  0  0  0  0  0  0  0  0
   39.1390   34.1610   40.3220 C   0  0  0  0  0  0  0  0  0  0  0  0
   40.1020   33.0730   40.0040 C   0  0  0  0  0  0  0  0  0  0  0  0
   39.4900   32.0390   39.0880 C   0  0  0  0  0  0  0  0  0  0  0  0
   38.7030   30.8800   40.5860 H   0  0  0  0  0  0  0  0  0  0  0  0
   37.2150   32.4530   41.4090 H   0  0  0  0  0  0  0  0  0  0  0  0
   36.3070   32.2850   39.8980 H   0  0  0  0  0  0  0  0  0  0  0  0
   37.7380   33.8650   38.7760 H   0  0  0  0  0  0  0  0  0  0  0  0
   37.0390   34.6180   40.2490 H   0  0  0  0  0  0  0  0  0  0  0  0
   39.1230   34.2720   41.4460 H   0  0  0  0  0  0  0  0  0  0  0  0
   39.4280   35.1630   39.9260 H   0  0  0  0  0  0  0  0  0  0  0  0
   40.4980   32.5610   40.9220 H   0  0  0  0  0  0  0  0  0  0  0  0
   40.9760   33.5140   39.4900 H   0  0  0  0  0  0  0  0  0  0  0  0
   40.1940   31.2030   38.9400 H   0  0  0  0  0  0  0  0  0  0  0  0
   39.2160   32.5080   38.1270 H   0  0  0  0  0  0  0  0  0  0  0  0
   37.0640   28.8680   40.5070 O   0  0  0  0  0  0  0  0  0  0  0  0
   36.5880   27.7560   41.1200 C   0  0  0  0  0  0  0  0  0  0  0  0
   36.7710   26.7720   40.6630 H   0  0  0  0  0  0  0  0  0  0  0  0
   35.4620   27.8350   41.1510 H   0  0  0  0  0  0  0  0  0  0  0  0
   36.9850   27.6100   42.5740 C   0  0  0  0  0  0  0  0  0  0  0  0
   36.0720   27.2910   43.1190 H   0  0  0  0  0  0  0  0  0  0  0  0
   37.1850   28.6410   42.9440 H   0  0  0  0  0  0  0  0  0  0  0  0
   38.0780   26.7560   42.8720 C   0  0  0  0  0  0  0  0  0  0  0  0
   39.2250   26.7980   43.5910 C   0  0  0  0  0  0  0  0  0  0  0  0
   39.3670   27.7480   44.0870 H   0  0  0  0  0  0  0  0  0  0  0  0
   40.0970   25.7660   43.6770 C   0  0  0  0  0  3  0  0  0  0  0  0
   39.7270   24.5920   42.9450 C   0  0  0  0  0  3  0  0  0  0  0  0
   38.1180   25.0330   42.1520 S   0  0  0  0  0  0  0  0  0  0  0  0
  1  2  1  0  0  0  0
  1  9  1  0  0  0  0
  2 26  1  0  0  0  0
  3  7  1  0  0  0  0
  3  2  2  0  0  0  0
  4  3  1  0  0  0  0
  5  4  2  0  0  0  0
  5  6  1  0  0  0  0
  6  1  2  0  0  0  0
  8  5  1  0  0  0  0
  9 10  1  0  0  0  0
  9 15  1  0  0  0  0
 10 16  1  0  0  0  0
 11 19  1  0  0  0  0
 11 10  1  0  0  0  0
 11 12  1  0  0  0  0
 12 20  1  0  0  0  0
 13 12  1  0  0  0  0
 13 22  1  0  0  0  0
 14  9  1  0  0  0  0
 14 13  1  0  0  0  0
 17 10  1  0  0  0  0
 18 11  1  0  0  0  0
 21 12  1  0  0  0  0
 23 13  1  0  0  0  0
 24 14  1  0  0  0  0
 25 14  1  0  0  0  0
 26 27  1  0  0  0  0
 27 29  1  0  0  0  0
 27 30  1  0  0  0  0
 28 27  1  0  0  0  0
 30 33  1  0  0  0  0
 30 32  1  0  0  0  0
 30 31  1  0  0  0  0
 33 34  2  0  0  0  0
 34 36  1  0  0  0  0
 34 35  1  0  0  0  0
 37 36  2  0  0  0  0
 38 33  1  0  0  0  0
 38 37  1  0  0  0  0
M  END
>  <minimizedAffinity>
-4.73613405

$$$$

 OpenBabel03242514183D

 38 40  0  0  0  0  0  0  0  0999 V2000
   38.2570   27.8430   41.8770 C   0  0  0  0  0  0  0  0  0  0  0  0
   37.8940   29.1680   42.0140 C   0  0  0  0  0  0  0  0  0  0  0  0
   38.8540   30.0430   42.4410 C   0  0  0  0  0  0  0  0  0  0  0  0
   40.1250   29.5560   42.7100 N   0  0  0  0  0  0  0  0  0  0  0  0
   40.4560   28.2770   42.5730 C   0  0  0  0  0  0  0  0  0  0  0  0
   39.5160   27.4480   42.1580 N   0  0  0  0  0  0  0  0  0  0  0  0
   38.8190   31.1060   42.6220 H   0  0  0  0  0  0  0  0  0  0  0  0
   41.4600   27.9370   42.7930 H   0  0  0  0  0  0  0  0  0  0  0  0
   37.1850   26.9380   41.4540 C   0  0  0  0  0  0  0  0  0  0  0  0
   36.9140   25.8220   42.3420 C   0  0  0  0  0  0  0  0  0  0  0  0
   37.2260   24.5100   41.7460 C   0  0  0  0  0  0  0  0  0  0  0  0
   36.4520   24.3010   40.4530 C   0  0  0  0  0  0  0  0  0  0  0  0
   36.4710   25.4940   39.5650 C   0  0  0  0  0  0  0  0  0  0  0  0
   37.4900   26.5120   40.0220 C   0  0  0  0  0  0  0  0  0  0  0  0
   36.2260   27.5040   41.2970 H   0  0  0  0  0  0  0  0  0  0  0  0
   35.8740   25.7510   42.7690 H   0  0  0  0  0  0  0  0  0  0  0  0
   37.5670   25.9130   43.2600 H   0  0  0  0  0  0  0  0  0  0  0  0
   38.3070   24.5430   41.4210 H   0  0  0  0  0  0  0  0  0  0  0  0
   37.0960   23.6460   42.3970 H   0  0  0  0  0  0  0  0  0  0  0  0
   35.3760   24.1280   40.7520 H   0  0  0  0  0  0  0  0  0  0  0  0
   36.7830   23.3560   39.9630 H   0  0  0  0  0  0  0  0  0  0  0  0
   35.4670   25.9910   39.4820 H   0  0  0  0  0  0  0  0  0  0  0  0
   36.7440   25.1690   38.5440 H   0  0  0  0  0  0  0  0  0  0  0  0
   37.4210   27.4190   39.3990 H   0  0  0  0  0  0  0  0  0  0  0  0
   38.5010   26.0710   39.9810 H   0  0  0  0  0  0  0  0  0  0  0  0
   36.7730   29.8280   41.8190 O   0  0  0  0  0  0  0  0  0  0  0  0
   36.3120   30.8190   41.0170 C   0  0  0  0  0  0  0  0  0  0  0  0
   36.5310   31.8650   41.2760 H   0  0  0  0  0  0  0  0  0  0  0  0
   35.1830   30.7700   41.0220 H   0  0  0  0  0  0  0  0  0  0  0  0
   36.6770   30.6770   39.5540 C   0  0  0  0  0  0  0  0  0  0  0  0
   37.7670   30.4680   39.5210 H   0  0  0  0  0  0  0  0  0  0  0  0
   36.5730   31.6920   39.1110 H   0  0  0  0  0  0  0  0  0  0  0  0
   35.9550   29.7250   38.7880 C   0  0  0  0  0  0  0  0  0  0  0  0
   34.8330   28.9760   38.9070 C   0  0  0  0  0  0  0  0  0  0  0  0
   34.3300   29.1340   39.8510 H   0  0  0  0  0  0  0  0  0  0  0  0
   34.3940   28.1230   37.9520 C   0  0  0  0  0  3  0  0  0  0  0  0
   35.2040   28.0580   36.7730 C   0  0  0  0  0  3  0  0  0  0  0  0
   36.5840   29.2420   37.0970 S   0  0  0  0  0  0  0  0  0  0  0  0
  1  2  2  0  0  0  0
  1  6  1  0  0  0  0
  2  3  1  0  0  0  0
  3  7  1  0  0  0  0
  3  4  2  0  0  0  0
  5  4  1  0  0  0  0
  5  8  1  0  0  0  0
  6  5  2  0  0  0  0
  9  1  1  0  0  0  0
  9 10  1  0  0  0  0
 10 16  1  0  0  0  0
 10 17  1  0  0  0  0
 11 10  1  0  0  0  0
 11 19  1  0  0  0  0
 12 20  1  0  0  0  0
 12 11  1  0  0  0  0
 13 14  1  0  0  0  0
 13 12  1  0  0  0  0
 14  9  1  0  0  0  0
 15  9  1  0  0  0  0
 18 11  1  0  0  0  0
 21 12  1  0  0  0  0
 22 13  1  0  0  0  0
 23 13  1  0  0  0  0
 24 14  1  0  0  0  0
 25 14  1  0  0  0  0
 26  2  1  0  0  0  0
 27 29  1  0  0  0  0
 27 28  1  0  0  0  0
 27 26  1  0  0  0  0
 30 27  1  0  0  0  0
 31 30  1  0  0  0  0
 32 30  1  0  0  0  0
 33 34  2  0  0  0  0
 33 30  1  0  0  0  0
 34 35  1  0  0  0  0
 36 34  1  0  0  0  0
 37 38  1  0  0  0  0
 37 36  2  0  0  0  0
 38 33  1  0  0  0  0
M  END
>  <minimizedAffinity>
-4.72383547

$$$$

 OpenBabel03242514183D

 38 40  0  0  0  0  0  0  0  0999 V2000
   37.4930   30.4090   40.1660 C   0  0  0  0  0  0  0  0  0  0  0  0
   36.9900   29.7260   41.2560 C   0  0  0  0  0  0  0  0  0  0  0  0
   35.8560   28.9870   41.0680 C   0  0  0  0  0  0  0  0  0  0  0  0
   35.2780   28.9640   39.8070 N   0  0  0  0  0  0  0  0  0  0  0  0
   35.7760   29.6280   38.7690 C   0  0  0  0  0  0  0  0  0  0  0  0
   36.8730   30.3350   38.9700 N   0  0  0  0  0  0  0  0  0  0  0  0
   35.2820   28.3780   41.7490 H   0  0  0  0  0  0  0  0  0  0  0  0
   35.2950   29.5840   37.8000 H   0  0  0  0  0  0  0  0  0  0  0  0
   38.6870   31.2170   40.4260 C   0  0  0  0  0  0  0  0  0  0  0  0
   38.4440   32.5890   40.8350 C   0  0  0  0  0  0  0  0  0  0  0  0
   38.9090   33.5840   39.8510 C   0  0  0  0  0  0  0  0  0  0  0  0
   40.3940   33.4180   39.5690 C   0  0  0  0  0  0  0  0  0  0  0  0
   40.7930   31.9990   39.3680 C   0  0  0  0  0  0  0  0  0  0  0  0
   39.5890   31.1010   39.2020 C   0  0  0  0  0  0  0  0  0  0  0  0
   39.3360   30.7280   41.2040 H   0  0  0  0  0  0  0  0  0  0  0  0
   38.8500   32.9020   41.8380 H   0  0  0  0  0  0  0  0  0  0  0  0
   37.3300   32.7510   40.9420 H   0  0  0  0  0  0  0  0  0  0  0  0
   38.4090   33.3370   38.8690 H   0  0  0  0  0  0  0  0  0  0  0  0
   38.6930   34.6260   40.0870 H   0  0  0  0  0  0  0  0  0  0  0  0
   40.9360   33.7860   40.4900 H   0  0  0  0  0  0  0  0  0  0  0  0
   40.7030   34.1040   38.7450 H   0  0  0  0  0  0  0  0  0  0  0  0
   41.4320   31.6040   40.2030 H   0  0  0  0  0  0  0  0  0  0  0  0
   41.4030   31.9300   38.4480 H   0  0  0  0  0  0  0  0  0  0  0  0
   39.9090   30.0480   39.1430 H   0  0  0  0  0  0  0  0  0  0  0  0
   39.0220   31.4000   38.3030 H   0  0  0  0  0  0  0  0  0  0  0  0
   37.3690   29.6140   42.5110 O   0  0  0  0  0  0  0  0  0  0  0  0
   37.5010   28.6360   43.4410 C   0  0  0  0  0  0  0  0  0  0  0  0
   36.6200   28.0420   43.7250 H   0  0  0  0  0  0  0  0  0  0  0  0
   37.8240   29.1220   44.4090 H   0  0  0  0  0  0  0  0  0  0  0  0
   38.5960   27.6290   43.1560 C   0  0  0  0  0  0  0  0  0  0  0  0
   39.1510   27.4880   44.1070 H   0  0  0  0  0  0  0  0  0  0  0  0
   39.3200   28.1430   42.4840 H   0  0  0  0  0  0  0  0  0  0  0  0
   38.2090   26.3800   42.6040 C   0  0  0  0  0  0  0  0  0  0  0  0
   37.0650   25.7210   42.3030 C   0  0  0  0  0  0  0  0  0  0  0  0
   36.1820   26.2950   42.5460 H   0  0  0  0  0  0  0  0  0  0  0  0
   37.0330   24.4810   41.7600 C   0  0  0  0  0  3  0  0  0  0  0  0
   38.3130   23.8900   41.5130 C   0  0  0  0  0  3  0  0  0  0  0  0
   39.5250   25.1610   42.0830 S   0  0  0  0  0  0  0  0  0  0  0  0
  1  9  1  0  0  0  0
  1  2  1  0  0  0  0
  2 26  1  0  0  0  0
  3  2  2  0  0  0  0
  3  7  1  0  0  0  0
  4  3  1  0  0  0  0
  5  6  1  0  0  0  0
  5  4  2  0  0  0  0
  6  1  2  0  0  0  0
  8  5  1  0  0  0  0
  9 10  1  0  0  0  0
  9 15  1  0  0  0  0
 10 17  1  0  0  0  0
 10 16  1  0  0  0  0
 11 19  1  0  0  0  0
 11 10  1  0  0  0  0
 12 11  1  0  0  0  0
 12 20  1  0  0  0  0
 13 12  1  0  0  0  0
 13 22  1  0  0  0  0
 14 13  1  0  0  0  0
 14  9  1  0  0  0  0
 18 11  1  0  0  0  0
 21 12  1  0  0  0  0
 23 13  1  0  0  0  0
 24 14  1  0  0  0  0
 25 14  1  0  0  0  0
 26 27  1  0  0  0  0
 27 28  1  0  0  0  0
 27 29  1  0  0  0  0
 30 27  1  0  0  0  0
 30 31  1  0  0  0  0
 32 30  1  0  0  0  0
 33 30  1  0  0  0  0
 34 35  1  0  0  0  0
 34 33  2  0  0  0  0
 36 34  1  0  0  0  0
 37 36  2  0  0  0  0
 37 38  1  0  0  0  0
 38 33  1  0  0  0  0
M  END
>  <minimizedAffinity>
-4.70343256

$$$$

 OpenBabel03242514183D

 38 40  0  0  0  0  0  0  0  0999 V2000
   36.1450   28.7510   39.7770 C   0  0  0  0  0  0  0  0  0  0  0  0
   36.6530   28.8450   38.4960 C   0  0  0  0  0  0  0  0  0  0  0  0
   35.7630   29.0630   37.4810 C   0  0  0  0  0  0  0  0  0  0  0  0
   34.4150   29.1760   37.7900 N   0  0  0  0  0  0  0  0  0  0  0  0
   33.9450   29.0830   39.0290 C   0  0  0  0  0  0  0  0  0  0  0  0
   34.8190   28.8730   39.9960 N   0  0  0  0  0  0  0  0  0  0  0  0
   35.9090   29.1730   36.4180 H   0  0  0  0  0  0  0  0  0  0  0  0
   32.8860   29.1770   39.2290 H   0  0  0  0  0  0  0  0  0  0  0  0
   37.1320   28.4790   40.8250 C   0  0  0  0  0  0  0  0  0  0  0  0
   36.9320   27.2540   41.5770 C   0  0  0  0  0  0  0  0  0  0  0  0
   36.6060   27.4840   42.9970 C   0  0  0  0  0  0  0  0  0  0  0  0
   37.6930   28.3010   43.6790 C   0  0  0  0  0  0  0  0  0  0  0  0
   38.1430   29.4640   42.8680 C   0  0  0  0  0  0  0  0  0  0  0  0
   37.2140   29.7220   41.7050 C   0  0  0  0  0  0  0  0  0  0  0  0
   38.1720   28.4640   40.3980 H   0  0  0  0  0  0  0  0  0  0  0  0
   37.7650   26.4960   41.5500 H   0  0  0  0  0  0  0  0  0  0  0  0
   36.0530   26.6920   41.1420 H   0  0  0  0  0  0  0  0  0  0  0  0
   35.6970   28.1540   43.0230 H   0  0  0  0  0  0  0  0  0  0  0  0
   36.3880   26.5960   43.5880 H   0  0  0  0  0  0  0  0  0  0  0  0
   38.5830   27.6130   43.7930 H   0  0  0  0  0  0  0  0  0  0  0  0
   37.3780   28.5580   44.7180 H   0  0  0  0  0  0  0  0  0  0  0  0
   39.1910   29.3460   42.4820 H   0  0  0  0  0  0  0  0  0  0  0  0
   38.1460   30.3630   43.5120 H   0  0  0  0  0  0  0  0  0  0  0  0
   37.6180   30.5310   41.0730 H   0  0  0  0  0  0  0  0  0  0  0  0
   36.2060   29.9700   42.0800 H   0  0  0  0  0  0  0  0  0  0  0  0
   37.8650   28.7690   37.9910 O   0  0  0  0  0  0  0  0  0  0  0  0
   38.8120   29.6100   37.5090 C   0  0  0  0  0  0  0  0  0  0  0  0
   38.5350   30.3480   36.7420 H   0  0  0  0  0  0  0  0  0  0  0  0
   39.6080   28.9840   37.0080 H   0  0  0  0  0  0  0  0  0  0  0  0
   39.5710   30.3870   38.5650 C   0  0  0  0  0  0  0  0  0  0  0  0
   40.5670   30.6180   38.1320 H   0  0  0  0  0  0  0  0  0  0  0  0
   39.7830   29.6660   39.3860 H   0  0  0  0  0  0  0  0  0  0  0  0
   38.9590   31.5590   39.0820 C   0  0  0  0  0  0  0  0  0  0  0  0
   37.8040   32.2490   38.9220 C   0  0  0  0  0  0  0  0  0  0  0  0
   37.1470   31.7910   38.1950 H   0  0  0  0  0  0  0  0  0  0  0  0
   37.5080   33.3850   39.5960 C   0  0  0  0  0  3  0  0  0  0  0  0
   38.5120   33.8280   40.5160 C   0  0  0  0  0  3  0  0  0  0  0  0
   39.8590   32.5730   40.3670 S   0  0  0  0  0  0  0  0  0  0  0  0
  1  6  1  0  0  0  0
  1  9  1  0  0  0  0
  2  1  2  0  0  0  0
  3  4  2  0  0  0  0
  3  2  1  0  0  0  0
  4  5  1  0  0  0  0
  5  8  1  0  0  0  0
  5  6  2  0  0  0  0
  7  3  1  0  0  0  0
  9 10  1  0  0  0  0
  9 14  1  0  0  0  0
 10 11  1  0  0  0  0
 11 18  1  0  0  0  0
 11 19  1  0  0  0  0
 11 12  1  0  0  0  0
 12 20  1  0  0  0  0
 12 21  1  0  0  0  0
 13 23  1  0  0  0  0
 13 12  1  0  0  0  0
 14 25  1  0  0  0  0
 14 13  1  0  0  0  0
 15  9  1  0  0  0  0
 16 10  1  0  0  0  0
 17 10  1  0  0  0  0
 22 13  1  0  0  0  0
 24 14  1  0  0  0  0
 26  2  1  0  0  0  0
 27 26  1  0  0  0  0
 27 30  1  0  0  0  0
 28 27  1  0  0  0  0
 29 27  1  0  0  0  0
 30 33  1  0  0  0  0
 30 32  1  0  0  0  0
 31 30  1  0  0  0  0
 33 38  1  0  0  0  0
 34 33  2  0  0  0  0
 34 36  1  0  0  0  0
 35 34  1  0  0  0  0
 36 37  2  0  0  0  0
 38 37  1  0  0  0  0
M  END
>  <minimizedAffinity>
-4.69935083

$$$$

 OpenBabel03242514183D

 38 40  0  0  0  0  0  0  0  0999 V2000
   37.2600   25.3540   40.7950 C   0  0  0  0  0  0  0  0  0  0  0  0
   36.5950   25.2030   39.5940 C   0  0  0  0  0  0  0  0  0  0  0  0
   36.6580   23.9790   38.9880 C   0  0  0  0  0  0  0  0  0  0  0  0
   37.3790   22.9680   39.6060 N   0  0  0  0  0  0  0  0  0  0  0  0
   38.0130   23.1310   40.7620 C   0  0  0  0  0  0  0  0  0  0  0  0
   37.9400   24.3200   41.3320 N   0  0  0  0  0  0  0  0  0  0  0  0
   36.2310   23.6190   38.0650 H   0  0  0  0  0  0  0  0  0  0  0  0
   38.5650   22.3160   41.2120 H   0  0  0  0  0  0  0  0  0  0  0  0
   37.1960   26.6930   41.3850 C   0  0  0  0  0  0  0  0  0  0  0  0
   38.3340   27.5540   41.1220 C   0  0  0  0  0  0  0  0  0  0  0  0
   39.1120   27.8830   42.3320 C   0  0  0  0  0  0  0  0  0  0  0  0
   38.2320   28.5470   43.3800 C   0  0  0  0  0  0  0  0  0  0  0  0
   36.9220   27.8660   43.5570 C   0  0  0  0  0  0  0  0  0  0  0  0
   36.8980   26.5200   42.8710 C   0  0  0  0  0  0  0  0  0  0  0  0
   36.2640   27.2300   41.0530 H   0  0  0  0  0  0  0  0  0  0  0  0
   38.1270   28.5250   40.5900 H   0  0  0  0  0  0  0  0  0  0  0  0
   39.0480   27.0220   40.4260 H   0  0  0  0  0  0  0  0  0  0  0  0
   39.4180   26.9040   42.8040 H   0  0  0  0  0  0  0  0  0  0  0  0
   40.0110   28.4780   42.1750 H   0  0  0  0  0  0  0  0  0  0  0  0
   38.0160   29.5890   42.9990 H   0  0  0  0  0  0  0  0  0  0  0  0
   38.8100   28.6870   44.3240 H   0  0  0  0  0  0  0  0  0  0  0  0
   36.0580   28.4820   43.1870 H   0  0  0  0  0  0  0  0  0  0  0  0
   36.7510   27.7050   44.6370 H   0  0  0  0  0  0  0  0  0  0  0  0
   35.8910   26.0780   42.9430 H   0  0  0  0  0  0  0  0  0  0  0  0
   37.6600   25.8590   43.3200 H   0  0  0  0  0  0  0  0  0  0  0  0
   35.8710   26.0110   38.8480 O   0  0  0  0  0  0  0  0  0  0  0  0
   36.0660   27.0730   38.0290 C   0  0  0  0  0  0  0  0  0  0  0  0
   36.0460   26.9220   36.9400 H   0  0  0  0  0  0  0  0  0  0  0  0
   37.1020   27.4770   38.2280 H   0  0  0  0  0  0  0  0  0  0  0  0
   35.1560   28.2560   38.2930 C   0  0  0  0  0  0  0  0  0  0  0  0
   34.2020   27.8390   38.6770 H   0  0  0  0  0  0  0  0  0  0  0  0
   34.8970   28.6730   37.2940 H   0  0  0  0  0  0  0  0  0  0  0  0
   35.6440   29.2790   39.1460 C   0  0  0  0  0  0  0  0  0  0  0  0
   35.4950   29.6780   40.4320 C   0  0  0  0  0  0  0  0  0  0  0  0
   34.8100   29.0470   40.9820 H   0  0  0  0  0  0  0  0  0  0  0  0
   36.1300   30.7470   40.9660 C   0  0  0  0  0  3  0  0  0  0  0  0
   36.9960   31.4530   40.0700 C   0  0  0  0  0  3  0  0  0  0  0  0
   36.8540   30.5340   38.4740 S   0  0  0  0  0  0  0  0  0  0  0  0
  1  6  1  0  0  0  0
  1  9  1  0  0  0  0
  2  1  2  0  0  0  0
  3  2  1  0  0  0  0
  3  4  2  0  0  0  0
  4  5  1  0  0  0  0
  5  8  1  0  0  0  0
  5  6  2  0  0  0  0
  7  3  1  0  0  0  0
  9 14  1  0  0  0  0
 10  9  1  0  0  0  0
 10 11  1  0  0  0  0
 11 18  1  0  0  0  0
 11 12  1  0  0  0  0
 12 13  1  0  0  0  0
 12 21  1  0  0  0  0
 13 23  1  0  0  0  0
 14 24  1  0  0  0  0
 14 25  1  0  0  0  0
 14 13  1  0  0  0  0
 15  9  1  0  0  0  0
 16 10  1  0  0  0  0
 17 10  1  0  0  0  0
 19 11  1  0  0  0  0
 20 12  1  0  0  0  0
 22 13  1  0  0  0  0
 26  2  1  0  0  0  0
 27 29  1  0  0  0  0
 27 30  1  0  0  0  0
 27 26  1  0  0  0  0
 28 27  1  0  0  0  0
 30 31  1  0  0  0  0
 30 33  1  0  0  0  0
 32 30  1  0  0  0  0
 33 34  2  0  0  0  0
 34 36  1  0  0  0  0
 34 35  1  0  0  0  0
 37 36  2  0  0  0  0
 38 33  1  0  0  0  0
 38 37  1  0  0  0  0
M  END
>  <minimizedAffinity>
-4.66656399

$$$$

 OpenBabel03242514183D

 38 40  0  0  0  0  0  0  0  0999 V2000
   38.5740   25.7690   42.1050 C   0  0  0  0  0  0  0  0  0  0  0  0
   38.6840   26.8760   42.9230 C   0  0  0  0  0  0  0  0  0  0  0  0
   39.8170   26.9900   43.6800 C   0  0  0  0  0  0  0  0  0  0  0  0
   40.7830   25.9980   43.5850 N   0  0  0  0  0  0  0  0  0  0  0  0
   40.6600   24.9390   42.7920 C   0  0  0  0  0  0  0  0  0  0  0  0
   39.5590   24.8470   42.0680 N   0  0  0  0  0  0  0  0  0  0  0  0
   40.1320   27.7470   44.3810 H   0  0  0  0  0  0  0  0  0  0  0  0
   41.4360   24.1870   42.7460 H   0  0  0  0  0  0  0  0  0  0  0  0
   37.3260   25.6710   41.3440 C   0  0  0  0  0  0  0  0  0  0  0  0
   36.5710   24.4460   41.5250 C   0  0  0  0  0  0  0  0  0  0  0  0
   36.4940   23.6190   40.3050 C   0  0  0  0  0  0  0  0  0  0  0  0
   35.8800   24.4020   39.1550 C   0  0  0  0  0  0  0  0  0  0  0  0
   36.4280   25.7800   39.0310 C   0  0  0  0  0  0  0  0  0  0  0  0
   37.6600   25.9670   39.8850 C   0  0  0  0  0  0  0  0  0  0  0  0
   36.6500   26.5400   41.5760 H   0  0  0  0  0  0  0  0  0  0  0  0
   35.5210   24.5470   41.9200 H   0  0  0  0  0  0  0  0  0  0  0  0
   37.0830   23.8070   42.3040 H   0  0  0  0  0  0  0  0  0  0  0  0
   37.5550   23.4210   39.9740 H   0  0  0  0  0  0  0  0  0  0  0  0
   35.9880   22.6600   40.4090 H   0  0  0  0  0  0  0  0  0  0  0  0
   34.7800   24.5030   39.3910 H   0  0  0  0  0  0  0  0  0  0  0  0
   35.9320   23.8000   38.2170 H   0  0  0  0  0  0  0  0  0  0  0  0
   35.6770   26.5720   39.2930 H   0  0  0  0  0  0  0  0  0  0  0  0
   36.7110   25.9530   37.9760 H   0  0  0  0  0  0  0  0  0  0  0  0
   37.9930   27.0170   39.8420 H   0  0  0  0  0  0  0  0  0  0  0  0
   38.4560   25.2790   39.5480 H   0  0  0  0  0  0  0  0  0  0  0  0
   37.9070   27.9100   43.1620 O   0  0  0  0  0  0  0  0  0  0  0  0
   37.8610   29.2300   42.8540 C   0  0  0  0  0  0  0  0  0  0  0  0
   38.5130   29.9310   43.3960 H   0  0  0  0  0  0  0  0  0  0  0  0
   36.8180   29.6000   43.0790 H   0  0  0  0  0  0  0  0  0  0  0  0
   38.0530   29.5490   41.3860 C   0  0  0  0  0  0  0  0  0  0  0  0
   38.8920   28.9130   41.0320 H   0  0  0  0  0  0  0  0  0  0  0  0
   38.4530   30.5870   41.3460 H   0  0  0  0  0  0  0  0  0  0  0  0
   36.9250   29.4200   40.5340 C   0  0  0  0  0  0  0  0  0  0  0  0
   35.6130   29.0990   40.6390 C   0  0  0  0  0  0  0  0  0  0  0  0
   35.3240   28.8720   41.6560 H   0  0  0  0  0  0  0  0  0  0  0  0
   34.7620   29.0650   39.5870 C   0  0  0  0  0  3  0  0  0  0  0  0
   35.3420   29.3980   38.3210 C   0  0  0  0  0  3  0  0  0  0  0  0
   37.1140   29.7490   38.7050 S   0  0  0  0  0  0  0  0  0  0  0  0
  1  2  1  0  0  0  0
  2 26  1  0  0  0  0
  2  3  2  0  0  0  0
  3  7  1  0  0  0  0
  4  3  1  0  0  0  0
  5  4  2  0  0  0  0
  6  1  2  0  0  0  0
  6  5  1  0  0  0  0
  8  5  1  0  0  0  0
  9 10  1  0  0  0  0
  9 15  1  0  0  0  0
  9  1  1  0  0  0  0
 10 16  1  0  0  0  0
 10 17  1  0  0  0  0
 11 19  1  0  0  0  0
 11 10  1  0  0  0  0
 12 20  1  0  0  0  0
 12 11  1  0  0  0  0
 13 12  1  0  0  0  0
 13 22  1  0  0  0  0
 13 14  1  0  0  0  0
 14  9  1  0  0  0  0
 18 11  1  0  0  0  0
 21 12  1  0  0  0  0
 23 13  1  0  0  0  0
 24 14  1  0  0  0  0
 25 14  1  0  0  0  0
 27 29  1  0  0  0  0
 27 26  1  0  0  0  0
 27 28  1  0  0  0  0
 30 27  1  0  0  0  0
 31 30  1  0  0  0  0
 32 30  1  0  0  0  0
 33 34  2  0  0  0  0
 33 30  1  0  0  0  0
 34 35  1  0  0  0  0
 36 34  1  0  0  0  0
 37 38  1  0  0  0  0
 37 36  2  0  0  0  0
 38 33  1  0  0  0  0
M  END
>  <minimizedAffinity>
-4.64892149

$$$$

 OpenBabel03242514183D

 38 40  0  0  0  0  0  0  0  0999 V2000
   36.9560   26.2870   40.1270 C   0  0  0  0  0  0  0  0  0  0  0  0
   36.3080   27.0530   39.1780 C   0  0  0  0  0  0  0  0  0  0  0  0
   35.5960   26.3950   38.2140 C   0  0  0  0  0  0  0  0  0  0  0  0
   35.5660   25.0080   38.2420 N   0  0  0  0  0  0  0  0  0  0  0  0
   36.1950   24.2860   39.1630 C   0  0  0  0  0  0  0  0  0  0  0  0
   36.8760   24.9400   40.0860 N   0  0  0  0  0  0  0  0  0  0  0  0
   35.0160   26.7610   37.3820 H   0  0  0  0  0  0  0  0  0  0  0  0
   36.1460   23.2050   39.1500 H   0  0  0  0  0  0  0  0  0  0  0  0
   37.7360   27.0360   41.1150 C   0  0  0  0  0  0  0  0  0  0  0  0
   39.1320   26.6580   41.2360 C   0  0  0  0  0  0  0  0  0  0  0  0
   39.4660   26.0610   42.5420 C   0  0  0  0  0  0  0  0  0  0  0  0
   39.1200   27.0110   43.6790 C   0  0  0  0  0  0  0  0  0  0  0  0
   37.7830   27.6430   43.5220 C   0  0  0  0  0  0  0  0  0  0  0  0
   36.9750   26.9740   42.4350 C   0  0  0  0  0  0  0  0  0  0  0  0
   37.6870   28.1400   40.9050 H   0  0  0  0  0  0  0  0  0  0  0  0
   39.8970   27.4600   41.0340 H   0  0  0  0  0  0  0  0  0  0  0  0
   39.3700   25.8700   40.4610 H   0  0  0  0  0  0  0  0  0  0  0  0
   38.7720   25.1830   42.6910 H   0  0  0  0  0  0  0  0  0  0  0  0
   40.4900   25.7060   42.6570 H   0  0  0  0  0  0  0  0  0  0  0  0
   39.8860   27.8410   43.6430 H   0  0  0  0  0  0  0  0  0  0  0  0
   39.2770   26.5010   44.6590 H   0  0  0  0  0  0  0  0  0  0  0  0
   37.8450   28.7440   43.3080 H   0  0  0  0  0  0  0  0  0  0  0  0
   37.2310   27.5410   44.4740 H   0  0  0  0  0  0  0  0  0  0  0  0
   36.0280   27.5160   42.2810 H   0  0  0  0  0  0  0  0  0  0  0  0
   36.7950   25.9180   42.7020 H   0  0  0  0  0  0  0  0  0  0  0  0
   36.2090   28.3490   38.9700 O   0  0  0  0  0  0  0  0  0  0  0  0
   35.4330   29.3810   39.3840 C   0  0  0  0  0  0  0  0  0  0  0  0
   34.3510   29.2230   39.5080 H   0  0  0  0  0  0  0  0  0  0  0  0
   35.5000   30.1960   38.6050 H   0  0  0  0  0  0  0  0  0  0  0  0
   35.8960   30.0540   40.6590 C   0  0  0  0  0  0  0  0  0  0  0  0
   36.2180   29.2430   41.3450 H   0  0  0  0  0  0  0  0  0  0  0  0
   34.9820   30.4750   41.1340 H   0  0  0  0  0  0  0  0  0  0  0  0
   36.9000   31.0510   40.5460 C   0  0  0  0  0  0  0  0  0  0  0  0
   37.0580   32.2620   39.9600 C   0  0  0  0  0  0  0  0  0  0  0  0
   36.1770   32.5760   39.4170 H   0  0  0  0  0  0  0  0  0  0  0  0
   38.1930   32.9950   40.0440 C   0  0  0  0  0  3  0  0  0  0  0  0
   39.2470   32.4020   40.8110 C   0  0  0  0  0  3  0  0  0  0  0  0
   38.5480   30.7910   41.3840 S   0  0  0  0  0  0  0  0  0  0  0  0
  1  9  1  0  0  0  0
  2  1  2  0  0  0  0
  3  4  2  0  0  0  0
  3  2  1  0  0  0  0
  4  5  1  0  0  0  0
  5  6  2  0  0  0  0
  6  1  1  0  0  0  0
  7  3  1  0  0  0  0
  8  5  1  0  0  0  0
  9 10  1  0  0  0  0
  9 14  1  0  0  0  0
 10 11  1  0  0  0  0
 11 19  1  0  0  0  0
 11 18  1  0  0  0  0
 11 12  1  0  0  0  0
 12 21  1  0  0  0  0
 13 12  1  0  0  0  0
 13 23  1  0  0  0  0
 14 25  1  0  0  0  0
 14 13  1  0  0  0  0
 15  9  1  0  0  0  0
 16 10  1  0  0  0  0
 17 10  1  0  0  0  0
 20 12  1  0  0  0  0
 22 13  1  0  0  0  0
 24 14  1  0  0  0  0
 26  2  1  0  0  0  0
 26 27  1  0  0  0  0
 27 28  1  0  0  0  0
 27 30  1  0  0  0  0
 29 27  1  0  0  0  0
 30 32  1  0  0  0  0
 30 31  1  0  0  0  0
 33 30  1  0  0  0  0
 33 38  1  0  0  0  0
 34 36  1  0  0  0  0
 34 33  2  0  0  0  0
 35 34  1  0  0  0  0
 36 37  2  0  0  0  0
 37 38  1  0  0  0  0
M  END
>  <minimizedAffinity>
-4.54657698

$$$$

 OpenBabel03242514183D

 38 40  0  0  0  0  0  0  0  0999 V2000
   36.7250   27.1480   40.4160 C   0  0  0  0  0  0  0  0  0  0  0  0
   36.9500   27.3710   41.7610 C   0  0  0  0  0  0  0  0  0  0  0  0
   37.1670   26.2780   42.5530 C   0  0  0  0  0  0  0  0  0  0  0  0
   37.1490   25.0200   41.9690 N   0  0  0  0  0  0  0  0  0  0  0  0
   36.9310   24.8240   40.6730 C   0  0  0  0  0  0  0  0  0  0  0  0
   36.7250   25.8920   39.9240 N   0  0  0  0  0  0  0  0  0  0  0  0
   37.3620   26.1930   43.6100 H   0  0  0  0  0  0  0  0  0  0  0  0
   36.9250   23.8250   40.2560 H   0  0  0  0  0  0  0  0  0  0  0  0
   36.4600   28.3460   39.6160 C   0  0  0  0  0  0  0  0  0  0  0  0
   35.0830   28.5360   39.2020 C   0  0  0  0  0  0  0  0  0  0  0  0
   34.8910   28.4410   37.7430 C   0  0  0  0  0  0  0  0  0  0  0  0
   35.7610   29.4520   37.0120 C   0  0  0  0  0  0  0  0  0  0  0  0
   37.1540   29.5040   37.5320 C   0  0  0  0  0  0  0  0  0  0  0  0
   37.4470   28.3430   38.4530 C   0  0  0  0  0  0  0  0  0  0  0  0
   36.7940   29.2710   40.1620 H   0  0  0  0  0  0  0  0  0  0  0  0
   34.5740   29.4830   39.5390 H   0  0  0  0  0  0  0  0  0  0  0  0
   34.4440   27.7210   39.6550 H   0  0  0  0  0  0  0  0  0  0  0  0
   35.2990   27.4380   37.4210 H   0  0  0  0  0  0  0  0  0  0  0  0
   33.8630   28.5170   37.3890 H   0  0  0  0  0  0  0  0  0  0  0  0
   35.2990   30.4660   37.2040 H   0  0  0  0  0  0  0  0  0  0  0  0
   35.6860   29.2910   35.9110 H   0  0  0  0  0  0  0  0  0  0  0  0
   37.3840   30.4640   38.0670 H   0  0  0  0  0  0  0  0  0  0  0  0
   37.8520   29.4480   36.6760 H   0  0  0  0  0  0  0  0  0  0  0  0
   38.4530   28.4530   38.8910 H   0  0  0  0  0  0  0  0  0  0  0  0
   37.3520   27.3930   37.8990 H   0  0  0  0  0  0  0  0  0  0  0  0
   37.0070   28.4540   42.5050 O   0  0  0  0  0  0  0  0  0  0  0  0
   37.9530   29.2910   42.9990 C   0  0  0  0  0  0  0  0  0  0  0  0
   38.5770   28.9570   43.8410 H   0  0  0  0  0  0  0  0  0  0  0  0
   37.4280   30.2080   43.3970 H   0  0  0  0  0  0  0  0  0  0  0  0
   38.9180   29.8400   41.9690 C   0  0  0  0  0  0  0  0  0  0  0  0
   39.1610   28.9990   41.2850 H   0  0  0  0  0  0  0  0  0  0  0  0
   39.8680   30.0410   42.5130 H   0  0  0  0  0  0  0  0  0  0  0  0
   38.5140   30.9870   41.2380 C   0  0  0  0  0  0  0  0  0  0  0  0
   37.3830   31.4810   40.6800 C   0  0  0  0  0  0  0  0  0  0  0  0
   36.5340   30.8260   40.8190 H   0  0  0  0  0  0  0  0  0  0  0  0
   37.3240   32.6610   40.0190 C   0  0  0  0  0  3  0  0  0  0  0  0
   38.5600   33.3800   39.9430 C   0  0  0  0  0  3  0  0  0  0  0  0
   39.7710   32.3090   40.8380 S   0  0  0  0  0  0  0  0  0  0  0  0
  1  2  1  0  0  0  0
  2 26  1  0  0  0  0
  2  3  2  0  0  0  0
  3  7  1  0  0  0  0
  4  3  1  0  0  0  0
  5  4  2  0  0  0  0
  6  1  2  0  0  0  0
  6  5  1  0  0  0  0
  8  5  1  0  0  0  0
  9 15  1  0  0  0  0
  9  1  1  0  0  0  0
 10 16  1  0  0  0  0
 10  9  1  0  0  0  0
 10 17  1  0  0  0  0
 11 10  1  0  0  0  0
 12 20  1  0  0  0  0
 12 13  1  0  0  0  0
 12 11  1  0  0  0  0
 13 22  1  0  0  0  0
 13 14  1  0  0  0  0
 14 24  1  0  0  0  0
 14  9  1  0  0  0  0
 18 11  1  0  0  0  0
 19 11  1  0  0  0  0
 21 12  1  0  0  0  0
 23 13  1  0  0  0  0
 25 14  1  0  0  0  0
 26 27  1  0  0  0  0
 27 29  1  0  0  0  0
 27 28  1  0  0  0  0
 30 32  1  0  0  0  0
 30 27  1  0  0  0  0
 31 30  1  0  0  0  0
 33 30  1  0  0  0  0
 34 35  1  0  0  0  0
 34 33  2  0  0  0  0
 36 34  1  0  0  0  0
 37 36  2  0  0  0  0
 37 38  1  0  0  0  0
 38 33  1  0  0  0  0
M  END
>  <minimizedAffinity>
-4.535779

$$$$
