
 OpenBabel03252505103D

 41 44  0  0  1  0  0  0  0  0999 V2000
   44.5820   35.5920   44.6160 C   0  0  0  0  0  0  0  0  0  0  0  0
   45.2230   35.6100   43.3690 C   0  0  0  0  0  0  0  0  0  0  0  0
   46.3100   34.6960   43.1780 C   0  0  0  0  0  0  0  0  0  0  0  0
   46.6560   33.8720   44.2020 N   0  0  0  0  0  0  0  0  0  0  0  0
   46.0100   33.8910   45.3830 C   0  0  0  0  0  0  0  0  0  0  0  0
   44.9610   34.7600   45.5930 N   0  0  0  0  0  0  0  0  0  0  0  0
   43.7720   36.3070   44.6820 H   0  0  0  0  0  0  0  0  0  0  0  0
   44.9540   36.2520   42.5680 H   0  0  0  0  0  0  0  0  0  0  0  0
   46.4250   32.9740   46.4670 C   0  0  2  0  0  0  0  0  0  0  0  0
   46.9660   31.7490   45.7590 C   0  0  0  0  0  0  0  0  0  0  0  0
   46.0940   30.5630   45.7880 C   0  0  0  0  0  0  0  0  0  0  0  0
   45.8150   30.2930   47.2660 C   0  0  0  0  0  0  0  0  0  0  0  0
   45.0140   31.3650   47.8770 C   0  0  0  0  0  0  0  0  0  0  0  0
   45.3800   32.7280   47.4210 C   0  0  0  0  0  0  0  0  0  0  0  0
   47.2770   33.4940   46.9810 H   0  0  0  0  0  0  0  0  0  0  0  0
   47.9240   31.4750   46.2570 H   0  0  0  0  0  0  0  0  0  0  0  0
   47.2490   31.9430   44.7030 H   0  0  0  0  0  0  0  0  0  0  0  0
   46.6720   29.7040   45.4040 H   0  0  0  0  0  0  0  0  0  0  0  0
   45.1380   30.7180   45.2870 H   0  0  0  0  0  0  0  0  0  0  0  0
   45.1760   29.4000   47.2810 H   0  0  0  0  0  0  0  0  0  0  0  0
   46.7750   30.1010   47.7640 H   0  0  0  0  0  0  0  0  0  0  0  0
   44.2220   31.4090   48.5790 H   0  0  0  0  0  0  0  0  0  0  0  0
   44.6810   33.8750   47.9310 N   0  0  0  0  0  0  0  0  0  0  0  0
   43.6810   33.8150   47.5990 H   0  0  0  0  0  0  0  0  0  0  0  0
   45.1050   34.6170   48.5240 H   0  0  0  0  0  0  0  0  0  0  0  0
   46.9930   34.6780   41.8970 C   0  0  0  0  0  0  0  0  0  0  0  0
   48.1600   35.3720   41.7830 C   0  0  0  0  0  0  0  0  0  0  0  0
   48.7830   35.3220   40.5220 C   0  0  0  0  0  0  0  0  0  0  0  0
   48.1440   34.5760   39.5420 C   0  0  0  0  0  0  0  0  0  0  0  0
   46.9830   33.8860   39.6590 C   0  0  0  0  0  0  0  0  0  0  0  0
   46.4100   33.9610   40.8980 N   0  0  0  0  0  0  0  0  0  0  0  0
   48.5910   35.9280   42.5990 H   0  0  0  0  0  0  0  0  0  0  0  0
   49.7000   35.8600   40.4130 H   0  0  0  0  0  0  0  0  0  0  0  0
   48.7180   34.6150   38.6320 H   0  0  0  0  0  0  0  0  0  0  0  0
   46.4070   33.1660   38.6460 O   0  0  0  0  0  0  0  0  0  0  0  0
   47.1240   32.8410   37.5260 C   0  0  0  0  0  0  0  0  0  0  0  0
   47.8580   32.5390   36.4850 C   0  0  0  0  0  0  0  0  0  0  0  0
   48.8350   32.6710   36.9440 H   0  0  0  0  0  0  0  0  0  0  0  0
   47.4120   32.1910   35.2830 C   0  0  0  0  0  0  0  0  0  0  0  0
   46.0460   32.1460   35.1220 C   0  0  0  0  0  0  0  0  0  0  0  0
   45.4560   32.6550   36.8790 S   0  0  0  0  0  0  0  0  0  0  0  0
  1  7  1  0  0  0  0
  1  6  1  0  0  0  0
  2  1  2  0  0  0  0
  3  2  1  0  0  0  0
  3  4  2  0  0  0  0
  4  5  1  0  0  0  0
  5  6  2  0  0  0  0
  5  9  1  0  0  0  0
  8  2  1  0  0  0  0
  9 15  1  1  0  0  0
  9 14  1  0  0  0  0
 10 11  1  0  0  0  0
 10 16  1  0  0  0  0
 10  9  1  0  0  0  0
 11 12  1  0  0  0  0
 12 20  1  0  0  0  0
 12 21  1  0  0  0  0
 12 13  1  0  0  0  0
 13 22  1  0  0  0  0
 14 13  2  0  0  0  0
 14 23  1  0  0  0  0
 17 10  1  0  0  0  0
 18 11  1  0  0  0  0
 19 11  1  0  0  0  0
 23 25  1  0  0  0  0
 24 23  1  0  0  0  0
 26  3  1  0  0  0  0
 27 26  1  0  0  0  0
 27 32  1  0  0  0  0
 28 27  2  0  0  0  0
 29 30  2  0  0  0  0
 29 28  1  0  0  0  0
 30 31  1  0  0  0  0
 31 26  2  0  0  0  0
 33 28  1  0  0  0  0
 34 29  1  0  0  0  0
 35 30  1  0  0  0  0
 36 35  1  0  0  0  0
 37 38  1  0  0  0  0
 37 36  2  0  0  0  0
 39 37  1  0  0  0  0
 40 39  2  0  0  0  0
 40 41  1  0  0  0  0
 41 36  1  0  0  0  0
M  END
>  <minimizedAffinity>
-7.15489626

>  <minimizedRMSD>
0.321286738

$$$$
