
 OpenBabel03242518163D

 29 31  0  0  0  0  0  0  0  0999 V2000
   37.0920   27.1830   42.6140 C   0  0  0  0  0  0  0  0  0  0  0  0
   36.1470   26.7060   43.0180 H   0  0  0  0  0  0  0  0  0  0  0  0
   37.4920   26.4180   41.9290 H   0  0  0  0  0  0  0  0  0  0  0  0
   36.7170   28.3270   41.8630 C   0  0  0  0  0  0  0  0  0  0  0  0
   35.7030   28.6920   40.9450 C   0  0  0  0  0  0  0  0  0  0  0  0
   35.6520   29.9230   40.3920 C   0  0  0  0  0  0  0  0  0  0  0  0
   36.6730   30.8520   40.7740 C   0  0  0  0  0  0  0  0  0  0  0  0
   37.7140   29.9530   41.9360 S   0  0  0  0  0  0  0  0  0  0  0  0
   35.0380   27.8810   40.7820 H   0  0  0  0  0  0  0  0  0  0  0  0
   34.8790   30.1980   39.6940 H   0  0  0  0  0  0  0  0  0  0  0  0
   36.8330   32.0680   40.3870 O   0  0  0  0  0  0  0  0  0  0  0  0
   38.0720   32.6170   40.1240 C   0  0  0  0  0  0  0  0  0  0  0  0
   38.7960   33.6070   40.6600 C   0  0  0  0  0  0  0  0  0  0  0  0
   38.3380   34.1180   41.4890 H   0  0  0  0  0  0  0  0  0  0  0  0
   40.0240   33.9130   40.1550 C   0  0  0  0  0  3  0  0  0  0  0  0
   40.4600   33.0820   39.0110 C   0  0  0  0  0  3  0  0  0  0  0  0
   39.0140   31.9370   38.7990 S   0  0  0  0  0  0  0  0  0  0  0  0
   38.0700   27.3820   43.7030 C   0  0  0  0  0  0  0  0  0  0  0  0
   38.4010   28.4460   43.8100 H   0  0  0  0  0  0  0  0  0  0  0  0
   37.6790   27.0960   44.7150 H   0  0  0  0  0  0  0  0  0  0  0  0
   39.2610   26.5690   43.4760 C   0  0  0  0  0  0  0  0  0  0  0  0
   40.5110   27.0180   43.8660 C   0  0  0  0  0  0  0  0  0  0  0  0
   41.6110   26.1830   43.6160 C   0  0  0  0  0  0  0  0  0  0  0  0
   41.3780   24.9920   43.0080 N   0  0  0  0  0  0  0  0  0  0  0  0
   40.1540   24.5960   42.6460 C   0  0  0  0  0  0  0  0  0  0  0  0
   39.1200   25.3720   42.8780 N   0  0  0  0  0  0  0  0  0  0  0  0
   40.6740   27.9540   44.3420 H   0  0  0  0  0  0  0  0  0  0  0  0
   42.6250   26.4800   43.9000 H   0  0  0  0  0  0  0  0  0  0  0  0
   40.1250   23.6320   42.1770 H   0  0  0  0  0  0  0  0  0  0  0  0
  1  2  1  0  0  0  0
  1 18  1  0  0  0  0
  3  1  1  0  0  0  0
  4  8  1  0  0  0  0
  4  1  1  0  0  0  0
  5  4  2  0  0  0  0
  6  7  2  0  0  0  0
  6  5  1  0  0  0  0
  7  8  1  0  0  0  0
  9  5  1  0  0  0  0
 10  6  1  0  0  0  0
 11  7  1  0  0  0  0
 12 11  1  0  0  0  0
 12 13  2  0  0  0  0
 13 14  1  0  0  0  0
 15 13  1  0  0  0  0
 16 15  2  0  0  0  0
 17 16  1  0  0  0  0
 17 12  1  0  0  0  0
 18 19  1  0  0  0  0
 18 20  1  0  0  0  0
 21 18  1  0  0  0  0
 21 22  1  0  0  0  0
 22 27  1  0  0  0  0
 23 22  2  0  0  0  0
 23 28  1  0  0  0  0
 24 23  1  0  0  0  0
 25 26  1  0  0  0  0
 25 24  2  0  0  0  0
 26 21  2  0  0  0  0
 29 25  1  0  0  0  0
M  END
>  <minimizedAffinity>
-5.05992126

$$$$

 OpenBabel03242518163D

 29 31  0  0  0  0  0  0  0  0999 V2000
   37.0680   31.6850   39.0520 C   0  0  0  0  0  0  0  0  0  0  0  0
   37.9790   31.3580   38.4650 H   0  0  0  0  0  0  0  0  0  0  0  0
   36.3070   31.8550   38.2730 H   0  0  0  0  0  0  0  0  0  0  0  0
   36.6600   30.5950   39.8660 C   0  0  0  0  0  0  0  0  0  0  0  0
   35.5880   29.6730   39.9220 C   0  0  0  0  0  0  0  0  0  0  0  0
   35.5110   28.7280   40.8840 C   0  0  0  0  0  0  0  0  0  0  0  0
   36.5670   28.6950   41.8520 C   0  0  0  0  0  0  0  0  0  0  0  0
   37.6770   30.0310   41.3790 S   0  0  0  0  0  0  0  0  0  0  0  0
   34.9040   29.8470   39.1290 H   0  0  0  0  0  0  0  0  0  0  0  0
   34.6940   28.0270   40.9230 H   0  0  0  0  0  0  0  0  0  0  0  0
   36.7120   27.8960   42.8490 O   0  0  0  0  0  0  0  0  0  0  0  0
   37.8080   27.0690   42.9960 C   0  0  0  0  0  0  0  0  0  0  0  0
   38.9210   27.1060   43.7400 C   0  0  0  0  0  0  0  0  0  0  0  0
   39.0200   27.9630   44.3820 H   0  0  0  0  0  0  0  0  0  0  0  0
   39.8390   26.1020   43.6530 C   0  0  0  0  0  3  0  0  0  0  0  0
   39.5000   25.0190   42.7040 C   0  0  0  0  0  3  0  0  0  0  0  0
   37.8650   25.5920   42.0370 S   0  0  0  0  0  0  0  0  0  0  0  0
   37.3300   32.9710   39.7290 C   0  0  0  0  0  0  0  0  0  0  0  0
   36.8020   33.8350   39.2530 H   0  0  0  0  0  0  0  0  0  0  0  0
   37.0040   32.9880   40.8030 H   0  0  0  0  0  0  0  0  0  0  0  0
   38.7580   33.2690   39.7270 C   0  0  0  0  0  0  0  0  0  0  0  0
   39.2680   34.3070   40.4880 C   0  0  0  0  0  0  0  0  0  0  0  0
   40.6520   34.5360   40.4360 C   0  0  0  0  0  0  0  0  0  0  0  0
   41.3990   33.7270   39.6420 N   0  0  0  0  0  0  0  0  0  0  0  0
   40.8670   32.7350   38.9210 C   0  0  0  0  0  0  0  0  0  0  0  0
   39.5720   32.5150   38.9660 N   0  0  0  0  0  0  0  0  0  0  0  0
   38.6670   34.9300   41.1050 H   0  0  0  0  0  0  0  0  0  0  0  0
   41.1160   35.3400   41.0140 H   0  0  0  0  0  0  0  0  0  0  0  0
   41.5800   32.1800   38.3430 H   0  0  0  0  0  0  0  0  0  0  0  0
  1 18  1  0  0  0  0
  1  4  1  0  0  0  0
  2  1  1  0  0  0  0
  3  1  1  0  0  0  0
  4  5  2  0  0  0  0
  4  8  1  0  0  0  0
  5  6  1  0  0  0  0
  6 10  1  0  0  0  0
  6  7  2  0  0  0  0
  7 11  1  0  0  0  0
  8  7  1  0  0  0  0
  9  5  1  0  0  0  0
 11 12  1  0  0  0  0
 12 13  2  0  0  0  0
 13 14  1  0  0  0  0
 15 13  1  0  0  0  0
 16 15  2  0  0  0  0
 17 16  1  0  0  0  0
 17 12  1  0  0  0  0
 18 20  1  0  0  0  0
 19 18  1  0  0  0  0
 21 18  1  0  0  0  0
 21 22  1  0  0  0  0
 22 27  1  0  0  0  0
 23 22  2  0  0  0  0
 23 28  1  0  0  0  0
 24 23  1  0  0  0  0
 25 26  1  0  0  0  0
 25 24  2  0  0  0  0
 26 21  2  0  0  0  0
 29 25  1  0  0  0  0
M  END
>  <minimizedAffinity>
-5.02034426

$$$$

 OpenBabel03242518163D

 29 31  0  0  0  0  0  0  0  0999 V2000
   36.5620   28.2650   41.7540 C   0  0  0  0  0  0  0  0  0  0  0  0
   35.4440   28.1390   41.6170 H   0  0  0  0  0  0  0  0  0  0  0  0
   36.9900   27.5320   41.0520 H   0  0  0  0  0  0  0  0  0  0  0  0
   36.9080   29.5740   41.3250 C   0  0  0  0  0  0  0  0  0  0  0  0
   36.2570   30.7010   40.7690 C   0  0  0  0  0  0  0  0  0  0  0  0
   36.9290   31.8320   40.4620 C   0  0  0  0  0  0  0  0  0  0  0  0
   38.3370   31.8450   40.7250 C   0  0  0  0  0  0  0  0  0  0  0  0
   38.7010   30.2230   41.4170 S   0  0  0  0  0  0  0  0  0  0  0  0
   35.2210   30.5100   40.6450 H   0  0  0  0  0  0  0  0  0  0  0  0
   36.4310   32.6880   40.0390 H   0  0  0  0  0  0  0  0  0  0  0  0
   39.1790   32.7950   40.5210 O   0  0  0  0  0  0  0  0  0  0  0  0
   40.0020   32.8450   39.4120 C   0  0  0  0  0  0  0  0  0  0  0  0
   40.1350   32.1050   38.3050 C   0  0  0  0  0  0  0  0  0  0  0  0
   39.4640   31.2670   38.2260 H   0  0  0  0  0  0  0  0  0  0  0  0
   41.0720   32.4270   37.3700 C   0  0  0  0  0  3  0  0  0  0  0  0
   41.8890   33.6210   37.6830 C   0  0  0  0  0  3  0  0  0  0  0  0
   41.1910   34.1430   39.3220 S   0  0  0  0  0  0  0  0  0  0  0  0
   36.9560   27.8770   43.1230 C   0  0  0  0  0  0  0  0  0  0  0  0
   37.4060   28.7190   43.7080 H   0  0  0  0  0  0  0  0  0  0  0  0
   36.1010   27.5130   43.7500 H   0  0  0  0  0  0  0  0  0  0  0  0
   37.9320   26.7930   43.0860 C   0  0  0  0  0  0  0  0  0  0  0  0
   39.1380   26.9000   43.7600 C   0  0  0  0  0  0  0  0  0  0  0  0
   40.0280   25.8190   43.6800 C   0  0  0  0  0  0  0  0  0  0  0  0
   39.6510   24.7400   42.9470 N   0  0  0  0  0  0  0  0  0  0  0  0
   38.4770   24.6760   42.3100 C   0  0  0  0  0  0  0  0  0  0  0  0
   37.6390   25.6850   42.3820 N   0  0  0  0  0  0  0  0  0  0  0  0
   39.4150   27.7530   44.3290 H   0  0  0  0  0  0  0  0  0  0  0  0
   40.9950   25.8410   44.1890 H   0  0  0  0  0  0  0  0  0  0  0  0
   38.3180   23.7620   41.7730 H   0  0  0  0  0  0  0  0  0  0  0  0
  1 18  1  0  0  0  0
  2  1  1  0  0  0  0
  3  1  1  0  0  0  0
  4  8  1  0  0  0  0
  4  1  1  0  0  0  0
  5  4  2  0  0  0  0
  6  7  2  0  0  0  0
  6  5  1  0  0  0  0
  7  8  1  0  0  0  0
  9  5  1  0  0  0  0
 10  6  1  0  0  0  0
 11  7  1  0  0  0  0
 12 11  1  0  0  0  0
 13 12  2  0  0  0  0
 14 13  1  0  0  0  0
 15 16  2  0  0  0  0
 15 13  1  0  0  0  0
 16 17  1  0  0  0  0
 17 12  1  0  0  0  0
 18 19  1  0  0  0  0
 18 20  1  0  0  0  0
 21 18  1  0  0  0  0
 21 22  1  0  0  0  0
 22 27  1  0  0  0  0
 23 22  2  0  0  0  0
 23 28  1  0  0  0  0
 24 23  1  0  0  0  0
 25 26  1  0  0  0  0
 25 24  2  0  0  0  0
 26 21  2  0  0  0  0
 29 25  1  0  0  0  0
M  END
>  <minimizedAffinity>
-5.00424957

$$$$

 OpenBabel03242518163D

 29 31  0  0  0  0  0  0  0  0999 V2000
   36.3110   30.8740   40.5160 C   0  0  0  0  0  0  0  0  0  0  0  0
   35.2080   30.8340   40.2610 H   0  0  0  0  0  0  0  0  0  0  0  0
   36.3910   31.7530   41.1760 H   0  0  0  0  0  0  0  0  0  0  0  0
   36.6300   29.7070   41.2580 C   0  0  0  0  0  0  0  0  0  0  0  0
   36.1440   28.3840   41.3910 C   0  0  0  0  0  0  0  0  0  0  0  0
   36.7090   27.4990   42.2390 C   0  0  0  0  0  0  0  0  0  0  0  0
   37.8310   27.9560   43.0050 C   0  0  0  0  0  0  0  0  0  0  0  0
   38.0750   29.6680   42.5050 S   0  0  0  0  0  0  0  0  0  0  0  0
   35.3130   28.2260   40.7500 H   0  0  0  0  0  0  0  0  0  0  0  0
   36.3380   26.4930   42.3370 H   0  0  0  0  0  0  0  0  0  0  0  0
   38.5280   27.3040   43.8670 O   0  0  0  0  0  0  0  0  0  0  0  0
   39.8020   26.8370   43.6060 C   0  0  0  0  0  0  0  0  0  0  0  0
   41.0240   27.3840   43.6130 C   0  0  0  0  0  0  0  0  0  0  0  0
   41.0620   28.4260   43.8760 H   0  0  0  0  0  0  0  0  0  0  0  0
   42.1160   26.6320   43.2990 C   0  0  0  0  0  3  0  0  0  0  0  0
   41.8320   25.2180   42.9670 C   0  0  0  0  0  3  0  0  0  0  0  0
   39.9860   25.1450   43.1510 S   0  0  0  0  0  0  0  0  0  0  0  0
   37.1070   31.1380   39.3000 C   0  0  0  0  0  0  0  0  0  0  0  0
   37.6640   30.2390   38.9340 H   0  0  0  0  0  0  0  0  0  0  0  0
   36.4920   31.4760   38.4250 H   0  0  0  0  0  0  0  0  0  0  0  0
   38.0850   32.1930   39.5480 C   0  0  0  0  0  0  0  0  0  0  0  0
   39.4410   31.9550   39.3920 C   0  0  0  0  0  0  0  0  0  0  0  0
   40.3230   33.0150   39.6480 C   0  0  0  0  0  0  0  0  0  0  0  0
   39.7910   34.2040   40.0330 N   0  0  0  0  0  0  0  0  0  0  0  0
   38.4750   34.3920   40.1730 C   0  0  0  0  0  0  0  0  0  0  0  0
   37.6440   33.4030   39.9340 N   0  0  0  0  0  0  0  0  0  0  0  0
   39.8380   31.0170   39.0890 H   0  0  0  0  0  0  0  0  0  0  0  0
   41.4040   32.8920   39.5430 H   0  0  0  0  0  0  0  0  0  0  0  0
   38.2030   35.3830   40.4820 H   0  0  0  0  0  0  0  0  0  0  0  0
  1  3  1  0  0  0  0
  1  4  1  0  0  0  0
  2  1  1  0  0  0  0
  4  5  2  0  0  0  0
  4  8  1  0  0  0  0
  5  6  1  0  0  0  0
  6 10  1  0  0  0  0
  6  7  2  0  0  0  0
  7 11  1  0  0  0  0
  8  7  1  0  0  0  0
  9  5  1  0  0  0  0
 12 13  2  0  0  0  0
 12 11  1  0  0  0  0
 13 14  1  0  0  0  0
 15 13  1  0  0  0  0
 16 17  1  0  0  0  0
 16 15  2  0  0  0  0
 17 12  1  0  0  0  0
 18 21  1  0  0  0  0
 18  1  1  0  0  0  0
 19 18  1  0  0  0  0
 20 18  1  0  0  0  0
 21 26  1  0  0  0  0
 22 21  2  0  0  0  0
 22 23  1  0  0  0  0
 23 24  2  0  0  0  0
 24 25  1  0  0  0  0
 25 29  1  0  0  0  0
 26 25  2  0  0  0  0
 27 22  1  0  0  0  0
 28 23  1  0  0  0  0
M  END
>  <minimizedAffinity>
-4.94620275

$$$$

 OpenBabel03242518163D

 29 31  0  0  0  0  0  0  0  0999 V2000
   36.5740   27.4770   42.7530 C   0  0  0  0  0  0  0  0  0  0  0  0
   36.1800   27.9900   43.6830 H   0  0  0  0  0  0  0  0  0  0  0  0
   35.8460   26.6690   42.5780 H   0  0  0  0  0  0  0  0  0  0  0  0
   36.5030   28.4040   41.6810 C   0  0  0  0  0  0  0  0  0  0  0  0
   35.5210   28.9090   40.7940 C   0  0  0  0  0  0  0  0  0  0  0  0
   35.8210   29.8210   39.8440 C   0  0  0  0  0  0  0  0  0  0  0  0
   37.1820   30.2620   39.7700 C   0  0  0  0  0  0  0  0  0  0  0  0
   38.0390   29.3610   41.0720 S   0  0  0  0  0  0  0  0  0  0  0  0
   34.5760   28.4710   40.9970 H   0  0  0  0  0  0  0  0  0  0  0  0
   35.0710   30.2030   39.1720 H   0  0  0  0  0  0  0  0  0  0  0  0
   37.7020   31.1140   38.9600 O   0  0  0  0  0  0  0  0  0  0  0  0
   38.2120   32.3290   39.3720 C   0  0  0  0  0  0  0  0  0  0  0  0
   37.6750   33.4930   39.7560 C   0  0  0  0  0  0  0  0  0  0  0  0
   36.6000   33.5290   39.7550 H   0  0  0  0  0  0  0  0  0  0  0  0
   38.4760   34.5360   40.1140 C   0  0  0  0  0  3  0  0  0  0  0  0
   39.9290   34.2680   40.0400 C   0  0  0  0  0  3  0  0  0  0  0  0
   39.9640   32.5080   39.4520 S   0  0  0  0  0  0  0  0  0  0  0  0
   37.8880   26.8610   43.0270 C   0  0  0  0  0  0  0  0  0  0  0  0
   38.7440   27.5680   42.8860 H   0  0  0  0  0  0  0  0  0  0  0  0
   37.9960   26.4800   44.0760 H   0  0  0  0  0  0  0  0  0  0  0  0
   38.1100   25.7180   42.1470 C   0  0  0  0  0  0  0  0  0  0  0  0
   37.1460   24.7340   42.0040 C   0  0  0  0  0  0  0  0  0  0  0  0
   37.4290   23.6630   41.1420 C   0  0  0  0  0  0  0  0  0  0  0  0
   38.6290   23.6620   40.5060 N   0  0  0  0  0  0  0  0  0  0  0  0
   39.5330   24.6320   40.6720 C   0  0  0  0  0  0  0  0  0  0  0  0
   39.2740   25.6370   41.4780 N   0  0  0  0  0  0  0  0  0  0  0  0
   36.2120   24.7530   42.5110 H   0  0  0  0  0  0  0  0  0  0  0  0
   36.7100   22.8550   40.9860 H   0  0  0  0  0  0  0  0  0  0  0  0
   40.4330   24.4950   40.1040 H   0  0  0  0  0  0  0  0  0  0  0  0
  1 18  1  0  0  0  0
  1  2  1  0  0  0  0
  3  1  1  0  0  0  0
  4  1  1  0  0  0  0
  5  9  1  0  0  0  0
  5  4  2  0  0  0  0
  6  5  1  0  0  0  0
  7  6  2  0  0  0  0
  7  8  1  0  0  0  0
  8  4  1  0  0  0  0
 10  6  1  0  0  0  0
 11 12  1  0  0  0  0
 11  7  1  0  0  0  0
 12 17  1  0  0  0  0
 12 13  2  0  0  0  0
 13 15  1  0  0  0  0
 14 13  1  0  0  0  0
 16 15  2  0  0  0  0
 17 16  1  0  0  0  0
 18 20  1  0  0  0  0
 19 18  1  0  0  0  0
 21 18  1  0  0  0  0
 22 21  1  0  0  0  0
 22 27  1  0  0  0  0
 23 22  2  0  0  0  0
 24 25  2  0  0  0  0
 24 23  1  0  0  0  0
 25 26  1  0  0  0  0
 26 21  2  0  0  0  0
 28 23  1  0  0  0  0
 29 25  1  0  0  0  0
M  END
>  <minimizedAffinity>
-4.83136797

$$$$

 OpenBabel03242518163D

 29 31  0  0  0  0  0  0  0  0999 V2000
   37.7990   28.4770   43.1570 C   0  0  0  0  0  0  0  0  0  0  0  0
   38.8720   28.1360   43.0290 H   0  0  0  0  0  0  0  0  0  0  0  0
   37.7730   28.8580   44.1900 H   0  0  0  0  0  0  0  0  0  0  0  0
   37.5750   29.5550   42.2600 C   0  0  0  0  0  0  0  0  0  0  0  0
   36.5020   30.0810   41.5020 C   0  0  0  0  0  0  0  0  0  0  0  0
   36.6530   31.1660   40.7120 C   0  0  0  0  0  0  0  0  0  0  0  0
   37.9520   31.7680   40.6730 C   0  0  0  0  0  0  0  0  0  0  0  0
   38.9650   30.7700   41.7770 S   0  0  0  0  0  0  0  0  0  0  0  0
   35.6210   29.5090   41.6550 H   0  0  0  0  0  0  0  0  0  0  0  0
   35.8340   31.5640   40.1370 H   0  0  0  0  0  0  0  0  0  0  0  0
   38.3350   32.7970   40.0040 O   0  0  0  0  0  0  0  0  0  0  0  0
   39.4600   32.7960   39.2020 C   0  0  0  0  0  0  0  0  0  0  0  0
   40.6210   33.4620   39.2100 C   0  0  0  0  0  0  0  0  0  0  0  0
   40.7420   34.1720   40.0100 H   0  0  0  0  0  0  0  0  0  0  0  0
   41.5570   33.2250   38.2480 C   0  0  0  0  0  3  0  0  0  0  0  0
   41.1810   32.2070   37.2420 C   0  0  0  0  0  3  0  0  0  0  0  0
   39.4900   31.7050   37.8190 S   0  0  0  0  0  0  0  0  0  0  0  0
   36.8820   27.3230   43.0680 C   0  0  0  0  0  0  0  0  0  0  0  0
   36.4000   27.0670   44.0450 H   0  0  0  0  0  0  0  0  0  0  0  0
   36.0290   27.4820   42.3560 H   0  0  0  0  0  0  0  0  0  0  0  0
   37.5940   26.1380   42.6010 C   0  0  0  0  0  0  0  0  0  0  0  0
   36.9040   25.0420   42.1120 C   0  0  0  0  0  0  0  0  0  0  0  0
   37.6540   23.9370   41.6820 C   0  0  0  0  0  0  0  0  0  0  0  0
   39.0060   24.0140   41.7750 N   0  0  0  0  0  0  0  0  0  0  0  0
   39.6350   25.0920   42.2540 C   0  0  0  0  0  0  0  0  0  0  0  0
   38.9380   26.1300   42.6580 N   0  0  0  0  0  0  0  0  0  0  0  0
   35.8440   25.0000   42.0470 H   0  0  0  0  0  0  0  0  0  0  0  0
   37.1690   23.0410   41.2850 H   0  0  0  0  0  0  0  0  0  0  0  0
   40.7040   25.0080   42.2660 H   0  0  0  0  0  0  0  0  0  0  0  0
  1  3  1  0  0  0  0
  2  1  1  0  0  0  0
  4  1  1  0  0  0  0
  5  9  1  0  0  0  0
  5  4  2  0  0  0  0
  6  5  1  0  0  0  0
  7  6  2  0  0  0  0
  7  8  1  0  0  0  0
  8  4  1  0  0  0  0
 10  6  1  0  0  0  0
 11  7  1  0  0  0  0
 12 13  2  0  0  0  0
 12 11  1  0  0  0  0
 13 14  1  0  0  0  0
 15 13  1  0  0  0  0
 16 17  1  0  0  0  0
 16 15  2  0  0  0  0
 17 12  1  0  0  0  0
 18  1  1  0  0  0  0
 18 19  1  0  0  0  0
 20 18  1  0  0  0  0
 21 26  1  0  0  0  0
 21 18  1  0  0  0  0
 22 21  2  0  0  0  0
 23 24  2  0  0  0  0
 23 22  1  0  0  0  0
 24 25  1  0  0  0  0
 25 29  1  0  0  0  0
 25 26  2  0  0  0  0
 27 22  1  0  0  0  0
 28 23  1  0  0  0  0
M  END
>  <minimizedAffinity>
-4.78904152

$$$$

 OpenBabel03242518163D

 29 31  0  0  0  0  0  0  0  0999 V2000
   38.4680   32.5020   40.0920 C   0  0  0  0  0  0  0  0  0  0  0  0
   38.5350   31.9700   39.0940 H   0  0  0  0  0  0  0  0  0  0  0  0
   37.4230   32.8500   40.1280 H   0  0  0  0  0  0  0  0  0  0  0  0
   38.6700   31.5370   41.1130 C   0  0  0  0  0  0  0  0  0  0  0  0
   39.6570   31.2220   42.0780 C   0  0  0  0  0  0  0  0  0  0  0  0
   39.5200   30.1790   42.9240 C   0  0  0  0  0  0  0  0  0  0  0  0
   38.3260   29.3960   42.8050 C   0  0  0  0  0  0  0  0  0  0  0  0
   37.3930   30.1630   41.4700 S   0  0  0  0  0  0  0  0  0  0  0  0
   40.4660   31.9060   42.0200 H   0  0  0  0  0  0  0  0  0  0  0  0
   40.2720   29.9430   43.6570 H   0  0  0  0  0  0  0  0  0  0  0  0
   37.9740   28.3670   43.4910 O   0  0  0  0  0  0  0  0  0  0  0  0
   38.5710   27.1300   43.3500 C   0  0  0  0  0  0  0  0  0  0  0  0
   39.6590   26.5460   43.8670 C   0  0  0  0  0  0  0  0  0  0  0  0
   40.2250   27.1500   44.5540 H   0  0  0  0  0  0  0  0  0  0  0  0
   39.9890   25.2710   43.5160 C   0  0  0  0  0  3  0  0  0  0  0  0
   39.0690   24.6260   42.5530 C   0  0  0  0  0  3  0  0  0  0  0  0
   37.8150   25.9640   42.2660 S   0  0  0  0  0  0  0  0  0  0  0  0
   39.3490   33.6870   40.1010 C   0  0  0  0  0  0  0  0  0  0  0  0
   38.8010   34.6450   39.9130 H   0  0  0  0  0  0  0  0  0  0  0  0
   39.8820   33.8430   41.0750 H   0  0  0  0  0  0  0  0  0  0  0  0
   40.3840   33.5630   39.0790 C   0  0  0  0  0  0  0  0  0  0  0  0
   40.4200   32.4660   38.2350 C   0  0  0  0  0  0  0  0  0  0  0  0
   41.4440   32.4130   37.2770 C   0  0  0  0  0  0  0  0  0  0  0  0
   42.3330   33.4390   37.2420 N   0  0  0  0  0  0  0  0  0  0  0  0
   42.2640   34.4810   38.0770 C   0  0  0  0  0  0  0  0  0  0  0  0
   41.3060   34.5360   38.9750 N   0  0  0  0  0  0  0  0  0  0  0  0
   39.7150   31.6720   38.2770 H   0  0  0  0  0  0  0  0  0  0  0  0
   41.5280   31.5740   36.5810 H   0  0  0  0  0  0  0  0  0  0  0  0
   43.0330   35.2140   37.9300 H   0  0  0  0  0  0  0  0  0  0  0  0
  1 18  1  0  0  0  0
  1  3  1  0  0  0  0
  1  4  1  0  0  0  0
  2  1  1  0  0  0  0
  4  8  1  0  0  0  0
  4  5  2  0  0  0  0
  5  6  1  0  0  0  0
  6 10  1  0  0  0  0
  7  6  2  0  0  0  0
  7 11  1  0  0  0  0
  8  7  1  0  0  0  0
  9  5  1  0  0  0  0
 12 11  1  0  0  0  0
 12 13  2  0  0  0  0
 13 14  1  0  0  0  0
 15 13  1  0  0  0  0
 16 15  2  0  0  0  0
 17 16  1  0  0  0  0
 17 12  1  0  0  0  0
 18 20  1  0  0  0  0
 19 18  1  0  0  0  0
 21 18  1  0  0  0  0
 22 27  1  0  0  0  0
 22 21  2  0  0  0  0
 23 22  1  0  0  0  0
 24 23  2  0  0  0  0
 24 25  1  0  0  0  0
 25 26  2  0  0  0  0
 26 21  1  0  0  0  0
 28 23  1  0  0  0  0
 29 25  1  0  0  0  0
M  END
>  <minimizedAffinity>
-4.76356506

$$$$

 OpenBabel03242518163D

 29 31  0  0  0  0  0  0  0  0999 V2000
   36.8300   25.2230   42.3370 C   0  0  0  0  0  0  0  0  0  0  0  0
   36.2950   24.8340   43.2570 H   0  0  0  0  0  0  0  0  0  0  0  0
   36.0430   25.2310   41.5660 H   0  0  0  0  0  0  0  0  0  0  0  0
   37.2350   26.5570   42.6000 C   0  0  0  0  0  0  0  0  0  0  0  0
   37.0250   27.5400   43.5980 C   0  0  0  0  0  0  0  0  0  0  0  0
   37.5860   28.7650   43.5200 C   0  0  0  0  0  0  0  0  0  0  0  0
   38.4110   29.0340   42.3800 C   0  0  0  0  0  0  0  0  0  0  0  0
   38.3800   27.5170   41.4110 S   0  0  0  0  0  0  0  0  0  0  0  0
   36.3900   27.1650   44.3610 H   0  0  0  0  0  0  0  0  0  0  0  0
   37.4240   29.5100   44.2810 H   0  0  0  0  0  0  0  0  0  0  0  0
   39.0450   30.1140   42.0890 O   0  0  0  0  0  0  0  0  0  0  0  0
   38.5210   31.0980   41.2740 C   0  0  0  0  0  0  0  0  0  0  0  0
   37.3430   31.2870   40.6660 C   0  0  0  0  0  0  0  0  0  0  0  0
   36.6120   30.5150   40.8250 H   0  0  0  0  0  0  0  0  0  0  0  0
   37.1320   32.3980   39.9060 C   0  0  0  0  0  3  0  0  0  0  0  0
   38.2780   33.3310   39.8230 C   0  0  0  0  0  3  0  0  0  0  0  0
   39.5460   32.4740   40.8730 S   0  0  0  0  0  0  0  0  0  0  0  0
   37.8780   24.2710   41.9160 C   0  0  0  0  0  0  0  0  0  0  0  0
   38.8080   24.7730   41.5490 H   0  0  0  0  0  0  0  0  0  0  0  0
   38.2200   23.5870   42.7370 H   0  0  0  0  0  0  0  0  0  0  0  0
   37.3870   23.4120   40.8430 C   0  0  0  0  0  0  0  0  0  0  0  0
   36.1830   23.6810   40.2120 C   0  0  0  0  0  0  0  0  0  0  0  0
   35.7740   22.8130   39.1890 C   0  0  0  0  0  0  0  0  0  0  0  0
   36.5830   21.7650   38.8860 N   0  0  0  0  0  0  0  0  0  0  0  0
   37.7370   21.5390   39.5200 C   0  0  0  0  0  0  0  0  0  0  0  0
   38.1270   22.3500   40.4780 N   0  0  0  0  0  0  0  0  0  0  0  0
   35.5640   24.5070   40.4640 H   0  0  0  0  0  0  0  0  0  0  0  0
   34.8340   22.9700   38.6530 H   0  0  0  0  0  0  0  0  0  0  0  0
   38.2680   20.6750   39.1710 H   0  0  0  0  0  0  0  0  0  0  0  0
  1  4  1  0  0  0  0
  1  2  1  0  0  0  0
  3  1  1  0  0  0  0
  4  5  2  0  0  0  0
  5  9  1  0  0  0  0
  6  5  1  0  0  0  0
  6 10  1  0  0  0  0
  7  6  2  0  0  0  0
  8  7  1  0  0  0  0
  8  4  1  0  0  0  0
 11  7  1  0  0  0  0
 12 11  1  0  0  0  0
 13 14  1  0  0  0  0
 13 12  2  0  0  0  0
 15 13  1  0  0  0  0
 16 15  2  0  0  0  0
 16 17  1  0  0  0  0
 17 12  1  0  0  0  0
 18  1  1  0  0  0  0
 18 20  1  0  0  0  0
 19 18  1  0  0  0  0
 21 18  1  0  0  0  0
 22 27  1  0  0  0  0
 22 21  2  0  0  0  0
 23 22  1  0  0  0  0
 24 23  2  0  0  0  0
 24 25  1  0  0  0  0
 25 26  2  0  0  0  0
 26 21  1  0  0  0  0
 28 23  1  0  0  0  0
 29 25  1  0  0  0  0
M  END
>  <minimizedAffinity>
-4.71490431

$$$$

 OpenBabel03242518163D

 29 31  0  0  0  0  0  0  0  0999 V2000
   39.8880   25.7070   43.6990 C   0  0  0  0  0  0  0  0  0  0  0  0
   40.8140   25.8350   44.3390 H   0  0  0  0  0  0  0  0  0  0  0  0
   39.2030   25.1390   44.3500 H   0  0  0  0  0  0  0  0  0  0  0  0
   39.3400   26.9950   43.4620 C   0  0  0  0  0  0  0  0  0  0  0  0
   38.1340   27.6860   43.7280 C   0  0  0  0  0  0  0  0  0  0  0  0
   37.9420   28.9630   43.3310 C   0  0  0  0  0  0  0  0  0  0  0  0
   39.0170   29.5950   42.6260 C   0  0  0  0  0  0  0  0  0  0  0  0
   40.3120   28.3480   42.5300 S   0  0  0  0  0  0  0  0  0  0  0  0
   37.4570   27.0640   44.2570 H   0  0  0  0  0  0  0  0  0  0  0  0
   37.0230   29.4860   43.5360 H   0  0  0  0  0  0  0  0  0  0  0  0
   39.0700   30.7900   42.1540 O   0  0  0  0  0  0  0  0  0  0  0  0
   38.3410   31.1960   41.0540 C   0  0  0  0  0  0  0  0  0  0  0  0
   37.4950   30.5920   40.2100 C   0  0  0  0  0  0  0  0  0  0  0  0
   37.3180   29.5480   40.4010 H   0  0  0  0  0  0  0  0  0  0  0  0
   36.9210   31.2930   39.1920 C   0  0  0  0  0  3  0  0  0  0  0  0
   37.3050   32.7200   39.1150 C   0  0  0  0  0  3  0  0  0  0  0  0
   38.4720   32.8800   40.5500 S   0  0  0  0  0  0  0  0  0  0  0  0
   40.1940   24.8760   42.5170 C   0  0  0  0  0  0  0  0  0  0  0  0
   41.0320   25.2830   41.8970 H   0  0  0  0  0  0  0  0  0  0  0  0
   40.5040   23.8290   42.7730 H   0  0  0  0  0  0  0  0  0  0  0  0
   39.0210   24.7610   41.6550 C   0  0  0  0  0  0  0  0  0  0  0  0
   37.8410   24.2160   42.1320 C   0  0  0  0  0  0  0  0  0  0  0  0
   36.7550   24.1360   41.2470 C   0  0  0  0  0  0  0  0  0  0  0  0
   36.9330   24.5970   39.9820 N   0  0  0  0  0  0  0  0  0  0  0  0
   38.0910   25.1160   39.5610 C   0  0  0  0  0  0  0  0  0  0  0  0
   39.1110   25.1940   40.3850 N   0  0  0  0  0  0  0  0  0  0  0  0
   37.7210   23.8610   43.1260 H   0  0  0  0  0  0  0  0  0  0  0  0
   35.7960   23.7170   41.5610 H   0  0  0  0  0  0  0  0  0  0  0  0
   38.0810   25.4390   38.5380 H   0  0  0  0  0  0  0  0  0  0  0  0
  1  2  1  0  0  0  0
  1  3  1  0  0  0  0
  4  1  1  0  0  0  0
  4  5  2  0  0  0  0
  5  9  1  0  0  0  0
  6 10  1  0  0  0  0
  6  5  1  0  0  0  0
  7  6  2  0  0  0  0
  8  7  1  0  0  0  0
  8  4  1  0  0  0  0
 11  7  1  0  0  0  0
 12 11  1  0  0  0  0
 13 14  1  0  0  0  0
 13 12  2  0  0  0  0
 15 13  1  0  0  0  0
 16 15  2  0  0  0  0
 16 17  1  0  0  0  0
 17 12  1  0  0  0  0
 18 20  1  0  0  0  0
 18  1  1  0  0  0  0
 19 18  1  0  0  0  0
 21 22  1  0  0  0  0
 21 18  1  0  0  0  0
 22 27  1  0  0  0  0
 23 28  1  0  0  0  0
 23 22  2  0  0  0  0
 24 23  1  0  0  0  0
 25 24  2  0  0  0  0
 25 26  1  0  0  0  0
 26 21  2  0  0  0  0
 29 25  1  0  0  0  0
M  END
>  <minimizedAffinity>
-4.71435022

$$$$
