
 OpenBabel03252504543D

 18 19  0  0  0  0  0  0  0  0999 V2000
   37.0030   31.1630   38.2000 C   0  0  0  0  0  0  0  0  0  0  0  0
   36.4810   30.0120   38.8160 C   0  0  0  0  0  0  0  0  0  0  0  0
   36.2950   30.0690   40.1920 C   0  0  0  0  0  0  0  0  0  0  0  0
   36.6250   31.2230   40.8640 N   0  0  0  0  0  0  0  0  0  0  0  0
   37.1240   32.2980   40.2160 C   0  0  0  0  0  0  0  0  0  0  0  0
   37.3110   32.2650   38.8910 N   0  0  0  0  0  0  0  0  0  0  0  0
   37.1370   31.0870   37.1210 H   0  0  0  0  0  0  0  0  0  0  0  0
   36.2350   29.1330   38.2680 H   0  0  0  0  0  0  0  0  0  0  0  0
   37.3810   33.2030   40.7490 H   0  0  0  0  0  0  0  0  0  0  0  0
   35.7510   28.8710   40.8370 C   0  0  0  0  0  0  0  0  0  0  0  0
   34.8550   29.1050   41.4530 H   0  0  0  0  0  0  0  0  0  0  0  0
   35.4890   28.1150   40.0750 H   0  0  0  0  0  0  0  0  0  0  0  0
   36.7630   28.3040   41.7600 C   0  0  0  0  0  0  0  0  0  0  0  0
   36.6580   27.9320   43.0620 C   0  0  0  0  0  0  0  0  0  0  0  0
   35.6990   28.0500   43.5500 H   0  0  0  0  0  0  0  0  0  0  0  0
   37.7790   27.4280   43.6780 C   0  0  0  0  0  3  0  0  0  0  0  0
   38.9350   27.3210   42.9750 C   0  0  0  0  0  3  0  0  0  0  0  0
   38.4590   27.9670   41.3110 S   0  0  0  0  0  0  0  0  0  0  0  0
  1  2  2  0  0  0  0
  1  6  1  0  0  0  0
  2  3  1  0  0  0  0
  3 10  1  0  0  0  0
  3  4  2  0  0  0  0
  5  9  1  0  0  0  0
  5  4  1  0  0  0  0
  6  5  2  0  0  0  0
  7  1  1  0  0  0  0
  8  2  1  0  0  0  0
 10 11  1  0  0  0  0
 10 13  1  0  0  0  0
 12 10  1  0  0  0  0
 13 14  2  0  0  0  0
 14 15  1  0  0  0  0
 14 16  1  0  0  0  0
 17 16  2  0  0  0  0
 18 13  1  0  0  0  0
 18 17  1  0  0  0  0
M  END
>  <minimizedAffinity>
-3.80761719

$$$$

 OpenBabel03252504543D

 18 19  0  0  0  0  0  0  0  0999 V2000
   37.8640   24.9720   42.1660 C   0  0  0  0  0  0  0  0  0  0  0  0
   37.3080   26.2140   42.5200 C   0  0  0  0  0  0  0  0  0  0  0  0
   38.0960   27.0510   43.3020 C   0  0  0  0  0  0  0  0  0  0  0  0
   39.3490   26.6300   43.6800 N   0  0  0  0  0  0  0  0  0  0  0  0
   39.8280   25.4230   43.3090 C   0  0  0  0  0  0  0  0  0  0  0  0
   39.0870   24.6010   42.5560 N   0  0  0  0  0  0  0  0  0  0  0  0
   37.2220   24.3390   41.5540 H   0  0  0  0  0  0  0  0  0  0  0  0
   36.3350   26.5120   42.2110 H   0  0  0  0  0  0  0  0  0  0  0  0
   40.8140   25.0960   43.6090 H   0  0  0  0  0  0  0  0  0  0  0  0
   37.5200   28.3460   43.6720 C   0  0  0  0  0  0  0  0  0  0  0  0
   36.4070   28.3220   43.6600 H   0  0  0  0  0  0  0  0  0  0  0  0
   37.8720   28.6470   44.6750 H   0  0  0  0  0  0  0  0  0  0  0  0
   37.9310   29.3710   42.6820 C   0  0  0  0  0  0  0  0  0  0  0  0
   39.1070   30.0350   42.5390 C   0  0  0  0  0  0  0  0  0  0  0  0
   39.9050   29.8160   43.2360 H   0  0  0  0  0  0  0  0  0  0  0  0
   39.2080   30.9460   41.5140 C   0  0  0  0  0  3  0  0  0  0  0  0
   38.1460   31.1480   40.6930 C   0  0  0  0  0  3  0  0  0  0  0  0
   36.8800   29.9880   41.3750 S   0  0  0  0  0  0  0  0  0  0  0  0
  1  2  2  0  0  0  0
  1  6  1  0  0  0  0
  2  3  1  0  0  0  0
  3 10  1  0  0  0  0
  3  4  2  0  0  0  0
  5  9  1  0  0  0  0
  5  4  1  0  0  0  0
  6  5  2  0  0  0  0
  7  1  1  0  0  0  0
  8  2  1  0  0  0  0
 10 12  1  0  0  0  0
 11 10  1  0  0  0  0
 13 10  1  0  0  0  0
 14 13  2  0  0  0  0
 14 15  1  0  0  0  0
 16 14  1  0  0  0  0
 17 18  1  0  0  0  0
 17 16  2  0  0  0  0
 18 13  1  0  0  0  0
M  END
>  <minimizedAffinity>
-3.73293281

$$$$

 OpenBabel03252504543D

 18 19  0  0  0  0  0  0  0  0999 V2000
   38.9170   30.9110   41.5400 C   0  0  0  0  0  0  0  0  0  0  0  0
   38.8230   29.9270   42.5390 C   0  0  0  0  0  0  0  0  0  0  0  0
   37.6140   29.2510   42.6400 C   0  0  0  0  0  0  0  0  0  0  0  0
   36.5930   29.5740   41.7760 N   0  0  0  0  0  0  0  0  0  0  0  0
   36.7420   30.5320   40.8360 C   0  0  0  0  0  0  0  0  0  0  0  0
   37.8990   31.1950   40.7210 N   0  0  0  0  0  0  0  0  0  0  0  0
   39.8780   31.4230   41.4860 H   0  0  0  0  0  0  0  0  0  0  0  0
   39.6320   29.6980   43.1920 H   0  0  0  0  0  0  0  0  0  0  0  0
   35.9370   30.7830   40.1600 H   0  0  0  0  0  0  0  0  0  0  0  0
   37.5130   28.2240   43.6800 C   0  0  0  0  0  0  0  0  0  0  0  0
   37.9350   28.5740   44.6480 H   0  0  0  0  0  0  0  0  0  0  0  0
   36.4580   27.9280   43.8210 H   0  0  0  0  0  0  0  0  0  0  0  0
   38.3050   27.0360   43.2790 C   0  0  0  0  0  0  0  0  0  0  0  0
   39.5350   26.6200   43.6800 C   0  0  0  0  0  0  0  0  0  0  0  0
   40.0630   27.2200   44.4080 H   0  0  0  0  0  0  0  0  0  0  0  0
   40.0290   25.4600   43.1320 C   0  0  0  0  0  3  0  0  0  0  0  0
   39.2840   24.7810   42.2230 C   0  0  0  0  0  3  0  0  0  0  0  0
   37.7580   25.8140   42.0960 S   0  0  0  0  0  0  0  0  0  0  0  0
  1  2  1  0  0  0  0
  2  3  2  0  0  0  0
  2  8  1  0  0  0  0
  3 10  1  0  0  0  0
  4  3  1  0  0  0  0
  5  4  2  0  0  0  0
  6  5  1  0  0  0  0
  6  1  2  0  0  0  0
  7  1  1  0  0  0  0
  9  5  1  0  0  0  0
 10 12  1  0  0  0  0
 10 11  1  0  0  0  0
 13 10  1  0  0  0  0
 13 14  2  0  0  0  0
 14 15  1  0  0  0  0
 16 14  1  0  0  0  0
 17 16  2  0  0  0  0
 18 17  1  0  0  0  0
 18 13  1  0  0  0  0
M  END
>  <minimizedAffinity>
-3.73290372

$$$$

 OpenBabel03252504543D

 18 19  0  0  0  0  0  0  0  0999 V2000
   37.6610   23.9430   41.5420 C   0  0  0  0  0  0  0  0  0  0  0  0
   36.8820   24.9670   42.1080 C   0  0  0  0  0  0  0  0  0  0  0  0
   37.5340   26.1570   42.4060 C   0  0  0  0  0  0  0  0  0  0  0  0
   38.8780   26.2680   42.1380 N   0  0  0  0  0  0  0  0  0  0  0  0
   39.5750   25.2480   41.5930 C   0  0  0  0  0  0  0  0  0  0  0  0
   38.9670   24.0930   41.2980 N   0  0  0  0  0  0  0  0  0  0  0  0
   37.1210   23.0230   41.3200 H   0  0  0  0  0  0  0  0  0  0  0  0
   35.8420   24.8510   42.3040 H   0  0  0  0  0  0  0  0  0  0  0  0
   40.6320   25.3400   41.3840 H   0  0  0  0  0  0  0  0  0  0  0  0
   36.7240   27.2270   42.9960 C   0  0  0  0  0  0  0  0  0  0  0  0
   35.6810   26.8940   43.1920 H   0  0  0  0  0  0  0  0  0  0  0  0
   37.1840   27.5770   43.9380 H   0  0  0  0  0  0  0  0  0  0  0  0
   36.6350   28.3610   42.0450 C   0  0  0  0  0  0  0  0  0  0  0  0
   35.7440   28.6070   41.0480 C   0  0  0  0  0  0  0  0  0  0  0  0
   34.9540   27.8880   40.8830 H   0  0  0  0  0  0  0  0  0  0  0  0
   35.9070   29.7580   40.3140 C   0  0  0  0  0  3  0  0  0  0  0  0
   36.9350   30.5950   40.6040 C   0  0  0  0  0  3  0  0  0  0  0  0
   37.7680   29.7410   42.0150 S   0  0  0  0  0  0  0  0  0  0  0  0
  1  2  1  0  0  0  0
  2  8  1  0  0  0  0
  2  3  2  0  0  0  0
  3 10  1  0  0  0  0
  4  3  1  0  0  0  0
  5  4  2  0  0  0  0
  6  1  2  0  0  0  0
  6  5  1  0  0  0  0
  7  1  1  0  0  0  0
  9  5  1  0  0  0  0
 10 11  1  0  0  0  0
 10 12  1  0  0  0  0
 13 10  1  0  0  0  0
 14 13  2  0  0  0  0
 15 14  1  0  0  0  0
 16 17  2  0  0  0  0
 16 14  1  0  0  0  0
 17 18  1  0  0  0  0
 18 13  1  0  0  0  0
M  END
>  <minimizedAffinity>
-3.72987485

$$$$

 OpenBabel03252504543D

 18 19  0  0  0  0  0  0  0  0999 V2000
   38.7610   28.7560   42.8500 C   0  0  0  0  0  0  0  0  0  0  0  0
   38.1250   29.8520   42.2400 C   0  0  0  0  0  0  0  0  0  0  0  0
   36.8720   29.6200   41.6890 C   0  0  0  0  0  0  0  0  0  0  0  0
   36.3300   28.3590   41.7650 N   0  0  0  0  0  0  0  0  0  0  0  0
   36.9900   27.3440   42.3640 C   0  0  0  0  0  0  0  0  0  0  0  0
   38.1990   27.5450   42.9020 N   0  0  0  0  0  0  0  0  0  0  0  0
   39.7420   28.9700   43.2730 H   0  0  0  0  0  0  0  0  0  0  0  0
   38.5700   30.8180   42.1980 H   0  0  0  0  0  0  0  0  0  0  0  0
   36.5600   26.3530   42.4220 H   0  0  0  0  0  0  0  0  0  0  0  0
   36.2060   30.7610   41.0530 C   0  0  0  0  0  0  0  0  0  0  0  0
   35.1050   30.6170   40.9970 H   0  0  0  0  0  0  0  0  0  0  0  0
   36.4300   31.6900   41.6090 H   0  0  0  0  0  0  0  0  0  0  0  0
   36.6870   30.8980   39.6570 C   0  0  0  0  0  0  0  0  0  0  0  0
   36.5520   30.0650   38.5930 C   0  0  0  0  0  0  0  0  0  0  0  0
   36.0140   29.1370   38.7370 H   0  0  0  0  0  0  0  0  0  0  0  0
   37.1090   30.4560   37.3980 C   0  0  0  0  0  3  0  0  0  0  0  0
   37.7640   31.6420   37.3240 C   0  0  0  0  0  3  0  0  0  0  0  0
   37.6130   32.2980   39.0440 S   0  0  0  0  0  0  0  0  0  0  0  0
  1  6  1  0  0  0  0
  1  7  1  0  0  0  0
  2  1  2  0  0  0  0
  3  4  2  0  0  0  0
  3  2  1  0  0  0  0
  4  5  1  0  0  0  0
  5  9  1  0  0  0  0
  5  6  2  0  0  0  0
  8  2  1  0  0  0  0
 10 12  1  0  0  0  0
 10  3  1  0  0  0  0
 11 10  1  0  0  0  0
 13 10  1  0  0  0  0
 14 15  1  0  0  0  0
 14 13  2  0  0  0  0
 16 14  1  0  0  0  0
 17 16  2  0  0  0  0
 17 18  1  0  0  0  0
 18 13  1  0  0  0  0
M  END
>  <minimizedAffinity>
-3.72010994

$$$$

 OpenBabel03252504543D

 18 19  0  0  0  0  0  0  0  0999 V2000
   37.8660   26.1990   41.2070 C   0  0  0  0  0  0  0  0  0  0  0  0
   36.9210   27.0390   40.5920 C   0  0  0  0  0  0  0  0  0  0  0  0
   36.4120   28.0770   41.3620 C   0  0  0  0  0  0  0  0  0  0  0  0
   36.8500   28.2260   42.6580 N   0  0  0  0  0  0  0  0  0  0  0  0
   37.7600   27.3850   43.1940 C   0  0  0  0  0  0  0  0  0  0  0  0
   38.2640   26.3790   42.4710 N   0  0  0  0  0  0  0  0  0  0  0  0
   38.2470   25.3960   40.5770 H   0  0  0  0  0  0  0  0  0  0  0  0
   36.6030   26.8990   39.5860 H   0  0  0  0  0  0  0  0  0  0  0  0
   38.1010   27.5060   44.2140 H   0  0  0  0  0  0  0  0  0  0  0  0
   35.4270   28.9540   40.7240 C   0  0  0  0  0  0  0  0  0  0  0  0
   34.8940   28.4410   39.8930 H   0  0  0  0  0  0  0  0  0  0  0  0
   34.6940   29.3090   41.4710 H   0  0  0  0  0  0  0  0  0  0  0  0
   36.1190   30.1210   40.1250 C   0  0  0  0  0  0  0  0  0  0  0  0
   36.5540   31.2760   40.6950 C   0  0  0  0  0  0  0  0  0  0  0  0
   36.3920   31.4130   41.7560 H   0  0  0  0  0  0  0  0  0  0  0  0
   37.1730   32.1970   39.8840 C   0  0  0  0  0  3  0  0  0  0  0  0
   37.3270   31.9270   38.5630 C   0  0  0  0  0  3  0  0  0  0  0  0
   36.5560   30.2560   38.3980 S   0  0  0  0  0  0  0  0  0  0  0  0
  1  6  1  0  0  0  0
  2  1  2  0  0  0  0
  2  3  1  0  0  0  0
  3  4  2  0  0  0  0
  4  5  1  0  0  0  0
  5  9  1  0  0  0  0
  6  5  2  0  0  0  0
  7  1  1  0  0  0  0
  8  2  1  0  0  0  0
 10  3  1  0  0  0  0
 10 12  1  0  0  0  0
 11 10  1  0  0  0  0
 13 14  2  0  0  0  0
 13 10  1  0  0  0  0
 14 15  1  0  0  0  0
 16 14  1  0  0  0  0
 17 16  2  0  0  0  0
 18 17  1  0  0  0  0
 18 13  1  0  0  0  0
M  END
>  <minimizedAffinity>
-3.70257139

$$$$

 OpenBabel03252504543D

 18 19  0  0  0  0  0  0  0  0999 V2000
   35.8950   29.5430   40.1590 C   0  0  0  0  0  0  0  0  0  0  0  0
   35.8550   28.4820   41.0810 C   0  0  0  0  0  0  0  0  0  0  0  0
   36.7940   28.5070   42.1050 C   0  0  0  0  0  0  0  0  0  0  0  0
   37.6940   29.5450   42.1610 N   0  0  0  0  0  0  0  0  0  0  0  0
   37.6850   30.5360   41.2450 C   0  0  0  0  0  0  0  0  0  0  0  0
   36.7890   30.5330   40.2500 N   0  0  0  0  0  0  0  0  0  0  0  0
   35.1470   29.4940   39.3690 H   0  0  0  0  0  0  0  0  0  0  0  0
   35.1440   27.6930   41.0120 H   0  0  0  0  0  0  0  0  0  0  0  0
   38.3950   31.3500   41.2930 H   0  0  0  0  0  0  0  0  0  0  0  0
   36.7540   27.4030   43.0680 C   0  0  0  0  0  0  0  0  0  0  0  0
   37.3440   27.6320   43.9820 H   0  0  0  0  0  0  0  0  0  0  0  0
   35.7080   27.1820   43.3490 H   0  0  0  0  0  0  0  0  0  0  0  0
   37.3630   26.1960   42.4610 C   0  0  0  0  0  0  0  0  0  0  0  0
   36.8230   24.9790   42.1870 C   0  0  0  0  0  0  0  0  0  0  0  0
   35.7830   24.8160   42.4340 H   0  0  0  0  0  0  0  0  0  0  0  0
   37.6370   24.0320   41.6120 C   0  0  0  0  0  3  0  0  0  0  0  0
   38.9320   24.3390   41.3430 C   0  0  0  0  0  3  0  0  0  0  0  0
   39.0640   26.0870   41.9240 S   0  0  0  0  0  0  0  0  0  0  0  0
  1  6  2  0  0  0  0
  1  2  1  0  0  0  0
  2  3  2  0  0  0  0
  3  4  1  0  0  0  0
  3 10  1  0  0  0  0
  5  9  1  0  0  0  0
  5  4  2  0  0  0  0
  6  5  1  0  0  0  0
  7  1  1  0  0  0  0
  8  2  1  0  0  0  0
 10 12  1  0  0  0  0
 10 11  1  0  0  0  0
 13 10  1  0  0  0  0
 14 15  1  0  0  0  0
 14 13  2  0  0  0  0
 16 14  1  0  0  0  0
 17 16  2  0  0  0  0
 17 18  1  0  0  0  0
 18 13  1  0  0  0  0
M  END
>  <minimizedAffinity>
-3.67702579

$$$$

 OpenBabel03252504543D

 18 19  0  0  0  0  0  0  0  0999 V2000
   40.7000   28.4000   42.9340 C   0  0  0  0  0  0  0  0  0  0  0  0
   39.5810   27.5840   43.1760 C   0  0  0  0  0  0  0  0  0  0  0  0
   38.3360   28.1980   43.1170 C   0  0  0  0  0  0  0  0  0  0  0  0
   38.2650   29.5410   42.8320 N   0  0  0  0  0  0  0  0  0  0  0  0
   39.3770   30.2740   42.6090 C   0  0  0  0  0  0  0  0  0  0  0  0
   40.5870   29.7030   42.6610 N   0  0  0  0  0  0  0  0  0  0  0  0
   41.6610   27.8890   42.9870 H   0  0  0  0  0  0  0  0  0  0  0  0
   39.6680   26.5460   43.3930 H   0  0  0  0  0  0  0  0  0  0  0  0
   39.3160   31.3300   42.3860 H   0  0  0  0  0  0  0  0  0  0  0  0
   37.1670   27.3500   43.3680 C   0  0  0  0  0  0  0  0  0  0  0  0
   37.2740   26.7680   44.3100 H   0  0  0  0  0  0  0  0  0  0  0  0
   36.2520   27.9680   43.4170 H   0  0  0  0  0  0  0  0  0  0  0  0
   37.0300   26.3600   42.2730 C   0  0  0  0  0  0  0  0  0  0  0  0
   36.9300   25.0060   42.3170 C   0  0  0  0  0  0  0  0  0  0  0  0
   36.9490   24.5250   43.2850 H   0  0  0  0  0  0  0  0  0  0  0  0
   36.8100   24.3330   41.1240 C   0  0  0  0  0  3  0  0  0  0  0  0
   36.7960   25.0340   39.9610 C   0  0  0  0  0  3  0  0  0  0  0  0
   36.9610   26.7810   40.5380 S   0  0  0  0  0  0  0  0  0  0  0  0
  1  7  1  0  0  0  0
  1  2  1  0  0  0  0
  2  8  1  0  0  0  0
  3  2  2  0  0  0  0
  3 10  1  0  0  0  0
  4  3  1  0  0  0  0
  5  6  1  0  0  0  0
  5  4  2  0  0  0  0
  6  1  2  0  0  0  0
  9  5  1  0  0  0  0
 10 12  1  0  0  0  0
 10 11  1  0  0  0  0
 13 14  2  0  0  0  0
 13 10  1  0  0  0  0
 14 15  1  0  0  0  0
 16 14  1  0  0  0  0
 17 18  1  0  0  0  0
 17 16  2  0  0  0  0
 18 13  1  0  0  0  0
M  END
>  <minimizedAffinity>
-3.66720963

$$$$

 OpenBabel03252504543D

 18 19  0  0  0  0  0  0  0  0999 V2000
   36.1950   29.5990   37.5920 C   0  0  0  0  0  0  0  0  0  0  0  0
   36.6660   30.0830   38.8250 C   0  0  0  0  0  0  0  0  0  0  0  0
   35.8380   29.8990   39.9260 C   0  0  0  0  0  0  0  0  0  0  0  0
   34.6280   29.2670   39.7550 N   0  0  0  0  0  0  0  0  0  0  0  0
   34.2300   28.8240   38.5430 C   0  0  0  0  0  0  0  0  0  0  0  0
   35.0110   28.9910   37.4690 N   0  0  0  0  0  0  0  0  0  0  0  0
   36.8670   29.7590   36.7490 H   0  0  0  0  0  0  0  0  0  0  0  0
   37.6080   30.5680   38.9260 H   0  0  0  0  0  0  0  0  0  0  0  0
   33.2780   28.3280   38.4140 H   0  0  0  0  0  0  0  0  0  0  0  0
   36.3260   30.4020   41.2130 C   0  0  0  0  0  0  0  0  0  0  0  0
   37.0840   31.2050   41.0810 H   0  0  0  0  0  0  0  0  0  0  0  0
   35.4820   30.7850   41.8160 H   0  0  0  0  0  0  0  0  0  0  0  0
   36.9960   29.3040   41.9510 C   0  0  0  0  0  0  0  0  0  0  0  0
   36.5810   28.0370   42.2140 C   0  0  0  0  0  0  0  0  0  0  0  0
   35.6100   27.7330   41.8460 H   0  0  0  0  0  0  0  0  0  0  0  0
   37.4240   27.2230   42.9320 C   0  0  0  0  0  3  0  0  0  0  0  0
   38.6230   27.7040   43.3470 C   0  0  0  0  0  3  0  0  0  0  0  0
   38.6120   29.4350   42.7010 S   0  0  0  0  0  0  0  0  0  0  0  0
  1  2  1  0  0  0  0
  2  8  1  0  0  0  0
  2  3  2  0  0  0  0
  3 10  1  0  0  0  0
  4  3  1  0  0  0  0
  5  4  2  0  0  0  0
  6  1  2  0  0  0  0
  6  5  1  0  0  0  0
  7  1  1  0  0  0  0
  9  5  1  0  0  0  0
 10 12  1  0  0  0  0
 10 13  1  0  0  0  0
 11 10  1  0  0  0  0
 13 14  2  0  0  0  0
 13 18  1  0  0  0  0
 14 16  1  0  0  0  0
 15 14  1  0  0  0  0
 16 17  2  0  0  0  0
 18 17  1  0  0  0  0
M  END
>  <minimizedAffinity>
-3.66441751

$$$$
