
 OpenBabel03252508543D

 40 43  0  0  1  0  0  0  0  0999 V2000
   43.3350   34.4650   40.7700 C   0  0  0  0  0  0  0  0  0  0  0  0
   43.2790   35.6970   40.4300 O   0  0  0  0  0  0  0  0  0  0  0  0
   41.9730   34.0860   40.4520 N   0  0  0  0  0  0  0  0  0  0  0  0
   41.5890   34.2450   39.0690 C   0  0  0  0  0  0  0  0  0  0  0  0
   40.7840   35.5500   39.0370 C   0  0  0  0  0  0  0  0  0  0  0  0
   39.9920   35.6000   40.3520 C   0  0  0  0  0  0  0  0  0  0  0  0
   39.6630   34.1890   40.8480 C   0  0  0  0  0  0  0  0  0  0  0  0
   40.9420   33.5610   41.3640 C   0  0  1  0  0  0  0  0  0  0  0  0
   40.9200   33.4260   38.7330 H   0  0  0  0  0  0  0  0  0  0  0  0
   42.4410   34.4070   38.3950 H   0  0  0  0  0  0  0  0  0  0  0  0
   41.5240   36.3900   39.0310 H   0  0  0  0  0  0  0  0  0  0  0  0
   40.1030   35.5880   38.1600 H   0  0  0  0  0  0  0  0  0  0  0  0
   39.1070   36.2090   40.1880 H   0  0  0  0  0  0  0  0  0  0  0  0
   40.6080   36.0920   41.1400 H   0  0  0  0  0  0  0  0  0  0  0  0
   39.3010   33.6300   39.9720 H   0  0  0  0  0  0  0  0  0  0  0  0
   38.8870   34.3140   41.6240 H   0  0  0  0  0  0  0  0  0  0  0  0
   41.1610   34.0750   42.3280 H   0  0  0  0  0  0  0  0  0  0  0  0
   40.9610   32.1780   41.4830 C   0  0  0  0  0  0  0  0  0  0  0  0
   41.7670   31.2230   42.0630 C   0  0  0  0  0  0  0  0  0  0  0  0
   42.6270   31.6210   42.5700 H   0  0  0  0  0  0  0  0  0  0  0  0
   41.5080   29.8850   42.0080 C   0  0  0  0  0  3  0  0  0  0  0  0
   40.2450   29.5200   41.2460 C   0  0  0  0  0  3  0  0  0  0  0  0
   39.6460   31.2450   40.7350 S   0  0  0  0  0  0  0  0  0  0  0  0
   44.3990   33.7810   41.2750 O   0  0  0  0  0  0  0  0  0  0  0  0
   45.7310   34.1080   41.1170 C   0  0  0  0  0  0  0  0  0  0  0  0
   46.3770   34.7370   42.1960 C   0  0  0  0  0  0  0  0  0  0  0  0
   47.7300   35.0590   42.0100 C   0  0  0  0  0  0  0  0  0  0  0  0
   48.3280   34.7500   40.8180 N   0  0  0  0  0  0  0  0  0  0  0  0
   47.6630   34.1560   39.8360 C   0  0  0  0  0  0  0  0  0  0  0  0
   46.3610   33.8280   39.9730 N   0  0  0  0  0  0  0  0  0  0  0  0
   48.2420   35.5420   42.8280 H   0  0  0  0  0  0  0  0  0  0  0  0
   48.1570   33.9190   38.8970 H   0  0  0  0  0  0  0  0  0  0  0  0
   45.6510   35.0190   43.4140 C   0  0  0  0  0  0  0  0  0  0  0  0
   45.0100   36.2330   43.6420 C   0  0  0  0  0  0  0  0  0  0  0  0
   44.4550   36.0920   44.8860 C   0  0  0  0  0  0  0  0  0  0  0  0
   44.7380   34.8650   45.3930 N   0  0  0  0  0  0  0  0  0  0  0  0
   45.4590   34.2520   44.4750 N   0  0  0  0  0  0  0  0  0  0  0  0
   44.9430   37.1080   43.0100 H   0  0  0  0  0  0  0  0  0  0  0  0
   43.8640   36.7880   45.4680 H   0  0  0  0  0  0  0  0  0  0  0  0
   44.4990   34.3880   46.2950 H   0  0  0  0  0  0  0  0  0  0  0  0
  1 24  1  0  0  0  0
  2  1  2  0  0  0  0
  3  1  1  0  0  0  0
  3  8  1  0  0  0  0
  4  3  1  0  0  0  0
  5  4  1  0  0  0  0
  5  6  1  0  0  0  0
  6  7  1  0  0  0  0
  6 14  1  0  0  0  0
  7  8  1  0  0  0  0
  7 16  1  0  0  0  0
  8 18  1  0  0  0  0
  8 17  1  1  0  0  0
  9  4  1  0  0  0  0
 10  4  1  0  0  0  0
 11  5  1  0  0  0  0
 12  5  1  0  0  0  0
 13  6  1  0  0  0  0
 15  7  1  0  0  0  0
 18 19  2  0  0  0  0
 19 20  1  0  0  0  0
 21 19  1  0  0  0  0
 22 21  2  0  0  0  0
 23 22  1  0  0  0  0
 23 18  1  0  0  0  0
 25 24  1  0  0  0  0
 25 26  1  0  0  0  0
 26 33  1  0  0  0  0
 27 26  2  0  0  0  0
 27 31  1  0  0  0  0
 28 27  1  0  0  0  0
 29 30  1  0  0  0  0
 29 28  2  0  0  0  0
 30 25  2  0  0  0  0
 32 29  1  0  0  0  0
 33 34  1  0  0  0  0
 33 37  2  0  0  0  0
 34 35  2  0  0  0  0
 35 36  1  0  0  0  0
 35 39  1  0  0  0  0
 36 40  1  0  0  0  0
 37 36  1  0  0  0  0
 38 34  1  0  0  0  0
M  END
>  <minimizedAffinity>
-6.53351021

>  <minimizedRMSD>
0.240519345

$$$$
