
 OpenBabel03242517173D

 30 32  0  0  0  0  0  0  0  0999 V2000
   44.3260   35.3980   42.2950 C   0  0  0  0  0  0  0  0  0  0  0  0
   43.3270   35.0270   41.5410 C   0  0  0  0  0  0  0  0  0  0  0  0
   44.5560   35.3960   44.8010 C   0  0  0  0  0  0  0  0  0  0  0  0
   44.7340   34.7620   43.5430 C   0  0  0  0  0  0  0  0  0  0  0  0
   45.3160   33.4890   43.5140 C   0  0  0  0  0  0  0  0  0  0  0  0
   45.6750   32.9510   44.7210 N   0  0  0  0  0  0  0  0  0  0  0  0
   45.4940   33.5770   45.8870 C   0  0  0  0  0  0  0  0  0  0  0  0
   44.9400   34.7880   45.9200 N   0  0  0  0  0  0  0  0  0  0  0  0
   44.1070   36.3790   44.8260 H   0  0  0  0  0  0  0  0  0  0  0  0
   45.4560   32.9970   42.5650 H   0  0  0  0  0  0  0  0  0  0  0  0
   45.9720   32.7550   46.9790 C   0  0  0  0  0  0  0  0  0  0  0  0
   47.2910   32.5350   47.3680 C   0  0  0  0  0  0  0  0  0  0  0  0
   48.0830   33.0170   46.8160 H   0  0  0  0  0  0  0  0  0  0  0  0
   47.5820   31.7350   48.4140 C   0  0  0  0  0  0  0  0  0  0  0  0
   46.5420   31.0970   49.1460 C   0  0  0  0  0  0  0  0  0  0  0  0
   45.0120   31.7160   48.2280 S   0  0  0  0  0  0  0  0  0  0  0  0
   42.9670   35.7290   40.2730 C   0  0  0  0  0  0  0  0  0  0  0  0
   43.7500   35.3970   39.5360 H   0  0  0  0  0  0  0  0  0  0  0  0
   43.1000   36.8340   40.3510 H   0  0  0  0  0  0  0  0  0  0  0  0
   42.3310   35.8320   37.5580 F   0  0  0  0  0  0  0  0  0  0  0  0
   41.3950   35.3570   38.4040 C   0  0  0  0  0  0  0  0  0  0  0  0
   41.6720   35.2870   39.7830 C   0  0  0  0  0  0  0  0  0  0  0  0
   40.6380   34.7890   40.5170 C   0  0  0  0  0  0  0  0  0  0  0  0
   39.4030   34.3630   40.0760 C   0  0  0  0  0  0  0  0  0  0  0  0
   39.2210   34.4710   38.6840 C   0  0  0  0  0  0  0  0  0  0  0  0
   40.1860   34.9580   37.8280 C   0  0  0  0  0  0  0  0  0  0  0  0
   40.7780   34.7070   41.5890 H   0  0  0  0  0  0  0  0  0  0  0  0
   38.6400   33.9830   40.7150 H   0  0  0  0  0  0  0  0  0  0  0  0
   38.2850   34.1640   38.2270 H   0  0  0  0  0  0  0  0  0  0  0  0
   40.0390   35.0370   36.7780 H   0  0  0  0  0  0  0  0  0  0  0  0
  1  4  1  0  0  0  0
  2  1  2  0  0  0  0
  3  9  1  0  0  0  0
  3  8  1  0  0  0  0
  4  3  2  0  0  0  0
  5  4  1  0  0  0  0
  5  6  2  0  0  0  0
  6  7  1  0  0  0  0
  7  8  2  0  0  0  0
  7 11  1  0  0  0  0
 10  5  1  0  0  0  0
 11 12  2  0  0  0  0
 11 16  1  0  0  0  0
 12 14  1  0  0  0  0
 13 12  1  0  0  0  0
 14 15  2  0  0  0  0
 16 15  1  0  0  0  0
 17 19  1  0  0  0  0
 17  2  1  0  0  0  0
 18 17  1  0  0  0  0
 20 21  1  0  0  0  0
 21 22  1  0  0  0  0
 22 17  1  0  0  0  0
 22 23  2  0  0  0  0
 23 27  1  0  0  0  0
 24 23  1  0  0  0  0
 24 28  1  0  0  0  0
 25 24  2  0  0  0  0
 26 21  2  0  0  0  0
 26 25  1  0  0  0  0
 29 25  1  0  0  0  0
 30 26  1  0  0  0  0
M  END
>  <minimizedAffinity>
-6.35234785

>  <minimizedRMSD>
1.3852241

$$$$
