REMARK  Name = 
REMARK  10 active torsions:
REMARK  status: ('A' for Active; 'I' for Inactive)
REMARK    1  A    between atoms: C_1  and  C_9
REMARK    2  A    between atoms: C_2  and  C_13
REMARK    3  A    between atoms: C_13  and  N_14
REMARK    4  A    between atoms: N_14  and  S_15
REMARK    5  A    between atoms: S_15  and  O_16
REMARK    6  A    between atoms: S_15  and  O_17
REMARK    7  A    between atoms: S_15  and  O_18
REMARK    8  A    between atoms: O_18  and  C_19
REMARK    9  A    between atoms: C_19  and  C_20
REMARK   10  A    between atoms: C_20  and  C_37
REMARK                            x       y       z     vdW  Elec       q    Type
REMARK                         _______ _______ _______ _____ _____    ______ ____
ROOT
ATOM      1  C   UNL     1      43.047  32.541  41.641  0.00  0.00    +0.000 C 
ATOM      2  H   UNL     1      42.134  32.975  41.193  0.00  0.00    +0.000 HD
ATOM      3  H   UNL     1      43.638  32.108  40.782  0.00  0.00    +0.000 HD
ENDROOT
BRANCH   1   5
ATOM      4  C   UNL     1      43.660  34.957  41.882  0.00  0.00    +0.000 A 
ATOM      5  C   UNL     1      43.906  33.632  42.187  0.00  0.00    +0.000 A 
ATOM      6  C   UNL     1      44.971  33.331  43.012  0.00  0.00    +0.000 A 
ATOM      7  C   UNL     1      45.755  34.339  43.509  0.00  0.00    +0.000 A 
ATOM      8  C   UNL     1      45.529  35.666  43.219  0.00  0.00    +0.000 A 
ATOM      9  C   UNL     1      44.450  35.917  42.388  0.00  0.00    +0.000 A 
ATOM     10  H   UNL     1      45.212  32.313  43.285  0.00  0.00    +0.000 HD
ATOM     11  H   UNL     1      46.593  34.109  44.158  0.00  0.00    +0.000 HD
ATOM     12  H   UNL     1      46.093  36.499  43.568  0.00  0.00    +0.000 HD
ATOM     13  H   UNL     1      44.196  36.930  42.106  0.00  0.00    +0.000 HD
BRANCH   4  16
ATOM     14  C   UNL     1      40.227  35.799  40.523  0.00  0.00    +0.000 A 
ATOM     15  C   UNL     1      41.257  35.581  41.454  0.00  0.00    +0.000 A 
ATOM     16  C   UNL     1      42.517  35.209  41.003  0.00  0.00    +0.000 A 
ATOM     17  N   UNL     1      42.686  35.073  39.659  0.00  0.00    +0.000 NA
ATOM     18  C   UNL     1      41.685  35.286  38.776  0.00  0.00    +0.000 A 
ATOM     19  N   UNL     1      40.458  35.649  39.218  0.00  0.00    +0.000 NA
ATOM     20  H   UNL     1      39.266  36.085  40.889  0.00  0.00    +0.000 HD
ATOM     21  H   UNL     1      41.121  35.690  42.520  0.00  0.00    +0.000 HD
ATOM     22  H   UNL     1      41.959  35.142  37.745  0.00  0.00    +0.000 HD
ENDBRANCH   4  16
ENDBRANCH   1   5
BRANCH   1  23
ATOM     23  N   UNL     1      42.706  31.515  42.570  0.00  0.00    +0.000 NA
ATOM     24  H   UNL     1      43.025  31.668  43.544  0.00  0.00    +0.000 HD
BRANCH  23  25
ATOM     25  S   UNL     1      41.043  31.142  42.554  0.00  0.00    +0.000 S 
BRANCH  25  26
ATOM     26  O   UNL     1      40.200  32.392  42.448  0.00  0.00    +0.000 OA
ATOM     27  H   UNL     1      39.886  32.822  43.301  0.00  0.00    +0.000 HD
ENDBRANCH  25  26
BRANCH  25  28
ATOM     28  O   UNL     1      40.646  30.375  43.770  0.00  0.00    +0.000 OA
ATOM     29  H   UNL     1      39.806  30.464  44.283  0.00  0.00    +0.000 HD
ENDBRANCH  25  28
BRANCH  25  30
ATOM     30  O   UNL     1      40.737  30.201  41.195  0.00  0.00    +0.000 OA
BRANCH  30  31
ATOM     31  C   UNL     1      40.095  29.045  41.603  0.00  0.00    +0.000 C 
ATOM     32  H   UNL     1      39.133  29.003  41.088  0.00  0.00    +0.000 HD
ATOM     33  H   UNL     1      39.929  28.956  42.685  0.00  0.00    +0.000 HD
BRANCH  31  34
ATOM     34  C   UNL     1      40.922  27.828  41.219  0.00  0.00    +0.000 C 
ATOM     35  H   UNL     1      41.942  27.881  41.655  0.00  0.00    +0.000 HD
ATOM     36  H   UNL     1      40.950  27.752  40.109  0.00  0.00    +0.000 HD
BRANCH  34  37
ATOM     37  C   UNL     1      40.231  26.573  41.659  0.00  0.00    +0.000 A 
ATOM     38  C   UNL     1      40.836  25.342  42.046  0.00  0.00    +0.000 A 
ATOM     39  H   UNL     1      41.907  25.283  42.024  0.00  0.00    +0.000 HD
ATOM     40  C   UNL     1      39.991  24.346  42.410  0.00  0.00    +0.000 A 
ATOM     41  C   UNL     1      38.582  24.529  42.404  0.00  0.00    +0.000 A 
ATOM     42  S   UNL     1      38.421  26.291  41.823  0.00  0.00    +0.000 S 
ENDBRANCH  34  37
ENDBRANCH  31  34
ENDBRANCH  30  31
ENDBRANCH  25  30
ENDBRANCH  23  25
ENDBRANCH   1  23
TORSDOF 10
