
     RDKit          3D

 36 38  0  0  0  0  0  0  0  0999 V2000
   47.3281   32.6853   47.5060 O   0  0  0  0  0  0  0  0  0  0  0  0
   46.0091   32.3315   46.8708 P   0  0  2  0  0  0  0  0  0  0  0  0
   46.2940   31.2111   45.6307 O   0  0  0  0  0  0  0  0  0  0  0  0
   45.3298   33.7679   46.2393 O   0  0  0  0  0  0  0  0  0  0  0  0
   45.2170   35.8211   43.3312 C   0  0  0  0  0  0  0  0  0  0  0  0
   46.2732   35.3306   42.5166 C   0  0  0  0  0  0  0  0  0  0  0  0
   47.0185   34.2617   43.0254 C   0  0  0  0  0  0  0  0  0  0  0  0
   46.6943   33.7686   44.2391 N   0  0  0  0  0  0  0  0  0  0  0  0
   45.6770   34.2685   44.9811 C   0  0  0  0  0  0  0  0  0  0  0  0
   44.9471   35.2950   44.5140 N   0  0  0  0  0  0  0  0  0  0  0  0
   44.4863   36.8792   42.8237 O   0  0  0  0  0  0  0  0  0  0  0  0
   45.0388   31.6307   48.0308 O   0  0  0  0  0  0  0  0  0  0  0  0
   46.7876   29.9873   48.0528 C   0  0  2  0  0  0  0  0  0  0  0  0
   45.3401   30.2893   48.1502 C   0  0  2  0  0  0  0  0  0  0  0  0
   44.7454   29.4671   47.0690 C   0  0  0  0  0  0  0  0  0  0  0  0
   45.5395   28.3402   46.9184 O   0  0  0  0  0  0  0  0  0  0  0  0
   46.6813   28.5081   47.6310 C   0  0  0  0  0  0  0  0  0  0  0  0
   47.4410   30.1448   49.2658 O   0  0  0  0  0  0  0  0  0  0  0  0
   47.0836   31.5175   45.1198 H   0  0  0  0  0  0  0  0  0  0  0  0
   46.5023   35.7486   41.5538 H   0  0  0  0  0  0  0  0  0  0  0  0
   47.8326   33.8525   42.4451 H   0  0  0  0  0  0  0  0  0  0  0  0
   44.6437   37.7833   43.2805 H   0  0  0  0  0  0  0  0  0  0  0  0
   47.4561   30.3784   47.3497 H   0  0  0  0  0  0  0  0  0  0  0  0
   45.0524   29.9977   49.1887 H   0  0  0  0  0  0  0  0  0  0  0  0
   44.4045   29.9580   46.1786 H   0  0  0  0  0  0  0  0  0  0  0  0
   43.7949   29.0449   47.5233 H   0  0  0  0  0  0  0  0  0  0  0  0
   46.6267   27.9749   48.6257 H   0  0  0  0  0  0  0  0  0  0  0  0
   47.5895   28.1362   47.1554 H   0  0  0  0  0  0  0  0  0  0  0  0
   48.5334   30.5937   49.6691 C   0  0  0  0  0  0  0  0  0  0  0  0
   49.1784   31.8381   50.1397 C   0  0  0  0  0  0  0  0  0  0  0  0
   48.4252   32.5992   50.1158 H   0  0  0  0  0  0  0  0  0  0  0  0
   50.4969   31.8147   50.4924 C   0  0  0  0  0  0  0  0  0  0  0  0
   51.2392   30.5931   50.4040 C   0  0  0  0  0  0  0  0  0  0  0  0
   49.9909   29.3852   49.7781 S   0  0  0  0  0  0  0  0  0  0  0  0
   50.8754   32.7672   50.8213 H   0  0  0  0  0  0  0  0  0  0  0  0
   52.2581   30.5953   50.6813 H   0  0  0  0  0  0  0  0  0  0  0  0
  2  1  2  0
  2 12  1  1
  3  2  1  0
  4  2  1  0
  5 10  2  0
  6  7  2  0
  6  5  1  0
  7  8  1  0
  8  9  2  0
  9  4  1  0
 10  9  1  0
 11  5  1  0
 13 14  1  0
 13 18  1  0
 14 12  1  0
 15 14  1  0
 16 15  1  0
 16 17  1  0
 17 13  1  0
  3 19  1  0
  6 20  1  0
  7 21  1  0
 11 22  1  0
 13 23  1  6
 14 24  1  1
 15 25  1  0
 15 26  1  0
 17 27  1  0
 17 28  1  0
 29 30  2  0
 30 31  1  0
 30 32  1  0
 32 33  2  0
 33 34  1  0
 34 29  1  0
 32 35  1  0
 33 36  1  0
 18 29  1  0
M  ISO  8  19   3  20  14  21  14  22   3  23  13  24  13  25  13  26  13
M  ISO  3  27  13  28  13  31  15
M  END
>  <DihAtoms>  (1) 
12,17,28,29

>  <DihDeg>  (1) 
0.005664914119409076

$$$$
