
 OpenBabel03242523333D

 34 37  0  0  0  0  0  0  0  0999 V2000
   46.7730   31.9640   45.8780 S   0  0  0  0  0  0  0  0  0  0  0  0
   47.7210   31.2330   47.1890 C   0  0  0  0  0  0  0  0  0  0  0  0
   47.9930   32.0050   48.2960 C   0  0  0  0  0  0  0  0  0  0  0  0
   48.7230   31.4490   49.3100 C   0  0  0  0  0  0  0  0  0  0  0  0
   49.1950   30.1410   49.2570 C   0  0  0  0  0  0  0  0  0  0  0  0
   49.9090   29.6280   50.2720 N   0  0  0  0  0  0  0  0  0  0  0  0
   50.3740   28.3650   50.2430 C   0  0  0  0  0  0  0  0  0  0  0  0
   50.1110   27.5890   49.1520 C   0  0  0  0  0  0  0  0  0  0  0  0
   49.3760   28.1040   48.0960 C   0  0  0  0  0  0  0  0  0  0  0  0
   48.8840   29.4180   48.1090 C   0  0  0  0  0  0  0  0  0  0  0  0
   48.1560   29.9280   47.0680 C   0  0  0  0  0  0  0  0  0  0  0  0
   47.6910   33.0280   48.4650 H   0  0  0  0  0  0  0  0  0  0  0  0
   48.9770   31.9950   50.2110 H   0  0  0  0  0  0  0  0  0  0  0  0
   50.9500   27.9250   51.0430 H   0  0  0  0  0  0  0  0  0  0  0  0
   50.4100   26.5800   48.9880 H   0  0  0  0  0  0  0  0  0  0  0  0
   49.1220   27.5520   47.1900 H   0  0  0  0  0  0  0  0  0  0  0  0
   47.9370   29.3330   46.1960 H   0  0  0  0  0  0  0  0  0  0  0  0
   45.5800   33.1400   46.5270 C   0  0  0  0  0  0  0  0  0  0  0  0
   44.5750   32.6340   46.6160 H   0  0  0  0  0  0  0  0  0  0  0  0
   45.8690   33.6660   47.4330 H   0  0  0  0  0  0  0  0  0  0  0  0
   44.4030   36.1940   44.7420 C   0  0  0  0  0  0  0  0  0  0  0  0
   45.1280   36.0840   43.5360 C   0  0  0  0  0  0  0  0  0  0  0  0
   45.9880   34.9860   43.3660 C   0  0  0  0  0  0  0  0  0  0  0  0
   46.1070   34.0540   44.3590 N   0  0  0  0  0  0  0  0  0  0  0  0
   45.3900   34.1980   45.5040 C   0  0  0  0  0  0  0  0  0  0  0  0
   44.5630   35.2450   45.6830 N   0  0  0  0  0  0  0  0  0  0  0  0
   43.7520   37.0520   44.8370 H   0  0  0  0  0  0  0  0  0  0  0  0
   45.0850   36.7740   42.7190 H   0  0  0  0  0  0  0  0  0  0  0  0
   46.7560   34.7980   42.1820 C   0  0  0  0  0  0  0  0  0  0  0  0
   47.9710   35.2750   41.8460 C   0  0  0  0  0  0  0  0  0  0  0  0
   48.4960   35.9190   42.5700 H   0  0  0  0  0  0  0  0  0  0  0  0
   48.5720   35.0030   40.6690 C   0  0  0  0  0  0  0  0  0  0  0  0
   47.7720   34.1380   39.7990 C   0  0  0  0  0  0  0  0  0  0  0  0
   46.2530   33.8150   40.7620 S   0  0  0  0  0  0  0  0  0  0  0  0
  1 18  1  0  0  0  0
  1  2  1  0  0  0  0
  2  3  1  0  0  0  0
  3 12  1  0  0  0  0
  3  4  2  0  0  0  0
  4 13  1  0  0  0  0
  5  4  1  0  0  0  0
  5  6  1  0  0  0  0
  7  6  2  0  0  0  0
  7 14  1  0  0  0  0
  8  7  1  0  0  0  0
  9 10  1  0  0  0  0
  9  8  2  0  0  0  0
 10  5  2  0  0  0  0
 11  2  2  0  0  0  0
 11 10  1  0  0  0  0
 15  8  1  0  0  0  0
 16  9  1  0  0  0  0
 17 11  1  0  0  0  0
 18 19  1  0  0  0  0
 18 20  1  0  0  0  0
 21 27  1  0  0  0  0
 21 26  1  0  0  0  0
 22 21  2  0  0  0  0
 23 22  1  0  0  0  0
 23 24  2  0  0  0  0
 24 25  1  0  0  0  0
 25 26  2  0  0  0  0
 25 18  1  0  0  0  0
 28 22  1  0  0  0  0
 29 23  1  0  0  0  0
 30 29  2  0  0  0  0
 30 31  1  0  0  0  0
 32 30  1  0  0  0  0
 33 32  2  0  0  0  0
 33 34  1  0  0  0  0
 34 29  1  0  0  0  0
M  END
>  <minimizedAffinity>
-6.14310122

>  <minimizedRMSD>
0.671243489

$$$$
