
 OpenBabel03252501363D

 22 23  0  0  0  0  0  0  0  0999 V2000
   37.7080   30.3770   41.9810 C   0  0  0  0  0  0  0  0  0  0  0  0
   36.9030   31.1000   41.1350 C   0  0  0  0  0  0  0  0  0  0  0  0
   37.5430   32.0980   40.4000 C   0  0  0  0  0  0  0  0  0  0  0  0
   38.8650   32.2660   40.5760 N   0  0  0  0  0  0  0  0  0  0  0  0
   39.6130   31.5410   41.4100 C   0  0  0  0  0  0  0  0  0  0  0  0
   39.0250   30.5610   42.1410 N   0  0  0  0  0  0  0  0  0  0  0  0
   36.9100   32.6680   39.7340 H   0  0  0  0  0  0  0  0  0  0  0  0
   40.6660   31.7990   41.4380 H   0  0  0  0  0  0  0  0  0  0  0  0
   37.2420   28.0820   42.0990 C   0  0  0  0  0  0  0  0  0  0  0  0
   37.5500   28.2630   40.8780 O   0  0  0  0  0  0  0  0  0  0  0  0
   37.2700   29.2950   42.8470 N   0  0  0  0  0  0  0  0  0  0  0  0
   37.0030   29.3050   43.8430 H   0  0  0  0  0  0  0  0  0  0  0  0
   36.9060   26.8640   42.6980 O   0  0  0  0  0  0  0  0  0  0  0  0
   37.3410   25.6700   42.1520 C   0  0  0  0  0  0  0  0  0  0  0  0
   36.7410   24.6640   41.5440 C   0  0  0  0  0  0  0  0  0  0  0  0
   35.6550   24.7560   41.4240 H   0  0  0  0  0  0  0  0  0  0  0  0
   37.3840   23.5750   41.0850 C   0  0  0  0  0  3  0  0  0  0  0  0
   38.8320   23.6390   41.3400 C   0  0  0  0  0  3  0  0  0  0  0  0
   39.0100   25.3070   42.2240 S   0  0  0  0  0  0  0  0  0  0  0  0
   35.5330   30.7700   41.0920 N   0  0  0  0  0  0  0  0  0  0  0  0
   34.8250   31.0680   41.8090 H   0  0  0  0  0  0  0  0  0  0  0  0
   35.3690   30.1960   40.2460 H   0  0  0  0  0  0  0  0  0  0  0  0
  1  6  1  0  0  0  0
  1 11  1  0  0  0  0
  2  1  2  0  0  0  0
  3  4  2  0  0  0  0
  3  2  1  0  0  0  0
  4  5  1  0  0  0  0
  5  8  1  0  0  0  0
  5  6  2  0  0  0  0
  7  3  1  0  0  0  0
  9 13  1  0  0  0  0
  9 11  1  0  0  0  0
 10  9  2  0  0  0  0
 11 12  1  0  0  0  0
 14 19  1  0  0  0  0
 14 13  1  0  0  0  0
 15 14  2  0  0  0  0
 16 15  1  0  0  0  0
 17 18  2  0  0  0  0
 17 15  1  0  0  0  0
 18 19  1  0  0  0  0
 20  2  1  0  0  0  0
 20 21  1  0  0  0  0
 22 20  1  0  0  0  0
M  END
>  <minimizedAffinity>
-4.83116293

$$$$

 OpenBabel03252501363D

 22 23  0  0  0  0  0  0  0  0999 V2000
   37.8790   30.2270   40.5590 C   0  0  0  0  0  0  0  0  0  0  0  0
   36.9490   31.2330   40.6550 C   0  0  0  0  0  0  0  0  0  0  0  0
   37.3050   32.4420   40.0570 C   0  0  0  0  0  0  0  0  0  0  0  0
   38.5010   32.5210   39.4500 N   0  0  0  0  0  0  0  0  0  0  0  0
   39.3770   31.5180   39.3770 C   0  0  0  0  0  0  0  0  0  0  0  0
   39.0660   30.3260   39.9480 N   0  0  0  0  0  0  0  0  0  0  0  0
   36.5740   33.2350   40.1330 H   0  0  0  0  0  0  0  0  0  0  0  0
   40.3000   31.7390   38.8510 H   0  0  0  0  0  0  0  0  0  0  0  0
   38.1870   28.8840   42.4560 C   0  0  0  0  0  0  0  0  0  0  0  0
   38.6420   30.0170   42.8150 O   0  0  0  0  0  0  0  0  0  0  0  0
   37.7350   28.8880   41.1050 N   0  0  0  0  0  0  0  0  0  0  0  0
   37.3770   28.0250   40.6680 H   0  0  0  0  0  0  0  0  0  0  0  0
   38.1130   27.7330   43.2470 O   0  0  0  0  0  0  0  0  0  0  0  0
   37.9620   26.4880   42.6640 C   0  0  0  0  0  0  0  0  0  0  0  0
   36.9230   25.7260   42.3780 C   0  0  0  0  0  0  0  0  0  0  0  0
   35.9420   26.1350   42.6470 H   0  0  0  0  0  0  0  0  0  0  0  0
   37.0180   24.5180   41.7940 C   0  0  0  0  0  3  0  0  0  0  0  0
   38.4140   24.1480   41.5120 C   0  0  0  0  0  3  0  0  0  0  0  0
   39.3660   25.6540   42.1600 S   0  0  0  0  0  0  0  0  0  0  0  0
   35.7470   30.9530   41.3370 N   0  0  0  0  0  0  0  0  0  0  0  0
   35.6440   30.9360   42.3830 H   0  0  0  0  0  0  0  0  0  0  0  0
   35.0130   30.7730   40.6300 H   0  0  0  0  0  0  0  0  0  0  0  0
  1  2  1  0  0  0  0
  1 11  1  0  0  0  0
  2 20  1  0  0  0  0
  3  7  1  0  0  0  0
  3  2  2  0  0  0  0
  4  3  1  0  0  0  0
  5  4  2  0  0  0  0
  5  6  1  0  0  0  0
  6  1  2  0  0  0  0
  8  5  1  0  0  0  0
  9 10  2  0  0  0  0
  9 13  1  0  0  0  0
 11  9  1  0  0  0  0
 12 11  1  0  0  0  0
 14 13  1  0  0  0  0
 15 16  1  0  0  0  0
 15 14  2  0  0  0  0
 17 15  1  0  0  0  0
 18 17  2  0  0  0  0
 18 19  1  0  0  0  0
 19 14  1  0  0  0  0
 20 21  1  0  0  0  0
 22 20  1  0  0  0  0
M  END
>  <minimizedAffinity>
-4.75509024

$$$$

 OpenBabel03252501363D

 22 23  0  0  0  0  0  0  0  0999 V2000
   40.7480   33.5430   38.8880 C   0  0  0  0  0  0  0  0  0  0  0  0
   41.1870   32.9430   37.7330 C   0  0  0  0  0  0  0  0  0  0  0  0
   42.5680   32.9510   37.5380 C   0  0  0  0  0  0  0  0  0  0  0  0
   43.3380   33.5310   38.4750 N   0  0  0  0  0  0  0  0  0  0  0  0
   42.8710   34.1030   39.5850 C   0  0  0  0  0  0  0  0  0  0  0  0
   41.5330   34.1150   39.8110 N   0  0  0  0  0  0  0  0  0  0  0  0
   42.9150   32.4800   36.6280 H   0  0  0  0  0  0  0  0  0  0  0  0
   43.6210   34.5270   40.2440 H   0  0  0  0  0  0  0  0  0  0  0  0
   38.9960   32.5010   40.0480 C   0  0  0  0  0  0  0  0  0  0  0  0
   39.9430   31.6520   40.1090 O   0  0  0  0  0  0  0  0  0  0  0  0
   39.3600   33.6610   39.3050 N   0  0  0  0  0  0  0  0  0  0  0  0
   38.6770   34.4160   39.1400 H   0  0  0  0  0  0  0  0  0  0  0  0
   37.7270   32.3700   40.6200 O   0  0  0  0  0  0  0  0  0  0  0  0
   36.9140   31.3010   40.2890 C   0  0  0  0  0  0  0  0  0  0  0  0
   36.1290   30.4940   40.9780 C   0  0  0  0  0  0  0  0  0  0  0  0
   36.0820   30.6790   42.0570 H   0  0  0  0  0  0  0  0  0  0  0  0
   35.4140   29.4950   40.4280 C   0  0  0  0  0  3  0  0  0  0  0  0
   35.6110   29.4090   38.9730 C   0  0  0  0  0  3  0  0  0  0  0  0
   36.8280   30.8260   38.6480 S   0  0  0  0  0  0  0  0  0  0  0  0
   40.2180   32.3890   36.8720 N   0  0  0  0  0  0  0  0  0  0  0  0
   39.6260   32.9440   36.2040 H   0  0  0  0  0  0  0  0  0  0  0  0
   40.2040   31.3650   37.0240 H   0  0  0  0  0  0  0  0  0  0  0  0
  1 11  1  0  0  0  0
  1  6  1  0  0  0  0
  2  1  2  0  0  0  0
  3  2  1  0  0  0  0
  3  4  2  0  0  0  0
  4  5  1  0  0  0  0
  5  6  2  0  0  0  0
  5  8  1  0  0  0  0
  7  3  1  0  0  0  0
  9 10  2  0  0  0  0
  9 13  1  0  0  0  0
 11  9  1  0  0  0  0
 12 11  1  0  0  0  0
 14 13  1  0  0  0  0
 14 15  2  0  0  0  0
 15 16  1  0  0  0  0
 17 15  1  0  0  0  0
 18 17  2  0  0  0  0
 19 18  1  0  0  0  0
 19 14  1  0  0  0  0
 20 22  1  0  0  0  0
 20  2  1  0  0  0  0
 21 20  1  0  0  0  0
M  END
>  <minimizedAffinity>
-4.610744

$$$$

 OpenBabel03252501363D

 22 23  0  0  0  0  0  0  0  0999 V2000
   39.0810   31.6810   40.5670 C   0  0  0  0  0  0  0  0  0  0  0  0
   37.9660   32.4770   40.4720 C   0  0  0  0  0  0  0  0  0  0  0  0
   38.1960   33.7900   40.0640 C   0  0  0  0  0  0  0  0  0  0  0  0
   39.4610   34.1610   39.8010 N   0  0  0  0  0  0  0  0  0  0  0  0
   40.5190   33.3550   39.9040 C   0  0  0  0  0  0  0  0  0  0  0  0
   40.3350   32.0690   40.2990 N   0  0  0  0  0  0  0  0  0  0  0  0
   37.3190   34.4180   39.9900 H   0  0  0  0  0  0  0  0  0  0  0  0
   41.4750   33.8030   39.6560 H   0  0  0  0  0  0  0  0  0  0  0  0
   39.5500   30.1960   42.3200 C   0  0  0  0  0  0  0  0  0  0  0  0
   39.8770   31.3310   42.7930 O   0  0  0  0  0  0  0  0  0  0  0  0
   39.0920   30.2860   40.9740 N   0  0  0  0  0  0  0  0  0  0  0  0
   38.8300   29.4370   40.4500 H   0  0  0  0  0  0  0  0  0  0  0  0
   39.6100   28.9700   42.9900 O   0  0  0  0  0  0  0  0  0  0  0  0
   38.5140   28.1270   43.0120 C   0  0  0  0  0  0  0  0  0  0  0  0
   37.3490   28.1480   43.6320 C   0  0  0  0  0  0  0  0  0  0  0  0
   37.1700   29.0110   44.2840 H   0  0  0  0  0  0  0  0  0  0  0  0
   36.4120   27.1920   43.4980 C   0  0  0  0  0  3  0  0  0  0  0  0
   36.8380   26.1230   42.5820 C   0  0  0  0  0  3  0  0  0  0  0  0
   38.5660   26.7060   42.0630 S   0  0  0  0  0  0  0  0  0  0  0  0
   36.7200   31.9010   40.7930 N   0  0  0  0  0  0  0  0  0  0  0  0
   36.3670   31.7480   41.7710 H   0  0  0  0  0  0  0  0  0  0  0  0
   36.2390   31.6670   39.9070 H   0  0  0  0  0  0  0  0  0  0  0  0
  1 11  1  0  0  0  0
  2  1  1  0  0  0  0
  2 20  1  0  0  0  0
  3  2  2  0  0  0  0
  4  5  2  0  0  0  0
  4  3  1  0  0  0  0
  5  6  1  0  0  0  0
  6  1  2  0  0  0  0
  7  3  1  0  0  0  0
  8  5  1  0  0  0  0
  9 10  2  0  0  0  0
  9 13  1  0  0  0  0
 11  9  1  0  0  0  0
 12 11  1  0  0  0  0
 13 14  1  0  0  0  0
 14 15  2  0  0  0  0
 15 16  1  0  0  0  0
 17 15  1  0  0  0  0
 18 17  2  0  0  0  0
 19 18  1  0  0  0  0
 19 14  1  0  0  0  0
 20 21  1  0  0  0  0
 22 20  1  0  0  0  0
M  END
>  <minimizedAffinity>
-4.52630997

$$$$

 OpenBabel03252501363D

 22 23  0  0  0  0  0  0  0  0999 V2000
   41.2550   32.1450   37.1310 C   0  0  0  0  0  0  0  0  0  0  0  0
   41.9480   30.9630   37.0330 C   0  0  0  0  0  0  0  0  0  0  0  0
   43.3180   31.0460   37.2800 C   0  0  0  0  0  0  0  0  0  0  0  0
   43.8360   32.2480   37.5870 N   0  0  0  0  0  0  0  0  0  0  0  0
   43.1260   33.3740   37.6730 C   0  0  0  0  0  0  0  0  0  0  0  0
   41.7900   33.3330   37.4390 N   0  0  0  0  0  0  0  0  0  0  0  0
   43.8650   30.1170   37.2020 H   0  0  0  0  0  0  0  0  0  0  0  0
   43.6900   34.2640   37.9310 H   0  0  0  0  0  0  0  0  0  0  0  0
   39.1360   32.0160   38.1270 C   0  0  0  0  0  0  0  0  0  0  0  0
   39.9250   31.6440   39.0530 O   0  0  0  0  0  0  0  0  0  0  0  0
   39.8270   32.3070   36.9150 N   0  0  0  0  0  0  0  0  0  0  0  0
   39.3080   32.5830   36.0680 H   0  0  0  0  0  0  0  0  0  0  0  0
   37.7460   32.1440   38.2230 O   0  0  0  0  0  0  0  0  0  0  0  0
   36.9880   31.1460   38.8070 C   0  0  0  0  0  0  0  0  0  0  0  0
   36.3570   30.0810   38.3470 C   0  0  0  0  0  0  0  0  0  0  0  0
   36.4250   29.9150   37.2660 H   0  0  0  0  0  0  0  0  0  0  0  0
   35.6630   29.2280   39.1230 C   0  0  0  0  0  3  0  0  0  0  0  0
   35.6910   29.6210   40.5400 C   0  0  0  0  0  3  0  0  0  0  0  0
   36.7440   31.1980   40.4980 S   0  0  0  0  0  0  0  0  0  0  0  0
   41.2220   29.8020   36.6980 N   0  0  0  0  0  0  0  0  0  0  0  0
   40.9140   29.5500   35.7250 H   0  0  0  0  0  0  0  0  0  0  0  0
   41.0560   29.2660   37.5680 H   0  0  0  0  0  0  0  0  0  0  0  0
  1  6  1  0  0  0  0
  2  1  2  0  0  0  0
  2  3  1  0  0  0  0
  3  4  2  0  0  0  0
  4  5  1  0  0  0  0
  5  8  1  0  0  0  0
  6  5  2  0  0  0  0
  7  3  1  0  0  0  0
  9 13  1  0  0  0  0
  9 10  2  0  0  0  0
 11  1  1  0  0  0  0
 11  9  1  0  0  0  0
 12 11  1  0  0  0  0
 13 14  1  0  0  0  0
 14 19  1  0  0  0  0
 15 14  2  0  0  0  0
 15 17  1  0  0  0  0
 16 15  1  0  0  0  0
 17 18  2  0  0  0  0
 19 18  1  0  0  0  0
 20  2  1  0  0  0  0
 20 22  1  0  0  0  0
 21 20  1  0  0  0  0
M  END
>  <minimizedAffinity>
-4.49430704

$$$$

 OpenBabel03252501363D

 22 23  0  0  0  0  0  0  0  0999 V2000
   38.9010   32.4670   39.6500 C   0  0  0  0  0  0  0  0  0  0  0  0
   39.4500   33.5990   40.2020 C   0  0  0  0  0  0  0  0  0  0  0  0
   40.6050   34.0720   39.5810 C   0  0  0  0  0  0  0  0  0  0  0  0
   41.0770   33.3970   38.5180 N   0  0  0  0  0  0  0  0  0  0  0  0
   40.5120   32.3000   38.0120 C   0  0  0  0  0  0  0  0  0  0  0  0
   39.3860   31.8090   38.5890 N   0  0  0  0  0  0  0  0  0  0  0  0
   41.0390   34.9620   40.0160 H   0  0  0  0  0  0  0  0  0  0  0  0
   41.0130   31.8720   37.1500 H   0  0  0  0  0  0  0  0  0  0  0  0
   38.0630   30.8850   41.1650 C   0  0  0  0  0  0  0  0  0  0  0  0
   39.3180   30.8630   41.3720 O   0  0  0  0  0  0  0  0  0  0  0  0
   37.7050   31.7890   40.1240 N   0  0  0  0  0  0  0  0  0  0  0  0
   36.7240   31.8810   39.8210 H   0  0  0  0  0  0  0  0  0  0  0  0
   37.0970   30.1350   41.8440 O   0  0  0  0  0  0  0  0  0  0  0  0
   37.1240   28.7530   41.8030 C   0  0  0  0  0  0  0  0  0  0  0  0
   36.9310   27.8570   40.8530 C   0  0  0  0  0  0  0  0  0  0  0  0
   36.6940   28.2560   39.8600 H   0  0  0  0  0  0  0  0  0  0  0  0
   37.0110   26.5280   41.0500 C   0  0  0  0  0  3  0  0  0  0  0  0
   37.3370   26.1940   42.4450 C   0  0  0  0  0  3  0  0  0  0  0  0
   37.4750   27.9070   43.2460 S   0  0  0  0  0  0  0  0  0  0  0  0
   38.8050   34.1610   41.3220 N   0  0  0  0  0  0  0  0  0  0  0  0
   38.8900   33.7990   42.3050 H   0  0  0  0  0  0  0  0  0  0  0  0
   38.2490   34.9720   40.9970 H   0  0  0  0  0  0  0  0  0  0  0  0
  1 11  1  0  0  0  0
  1  2  1  0  0  0  0
  2 20  1  0  0  0  0
  3  7  1  0  0  0  0
  3  2  2  0  0  0  0
  4  3  1  0  0  0  0
  5  4  2  0  0  0  0
  5  6  1  0  0  0  0
  6  1  2  0  0  0  0
  8  5  1  0  0  0  0
  9 10  2  0  0  0  0
  9 13  1  0  0  0  0
 11  9  1  0  0  0  0
 12 11  1  0  0  0  0
 14 13  1  0  0  0  0
 14 19  1  0  0  0  0
 15 17  1  0  0  0  0
 15 14  2  0  0  0  0
 16 15  1  0  0  0  0
 17 18  2  0  0  0  0
 18 19  1  0  0  0  0
 20 21  1  0  0  0  0
 22 20  1  0  0  0  0
M  END
>  <minimizedAffinity>
-4.40012264

$$$$

 OpenBabel03252501363D

 22 23  0  0  0  0  0  0  0  0999 V2000
   38.4100   31.9850   40.8380 C   0  0  0  0  0  0  0  0  0  0  0  0
   38.2200   33.1840   40.1940 C   0  0  0  0  0  0  0  0  0  0  0  0
   39.3740   33.9310   39.9610 C   0  0  0  0  0  0  0  0  0  0  0  0
   40.5500   33.4290   40.3750 N   0  0  0  0  0  0  0  0  0  0  0  0
   40.6920   32.2580   40.9970 C   0  0  0  0  0  0  0  0  0  0  0  0
   39.5920   31.5010   41.2420 N   0  0  0  0  0  0  0  0  0  0  0  0
   39.2260   34.8750   39.4550 H   0  0  0  0  0  0  0  0  0  0  0  0
   41.7080   31.9920   41.2680 H   0  0  0  0  0  0  0  0  0  0  0  0
   37.1480   30.1520   40.0990 C   0  0  0  0  0  0  0  0  0  0  0  0
   37.8750   30.4400   39.0940 O   0  0  0  0  0  0  0  0  0  0  0  0
   37.3630   31.0400   41.1910 N   0  0  0  0  0  0  0  0  0  0  0  0
   36.8130   30.9500   42.0590 H   0  0  0  0  0  0  0  0  0  0  0  0
   36.2290   29.1010   40.1830 O   0  0  0  0  0  0  0  0  0  0  0  0
   36.5480   27.9420   40.8670 C   0  0  0  0  0  0  0  0  0  0  0  0
   36.7160   27.6420   42.1410 C   0  0  0  0  0  0  0  0  0  0  0  0
   36.5810   28.4690   42.8480 H   0  0  0  0  0  0  0  0  0  0  0  0
   37.0320   26.4120   42.5860 C   0  0  0  0  0  3  0  0  0  0  0  0
   37.1690   25.4440   41.4870 C   0  0  0  0  0  3  0  0  0  0  0  0
   36.8060   26.5130   39.9640 S   0  0  0  0  0  0  0  0  0  0  0  0
   36.9020   33.5360   39.8390 N   0  0  0  0  0  0  0  0  0  0  0  0
   36.1900   33.9300   40.5040 H   0  0  0  0  0  0  0  0  0  0  0  0
   36.7790   33.3360   38.8310 H   0  0  0  0  0  0  0  0  0  0  0  0
  1 11  1  0  0  0  0
  1  6  1  0  0  0  0
  2  1  2  0  0  0  0
  3  2  1  0  0  0  0
  3  4  2  0  0  0  0
  4  5  1  0  0  0  0
  5  6  2  0  0  0  0
  5  8  1  0  0  0  0
  7  3  1  0  0  0  0
  9 13  1  0  0  0  0
  9 11  1  0  0  0  0
 10  9  2  0  0  0  0
 11 12  1  0  0  0  0
 13 14  1  0  0  0  0
 14 15  2  0  0  0  0
 15 17  1  0  0  0  0
 15 16  1  0  0  0  0
 18 17  2  0  0  0  0
 19 14  1  0  0  0  0
 19 18  1  0  0  0  0
 20  2  1  0  0  0  0
 20 21  1  0  0  0  0
 22 20  1  0  0  0  0
M  END
>  <minimizedAffinity>
-4.37493277

$$$$

 OpenBabel03252501363D

 22 23  0  0  0  0  0  0  0  0999 V2000
   37.9410   30.3660   40.4220 C   0  0  0  0  0  0  0  0  0  0  0  0
   36.8950   31.2510   40.5240 C   0  0  0  0  0  0  0  0  0  0  0  0
   37.0190   32.4180   39.7710 C   0  0  0  0  0  0  0  0  0  0  0  0
   38.1240   32.5770   39.0230 N   0  0  0  0  0  0  0  0  0  0  0  0
   39.1180   31.6910   38.9500 C   0  0  0  0  0  0  0  0  0  0  0  0
   39.0340   30.5430   39.6690 N   0  0  0  0  0  0  0  0  0  0  0  0
   36.1970   33.1170   39.8520 H   0  0  0  0  0  0  0  0  0  0  0  0
   39.9430   31.9650   38.3010 H   0  0  0  0  0  0  0  0  0  0  0  0
   38.6470   29.2940   42.3840 C   0  0  0  0  0  0  0  0  0  0  0  0
   38.9900   30.5070   42.5650 O   0  0  0  0  0  0  0  0  0  0  0  0
   38.0390   29.0910   41.1120 N   0  0  0  0  0  0  0  0  0  0  0  0
   37.7470   28.1480   40.8140 H   0  0  0  0  0  0  0  0  0  0  0  0
   38.8190   28.2410   43.2880 O   0  0  0  0  0  0  0  0  0  0  0  0
   40.0240   27.5660   43.3580 C   0  0  0  0  0  0  0  0  0  0  0  0
   41.2900   27.9320   43.2870 C   0  0  0  0  0  0  0  0  0  0  0  0
   41.4700   29.0030   43.1400 H   0  0  0  0  0  0  0  0  0  0  0  0
   42.3240   27.0770   43.3850 C   0  0  0  0  0  3  0  0  0  0  0  0
   41.8780   25.6880   43.5790 C   0  0  0  0  0  3  0  0  0  0  0  0
   39.9900   25.8710   43.5870 S   0  0  0  0  0  0  0  0  0  0  0  0
   35.8200   30.9020   41.3660 N   0  0  0  0  0  0  0  0  0  0  0  0
   35.8280   30.9920   42.4130 H   0  0  0  0  0  0  0  0  0  0  0  0
   35.0500   30.5510   40.7710 H   0  0  0  0  0  0  0  0  0  0  0  0
  1  2  1  0  0  0  0
  1 11  1  0  0  0  0
  2 20  1  0  0  0  0
  3  7  1  0  0  0  0
  3  2  2  0  0  0  0
  4  3  1  0  0  0  0
  5  4  2  0  0  0  0
  5  6  1  0  0  0  0
  6  1  2  0  0  0  0
  8  5  1  0  0  0  0
  9 10  2  0  0  0  0
  9 13  1  0  0  0  0
 11  9  1  0  0  0  0
 12 11  1  0  0  0  0
 13 14  1  0  0  0  0
 14 19  1  0  0  0  0
 15 14  2  0  0  0  0
 15 17  1  0  0  0  0
 16 15  1  0  0  0  0
 17 18  2  0  0  0  0
 18 19  1  0  0  0  0
 20 21  1  0  0  0  0
 22 20  1  0  0  0  0
M  END
>  <minimizedAffinity>
-4.3698535

$$$$

 OpenBabel03252501363D

 22 23  0  0  0  0  0  0  0  0999 V2000
   40.6250   33.0990   38.9980 C   0  0  0  0  0  0  0  0  0  0  0  0
   40.9180   32.7830   37.6940 C   0  0  0  0  0  0  0  0  0  0  0  0
   42.2560   32.9230   37.3270 C   0  0  0  0  0  0  0  0  0  0  0  0
   43.1290   33.3460   38.2570 N   0  0  0  0  0  0  0  0  0  0  0  0
   42.8030   33.6420   39.5160 C   0  0  0  0  0  0  0  0  0  0  0  0
   41.5100   33.5180   39.9120 N   0  0  0  0  0  0  0  0  0  0  0  0
   42.4880   32.6760   36.3000 H   0  0  0  0  0  0  0  0  0  0  0  0
   43.6220   33.9700   40.1470 H   0  0  0  0  0  0  0  0  0  0  0  0
   39.0820   31.7150   40.0950 C   0  0  0  0  0  0  0  0  0  0  0  0
   40.0500   30.9330   39.8300 O   0  0  0  0  0  0  0  0  0  0  0  0
   39.3070   33.0350   39.6080 N   0  0  0  0  0  0  0  0  0  0  0  0
   38.5870   33.7650   39.7170 H   0  0  0  0  0  0  0  0  0  0  0  0
   37.9090   31.3800   40.7800 O   0  0  0  0  0  0  0  0  0  0  0  0
   37.8570   30.2460   41.5700 C   0  0  0  0  0  0  0  0  0  0  0  0
   38.5360   29.8240   42.6200 C   0  0  0  0  0  0  0  0  0  0  0  0
   39.3280   30.4930   42.9770 H   0  0  0  0  0  0  0  0  0  0  0  0
   38.3030   28.6540   43.2410 C   0  0  0  0  0  3  0  0  0  0  0  0
   37.2050   27.9030   42.6140 C   0  0  0  0  0  3  0  0  0  0  0  0
   36.6900   29.0530   41.1980 S   0  0  0  0  0  0  0  0  0  0  0  0
   39.8580   32.3560   36.8680 N   0  0  0  0  0  0  0  0  0  0  0  0
   39.1570   32.9970   36.4180 H   0  0  0  0  0  0  0  0  0  0  0  0
   39.9050   31.3240   36.7960 H   0  0  0  0  0  0  0  0  0  0  0  0
  1 11  1  0  0  0  0
  1  6  1  0  0  0  0
  2  1  2  0  0  0  0
  3  2  1  0  0  0  0
  3  4  2  0  0  0  0
  4  5  1  0  0  0  0
  5  6  2  0  0  0  0
  5  8  1  0  0  0  0
  7  3  1  0  0  0  0
  9 13  1  0  0  0  0
 10  9  2  0  0  0  0
 11 12  1  0  0  0  0
 11  9  1  0  0  0  0
 13 14  1  0  0  0  0
 14 15  2  0  0  0  0
 15 16  1  0  0  0  0
 15 17  1  0  0  0  0
 18 17  2  0  0  0  0
 19 14  1  0  0  0  0
 19 18  1  0  0  0  0
 20  2  1  0  0  0  0
 21 20  1  0  0  0  0
 22 20  1  0  0  0  0
M  END
>  <minimizedAffinity>
-4.35880566

$$$$
