
 OpenBabel03242520333D

 25 27  0  0  1  0  0  0  0  0999 V2000
   46.0210   33.4630   40.2550 C   0  0  0  0  0  0  0  0  0  0  0  0
   46.3600   33.5480   41.6460 C   0  0  0  0  0  0  0  0  0  0  0  0
   45.4350   34.0820   42.5220 C   0  0  0  0  0  0  0  0  0  0  0  0
   44.2360   34.5070   42.0200 N   0  0  0  0  0  0  0  0  0  0  0  0
   43.9470   34.4160   40.7210 C   0  0  0  0  0  0  0  0  0  0  0  0
   44.8240   33.9040   39.8540 N   0  0  0  0  0  0  0  0  0  0  0  0
   46.7440   33.0450   39.5800 H   0  0  0  0  0  0  0  0  0  0  0  0
   45.7420   34.1220   43.5580 H   0  0  0  0  0  0  0  0  0  0  0  0
   47.7000   33.0880   42.1440 C   0  0  1  0  0  0  0  0  0  0  0  0
   48.8000   32.9100   41.2230 C   0  0  0  0  0  0  0  0  0  0  0  0
   48.8440   34.0930   42.1200 C   0  0  1  0  0  0  0  0  0  0  0  0
   47.6730   32.5070   43.0910 H   0  0  0  0  0  0  0  0  0  0  0  0
   49.5690   32.1090   41.3560 H   0  0  0  0  0  0  0  0  0  0  0  0
   48.6490   33.1070   40.1240 H   0  0  0  0  0  0  0  0  0  0  0  0
   49.5870   34.0380   42.9630 H   0  0  0  0  0  0  0  0  0  0  0  0
   48.6350   35.4690   41.6030 C   0  0  0  0  0  0  0  0  0  0  0  0
   49.7090   36.3010   41.8790 F   0  0  0  0  0  0  0  0  0  0  0  0
   47.4770   36.0490   42.1200 F   0  0  0  0  0  0  0  0  0  0  0  0
   48.5280   35.4000   40.2340 F   0  0  0  0  0  0  0  0  0  0  0  0
   42.6050   34.9200   40.3390 C   0  0  0  0  0  0  0  0  0  0  0  0
   42.0240   35.1440   39.1830 C   0  0  0  0  0  0  0  0  0  0  0  0
   42.6140   34.9300   38.3030 H   0  0  0  0  0  0  0  0  0  0  0  0
   40.7490   35.6210   39.1220 C   0  0  0  0  0  0  0  0  0  0  0  0
   40.1180   35.8490   40.3910 C   0  0  0  0  0  0  0  0  0  0  0  0
   41.4870   35.3290   41.5890 S   0  0  0  0  0  0  0  0  0  0  0  0
  1  2  1  0  0  0  0
  2  9  1  0  0  0  0
  2  3  2  0  0  0  0
  3  8  1  0  0  0  0
  4  3  1  0  0  0  0
  5  4  2  0  0  0  0
  6  1  2  0  0  0  0
  6  5  1  0  0  0  0
  7  1  1  0  0  0  0
  9 12  1  1  0  0  0
 10 13  1  0  0  0  0
 10 11  1  0  0  0  0
 10  9  1  0  0  0  0
 11  9  1  0  0  0  0
 11 15  1  1  0  0  0
 14 10  1  0  0  0  0
 16 17  1  0  0  0  0
 16 18  1  0  0  0  0
 16 11  1  0  0  0  0
 19 16  1  0  0  0  0
 20  5  1  0  0  0  0
 20 25  1  0  0  0  0
 21 20  2  0  0  0  0
 22 21  1  0  0  0  0
 23 21  1  0  0  0  0
 23 24  2  0  0  0  0
 24 25  1  0  0  0  0
M  END
>  <minimizedAffinity>
-5.16538286

>  <minimizedRMSD>
4.99992228

$$$$
