
 OpenBabel03252507553D

 41 44  0  0  1  0  0  0  0  0999 V2000
   47.1420   34.8080   42.0150 C   0  0  2  0  0  0  0  0  0  0  0  0
   46.3740   34.2960   40.7950 C   0  0  0  0  0  0  0  0  0  0  0  0
   47.5720   34.1380   39.8370 C   0  0  0  0  0  0  0  0  0  0  0  0
   48.7000   33.6780   40.7060 C   0  0  1  0  0  0  0  0  0  0  0  0
   48.1870   33.7300   42.1150 C   0  0  0  0  0  0  0  0  0  0  0  0
   47.5680   35.7790   41.7510 H   0  0  0  0  0  0  0  0  0  0  0  0
   45.9730   33.2970   40.9920 H   0  0  0  0  0  0  0  0  0  0  0  0
   45.6600   35.0290   40.4110 H   0  0  0  0  0  0  0  0  0  0  0  0
   47.8280   35.1560   39.4590 H   0  0  0  0  0  0  0  0  0  0  0  0
   47.3250   33.4260   39.0310 H   0  0  0  0  0  0  0  0  0  0  0  0
   49.5970   34.3320   40.6360 H   0  0  0  0  0  0  0  0  0  0  0  0
   48.9610   34.0870   42.8280 H   0  0  0  0  0  0  0  0  0  0  0  0
   47.7100   32.7870   42.4370 H   0  0  0  0  0  0  0  0  0  0  0  0
   44.5640   35.8040   44.5730 C   0  0  0  0  0  0  0  0  0  0  0  0
   45.2970   35.8440   43.3780 C   0  0  0  0  0  0  0  0  0  0  0  0
   46.2740   34.8670   43.2220 C   0  0  0  0  0  0  0  0  0  0  0  0
   46.4980   33.9050   44.2190 N   0  0  0  0  0  0  0  0  0  0  0  0
   45.7520   33.9270   45.3530 C   0  0  0  0  0  0  0  0  0  0  0  0
   44.7900   34.8740   45.5240 N   0  0  0  0  0  0  0  0  0  0  0  0
   43.7950   36.5540   44.7230 H   0  0  0  0  0  0  0  0  0  0  0  0
   45.1500   36.5650   42.5990 H   0  0  0  0  0  0  0  0  0  0  0  0
   46.0180   33.1390   46.0400 H   0  0  0  0  0  0  0  0  0  0  0  0
   49.1490   32.2570   40.4460 C   0  0  2  0  0  0  0  0  0  0  0  0
   50.3510   31.8320   41.1560 C   0  0  0  0  0  0  0  0  0  0  0  0
   50.3570   31.9650   39.6710 C   0  0  1  0  0  0  0  0  0  0  0  0
   48.3160   31.5380   40.3690 H   0  0  0  0  0  0  0  0  0  0  0  0
   50.8770   32.5420   41.7960 H   0  0  0  0  0  0  0  0  0  0  0  0
   50.3380   30.8020   41.6160 H   0  0  0  0  0  0  0  0  0  0  0  0
   50.8820   32.8160   39.2140 H   0  0  0  0  0  0  0  0  0  0  0  0
   50.3660   30.7740   38.9060 O   0  0  0  0  0  0  0  0  0  0  0  0
   50.8280   30.8990   36.3460 O   0  0  0  0  0  0  0  0  0  0  0  0
   51.5120   30.9340   37.6920 P   0  0  1  0  0  0  0  0  0  0  0  0
   52.2940   32.4570   37.8260 O   0  0  0  0  0  0  0  0  0  0  0  0
   52.7900   32.4450   38.7010 H   0  0  0  0  0  0  0  0  0  0  0  0
   52.7140   29.7880   37.7020 O   0  0  0  0  0  0  0  0  0  0  0  0
   53.8840   30.0310   36.9880 C   0  0  0  0  0  0  0  0  0  0  0  0
   55.0660   30.6420   37.2050 C   0  0  0  0  0  0  0  0  0  0  0  0
   55.1240   31.0570   38.2020 H   0  0  0  0  0  0  0  0  0  0  0  0
   56.0220   30.6960   36.2520 C   0  0  0  0  0  3  0  0  0  0  0  0
   55.6870   30.0720   35.0310 C   0  0  0  0  0  3  0  0  0  0  0  0
   53.9440   29.4240   35.3610 S   0  0  0  0  0  0  0  0  0  0  0  0
  1  6  1  6  0  0  0
  1  5  1  0  0  0  0
  1 16  1  0  0  0  0
  2  7  1  0  0  0  0
  2  1  1  0  0  0  0
  3  4  1  0  0  0  0
  3  2  1  0  0  0  0
  4 11  1  6  0  0  0
  4  5  1  0  0  0  0
  5 13  1  0  0  0  0
  5 12  1  0  0  0  0
  8  2  1  0  0  0  0
  9  3  1  0  0  0  0
 10  3  1  0  0  0  0
 14 20  1  0  0  0  0
 14 19  1  0  0  0  0
 15 14  2  0  0  0  0
 16 15  1  0  0  0  0
 16 17  2  0  0  0  0
 17 18  1  0  0  0  0
 18 19  2  0  0  0  0
 18 22  1  0  0  0  0
 21 15  1  0  0  0  0
 23 26  1  6  0  0  0
 23  4  1  0  0  0  0
 23 24  1  0  0  0  0
 24 28  1  0  0  0  0
 24 27  1  0  0  0  0
 25 29  1  6  0  0  0
 25 23  1  0  0  0  0
 25 24  1  0  0  0  0
 30 25  1  0  0  0  0
 32 31  2  6  0  0  0
 32 35  1  0  0  0  0
 32 33  1  0  0  0  0
 32 30  1  0  0  0  0
 33 34  1  0  0  0  0
 36 37  2  0  0  0  0
 36 35  1  0  0  0  0
 37 38  1  0  0  0  0
 39 37  1  0  0  0  0
 40 41  1  0  0  0  0
 40 39  2  0  0  0  0
 41 36  1  0  0  0  0
M  END
>  <minimizedAffinity>
-5.50119066

>  <minimizedRMSD>
1.64365602

$$$$
