
 OpenBabel03252508073D

 41 44  0  0  0  0  0  0  0  0999 V2000
   45.2170   35.8730   43.0070 C   0  0  0  0  0  0  0  0  0  0  0  0
   45.4850   34.5150   43.0410 C   0  0  0  0  0  0  0  0  0  0  0  0
   45.2950   33.8030   44.2000 C   0  0  0  0  0  0  0  0  0  0  0  0
   44.8320   34.5010   45.2960 N   0  0  0  0  0  0  0  0  0  0  0  0
   44.5730   35.8070   45.2630 C   0  0  0  0  0  0  0  0  0  0  0  0
   44.7700   36.4840   44.1130 N   0  0  0  0  0  0  0  0  0  0  0  0
   45.3690   36.4440   42.0820 H   0  0  0  0  0  0  0  0  0  0  0  0
   44.2130   36.3050   46.1490 H   0  0  0  0  0  0  0  0  0  0  0  0
   45.5230   32.4210   44.3910 C   0  0  0  0  0  0  0  0  0  0  0  0
   45.0730   31.4240   43.5240 C   0  0  0  0  0  0  0  0  0  0  0  0
   45.2350   30.0810   43.7430 C   0  0  0  0  0  0  0  0  0  0  0  0
   45.8770   29.6490   44.8770 C   0  0  0  0  0  0  0  0  0  0  0  0
   46.3490   30.6510   45.7790 C   0  0  0  0  0  0  0  0  0  0  0  0
   46.9890   30.2230   46.9130 C   0  0  0  0  0  0  0  0  0  0  0  0
   47.4700   31.1410   47.8230 C   0  0  0  0  0  0  0  0  0  0  0  0
   47.2990   32.5110   47.5780 C   0  0  0  0  0  0  0  0  0  0  0  0
   46.6360   32.8970   46.4010 C   0  0  0  0  0  0  0  0  0  0  0  0
   46.1620   31.9690   45.5140 C   0  0  0  0  0  0  0  0  0  0  0  0
   44.5610   31.7150   42.6180 H   0  0  0  0  0  0  0  0  0  0  0  0
   44.8550   29.3630   43.0150 H   0  0  0  0  0  0  0  0  0  0  0  0
   46.0110   28.6090   45.0620 H   0  0  0  0  0  0  0  0  0  0  0  0
   47.1120   29.1590   47.0830 H   0  0  0  0  0  0  0  0  0  0  0  0
   47.9670   30.7390   48.7020 H   0  0  0  0  0  0  0  0  0  0  0  0
   47.7080   33.1400   48.3410 H   0  0  0  0  0  0  0  0  0  0  0  0
   46.6250   33.9650   46.3830 H   0  0  0  0  0  0  0  0  0  0  0  0
   45.9360   33.9420   41.8820 O   0  0  0  0  0  0  0  0  0  0  0  0
   47.9550   32.3090   41.5440 O   0  0  0  0  0  0  0  0  0  0  0  0
   47.5700   33.7470   41.4830 P   0  0  1  0  0  0  0  0  0  0  0  0
   47.8660   34.2690   39.9000 O   0  0  0  0  0  0  0  0  0  0  0  0
   48.4410   33.4000   38.9300 C   0  0  0  0  0  0  0  0  0  0  0  0
   49.2030   32.2120   38.6950 C   0  0  0  0  0  0  0  0  0  0  0  0
   49.4240   31.8290   39.6710 H   0  0  0  0  0  0  0  0  0  0  0  0
   49.4010   31.9480   37.3710 C   0  0  0  0  0  3  0  0  0  0  0  0
   48.9310   32.7220   36.3690 C   0  0  0  0  0  3  0  0  0  0  0  0
   48.0650   34.0540   37.1910 S   0  0  0  0  0  0  0  0  0  0  0  0
   48.4880   34.6670   42.5400 O   0  0  0  0  0  0  0  0  0  0  0  0
   49.6990   35.2830   42.2660 C   0  0  0  0  0  0  0  0  0  0  0  0
   49.3900   36.3560   41.7160 O   0  0  0  0  0  0  0  0  0  0  0  0
   50.8000   34.4670   42.7110 N   0  0  0  0  0  0  0  0  0  0  0  0
   51.5220   33.9420   42.1660 H   0  0  0  0  0  0  0  0  0  0  0  0
   50.9170   34.3690   43.7440 H   0  0  0  0  0  0  0  0  0  0  0  0
  1  2  2  0  0  0  0
  1  6  1  0  0  0  0
  2  3  1  0  0  0  0
  3  9  1  0  0  0  0
  3  4  2  0  0  0  0
  5  4  1  0  0  0  0
  5  8  1  0  0  0  0
  6  5  2  0  0  0  0
  7  1  1  0  0  0  0
  9 18  1  0  0  0  0
 10 11  1  0  0  0  0
 10  9  2  0  0  0  0
 11 12  2  0  0  0  0
 12 21  1  0  0  0  0
 12 13  1  0  0  0  0
 13 14  1  0  0  0  0
 14 22  1  0  0  0  0
 14 15  2  0  0  0  0
 15 23  1  0  0  0  0
 16 15  1  0  0  0  0
 16 24  1  0  0  0  0
 17 16  2  0  0  0  0
 18 13  2  0  0  0  0
 18 17  1  0  0  0  0
 19 10  1  0  0  0  0
 20 11  1  0  0  0  0
 25 17  1  0  0  0  0
 26  2  1  0  0  0  0
 28 27  2  1  0  0  0
 28 26  1  0  0  0  0
 28 36  1  0  0  0  0
 29 28  1  0  0  0  0
 30 29  1  0  0  0  0
 31 30  2  0  0  0  0
 31 32  1  0  0  0  0
 33 31  1  0  0  0  0
 34 35  1  0  0  0  0
 34 33  2  0  0  0  0
 35 30  1  0  0  0  0
 37 36  1  0  0  0  0
 37 39  1  0  0  0  0
 38 37  2  0  0  0  0
 39 41  1  0  0  0  0
 40 39  1  0  0  0  0
M  END
>  <minimizedAffinity>
-6.05845976

>  <minimizedRMSD>
0.808124781

$$$$
