
 OpenBabel03242510203D

 33 36  0  0  1  0  0  0  0  0999 V2000
   37.1230   29.6710   39.8930 N   0  0  0  0  0  0  0  0  0  0  0  0
   36.2840   29.0030   40.7690 C   0  0  0  0  0  0  0  0  0  0  0  0
   35.0240   28.9300   40.8000 O   0  0  0  0  0  0  0  0  0  0  0  0
   37.9220   30.2070   40.3490 H   0  0  0  0  0  0  0  0  0  0  0  0
   37.5030   30.8260   37.7320 C   0  0  1  0  0  0  0  0  0  0  0  0
   38.2610   29.6320   37.6700 C   0  0  0  0  0  0  0  0  0  0  0  0
   36.9480   29.6530   38.4740 C   0  0  1  0  0  0  0  0  0  0  0  0
   36.9180   31.2080   36.8650 H   0  0  0  0  0  0  0  0  0  0  0  0
   39.1570   29.4200   38.2820 H   0  0  0  0  0  0  0  0  0  0  0  0
   38.2890   29.0400   36.7180 H   0  0  0  0  0  0  0  0  0  0  0  0
   36.2930   28.8810   38.0550 H   0  0  0  0  0  0  0  0  0  0  0  0
   37.2130   32.9450   39.1830 C   0  0  0  0  0  0  0  0  0  0  0  0
   38.0480   31.9760   38.5810 C   0  0  0  0  0  0  0  0  0  0  0  0
   39.4050   32.1010   38.7610 C   0  0  0  0  0  0  0  0  0  0  0  0
   39.8810   33.1330   39.4970 N   0  0  0  0  0  0  0  0  0  0  0  0
   39.0720   34.0570   40.0690 C   0  0  0  0  0  0  0  0  0  0  0  0
   37.6870   33.9550   39.9030 N   0  0  0  0  0  0  0  0  0  0  0  0
   36.1590   32.8690   39.0610 H   0  0  0  0  0  0  0  0  0  0  0  0
   40.0640   31.3710   38.3100 H   0  0  0  0  0  0  0  0  0  0  0  0
   39.6240   34.7950   40.6100 H   0  0  0  0  0  0  0  0  0  0  0  0
   36.8730   28.1900   41.9120 C   0  0  2  0  0  0  0  0  0  0  0  0
   37.4330   28.9900   43.1240 C   0  0  0  0  0  0  0  0  0  0  0  0
   38.3100   28.1990   42.1920 C   0  0  1  0  0  0  0  0  0  0  0  0
   36.2210   27.3900   42.3260 H   0  0  0  0  0  0  0  0  0  0  0  0
   37.2990   30.0620   43.0700 H   0  0  0  0  0  0  0  0  0  0  0  0
   37.3070   28.5740   44.1340 H   0  0  0  0  0  0  0  0  0  0  0  0
   39.0470   28.9020   41.7770 H   0  0  0  0  0  0  0  0  0  0  0  0
   38.8950   26.9350   42.5760 C   0  0  0  0  0  0  0  0  0  0  0  0
   39.8710   26.6670   43.4640 C   0  0  0  0  0  0  0  0  0  0  0  0
   40.3410   27.4690   44.0200 H   0  0  0  0  0  0  0  0  0  0  0  0
   40.2830   25.3720   43.6800 C   0  0  0  0  0  3  0  0  0  0  0  0
   39.6820   24.3390   42.9700 C   0  0  0  0  0  3  0  0  0  0  0  0
   38.4420   25.2940   41.9230 S   0  0  0  0  0  0  0  0  0  0  0  0
  1  4  1  0  0  0  0
  1  2  1  0  0  0  0
  2  3  2  0  0  0  0
  2 21  1  0  0  0  0
  5  8  1  6  0  0  0
  5  7  1  0  0  0  0
  5 13  1  0  0  0  0
  6  5  1  0  0  0  0
  6  9  1  0  0  0  0
  6  7  1  0  0  0  0
  7 11  1  6  0  0  0
  7  1  1  0  0  0  0
 10  6  1  0  0  0  0
 12 17  1  0  0  0  0
 13 14  1  0  0  0  0
 13 12  2  0  0  0  0
 14 15  2  0  0  0  0
 15 16  1  0  0  0  0
 16 20  1  0  0  0  0
 17 16  2  0  0  0  0
 18 12  1  0  0  0  0
 19 14  1  0  0  0  0
 21 23  1  0  0  0  0
 21 24  1  1  0  0  0
 21 22  1  0  0  0  0
 22 26  1  0  0  0  0
 23 27  1  6  0  0  0
 23 28  1  0  0  0  0
 23 22  1  0  0  0  0
 25 22  1  0  0  0  0
 28 29  2  0  0  0  0
 29 31  1  0  0  0  0
 29 30  1  0  0  0  0
 32 31  2  0  0  0  0
 33 28  1  0  0  0  0
 33 32  1  0  0  0  0
M  END
>  <minimizedAffinity>
-5.17212343

$$$$

 OpenBabel03242510203D

 33 36  0  0  1  0  0  0  0  0999 V2000
   38.5800   27.7250   42.4910 N   0  0  0  0  0  0  0  0  0  0  0  0
   37.2650   28.1550   42.5610 C   0  0  0  0  0  0  0  0  0  0  0  0
   36.2650   27.6400   43.1330 O   0  0  0  0  0  0  0  0  0  0  0  0
   39.0280   27.7860   41.5280 H   0  0  0  0  0  0  0  0  0  0  0  0
   39.7880   25.8220   43.5240 C   0  0  1  0  0  0  0  0  0  0  0  0
   40.7590   26.8320   43.3220 C   0  0  0  0  0  0  0  0  0  0  0  0
   39.3030   27.2320   43.6220 C   0  0  1  0  0  0  0  0  0  0  0  0
   39.7530   25.2020   44.4480 H   0  0  0  0  0  0  0  0  0  0  0  0
   41.1230   27.1710   42.3350 H   0  0  0  0  0  0  0  0  0  0  0  0
   41.5340   27.0240   44.1110 H   0  0  0  0  0  0  0  0  0  0  0  0
   39.3100   27.8510   44.5260 H   0  0  0  0  0  0  0  0  0  0  0  0
   38.1270   24.2690   42.2940 C   0  0  0  0  0  0  0  0  0  0  0  0
   39.3240   25.0220   42.3050 C   0  0  0  0  0  0  0  0  0  0  0  0
   40.0980   25.0080   41.1690 C   0  0  0  0  0  0  0  0  0  0  0  0
   39.6920   24.2830   40.1020 N   0  0  0  0  0  0  0  0  0  0  0  0
   38.5440   23.5620   40.1020 C   0  0  0  0  0  0  0  0  0  0  0  0
   37.7350   23.5590   41.2430 N   0  0  0  0  0  0  0  0  0  0  0  0
   37.5090   24.2660   43.1600 H   0  0  0  0  0  0  0  0  0  0  0  0
   41.0180   25.5780   41.1540 H   0  0  0  0  0  0  0  0  0  0  0  0
   38.3870   23.0560   39.1750 H   0  0  0  0  0  0  0  0  0  0  0  0
   36.8540   29.4490   41.8750 C   0  0  2  0  0  0  0  0  0  0  0  0
   36.0000   29.3140   40.5800 C   0  0  0  0  0  0  0  0  0  0  0  0
   37.4120   29.8350   40.5780 C   0  0  1  0  0  0  0  0  0  0  0  0
   36.3480   30.2000   42.5190 H   0  0  0  0  0  0  0  0  0  0  0  0
   35.7250   28.3030   40.3120 H   0  0  0  0  0  0  0  0  0  0  0  0
   35.2140   30.0580   40.3860 H   0  0  0  0  0  0  0  0  0  0  0  0
   37.9880   29.1870   39.9010 H   0  0  0  0  0  0  0  0  0  0  0  0
   37.7130   31.2370   40.4020 C   0  0  0  0  0  0  0  0  0  0  0  0
   37.0450   32.1880   39.7210 C   0  0  0  0  0  0  0  0  0  0  0  0
   36.1290   31.9440   39.1970 H   0  0  0  0  0  0  0  0  0  0  0  0
   37.5150   33.4800   39.6820 C   0  0  0  0  0  3  0  0  0  0  0  0
   38.6900   33.7980   40.3550 C   0  0  0  0  0  3  0  0  0  0  0  0
   39.1490   32.1260   41.0910 S   0  0  0  0  0  0  0  0  0  0  0  0
  1  2  1  0  0  0  0
  1  7  1  0  0  0  0
  2  3  2  0  0  0  0
  4  1  1  0  0  0  0
  5  7  1  0  0  0  0
  5  8  1  1  0  0  0
  6  5  1  0  0  0  0
  6  7  1  0  0  0  0
  6 10  1  0  0  0  0
  7 11  1  1  0  0  0
  9  6  1  0  0  0  0
 12 13  1  0  0  0  0
 12 18  1  0  0  0  0
 13  5  1  0  0  0  0
 14 13  2  0  0  0  0
 15 14  1  0  0  0  0
 16 15  2  0  0  0  0
 16 17  1  0  0  0  0
 17 12  2  0  0  0  0
 19 14  1  0  0  0  0
 20 16  1  0  0  0  0
 21 24  1  1  0  0  0
 21  2  1  0  0  0  0
 22 21  1  0  0  0  0
 23 27  1  6  0  0  0
 23 22  1  0  0  0  0
 23 21  1  0  0  0  0
 25 22  1  0  0  0  0
 26 22  1  0  0  0  0
 28 23  1  0  0  0  0
 28 33  1  0  0  0  0
 29 28  2  0  0  0  0
 30 29  1  0  0  0  0
 31 29  1  0  0  0  0
 31 32  2  0  0  0  0
 32 33  1  0  0  0  0
M  END
>  <minimizedAffinity>
-5.1007719

$$$$

 OpenBabel03242510203D

 33 36  0  0  1  0  0  0  0  0999 V2000
   37.4870   30.0870   39.6830 N   0  0  0  0  0  0  0  0  0  0  0  0
   36.8140   29.9960   40.8900 C   0  0  0  0  0  0  0  0  0  0  0  0
   36.0590   30.8230   41.4710 O   0  0  0  0  0  0  0  0  0  0  0  0
   38.4970   29.7520   39.6990 H   0  0  0  0  0  0  0  0  0  0  0  0
   37.4120   31.9010   37.9940 C   0  0  1  0  0  0  0  0  0  0  0  0
   37.8560   30.7470   37.3030 C   0  0  0  0  0  0  0  0  0  0  0  0
   36.8860   30.5920   38.4880 C   0  0  1  0  0  0  0  0  0  0  0  0
   36.6800   32.6150   37.5550 H   0  0  0  0  0  0  0  0  0  0  0  0
   38.8340   30.2560   37.4570 H   0  0  0  0  0  0  0  0  0  0  0  0
   37.4700   30.5340   36.2710 H   0  0  0  0  0  0  0  0  0  0  0  0
   35.9910   30.0790   38.1170 H   0  0  0  0  0  0  0  0  0  0  0  0
   38.0150   33.5190   39.9170 C   0  0  0  0  0  0  0  0  0  0  0  0
   38.4120   32.6210   38.8990 C   0  0  0  0  0  0  0  0  0  0  0  0
   39.7600   32.4150   38.7200 C   0  0  0  0  0  0  0  0  0  0  0  0
   40.6400   33.0710   39.5110 N   0  0  0  0  0  0  0  0  0  0  0  0
   40.2480   33.9310   40.4830 C   0  0  0  0  0  0  0  0  0  0  0  0
   38.8840   34.1600   40.6890 N   0  0  0  0  0  0  0  0  0  0  0  0
   36.9780   33.6940   40.0780 H   0  0  0  0  0  0  0  0  0  0  0  0
   40.0880   31.7310   37.9480 H   0  0  0  0  0  0  0  0  0  0  0  0
   41.0790   34.3540   41.0040 H   0  0  0  0  0  0  0  0  0  0  0  0
   36.9310   28.7320   41.7290 C   0  0  2  0  0  0  0  0  0  0  0  0
   37.8000   28.8250   43.0180 C   0  0  0  0  0  0  0  0  0  0  0  0
   38.1930   27.9950   41.8260 C   0  0  1  0  0  0  0  0  0  0  0  0
   35.9720   28.2510   42.0200 H   0  0  0  0  0  0  0  0  0  0  0  0
   38.2000   29.8070   43.2340 H   0  0  0  0  0  0  0  0  0  0  0  0
   37.4830   28.2650   43.9090 H   0  0  0  0  0  0  0  0  0  0  0  0
   39.1800   28.3550   41.5000 H   0  0  0  0  0  0  0  0  0  0  0  0
   38.0940   26.5550   41.8270 C   0  0  0  0  0  0  0  0  0  0  0  0
   37.0540   25.7580   42.1380 C   0  0  0  0  0  0  0  0  0  0  0  0
   36.1070   26.1870   42.4440 H   0  0  0  0  0  0  0  0  0  0  0  0
   37.1770   24.3890   42.0720 C   0  0  0  0  0  3  0  0  0  0  0  0
   38.3890   23.8330   41.6790 C   0  0  0  0  0  3  0  0  0  0  0  0
   39.4200   25.3820   41.3870 S   0  0  0  0  0  0  0  0  0  0  0  0
  1  4  1  0  0  0  0
  1  2  1  0  0  0  0
  2  3  2  0  0  0  0
  2 21  1  0  0  0  0
  5  8  1  6  0  0  0
  5  7  1  0  0  0  0
  5 13  1  0  0  0  0
  6  9  1  0  0  0  0
  6  5  1  0  0  0  0
  6  7  1  0  0  0  0
  7 11  1  6  0  0  0
  7  1  1  0  0  0  0
 10  6  1  0  0  0  0
 12 18  1  0  0  0  0
 12 17  1  0  0  0  0
 13 12  2  0  0  0  0
 14 13  1  0  0  0  0
 14 15  2  0  0  0  0
 15 16  1  0  0  0  0
 16 17  2  0  0  0  0
 16 20  1  0  0  0  0
 19 14  1  0  0  0  0
 21 23  1  0  0  0  0
 21 24  1  1  0  0  0
 21 22  1  0  0  0  0
 22 25  1  0  0  0  0
 22 26  1  0  0  0  0
 23 27  1  6  0  0  0
 23 28  1  0  0  0  0
 23 22  1  0  0  0  0
 28 29  2  0  0  0  0
 29 30  1  0  0  0  0
 31 29  1  0  0  0  0
 32 31  2  0  0  0  0
 33 32  1  0  0  0  0
 33 28  1  0  0  0  0
M  END
>  <minimizedAffinity>
-5.02737665

$$$$

 OpenBabel03242510203D

 33 36  0  0  1  0  0  0  0  0999 V2000
   38.3950   31.0660   40.6460 N   0  0  0  0  0  0  0  0  0  0  0  0
   38.8550   30.4000   41.7700 C   0  0  0  0  0  0  0  0  0  0  0  0
   39.6630   30.7690   42.6660 O   0  0  0  0  0  0  0  0  0  0  0  0
   38.3740   30.4890   39.7520 H   0  0  0  0  0  0  0  0  0  0  0  0
   38.7640   33.3730   39.8150 C   0  0  1  0  0  0  0  0  0  0  0  0
   37.5070   32.9730   39.3000 C   0  0  0  0  0  0  0  0  0  0  0  0
   37.9720   32.4320   40.6640 C   0  0  1  0  0  0  0  0  0  0  0  0
   38.9470   34.3960   40.2170 H   0  0  0  0  0  0  0  0  0  0  0  0
   37.3580   32.1900   38.5340 H   0  0  0  0  0  0  0  0  0  0  0  0
   36.6550   33.7030   39.2820 H   0  0  0  0  0  0  0  0  0  0  0  0
   37.2180   32.7170   41.4060 H   0  0  0  0  0  0  0  0  0  0  0  0
   40.0110   32.2130   37.8710 C   0  0  0  0  0  0  0  0  0  0  0  0
   40.0210   32.8060   39.1550 C   0  0  0  0  0  0  0  0  0  0  0  0
   41.2180   32.8470   39.8310 C   0  0  0  0  0  0  0  0  0  0  0  0
   42.3230   32.3250   39.2490 N   0  0  0  0  0  0  0  0  0  0  0  0
   42.3030   31.7580   38.0190 C   0  0  0  0  0  0  0  0  0  0  0  0
   41.0990   31.7030   37.3080 N   0  0  0  0  0  0  0  0  0  0  0  0
   39.0980   32.1720   37.3270 H   0  0  0  0  0  0  0  0  0  0  0  0
   41.2500   33.2960   40.8150 H   0  0  0  0  0  0  0  0  0  0  0  0
   43.2650   31.4010   37.7240 H   0  0  0  0  0  0  0  0  0  0  0  0
   38.3650   28.9920   42.0690 C   0  0  2  0  0  0  0  0  0  0  0  0
   37.4390   28.8220   43.3090 C   0  0  0  0  0  0  0  0  0  0  0  0
   38.8320   28.2560   43.2460 C   0  0  1  0  0  0  0  0  0  0  0  0
   37.8770   28.4570   41.2260 H   0  0  0  0  0  0  0  0  0  0  0  0
   37.1780   29.7390   43.8190 H   0  0  0  0  0  0  0  0  0  0  0  0
   36.6210   28.0880   43.2600 H   0  0  0  0  0  0  0  0  0  0  0  0
   39.3850   28.6790   44.0980 H   0  0  0  0  0  0  0  0  0  0  0  0
   39.0800   26.8450   43.0620 C   0  0  0  0  0  0  0  0  0  0  0  0
   39.9600   26.0330   43.6790 C   0  0  0  0  0  0  0  0  0  0  0  0
   40.6210   26.4220   44.4450 H   0  0  0  0  0  0  0  0  0  0  0  0
   40.0340   24.7000   43.3460 C   0  0  0  0  0  3  0  0  0  0  0  0
   39.1870   24.1960   42.3640 C   0  0  0  0  0  3  0  0  0  0  0  0
   38.2250   25.7430   41.8880 S   0  0  0  0  0  0  0  0  0  0  0  0
  1  7  1  0  0  0  0
  1  2  1  0  0  0  0
  2 21  1  0  0  0  0
  2  3  2  0  0  0  0
  4  1  1  0  0  0  0
  5  8  1  1  0  0  0
  5  7  1  0  0  0  0
  6  5  1  0  0  0  0
  6  7  1  0  0  0  0
  7 11  1  1  0  0  0
  9  6  1  0  0  0  0
 10  6  1  0  0  0  0
 12 13  1  0  0  0  0
 13  5  1  0  0  0  0
 13 14  2  0  0  0  0
 14 19  1  0  0  0  0
 15 14  1  0  0  0  0
 16 15  2  0  0  0  0
 17 12  2  0  0  0  0
 17 16  1  0  0  0  0
 18 12  1  0  0  0  0
 20 16  1  0  0  0  0
 21 24  1  6  0  0  0
 21 23  1  0  0  0  0
 21 22  1  0  0  0  0
 22 25  1  0  0  0  0
 23 22  1  0  0  0  0
 23 27  1  1  0  0  0
 26 22  1  0  0  0  0
 28 23  1  0  0  0  0
 28 29  2  0  0  0  0
 29 30  1  0  0  0  0
 31 29  1  0  0  0  0
 32 31  2  0  0  0  0
 33 32  1  0  0  0  0
 33 28  1  0  0  0  0
M  END
>  <minimizedAffinity>
-4.88898039

$$$$

 OpenBabel03242510203D

 33 36  0  0  1  0  0  0  0  0999 V2000
   36.4150   29.3160   41.8820 N   0  0  0  0  0  0  0  0  0  0  0  0
   36.8890   28.3740   42.7800 C   0  0  0  0  0  0  0  0  0  0  0  0
   36.3130   27.3810   43.3040 O   0  0  0  0  0  0  0  0  0  0  0  0
   36.6680   30.3250   42.1050 H   0  0  0  0  0  0  0  0  0  0  0  0
   36.0960   29.5760   39.4370 C   0  0  1  0  0  0  0  0  0  0  0  0
   36.4170   28.2120   39.6420 C   0  0  0  0  0  0  0  0  0  0  0  0
   35.6410   28.9780   40.7290 C   0  0  1  0  0  0  0  0  0  0  0  0
   35.3100   29.9030   38.7180 H   0  0  0  0  0  0  0  0  0  0  0  0
   37.4030   27.8390   39.9740 H   0  0  0  0  0  0  0  0  0  0  0  0
   35.8740   27.4200   39.0620 H   0  0  0  0  0  0  0  0  0  0  0  0
   34.6950   28.4490   40.8920 H   0  0  0  0  0  0  0  0  0  0  0  0
   38.5770   30.2710   39.2430 C   0  0  0  0  0  0  0  0  0  0  0  0
   37.2300   30.5990   39.5190 C   0  0  0  0  0  0  0  0  0  0  0  0
   36.9500   31.8910   39.8940 C   0  0  0  0  0  0  0  0  0  0  0  0
   37.9610   32.7870   39.9840 N   0  0  0  0  0  0  0  0  0  0  0  0
   39.2500   32.4630   39.7190 C   0  0  0  0  0  0  0  0  0  0  0  0
   39.5640   31.1550   39.3340 N   0  0  0  0  0  0  0  0  0  0  0  0
   38.8200   29.2790   38.9480 H   0  0  0  0  0  0  0  0  0  0  0  0
   35.9250   32.1650   40.1090 H   0  0  0  0  0  0  0  0  0  0  0  0
   39.9070   33.2950   39.8420 H   0  0  0  0  0  0  0  0  0  0  0  0
   38.3250   28.4550   43.2750 C   0  0  2  0  0  0  0  0  0  0  0  0
   39.1140   29.7510   42.9280 C   0  0  0  0  0  0  0  0  0  0  0  0
   39.4550   28.4060   42.3460 C   0  0  1  0  0  0  0  0  0  0  0  0
   38.4760   28.2650   44.3600 H   0  0  0  0  0  0  0  0  0  0  0  0
   38.5450   30.5110   42.4090 H   0  0  0  0  0  0  0  0  0  0  0  0
   39.8250   30.1490   43.6650 H   0  0  0  0  0  0  0  0  0  0  0  0
   39.4010   28.5100   41.2520 H   0  0  0  0  0  0  0  0  0  0  0  0
   40.6080   27.6520   42.7790 C   0  0  0  0  0  0  0  0  0  0  0  0
   41.9030   28.0150   42.8520 C   0  0  0  0  0  0  0  0  0  0  0  0
   42.2100   29.0120   42.5590 H   0  0  0  0  0  0  0  0  0  0  0  0
   42.8540   27.1280   43.3000 C   0  0  0  0  0  3  0  0  0  0  0  0
   42.4660   25.8470   43.6790 C   0  0  0  0  0  3  0  0  0  0  0  0
   40.6100   25.9260   43.3690 S   0  0  0  0  0  0  0  0  0  0  0  0
  1  4  1  0  0  0  0
  1  2  1  0  0  0  0
  2 21  1  0  0  0  0
  2  3  2  0  0  0  0
  5  8  1  6  0  0  0
  5 13  1  0  0  0  0
  5  6  1  0  0  0  0
  5  7  1  0  0  0  0
  6  9  1  0  0  0  0
  6  7  1  0  0  0  0
  7 11  1  1  0  0  0
  7  1  1  0  0  0  0
 10  6  1  0  0  0  0
 12 17  2  0  0  0  0
 12 13  1  0  0  0  0
 13 14  2  0  0  0  0
 14 15  1  0  0  0  0
 14 19  1  0  0  0  0
 16 20  1  0  0  0  0
 16 15  2  0  0  0  0
 17 16  1  0  0  0  0
 18 12  1  0  0  0  0
 21 24  1  1  0  0  0
 22 21  1  0  0  0  0
 22 26  1  0  0  0  0
 23 27  1  6  0  0  0
 23 28  1  0  0  0  0
 23 22  1  0  0  0  0
 23 21  1  0  0  0  0
 25 22  1  0  0  0  0
 28 29  2  0  0  0  0
 28 33  1  0  0  0  0
 29 31  1  0  0  0  0
 30 29  1  0  0  0  0
 31 32  2  0  0  0  0
 33 32  1  0  0  0  0
M  END
>  <minimizedAffinity>
-4.88164854

$$$$

 OpenBabel03242510203D

 33 36  0  0  1  0  0  0  0  0999 V2000
   37.7240   27.5700   40.5070 N   0  0  0  0  0  0  0  0  0  0  0  0
   36.7920   28.0570   39.6060 C   0  0  0  0  0  0  0  0  0  0  0  0
   35.7630   27.5130   39.1180 O   0  0  0  0  0  0  0  0  0  0  0  0
   38.7400   27.7640   40.2600 H   0  0  0  0  0  0  0  0  0  0  0  0
   37.9970   27.3370   42.9610 C   0  0  1  0  0  0  0  0  0  0  0  0
   36.6450   27.7060   42.7560 C   0  0  0  0  0  0  0  0  0  0  0  0
   37.3660   26.8560   41.6940 C   0  0  1  0  0  0  0  0  0  0  0  0
   38.3000   26.5680   43.7070 H   0  0  0  0  0  0  0  0  0  0  0  0
   36.3090   28.6920   42.3870 H   0  0  0  0  0  0  0  0  0  0  0  0
   35.8370   27.2190   43.3640 H   0  0  0  0  0  0  0  0  0  0  0  0
   36.7980   25.9270   41.5730 H   0  0  0  0  0  0  0  0  0  0  0  0
   40.4400   28.1320   42.6830 C   0  0  0  0  0  0  0  0  0  0  0  0
   39.0640   28.4240   42.8240 C   0  0  0  0  0  0  0  0  0  0  0  0
   38.6910   29.7470   42.8550 C   0  0  0  0  0  0  0  0  0  0  0  0
   39.6430   30.7040   42.7530 N   0  0  0  0  0  0  0  0  0  0  0  0
   40.9600   30.4130   42.6210 C   0  0  0  0  0  0  0  0  0  0  0  0
   41.3680   29.0760   42.5840 N   0  0  0  0  0  0  0  0  0  0  0  0
   40.7540   27.1160   42.6530 H   0  0  0  0  0  0  0  0  0  0  0  0
   37.6430   29.9940   42.9610 H   0  0  0  0  0  0  0  0  0  0  0  0
   41.5610   31.2930   42.5550 H   0  0  0  0  0  0  0  0  0  0  0  0
   36.9350   29.4680   39.0560 C   0  0  2  0  0  0  0  0  0  0  0  0
   37.6860   29.6180   37.7000 C   0  0  0  0  0  0  0  0  0  0  0  0
   38.2370   30.1360   39.0020 C   0  0  1  0  0  0  0  0  0  0  0  0
   35.9950   30.0540   38.9710 H   0  0  0  0  0  0  0  0  0  0  0  0
   37.9920   28.6900   37.2380 H   0  0  0  0  0  0  0  0  0  0  0  0
   37.3410   30.3810   36.9880 H   0  0  0  0  0  0  0  0  0  0  0  0
   39.2170   29.6590   39.1440 H   0  0  0  0  0  0  0  0  0  0  0  0
   38.2470   31.5440   39.3250 C   0  0  0  0  0  0  0  0  0  0  0  0
   37.2240   32.4110   39.4530 C   0  0  0  0  0  0  0  0  0  0  0  0
   36.2030   32.0790   39.3080 H   0  0  0  0  0  0  0  0  0  0  0  0
   37.4600   33.7290   39.7700 C   0  0  0  0  0  3  0  0  0  0  0  0
   38.7690   34.1600   39.9580 C   0  0  0  0  0  3  0  0  0  0  0  0
   39.7220   32.5640   39.6580 S   0  0  0  0  0  0  0  0  0  0  0  0
  1  7  1  0  0  0  0
  2  1  1  0  0  0  0
  3  2  2  0  0  0  0
  4  1  1  0  0  0  0
  5  8  1  1  0  0  0
  6  5  1  0  0  0  0
  6 10  1  0  0  0  0
  7 11  1  6  0  0  0
  7  6  1  0  0  0  0
  7  5  1  0  0  0  0
  9  6  1  0  0  0  0
 12 13  1  0  0  0  0
 13 14  2  0  0  0  0
 13  5  1  0  0  0  0
 14 19  1  0  0  0  0
 15 14  1  0  0  0  0
 16 15  2  0  0  0  0
 17 16  1  0  0  0  0
 17 12  2  0  0  0  0
 18 12  1  0  0  0  0
 20 16  1  0  0  0  0
 21 24  1  1  0  0  0
 21  2  1  0  0  0  0
 22 23  1  0  0  0  0
 22 21  1  0  0  0  0
 23 21  1  0  0  0  0
 23 27  1  1  0  0  0
 23 28  1  0  0  0  0
 25 22  1  0  0  0  0
 26 22  1  0  0  0  0
 28 29  2  0  0  0  0
 28 33  1  0  0  0  0
 29 31  1  0  0  0  0
 30 29  1  0  0  0  0
 31 32  2  0  0  0  0
 33 32  1  0  0  0  0
M  END
>  <minimizedAffinity>
-4.74324036

$$$$

 OpenBabel03242510203D

 33 36  0  0  1  0  0  0  0  0999 V2000
   38.1490   26.8550   41.8840 N   0  0  0  0  0  0  0  0  0  0  0  0
   37.6030   25.7550   41.2440 C   0  0  0  0  0  0  0  0  0  0  0  0
   37.5810   24.5390   41.5820 O   0  0  0  0  0  0  0  0  0  0  0  0
   38.6960   27.5190   41.2580 H   0  0  0  0  0  0  0  0  0  0  0  0
   37.8050   28.5300   43.6800 C   0  0  1  0  0  0  0  0  0  0  0  0
   36.6440   27.7190   43.6800 C   0  0  0  0  0  0  0  0  0  0  0  0
   37.9980   27.1010   43.2840 C   0  0  1  0  0  0  0  0  0  0  0  0
   38.2950   28.8720   44.6190 H   0  0  0  0  0  0  0  0  0  0  0  0
   35.8890   27.6980   42.8730 H   0  0  0  0  0  0  0  0  0  0  0  0
   36.1840   27.4070   44.6550 H   0  0  0  0  0  0  0  0  0  0  0  0
   38.1920   26.2670   43.9670 H   0  0  0  0  0  0  0  0  0  0  0  0
   36.8720   29.9660   41.7440 C   0  0  0  0  0  0  0  0  0  0  0  0
   37.9500   29.5720   42.5700 C   0  0  0  0  0  0  0  0  0  0  0  0
   39.1770   30.1480   42.3370 C   0  0  0  0  0  0  0  0  0  0  0  0
   39.3030   31.0550   41.3410 N   0  0  0  0  0  0  0  0  0  0  0  0
   38.2630   31.4250   40.5530 C   0  0  0  0  0  0  0  0  0  0  0  0
   37.0030   30.8560   40.7680 N   0  0  0  0  0  0  0  0  0  0  0  0
   35.9120   29.5380   41.9060 H   0  0  0  0  0  0  0  0  0  0  0  0
   40.0160   29.8620   42.9570 H   0  0  0  0  0  0  0  0  0  0  0  0
   38.5500   32.1480   39.8230 H   0  0  0  0  0  0  0  0  0  0  0  0
   36.8850   25.9300   39.9140 C   0  0  2  0  0  0  0  0  0  0  0  0
   37.7800   26.0590   38.6470 C   0  0  0  0  0  0  0  0  0  0  0  0
   36.9450   27.1930   39.1760 C   0  0  1  0  0  0  0  0  0  0  0  0
   36.1020   25.1760   39.6820 H   0  0  0  0  0  0  0  0  0  0  0  0
   38.8430   25.9530   38.8210 H   0  0  0  0  0  0  0  0  0  0  0  0
   37.4330   25.6050   37.7070 H   0  0  0  0  0  0  0  0  0  0  0  0
   37.6330   28.0280   39.3750 H   0  0  0  0  0  0  0  0  0  0  0  0
   35.7250   27.6150   38.5290 C   0  0  0  0  0  0  0  0  0  0  0  0
   34.8750   28.6110   38.8470 C   0  0  0  0  0  0  0  0  0  0  0  0
   35.0660   29.2400   39.7080 H   0  0  0  0  0  0  0  0  0  0  0  0
   33.7540   28.8440   38.0840 C   0  0  0  0  0  3  0  0  0  0  0  0
   33.5040   28.0400   36.9770 C   0  0  0  0  0  3  0  0  0  0  0  0
   34.9800   26.8710   37.0400 S   0  0  0  0  0  0  0  0  0  0  0  0
  1  7  1  0  0  0  0
  2  3  2  0  0  0  0
  2  1  1  0  0  0  0
  4  1  1  0  0  0  0
  5  8  1  1  0  0  0
  6  5  1  0  0  0  0
  6 10  1  0  0  0  0
  7  6  1  0  0  0  0
  7  5  1  0  0  0  0
  7 11  1  1  0  0  0
  9  6  1  0  0  0  0
 12 18  1  0  0  0  0
 12 13  1  0  0  0  0
 13  5  1  0  0  0  0
 14 13  2  0  0  0  0
 14 19  1  0  0  0  0
 15 14  1  0  0  0  0
 16 17  1  0  0  0  0
 16 15  2  0  0  0  0
 17 12  2  0  0  0  0
 20 16  1  0  0  0  0
 21 24  1  6  0  0  0
 21  2  1  0  0  0  0
 22 25  1  0  0  0  0
 22 23  1  0  0  0  0
 22 21  1  0  0  0  0
 23 27  1  1  0  0  0
 23 21  1  0  0  0  0
 26 22  1  0  0  0  0
 28 29  2  0  0  0  0
 28 23  1  0  0  0  0
 29 30  1  0  0  0  0
 31 29  1  0  0  0  0
 32 33  1  0  0  0  0
 32 31  2  0  0  0  0
 33 28  1  0  0  0  0
M  END
>  <minimizedAffinity>
-4.72782612

$$$$

 OpenBabel03242510203D

 33 36  0  0  1  0  0  0  0  0999 V2000
   37.7350   26.9410   41.0600 N   0  0  0  0  0  0  0  0  0  0  0  0
   36.9180   26.7540   39.9570 C   0  0  0  0  0  0  0  0  0  0  0  0
   36.2820   25.7340   39.5740 O   0  0  0  0  0  0  0  0  0  0  0  0
   38.6470   27.4550   40.8680 H   0  0  0  0  0  0  0  0  0  0  0  0
   37.9870   27.2600   43.5060 C   0  0  1  0  0  0  0  0  0  0  0  0
   36.6230   27.5110   43.2220 C   0  0  0  0  0  0  0  0  0  0  0  0
   37.3960   26.4860   42.3720 C   0  0  1  0  0  0  0  0  0  0  0  0
   38.3150   26.6860   44.4020 H   0  0  0  0  0  0  0  0  0  0  0  0
   36.2460   28.3770   42.6470 H   0  0  0  0  0  0  0  0  0  0  0  0
   35.8300   27.1300   43.9190 H   0  0  0  0  0  0  0  0  0  0  0  0
   36.8720   25.5270   42.4540 H   0  0  0  0  0  0  0  0  0  0  0  0
   40.3880   28.0780   43.0120 C   0  0  0  0  0  0  0  0  0  0  0  0
   39.0050   28.3410   43.1390 C   0  0  0  0  0  0  0  0  0  0  0  0
   38.5790   29.6320   42.9380 C   0  0  0  0  0  0  0  0  0  0  0  0
   39.4880   30.5880   42.6330 N   0  0  0  0  0  0  0  0  0  0  0  0
   40.8120   30.3260   42.5150 C   0  0  0  0  0  0  0  0  0  0  0  0
   41.2740   29.0200   42.7130 N   0  0  0  0  0  0  0  0  0  0  0  0
   40.7430   27.0860   43.1600 H   0  0  0  0  0  0  0  0  0  0  0  0
   37.5240   29.8570   43.0290 H   0  0  0  0  0  0  0  0  0  0  0  0
   41.3750   31.1990   42.2710 H   0  0  0  0  0  0  0  0  0  0  0  0
   36.6760   27.9030   38.9900 C   0  0  2  0  0  0  0  0  0  0  0  0
   35.5590   28.9180   39.3730 C   0  0  0  0  0  0  0  0  0  0  0  0
   35.4480   27.9860   38.1970 C   0  0  1  0  0  0  0  0  0  0  0  0
   37.5710   28.4990   38.7090 H   0  0  0  0  0  0  0  0  0  0  0  0
   35.0900   28.7450   40.3320 H   0  0  0  0  0  0  0  0  0  0  0  0
   35.7060   29.9800   39.1310 H   0  0  0  0  0  0  0  0  0  0  0  0
   34.5360   27.3900   38.3500 H   0  0  0  0  0  0  0  0  0  0  0  0
   35.5950   28.4460   36.8360 C   0  0  0  0  0  0  0  0  0  0  0  0
   34.6800   28.9630   35.9930 C   0  0  0  0  0  0  0  0  0  0  0  0
   33.6510   29.0860   36.3100 H   0  0  0  0  0  0  0  0  0  0  0  0
   35.0380   29.3420   34.7200 C   0  0  0  0  0  3  0  0  0  0  0  0
   36.3580   29.1870   34.3090 C   0  0  0  0  0  3  0  0  0  0  0  0
   37.1330   28.4460   35.8560 S   0  0  0  0  0  0  0  0  0  0  0  0
  1  7  1  0  0  0  0
  2  1  1  0  0  0  0
  3  2  2  0  0  0  0
  4  1  1  0  0  0  0
  5  8  1  1  0  0  0
  6  5  1  0  0  0  0
  6 10  1  0  0  0  0
  7 11  1  1  0  0  0
  7  6  1  0  0  0  0
  7  5  1  0  0  0  0
  9  6  1  0  0  0  0
 12 13  1  0  0  0  0
 12 18  1  0  0  0  0
 13  5  1  0  0  0  0
 14 19  1  0  0  0  0
 14 13  2  0  0  0  0
 15 14  1  0  0  0  0
 16 15  2  0  0  0  0
 16 17  1  0  0  0  0
 17 12  2  0  0  0  0
 20 16  1  0  0  0  0
 21 24  1  6  0  0  0
 21 22  1  0  0  0  0
 21  2  1  0  0  0  0
 22 25  1  0  0  0  0
 23 27  1  1  0  0  0
 23 21  1  0  0  0  0
 23 22  1  0  0  0  0
 26 22  1  0  0  0  0
 28 23  1  0  0  0  0
 29 30  1  0  0  0  0
 29 28  2  0  0  0  0
 31 29  1  0  0  0  0
 32 31  2  0  0  0  0
 32 33  1  0  0  0  0
 33 28  1  0  0  0  0
M  END
>  <minimizedAffinity>
-4.65649319

$$$$

 OpenBabel03242510203D

 33 36  0  0  1  0  0  0  0  0999 V2000
   38.0620   30.1800   39.7020 N   0  0  0  0  0  0  0  0  0  0  0  0
   38.8550   31.0120   38.9290 C   0  0  0  0  0  0  0  0  0  0  0  0
   38.7490   31.3510   37.7180 O   0  0  0  0  0  0  0  0  0  0  0  0
   38.5910   29.4870   40.3120 H   0  0  0  0  0  0  0  0  0  0  0  0
   35.9450   29.4120   40.7380 C   0  0  1  0  0  0  0  0  0  0  0  0
   36.0110   30.8050   40.9810 C   0  0  0  0  0  0  0  0  0  0  0  0
   36.6340   30.2320   39.6950 C   0  0  1  0  0  0  0  0  0  0  0  0
   34.9990   28.9010   40.4460 H   0  0  0  0  0  0  0  0  0  0  0  0
   36.7400   31.2960   41.6520 H   0  0  0  0  0  0  0  0  0  0  0  0
   35.0840   31.4310   40.8870 H   0  0  0  0  0  0  0  0  0  0  0  0
   36.1500   30.7270   38.8450 H   0  0  0  0  0  0  0  0  0  0  0  0
   37.4670   28.9260   42.7690 C   0  0  0  0  0  0  0  0  0  0  0  0
   36.8310   28.4950   41.5820 C   0  0  0  0  0  0  0  0  0  0  0  0
   37.0450   27.1990   41.1760 C   0  0  0  0  0  0  0  0  0  0  0  0
   37.8460   26.3990   41.9170 N   0  0  0  0  0  0  0  0  0  0  0  0
   38.4530   26.8220   43.0530 C   0  0  0  0  0  0  0  0  0  0  0  0
   38.2520   28.1350   43.4900 N   0  0  0  0  0  0  0  0  0  0  0  0
   37.3150   29.9230   43.1060 H   0  0  0  0  0  0  0  0  0  0  0  0
   36.5680   26.8470   40.2710 H   0  0  0  0  0  0  0  0  0  0  0  0
   39.0450   26.0550   43.5020 H   0  0  0  0  0  0  0  0  0  0  0  0
   40.0740   31.6830   39.5440 C   0  0  2  0  0  0  0  0  0  0  0  0
   39.8030   32.8140   40.5800 C   0  0  0  0  0  0  0  0  0  0  0  0
   40.4190   33.0720   39.2320 C   0  0  1  0  0  0  0  0  0  0  0  0
   40.8260   31.0030   39.9980 H   0  0  0  0  0  0  0  0  0  0  0  0
   38.7600   32.9830   40.8150 H   0  0  0  0  0  0  0  0  0  0  0  0
   40.4780   32.9120   41.4430 H   0  0  0  0  0  0  0  0  0  0  0  0
   39.7720   33.8010   38.7220 H   0  0  0  0  0  0  0  0  0  0  0  0
   41.8250   33.3620   39.0730 C   0  0  0  0  0  0  0  0  0  0  0  0
   42.8450   33.2050   39.9380 C   0  0  0  0  0  0  0  0  0  0  0  0
   42.6660   32.8030   40.9280 H   0  0  0  0  0  0  0  0  0  0  0  0
   44.1270   33.5500   39.5780 C   0  0  0  0  0  3  0  0  0  0  0  0
   44.3620   34.0660   38.3070 C   0  0  0  0  0  3  0  0  0  0  0  0
   42.6220   34.0520   37.5850 S   0  0  0  0  0  0  0  0  0  0  0  0
  1  4  1  0  0  0  0
  2 21  1  0  0  0  0
  2  1  1  0  0  0  0
  3  2  2  0  0  0  0
  5  8  1  6  0  0  0
  5  6  1  0  0  0  0
  5 13  1  0  0  0  0
  6  9  1  0  0  0  0
  7 11  1  6  0  0  0
  7  1  1  0  0  0  0
  7  5  1  0  0  0  0
  7  6  1  0  0  0  0
 10  6  1  0  0  0  0
 12 18  1  0  0  0  0
 12 17  1  0  0  0  0
 13 12  2  0  0  0  0
 14 13  1  0  0  0  0
 14 15  2  0  0  0  0
 15 16  1  0  0  0  0
 16 17  2  0  0  0  0
 16 20  1  0  0  0  0
 19 14  1  0  0  0  0
 21 24  1  1  0  0  0
 21 22  1  0  0  0  0
 22 25  1  0  0  0  0
 22 26  1  0  0  0  0
 23 27  1  6  0  0  0
 23 21  1  0  0  0  0
 23 22  1  0  0  0  0
 28 23  1  0  0  0  0
 28 29  2  0  0  0  0
 29 30  1  0  0  0  0
 31 29  1  0  0  0  0
 32 31  2  0  0  0  0
 33 32  1  0  0  0  0
 33 28  1  0  0  0  0
M  END
>  <minimizedAffinity>
-4.52310514

$$$$
