
 OpenBabel03242523543D

 42 45  0  0  1  0  0  0  0  0999 V2000
   42.8060   34.3840   38.8880 C   0  0  1  0  0  0  0  0  0  0  0  0
   43.0430   35.1840   40.1590 C   0  0  1  0  0  0  0  0  0  0  0  0
   41.7970   35.6140   40.6510 O   0  0  0  0  0  0  0  0  0  0  0  0
   40.8970   35.9340   39.6320 C   0  0  0  0  0  0  0  0  0  0  0  0
   40.4450   34.7000   38.8710 C   0  0  2  0  0  0  0  0  0  0  0  0
   41.5480   33.6110   39.1120 C   0  0  1  0  0  0  0  0  0  0  0  0
   43.6830   33.7230   38.6710 H   0  0  0  0  0  0  0  0  0  0  0  0
   43.7350   36.0280   40.0170 H   0  0  0  0  0  0  0  0  0  0  0  0
   40.0150   36.3570   40.1250 H   0  0  0  0  0  0  0  0  0  0  0  0
   41.2950   36.7160   38.9560 H   0  0  0  0  0  0  0  0  0  0  0  0
   39.4700   34.3300   39.2220 H   0  0  0  0  0  0  0  0  0  0  0  0
   41.3250   33.4860   40.2240 H   0  0  0  0  0  0  0  0  0  0  0  0
   42.6770   35.2300   37.7770 O   0  0  0  0  0  0  0  0  0  0  0  0
   43.5340   35.5960   37.5050 H   0  0  0  0  0  0  0  0  0  0  0  0
   40.4820   34.9560   37.5080 O   0  0  0  0  0  0  0  0  0  0  0  0
   39.5840   35.2260   37.1590 H   0  0  0  0  0  0  0  0  0  0  0  0
   43.4820   34.2510   41.1100 O   0  0  0  0  0  0  0  0  0  0  0  0
   44.6140   34.3480   41.8180 C   0  0  0  0  0  0  0  0  0  0  0  0
   45.8570   34.4740   41.1780 C   0  0  0  0  0  0  0  0  0  0  0  0
   46.9970   34.5730   41.9600 C   0  0  0  0  0  0  0  0  0  0  0  0
   46.8760   34.5460   43.3380 N   0  0  0  0  0  0  0  0  0  0  0  0
   45.6600   34.4240   43.9180 C   0  0  0  0  0  0  0  0  0  0  0  0
   44.5360   34.3260   43.1610 N   0  0  0  0  0  0  0  0  0  0  0  0
   45.9580   34.4950   40.1070 H   0  0  0  0  0  0  0  0  0  0  0  0
   45.6420   34.4100   45.0010 H   0  0  0  0  0  0  0  0  0  0  0  0
   48.3570   34.6930   41.3530 C   0  0  0  0  0  0  0  0  0  0  0  0
   49.0680   36.0350   41.5280 C   0  0  0  0  0  0  0  0  0  0  0  0
   49.5310   34.7120   42.1660 C   0  0  0  0  0  0  0  0  0  0  0  0
   48.3960   34.3150   40.2930 H   0  0  0  0  0  0  0  0  0  0  0  0
   48.6330   36.7540   42.2220 H   0  0  0  0  0  0  0  0  0  0  0  0
   49.7260   36.3760   40.7060 H   0  0  0  0  0  0  0  0  0  0  0  0
   50.4820   34.2650   41.8100 H   0  0  0  0  0  0  0  0  0  0  0  0
   49.4160   34.6340   43.2750 H   0  0  0  0  0  0  0  0  0  0  0  0
   41.2920   32.5850   38.2780 O   0  0  0  0  0  0  0  0  0  0  0  0
   40.3650   31.6310   38.3350 C   0  0  0  0  0  0  0  0  0  0  0  0
   40.0340   30.8820   37.2970 O   0  0  0  0  0  0  0  0  0  0  0  0
   39.4350   31.0870   39.5000 C   0  0  0  0  0  0  0  0  0  0  0  0
   38.3710   31.5450   40.0580 C   0  0  0  0  0  0  0  0  0  0  0  0
   38.0210   32.4910   39.6580 H   0  0  0  0  0  0  0  0  0  0  0  0
   37.7780   30.8520   41.0650 C   0  0  0  0  0  3  0  0  0  0  0  0
   38.3920   29.6500   41.4310 C   0  0  0  0  0  3  0  0  0  0  0  0
   39.8830   29.6000   40.2160 S   0  0  0  0  0  0  0  0  0  0  0  0
  1  7  1  6  0  0  0
  1  6  1  0  0  0  0
  1  2  1  0  0  0  0
  2  8  1  6  0  0  0
  2  3  1  0  0  0  0
  2 17  1  0  0  0  0
  4  9  1  0  0  0  0
  4  3  1  0  0  0  0
  5  6  1  0  0  0  0
  5 11  1  1  0  0  0
  5  4  1  0  0  0  0
  6 12  1  1  0  0  0
 10  4  1  0  0  0  0
 13  1  1  0  0  0  0
 14 13  1  0  0  0  0
 15  5  1  0  0  0  0
 16 15  1  0  0  0  0
 17 18  1  0  0  0  0
 18 23  1  0  0  0  0
 19 18  2  0  0  0  0
 19 20  1  0  0  0  0
 20 21  2  0  0  0  0
 21 22  1  0  0  0  0
 22 25  1  0  0  0  0
 23 22  2  0  0  0  0
 24 19  1  0  0  0  0
 26 27  1  0  0  0  0
 26 20  1  0  0  0  0
 26 28  1  0  0  0  0
 27 28  1  0  0  0  0
 27 30  1  0  0  0  0
 28 33  1  0  0  0  0
 29 26  1  0  0  0  0
 31 27  1  0  0  0  0
 32 28  1  0  0  0  0
 34 35  1  0  0  0  0
 34  6  1  0  0  0  0
 35 37  1  0  0  0  0
 36 35  2  0  0  0  0
 37 38  2  0  0  0  0
 37 42  1  0  0  0  0
 38 40  1  0  0  0  0
 39 38  1  0  0  0  0
 40 41  2  0  0  0  0
 42 41  1  0  0  0  0
M  END
>  <minimizedAffinity>
-6.23260641

>  <minimizedRMSD>
1.8744539

$$$$
