REMARK  Name = 
REMARK  4 active torsions:
REMARK  status: ('A' for Active; 'I' for Inactive)
REMARK    1  A    between atoms: C_1  and  C_6
REMARK    2  A    between atoms: C_3  and  C_14
REMARK    3  A    between atoms: C_4  and  C_10
REMARK    4  A    between atoms: C_17  and  C_27
REMARK                            x       y       z     vdW  Elec       q    Type
REMARK                         _______ _______ _______ _____ _____    ______ ____
ROOT
ATOM      1  C   UNL     1      46.635  32.523  44.071  0.00  0.00    +0.000 C 
ATOM      2  C   UNL     1      46.050  33.843  44.387  0.00  0.00    +0.000 C 
ATOM      3  C   UNL     1      47.552  33.653  43.941  0.00  0.00    +0.000 C 
ATOM      4  H   UNL     1      46.345  32.016  43.125  0.00  0.00    +0.000 HD
ATOM      5  H   UNL     1      45.950  34.201  45.429  0.00  0.00    +0.000 HD
ATOM      6  H   UNL     1      45.398  34.372  43.660  0.00  0.00    +0.000 HD
ATOM      7  H   UNL     1      48.280  33.886  44.717  0.00  0.00    +0.000 HD
ENDROOT
BRANCH   1  10
ATOM      8  C   UNL     1      46.151  30.799  47.374  0.00  0.00    +0.000 A 
ATOM      9  C   UNL     1      45.942  31.707  46.351  0.00  0.00    +0.000 A 
ATOM     10  C   UNL     1      46.761  31.590  45.235  0.00  0.00    +0.000 A 
ATOM     11  N   UNL     1      47.705  30.623  45.189  0.00  0.00    +0.000 NA
ATOM     12  C   UNL     1      47.876  29.752  46.219  0.00  0.00    +0.000 A 
ATOM     13  N   UNL     1      47.085  29.852  47.315  0.00  0.00    +0.000 NA
ATOM     14  H   UNL     1      45.206  32.483  46.355  0.00  0.00    +0.000 HD
ATOM     15  H   UNL     1      48.654  28.981  46.143  0.00  0.00    +0.000 HD
BRANCH   8  16
ATOM     16  C   UNL     1      45.276  30.893  48.587  0.00  0.00    +0.000 C 
ATOM     17  F   UNL     1      46.058  31.321  49.634  0.00  0.00    +0.000 F 
ATOM     18  F   UNL     1      44.824  29.622  48.872  0.00  0.00    +0.000 F 
ATOM     19  F   UNL     1      44.247  31.779  48.391  0.00  0.00    +0.000 F 
ENDBRANCH   8  16
ENDBRANCH   1  10
BRANCH   3  20
ATOM     20  C   UNL     1      47.808  34.146  42.557  0.00  0.00    +0.000 A 
ATOM     21  C   UNL     1      47.295  33.619  41.376  0.00  0.00    +0.000 A 
ATOM     22  C   UNL     1      47.836  34.435  40.413  0.00  0.00    +0.000 A 
ATOM     23  C   UNL     1      48.635  35.403  41.006  0.00  0.00    +0.000 A 
ATOM     24  O   UNL     1      48.565  35.160  42.296  0.00  0.00    +0.000 OA
ATOM     25  H   UNL     1      46.639  32.782  41.254  0.00  0.00    +0.000 HD
ATOM     26  H   UNL     1      47.606  34.261  39.350  0.00  0.00    +0.000 HD
BRANCH  23  27
ATOM     27  C   UNL     1      49.361  36.431  40.282  0.00  0.00    +0.000 A 
ATOM     28  C   UNL     1      50.116  36.396  39.181  0.00  0.00    +0.000 A 
ATOM     29  H   UNL     1      50.232  35.426  38.707  0.00  0.00    +0.000 HD
ATOM     30  C   UNL     1      50.706  37.499  38.678  0.00  0.00    +0.000 A 
ATOM     31  C   UNL     1      50.432  38.709  39.456  0.00  0.00    +0.000 A 
ATOM     32  S   UNL     1      49.361  38.087  40.806  0.00  0.00    +0.000 S 
ENDBRANCH  23  27
ENDBRANCH   3  20
TORSDOF 4
