REMARK  Name = 
REMARK  3 active torsions:
REMARK  status: ('A' for Active; 'I' for Inactive)
REMARK    1  A    between atoms: C_1  and  C_5
REMARK    2  A    between atoms: C_3  and  N_10
REMARK    3  A    between atoms: C_15  and  C_32
REMARK                            x       y       z     vdW  Elec       q    Type
REMARK                         _______ _______ _______ _____ _____    ______ ____
ROOT
ATOM      1  N   UNL     1      49.305  33.195  41.474  0.00  0.00    +0.000 NA
ATOM      2  C   UNL     1      50.655  33.114  42.042  0.00  0.00    +0.000 C 
ATOM      3  C   UNL     1      51.320  31.809  41.731  0.00  0.00    +0.000 C 
ATOM      4  C   UNL     1      50.619  30.742  42.549  0.00  0.00    +0.000 C 
ATOM      5  C   UNL     1      49.148  30.986  42.585  0.00  0.00    +0.000 C 
ATOM      6  C   UNL     1      48.728  31.876  41.422  0.00  0.00    +0.000 C 
ATOM      7  H   UNL     1      50.580  33.178  43.163  0.00  0.00    +0.000 HD
ATOM      8  H   UNL     1      51.248  34.001  41.733  0.00  0.00    +0.000 HD
ATOM      9  H   UNL     1      51.394  31.593  40.666  0.00  0.00    +0.000 HD
ATOM     10  H   UNL     1      52.361  31.892  42.107  0.00  0.00    +0.000 HD
ATOM     11  H   UNL     1      50.988  30.826  43.609  0.00  0.00    +0.000 HD
ATOM     12  H   UNL     1      50.923  29.751  42.199  0.00  0.00    +0.000 HD
ATOM     13  H   UNL     1      48.843  31.541  43.494  0.00  0.00    +0.000 HD
ATOM     14  H   UNL     1      48.557  30.047  42.456  0.00  0.00    +0.000 HD
ATOM     15  H   UNL     1      47.637  32.026  41.585  0.00  0.00    +0.000 HD
ENDROOT
BRANCH   1  18
ATOM     16  C   UNL     1      47.193  34.569  42.014  0.00  0.00    +0.000 C 
ATOM     17  C   UNL     1      48.337  35.457  41.755  0.00  0.00    +0.000 C 
ATOM     18  C   UNL     1      48.584  34.102  42.304  0.00  0.00    +0.000 C 
ATOM     19  H   UNL     1      46.719  34.122  41.118  0.00  0.00    +0.000 HD
ATOM     20  H   UNL     1      48.460  36.342  42.425  0.00  0.00    +0.000 HD
ATOM     21  H   UNL     1      48.627  35.701  40.696  0.00  0.00    +0.000 HD
ATOM     22  H   UNL     1      48.855  34.089  43.400  0.00  0.00    +0.000 HD
BRANCH  16  24
ATOM     23  C   UNL     1      45.488  36.024  43.155  0.00  0.00    +0.000 A 
ATOM     24  C   UNL     1      46.280  34.859  43.152  0.00  0.00    +0.000 A 
ATOM     25  C   UNL     1      46.171  33.984  44.245  0.00  0.00    +0.000 A 
ATOM     26  N   UNL     1      45.311  34.308  45.246  0.00  0.00    +0.000 NA
ATOM     27  C   UNL     1      44.562  35.441  45.215  0.00  0.00    +0.000 A 
ATOM     28  N   UNL     1      44.646  36.311  44.166  0.00  0.00    +0.000 NA
ATOM     29  H   UNL     1      45.618  36.654  42.287  0.00  0.00    +0.000 HD
ATOM     30  H   UNL     1      46.768  33.077  44.273  0.00  0.00    +0.000 HD
ATOM     31  H   UNL     1      43.878  35.700  46.009  0.00  0.00    +0.000 HD
ENDBRANCH  16  24
ENDBRANCH   1  18
BRANCH   6  32
ATOM     32  C   UNL     1      48.899  31.195  40.133  0.00  0.00    +0.000 A 
ATOM     33  C   UNL     1      49.837  31.259  39.205  0.00  0.00    +0.000 A 
ATOM     34  H   UNL     1      50.675  31.924  39.358  0.00  0.00    +0.000 HD
ATOM     35  C   UNL     1      49.732  30.492  38.079  0.00  0.00    +0.000 A 
ATOM     36  C   UNL     1      48.632  29.667  37.956  0.00  0.00    +0.000 A 
ATOM     37  S   UNL     1      47.625  29.961  39.538  0.00  0.00    +0.000 S 
ENDBRANCH   6  32
TORSDOF 3
