
 OpenBabel03252509263D

 27 29  0  0  1  0  0  0  0  0999 V2000
   46.5830   35.0750   41.9140 C   0  0  1  0  0  0  0  0  0  0  0  0
   48.1160   35.3490   41.9180 C   0  0  0  0  0  0  0  0  0  0  0  0
   47.3950   34.1090   41.2960 C   0  0  2  0  0  0  0  0  0  0  0  0
   46.0150   35.8440   41.3520 H   0  0  0  0  0  0  0  0  0  0  0  0
   48.6800   35.2120   42.8330 H   0  0  0  0  0  0  0  0  0  0  0  0
   48.4750   36.0700   41.1670 H   0  0  0  0  0  0  0  0  0  0  0  0
   47.6120   33.1720   41.8990 H   0  0  0  0  0  0  0  0  0  0  0  0
   44.6900   35.3330   45.1450 C   0  0  0  0  0  0  0  0  0  0  0  0
   45.1380   35.6660   43.8290 C   0  0  0  0  0  0  0  0  0  0  0  0
   46.0850   34.8470   43.3130 C   0  0  0  0  0  0  0  0  0  0  0  0
   46.5790   33.7670   44.0210 N   0  0  0  0  0  0  0  0  0  0  0  0
   46.1250   33.4880   45.2680 C   0  0  0  0  0  0  0  0  0  0  0  0
   45.1790   34.2750   45.8290 N   0  0  0  0  0  0  0  0  0  0  0  0
   43.9290   35.9970   45.5520 H   0  0  0  0  0  0  0  0  0  0  0  0
   46.5040   32.6470   45.8310 H   0  0  0  0  0  0  0  0  0  0  0  0
   44.6410   36.7850   43.1190 N   0  0  0  0  0  0  0  0  0  0  0  0
   44.7520   37.8190   43.2910 H   0  0  0  0  0  0  0  0  0  0  0  0
   44.1130   36.3340   42.3470 H   0  0  0  0  0  0  0  0  0  0  0  0
   47.4310   33.9470   39.7940 C   0  0  0  0  0  0  0  0  0  0  0  0
   46.4690   33.4280   39.5260 H   0  0  0  0  0  0  0  0  0  0  0  0
   47.5310   34.9270   39.2820 H   0  0  0  0  0  0  0  0  0  0  0  0
   48.5150   33.0150   39.4340 C   0  0  0  0  0  0  0  0  0  0  0  0
   49.3770   32.2060   40.1170 C   0  0  0  0  0  0  0  0  0  0  0  0
   49.3050   32.1930   41.1950 H   0  0  0  0  0  0  0  0  0  0  0  0
   50.2760   31.4650   39.3910 C   0  0  0  0  0  3  0  0  0  0  0  0
   50.2630   31.5730   38.0260 C   0  0  0  0  0  3  0  0  0  0  0  0
   48.8810   32.8110   37.7480 S   0  0  0  0  0  0  0  0  0  0  0  0
  1  4  1  6  0  0  0
  1  2  1  0  0  0  0
  1 10  1  0  0  0  0
  2  5  1  0  0  0  0
  3  7  1  1  0  0  0
  3  1  1  0  0  0  0
  3  2  1  0  0  0  0
  6  2  1  0  0  0  0
  8 14  1  0  0  0  0
  8 13  1  0  0  0  0
  9  8  2  0  0  0  0
 10  9  1  0  0  0  0
 10 11  2  0  0  0  0
 11 12  1  0  0  0  0
 12 13  2  0  0  0  0
 12 15  1  0  0  0  0
 16 17  1  0  0  0  0
 16  9  1  0  0  0  0
 18 16  1  0  0  0  0
 19  3  1  0  0  0  0
 20 19  1  0  0  0  0
 21 19  1  0  0  0  0
 22 19  1  0  0  0  0
 22 23  2  0  0  0  0
 23 24  1  0  0  0  0
 25 23  1  0  0  0  0
 26 25  2  0  0  0  0
 27 26  1  0  0  0  0
 27 22  1  0  0  0  0
M  END
>  <minimizedAffinity>
-4.7208147

>  <minimizedRMSD>
0.328057796

$$$$
