
 OpenBabel03252500203D

 17 18  0  0  0  0  0  0  0  0999 V2000
   40.0200   32.3330   40.9350 C   0  0  0  0  0  0  0  0  0  0  0  0
   39.6740   31.1160   41.5300 C   0  0  0  0  0  0  0  0  0  0  0  0
   38.3270   30.7650   41.4920 C   0  0  0  0  0  0  0  0  0  0  0  0
   37.4250   31.5840   40.9000 N   0  0  0  0  0  0  0  0  0  0  0  0
   37.8120   32.7530   40.3380 C   0  0  0  0  0  0  0  0  0  0  0  0
   39.1180   33.1180   40.3620 N   0  0  0  0  0  0  0  0  0  0  0  0
   36.8960   33.6350   39.7100 N   0  0  0  0  0  0  0  0  0  0  0  0
   41.0760   32.5570   40.9920 H   0  0  0  0  0  0  0  0  0  0  0  0
   40.3380   30.4150   42.0180 H   0  0  0  0  0  0  0  0  0  0  0  0
   36.5110   34.1650   40.5270 H   0  0  0  0  0  0  0  0  0  0  0  0
   36.6590   33.7420   38.6990 H   0  0  0  0  0  0  0  0  0  0  0  0
   37.7820   29.5820   42.0360 C   0  0  0  0  0  0  0  0  0  0  0  0
   38.2040   28.9830   43.3150 C   0  0  0  0  0  0  0  0  0  0  0  0
   38.9800   29.4640   43.8890 H   0  0  0  0  0  0  0  0  0  0  0  0
   37.5560   27.8310   43.6780 C   0  0  0  0  0  3  0  0  0  0  0  0
   36.5580   27.3180   42.8220 C   0  0  0  0  0  3  0  0  0  0  0  0
   36.5260   28.5130   41.4340 S   0  0  0  0  0  0  0  0  0  0  0  0
  1  8  1  0  0  0  0
  1  2  1  0  0  0  0
  2  9  1  0  0  0  0
  3  2  2  0  0  0  0
  3 12  1  0  0  0  0
  4  3  1  0  0  0  0
  5  6  1  0  0  0  0
  5  4  2  0  0  0  0
  6  1  2  0  0  0  0
  7  5  1  0  0  0  0
  7 10  1  0  0  0  0
 11  7  1  0  0  0  0
 12 13  2  0  0  0  0
 13 15  1  0  0  0  0
 13 14  1  0  0  0  0
 16 15  2  0  0  0  0
 17 12  1  0  0  0  0
 17 16  1  0  0  0  0
M  END
>  <minimizedAffinity>
-4.31615829

$$$$

 OpenBabel03252500203D

 17 18  0  0  0  0  0  0  0  0999 V2000
   39.2640   30.4380   41.3780 C   0  0  0  0  0  0  0  0  0  0  0  0
   39.4250   29.0590   41.5440 C   0  0  0  0  0  0  0  0  0  0  0  0
   38.2600   28.3010   41.6250 C   0  0  0  0  0  0  0  0  0  0  0  0
   37.0480   28.9010   41.5430 N   0  0  0  0  0  0  0  0  0  0  0  0
   36.9460   30.2400   41.3820 C   0  0  0  0  0  0  0  0  0  0  0  0
   38.0660   31.0020   41.3000 N   0  0  0  0  0  0  0  0  0  0  0  0
   35.6950   30.9030   41.2920 N   0  0  0  0  0  0  0  0  0  0  0  0
   40.1980   30.9790   41.3210 H   0  0  0  0  0  0  0  0  0  0  0  0
   40.3570   28.5140   41.6170 H   0  0  0  0  0  0  0  0  0  0  0  0
   35.4360   31.0120   42.3010 H   0  0  0  0  0  0  0  0  0  0  0  0
   35.1620   31.2100   40.4490 H   0  0  0  0  0  0  0  0  0  0  0  0
   38.2140   26.9000   41.7920 C   0  0  0  0  0  0  0  0  0  0  0  0
   36.9810   26.1310   42.0340 C   0  0  0  0  0  0  0  0  0  0  0  0
   36.0390   26.6540   42.0910 H   0  0  0  0  0  0  0  0  0  0  0  0
   37.1370   24.7760   42.1710 C   0  0  0  0  0  3  0  0  0  0  0  0
   38.4370   24.2330   42.0720 C   0  0  0  0  0  3  0  0  0  0  0  0
   39.4940   25.6980   41.7720 S   0  0  0  0  0  0  0  0  0  0  0  0
  1  2  1  0  0  0  0
  2  9  1  0  0  0  0
  2  3  2  0  0  0  0
  3 12  1  0  0  0  0
  4  3  1  0  0  0  0
  5  4  2  0  0  0  0
  6  1  2  0  0  0  0
  6  5  1  0  0  0  0
  7  5  1  0  0  0  0
  7 10  1  0  0  0  0
  8  1  1  0  0  0  0
 11  7  1  0  0  0  0
 12 13  2  0  0  0  0
 13 14  1  0  0  0  0
 13 15  1  0  0  0  0
 16 15  2  0  0  0  0
 17 12  1  0  0  0  0
 17 16  1  0  0  0  0
M  END
>  <minimizedAffinity>
-4.06808758

$$$$

 OpenBabel03252500203D

 17 18  0  0  0  0  0  0  0  0999 V2000
   35.5150   28.3500   38.7480 C   0  0  0  0  0  0  0  0  0  0  0  0
   36.2220   27.2650   39.2750 C   0  0  0  0  0  0  0  0  0  0  0  0
   36.7400   27.4220   40.5570 C   0  0  0  0  0  0  0  0  0  0  0  0
   36.5490   28.5810   41.2320 N   0  0  0  0  0  0  0  0  0  0  0  0
   35.8580   29.6030   40.6770 C   0  0  0  0  0  0  0  0  0  0  0  0
   35.3420   29.4750   39.4290 N   0  0  0  0  0  0  0  0  0  0  0  0
   35.6380   30.8300   41.3530 N   0  0  0  0  0  0  0  0  0  0  0  0
   35.1350   28.1760   37.7510 H   0  0  0  0  0  0  0  0  0  0  0  0
   36.4110   26.3140   38.7950 H   0  0  0  0  0  0  0  0  0  0  0  0
   36.5320   31.3430   41.1650 H   0  0  0  0  0  0  0  0  0  0  0  0
   34.8090   31.1530   41.8980 H   0  0  0  0  0  0  0  0  0  0  0  0
   37.4800   26.4460   41.2590 C   0  0  0  0  0  0  0  0  0  0  0  0
   37.0020   25.0790   41.5350 C   0  0  0  0  0  0  0  0  0  0  0  0
   36.0240   24.7850   41.1870 H   0  0  0  0  0  0  0  0  0  0  0  0
   37.8650   24.2730   42.2300 C   0  0  0  0  0  3  0  0  0  0  0  0
   39.1160   24.8000   42.6200 C   0  0  0  0  0  3  0  0  0  0  0  0
   39.0800   26.5140   41.9780 S   0  0  0  0  0  0  0  0  0  0  0  0
  1  2  2  0  0  0  0
  1  6  1  0  0  0  0
  2  3  1  0  0  0  0
  3  4  2  0  0  0  0
  3 12  1  0  0  0  0
  5  4  1  0  0  0  0
  5  7  1  0  0  0  0
  6  5  2  0  0  0  0
  7 11  1  0  0  0  0
  8  1  1  0  0  0  0
  9  2  1  0  0  0  0
 10  7  1  0  0  0  0
 12 13  2  0  0  0  0
 12 17  1  0  0  0  0
 13 15  1  0  0  0  0
 14 13  1  0  0  0  0
 15 16  2  0  0  0  0
 17 16  1  0  0  0  0
M  END
>  <minimizedAffinity>
-4.0270052

$$$$

 OpenBabel03252500203D

 17 18  0  0  0  0  0  0  0  0999 V2000
   37.1520   28.5830   42.0450 C   0  0  0  0  0  0  0  0  0  0  0  0
   37.9690   29.7020   41.8660 C   0  0  0  0  0  0  0  0  0  0  0  0
   37.4810   30.7030   41.0310 C   0  0  0  0  0  0  0  0  0  0  0  0
   36.2710   30.5670   40.4380 N   0  0  0  0  0  0  0  0  0  0  0  0
   35.5170   29.4620   40.6430 C   0  0  0  0  0  0  0  0  0  0  0  0
   35.9700   28.4720   41.4530 N   0  0  0  0  0  0  0  0  0  0  0  0
   34.2460   29.2840   40.0390 N   0  0  0  0  0  0  0  0  0  0  0  0
   37.5760   27.8370   42.7020 H   0  0  0  0  0  0  0  0  0  0  0  0
   38.9420   29.8780   42.3070 H   0  0  0  0  0  0  0  0  0  0  0  0
   34.5060   28.9220   39.0920 H   0  0  0  0  0  0  0  0  0  0  0  0
   33.2940   29.4630   40.4250 H   0  0  0  0  0  0  0  0  0  0  0  0
   38.1560   31.9050   40.7260 C   0  0  0  0  0  0  0  0  0  0  0  0
   37.5180   33.0840   40.1140 C   0  0  0  0  0  0  0  0  0  0  0  0
   36.4670   33.0480   39.8740 H   0  0  0  0  0  0  0  0  0  0  0  0
   38.3380   34.1610   39.8930 C   0  0  0  0  0  3  0  0  0  0  0  0
   39.6970   34.0610   40.2600 C   0  0  0  0  0  3  0  0  0  0  0  0
   39.8340   32.3700   40.9500 S   0  0  0  0  0  0  0  0  0  0  0  0
  1  8  1  0  0  0  0
  2  1  1  0  0  0  0
  2  9  1  0  0  0  0
  3  2  2  0  0  0  0
  4  5  2  0  0  0  0
  4  3  1  0  0  0  0
  5  6  1  0  0  0  0
  6  1  2  0  0  0  0
  7 11  1  0  0  0  0
  7  5  1  0  0  0  0
 10  7  1  0  0  0  0
 12 17  1  0  0  0  0
 12  3  1  0  0  0  0
 13 12  2  0  0  0  0
 14 13  1  0  0  0  0
 15 13  1  0  0  0  0
 15 16  2  0  0  0  0
 16 17  1  0  0  0  0
M  END
>  <minimizedAffinity>
-3.99234724

$$$$

 OpenBabel03252500203D

 17 18  0  0  0  0  0  0  0  0999 V2000
   40.1810   33.2130   40.3810 C   0  0  0  0  0  0  0  0  0  0  0  0
   39.2660   32.3270   40.9570 C   0  0  0  0  0  0  0  0  0  0  0  0
   38.6370   31.4330   40.0940 C   0  0  0  0  0  0  0  0  0  0  0  0
   38.9210   31.4480   38.7700 N   0  0  0  0  0  0  0  0  0  0  0  0
   39.8160   32.3260   38.2620 C   0  0  0  0  0  0  0  0  0  0  0  0
   40.4430   33.2080   39.0810 N   0  0  0  0  0  0  0  0  0  0  0  0
   40.1390   32.3710   36.8810 N   0  0  0  0  0  0  0  0  0  0  0  0
   40.6400   33.8840   41.0930 H   0  0  0  0  0  0  0  0  0  0  0  0
   38.9910   32.2590   42.0010 H   0  0  0  0  0  0  0  0  0  0  0  0
   39.3590   32.9540   36.4960 H   0  0  0  0  0  0  0  0  0  0  0  0
   40.9410   31.9420   36.3700 H   0  0  0  0  0  0  0  0  0  0  0  0
   37.6850   30.4650   40.4830 C   0  0  0  0  0  0  0  0  0  0  0  0
   36.2840   30.4470   40.0270 C   0  0  0  0  0  0  0  0  0  0  0  0
   35.9410   31.2160   39.3520 H   0  0  0  0  0  0  0  0  0  0  0  0
   35.5100   29.4260   40.5130 C   0  0  0  0  0  3  0  0  0  0  0  0
   36.0990   28.4910   41.3920 C   0  0  0  0  0  3  0  0  0  0  0  0
   37.8280   29.0750   41.5450 S   0  0  0  0  0  0  0  0  0  0  0  0
  1  2  1  0  0  0  0
  1  8  1  0  0  0  0
  2  9  1  0  0  0  0
  3 12  1  0  0  0  0
  3  2  2  0  0  0  0
  4  3  1  0  0  0  0
  5  4  2  0  0  0  0
  5  6  1  0  0  0  0
  6  1  2  0  0  0  0
  7  5  1  0  0  0  0
 10  7  1  0  0  0  0
 11  7  1  0  0  0  0
 12 17  1  0  0  0  0
 13 12  2  0  0  0  0
 13 15  1  0  0  0  0
 14 13  1  0  0  0  0
 15 16  2  0  0  0  0
 16 17  1  0  0  0  0
M  END
>  <minimizedAffinity>
-3.86857581

$$$$

 OpenBabel03252500203D

 17 18  0  0  0  0  0  0  0  0999 V2000
   41.2070   27.1230   43.6320 C   0  0  0  0  0  0  0  0  0  0  0  0
   40.2810   28.0260   43.1020 C   0  0  0  0  0  0  0  0  0  0  0  0
   39.0940   27.4870   42.6140 C   0  0  0  0  0  0  0  0  0  0  0  0
   38.8800   26.1500   42.6650 N   0  0  0  0  0  0  0  0  0  0  0  0
   39.8090   25.3170   43.1880 C   0  0  0  0  0  0  0  0  0  0  0  0
   40.9740   25.8170   43.6710 N   0  0  0  0  0  0  0  0  0  0  0  0
   39.6190   23.9140   43.2590 N   0  0  0  0  0  0  0  0  0  0  0  0
   42.1100   27.5920   43.9970 H   0  0  0  0  0  0  0  0  0  0  0  0
   40.3850   29.1000   43.0290 H   0  0  0  0  0  0  0  0  0  0  0  0
   39.8990   23.6090   42.2970 H   0  0  0  0  0  0  0  0  0  0  0  0
   39.2900   23.3240   44.0540 H   0  0  0  0  0  0  0  0  0  0  0  0
   38.0400   28.2320   42.0420 C   0  0  0  0  0  0  0  0  0  0  0  0
   36.7740   27.6490   41.5620 C   0  0  0  0  0  0  0  0  0  0  0  0
   36.6230   26.5840   41.6430 H   0  0  0  0  0  0  0  0  0  0  0  0
   35.8690   28.5340   41.0370 C   0  0  0  0  0  3  0  0  0  0  0  0
   36.2090   29.9040   40.9970 C   0  0  0  0  0  3  0  0  0  0  0  0
   37.8850   29.9530   41.7330 S   0  0  0  0  0  0  0  0  0  0  0  0
  1  6  1  0  0  0  0
  1  8  1  0  0  0  0
  2  1  2  0  0  0  0
  3  4  2  0  0  0  0
  3  2  1  0  0  0  0
  4  5  1  0  0  0  0
  5  7  1  0  0  0  0
  5  6  2  0  0  0  0
  7 11  1  0  0  0  0
  9  2  1  0  0  0  0
 10  7  1  0  0  0  0
 12  3  1  0  0  0  0
 13 14  1  0  0  0  0
 13 12  2  0  0  0  0
 15 13  1  0  0  0  0
 16 15  2  0  0  0  0
 16 17  1  0  0  0  0
 17 12  1  0  0  0  0
M  END
>  <minimizedAffinity>
-3.86823535

$$$$

 OpenBabel03252500203D

 17 18  0  0  0  0  0  0  0  0999 V2000
   37.4530   27.3650   40.2700 C   0  0  0  0  0  0  0  0  0  0  0  0
   37.8010   28.6630   39.8840 C   0  0  0  0  0  0  0  0  0  0  0  0
   37.5960   29.6690   40.8250 C   0  0  0  0  0  0  0  0  0  0  0  0
   37.0850   29.3700   42.0430 N   0  0  0  0  0  0  0  0  0  0  0  0
   36.7650   28.0960   42.3680 C   0  0  0  0  0  0  0  0  0  0  0  0
   36.9540   27.0970   41.4690 N   0  0  0  0  0  0  0  0  0  0  0  0
   36.2280   27.7450   43.6330 N   0  0  0  0  0  0  0  0  0  0  0  0
   37.6310   26.6240   39.5040 H   0  0  0  0  0  0  0  0  0  0  0  0
   38.2120   28.9740   38.9330 H   0  0  0  0  0  0  0  0  0  0  0  0
   35.2110   27.9600   43.5040 H   0  0  0  0  0  0  0  0  0  0  0  0
   36.7070   27.3690   44.4800 H   0  0  0  0  0  0  0  0  0  0  0  0
   37.8830   31.0370   40.6250 C   0  0  0  0  0  0  0  0  0  0  0  0
   37.0340   31.9600   39.8510 C   0  0  0  0  0  0  0  0  0  0  0  0
   36.1290   31.5860   39.3980 H   0  0  0  0  0  0  0  0  0  0  0  0
   37.4780   33.2540   39.7680 C   0  0  0  0  0  3  0  0  0  0  0  0
   38.6860   33.5960   40.4150 C   0  0  0  0  0  3  0  0  0  0  0  0
   39.2260   32.0220   41.1780 S   0  0  0  0  0  0  0  0  0  0  0  0
  1  6  1  0  0  0  0
  2  1  2  0  0  0  0
  2  3  1  0  0  0  0
  3  4  2  0  0  0  0
  4  5  1  0  0  0  0
  5  7  1  0  0  0  0
  6  5  2  0  0  0  0
  7 11  1  0  0  0  0
  8  1  1  0  0  0  0
  9  2  1  0  0  0  0
 10  7  1  0  0  0  0
 12  3  1  0  0  0  0
 12 17  1  0  0  0  0
 13 12  2  0  0  0  0
 14 13  1  0  0  0  0
 15 13  1  0  0  0  0
 15 16  2  0  0  0  0
 16 17  1  0  0  0  0
M  END
>  <minimizedAffinity>
-3.86277699

$$$$

 OpenBabel03252500203D

 17 18  0  0  0  0  0  0  0  0999 V2000
   37.2620   32.7020   39.4030 C   0  0  0  0  0  0  0  0  0  0  0  0
   37.2060   31.8900   40.5400 C   0  0  0  0  0  0  0  0  0  0  0  0
   37.3360   30.5190   40.3320 C   0  0  0  0  0  0  0  0  0  0  0  0
   37.5060   30.0320   39.0800 N   0  0  0  0  0  0  0  0  0  0  0  0
   37.5520   30.8610   38.0120 C   0  0  0  0  0  0  0  0  0  0  0  0
   37.4290   32.2010   38.1870 N   0  0  0  0  0  0  0  0  0  0  0  0
   37.7290   30.3870   36.6870 N   0  0  0  0  0  0  0  0  0  0  0  0
   37.1560   33.7560   39.6190 H   0  0  0  0  0  0  0  0  0  0  0  0
   37.0740   32.2090   41.5650 H   0  0  0  0  0  0  0  0  0  0  0  0
   36.7530   30.1150   36.4230 H   0  0  0  0  0  0  0  0  0  0  0  0
   38.5970   30.3220   36.1120 H   0  0  0  0  0  0  0  0  0  0  0  0
   37.3060   29.5390   41.3480 C   0  0  0  0  0  0  0  0  0  0  0  0
   38.0790   29.6150   42.6000 C   0  0  0  0  0  0  0  0  0  0  0  0
   38.7170   30.4680   42.7720 H   0  0  0  0  0  0  0  0  0  0  0  0
   37.9180   28.5660   43.4670 C   0  0  0  0  0  3  0  0  0  0  0  0
   37.0460   27.5170   43.1040 C   0  0  0  0  0  3  0  0  0  0  0  0
   36.4190   28.0280   41.4610 S   0  0  0  0  0  0  0  0  0  0  0  0
  1  8  1  0  0  0  0
  1  2  1  0  0  0  0
  2  9  1  0  0  0  0
  3  2  2  0  0  0  0
  3 12  1  0  0  0  0
  4  3  1  0  0  0  0
  5  6  1  0  0  0  0
  5  4  2  0  0  0  0
  6  1  2  0  0  0  0
  7  5  1  0  0  0  0
 10  7  1  0  0  0  0
 11  7  1  0  0  0  0
 12 17  1  0  0  0  0
 12 13  2  0  0  0  0
 13 14  1  0  0  0  0
 13 15  1  0  0  0  0
 16 15  2  0  0  0  0
 17 16  1  0  0  0  0
M  END
>  <minimizedAffinity>
-3.82995081

$$$$

 OpenBabel03252500203D

 17 18  0  0  0  0  0  0  0  0999 V2000
   42.1020   30.5320   37.0470 C   0  0  0  0  0  0  0  0  0  0  0  0
   40.9550   30.3450   37.8230 C   0  0  0  0  0  0  0  0  0  0  0  0
   40.3110   31.4960   38.2700 C   0  0  0  0  0  0  0  0  0  0  0  0
   40.7980   32.7180   37.9500 N   0  0  0  0  0  0  0  0  0  0  0  0
   41.9130   32.8460   37.1950 C   0  0  0  0  0  0  0  0  0  0  0  0
   42.5600   31.7400   36.7470 N   0  0  0  0  0  0  0  0  0  0  0  0
   42.4520   34.1080   36.8400 N   0  0  0  0  0  0  0  0  0  0  0  0
   42.5630   29.6080   36.7260 H   0  0  0  0  0  0  0  0  0  0  0  0
   40.5110   29.4030   38.1160 H   0  0  0  0  0  0  0  0  0  0  0  0
   43.0100   34.3520   37.6920 H   0  0  0  0  0  0  0  0  0  0  0  0
   42.3340   34.6620   35.9630 H   0  0  0  0  0  0  0  0  0  0  0  0
   39.1430   31.5150   39.0630 C   0  0  0  0  0  0  0  0  0  0  0  0
   38.2540   32.6820   39.2060 C   0  0  0  0  0  0  0  0  0  0  0  0
   38.4940   33.5920   38.6790 H   0  0  0  0  0  0  0  0  0  0  0  0
   37.1660   32.5080   40.0210 C   0  0  0  0  0  3  0  0  0  0  0  0
   36.9820   31.2550   40.6460 C   0  0  0  0  0  3  0  0  0  0  0  0
   38.4110   30.2700   40.0610 S   0  0  0  0  0  0  0  0  0  0  0  0
  1  2  1  0  0  0  0
  2  9  1  0  0  0  0
  2  3  2  0  0  0  0
  3 12  1  0  0  0  0
  4  3  1  0  0  0  0
  5  4  2  0  0  0  0
  6  1  2  0  0  0  0
  6  5  1  0  0  0  0
  7  5  1  0  0  0  0
  7 10  1  0  0  0  0
  8  1  1  0  0  0  0
 11  7  1  0  0  0  0
 12 13  2  0  0  0  0
 12 17  1  0  0  0  0
 13 15  1  0  0  0  0
 14 13  1  0  0  0  0
 15 16  2  0  0  0  0
 17 16  1  0  0  0  0
M  END
>  <minimizedAffinity>
-3.82225895

$$$$
