REMARK  Name = 
REMARK  6 active torsions:
REMARK  status: ('A' for Active; 'I' for Inactive)
REMARK    1  A    between atoms: C_1  and  C_7
REMARK    2  A    between atoms: C_2  and  C_15
REMARK    3  A    between atoms: C_5  and  C_9
REMARK    4  A    between atoms: C_15  and  C_16
REMARK    5  A    between atoms: C_18  and  C_19
REMARK    6  A    between atoms: C_21  and  C_41
REMARK                            x       y       z     vdW  Elec       q    Type
REMARK                         _______ _______ _______ _____ _____    ______ ____
ROOT
ATOM      1  C   UNL     1      46.090  30.898  46.910  0.00  0.00    +0.000 C 
ATOM      2  H   UNL     1      47.046  30.451  46.690  0.00  0.00    +0.000 HD
ATOM      3  H   UNL     1      45.241  30.181  46.733  0.00  0.00    +0.000 HD
ENDROOT
BRANCH   1   4
ATOM      4  C   UNL     1      45.892  31.500  48.260  0.00  0.00    +0.000 C 
ATOM      5  C   UNL     1      45.712  30.515  49.364  0.00  0.00    +0.000 C 
ATOM      6  C   UNL     1      46.922  31.335  49.306  0.00  0.00    +0.000 C 
ATOM      7  H   UNL     1      45.063  32.266  48.328  0.00  0.00    +0.000 HD
ATOM      8  H   UNL     1      45.028  30.659  50.199  0.00  0.00    +0.000 HD
ATOM      9  H   UNL     1      45.881  29.429  49.144  0.00  0.00    +0.000 HD
ATOM     10  H   UNL     1      46.989  32.185  50.016  0.00  0.00    +0.000 HD
BRANCH   6  11
ATOM     11  C   UNL     1      48.240  30.753  48.905  0.00  0.00    +0.000 C 
ATOM     12  C   UNL     1      49.194  30.470  50.088  0.00  0.00    +0.000 C 
ATOM     13  C   UNL     1      49.493  31.583  49.169  0.00  0.00    +0.000 C 
ATOM     14  H   UNL     1      48.286  29.920  48.195  0.00  0.00    +0.000 HD
ATOM     15  H   UNL     1      48.821  30.679  51.092  0.00  0.00    +0.000 HD
ATOM     16  H   UNL     1      49.891  29.629  50.048  0.00  0.00    +0.000 HD
ATOM     17  H   UNL     1      49.340  32.589  49.614  0.00  0.00    +0.000 HD
BRANCH  13  18
ATOM     18  C   UNL     1      50.417  31.528  48.080  0.00  0.00    +0.000 A 
ATOM     19  C   UNL     1      50.333  31.089  46.838  0.00  0.00    +0.000 A 
ATOM     20  H   UNL     1      49.444  30.677  46.379  0.00  0.00    +0.000 HD
ATOM     21  C   UNL     1      51.366  31.112  45.945  0.00  0.00    +0.000 A 
ATOM     22  C   UNL     1      52.581  31.649  46.430  0.00  0.00    +0.000 A 
ATOM     23  S   UNL     1      52.195  32.134  48.248  0.00  0.00    +0.000 S 
ENDBRANCH  13  18
ENDBRANCH   6  11
ENDBRANCH   1   4
BRANCH   1  25
ATOM     24  C   UNL     1      45.748  33.131  46.233  0.00  0.00    +0.000 C 
ATOM     25  C   UNL     1      45.912  31.942  45.830  0.00  0.00    +0.000 C 
BRANCH  24  30
ATOM     26  C   UNL     1      44.541  36.147  44.490  0.00  0.00    +0.000 A 
ATOM     27  C   UNL     1      45.213  36.097  43.275  0.00  0.00    +0.000 A 
ATOM     28  C   UNL     1      46.048  35.040  43.092  0.00  0.00    +0.000 A 
ATOM     29  N   UNL     1      46.193  34.101  44.069  0.00  0.00    +0.000 NA
ATOM     30  C   UNL     1      45.525  34.181  45.236  0.00  0.00    +0.000 A 
ATOM     31  N   UNL     1      44.711  35.209  45.417  0.00  0.00    +0.000 NA
ATOM     32  H   UNL     1      43.858  36.949  44.724  0.00  0.00    +0.000 HD
ATOM     33  H   UNL     1      45.080  36.853  42.521  0.00  0.00    +0.000 HD
BRANCH  28  34
ATOM     34  C   UNL     1      46.819  34.854  41.866  0.00  0.00    +0.000 A 
ATOM     35  C   UNL     1      48.059  35.411  41.640  0.00  0.00    +0.000 A 
ATOM     36  C   UNL     1      48.772  35.220  40.472  0.00  0.00    +0.000 A 
ATOM     37  C   UNL     1      48.254  34.446  39.466  0.00  0.00    +0.000 A 
ATOM     38  C   UNL     1      47.023  33.871  39.645  0.00  0.00    +0.000 A 
ATOM     39  C   UNL     1      46.337  34.084  40.829  0.00  0.00    +0.000 A 
ATOM     40  H   UNL     1      48.481  36.029  42.431  0.00  0.00    +0.000 HD
ATOM     41  H   UNL     1      49.726  35.696  40.396  0.00  0.00    +0.000 HD
ATOM     42  H   UNL     1      48.783  34.275  38.542  0.00  0.00    +0.000 HD
ATOM     43  H   UNL     1      46.568  33.252  38.884  0.00  0.00    +0.000 HD
ATOM     44  H   UNL     1      45.364  33.613  40.936  0.00  0.00    +0.000 HD
ENDBRANCH  28  34
ENDBRANCH  24  30
ENDBRANCH   1  25
TORSDOF 6
