
 OpenBabel03242514173D

 38 40  0  0  0  0  0  0  0  0999 V2000
   46.1210   34.5720   43.5750 C   0  0  0  0  0  0  0  0  0  0  0  0
   46.1410   33.8000   44.7190 C   0  0  0  0  0  0  0  0  0  0  0  0
   45.3440   34.1930   45.7590 C   0  0  0  0  0  0  0  0  0  0  0  0
   44.5690   35.3330   45.6070 N   0  0  0  0  0  0  0  0  0  0  0  0
   44.5620   36.0640   44.4980 C   0  0  0  0  0  0  0  0  0  0  0  0
   45.3370   35.6680   43.5050 N   0  0  0  0  0  0  0  0  0  0  0  0
   45.1880   33.7650   46.7360 H   0  0  0  0  0  0  0  0  0  0  0  0
   43.9420   36.9480   44.4190 H   0  0  0  0  0  0  0  0  0  0  0  0
   47.0200   34.1330   42.5040 C   0  0  0  0  0  0  0  0  0  0  0  0
   48.3670   34.6710   42.5510 C   0  0  0  0  0  0  0  0  0  0  0  0
   48.6830   35.5610   41.4190 C   0  0  0  0  0  0  0  0  0  0  0  0
   48.4930   34.8430   40.0920 C   0  0  0  0  0  0  0  0  0  0  0  0
   47.2310   34.0560   40.0310 C   0  0  0  0  0  0  0  0  0  0  0  0
   46.3100   34.3940   41.1800 C   0  0  0  0  0  0  0  0  0  0  0  0
   47.0900   33.0110   42.4790 H   0  0  0  0  0  0  0  0  0  0  0  0
   49.2110   33.9280   42.6310 H   0  0  0  0  0  0  0  0  0  0  0  0
   48.4830   35.2980   43.4850 H   0  0  0  0  0  0  0  0  0  0  0  0
   47.8990   36.3740   41.4100 H   0  0  0  0  0  0  0  0  0  0  0  0
   49.6630   36.0370   41.4430 H   0  0  0  0  0  0  0  0  0  0  0  0
   49.3460   34.1070   40.0040 H   0  0  0  0  0  0  0  0  0  0  0  0
   48.6280   35.5610   39.2490 H   0  0  0  0  0  0  0  0  0  0  0  0
   47.4100   32.9470   40.0180 H   0  0  0  0  0  0  0  0  0  0  0  0
   46.7090   34.3000   39.0880 H   0  0  0  0  0  0  0  0  0  0  0  0
   45.4250   33.7360   41.1600 H   0  0  0  0  0  0  0  0  0  0  0  0
   46.0210   35.4580   41.1250 H   0  0  0  0  0  0  0  0  0  0  0  0
   46.7880   32.7080   45.0670 O   0  0  0  0  0  0  0  0  0  0  0  0
   46.9720   31.9560   46.1810 C   0  0  0  0  0  0  0  0  0  0  0  0
   46.9620   32.4450   47.1660 H   0  0  0  0  0  0  0  0  0  0  0  0
   48.0010   31.4940   46.1180 H   0  0  0  0  0  0  0  0  0  0  0  0
   46.0440   30.7660   46.3070 C   0  0  0  0  0  0  0  0  0  0  0  0
   45.5540   30.6420   45.3180 H   0  0  0  0  0  0  0  0  0  0  0  0
   45.2220   31.0870   46.9860 H   0  0  0  0  0  0  0  0  0  0  0  0
   46.6060   29.5410   46.7520 C   0  0  0  0  0  0  0  0  0  0  0  0
   46.2080   28.2630   46.9550 C   0  0  0  0  0  0  0  0  0  0  0  0
   45.1640   28.1130   46.7150 H   0  0  0  0  0  0  0  0  0  0  0  0
   47.0250   27.2840   47.4100 C   0  0  0  0  0  0  0  0  0  0  0  0
   48.3740   27.6880   47.6700 C   0  0  0  0  0  0  0  0  0  0  0  0
   48.4070   29.4850   47.2450 S   0  0  0  0  0  0  0  0  0  0  0  0
  1  2  1  0  0  0  0
  2 26  1  0  0  0  0
  2  3  2  0  0  0  0
  3  7  1  0  0  0  0
  4  3  1  0  0  0  0
  5  4  2  0  0  0  0
  6  1  2  0  0  0  0
  6  5  1  0  0  0  0
  8  5  1  0  0  0  0
  9 10  1  0  0  0  0
  9  1  1  0  0  0  0
 10 16  1  0  0  0  0
 10 17  1  0  0  0  0
 11 19  1  0  0  0  0
 11 10  1  0  0  0  0
 12 11  1  0  0  0  0
 13 12  1  0  0  0  0
 13 14  1  0  0  0  0
 14  9  1  0  0  0  0
 15  9  1  0  0  0  0
 18 11  1  0  0  0  0
 20 12  1  0  0  0  0
 21 12  1  0  0  0  0
 22 13  1  0  0  0  0
 23 13  1  0  0  0  0
 24 14  1  0  0  0  0
 25 14  1  0  0  0  0
 26 27  1  0  0  0  0
 27 30  1  0  0  0  0
 27 28  1  0  0  0  0
 29 27  1  0  0  0  0
 30 33  1  0  0  0  0
 30 32  1  0  0  0  0
 31 30  1  0  0  0  0
 33 34  2  0  0  0  0
 33 38  1  0  0  0  0
 34 36  1  0  0  0  0
 35 34  1  0  0  0  0
 36 37  2  0  0  0  0
 38 37  1  0  0  0  0
M  END
>  <minimizedAffinity>
-5.25317717

>  <minimizedRMSD>
1.65496624

$$$$
