
 OpenBabel03252506593D

 21 22  0  0  0  0  0  0  0  0999 V2000
   37.5240   28.3770   43.6470 C   0  0  0  0  0  0  0  0  0  0  0  0
   36.9100   28.8740   44.4540 H   0  0  0  0  0  0  0  0  0  0  0  0
   38.4070   27.9240   44.1140 H   0  0  0  0  0  0  0  0  0  0  0  0
   37.8720   29.4520   42.7180 C   0  0  0  0  0  0  0  0  0  0  0  0
   39.1230   30.0590   42.6850 C   0  0  0  0  0  0  0  0  0  0  0  0
   39.3550   31.0670   41.7510 C   0  0  0  0  0  0  0  0  0  0  0  0
   38.3440   31.4060   40.9180 N   0  0  0  0  0  0  0  0  0  0  0  0
   37.1430   30.8070   40.9650 C   0  0  0  0  0  0  0  0  0  0  0  0
   36.9280   29.8490   41.8560 N   0  0  0  0  0  0  0  0  0  0  0  0
   39.8830   29.7250   43.3930 H   0  0  0  0  0  0  0  0  0  0  0  0
   40.3330   31.5390   41.7300 H   0  0  0  0  0  0  0  0  0  0  0  0
   36.3440   31.0950   40.2870 H   0  0  0  0  0  0  0  0  0  0  0  0
   36.6670   27.3770   42.9260 C   0  0  0  0  0  0  0  0  0  0  0  0
   35.8160   27.1290   43.6290 H   0  0  0  0  0  0  0  0  0  0  0  0
   36.1300   27.8900   42.0800 H   0  0  0  0  0  0  0  0  0  0  0  0
   37.3000   26.1610   42.5450 C   0  0  0  0  0  0  0  0  0  0  0  0
   36.8930   24.8930   41.9620 C   0  0  0  0  0  0  0  0  0  0  0  0
   35.8380   24.9110   41.7920 H   0  0  0  0  0  0  0  0  0  0  0  0
   37.8520   23.9570   41.7450 C   0  0  0  0  0  3  0  0  0  0  0  0
   39.2530   24.2590   42.1040 C   0  0  0  0  0  3  0  0  0  0  0  0
   39.1710   25.9510   42.7760 S   0  0  0  0  0  0  0  0  0  0  0  0
  1  3  1  0  0  0  0
  1  2  1  0  0  0  0
  4  1  1  0  0  0  0
  5  4  1  0  0  0  0
  5 10  1  0  0  0  0
  6  5  2  0  0  0  0
  7  8  2  0  0  0  0
  7  6  1  0  0  0  0
  8  9  1  0  0  0  0
  9  4  2  0  0  0  0
 11  6  1  0  0  0  0
 12  8  1  0  0  0  0
 13 14  1  0  0  0  0
 13  1  1  0  0  0  0
 15 13  1  0  0  0  0
 16 21  1  0  0  0  0
 16 13  1  0  0  0  0
 17 16  2  0  0  0  0
 18 17  1  0  0  0  0
 19 17  1  0  0  0  0
 19 20  2  0  0  0  0
 20 21  1  0  0  0  0
M  END
>  <minimizedAffinity>
-4.1815114

$$$$

 OpenBabel03252506593D

 21 22  0  0  0  0  0  0  0  0999 V2000
   36.9280   27.6010   42.2800 C   0  0  0  0  0  0  0  0  0  0  0  0
   36.0020   27.2540   42.8260 H   0  0  0  0  0  0  0  0  0  0  0  0
   36.7090   27.6180   41.2050 H   0  0  0  0  0  0  0  0  0  0  0  0
   37.9610   26.6240   42.6250 C   0  0  0  0  0  0  0  0  0  0  0  0
   39.0750   26.9290   43.4000 C   0  0  0  0  0  0  0  0  0  0  0  0
   39.9940   25.9200   43.6800 C   0  0  0  0  0  0  0  0  0  0  0  0
   39.7540   24.6860   43.1800 N   0  0  0  0  0  0  0  0  0  0  0  0
   38.6720   24.4110   42.4340 C   0  0  0  0  0  0  0  0  0  0  0  0
   37.8010   25.3750   42.1710 N   0  0  0  0  0  0  0  0  0  0  0  0
   39.1920   27.9510   43.7630 H   0  0  0  0  0  0  0  0  0  0  0  0
   40.8640   26.1640   44.2840 H   0  0  0  0  0  0  0  0  0  0  0  0
   38.4990   23.4120   42.0430 H   0  0  0  0  0  0  0  0  0  0  0  0
   37.3380   28.9420   42.8140 C   0  0  0  0  0  0  0  0  0  0  0  0
   36.5740   29.2120   43.6030 H   0  0  0  0  0  0  0  0  0  0  0  0
   38.2760   28.8280   43.4250 H   0  0  0  0  0  0  0  0  0  0  0  0
   37.4000   30.0050   41.8690 C   0  0  0  0  0  0  0  0  0  0  0  0
   36.4570   30.7530   41.0530 C   0  0  0  0  0  0  0  0  0  0  0  0
   35.4710   30.3790   41.2310 H   0  0  0  0  0  0  0  0  0  0  0  0
   36.9480   31.7340   40.2540 C   0  0  0  0  0  3  0  0  0  0  0  0
   38.4010   32.0010   40.2440 C   0  0  0  0  0  3  0  0  0  0  0  0
   39.0700   30.7910   41.4300 S   0  0  0  0  0  0  0  0  0  0  0  0
  1  4  1  0  0  0  0
  1 13  1  0  0  0  0
  1  2  1  0  0  0  0
  3  1  1  0  0  0  0
  4  5  1  0  0  0  0
  5  6  2  0  0  0  0
  5 10  1  0  0  0  0
  6 11  1  0  0  0  0
  7  6  1  0  0  0  0
  8  7  2  0  0  0  0
  9  8  1  0  0  0  0
  9  4  2  0  0  0  0
 12  8  1  0  0  0  0
 13 15  1  0  0  0  0
 13 14  1  0  0  0  0
 16 13  1  0  0  0  0
 17 18  1  0  0  0  0
 17 16  2  0  0  0  0
 19 17  1  0  0  0  0
 20 19  2  0  0  0  0
 20 21  1  0  0  0  0
 21 16  1  0  0  0  0
M  END
>  <minimizedAffinity>
-3.99544287

$$$$

 OpenBabel03252506593D

 21 22  0  0  0  0  0  0  0  0999 V2000
   39.2280   29.2770   42.7700 C   0  0  0  0  0  0  0  0  0  0  0  0
   39.6550   29.9540   43.5680 H   0  0  0  0  0  0  0  0  0  0  0  0
   40.0610   28.8520   42.1970 H   0  0  0  0  0  0  0  0  0  0  0  0
   38.3730   30.1420   41.9560 C   0  0  0  0  0  0  0  0  0  0  0  0
   37.0230   29.8910   41.7340 C   0  0  0  0  0  0  0  0  0  0  0  0
   36.2950   30.7860   40.9520 C   0  0  0  0  0  0  0  0  0  0  0  0
   36.9440   31.8590   40.4440 N   0  0  0  0  0  0  0  0  0  0  0  0
   38.2480   32.0830   40.6700 C   0  0  0  0  0  0  0  0  0  0  0  0
   38.9360   31.2290   41.4150 N   0  0  0  0  0  0  0  0  0  0  0  0
   36.5780   29.0010   42.1810 H   0  0  0  0  0  0  0  0  0  0  0  0
   35.2410   30.5860   40.7800 H   0  0  0  0  0  0  0  0  0  0  0  0
   38.7500   32.9520   40.2520 H   0  0  0  0  0  0  0  0  0  0  0  0
   38.3730   28.2300   43.4210 C   0  0  0  0  0  0  0  0  0  0  0  0
   38.4180   28.4350   44.5320 H   0  0  0  0  0  0  0  0  0  0  0  0
   37.2910   28.4370   43.1880 H   0  0  0  0  0  0  0  0  0  0  0  0
   38.7540   26.8770   43.2010 C   0  0  0  0  0  0  0  0  0  0  0  0
   39.7970   25.9810   43.6740 C   0  0  0  0  0  0  0  0  0  0  0  0
   40.4230   26.5070   44.3610 H   0  0  0  0  0  0  0  0  0  0  0  0
   39.8040   24.7090   43.1980 C   0  0  0  0  0  3  0  0  0  0  0  0
   38.7670   24.2910   42.2320 C   0  0  0  0  0  3  0  0  0  0  0  0
   37.7550   25.7890   42.0100 S   0  0  0  0  0  0  0  0  0  0  0  0
  1 13  1  0  0  0  0
  1  2  1  0  0  0  0
  3  1  1  0  0  0  0
  4  1  1  0  0  0  0
  5  4  1  0  0  0  0
  5 10  1  0  0  0  0
  6  5  2  0  0  0  0
  7  8  2  0  0  0  0
  7  6  1  0  0  0  0
  8  9  1  0  0  0  0
  9  4  2  0  0  0  0
 11  6  1  0  0  0  0
 12  8  1  0  0  0  0
 13 14  1  0  0  0  0
 15 13  1  0  0  0  0
 16 13  1  0  0  0  0
 16 17  2  0  0  0  0
 17 18  1  0  0  0  0
 19 17  1  0  0  0  0
 20 19  2  0  0  0  0
 21 20  1  0  0  0  0
 21 16  1  0  0  0  0
M  END
>  <minimizedAffinity>
-3.9855969

$$$$

 OpenBabel03252506593D

 21 22  0  0  0  0  0  0  0  0999 V2000
   37.6410   28.2780   43.6740 C   0  0  0  0  0  0  0  0  0  0  0  0
   36.6250   27.8800   43.3830 H   0  0  0  0  0  0  0  0  0  0  0  0
   37.5930   28.6210   44.7150 H   0  0  0  0  0  0  0  0  0  0  0  0
   37.9040   29.3710   42.7370 C   0  0  0  0  0  0  0  0  0  0  0  0
   36.9870   29.7980   41.7820 C   0  0  0  0  0  0  0  0  0  0  0  0
   37.3330   30.8570   40.9460 C   0  0  0  0  0  0  0  0  0  0  0  0
   38.5520   31.4210   41.1070 N   0  0  0  0  0  0  0  0  0  0  0  0
   39.4240   30.9950   42.0350 C   0  0  0  0  0  0  0  0  0  0  0  0
   39.0890   29.9870   42.8280 N   0  0  0  0  0  0  0  0  0  0  0  0
   36.0250   29.2870   41.7200 H   0  0  0  0  0  0  0  0  0  0  0  0
   36.6140   31.1860   40.2010 H   0  0  0  0  0  0  0  0  0  0  0  0
   40.3990   31.4620   42.1470 H   0  0  0  0  0  0  0  0  0  0  0  0
   38.6680   27.2050   43.4600 C   0  0  0  0  0  0  0  0  0  0  0  0
   39.5260   27.6960   42.9110 H   0  0  0  0  0  0  0  0  0  0  0  0
   39.1410   26.9410   44.4470 H   0  0  0  0  0  0  0  0  0  0  0  0
   38.2480   26.0710   42.7100 C   0  0  0  0  0  0  0  0  0  0  0  0
   36.9880   25.5250   42.2320 C   0  0  0  0  0  0  0  0  0  0  0  0
   36.1910   26.1650   42.5450 H   0  0  0  0  0  0  0  0  0  0  0  0
   37.0260   24.3720   41.5150 C   0  0  0  0  0  3  0  0  0  0  0  0
   38.3290   23.7250   41.2530 C   0  0  0  0  0  3  0  0  0  0  0  0
   39.5290   24.8250   42.0720 S   0  0  0  0  0  0  0  0  0  0  0  0
  1  3  1  0  0  0  0
  2  1  1  0  0  0  0
  4  9  1  0  0  0  0
  4  1  1  0  0  0  0
  5  4  2  0  0  0  0
  6  7  2  0  0  0  0
  6  5  1  0  0  0  0
  7  8  1  0  0  0  0
  8 12  1  0  0  0  0
  8  9  2  0  0  0  0
 10  5  1  0  0  0  0
 11  6  1  0  0  0  0
 13  1  1  0  0  0  0
 13 15  1  0  0  0  0
 14 13  1  0  0  0  0
 16 13  1  0  0  0  0
 17 18  1  0  0  0  0
 17 16  2  0  0  0  0
 19 17  1  0  0  0  0
 20 19  2  0  0  0  0
 20 21  1  0  0  0  0
 21 16  1  0  0  0  0
M  END
>  <minimizedAffinity>
-3.95382905

$$$$

 OpenBabel03252506593D

 21 22  0  0  0  0  0  0  0  0999 V2000
   38.0210   27.9990   43.3920 C   0  0  0  0  0  0  0  0  0  0  0  0
   38.6400   28.7720   42.8480 H   0  0  0  0  0  0  0  0  0  0  0  0
   37.9630   28.2850   44.4490 H   0  0  0  0  0  0  0  0  0  0  0  0
   38.7310   26.7360   43.1920 C   0  0  0  0  0  0  0  0  0  0  0  0
   38.1830   25.6480   42.5200 C   0  0  0  0  0  0  0  0  0  0  0  0
   38.9500   24.4940   42.3740 C   0  0  0  0  0  0  0  0  0  0  0  0
   40.1970   24.4900   42.8970 N   0  0  0  0  0  0  0  0  0  0  0  0
   40.7090   25.5510   43.5420 C   0  0  0  0  0  0  0  0  0  0  0  0
   39.9750   26.6460   43.6780 N   0  0  0  0  0  0  0  0  0  0  0  0
   37.1680   25.7350   42.1290 H   0  0  0  0  0  0  0  0  0  0  0  0
   38.5170   23.6460   41.8500 H   0  0  0  0  0  0  0  0  0  0  0  0
   41.7140   25.5260   43.9550 H   0  0  0  0  0  0  0  0  0  0  0  0
   36.6730   27.9020   42.7390 C   0  0  0  0  0  0  0  0  0  0  0  0
   36.5830   26.8390   42.3630 H   0  0  0  0  0  0  0  0  0  0  0  0
   35.8740   27.9400   43.5300 H   0  0  0  0  0  0  0  0  0  0  0  0
   36.4360   28.7830   41.6470 C   0  0  0  0  0  0  0  0  0  0  0  0
   35.4580   28.9040   40.5770 C   0  0  0  0  0  0  0  0  0  0  0  0
   34.7510   28.1060   40.6610 H   0  0  0  0  0  0  0  0  0  0  0  0
   35.5930   29.9380   39.7070 C   0  0  0  0  0  3  0  0  0  0  0  0
   36.7120   30.8870   39.8790 C   0  0  0  0  0  3  0  0  0  0  0  0
   37.5910   30.2570   41.3450 S   0  0  0  0  0  0  0  0  0  0  0  0
  1  3  1  0  0  0  0
  2  1  1  0  0  0  0
  4  1  1  0  0  0  0
  4  9  1  0  0  0  0
  5  4  2  0  0  0  0
  6  5  1  0  0  0  0
  6  7  2  0  0  0  0
  7  8  1  0  0  0  0
  8  9  2  0  0  0  0
  8 12  1  0  0  0  0
 10  5  1  0  0  0  0
 11  6  1  0  0  0  0
 13  1  1  0  0  0  0
 13 15  1  0  0  0  0
 14 13  1  0  0  0  0
 16 13  1  0  0  0  0
 17 18  1  0  0  0  0
 17 16  2  0  0  0  0
 19 20  2  0  0  0  0
 19 17  1  0  0  0  0
 20 21  1  0  0  0  0
 21 16  1  0  0  0  0
M  END
>  <minimizedAffinity>
-3.82962584

$$$$

 OpenBabel03252506593D

 21 22  0  0  0  0  0  0  0  0999 V2000
   37.0140   30.7470   39.6200 C   0  0  0  0  0  0  0  0  0  0  0  0
   37.6680   29.8840   39.2990 H   0  0  0  0  0  0  0  0  0  0  0  0
   36.3100   30.9660   38.8090 H   0  0  0  0  0  0  0  0  0  0  0  0
   37.9390   31.8530   39.8720 C   0  0  0  0  0  0  0  0  0  0  0  0
   37.5450   33.1860   39.9140 C   0  0  0  0  0  0  0  0  0  0  0  0
   38.5050   34.1610   40.1740 C   0  0  0  0  0  0  0  0  0  0  0  0
   39.7810   33.7590   40.3720 N   0  0  0  0  0  0  0  0  0  0  0  0
   40.1430   32.4660   40.3270 C   0  0  0  0  0  0  0  0  0  0  0  0
   39.2240   31.5420   40.0800 N   0  0  0  0  0  0  0  0  0  0  0  0
   36.4940   33.4240   39.7430 H   0  0  0  0  0  0  0  0  0  0  0  0
   38.1920   35.2020   40.2050 H   0  0  0  0  0  0  0  0  0  0  0  0
   41.1740   32.1650   40.4890 H   0  0  0  0  0  0  0  0  0  0  0  0
   36.3300   30.3910   40.9080 C   0  0  0  0  0  0  0  0  0  0  0  0
   36.3240   31.3340   41.5310 H   0  0  0  0  0  0  0  0  0  0  0  0
   35.2320   30.2320   40.7130 H   0  0  0  0  0  0  0  0  0  0  0  0
   36.9280   29.3510   41.6740 C   0  0  0  0  0  0  0  0  0  0  0  0
   37.6710   29.2480   42.9190 C   0  0  0  0  0  0  0  0  0  0  0  0
   37.7810   30.2240   43.3410 H   0  0  0  0  0  0  0  0  0  0  0  0
   38.0760   28.0140   43.3170 C   0  0  0  0  0  3  0  0  0  0  0  0
   37.7500   26.8410   42.4790 C   0  0  0  0  0  3  0  0  0  0  0  0
   36.8300   27.5530   41.0770 S   0  0  0  0  0  0  0  0  0  0  0  0
  1  4  1  0  0  0  0
  1 13  1  0  0  0  0
  2  1  1  0  0  0  0
  3  1  1  0  0  0  0
  4  5  2  0  0  0  0
  4  9  1  0  0  0  0
  5  6  1  0  0  0  0
  6 11  1  0  0  0  0
  6  7  2  0  0  0  0
  8  7  1  0  0  0  0
  8 12  1  0  0  0  0
  9  8  2  0  0  0  0
 10  5  1  0  0  0  0
 13 14  1  0  0  0  0
 13 16  1  0  0  0  0
 15 13  1  0  0  0  0
 16 17  2  0  0  0  0
 17 19  1  0  0  0  0
 17 18  1  0  0  0  0
 20 19  2  0  0  0  0
 21 16  1  0  0  0  0
 21 20  1  0  0  0  0
M  END
>  <minimizedAffinity>
-3.79835176

$$$$

 OpenBabel03252506593D

 21 22  0  0  0  0  0  0  0  0999 V2000
   35.7850   28.8440   41.0410 C   0  0  0  0  0  0  0  0  0  0  0  0
   34.7340   28.6830   40.6590 H   0  0  0  0  0  0  0  0  0  0  0  0
   35.7290   29.0860   42.1090 H   0  0  0  0  0  0  0  0  0  0  0  0
   36.3130   29.9510   40.2430 C   0  0  0  0  0  0  0  0  0  0  0  0
   36.5320   29.8690   38.8720 C   0  0  0  0  0  0  0  0  0  0  0  0
   37.0280   30.9870   38.2050 C   0  0  0  0  0  0  0  0  0  0  0  0
   37.2730   32.1030   38.9300 N   0  0  0  0  0  0  0  0  0  0  0  0
   37.0550   32.1620   40.2530 C   0  0  0  0  0  0  0  0  0  0  0  0
   36.5830   31.0950   40.8830 N   0  0  0  0  0  0  0  0  0  0  0  0
   36.3070   28.9310   38.3640 H   0  0  0  0  0  0  0  0  0  0  0  0
   37.1980   30.9190   37.1340 H   0  0  0  0  0  0  0  0  0  0  0  0
   37.2600   33.0680   40.8170 H   0  0  0  0  0  0  0  0  0  0  0  0
   36.6020   27.6170   40.7610 C   0  0  0  0  0  0  0  0  0  0  0  0
   35.8630   26.7690   40.6410 H   0  0  0  0  0  0  0  0  0  0  0  0
   37.0430   27.6920   39.7280 H   0  0  0  0  0  0  0  0  0  0  0  0
   37.5470   27.2470   41.7590 C   0  0  0  0  0  0  0  0  0  0  0  0
   38.0650   27.8210   42.9910 C   0  0  0  0  0  0  0  0  0  0  0  0
   37.5940   28.7650   43.1590 H   0  0  0  0  0  0  0  0  0  0  0  0
   38.9970   27.1120   43.6780 C   0  0  0  0  0  3  0  0  0  0  0  0
   39.4440   25.8050   43.1550 C   0  0  0  0  0  3  0  0  0  0  0  0
   38.4810   25.6020   41.6210 S   0  0  0  0  0  0  0  0  0  0  0  0
  1  3  1  0  0  0  0
  2  1  1  0  0  0  0
  4  9  1  0  0  0  0
  4  1  1  0  0  0  0
  5  4  2  0  0  0  0
  6  5  1  0  0  0  0
  6  7  2  0  0  0  0
  7  8  1  0  0  0  0
  8 12  1  0  0  0  0
  8  9  2  0  0  0  0
 10  5  1  0  0  0  0
 11  6  1  0  0  0  0
 13  1  1  0  0  0  0
 13 16  1  0  0  0  0
 14 13  1  0  0  0  0
 15 13  1  0  0  0  0
 16 17  2  0  0  0  0
 17 18  1  0  0  0  0
 17 19  1  0  0  0  0
 20 19  2  0  0  0  0
 21 16  1  0  0  0  0
 21 20  1  0  0  0  0
M  END
>  <minimizedAffinity>
-3.72613478

$$$$

 OpenBabel03252506593D

 21 22  0  0  0  0  0  0  0  0999 V2000
   35.7370   28.7290   40.8850 C   0  0  0  0  0  0  0  0  0  0  0  0
   34.7400   28.5320   40.3910 H   0  0  0  0  0  0  0  0  0  0  0  0
   35.5620   28.9170   41.9510 H   0  0  0  0  0  0  0  0  0  0  0  0
   36.2800   29.8980   40.1930 C   0  0  0  0  0  0  0  0  0  0  0  0
   36.5700   31.0990   40.8320 C   0  0  0  0  0  0  0  0  0  0  0  0
   37.0960   32.1480   40.0810 C   0  0  0  0  0  0  0  0  0  0  0  0
   37.2990   31.9430   38.7590 N   0  0  0  0  0  0  0  0  0  0  0  0
   37.0130   30.7760   38.1600 C   0  0  0  0  0  0  0  0  0  0  0  0
   36.5130   29.7810   38.8800 N   0  0  0  0  0  0  0  0  0  0  0  0
   36.3750   31.1800   41.9020 H   0  0  0  0  0  0  0  0  0  0  0  0
   37.3200   33.0850   40.5840 H   0  0  0  0  0  0  0  0  0  0  0  0
   37.1840   30.6330   37.0970 H   0  0  0  0  0  0  0  0  0  0  0  0
   36.6450   27.5600   40.6390 C   0  0  0  0  0  0  0  0  0  0  0  0
   35.9700   26.6680   40.4720 H   0  0  0  0  0  0  0  0  0  0  0  0
   37.1350   27.6760   39.6320 H   0  0  0  0  0  0  0  0  0  0  0  0
   37.5590   27.2390   41.6820 C   0  0  0  0  0  0  0  0  0  0  0  0
   37.9630   27.8230   42.9510 C   0  0  0  0  0  0  0  0  0  0  0  0
   37.4150   28.7270   43.1080 H   0  0  0  0  0  0  0  0  0  0  0  0
   38.9060   27.1700   43.6780 C   0  0  0  0  0  3  0  0  0  0  0  0
   39.4770   25.9100   43.1590 C   0  0  0  0  0  3  0  0  0  0  0  0
   38.6180   25.6700   41.5700 S   0  0  0  0  0  0  0  0  0  0  0  0
  1  3  1  0  0  0  0
  2  1  1  0  0  0  0
  4  5  1  0  0  0  0
  4  1  1  0  0  0  0
  5 10  1  0  0  0  0
  6 11  1  0  0  0  0
  6  5  2  0  0  0  0
  7  6  1  0  0  0  0
  8  7  2  0  0  0  0
  8  9  1  0  0  0  0
  9  4  2  0  0  0  0
 12  8  1  0  0  0  0
 13  1  1  0  0  0  0
 13 16  1  0  0  0  0
 14 13  1  0  0  0  0
 15 13  1  0  0  0  0
 16 17  2  0  0  0  0
 17 18  1  0  0  0  0
 17 19  1  0  0  0  0
 20 19  2  0  0  0  0
 21 16  1  0  0  0  0
 21 20  1  0  0  0  0
M  END
>  <minimizedAffinity>
-3.697191

$$$$

 OpenBabel03252506593D

 21 22  0  0  0  0  0  0  0  0999 V2000
   38.6510   29.8930   42.0870 C   0  0  0  0  0  0  0  0  0  0  0  0
   39.1030   30.2570   43.0560 H   0  0  0  0  0  0  0  0  0  0  0  0
   39.3710   29.2240   41.6000 H   0  0  0  0  0  0  0  0  0  0  0  0
   38.3980   31.1050   41.3070 C   0  0  0  0  0  0  0  0  0  0  0  0
   37.2670   31.2850   40.5170 C   0  0  0  0  0  0  0  0  0  0  0  0
   37.1170   32.4840   39.8240 C   0  0  0  0  0  0  0  0  0  0  0  0
   38.0870   33.4180   39.9540 N   0  0  0  0  0  0  0  0  0  0  0  0
   39.1720   33.2260   40.7220 C   0  0  0  0  0  0  0  0  0  0  0  0
   39.3090   32.0830   41.3800 N   0  0  0  0  0  0  0  0  0  0  0  0
   36.5330   30.4790   40.4680 H   0  0  0  0  0  0  0  0  0  0  0  0
   36.2330   32.6190   39.2070 H   0  0  0  0  0  0  0  0  0  0  0  0
   39.9390   33.9900   40.8120 H   0  0  0  0  0  0  0  0  0  0  0  0
   37.3380   29.2260   42.3780 C   0  0  0  0  0  0  0  0  0  0  0  0
   37.2020   29.2780   43.4990 H   0  0  0  0  0  0  0  0  0  0  0  0
   36.4990   29.8810   42.0100 H   0  0  0  0  0  0  0  0  0  0  0  0
   37.2170   27.8670   41.9750 C   0  0  0  0  0  0  0  0  0  0  0  0
   37.2040   26.5670   42.6260 C   0  0  0  0  0  0  0  0  0  0  0  0
   37.3190   26.7050   43.6800 H   0  0  0  0  0  0  0  0  0  0  0  0
   37.0560   25.4660   41.8450 C   0  0  0  0  0  3  0  0  0  0  0  0
   36.9180   25.6300   40.3830 C   0  0  0  0  0  3  0  0  0  0  0  0
   37.0050   27.4340   40.1400 S   0  0  0  0  0  0  0  0  0  0  0  0
  1 13  1  0  0  0  0
  1  2  1  0  0  0  0
  3  1  1  0  0  0  0
  4  9  1  0  0  0  0
  4  1  1  0  0  0  0
  5  4  2  0  0  0  0
  6  7  2  0  0  0  0
  6  5  1  0  0  0  0
  7  8  1  0  0  0  0
  8 12  1  0  0  0  0
  8  9  2  0  0  0  0
 10  5  1  0  0  0  0
 11  6  1  0  0  0  0
 13 14  1  0  0  0  0
 15 13  1  0  0  0  0
 16 13  1  0  0  0  0
 16 17  2  0  0  0  0
 17 18  1  0  0  0  0
 19 17  1  0  0  0  0
 20 19  2  0  0  0  0
 21 20  1  0  0  0  0
 21 16  1  0  0  0  0
M  END
>  <minimizedAffinity>
-3.62441635

$$$$
