
 OpenBabel03252507323D

 46 49  0  0  1  0  0  0  0  0999 V2000
   47.6160   31.7470   46.3340 C   0  0  2  0  0  0  0  0  0  0  0  0
   47.3660   30.3070   45.7970 C   0  0  0  0  0  0  0  0  0  0  0  0
   48.1740   29.3350   46.5860 C   0  0  0  0  0  0  0  0  0  0  0  0
   48.1790   29.5300   48.0630 C   0  0  0  0  0  0  0  0  0  0  0  0
   48.1810   30.9090   48.4850 C   0  0  0  0  0  0  0  0  0  0  0  0
   47.1810   31.8000   47.7150 C   0  0  2  0  0  0  0  0  0  0  0  0
   48.7180   31.8560   46.1990 H   0  0  0  0  0  0  0  0  0  0  0  0
   46.3030   30.0770   45.7440 H   0  0  0  0  0  0  0  0  0  0  0  0
   47.7200   30.3480   44.7470 H   0  0  0  0  0  0  0  0  0  0  0  0
   47.7100   28.3210   46.4060 H   0  0  0  0  0  0  0  0  0  0  0  0
   49.1580   29.2670   46.0850 H   0  0  0  0  0  0  0  0  0  0  0  0
   49.2930   29.2710   48.2760 H   0  0  0  0  0  0  0  0  0  0  0  0
   47.8140   28.7170   48.6940 H   0  0  0  0  0  0  0  0  0  0  0  0
   49.1340   31.4850   48.4500 H   0  0  0  0  0  0  0  0  0  0  0  0
   47.8510   30.9870   49.5570 H   0  0  0  0  0  0  0  0  0  0  0  0
   47.2940   32.7470   48.2450 H   0  0  0  0  0  0  0  0  0  0  0  0
   46.9680   32.7430   45.5030 C   0  0  0  0  0  0  0  0  0  0  0  0
   45.8760   33.4110   46.0400 C   0  0  0  0  0  0  0  0  0  0  0  0
   45.1960   34.3760   45.2610 C   0  0  0  0  0  0  0  0  0  0  0  0
   45.6880   34.5940   43.9770 N   0  0  0  0  0  0  0  0  0  0  0  0
   46.7470   33.9170   43.5220 C   0  0  0  0  0  0  0  0  0  0  0  0
   47.3760   33.0070   44.2680 N   0  0  0  0  0  0  0  0  0  0  0  0
   45.3660   33.4310   46.9780 H   0  0  0  0  0  0  0  0  0  0  0  0
   44.3540   34.9740   45.4990 H   0  0  0  0  0  0  0  0  0  0  0  0
   47.2280   34.2070   42.1670 C   0  0  0  0  0  0  0  0  0  0  0  0
   48.2510   35.1050   41.9550 C   0  0  0  0  0  0  0  0  0  0  0  0
   48.7540   35.4270   40.7150 C   0  0  0  0  0  0  0  0  0  0  0  0
   48.1580   34.7820   39.6620 C   0  0  0  0  0  0  0  0  0  0  0  0
   47.1380   33.8840   39.8530 C   0  0  0  0  0  0  0  0  0  0  0  0
   46.6700   33.5960   41.1080 N   0  0  0  0  0  0  0  0  0  0  0  0
   48.7030   35.6030   42.8230 H   0  0  0  0  0  0  0  0  0  0  0  0
   49.5630   36.1380   40.5630 H   0  0  0  0  0  0  0  0  0  0  0  0
   48.5310   35.0110   38.6670 H   0  0  0  0  0  0  0  0  0  0  0  0
   46.5530   33.2390   38.7090 C   0  0  0  0  0  0  0  0  0  0  0  0
   46.8530   33.3840   37.3560 C   0  0  0  0  0  0  0  0  0  0  0  0
   47.6370   34.0750   37.0910 H   0  0  0  0  0  0  0  0  0  0  0  0
   46.1400   32.6430   36.4520 C   0  0  0  0  0  0  0  0  0  0  0  0
   45.1400   31.7760   36.9530 C   0  0  0  0  0  0  0  0  0  0  0  0
   45.2750   32.0780   38.8060 S   0  0  0  0  0  0  0  0  0  0  0  0
   45.8430   31.2170   47.8410 N   0  0  0  0  0  0  0  0  0  0  0  0
   45.1610   30.6810   48.9470 C   0  0  0  0  0  0  0  0  0  0  0  0
   44.6180   31.4080   49.8540 O   0  0  0  0  0  0  0  0  0  0  0  0
   45.1080   29.2540   48.9820 N   0  0  0  0  0  0  0  0  0  0  0  0
   45.1990   31.0680   46.9760 H   0  0  0  0  0  0  0  0  0  0  0  0
   44.7050   28.6400   48.2200 H   0  0  0  0  0  0  0  0  0  0  0  0
   45.3730   28.4430   49.6070 H   0  0  0  0  0  0  0  0  0  0  0  0
  1  7  1  6  0  0  0
  1  6  1  0  0  0  0
  2  1  1  0  0  0  0
  2  3  1  0  0  0  0
  3  4  1  0  0  0  0
  4 12  1  0  0  0  0
  4  5  1  0  0  0  0
  4 13  1  0  0  0  0
  5 15  1  0  0  0  0
  6 40  1  0  0  0  0
  6 16  1  1  0  0  0
  6  5  1  0  0  0  0
  8  2  1  0  0  0  0
  9  2  1  0  0  0  0
 10  3  1  0  0  0  0
 11  3  1  0  0  0  0
 14  5  1  0  0  0  0
 17 18  1  0  0  0  0
 17  1  1  0  0  0  0
 18 23  1  0  0  0  0
 19 24  1  0  0  0  0
 19 18  2  0  0  0  0
 20 19  1  0  0  0  0
 21 20  2  0  0  0  0
 21 22  1  0  0  0  0
 22 17  2  0  0  0  0
 25 21  1  0  0  0  0
 26 25  1  0  0  0  0
 26 31  1  0  0  0  0
 27 26  2  0  0  0  0
 28 29  2  0  0  0  0
 28 27  1  0  0  0  0
 29 30  1  0  0  0  0
 30 25  2  0  0  0  0
 32 27  1  0  0  0  0
 33 28  1  0  0  0  0
 34 39  1  0  0  0  0
 34 29  1  0  0  0  0
 35 34  2  0  0  0  0
 36 35  1  0  0  0  0
 37 38  2  0  0  0  0
 37 35  1  0  0  0  0
 38 39  1  0  0  0  0
 40 41  1  0  0  0  0
 41 43  1  0  0  0  0
 41 42  2  0  0  0  0
 43 46  1  0  0  0  0
 44 40  1  0  0  0  0
 45 43  1  0  0  0  0
M  END
>  <minimizedAffinity>
-6.32672071

>  <minimizedRMSD>
0.245244041

$$$$
