
 OpenBabel03242519033D

 29 31  0  0  1  0  0  0  0  0999 V2000
   47.0800   34.2500   42.4290 N   0  0  0  0  0  0  0  0  0  0  0  0
   47.6340   35.0620   41.3710 C   0  0  0  0  0  0  0  0  0  0  0  0
   47.3810   34.1250   40.2210 C   0  0  2  0  0  0  0  0  0  0  0  0
   47.9890   32.8510   40.7420 C   0  0  0  0  0  0  0  0  0  0  0  0
   47.5750   32.8910   42.2110 C   0  0  0  0  0  0  0  0  0  0  0  0
   47.0810   36.0010   41.2030 H   0  0  0  0  0  0  0  0  0  0  0  0
   48.7240   35.1930   41.4600 H   0  0  0  0  0  0  0  0  0  0  0  0
   46.3000   33.9940   40.0060 H   0  0  0  0  0  0  0  0  0  0  0  0
   49.0820   32.8970   40.7140 H   0  0  0  0  0  0  0  0  0  0  0  0
   47.5800   31.9550   40.2530 H   0  0  0  0  0  0  0  0  0  0  0  0
   48.3880   32.6080   42.8810 H   0  0  0  0  0  0  0  0  0  0  0  0
   46.6830   32.2230   42.3290 H   0  0  0  0  0  0  0  0  0  0  0  0
   44.5500   35.8520   44.6390 C   0  0  0  0  0  0  0  0  0  0  0  0
   45.3350   35.6370   43.5060 C   0  0  0  0  0  0  0  0  0  0  0  0
   46.2320   34.5780   43.4990 C   0  0  0  0  0  0  0  0  0  0  0  0
   46.2790   33.8070   44.6260 N   0  0  0  0  0  0  0  0  0  0  0  0
   45.5250   34.0090   45.7190 C   0  0  0  0  0  0  0  0  0  0  0  0
   44.6440   35.0590   45.7140 N   0  0  0  0  0  0  0  0  0  0  0  0
   43.8860   36.7040   44.5390 H   0  0  0  0  0  0  0  0  0  0  0  0
   45.2930   36.2490   42.6200 H   0  0  0  0  0  0  0  0  0  0  0  0
   45.6120   33.3610   46.5800 H   0  0  0  0  0  0  0  0  0  0  0  0
   48.1330   34.5230   39.0630 N   0  0  0  0  0  0  0  0  0  0  0  0
   48.7810   35.3350   39.1090 H   0  0  0  0  0  0  0  0  0  0  0  0
   48.0240   33.8440   37.8620 C   0  0  0  0  0  0  0  0  0  0  0  0
   48.9450   33.5760   36.9150 C   0  0  0  0  0  0  0  0  0  0  0  0
   49.9620   33.9190   37.0510 H   0  0  0  0  0  0  0  0  0  0  0  0
   48.5930   32.8750   35.7950 C   0  0  0  0  0  0  0  0  0  0  0  0
   47.2370   32.4660   35.7040 C   0  0  0  0  0  0  0  0  0  0  0  0
   46.4780   33.1190   37.2840 S   0  0  0  0  0  0  0  0  0  0  0  0
  1 15  1  0  0  0  0
  2  7  1  0  0  0  0
  2  1  1  0  0  0  0
  3  8  1  6  0  0  0
  3  4  1  0  0  0  0
  3  2  1  0  0  0  0
  4  5  1  0  0  0  0
  5 12  1  0  0  0  0
  5  1  1  0  0  0  0
  5 11  1  0  0  0  0
  6  2  1  0  0  0  0
  9  4  1  0  0  0  0
 10  4  1  0  0  0  0
 13 18  1  0  0  0  0
 14 13  2  0  0  0  0
 15 14  1  0  0  0  0
 15 16  2  0  0  0  0
 16 17  1  0  0  0  0
 17 21  1  0  0  0  0
 18 17  2  0  0  0  0
 19 13  1  0  0  0  0
 20 14  1  0  0  0  0
 22 23  1  0  0  0  0
 22  3  1  0  0  0  0
 24 22  1  0  0  0  0
 25 26  1  0  0  0  0
 25 24  2  0  0  0  0
 27 25  1  0  0  0  0
 28 27  2  0  0  0  0
 28 29  1  0  0  0  0
 29 24  1  0  0  0  0
M  END
>  <minimizedAffinity>
-4.77531147

>  <minimizedRMSD>
0.603191018

$$$$
