
 OpenBabel03242510583D

 33 35  0  0  0  0  0  0  0  0999 V2000
   39.6730   32.2890   40.3220 C   0  0  0  0  0  0  0  0  0  0  0  0
   38.6660   33.1470   39.8280 C   0  0  0  0  0  0  0  0  0  0  0  0
   37.3210   32.8330   39.8470 C   0  0  0  0  0  0  0  0  0  0  0  0
   36.9640   31.6170   40.3810 C   0  0  0  0  0  0  0  0  0  0  0  0
   37.9570   30.7700   40.8690 C   0  0  0  0  0  0  0  0  0  0  0  0
   39.2370   31.1320   40.8200 N   0  0  0  0  0  0  0  0  0  0  0  0
   38.9820   34.1000   39.4130 H   0  0  0  0  0  0  0  0  0  0  0  0
   36.6100   33.5400   39.4500 H   0  0  0  0  0  0  0  0  0  0  0  0
   35.9080   31.3720   40.3950 H   0  0  0  0  0  0  0  0  0  0  0  0
   44.9680   34.2720   42.4270 C   0  0  0  0  0  0  0  0  0  0  0  0
   45.6170   34.4320   41.1870 C   0  0  0  0  0  0  0  0  0  0  0  0
   44.8690   34.1870   40.0180 C   0  0  0  0  0  0  0  0  0  0  0  0
   43.5640   33.8090   40.1350 N   0  0  0  0  0  0  0  0  0  0  0  0
   42.9910   33.6700   41.3480 C   0  0  0  0  0  0  0  0  0  0  0  0
   43.6910   33.9020   42.5000 N   0  0  0  0  0  0  0  0  0  0  0  0
   41.0580   32.7100   40.2570 C   0  0  0  0  0  0  0  0  0  0  0  0
   41.6760   32.5580   39.1610 O   0  0  0  0  0  0  0  0  0  0  0  0
   41.6210   33.2720   41.4550 N   0  0  0  0  0  0  0  0  0  0  0  0
   45.5860   34.4740   43.2940 H   0  0  0  0  0  0  0  0  0  0  0  0
   46.6550   34.7330   41.1350 H   0  0  0  0  0  0  0  0  0  0  0  0
   45.3240   34.2970   39.0430 H   0  0  0  0  0  0  0  0  0  0  0  0
   41.1150   33.3950   42.3490 H   0  0  0  0  0  0  0  0  0  0  0  0
   37.5710   29.4900   41.4320 C   0  0  0  0  0  3  0  0  0  0  0  0
   37.5900   29.3100   42.7380 C   0  0  0  0  0  3  0  0  0  0  0  0
   37.2270   28.0600   43.4610 C   0  0  0  0  0  0  0  0  0  0  0  0
   37.0950   28.2560   44.5240 H   0  0  0  0  0  0  0  0  0  0  0  0
   36.2990   27.6430   43.0000 H   0  0  0  0  0  0  0  0  0  0  0  0
   38.2690   27.0000   43.2860 C   0  0  0  0  0  0  0  0  0  0  0  0
   39.5140   26.9000   43.8560 C   0  0  0  0  0  0  0  0  0  0  0  0
   39.8260   27.6790   44.5340 H   0  0  0  0  0  0  0  0  0  0  0  0
   40.3170   25.8380   43.5610 C   0  0  0  0  0  3  0  0  0  0  0  0
   39.8050   24.8500   42.6420 C   0  0  0  0  0  3  0  0  0  0  0  0
   38.0850   25.5330   42.2180 S   0  0  0  0  0  0  0  0  0  0  0  0
  1  6  1  0  0  0  0
  2  3  1  0  0  0  0
  2  1  2  0  0  0  0
  3  4  2  0  0  0  0
  4  9  1  0  0  0  0
  4  5  1  0  0  0  0
  5 23  1  0  0  0  0
  6  5  2  0  0  0  0
  7  2  1  0  0  0  0
  8  3  1  0  0  0  0
 10 15  1  0  0  0  0
 10 19  1  0  0  0  0
 11 10  2  0  0  0  0
 12 13  2  0  0  0  0
 12 11  1  0  0  0  0
 13 14  1  0  0  0  0
 14 18  1  0  0  0  0
 14 15  2  0  0  0  0
 16  1  1  0  0  0  0
 16 18  1  0  0  0  0
 17 16  2  0  0  0  0
 18 22  1  0  0  0  0
 20 11  1  0  0  0  0
 21 12  1  0  0  0  0
 23 24  2  0  0  0  0
 24 25  1  0  0  0  0
 25 26  1  0  0  0  0
 27 25  1  0  0  0  0
 28 25  1  0  0  0  0
 28 29  2  0  0  0  0
 29 30  1  0  0  0  0
 31 29  1  0  0  0  0
 32 31  2  0  0  0  0
 33 32  1  0  0  0  0
 33 28  1  0  0  0  0
M  END
>  <minimizedAffinity>
-5.86249733

$$$$

 OpenBabel03242510583D

 33 35  0  0  0  0  0  0  0  0999 V2000
   39.2530   30.9400   38.5780 C   0  0  0  0  0  0  0  0  0  0  0  0
   38.4860   32.0820   38.2610 C   0  0  0  0  0  0  0  0  0  0  0  0
   37.3370   32.4400   38.9390 C   0  0  0  0  0  0  0  0  0  0  0  0
   36.9370   31.6290   39.9760 C   0  0  0  0  0  0  0  0  0  0  0  0
   37.6930   30.5020   40.2900 C   0  0  0  0  0  0  0  0  0  0  0  0
   38.7920   30.2120   39.5950 N   0  0  0  0  0  0  0  0  0  0  0  0
   38.8300   32.7010   37.4360 H   0  0  0  0  0  0  0  0  0  0  0  0
   36.8030   33.3280   38.6380 H   0  0  0  0  0  0  0  0  0  0  0  0
   36.0350   31.9130   40.5070 H   0  0  0  0  0  0  0  0  0  0  0  0
   44.8690   31.7590   36.5300 C   0  0  0  0  0  0  0  0  0  0  0  0
   44.8760   30.7200   35.5780 C   0  0  0  0  0  0  0  0  0  0  0  0
   43.6850   29.9910   35.3930 C   0  0  0  0  0  0  0  0  0  0  0  0
   42.5880   30.3170   36.1340 N   0  0  0  0  0  0  0  0  0  0  0  0
   42.6340   31.3210   37.0320 C   0  0  0  0  0  0  0  0  0  0  0  0
   43.7760   32.0480   37.2340 N   0  0  0  0  0  0  0  0  0  0  0  0
   40.4450   30.6490   37.8060 C   0  0  0  0  0  0  0  0  0  0  0  0
   40.4990   29.5430   37.1890 O   0  0  0  0  0  0  0  0  0  0  0  0
   41.4760   31.6510   37.8040 N   0  0  0  0  0  0  0  0  0  0  0  0
   45.8080   32.2890   36.6340 H   0  0  0  0  0  0  0  0  0  0  0  0
   45.7680   30.4920   35.0090 H   0  0  0  0  0  0  0  0  0  0  0  0
   43.6420   29.1850   34.6730 H   0  0  0  0  0  0  0  0  0  0  0  0
   41.4290   32.5530   38.3080 H   0  0  0  0  0  0  0  0  0  0  0  0
   37.2660   29.6550   41.3860 C   0  0  0  0  0  3  0  0  0  0  0  0
   38.1310   29.2780   42.3060 C   0  0  0  0  0  3  0  0  0  0  0  0
   37.8450   28.4110   43.4830 C   0  0  0  0  0  0  0  0  0  0  0  0
   38.2260   28.8650   44.3960 H   0  0  0  0  0  0  0  0  0  0  0  0
   36.7420   28.2400   43.5360 H   0  0  0  0  0  0  0  0  0  0  0  0
   38.4500   27.0510   43.3250 C   0  0  0  0  0  0  0  0  0  0  0  0
   39.6060   26.5440   43.8660 C   0  0  0  0  0  0  0  0  0  0  0  0
   40.1930   27.1870   44.5020 H   0  0  0  0  0  0  0  0  0  0  0  0
   39.9800   25.2610   43.5940 C   0  0  0  0  0  3  0  0  0  0  0  0
   39.1230   24.4840   42.7320 C   0  0  0  0  0  3  0  0  0  0  0  0
   37.7290   25.7060   42.3250 S   0  0  0  0  0  0  0  0  0  0  0  0
  1  6  1  0  0  0  0
  2  1  2  0  0  0  0
  2  3  1  0  0  0  0
  3  4  2  0  0  0  0
  4  5  1  0  0  0  0
  4  9  1  0  0  0  0
  5 23  1  0  0  0  0
  6  5  2  0  0  0  0
  7  2  1  0  0  0  0
  8  3  1  0  0  0  0
 10 19  1  0  0  0  0
 10 15  1  0  0  0  0
 11 10  2  0  0  0  0
 12 11  1  0  0  0  0
 12 13  2  0  0  0  0
 13 14  1  0  0  0  0
 14 15  2  0  0  0  0
 14 18  1  0  0  0  0
 16  1  1  0  0  0  0
 17 16  2  0  0  0  0
 18 16  1  0  0  0  0
 18 22  1  0  0  0  0
 20 11  1  0  0  0  0
 21 12  1  0  0  0  0
 23 24  2  0  0  0  0
 24 25  1  0  0  0  0
 25 27  1  0  0  0  0
 25 26  1  0  0  0  0
 28 25  1  0  0  0  0
 28 29  2  0  0  0  0
 29 30  1  0  0  0  0
 31 29  1  0  0  0  0
 32 31  2  0  0  0  0
 33 32  1  0  0  0  0
 33 28  1  0  0  0  0
M  END
>  <minimizedAffinity>
-5.56035995

$$$$

 OpenBabel03242510583D

 33 35  0  0  0  0  0  0  0  0999 V2000
   37.8570   30.5730   40.6100 C   0  0  0  0  0  0  0  0  0  0  0  0
   36.5540   30.8510   40.1450 C   0  0  0  0  0  0  0  0  0  0  0  0
   35.4880   29.9870   40.3020 C   0  0  0  0  0  0  0  0  0  0  0  0
   35.7300   28.7980   40.9490 C   0  0  0  0  0  0  0  0  0  0  0  0
   37.0160   28.5220   41.4090 C   0  0  0  0  0  0  0  0  0  0  0  0
   38.0010   29.3990   41.2240 N   0  0  0  0  0  0  0  0  0  0  0  0
   36.3970   31.8000   39.6370 H   0  0  0  0  0  0  0  0  0  0  0  0
   34.5200   30.2690   39.9180 H   0  0  0  0  0  0  0  0  0  0  0  0
   34.8920   28.1200   41.0720 H   0  0  0  0  0  0  0  0  0  0  0  0
   42.0110   33.6540   37.5020 C   0  0  0  0  0  0  0  0  0  0  0  0
   42.5720   34.3600   38.5850 C   0  0  0  0  0  0  0  0  0  0  0  0
   42.0880   34.0740   39.8760 C   0  0  0  0  0  0  0  0  0  0  0  0
   41.1070   33.1380   40.0230 N   0  0  0  0  0  0  0  0  0  0  0  0
   40.6040   32.4900   38.9530 C   0  0  0  0  0  0  0  0  0  0  0  0
   41.0550   32.7450   37.6860 N   0  0  0  0  0  0  0  0  0  0  0  0
   38.9100   31.5460   40.3960 C   0  0  0  0  0  0  0  0  0  0  0  0
   39.1740   32.3540   41.3370 O   0  0  0  0  0  0  0  0  0  0  0  0
   39.5750   31.5120   39.1220 N   0  0  0  0  0  0  0  0  0  0  0  0
   42.4180   33.9090   36.5310 H   0  0  0  0  0  0  0  0  0  0  0  0
   43.3490   35.0960   38.4280 H   0  0  0  0  0  0  0  0  0  0  0  0
   42.4880   34.5910   40.7390 H   0  0  0  0  0  0  0  0  0  0  0  0
   39.3580   30.8510   38.3560 H   0  0  0  0  0  0  0  0  0  0  0  0
   37.2620   27.2670   42.0930 C   0  0  0  0  0  3  0  0  0  0  0  0
   37.0350   26.1230   41.4780 C   0  0  0  0  0  3  0  0  0  0  0  0
   37.2360   24.7610   42.0460 C   0  0  0  0  0  0  0  0  0  0  0  0
   38.1880   24.7000   42.5700 H   0  0  0  0  0  0  0  0  0  0  0  0
   36.3760   24.5320   42.7230 H   0  0  0  0  0  0  0  0  0  0  0  0
   37.1950   23.7100   40.9830 C   0  0  0  0  0  0  0  0  0  0  0  0
   38.0980   22.7120   40.7090 C   0  0  0  0  0  0  0  0  0  0  0  0
   38.9790   22.6420   41.3260 H   0  0  0  0  0  0  0  0  0  0  0  0
   37.8660   21.8450   39.6820 C   0  0  0  0  0  3  0  0  0  0  0  0
   36.6560   22.0240   38.9170 C   0  0  0  0  0  3  0  0  0  0  0  0
   35.8530   23.5230   39.7600 S   0  0  0  0  0  0  0  0  0  0  0  0
  1  6  1  0  0  0  0
  2  3  1  0  0  0  0
  2  1  2  0  0  0  0
  3  4  2  0  0  0  0
  4  9  1  0  0  0  0
  4  5  1  0  0  0  0
  5 23  1  0  0  0  0
  6  5  2  0  0  0  0
  7  2  1  0  0  0  0
  8  3  1  0  0  0  0
 10 15  2  0  0  0  0
 10 11  1  0  0  0  0
 11 12  2  0  0  0  0
 12 13  1  0  0  0  0
 12 21  1  0  0  0  0
 14 18  1  0  0  0  0
 14 13  2  0  0  0  0
 15 14  1  0  0  0  0
 16  1  1  0  0  0  0
 16 17  2  0  0  0  0
 18 16  1  0  0  0  0
 19 10  1  0  0  0  0
 20 11  1  0  0  0  0
 22 18  1  0  0  0  0
 24 25  1  0  0  0  0
 24 23  2  0  0  0  0
 25 26  1  0  0  0  0
 25 27  1  0  0  0  0
 28 25  1  0  0  0  0
 29 28  2  0  0  0  0
 29 30  1  0  0  0  0
 31 29  1  0  0  0  0
 32 31  2  0  0  0  0
 32 33  1  0  0  0  0
 33 28  1  0  0  0  0
M  END
>  <minimizedAffinity>
-5.48049402

$$$$

 OpenBabel03242510583D

 33 35  0  0  0  0  0  0  0  0999 V2000
   39.5640   32.2630   40.0790 C   0  0  0  0  0  0  0  0  0  0  0  0
   38.4400   33.0180   39.6820 C   0  0  0  0  0  0  0  0  0  0  0  0
   37.1370   32.6040   39.8760 C   0  0  0  0  0  0  0  0  0  0  0  0
   36.9450   31.3880   40.4910 C   0  0  0  0  0  0  0  0  0  0  0  0
   38.0540   30.6420   40.8830 C   0  0  0  0  0  0  0  0  0  0  0  0
   39.2860   31.0990   40.6660 N   0  0  0  0  0  0  0  0  0  0  0  0
   38.6260   33.9740   39.1990 H   0  0  0  0  0  0  0  0  0  0  0  0
   36.3280   33.2370   39.5440 H   0  0  0  0  0  0  0  0  0  0  0  0
   35.9210   31.0650   40.6420 H   0  0  0  0  0  0  0  0  0  0  0  0
   44.9150   32.7230   37.3300 C   0  0  0  0  0  0  0  0  0  0  0  0
   45.4990   33.6580   38.2080 C   0  0  0  0  0  0  0  0  0  0  0  0
   44.7560   34.0500   39.3380 C   0  0  0  0  0  0  0  0  0  0  0  0
   43.5160   33.5160   39.5320 N   0  0  0  0  0  0  0  0  0  0  0  0
   43.0030   32.6250   38.6610 C   0  0  0  0  0  0  0  0  0  0  0  0
   43.7010   32.2240   37.5550 N   0  0  0  0  0  0  0  0  0  0  0  0
   40.8940   32.7840   39.8320 C   0  0  0  0  0  0  0  0  0  0  0  0
   41.2550   33.8200   40.4670 O   0  0  0  0  0  0  0  0  0  0  0  0
   41.7000   32.0740   38.8760 N   0  0  0  0  0  0  0  0  0  0  0  0
   45.5280   32.4540   36.4780 H   0  0  0  0  0  0  0  0  0  0  0  0
   46.4860   34.0590   38.0200 H   0  0  0  0  0  0  0  0  0  0  0  0
   45.1620   34.7650   40.0410 H   0  0  0  0  0  0  0  0  0  0  0  0
   41.4030   31.2290   38.3590 H   0  0  0  0  0  0  0  0  0  0  0  0
   37.8430   29.3630   41.5330 C   0  0  0  0  0  3  0  0  0  0  0  0
   37.4750   29.3160   42.7980 C   0  0  0  0  0  3  0  0  0  0  0  0
   37.2250   28.0870   43.5990 C   0  0  0  0  0  0  0  0  0  0  0  0
   37.2120   28.3180   44.6630 H   0  0  0  0  0  0  0  0  0  0  0  0
   36.2590   27.6370   43.2620 H   0  0  0  0  0  0  0  0  0  0  0  0
   38.2620   27.0400   43.3400 C   0  0  0  0  0  0  0  0  0  0  0  0
   39.5240   26.9150   43.8670 C   0  0  0  0  0  0  0  0  0  0  0  0
   39.8560   27.6600   44.5730 H   0  0  0  0  0  0  0  0  0  0  0  0
   40.3190   25.8710   43.4950 C   0  0  0  0  0  3  0  0  0  0  0  0
   39.7800   24.9280   42.5440 C   0  0  0  0  0  3  0  0  0  0  0  0
   38.0480   25.6270   42.2070 S   0  0  0  0  0  0  0  0  0  0  0  0
  1  6  1  0  0  0  0
  2  3  1  0  0  0  0
  2  1  2  0  0  0  0
  3  4  2  0  0  0  0
  4  9  1  0  0  0  0
  4  5  1  0  0  0  0
  5 23  1  0  0  0  0
  6  5  2  0  0  0  0
  7  2  1  0  0  0  0
  8  3  1  0  0  0  0
 10 15  2  0  0  0  0
 10 11  1  0  0  0  0
 11 12  2  0  0  0  0
 12 13  1  0  0  0  0
 12 21  1  0  0  0  0
 14 18  1  0  0  0  0
 14 13  2  0  0  0  0
 15 14  1  0  0  0  0
 16  1  1  0  0  0  0
 16 17  2  0  0  0  0
 18 16  1  0  0  0  0
 19 10  1  0  0  0  0
 20 11  1  0  0  0  0
 22 18  1  0  0  0  0
 23 24  2  0  0  0  0
 24 25  1  0  0  0  0
 25 26  1  0  0  0  0
 27 25  1  0  0  0  0
 28 25  1  0  0  0  0
 28 29  2  0  0  0  0
 29 30  1  0  0  0  0
 31 29  1  0  0  0  0
 32 31  2  0  0  0  0
 33 32  1  0  0  0  0
 33 28  1  0  0  0  0
M  END
>  <minimizedAffinity>
-5.43949318

$$$$

 OpenBabel03242510583D

 33 35  0  0  0  0  0  0  0  0999 V2000
   39.5950   31.1920   38.2080 C   0  0  0  0  0  0  0  0  0  0  0  0
   38.5450   31.6450   37.3790 C   0  0  0  0  0  0  0  0  0  0  0  0
   37.2080   31.4690   37.6780 C   0  0  0  0  0  0  0  0  0  0  0  0
   36.9040   30.8150   38.8490 C   0  0  0  0  0  0  0  0  0  0  0  0
   37.9390   30.3670   39.6680 C   0  0  0  0  0  0  0  0  0  0  0  0
   39.2090   30.5700   39.3210 N   0  0  0  0  0  0  0  0  0  0  0  0
   38.8200   32.1580   36.4610 H   0  0  0  0  0  0  0  0  0  0  0  0
   36.4620   31.8430   36.9940 H   0  0  0  0  0  0  0  0  0  0  0  0
   35.8540   30.6770   39.0820 H   0  0  0  0  0  0  0  0  0  0  0  0
   44.6790   30.3290   35.0760 C   0  0  0  0  0  0  0  0  0  0  0  0
   45.4930   31.2370   35.7830 C   0  0  0  0  0  0  0  0  0  0  0  0
   44.9320   31.8910   36.8980 C   0  0  0  0  0  0  0  0  0  0  0  0
   43.6400   31.6220   37.2420 N   0  0  0  0  0  0  0  0  0  0  0  0
   42.9040   30.7430   36.5310 C   0  0  0  0  0  0  0  0  0  0  0  0
   43.4210   30.0920   35.4440 N   0  0  0  0  0  0  0  0  0  0  0  0
   40.9670   31.4270   37.8070 C   0  0  0  0  0  0  0  0  0  0  0  0
   41.5590   32.4450   38.2750 O   0  0  0  0  0  0  0  0  0  0  0  0
   41.5500   30.4720   36.9030 N   0  0  0  0  0  0  0  0  0  0  0  0
   45.1570   29.8520   34.2290 H   0  0  0  0  0  0  0  0  0  0  0  0
   46.5140   31.4240   35.4790 H   0  0  0  0  0  0  0  0  0  0  0  0
   45.5180   32.5960   37.4720 H   0  0  0  0  0  0  0  0  0  0  0  0
   41.0650   29.6410   36.5220 H   0  0  0  0  0  0  0  0  0  0  0  0
   37.6090   29.6820   40.9020 C   0  0  0  0  0  3  0  0  0  0  0  0
   36.9740   28.5280   40.8690 C   0  0  0  0  0  3  0  0  0  0  0  0
   36.5660   27.7100   42.0450 C   0  0  0  0  0  0  0  0  0  0  0  0
   36.6830   28.2780   42.9660 H   0  0  0  0  0  0  0  0  0  0  0  0
   35.5100   27.3790   41.8940 H   0  0  0  0  0  0  0  0  0  0  0  0
   37.3670   26.4500   42.1430 C   0  0  0  0  0  0  0  0  0  0  0  0
   36.9390   25.1450   42.1550 C   0  0  0  0  0  0  0  0  0  0  0  0
   35.8800   24.9570   42.0870 H   0  0  0  0  0  0  0  0  0  0  0  0
   37.8460   24.1310   42.2500 C   0  0  0  0  0  3  0  0  0  0  0  0
   39.2420   24.4880   42.3360 C   0  0  0  0  0  3  0  0  0  0  0  0
   39.1860   26.3850   42.2700 S   0  0  0  0  0  0  0  0  0  0  0  0
  1  6  1  0  0  0  0
  2  3  1  0  0  0  0
  2  1  2  0  0  0  0
  3  4  2  0  0  0  0
  4  9  1  0  0  0  0
  4  5  1  0  0  0  0
  5 23  1  0  0  0  0
  6  5  2  0  0  0  0
  7  2  1  0  0  0  0
  8  3  1  0  0  0  0
 10 15  2  0  0  0  0
 10 11  1  0  0  0  0
 11 12  2  0  0  0  0
 12 13  1  0  0  0  0
 12 21  1  0  0  0  0
 14 18  1  0  0  0  0
 14 13  2  0  0  0  0
 15 14  1  0  0  0  0
 16  1  1  0  0  0  0
 16 17  2  0  0  0  0
 18 16  1  0  0  0  0
 19 10  1  0  0  0  0
 20 11  1  0  0  0  0
 22 18  1  0  0  0  0
 24 23  2  0  0  0  0
 24 25  1  0  0  0  0
 25 28  1  0  0  0  0
 25 26  1  0  0  0  0
 27 25  1  0  0  0  0
 28 29  2  0  0  0  0
 28 33  1  0  0  0  0
 29 31  1  0  0  0  0
 30 29  1  0  0  0  0
 31 32  2  0  0  0  0
 33 32  1  0  0  0  0
M  END
>  <minimizedAffinity>
-5.38318586

$$$$

 OpenBabel03242510583D

 33 35  0  0  0  0  0  0  0  0999 V2000
   34.1710   28.0390   37.6490 C   0  0  0  0  0  0  0  0  0  0  0  0
   34.3220   26.7510   37.0910 C   0  0  0  0  0  0  0  0  0  0  0  0
   35.2650   25.8390   37.5240 C   0  0  0  0  0  0  0  0  0  0  0  0
   36.0890   26.2250   38.5550 C   0  0  0  0  0  0  0  0  0  0  0  0
   35.9410   27.4960   39.1070 C   0  0  0  0  0  0  0  0  0  0  0  0
   35.0110   28.3290   38.6420 N   0  0  0  0  0  0  0  0  0  0  0  0
   33.6540   26.4780   36.2780 H   0  0  0  0  0  0  0  0  0  0  0  0
   35.3210   24.8730   37.0470 H   0  0  0  0  0  0  0  0  0  0  0  0
   36.8290   25.5080   38.8940 H   0  0  0  0  0  0  0  0  0  0  0  0
   29.2580   31.5380   37.7980 C   0  0  0  0  0  0  0  0  0  0  0  0
   29.1740   31.8060   36.4170 C   0  0  0  0  0  0  0  0  0  0  0  0
   30.1020   31.1710   35.5690 C   0  0  0  0  0  0  0  0  0  0  0  0
   31.0320   30.3350   36.1120 N   0  0  0  0  0  0  0  0  0  0  0  0
   31.0680   30.1130   37.4420 C   0  0  0  0  0  0  0  0  0  0  0  0
   30.1800   30.7140   38.2910 N   0  0  0  0  0  0  0  0  0  0  0  0
   33.1500   28.9250   37.1250 C   0  0  0  0  0  0  0  0  0  0  0  0
   33.2910   29.3620   35.9430 O   0  0  0  0  0  0  0  0  0  0  0  0
   32.0500   29.2340   37.9980 N   0  0  0  0  0  0  0  0  0  0  0  0
   28.5210   32.0490   38.4070 H   0  0  0  0  0  0  0  0  0  0  0  0
   28.4210   32.4760   36.0240 H   0  0  0  0  0  0  0  0  0  0  0  0
   30.0770   31.3460   34.5010 H   0  0  0  0  0  0  0  0  0  0  0  0
   31.9380   28.8760   38.9620 H   0  0  0  0  0  0  0  0  0  0  0  0
   36.8130   27.8940   40.1950 C   0  0  0  0  0  3  0  0  0  0  0  0
   36.5330   27.5340   41.4320 C   0  0  0  0  0  3  0  0  0  0  0  0
   37.3250   27.8660   42.6480 C   0  0  0  0  0  0  0  0  0  0  0  0
   37.7980   28.8410   42.5450 H   0  0  0  0  0  0  0  0  0  0  0  0
   36.6440   27.8280   43.5330 H   0  0  0  0  0  0  0  0  0  0  0  0
   38.3800   26.8390   42.9150 C   0  0  0  0  0  0  0  0  0  0  0  0
   39.5130   26.9340   43.6860 C   0  0  0  0  0  0  0  0  0  0  0  0
   39.7090   27.8680   44.1880 H   0  0  0  0  0  0  0  0  0  0  0  0
   40.3520   25.8650   43.8000 C   0  0  0  0  0  3  0  0  0  0  0  0
   39.9990   24.6590   43.0890 C   0  0  0  0  0  3  0  0  0  0  0  0
   38.3750   25.1460   42.2350 S   0  0  0  0  0  0  0  0  0  0  0  0
  1  6  1  0  0  0  0
  2  3  1  0  0  0  0
  2  1  2  0  0  0  0
  3  4  2  0  0  0  0
  4  9  1  0  0  0  0
  4  5  1  0  0  0  0
  5 23  1  0  0  0  0
  6  5  2  0  0  0  0
  7  2  1  0  0  0  0
  8  3  1  0  0  0  0
 10 15  1  0  0  0  0
 10 19  1  0  0  0  0
 11 10  2  0  0  0  0
 12 13  2  0  0  0  0
 12 11  1  0  0  0  0
 13 14  1  0  0  0  0
 14 18  1  0  0  0  0
 14 15  2  0  0  0  0
 16  1  1  0  0  0  0
 16 18  1  0  0  0  0
 17 16  2  0  0  0  0
 18 22  1  0  0  0  0
 20 11  1  0  0  0  0
 21 12  1  0  0  0  0
 23 24  2  0  0  0  0
 24 25  1  0  0  0  0
 25 28  1  0  0  0  0
 25 27  1  0  0  0  0
 26 25  1  0  0  0  0
 28 29  2  0  0  0  0
 29 31  1  0  0  0  0
 29 30  1  0  0  0  0
 32 31  2  0  0  0  0
 33 28  1  0  0  0  0
 33 32  1  0  0  0  0
M  END
>  <minimizedAffinity>
-5.3719635

$$$$

 OpenBabel03242510583D

 33 35  0  0  0  0  0  0  0  0999 V2000
   39.6010   31.9040   39.7420 C   0  0  0  0  0  0  0  0  0  0  0  0
   38.6190   32.8760   39.4490 C   0  0  0  0  0  0  0  0  0  0  0  0
   37.2970   32.7630   39.8320 C   0  0  0  0  0  0  0  0  0  0  0  0
   36.9380   31.6370   40.5350 C   0  0  0  0  0  0  0  0  0  0  0  0
   37.9050   30.6770   40.8250 C   0  0  0  0  0  0  0  0  0  0  0  0
   39.1650   30.8470   40.4250 N   0  0  0  0  0  0  0  0  0  0  0  0
   38.9370   33.7540   38.8910 H   0  0  0  0  0  0  0  0  0  0  0  0
   36.6040   33.5470   39.5700 H   0  0  0  0  0  0  0  0  0  0  0  0
   35.8990   31.5490   40.8350 H   0  0  0  0  0  0  0  0  0  0  0  0
   45.1820   34.1920   39.8670 C   0  0  0  0  0  0  0  0  0  0  0  0
   45.6300   33.6650   38.6390 C   0  0  0  0  0  0  0  0  0  0  0  0
   44.7060   32.9430   37.8580 C   0  0  0  0  0  0  0  0  0  0  0  0
   43.4320   32.7880   38.3170 N   0  0  0  0  0  0  0  0  0  0  0  0
   43.0540   33.3140   39.4990 C   0  0  0  0  0  0  0  0  0  0  0  0
   43.9280   34.0200   40.2800 N   0  0  0  0  0  0  0  0  0  0  0  0
   40.9640   32.1150   39.2960 C   0  0  0  0  0  0  0  0  0  0  0  0
   41.4000   31.3910   38.3520 O   0  0  0  0  0  0  0  0  0  0  0  0
   41.7130   33.1420   39.9690 N   0  0  0  0  0  0  0  0  0  0  0  0
   45.9300   34.7390   40.4290 H   0  0  0  0  0  0  0  0  0  0  0  0
   46.6510   33.8090   38.3100 H   0  0  0  0  0  0  0  0  0  0  0  0
   45.0040   32.5190   36.9090 H   0  0  0  0  0  0  0  0  0  0  0  0
   41.3540   33.7320   40.7390 H   0  0  0  0  0  0  0  0  0  0  0  0
   37.5190   29.4940   41.5690 C   0  0  0  0  0  3  0  0  0  0  0  0
   37.9000   29.3470   42.8220 C   0  0  0  0  0  3  0  0  0  0  0  0
   37.5870   28.1940   43.7100 C   0  0  0  0  0  0  0  0  0  0  0  0
   38.1810   28.2380   44.6220 H   0  0  0  0  0  0  0  0  0  0  0  0
   36.4910   28.2060   43.9310 H   0  0  0  0  0  0  0  0  0  0  0  0
   37.8390   26.8870   43.0260 C   0  0  0  0  0  0  0  0  0  0  0  0
   36.9440   26.0160   42.4550 C   0  0  0  0  0  0  0  0  0  0  0  0
   35.8970   26.2720   42.4840 H   0  0  0  0  0  0  0  0  0  0  0  0
   37.3890   24.8660   41.8730 C   0  0  0  0  0  3  0  0  0  0  0  0
   38.8100   24.6160   41.8870 C   0  0  0  0  0  3  0  0  0  0  0  0
   39.4870   26.1420   42.7910 S   0  0  0  0  0  0  0  0  0  0  0  0
  1  6  1  0  0  0  0
  2  1  2  0  0  0  0
  2  3  1  0  0  0  0
  3  4  2  0  0  0  0
  4  5  1  0  0  0  0
  4  9  1  0  0  0  0
  5 23  1  0  0  0  0
  6  5  2  0  0  0  0
  7  2  1  0  0  0  0
  8  3  1  0  0  0  0
 10 15  1  0  0  0  0
 10 19  1  0  0  0  0
 11 10  2  0  0  0  0
 12 13  2  0  0  0  0
 12 11  1  0  0  0  0
 13 14  1  0  0  0  0
 14 18  1  0  0  0  0
 14 15  2  0  0  0  0
 16  1  1  0  0  0  0
 16 18  1  0  0  0  0
 17 16  2  0  0  0  0
 18 22  1  0  0  0  0
 20 11  1  0  0  0  0
 21 12  1  0  0  0  0
 23 24  2  0  0  0  0
 24 25  1  0  0  0  0
 25 27  1  0  0  0  0
 25 26  1  0  0  0  0
 28 25  1  0  0  0  0
 29 30  1  0  0  0  0
 29 28  2  0  0  0  0
 31 32  2  0  0  0  0
 31 29  1  0  0  0  0
 32 33  1  0  0  0  0
 33 28  1  0  0  0  0
M  END
>  <minimizedAffinity>
-5.35122681

$$$$

 OpenBabel03242510583D

 33 35  0  0  0  0  0  0  0  0999 V2000
   37.2960   30.8360   39.6400 C   0  0  0  0  0  0  0  0  0  0  0  0
   37.0420   30.1860   40.8670 C   0  0  0  0  0  0  0  0  0  0  0  0
   36.0610   29.2280   41.0330 C   0  0  0  0  0  0  0  0  0  0  0  0
   35.3030   28.9030   39.9320 C   0  0  0  0  0  0  0  0  0  0  0  0
   35.5540   29.5430   38.7200 C   0  0  0  0  0  0  0  0  0  0  0  0
   36.5160   30.4600   38.6280 N   0  0  0  0  0  0  0  0  0  0  0  0
   37.6580   30.4670   41.7180 H   0  0  0  0  0  0  0  0  0  0  0  0
   35.9250   28.7760   42.0030 H   0  0  0  0  0  0  0  0  0  0  0  0
   34.5340   28.1500   40.0640 H   0  0  0  0  0  0  0  0  0  0  0  0
   42.1540   33.6080   37.3790 C   0  0  0  0  0  0  0  0  0  0  0  0
   42.3480   34.5330   38.4240 C   0  0  0  0  0  0  0  0  0  0  0  0
   41.4970   34.4460   39.5430 C   0  0  0  0  0  0  0  0  0  0  0  0
   40.5330   33.4830   39.5680 N   0  0  0  0  0  0  0  0  0  0  0  0
   40.3900   32.6220   38.5400 C   0  0  0  0  0  0  0  0  0  0  0  0
   41.2010   32.6800   37.4400 N   0  0  0  0  0  0  0  0  0  0  0  0
   38.3500   31.8290   39.5680 C   0  0  0  0  0  0  0  0  0  0  0  0
   38.3020   32.8070   40.3720 O   0  0  0  0  0  0  0  0  0  0  0  0
   39.3720   31.6170   38.5790 N   0  0  0  0  0  0  0  0  0  0  0  0
   42.8350   33.7160   36.5430 H   0  0  0  0  0  0  0  0  0  0  0  0
   43.1260   35.2840   38.3680 H   0  0  0  0  0  0  0  0  0  0  0  0
   41.6070   35.1340   40.3710 H   0  0  0  0  0  0  0  0  0  0  0  0
   39.4090   30.8170   37.9240 H   0  0  0  0  0  0  0  0  0  0  0  0
   34.7530   29.1920   37.5630 C   0  0  0  0  0  3  0  0  0  0  0  0
   33.4910   28.8420   37.7140 C   0  0  0  0  0  3  0  0  0  0  0  0
   32.5470   28.4540   36.6300 C   0  0  0  0  0  0  0  0  0  0  0  0
   33.0670   27.9050   35.8460 H   0  0  0  0  0  0  0  0  0  0  0  0
   31.7220   27.8500   37.0800 H   0  0  0  0  0  0  0  0  0  0  0  0
   31.8800   29.6500   36.0270 C   0  0  0  0  0  0  0  0  0  0  0  0
   32.0620   30.2180   34.7890 C   0  0  0  0  0  0  0  0  0  0  0  0
   32.7820   29.7680   34.1260 H   0  0  0  0  0  0  0  0  0  0  0  0
   31.3400   31.3180   34.4310 C   0  0  0  0  0  3  0  0  0  0  0  0
   30.4000   31.8430   35.3930 C   0  0  0  0  0  3  0  0  0  0  0  0
   30.6070   30.6570   36.8610 S   0  0  0  0  0  0  0  0  0  0  0  0
  1  2  1  0  0  0  0
  2  3  2  0  0  0  0
  2  7  1  0  0  0  0
  3  8  1  0  0  0  0
  4  9  1  0  0  0  0
  4  3  1  0  0  0  0
  5  4  2  0  0  0  0
  6  5  1  0  0  0  0
  6  1  2  0  0  0  0
 10 15  2  0  0  0  0
 10 11  1  0  0  0  0
 11 12  2  0  0  0  0
 12 13  1  0  0  0  0
 12 21  1  0  0  0  0
 14 18  1  0  0  0  0
 14 13  2  0  0  0  0
 15 14  1  0  0  0  0
 16  1  1  0  0  0  0
 16 17  2  0  0  0  0
 18 16  1  0  0  0  0
 19 10  1  0  0  0  0
 20 11  1  0  0  0  0
 22 18  1  0  0  0  0
 23 24  2  0  0  0  0
 23  5  1  0  0  0  0
 25 27  1  0  0  0  0
 25 24  1  0  0  0  0
 26 25  1  0  0  0  0
 28 25  1  0  0  0  0
 28 33  1  0  0  0  0
 29 28  2  0  0  0  0
 30 29  1  0  0  0  0
 31 29  1  0  0  0  0
 31 32  2  0  0  0  0
 32 33  1  0  0  0  0
M  END
>  <minimizedAffinity>
-5.33817148

$$$$

 OpenBabel03242510583D

 33 35  0  0  0  0  0  0  0  0999 V2000
   37.9840   29.2190   41.8980 C   0  0  0  0  0  0  0  0  0  0  0  0
   37.6480   29.0940   43.2630 C   0  0  0  0  0  0  0  0  0  0  0  0
   37.2670   27.9020   43.8480 C   0  0  0  0  0  0  0  0  0  0  0  0
   37.2200   26.7890   43.0410 C   0  0  0  0  0  0  0  0  0  0  0  0
   37.5510   26.9110   41.6930 C   0  0  0  0  0  0  0  0  0  0  0  0
   37.9110   28.0920   41.1910 N   0  0  0  0  0  0  0  0  0  0  0  0
   37.6950   29.9930   43.8730 H   0  0  0  0  0  0  0  0  0  0  0  0
   37.0230   27.8850   44.8990 H   0  0  0  0  0  0  0  0  0  0  0  0
   36.9200   25.8550   43.5020 H   0  0  0  0  0  0  0  0  0  0  0  0
   41.7520   33.4940   39.9180 C   0  0  0  0  0  0  0  0  0  0  0  0
   40.8100   34.5340   39.7930 C   0  0  0  0  0  0  0  0  0  0  0  0
   39.4880   34.2750   40.2050 C   0  0  0  0  0  0  0  0  0  0  0  0
   39.1800   33.0430   40.7020 N   0  0  0  0  0  0  0  0  0  0  0  0
   40.1200   32.0830   40.8010 C   0  0  0  0  0  0  0  0  0  0  0  0
   41.4120   32.3040   40.4090 N   0  0  0  0  0  0  0  0  0  0  0  0
   38.3730   30.5150   41.3780 C   0  0  0  0  0  0  0  0  0  0  0  0
   37.4550   31.3090   41.0120 O   0  0  0  0  0  0  0  0  0  0  0  0
   39.7820   30.7940   41.3230 N   0  0  0  0  0  0  0  0  0  0  0  0
   42.7540   33.7450   39.5880 H   0  0  0  0  0  0  0  0  0  0  0  0
   41.0930   35.4990   39.3930 H   0  0  0  0  0  0  0  0  0  0  0  0
   38.7290   35.0420   40.1280 H   0  0  0  0  0  0  0  0  0  0  0  0
   40.5290   30.1450   41.6220 H   0  0  0  0  0  0  0  0  0  0  0  0
   37.5020   25.7330   40.8500 C   0  0  0  0  0  3  0  0  0  0  0  0
   37.5080   24.5310   41.3920 C   0  0  0  0  0  3  0  0  0  0  0  0
   37.4640   23.2340   40.6620 C   0  0  0  0  0  0  0  0  0  0  0  0
   38.4430   22.9920   40.2500 H   0  0  0  0  0  0  0  0  0  0  0  0
   37.1050   22.4450   41.3670 H   0  0  0  0  0  0  0  0  0  0  0  0
   36.4610   23.2600   39.5510 C   0  0  0  0  0  0  0  0  0  0  0  0
   35.0920   23.1720   39.6130 C   0  0  0  0  0  0  0  0  0  0  0  0
   34.6330   23.0650   40.5820 H   0  0  0  0  0  0  0  0  0  0  0  0
   34.3540   23.2200   38.4670 C   0  0  0  0  0  3  0  0  0  0  0  0
   35.0650   23.3650   37.2190 C   0  0  0  0  0  3  0  0  0  0  0  0
   36.8770   23.4300   37.7830 S   0  0  0  0  0  0  0  0  0  0  0  0
  1  2  1  0  0  0  0
  2  3  2  0  0  0  0
  2  7  1  0  0  0  0
  3  8  1  0  0  0  0
  4  9  1  0  0  0  0
  4  3  1  0  0  0  0
  5  4  2  0  0  0  0
  6  5  1  0  0  0  0
  6  1  2  0  0  0  0
 10 15  1  0  0  0  0
 11 10  2  0  0  0  0
 11 12  1  0  0  0  0
 12 13  2  0  0  0  0
 13 14  1  0  0  0  0
 14 18  1  0  0  0  0
 15 14  2  0  0  0  0
 16  1  1  0  0  0  0
 17 16  2  0  0  0  0
 18 16  1  0  0  0  0
 18 22  1  0  0  0  0
 19 10  1  0  0  0  0
 20 11  1  0  0  0  0
 21 12  1  0  0  0  0
 23 24  2  0  0  0  0
 23  5  1  0  0  0  0
 25 27  1  0  0  0  0
 25 24  1  0  0  0  0
 26 25  1  0  0  0  0
 28 29  2  0  0  0  0
 28 25  1  0  0  0  0
 29 30  1  0  0  0  0
 31 29  1  0  0  0  0
 32 33  1  0  0  0  0
 32 31  2  0  0  0  0
 33 28  1  0  0  0  0
M  END
>  <minimizedAffinity>
-5.33413458

$$$$
