REMARK  Name = 
REMARK  2 active torsions:
REMARK  status: ('A' for Active; 'I' for Inactive)
REMARK    1  A    between atoms: C_5  and  C_7
REMARK    2  A    between atoms: C_10  and  C_17
REMARK                            x       y       z     vdW  Elec       q    Type
REMARK                         _______ _______ _______ _____ _____    ______ ____
ROOT
ATOM      1  C   UNL     1      45.871  32.929  46.703  0.00  0.00    +0.000 A 
ATOM      2  C   UNL     1      45.138  32.784  47.907  0.00  0.00    +0.000 A 
ATOM      3  C   UNL     1      45.501  31.830  48.789  0.00  0.00    +0.000 A 
ATOM      4  C   UNL     1      46.607  31.003  48.482  0.00  0.00    +0.000 A 
ATOM      5  S   UNL     1      47.131  31.637  46.856  0.00  0.00    +0.000 S 
ATOM      6  H   UNL     1      44.294  33.443  48.103  0.00  0.00    +0.000 HD
ATOM      7  H   UNL     1      45.019  31.637  49.720  0.00  0.00    +0.000 HD
ENDROOT
BRANCH   1  12
ATOM      8  C   UNL     1      44.576  35.787  44.723  0.00  0.00    +0.000 A 
ATOM      9  C   UNL     1      45.274  35.572  43.506  0.00  0.00    +0.000 A 
ATOM     10  C   UNL     1      46.145  34.467  43.429  0.00  0.00    +0.000 A 
ATOM     11  N   UNL     1      46.266  33.667  44.535  0.00  0.00    +0.000 NA
ATOM     12  C   UNL     1      45.574  33.922  45.671  0.00  0.00    +0.000 A 
ATOM     13  N   UNL     1      44.729  34.981  45.767  0.00  0.00    +0.000 NA
ATOM     14  H   UNL     1      43.910  36.634  44.778  0.00  0.00    +0.000 HD
ATOM     15  H   UNL     1      45.167  36.215  42.638  0.00  0.00    +0.000 HD
ATOM     16  H   UNL     1      46.715  34.230  42.541  0.00  0.00    +0.000 HD
ENDBRANCH   1  12
BRANCH   4  17
ATOM     17  C   UNL     1      47.214  29.977  49.133  0.00  0.00    +0.000 A 
ATOM     18  C   UNL     1      47.655  28.769  48.735  0.00  0.00    +0.000 A 
ATOM     19  H   UNL     1      47.532  28.492  47.697  0.00  0.00    +0.000 HD
ATOM     20  C   UNL     1      48.248  27.882  49.582  0.00  0.00    +0.000 A 
ATOM     21  C   UNL     1      48.383  28.334  51.004  0.00  0.00    +0.000 A 
ATOM     22  S   UNL     1      47.614  30.042  50.950  0.00  0.00    +0.000 S 
ENDBRANCH   4  17
TORSDOF 2
