
 OpenBabel03252507563D

 41 44  0  0  1  0  0  0  0  0999 V2000
   38.7590   31.5000   38.4590 C   0  0  2  0  0  0  0  0  0  0  0  0
   37.3530   31.7380   37.9060 C   0  0  0  0  0  0  0  0  0  0  0  0
   37.0070   30.2760   37.5590 C   0  0  0  0  0  0  0  0  0  0  0  0
   37.6450   29.4630   38.6410 C   0  0  1  0  0  0  0  0  0  0  0  0
   38.4450   30.4270   39.4670 C   0  0  0  0  0  0  0  0  0  0  0  0
   39.3770   31.1310   37.6370 H   0  0  0  0  0  0  0  0  0  0  0  0
   36.6800   32.0570   38.7080 H   0  0  0  0  0  0  0  0  0  0  0  0
   37.3550   32.3630   37.0090 H   0  0  0  0  0  0  0  0  0  0  0  0
   37.5250   30.0340   36.6010 H   0  0  0  0  0  0  0  0  0  0  0  0
   35.9120   30.1450   37.5050 H   0  0  0  0  0  0  0  0  0  0  0  0
   38.3350   28.6830   38.2490 H   0  0  0  0  0  0  0  0  0  0  0  0
   39.4130   29.9910   39.7960 H   0  0  0  0  0  0  0  0  0  0  0  0
   37.8680   30.8660   40.3010 H   0  0  0  0  0  0  0  0  0  0  0  0
   41.0180   34.3190   39.5220 C   0  0  0  0  0  0  0  0  0  0  0  0
   40.6090   33.1630   38.8410 C   0  0  0  0  0  0  0  0  0  0  0  0
   39.3120   32.7260   39.0930 C   0  0  0  0  0  0  0  0  0  0  0  0
   38.4790   33.4190   39.9840 N   0  0  0  0  0  0  0  0  0  0  0  0
   38.9410   34.5310   40.6100 C   0  0  0  0  0  0  0  0  0  0  0  0
   40.2050   34.9750   40.3760 N   0  0  0  0  0  0  0  0  0  0  0  0
   42.0240   34.6840   39.3450 H   0  0  0  0  0  0  0  0  0  0  0  0
   41.2220   32.6120   38.1560 H   0  0  0  0  0  0  0  0  0  0  0  0
   38.2080   34.9720   41.2680 H   0  0  0  0  0  0  0  0  0  0  0  0
   36.6670   28.7820   39.5720 C   0  0  2  0  0  0  0  0  0  0  0  0
   35.4220   29.5020   39.8210 C   0  0  0  0  0  0  0  0  0  0  0  0
   36.4080   29.2930   40.9190 C   0  0  1  0  0  0  0  0  0  0  0  0
   36.6100   27.6890   39.4290 H   0  0  0  0  0  0  0  0  0  0  0  0
   35.2680   30.4820   39.3680 H   0  0  0  0  0  0  0  0  0  0  0  0
   34.4700   28.8970   39.8140 H   0  0  0  0  0  0  0  0  0  0  0  0
   37.0130   30.1460   41.2610 H   0  0  0  0  0  0  0  0  0  0  0  0
   36.0830   28.3500   41.9220 O   0  0  0  0  0  0  0  0  0  0  0  0
   38.3250   29.4070   42.7230 O   0  0  0  0  0  0  0  0  0  0  0  0
   37.3330   28.3130   43.0400 P   0  0  1  0  0  0  0  0  0  0  0  0
   36.7160   28.6260   44.6120 O   0  0  0  0  0  0  0  0  0  0  0  0
   36.1000   27.8630   44.8330 H   0  0  0  0  0  0  0  0  0  0  0  0
   38.1510   26.8720   43.1360 O   0  0  0  0  0  0  0  0  0  0  0  0
   37.8370   25.8560   42.2380 C   0  0  0  0  0  0  0  0  0  0  0  0
   36.9610   24.8340   42.1690 C   0  0  0  0  0  0  0  0  0  0  0  0
   36.3300   24.7870   43.0470 H   0  0  0  0  0  0  0  0  0  0  0  0
   36.9240   24.0030   41.1040 C   0  0  0  0  0  3  0  0  0  0  0  0
   37.8600   24.2880   40.0890 C   0  0  0  0  0  3  0  0  0  0  0  0
   38.7660   25.7970   40.7710 S   0  0  0  0  0  0  0  0  0  0  0  0
  1  6  1  6  0  0  0
  1 16  1  0  0  0  0
  1  5  1  0  0  0  0
  2  1  1  0  0  0  0
  2  7  1  0  0  0  0
  3  2  1  0  0  0  0
  3  4  1  0  0  0  0
  4 11  1  6  0  0  0
  4  5  1  0  0  0  0
  4 23  1  0  0  0  0
  5 12  1  0  0  0  0
  5 13  1  0  0  0  0
  8  2  1  0  0  0  0
  9  3  1  0  0  0  0
 10  3  1  0  0  0  0
 14 19  1  0  0  0  0
 15 16  1  0  0  0  0
 15 14  2  0  0  0  0
 16 17  2  0  0  0  0
 17 18  1  0  0  0  0
 18 22  1  0  0  0  0
 19 18  2  0  0  0  0
 20 14  1  0  0  0  0
 21 15  1  0  0  0  0
 23 26  1  6  0  0  0
 23 24  1  0  0  0  0
 23 25  1  0  0  0  0
 24 25  1  0  0  0  0
 25 29  1  1  0  0  0
 25 30  1  0  0  0  0
 27 24  1  0  0  0  0
 28 24  1  0  0  0  0
 30 32  1  0  0  0  0
 32 31  2  6  0  0  0
 32 35  1  0  0  0  0
 32 33  1  0  0  0  0
 33 34  1  0  0  0  0
 36 35  1  0  0  0  0
 37 36  2  0  0  0  0
 37 38  1  0  0  0  0
 39 37  1  0  0  0  0
 40 41  1  0  0  0  0
 40 39  2  0  0  0  0
 41 36  1  0  0  0  0
M  END
>  <minimizedAffinity>
-5.90342999

$$$$

 OpenBabel03252507563D

 41 44  0  0  1  0  0  0  0  0999 V2000
   37.7580   25.0390   42.2590 C   0  0  2  0  0  0  0  0  0  0  0  0
   36.5520   25.9600   42.4460 C   0  0  0  0  0  0  0  0  0  0  0  0
   37.2080   26.9840   43.3950 C   0  0  0  0  0  0  0  0  0  0  0  0
   38.6220   27.0970   42.9190 C   0  0  1  0  0  0  0  0  0  0  0  0
   38.7840   26.0600   41.8470 C   0  0  0  0  0  0  0  0  0  0  0  0
   37.9830   24.5900   43.2310 H   0  0  0  0  0  0  0  0  0  0  0  0
   36.3210   26.4770   41.5090 H   0  0  0  0  0  0  0  0  0  0  0  0
   35.7120   25.4590   42.9340 H   0  0  0  0  0  0  0  0  0  0  0  0
   37.2280   26.5250   44.4120 H   0  0  0  0  0  0  0  0  0  0  0  0
   36.6600   27.9410   43.3630 H   0  0  0  0  0  0  0  0  0  0  0  0
   39.3680   26.8920   43.7190 H   0  0  0  0  0  0  0  0  0  0  0  0
   39.7770   25.5650   41.8910 H   0  0  0  0  0  0  0  0  0  0  0  0
   38.5380   26.4380   40.8380 H   0  0  0  0  0  0  0  0  0  0  0  0
   36.1890   22.9340   39.5580 C   0  0  0  0  0  0  0  0  0  0  0  0
   36.3020   23.9520   40.5170 C   0  0  0  0  0  0  0  0  0  0  0  0
   37.5120   24.0250   41.1990 C   0  0  0  0  0  0  0  0  0  0  0  0
   38.5490   23.1190   40.9260 N   0  0  0  0  0  0  0  0  0  0  0  0
   38.3700   22.1580   39.9840 C   0  0  0  0  0  0  0  0  0  0  0  0
   37.1940   22.0700   39.3070 N   0  0  0  0  0  0  0  0  0  0  0  0
   35.2560   22.8530   39.0110 H   0  0  0  0  0  0  0  0  0  0  0  0
   35.5290   24.6580   40.7480 H   0  0  0  0  0  0  0  0  0  0  0  0
   39.2370   21.5260   39.8670 H   0  0  0  0  0  0  0  0  0  0  0  0
   38.9690   28.4340   42.3020 C   0  0  2  0  0  0  0  0  0  0  0  0
   38.6640   29.6070   43.1150 C   0  0  0  0  0  0  0  0  0  0  0  0
   37.9300   29.3580   41.8410 C   0  0  1  0  0  0  0  0  0  0  0  0
   39.9210   28.4290   41.7430 H   0  0  0  0  0  0  0  0  0  0  0  0
   38.1840   29.4770   44.0870 H   0  0  0  0  0  0  0  0  0  0  0  0
   39.4420   30.4220   43.1520 H   0  0  0  0  0  0  0  0  0  0  0  0
   36.8880   29.0090   41.8860 H   0  0  0  0  0  0  0  0  0  0  0  0
   38.2390   30.1840   40.7350 O   0  0  0  0  0  0  0  0  0  0  0  0
   36.1770   29.6810   39.2250 O   0  0  0  0  0  0  0  0  0  0  0  0
   36.8030   30.7550   40.0830 P   0  0  1  0  0  0  0  0  0  0  0  0
   35.6920   31.1090   41.3440 O   0  0  0  0  0  0  0  0  0  0  0  0
   36.0950   31.8630   41.8740 H   0  0  0  0  0  0  0  0  0  0  0  0
   36.9410   32.1390   39.1770 O   0  0  0  0  0  0  0  0  0  0  0  0
   37.9440   33.0530   39.4900 C   0  0  0  0  0  0  0  0  0  0  0  0
   38.0370   34.2380   40.1260 C   0  0  0  0  0  0  0  0  0  0  0  0
   37.0770   34.5730   40.4940 H   0  0  0  0  0  0  0  0  0  0  0  0
   39.2190   34.8810   40.2550 C   0  0  0  0  0  3  0  0  0  0  0  0
   40.3260   34.2220   39.6810 C   0  0  0  0  0  3  0  0  0  0  0  0
   39.5510   32.6570   38.9640 S   0  0  0  0  0  0  0  0  0  0  0  0
  1  2  1  0  0  0  0
  1  6  1  1  0  0  0
  2  8  1  0  0  0  0
  2  3  1  0  0  0  0
  3  9  1  0  0  0  0
  4  3  1  0  0  0  0
  4 11  1  1  0  0  0
  5 12  1  0  0  0  0
  5  1  1  0  0  0  0
  5  4  1  0  0  0  0
  7  2  1  0  0  0  0
 10  3  1  0  0  0  0
 13  5  1  0  0  0  0
 14 15  1  0  0  0  0
 15 21  1  0  0  0  0
 15 16  2  0  0  0  0
 16  1  1  0  0  0  0
 17 16  1  0  0  0  0
 18 17  2  0  0  0  0
 19 14  2  0  0  0  0
 19 18  1  0  0  0  0
 20 14  1  0  0  0  0
 22 18  1  0  0  0  0
 23 26  1  6  0  0  0
 23  4  1  0  0  0  0
 23 24  1  0  0  0  0
 24 28  1  0  0  0  0
 24 27  1  0  0  0  0
 25 29  1  1  0  0  0
 25 23  1  0  0  0  0
 25 24  1  0  0  0  0
 30 25  1  0  0  0  0
 32 31  2  6  0  0  0
 32 30  1  0  0  0  0
 32 33  1  0  0  0  0
 33 34  1  0  0  0  0
 35 36  1  0  0  0  0
 35 32  1  0  0  0  0
 36 37  2  0  0  0  0
 37 39  1  0  0  0  0
 37 38  1  0  0  0  0
 40 39  2  0  0  0  0
 41 36  1  0  0  0  0
 41 40  1  0  0  0  0
M  END
>  <minimizedAffinity>
-5.83046627

$$$$

 OpenBabel03252507563D

 41 44  0  0  1  0  0  0  0  0999 V2000
   39.7060   32.8800   39.5880 C   0  0  2  0  0  0  0  0  0  0  0  0
   38.6150   33.5040   40.4590 C   0  0  0  0  0  0  0  0  0  0  0  0
   37.3920   32.9930   39.6710 C   0  0  0  0  0  0  0  0  0  0  0  0
   37.7830   31.6270   39.2000 C   0  0  1  0  0  0  0  0  0  0  0  0
   39.2240   31.4540   39.5780 C   0  0  0  0  0  0  0  0  0  0  0  0
   39.6470   33.3460   38.6010 H   0  0  0  0  0  0  0  0  0  0  0  0
   38.5980   33.0280   41.4440 H   0  0  0  0  0  0  0  0  0  0  0  0
   38.6510   34.5960   40.4570 H   0  0  0  0  0  0  0  0  0  0  0  0
   37.2820   33.6440   38.7720 H   0  0  0  0  0  0  0  0  0  0  0  0
   36.4960   32.9900   40.3160 H   0  0  0  0  0  0  0  0  0  0  0  0
   37.6940   31.5060   38.0970 H   0  0  0  0  0  0  0  0  0  0  0  0
   39.8000   30.9170   38.7940 H   0  0  0  0  0  0  0  0  0  0  0  0
   39.3590   31.0160   40.5830 H   0  0  0  0  0  0  0  0  0  0  0  0
   42.7150   32.5010   41.8210 C   0  0  0  0  0  0  0  0  0  0  0  0
   41.4300   32.2570   41.3120 C   0  0  0  0  0  0  0  0  0  0  0  0
   41.0490   33.0170   40.2110 C   0  0  0  0  0  0  0  0  0  0  0  0
   41.9190   33.9690   39.6570 N   0  0  0  0  0  0  0  0  0  0  0  0
   43.1480   34.1540   40.2010 C   0  0  0  0  0  0  0  0  0  0  0  0
   43.5390   33.4210   41.2780 N   0  0  0  0  0  0  0  0  0  0  0  0
   43.0400   31.9240   42.6800 H   0  0  0  0  0  0  0  0  0  0  0  0
   40.7450   31.5380   41.7130 H   0  0  0  0  0  0  0  0  0  0  0  0
   43.7200   34.9120   39.6880 H   0  0  0  0  0  0  0  0  0  0  0  0
   37.0120   30.4980   39.8470 C   0  0  2  0  0  0  0  0  0  0  0  0
   36.0160   30.8940   40.8360 C   0  0  0  0  0  0  0  0  0  0  0  0
   37.2270   30.1280   41.2470 C   0  0  1  0  0  0  0  0  0  0  0  0
   36.7490   29.6860   39.1470 H   0  0  0  0  0  0  0  0  0  0  0  0
   35.8940   31.9500   41.0840 H   0  0  0  0  0  0  0  0  0  0  0  0
   35.0180   30.3680   40.7990 H   0  0  0  0  0  0  0  0  0  0  0  0
   38.0280   30.6490   41.7910 H   0  0  0  0  0  0  0  0  0  0  0  0
   37.0550   28.7670   41.5940 O   0  0  0  0  0  0  0  0  0  0  0  0
   39.1320   29.3450   43.0550 O   0  0  0  0  0  0  0  0  0  0  0  0
   37.9010   28.4710   43.0120 P   0  0  1  0  0  0  0  0  0  0  0  0
   36.9320   28.8900   44.3660 O   0  0  0  0  0  0  0  0  0  0  0  0
   36.1450   28.2640   44.3560 H   0  0  0  0  0  0  0  0  0  0  0  0
   38.3670   26.8930   43.2390 O   0  0  0  0  0  0  0  0  0  0  0  0
   37.9250   25.9240   42.3430 C   0  0  0  0  0  0  0  0  0  0  0  0
   36.8990   25.0540   42.2550 C   0  0  0  0  0  0  0  0  0  0  0  0
   36.2390   25.1250   43.1090 H   0  0  0  0  0  0  0  0  0  0  0  0
   36.7660   24.2190   41.2010 C   0  0  0  0  0  3  0  0  0  0  0  0
   37.7710   24.3310   40.2170 C   0  0  0  0  0  3  0  0  0  0  0  0
   38.8820   25.6890   40.9130 S   0  0  0  0  0  0  0  0  0  0  0  0
  1  6  1  6  0  0  0
  1 16  1  0  0  0  0
  1  2  1  0  0  0  0
  2  7  1  0  0  0  0
  3 10  1  0  0  0  0
  3  2  1  0  0  0  0
  4 11  1  6  0  0  0
  4  5  1  0  0  0  0
  4  3  1  0  0  0  0
  4 23  1  0  0  0  0
  5  1  1  0  0  0  0
  5 13  1  0  0  0  0
  8  2  1  0  0  0  0
  9  3  1  0  0  0  0
 12  5  1  0  0  0  0
 14 20  1  0  0  0  0
 15 21  1  0  0  0  0
 15 14  1  0  0  0  0
 16 15  2  0  0  0  0
 17 18  2  0  0  0  0
 17 16  1  0  0  0  0
 18 19  1  0  0  0  0
 19 14  2  0  0  0  0
 22 18  1  0  0  0  0
 23 26  1  6  0  0  0
 23 24  1  0  0  0  0
 23 25  1  0  0  0  0
 24 27  1  0  0  0  0
 24 25  1  0  0  0  0
 25 30  1  0  0  0  0
 25 29  1  1  0  0  0
 28 24  1  0  0  0  0
 30 32  1  0  0  0  0
 32 31  2  1  0  0  0
 32 35  1  0  0  0  0
 32 33  1  0  0  0  0
 34 33  1  0  0  0  0
 36 35  1  0  0  0  0
 37 36  2  0  0  0  0
 37 38  1  0  0  0  0
 39 37  1  0  0  0  0
 40 41  1  0  0  0  0
 40 39  2  0  0  0  0
 41 36  1  0  0  0  0
M  END
>  <minimizedAffinity>
-5.72556829

$$$$

 OpenBabel03252507563D

 41 44  0  0  1  0  0  0  0  0999 V2000
   36.8510   28.6800   42.0410 C   0  0  2  0  0  0  0  0  0  0  0  0
   36.0940   28.2640   40.7790 C   0  0  0  0  0  0  0  0  0  0  0  0
   35.4490   29.6260   40.4550 C   0  0  0  0  0  0  0  0  0  0  0  0
   36.4810   30.6400   40.8410 C   0  0  1  0  0  0  0  0  0  0  0  0
   37.5900   29.8740   41.5000 C   0  0  0  0  0  0  0  0  0  0  0  0
   36.1080   28.9560   42.7940 H   0  0  0  0  0  0  0  0  0  0  0  0
   36.7980   28.0300   39.9750 H   0  0  0  0  0  0  0  0  0  0  0  0
   35.3300   27.5080   40.9780 H   0  0  0  0  0  0  0  0  0  0  0  0
   34.5780   29.7510   41.1400 H   0  0  0  0  0  0  0  0  0  0  0  0
   35.1720   29.6740   39.3870 H   0  0  0  0  0  0  0  0  0  0  0  0
   36.0990   31.3940   41.5650 H   0  0  0  0  0  0  0  0  0  0  0  0
   38.0150   30.4200   42.3690 H   0  0  0  0  0  0  0  0  0  0  0  0
   38.3630   29.5330   40.7880 H   0  0  0  0  0  0  0  0  0  0  0  0
   39.5530   26.7490   43.8170 C   0  0  0  0  0  0  0  0  0  0  0  0
   38.7300   27.8370   43.4880 C   0  0  0  0  0  0  0  0  0  0  0  0
   37.7720   27.6090   42.5050 C   0  0  0  0  0  0  0  0  0  0  0  0
   37.6540   26.3520   41.8920 N   0  0  0  0  0  0  0  0  0  0  0  0
   38.4850   25.3440   42.2590 C   0  0  0  0  0  0  0  0  0  0  0  0
   39.4280   25.5470   43.2180 N   0  0  0  0  0  0  0  0  0  0  0  0
   40.3100   26.8970   44.5800 H   0  0  0  0  0  0  0  0  0  0  0  0
   38.7960   28.8070   43.9380 H   0  0  0  0  0  0  0  0  0  0  0  0
   38.2960   24.4300   41.7160 H   0  0  0  0  0  0  0  0  0  0  0  0
   37.0870   31.3910   39.6760 C   0  0  2  0  0  0  0  0  0  0  0  0
   37.6890   30.5660   38.6340 C   0  0  0  0  0  0  0  0  0  0  0  0
   38.5360   31.4570   39.4780 C   0  0  1  0  0  0  0  0  0  0  0  0
   36.4960   32.2680   39.3620 H   0  0  0  0  0  0  0  0  0  0  0  0
   37.7060   29.4810   38.7490 H   0  0  0  0  0  0  0  0  0  0  0  0
   37.4800   30.8580   37.5640 H   0  0  0  0  0  0  0  0  0  0  0  0
   39.1730   31.0070   40.2530 H   0  0  0  0  0  0  0  0  0  0  0  0
   39.0590   32.6270   38.8780 O   0  0  0  0  0  0  0  0  0  0  0  0
   38.0730   34.7070   40.0970 O   0  0  0  0  0  0  0  0  0  0  0  0
   39.2700   33.7850   40.0720 P   0  0  1  0  0  0  0  0  0  0  0  0
   39.3600   33.0270   41.6100 O   0  0  0  0  0  0  0  0  0  0  0  0
   40.1910   32.4600   41.5980 H   0  0  0  0  0  0  0  0  0  0  0  0
   40.6420   34.7090   39.9230 O   0  0  0  0  0  0  0  0  0  0  0  0
   41.6990   34.2270   39.1570 C   0  0  0  0  0  0  0  0  0  0  0  0
   42.2380   34.4800   37.9470 C   0  0  0  0  0  0  0  0  0  0  0  0
   41.7080   35.2680   37.4290 H   0  0  0  0  0  0  0  0  0  0  0  0
   43.3100   33.7960   37.4930 C   0  0  0  0  0  3  0  0  0  0  0  0
   43.8120   32.8140   38.3720 C   0  0  0  0  0  3  0  0  0  0  0  0
   42.6510   32.9520   39.8540 S   0  0  0  0  0  0  0  0  0  0  0  0
  1 16  1  0  0  0  0
  1  6  1  1  0  0  0
  2  8  1  0  0  0  0
  2  1  1  0  0  0  0
  3  2  1  0  0  0  0
  3  4  1  0  0  0  0
  3  9  1  0  0  0  0
  4  5  1  0  0  0  0
  4 11  1  1  0  0  0
  5  1  1  0  0  0  0
  5 12  1  0  0  0  0
  7  2  1  0  0  0  0
 10  3  1  0  0  0  0
 13  5  1  0  0  0  0
 14 20  1  0  0  0  0
 15 14  1  0  0  0  0
 15 21  1  0  0  0  0
 16 15  2  0  0  0  0
 17 18  2  0  0  0  0
 17 16  1  0  0  0  0
 18 19  1  0  0  0  0
 19 14  2  0  0  0  0
 22 18  1  0  0  0  0
 23 26  1  6  0  0  0
 23  4  1  0  0  0  0
 24 27  1  0  0  0  0
 24 25  1  0  0  0  0
 24 23  1  0  0  0  0
 25 23  1  0  0  0  0
 25 29  1  1  0  0  0
 28 24  1  0  0  0  0
 30 25  1  0  0  0  0
 30 32  1  0  0  0  0
 32 31  2  6  0  0  0
 32 33  1  0  0  0  0
 34 33  1  0  0  0  0
 35 32  1  0  0  0  0
 36 41  1  0  0  0  0
 36 35  1  0  0  0  0
 37 36  2  0  0  0  0
 38 37  1  0  0  0  0
 39 37  1  0  0  0  0
 39 40  2  0  0  0  0
 40 41  1  0  0  0  0
M  END
>  <minimizedAffinity>
-5.71983624

$$$$

 OpenBabel03252507563D

 41 44  0  0  1  0  0  0  0  0999 V2000
   37.4470   29.1920   42.2620 C   0  0  2  0  0  0  0  0  0  0  0  0
   36.6140   28.3340   41.3080 C   0  0  0  0  0  0  0  0  0  0  0  0
   35.6710   29.4400   40.7920 C   0  0  0  0  0  0  0  0  0  0  0  0
   36.5240   30.6680   40.7170 C   0  0  1  0  0  0  0  0  0  0  0  0
   37.8470   30.2920   41.3160 C   0  0  0  0  0  0  0  0  0  0  0  0
   36.7810   29.5450   43.0540 H   0  0  0  0  0  0  0  0  0  0  0  0
   37.2280   28.0020   40.4640 H   0  0  0  0  0  0  0  0  0  0  0  0
   36.0530   27.5540   41.8270 H   0  0  0  0  0  0  0  0  0  0  0  0
   34.9000   29.6100   41.5810 H   0  0  0  0  0  0  0  0  0  0  0  0
   35.2380   29.1510   39.8190 H   0  0  0  0  0  0  0  0  0  0  0  0
   36.1080   31.5220   41.2960 H   0  0  0  0  0  0  0  0  0  0  0  0
   38.2760   31.1130   41.9290 H   0  0  0  0  0  0  0  0  0  0  0  0
   38.5610   29.8930   40.5730 H   0  0  0  0  0  0  0  0  0  0  0  0
   39.6620   26.6700   43.9700 C   0  0  0  0  0  0  0  0  0  0  0  0
   38.4780   27.2640   43.5100 C   0  0  0  0  0  0  0  0  0  0  0  0
   38.6210   28.4440   42.7860 C   0  0  0  0  0  0  0  0  0  0  0  0
   39.8900   28.9900   42.5430 N   0  0  0  0  0  0  0  0  0  0  0  0
   40.9950   28.3620   43.0190 C   0  0  0  0  0  0  0  0  0  0  0  0
   40.8760   27.2070   43.7290 N   0  0  0  0  0  0  0  0  0  0  0  0
   39.5820   25.7490   44.5370 H   0  0  0  0  0  0  0  0  0  0  0  0
   37.4950   26.8710   43.6790 H   0  0  0  0  0  0  0  0  0  0  0  0
   41.9080   28.8790   42.7670 H   0  0  0  0  0  0  0  0  0  0  0  0
   36.7930   31.1560   39.3110 C   0  0  2  0  0  0  0  0  0  0  0  0
   36.4170   30.2420   38.2380 C   0  0  0  0  0  0  0  0  0  0  0  0
   37.8500   30.5690   38.4850 C   0  0  1  0  0  0  0  0  0  0  0  0
   36.5830   32.2300   39.1690 H   0  0  0  0  0  0  0  0  0  0  0  0
   36.0020   29.2640   38.4860 H   0  0  0  0  0  0  0  0  0  0  0  0
   35.8970   30.6880   37.3420 H   0  0  0  0  0  0  0  0  0  0  0  0
   38.4960   29.8130   38.9540 H   0  0  0  0  0  0  0  0  0  0  0  0
   38.4980   31.4190   37.5570 O   0  0  0  0  0  0  0  0  0  0  0  0
   40.8490   30.7000   38.4180 O   0  0  0  0  0  0  0  0  0  0  0  0
   39.9610   31.9060   38.2160 P   0  0  1  0  0  0  0  0  0  0  0  0
   40.7700   32.9560   37.1250 O   0  0  0  0  0  0  0  0  0  0  0  0
   40.1960   33.7780   37.0430 H   0  0  0  0  0  0  0  0  0  0  0  0
   39.8490   32.7230   39.6570 O   0  0  0  0  0  0  0  0  0  0  0  0
   40.9430   32.7270   40.5180 C   0  0  0  0  0  0  0  0  0  0  0  0
   41.4640   31.9130   41.4560 C   0  0  0  0  0  0  0  0  0  0  0  0
   40.8780   31.0120   41.5770 H   0  0  0  0  0  0  0  0  0  0  0  0
   42.5880   32.2390   42.1320 C   0  0  0  0  0  3  0  0  0  0  0  0
   43.1600   33.4800   41.7800 C   0  0  0  0  0  3  0  0  0  0  0  0
   41.9870   34.1140   40.4450 S   0  0  0  0  0  0  0  0  0  0  0  0
  1 16  1  0  0  0  0
  1  6  1  1  0  0  0
  2  8  1  0  0  0  0
  2  1  1  0  0  0  0
  3  2  1  0  0  0  0
  3  9  1  0  0  0  0
  4  3  1  0  0  0  0
  4 11  1  1  0  0  0
  4  5  1  0  0  0  0
  5 12  1  0  0  0  0
  5  1  1  0  0  0  0
  7  2  1  0  0  0  0
 10  3  1  0  0  0  0
 13  5  1  0  0  0  0
 14 20  1  0  0  0  0
 15 21  1  0  0  0  0
 15 14  2  0  0  0  0
 16 15  1  0  0  0  0
 17 16  2  0  0  0  0
 17 18  1  0  0  0  0
 18 19  2  0  0  0  0
 19 14  1  0  0  0  0
 22 18  1  0  0  0  0
 23 26  1  6  0  0  0
 23  4  1  0  0  0  0
 24 25  1  0  0  0  0
 24 27  1  0  0  0  0
 24 23  1  0  0  0  0
 25 29  1  1  0  0  0
 25 23  1  0  0  0  0
 28 24  1  0  0  0  0
 30 32  1  0  0  0  0
 30 25  1  0  0  0  0
 32 31  2  1  0  0  0
 32 35  1  0  0  0  0
 33 32  1  0  0  0  0
 34 33  1  0  0  0  0
 35 36  1  0  0  0  0
 36 37  2  0  0  0  0
 37 38  1  0  0  0  0
 37 39  1  0  0  0  0
 40 39  2  0  0  0  0
 41 36  1  0  0  0  0
 41 40  1  0  0  0  0
M  END
>  <minimizedAffinity>
-5.63611937

$$$$

 OpenBabel03252507563D

 41 44  0  0  1  0  0  0  0  0999 V2000
   38.2850   26.3470   42.6490 C   0  0  2  0  0  0  0  0  0  0  0  0
   37.1280   27.3450   42.7180 C   0  0  0  0  0  0  0  0  0  0  0  0
   37.8730   28.4900   43.4350 C   0  0  0  0  0  0  0  0  0  0  0  0
   39.2640   28.4460   42.8840 C   0  0  1  0  0  0  0  0  0  0  0  0
   39.3280   27.2260   42.0130 C   0  0  0  0  0  0  0  0  0  0  0  0
   38.5420   26.0710   43.6750 H   0  0  0  0  0  0  0  0  0  0  0  0
   36.8700   27.6960   41.7140 H   0  0  0  0  0  0  0  0  0  0  0  0
   36.2960   26.9820   43.3260 H   0  0  0  0  0  0  0  0  0  0  0  0
   37.9280   28.2210   44.5160 H   0  0  0  0  0  0  0  0  0  0  0  0
   37.3640   29.4520   43.2520 H   0  0  0  0  0  0  0  0  0  0  0  0
   40.0420   28.3530   43.6740 H   0  0  0  0  0  0  0  0  0  0  0  0
   40.3020   26.6990   42.1030 H   0  0  0  0  0  0  0  0  0  0  0  0
   39.0450   27.4270   40.9640 H   0  0  0  0  0  0  0  0  0  0  0  0
   36.4400   23.6610   40.7620 C   0  0  0  0  0  0  0  0  0  0  0  0
   36.6260   24.8030   41.5550 C   0  0  0  0  0  0  0  0  0  0  0  0
   37.9440   25.1730   41.8040 C   0  0  0  0  0  0  0  0  0  0  0  0
   39.0110   24.4280   41.2810 N   0  0  0  0  0  0  0  0  0  0  0  0
   38.7580   23.3310   40.5220 C   0  0  0  0  0  0  0  0  0  0  0  0
   37.4760   22.9540   40.2670 N   0  0  0  0  0  0  0  0  0  0  0  0
   35.4230   23.3490   40.5510 H   0  0  0  0  0  0  0  0  0  0  0  0
   35.8310   25.3920   41.9680 H   0  0  0  0  0  0  0  0  0  0  0  0
   39.6600   22.8450   40.1800 H   0  0  0  0  0  0  0  0  0  0  0  0
   39.6320   29.6310   42.0190 C   0  0  2  0  0  0  0  0  0  0  0  0
   39.9930   30.8510   42.7340 C   0  0  0  0  0  0  0  0  0  0  0  0
   38.7550   30.7990   41.9050 C   0  0  1  0  0  0  0  0  0  0  0  0
   40.2260   29.3610   41.1290 H   0  0  0  0  0  0  0  0  0  0  0  0
   39.9530   30.8670   43.8240 H   0  0  0  0  0  0  0  0  0  0  0  0
   40.8870   31.4240   42.3520 H   0  0  0  0  0  0  0  0  0  0  0  0
   37.7790   30.7480   42.4100 H   0  0  0  0  0  0  0  0  0  0  0  0
   38.7580   31.4980   40.6760 O   0  0  0  0  0  0  0  0  0  0  0  0
   36.2370   31.1460   41.2270 O   0  0  0  0  0  0  0  0  0  0  0  0
   37.1700   31.6930   40.1720 P   0  0  1  0  0  0  0  0  0  0  0  0
   36.8160   33.3650   39.9980 O   0  0  0  0  0  0  0  0  0  0  0  0
   37.4050   33.7030   39.2560 H   0  0  0  0  0  0  0  0  0  0  0  0
   36.7980   30.9810   38.7200 O   0  0  0  0  0  0  0  0  0  0  0  0
   36.6410   29.5990   38.6660 C   0  0  0  0  0  0  0  0  0  0  0  0
   37.2820   28.5130   39.1400 C   0  0  0  0  0  0  0  0  0  0  0  0
   38.1550   28.7830   39.7190 H   0  0  0  0  0  0  0  0  0  0  0  0
   36.8390   27.2620   38.8880 C   0  0  0  0  0  3  0  0  0  0  0  0
   35.6690   27.1880   38.1020 C   0  0  0  0  0  3  0  0  0  0  0  0
   35.2780   29.0030   37.7680 S   0  0  0  0  0  0  0  0  0  0  0  0
  1  2  1  0  0  0  0
  1  6  1  1  0  0  0
  2  8  1  0  0  0  0
  2  3  1  0  0  0  0
  3  9  1  0  0  0  0
  4  3  1  0  0  0  0
  4 11  1  1  0  0  0
  5 12  1  0  0  0  0
  5  1  1  0  0  0  0
  5  4  1  0  0  0  0
  7  2  1  0  0  0  0
 10  3  1  0  0  0  0
 13  5  1  0  0  0  0
 14 15  1  0  0  0  0
 15 16  2  0  0  0  0
 15 21  1  0  0  0  0
 16  1  1  0  0  0  0
 17 16  1  0  0  0  0
 18 17  2  0  0  0  0
 19 18  1  0  0  0  0
 19 14  2  0  0  0  0
 20 14  1  0  0  0  0
 22 18  1  0  0  0  0
 23 26  1  6  0  0  0
 23 24  1  0  0  0  0
 23  4  1  0  0  0  0
 24 27  1  0  0  0  0
 25 23  1  0  0  0  0
 25 29  1  1  0  0  0
 25 24  1  0  0  0  0
 28 24  1  0  0  0  0
 30 25  1  0  0  0  0
 32 30  1  0  0  0  0
 32 31  2  1  0  0  0
 33 32  1  0  0  0  0
 34 33  1  0  0  0  0
 35 32  1  0  0  0  0
 36 35  1  0  0  0  0
 36 37  2  0  0  0  0
 37 38  1  0  0  0  0
 39 37  1  0  0  0  0
 40 39  2  0  0  0  0
 41 40  1  0  0  0  0
 41 36  1  0  0  0  0
M  END
>  <minimizedAffinity>
-5.53877115

$$$$

 OpenBabel03252507563D

 41 44  0  0  1  0  0  0  0  0999 V2000
   37.4550   30.4740   40.2430 C   0  0  2  0  0  0  0  0  0  0  0  0
   36.1660   30.4560   41.0650 C   0  0  0  0  0  0  0  0  0  0  0  0
   35.9500   28.9290   41.0940 C   0  0  0  0  0  0  0  0  0  0  0  0
   37.3280   28.3490   41.1850 C   0  0  1  0  0  0  0  0  0  0  0  0
   38.2740   29.5050   41.0520 C   0  0  0  0  0  0  0  0  0  0  0  0
   37.2160   30.0890   39.2480 H   0  0  0  0  0  0  0  0  0  0  0  0
   36.3660   30.7820   42.0910 H   0  0  0  0  0  0  0  0  0  0  0  0
   35.3370   30.9570   40.5590 H   0  0  0  0  0  0  0  0  0  0  0  0
   35.5240   28.6370   40.1060 H   0  0  0  0  0  0  0  0  0  0  0  0
   35.3050   28.6490   41.9450 H   0  0  0  0  0  0  0  0  0  0  0  0
   37.5470   27.6230   40.3710 H   0  0  0  0  0  0  0  0  0  0  0  0
   39.1690   29.2450   40.4470 H   0  0  0  0  0  0  0  0  0  0  0  0
   38.5330   29.9670   42.0230 H   0  0  0  0  0  0  0  0  0  0  0  0
   39.8000   33.4020   40.5860 C   0  0  0  0  0  0  0  0  0  0  0  0
   39.3570   32.0720   40.6510 C   0  0  0  0  0  0  0  0  0  0  0  0
   38.0600   31.8320   40.2070 C   0  0  0  0  0  0  0  0  0  0  0  0
   37.2590   32.8790   39.7250 N   0  0  0  0  0  0  0  0  0  0  0  0
   37.7520   34.1430   39.6920 C   0  0  0  0  0  0  0  0  0  0  0  0
   39.0170   34.3970   40.1220 N   0  0  0  0  0  0  0  0  0  0  0  0
   40.8060   33.6190   40.9260 H   0  0  0  0  0  0  0  0  0  0  0  0
   39.9450   31.2530   41.0130 H   0  0  0  0  0  0  0  0  0  0  0  0
   37.0410   34.8560   39.3030 H   0  0  0  0  0  0  0  0  0  0  0  0
   37.6350   27.6690   42.5000 C   0  0  2  0  0  0  0  0  0  0  0  0
   38.1830   28.5260   43.5450 C   0  0  0  0  0  0  0  0  0  0  0  0
   39.0120   27.4430   42.9430 C   0  0  1  0  0  0  0  0  0  0  0  0
   36.8830   26.9160   42.7930 H   0  0  0  0  0  0  0  0  0  0  0  0
   38.3740   29.5790   43.3320 H   0  0  0  0  0  0  0  0  0  0  0  0
   37.7740   28.3900   44.5880 H   0  0  0  0  0  0  0  0  0  0  0  0
   39.8180   27.7140   42.2460 H   0  0  0  0  0  0  0  0  0  0  0  0
   39.2620   26.2940   43.7300 O   0  0  0  0  0  0  0  0  0  0  0  0
   41.4750   25.2400   42.8470 O   0  0  0  0  0  0  0  0  0  0  0  0
   39.9710   25.1280   42.7550 P   0  0  1  0  0  0  0  0  0  0  0  0
   39.5430   23.5620   43.3150 O   0  0  0  0  0  0  0  0  0  0  0  0
   38.5470   23.4810   43.1970 H   0  0  0  0  0  0  0  0  0  0  0  0
   39.5360   25.1880   41.1540 O   0  0  0  0  0  0  0  0  0  0  0  0
   38.4070   24.4900   40.7350 C   0  0  0  0  0  0  0  0  0  0  0  0
   37.0740   24.5630   40.9220 C   0  0  0  0  0  0  0  0  0  0  0  0
   36.8050   25.3840   41.5730 H   0  0  0  0  0  0  0  0  0  0  0  0
   36.2280   23.6870   40.3390 C   0  0  0  0  0  3  0  0  0  0  0  0
   36.8420   22.7060   39.5320 C   0  0  0  0  0  3  0  0  0  0  0  0
   38.6740   23.1360   39.6790 S   0  0  0  0  0  0  0  0  0  0  0  0
  1  6  1  6  0  0  0
  1  5  1  0  0  0  0
  1  2  1  0  0  0  0
  2  3  1  0  0  0  0
  2  7  1  0  0  0  0
  3  4  1  0  0  0  0
  3 10  1  0  0  0  0
  4 11  1  6  0  0  0
  4 23  1  0  0  0  0
  5  4  1  0  0  0  0
  5 13  1  0  0  0  0
  8  2  1  0  0  0  0
  9  3  1  0  0  0  0
 12  5  1  0  0  0  0
 14 15  1  0  0  0  0
 14 20  1  0  0  0  0
 15 21  1  0  0  0  0
 16  1  1  0  0  0  0
 16 15  2  0  0  0  0
 17 16  1  0  0  0  0
 18 17  2  0  0  0  0
 18 19  1  0  0  0  0
 19 14  2  0  0  0  0
 22 18  1  0  0  0  0
 23 26  1  1  0  0  0
 23 25  1  0  0  0  0
 23 24  1  0  0  0  0
 24 28  1  0  0  0  0
 25 29  1  6  0  0  0
 25 24  1  0  0  0  0
 25 30  1  0  0  0  0
 27 24  1  0  0  0  0
 32 31  2  1  0  0  0
 32 33  1  0  0  0  0
 32 30  1  0  0  0  0
 34 33  1  0  0  0  0
 35 32  1  0  0  0  0
 36 37  2  0  0  0  0
 36 35  1  0  0  0  0
 37 38  1  0  0  0  0
 39 37  1  0  0  0  0
 40 41  1  0  0  0  0
 40 39  2  0  0  0  0
 41 36  1  0  0  0  0
M  END
>  <minimizedAffinity>
-5.52916288

$$$$

 OpenBabel03252507563D

 41 44  0  0  1  0  0  0  0  0999 V2000
   37.7130   26.7470   42.1080 C   0  0  2  0  0  0  0  0  0  0  0  0
   36.7790   27.9010   42.4720 C   0  0  0  0  0  0  0  0  0  0  0  0
   37.7950   28.7640   43.2480 C   0  0  0  0  0  0  0  0  0  0  0  0
   39.0910   28.5770   42.5220 C   0  0  1  0  0  0  0  0  0  0  0  0
   38.8350   27.5290   41.4800 C   0  0  0  0  0  0  0  0  0  0  0  0
   38.0150   26.2610   43.0400 H   0  0  0  0  0  0  0  0  0  0  0  0
   36.4930   28.4550   41.5720 H   0  0  0  0  0  0  0  0  0  0  0  0
   35.9570   27.5880   43.1200 H   0  0  0  0  0  0  0  0  0  0  0  0
   37.9050   28.3110   44.2620 H   0  0  0  0  0  0  0  0  0  0  0  0
   37.4610   29.8150   43.2770 H   0  0  0  0  0  0  0  0  0  0  0  0
   39.9110   28.2200   43.1840 H   0  0  0  0  0  0  0  0  0  0  0  0
   39.6960   26.8360   41.3650 H   0  0  0  0  0  0  0  0  0  0  0  0
   38.4930   27.9500   40.5170 H   0  0  0  0  0  0  0  0  0  0  0  0
   36.2590   23.6860   40.4640 C   0  0  0  0  0  0  0  0  0  0  0  0
   36.8470   24.4720   41.4660 C   0  0  0  0  0  0  0  0  0  0  0  0
   37.0740   25.8070   41.1480 C   0  0  0  0  0  0  0  0  0  0  0  0
   36.7260   26.3170   39.8880 N   0  0  0  0  0  0  0  0  0  0  0  0
   36.1610   25.4980   38.9650 C   0  0  0  0  0  0  0  0  0  0  0  0
   35.9310   24.1890   39.2570 N   0  0  0  0  0  0  0  0  0  0  0  0
   36.0710   22.6400   40.6830 H   0  0  0  0  0  0  0  0  0  0  0  0
   37.1240   24.1120   42.4370 H   0  0  0  0  0  0  0  0  0  0  0  0
   35.9400   26.0060   38.0380 H   0  0  0  0  0  0  0  0  0  0  0  0
   39.5880   29.8110   41.8030 C   0  0  2  0  0  0  0  0  0  0  0  0
   39.9350   30.9450   42.6530 C   0  0  0  0  0  0  0  0  0  0  0  0
   38.7770   31.0270   41.7170 C   0  0  1  0  0  0  0  0  0  0  0  0
   40.2500   29.5870   40.9480 H   0  0  0  0  0  0  0  0  0  0  0  0
   39.7940   30.8710   43.7320 H   0  0  0  0  0  0  0  0  0  0  0  0
   40.8840   31.5020   42.4040 H   0  0  0  0  0  0  0  0  0  0  0  0
   37.7570   30.9840   42.1260 H   0  0  0  0  0  0  0  0  0  0  0  0
   38.9250   31.8270   40.5590 O   0  0  0  0  0  0  0  0  0  0  0  0
   36.4100   31.1470   40.5700 O   0  0  0  0  0  0  0  0  0  0  0  0
   37.4200   32.0010   39.8390 P   0  0  1  0  0  0  0  0  0  0  0  0
   36.8970   33.6310   39.9710 O   0  0  0  0  0  0  0  0  0  0  0  0
   37.5460   34.1820   39.4350 H   0  0  0  0  0  0  0  0  0  0  0  0
   37.3620   31.6190   38.2250 O   0  0  0  0  0  0  0  0  0  0  0  0
   37.7340   30.3400   37.8200 C   0  0  0  0  0  0  0  0  0  0  0  0
   38.6250   29.4040   38.2000 C   0  0  0  0  0  0  0  0  0  0  0  0
   39.2130   29.7300   39.0480 H   0  0  0  0  0  0  0  0  0  0  0  0
   38.7250   28.2190   37.5590 C   0  0  0  0  0  3  0  0  0  0  0  0
   37.8350   28.0450   36.4780 C   0  0  0  0  0  3  0  0  0  0  0  0
   36.8790   29.6730   36.4630 S   0  0  0  0  0  0  0  0  0  0  0  0
  1  2  1  0  0  0  0
  1  6  1  1  0  0  0
  2  8  1  0  0  0  0
  2  3  1  0  0  0  0
  3 10  1  0  0  0  0
  3  9  1  0  0  0  0
  4 11  1  1  0  0  0
  4  3  1  0  0  0  0
  5  1  1  0  0  0  0
  5  4  1  0  0  0  0
  7  2  1  0  0  0  0
 12  5  1  0  0  0  0
 13  5  1  0  0  0  0
 14 20  1  0  0  0  0
 14 15  1  0  0  0  0
 15 21  1  0  0  0  0
 16 15  2  0  0  0  0
 16  1  1  0  0  0  0
 17 16  1  0  0  0  0
 18 19  1  0  0  0  0
 18 17  2  0  0  0  0
 19 14  2  0  0  0  0
 22 18  1  0  0  0  0
 23 26  1  6  0  0  0
 23  4  1  0  0  0  0
 23 24  1  0  0  0  0
 24 27  1  0  0  0  0
 25 23  1  0  0  0  0
 25 29  1  1  0  0  0
 25 24  1  0  0  0  0
 28 24  1  0  0  0  0
 30 25  1  0  0  0  0
 32 33  1  0  0  0  0
 32 30  1  0  0  0  0
 32 31  2  1  0  0  0
 34 33  1  0  0  0  0
 35 32  1  0  0  0  0
 36 37  2  0  0  0  0
 36 35  1  0  0  0  0
 37 38  1  0  0  0  0
 39 37  1  0  0  0  0
 40 39  2  0  0  0  0
 41 40  1  0  0  0  0
 41 36  1  0  0  0  0
M  END
>  <minimizedAffinity>
-5.44411802

$$$$

 OpenBabel03252507563D

 41 44  0  0  1  0  0  0  0  0999 V2000
   36.8650   31.3010   39.3990 C   0  0  2  0  0  0  0  0  0  0  0  0
   36.3500   30.6720   40.6950 C   0  0  0  0  0  0  0  0  0  0  0  0
   35.5950   29.4800   40.0710 C   0  0  0  0  0  0  0  0  0  0  0  0
   36.4290   29.0690   38.8980 C   0  0  1  0  0  0  0  0  0  0  0  0
   37.5200   30.0930   38.7850 C   0  0  0  0  0  0  0  0  0  0  0  0
   35.9950   31.6380   38.8290 H   0  0  0  0  0  0  0  0  0  0  0  0
   37.1840   30.2670   41.2770 H   0  0  0  0  0  0  0  0  0  0  0  0
   35.6640   31.3280   41.2360 H   0  0  0  0  0  0  0  0  0  0  0  0
   34.6270   29.8730   39.6780 H   0  0  0  0  0  0  0  0  0  0  0  0
   35.4670   28.6760   40.8160 H   0  0  0  0  0  0  0  0  0  0  0  0
   35.8600   29.0590   37.9420 H   0  0  0  0  0  0  0  0  0  0  0  0
   37.7490   30.3450   37.7280 H   0  0  0  0  0  0  0  0  0  0  0  0
   38.4220   29.8310   39.3680 H   0  0  0  0  0  0  0  0  0  0  0  0
   38.4490   34.6550   40.0510 C   0  0  0  0  0  0  0  0  0  0  0  0
   37.4320   33.7160   39.8230 C   0  0  0  0  0  0  0  0  0  0  0  0
   37.8360   32.3940   39.6710 C   0  0  0  0  0  0  0  0  0  0  0  0
   39.1930   32.0420   39.7440 N   0  0  0  0  0  0  0  0  0  0  0  0
   40.1250   33.0030   39.9650 C   0  0  0  0  0  0  0  0  0  0  0  0
   39.7500   34.3020   40.1170 N   0  0  0  0  0  0  0  0  0  0  0  0
   38.1640   35.6940   40.1730 H   0  0  0  0  0  0  0  0  0  0  0  0
   36.3890   33.9540   39.7620 H   0  0  0  0  0  0  0  0  0  0  0  0
   41.1290   32.6080   40.0000 H   0  0  0  0  0  0  0  0  0  0  0  0
   37.0960   27.7200   39.0470 C   0  0  2  0  0  0  0  0  0  0  0  0
   36.1990   26.5700   39.0880 C   0  0  0  0  0  0  0  0  0  0  0  0
   36.9990   26.9500   40.2880 C   0  0  1  0  0  0  0  0  0  0  0  0
   38.0310   27.6240   38.4670 H   0  0  0  0  0  0  0  0  0  0  0  0
   35.1210   26.7270   39.0460 H   0  0  0  0  0  0  0  0  0  0  0  0
   36.5010   25.6620   38.4910 H   0  0  0  0  0  0  0  0  0  0  0  0
   36.4890   27.4250   41.1390 H   0  0  0  0  0  0  0  0  0  0  0  0
   38.0980   26.1280   40.6320 O   0  0  0  0  0  0  0  0  0  0  0  0
   36.5740   26.0270   42.7420 O   0  0  0  0  0  0  0  0  0  0  0  0
   37.9720   25.7270   42.2560 P   0  0  1  0  0  0  0  0  0  0  0  0
   38.2310   24.0420   42.4610 O   0  0  0  0  0  0  0  0  0  0  0  0
   39.1820   23.8650   42.1850 H   0  0  0  0  0  0  0  0  0  0  0  0
   39.0540   26.4920   43.2560 O   0  0  0  0  0  0  0  0  0  0  0  0
   39.3530   27.8330   43.0280 C   0  0  0  0  0  0  0  0  0  0  0  0
   38.6870   29.0040   43.0130 C   0  0  0  0  0  0  0  0  0  0  0  0
   37.6370   28.8720   43.2380 H   0  0  0  0  0  0  0  0  0  0  0  0
   39.3120   30.1710   42.7420 C   0  0  0  0  0  3  0  0  0  0  0  0
   40.6940   30.0640   42.4810 C   0  0  0  0  0  3  0  0  0  0  0  0
   41.0060   28.2100   42.6510 S   0  0  0  0  0  0  0  0  0  0  0  0
  1  6  1  6  0  0  0
  1 16  1  0  0  0  0
  1  2  1  0  0  0  0
  2  8  1  0  0  0  0
  2  7  1  0  0  0  0
  3  2  1  0  0  0  0
  3 10  1  0  0  0  0
  4 11  1  6  0  0  0
  4 23  1  0  0  0  0
  4  3  1  0  0  0  0
  5  4  1  0  0  0  0
  5 13  1  0  0  0  0
  5  1  1  0  0  0  0
  9  3  1  0  0  0  0
 12  5  1  0  0  0  0
 14 19  1  0  0  0  0
 14 20  1  0  0  0  0
 15 14  2  0  0  0  0
 16 17  2  0  0  0  0
 16 15  1  0  0  0  0
 17 18  1  0  0  0  0
 18 22  1  0  0  0  0
 18 19  2  0  0  0  0
 21 15  1  0  0  0  0
 23 26  1  6  0  0  0
 23 24  1  0  0  0  0
 23 25  1  0  0  0  0
 24 25  1  0  0  0  0
 25 30  1  0  0  0  0
 25 29  1  1  0  0  0
 27 24  1  0  0  0  0
 28 24  1  0  0  0  0
 30 32  1  0  0  0  0
 32 33  1  0  0  0  0
 32 31  2  1  0  0  0
 32 35  1  0  0  0  0
 34 33  1  0  0  0  0
 36 35  1  0  0  0  0
 37 36  2  0  0  0  0
 37 38  1  0  0  0  0
 39 37  1  0  0  0  0
 40 41  1  0  0  0  0
 40 39  2  0  0  0  0
 41 36  1  0  0  0  0
M  END
>  <minimizedAffinity>
-5.41463184

$$$$
