REMARK  Name = 
REMARK  3 active torsions:
REMARK  status: ('A' for Active; 'I' for Inactive)
REMARK    1  A    between atoms: C_2  and  N_12
REMARK    2  A    between atoms: C_11  and  S_13
REMARK    3  A    between atoms: S_13  and  C_25
REMARK                            x       y       z     vdW  Elec       q    Type
REMARK                         _______ _______ _______ _____ _____    ______ ____
ROOT
ATOM      1  C   UNL     1      44.482  35.751  45.007  0.00  0.00    +0.000 A 
ATOM      2  C   UNL     1      45.115  35.711  43.755  0.00  0.00    +0.000 A 
ATOM      3  C   UNL     1      46.013  34.716  43.483  0.00  0.00    +0.000 A 
ATOM      4  N   UNL     1      46.231  33.816  44.473  0.00  0.00    +0.000 NA
ATOM      5  C   UNL     1      45.631  33.854  45.658  0.00  0.00    +0.000 A 
ATOM      6  N   UNL     1      44.744  34.821  45.953  0.00  0.00    +0.000 NA
ATOM      7  N   UNL     1      45.954  32.845  46.599  0.00  0.00    +0.000 N 
ATOM      8  C   UNL     1      45.165  32.566  47.806  0.00  0.00    +0.000 C 
ATOM      9  C   UNL     1      46.243  32.228  48.814  0.00  0.00    +0.000 C 
ATOM     10  C   UNL     1      47.524  32.069  48.042  0.00  0.00    +0.000 C 
ATOM     11  C   UNL     1      47.036  31.905  46.628  0.00  0.00    +0.000 C 
ATOM     12  H   UNL     1      43.768  36.525  45.252  0.00  0.00    +0.000 HD
ATOM     13  H   UNL     1      46.498  34.688  42.519  0.00  0.00    +0.000 HD
ATOM     14  H   UNL     1      44.623  33.512  48.091  0.00  0.00    +0.000 HD
ATOM     15  H   UNL     1      44.450  31.739  47.637  0.00  0.00    +0.000 HD
ATOM     16  H   UNL     1      46.307  32.980  49.630  0.00  0.00    +0.000 HD
ATOM     17  H   UNL     1      45.973  31.242  49.259  0.00  0.00    +0.000 HD
ATOM     18  H   UNL     1      48.086  33.025  48.099  0.00  0.00    +0.000 HD
ATOM     19  H   UNL     1      48.127  31.200  48.378  0.00  0.00    +0.000 HD
ATOM     20  H   UNL     1      47.836  32.177  45.885  0.00  0.00    +0.000 HD
ENDROOT
BRANCH   2  21
ATOM     21  N   UNL     1      44.765  36.747  42.819  0.00  0.00    +0.000 N 
ATOM     22  H   UNL     1      44.536  37.698  43.132  0.00  0.00    +0.000 HD
ATOM     23  H   UNL     1      44.740  36.534  41.777  0.00  0.00    +0.000 HD
ENDBRANCH   2  21
BRANCH  11  24
ATOM     24  S   UNL     1      46.477  30.196  46.374  0.00  0.00    +0.000 S 
BRANCH  24  25
ATOM     25  C   UNL     1      45.842  29.853  44.842  0.00  0.00    +0.000 A 
ATOM     26  C   UNL     1      45.069  28.851  44.206  0.00  0.00    +0.000 A 
ATOM     27  H   UNL     1      44.821  28.093  44.919  0.00  0.00    +0.000 HD
ATOM     28  C   UNL     1      44.738  28.921  42.886  0.00  0.00    +0.000 A 
ATOM     29  C   UNL     1      45.233  30.116  42.133  0.00  0.00    +0.000 A 
ATOM     30  S   UNL     1      46.174  31.076  43.450  0.00  0.00    +0.000 S 
ENDBRANCH  24  25
ENDBRANCH  11  24
TORSDOF 3
