
 OpenBabel03252505403D

 25 27  0  0  1  0  0  0  0  0999 V2000
   45.1250   34.0250   43.8110 C   0  0  1  0  0  0  0  0  0  0  0  0
   45.9870   35.1330   43.1920 C   0  0  0  0  0  0  0  0  0  0  0  0
   45.2490   34.1250   42.3560 C   0  0  2  0  0  0  0  0  0  0  0  0
   44.1950   34.3610   44.3160 H   0  0  0  0  0  0  0  0  0  0  0  0
   47.0840   35.0780   43.3030 H   0  0  0  0  0  0  0  0  0  0  0  0
   45.5150   36.1240   43.2430 H   0  0  0  0  0  0  0  0  0  0  0  0
   45.9340   33.4020   41.8650 H   0  0  0  0  0  0  0  0  0  0  0  0
   45.8890   33.0200   44.5930 C   0  0  0  0  0  0  0  0  0  0  0  0
   46.5230   31.9640   43.8890 C   0  0  0  0  0  0  0  0  0  0  0  0
   47.2520   31.0280   44.6280 C   0  0  0  0  0  0  0  0  0  0  0  0
   47.3040   31.1940   45.9750 N   0  0  0  0  0  0  0  0  0  0  0  0
   46.6880   32.2120   46.6070 C   0  0  0  0  0  0  0  0  0  0  0  0
   45.9840   33.1150   45.9030 N   0  0  0  0  0  0  0  0  0  0  0  0
   46.4670   31.8520   42.8060 H   0  0  0  0  0  0  0  0  0  0  0  0
   47.7670   30.1910   44.1740 H   0  0  0  0  0  0  0  0  0  0  0  0
   46.8900   32.2000   48.0890 C   0  0  0  0  0  0  0  0  0  0  0  0
   45.8610   32.8430   48.7460 F   0  0  0  0  0  0  0  0  0  0  0  0
   48.0850   32.8480   48.4100 F   0  0  0  0  0  0  0  0  0  0  0  0
   47.0340   30.8840   48.5120 F   0  0  0  0  0  0  0  0  0  0  0  0
   44.1000   34.4960   41.5660 C   0  0  0  0  0  0  0  0  0  0  0  0
   43.0550   35.3420   41.7240 C   0  0  0  0  0  0  0  0  0  0  0  0
   43.0480   35.8860   42.6540 H   0  0  0  0  0  0  0  0  0  0  0  0
   42.0940   35.4790   40.7710 C   0  0  0  0  0  3  0  0  0  0  0  0
   42.2880   34.6420   39.5710 C   0  0  0  0  0  3  0  0  0  0  0  0
   43.8770   33.7100   39.9390 S   0  0  0  0  0  0  0  0  0  0  0  0
  1  4  1  1  0  0  0
  1  8  1  0  0  0  0
  2  6  1  0  0  0  0
  2  5  1  0  0  0  0
  2  1  1  0  0  0  0
  3  7  1  6  0  0  0
  3  2  1  0  0  0  0
  3  1  1  0  0  0  0
  8 13  1  0  0  0  0
  9  8  2  0  0  0  0
  9 10  1  0  0  0  0
 10 11  2  0  0  0  0
 11 12  1  0  0  0  0
 12 16  1  0  0  0  0
 13 12  2  0  0  0  0
 14  9  1  0  0  0  0
 15 10  1  0  0  0  0
 16 18  1  0  0  0  0
 16 19  1  0  0  0  0
 16 17  1  0  0  0  0
 20 21  2  0  0  0  0
 20  3  1  0  0  0  0
 21 22  1  0  0  0  0
 23 21  1  0  0  0  0
 24 25  1  0  0  0  0
 24 23  2  0  0  0  0
 25 20  1  0  0  0  0
M  END
>  <minimizedAffinity>
-4.5446558

>  <minimizedRMSD>
1.69118857

$$$$
