
 OpenBabel03252506113D

 27 29  0  0  0  0  0  0  0  0999 V2000
   38.1620   28.2050   39.7310 F   0  0  0  0  0  0  0  0  0  0  0  0
   37.7730   28.0040   40.9930 C   0  0  0  0  0  0  0  0  0  0  0  0
   37.8170   29.0550   41.8840 C   0  0  0  0  0  0  0  0  0  0  0  0
   37.4330   28.9310   43.2000 C   0  0  0  0  0  0  0  0  0  0  0  0
   36.9770   27.7030   43.6790 C   0  0  0  0  0  0  0  0  0  0  0  0
   36.9550   26.6890   42.7410 C   0  0  0  0  0  0  0  0  0  0  0  0
   37.3290   26.7700   41.4190 C   0  0  0  0  0  0  0  0  0  0  0  0
   37.4830   29.7820   43.8690 H   0  0  0  0  0  0  0  0  0  0  0  0
   36.6740   27.5770   44.6930 H   0  0  0  0  0  0  0  0  0  0  0  0
   36.5890   25.7390   43.1630 H   0  0  0  0  0  0  0  0  0  0  0  0
   37.8700   32.4730   40.5010 C   0  0  0  0  0  0  0  0  0  0  0  0
   39.2330   32.8060   40.6310 C   0  0  0  0  0  0  0  0  0  0  0  0
   40.1290   31.8700   41.1850 C   0  0  0  0  0  0  0  0  0  0  0  0
   39.5960   30.6690   41.5710 N   0  0  0  0  0  0  0  0  0  0  0  0
   38.2890   30.3770   41.4370 C   0  0  0  0  0  0  0  0  0  0  0  0
   37.4610   31.2680   40.9140 N   0  0  0  0  0  0  0  0  0  0  0  0
   39.5950   33.7700   40.3070 H   0  0  0  0  0  0  0  0  0  0  0  0
   41.1800   32.0850   41.3020 H   0  0  0  0  0  0  0  0  0  0  0  0
   36.9810   33.4150   39.9460 N   0  0  0  0  0  0  0  0  0  0  0  0
   35.9940   33.1270   39.7680 H   0  0  0  0  0  0  0  0  0  0  0  0
   37.3040   34.3760   39.7170 H   0  0  0  0  0  0  0  0  0  0  0  0
   37.2450   25.6230   40.5820 C   0  0  0  0  0  0  0  0  0  0  0  0
   36.5400   25.4130   39.4130 C   0  0  0  0  0  0  0  0  0  0  0  0
   35.9160   26.1780   38.9700 H   0  0  0  0  0  0  0  0  0  0  0  0
   36.6080   24.2290   38.7790 C   0  0  0  0  0  3  0  0  0  0  0  0
   37.4390   23.2320   39.3800 C   0  0  0  0  0  3  0  0  0  0  0  0
   38.0900   24.1420   40.9070 S   0  0  0  0  0  0  0  0  0  0  0  0
  1  2  1  0  0  0  0
  2  7  2  0  0  0  0
  2  3  1  0  0  0  0
  3  4  2  0  0  0  0
  4  5  1  0  0  0  0
  4  8  1  0  0  0  0
  5  9  1  0  0  0  0
  6 10  1  0  0  0  0
  6  5  2  0  0  0  0
  7  6  1  0  0  0  0
 11 12  2  0  0  0  0
 11 16  1  0  0  0  0
 12 13  1  0  0  0  0
 13 18  1  0  0  0  0
 13 14  2  0  0  0  0
 15 14  1  0  0  0  0
 15  3  1  0  0  0  0
 16 15  2  0  0  0  0
 17 12  1  0  0  0  0
 19 11  1  0  0  0  0
 20 19  1  0  0  0  0
 21 19  1  0  0  0  0
 22 27  1  0  0  0  0
 22  7  1  0  0  0  0
 23 22  2  0  0  0  0
 24 23  1  0  0  0  0
 25 26  2  0  0  0  0
 25 23  1  0  0  0  0
 26 27  1  0  0  0  0
M  END
>  <minimizedAffinity>
-5.56326294

$$$$

 OpenBabel03252506113D

 27 29  0  0  0  0  0  0  0  0999 V2000
   39.9550   28.8790   40.9670 F   0  0  0  0  0  0  0  0  0  0  0  0
   38.6190   28.9200   40.9880 C   0  0  0  0  0  0  0  0  0  0  0  0
   37.9770   30.0530   40.5330 C   0  0  0  0  0  0  0  0  0  0  0  0
   36.6060   30.1750   40.5210 C   0  0  0  0  0  0  0  0  0  0  0  0
   35.8090   29.1270   40.9810 C   0  0  0  0  0  0  0  0  0  0  0  0
   36.5090   28.0210   41.4230 C   0  0  0  0  0  0  0  0  0  0  0  0
   37.8750   27.8560   41.4530 C   0  0  0  0  0  0  0  0  0  0  0  0
   36.1390   31.0820   40.1550 H   0  0  0  0  0  0  0  0  0  0  0  0
   34.7450   29.1940   40.9830 H   0  0  0  0  0  0  0  0  0  0  0  0
   35.8400   27.2190   41.7770 H   0  0  0  0  0  0  0  0  0  0  0  0
   39.8500   32.3030   38.2920 C   0  0  0  0  0  0  0  0  0  0  0  0
   40.2220   33.3350   39.1790 C   0  0  0  0  0  0  0  0  0  0  0  0
   39.8360   33.2610   40.5330 C   0  0  0  0  0  0  0  0  0  0  0  0
   39.1070   32.1630   40.9010 N   0  0  0  0  0  0  0  0  0  0  0  0
   38.7640   31.1930   40.0340 C   0  0  0  0  0  0  0  0  0  0  0  0
   39.1340   31.2760   38.7650 N   0  0  0  0  0  0  0  0  0  0  0  0
   40.7990   34.1770   38.8280 H   0  0  0  0  0  0  0  0  0  0  0  0
   40.1010   34.0290   41.2430 H   0  0  0  0  0  0  0  0  0  0  0  0
   40.2390   32.3850   36.9410 N   0  0  0  0  0  0  0  0  0  0  0  0
   40.0410   31.5750   36.3130 H   0  0  0  0  0  0  0  0  0  0  0  0
   40.7150   33.2340   36.5770 H   0  0  0  0  0  0  0  0  0  0  0  0
   38.4380   26.6460   41.9430 C   0  0  0  0  0  0  0  0  0  0  0  0
   38.3250   25.3500   41.4800 C   0  0  0  0  0  0  0  0  0  0  0  0
   37.7370   25.0980   40.6070 H   0  0  0  0  0  0  0  0  0  0  0  0
   38.9550   24.3430   42.1100 C   0  0  0  0  0  3  0  0  0  0  0  0
   39.7280   24.6970   43.2610 C   0  0  0  0  0  3  0  0  0  0  0  0
   39.4640   26.5700   43.3410 S   0  0  0  0  0  0  0  0  0  0  0  0
  1  2  1  0  0  0  0
  2  7  1  0  0  0  0
  3  2  2  0  0  0  0
  4  3  1  0  0  0  0
  4  5  2  0  0  0  0
  5  9  1  0  0  0  0
  5  6  1  0  0  0  0
  6  7  2  0  0  0  0
  6 10  1  0  0  0  0
  7 22  1  0  0  0  0
  8  4  1  0  0  0  0
 11 16  2  0  0  0  0
 11 12  1  0  0  0  0
 12 13  2  0  0  0  0
 13 14  1  0  0  0  0
 13 18  1  0  0  0  0
 15  3  1  0  0  0  0
 15 14  2  0  0  0  0
 16 15  1  0  0  0  0
 17 12  1  0  0  0  0
 19 11  1  0  0  0  0
 20 19  1  0  0  0  0
 21 19  1  0  0  0  0
 22 27  1  0  0  0  0
 23 22  2  0  0  0  0
 23 25  1  0  0  0  0
 24 23  1  0  0  0  0
 25 26  2  0  0  0  0
 26 27  1  0  0  0  0
M  END
>  <minimizedAffinity>
-5.28811932

$$$$

 OpenBabel03252506113D

 27 29  0  0  0  0  0  0  0  0999 V2000
   37.3070   30.9480   37.4300 F   0  0  0  0  0  0  0  0  0  0  0  0
   36.5490   30.3500   38.3540 C   0  0  0  0  0  0  0  0  0  0  0  0
   36.6520   30.7540   39.6690 C   0  0  0  0  0  0  0  0  0  0  0  0
   35.9070   30.1900   40.6790 C   0  0  0  0  0  0  0  0  0  0  0  0
   35.0040   29.1660   40.3910 C   0  0  0  0  0  0  0  0  0  0  0  0
   34.9470   28.8050   39.0590 C   0  0  0  0  0  0  0  0  0  0  0  0
   35.6710   29.3410   38.0190 C   0  0  0  0  0  0  0  0  0  0  0  0
   36.0160   30.5360   41.7000 H   0  0  0  0  0  0  0  0  0  0  0  0
   34.4150   28.7110   41.1540 H   0  0  0  0  0  0  0  0  0  0  0  0
   34.2220   27.9940   38.8790 H   0  0  0  0  0  0  0  0  0  0  0  0
   39.5610   32.5490   41.0500 C   0  0  0  0  0  0  0  0  0  0  0  0
   39.2710   33.8780   40.6800 C   0  0  0  0  0  0  0  0  0  0  0  0
   38.0900   34.1590   39.9650 C   0  0  0  0  0  0  0  0  0  0  0  0
   37.2850   33.0910   39.6700 N   0  0  0  0  0  0  0  0  0  0  0  0
   37.5860   31.8310   40.0350 C   0  0  0  0  0  0  0  0  0  0  0  0
   38.7000   31.5840   40.7080 N   0  0  0  0  0  0  0  0  0  0  0  0
   39.9460   34.6790   40.9420 H   0  0  0  0  0  0  0  0  0  0  0  0
   37.8310   35.1620   39.6630 H   0  0  0  0  0  0  0  0  0  0  0  0
   40.7440   32.2760   41.7650 N   0  0  0  0  0  0  0  0  0  0  0  0
   40.9050   31.3070   42.1160 H   0  0  0  0  0  0  0  0  0  0  0  0
   41.4410   33.0260   41.9400 H   0  0  0  0  0  0  0  0  0  0  0  0
   35.4910   28.8510   36.6960 C   0  0  0  0  0  0  0  0  0  0  0  0
   34.4250   28.9800   35.8270 C   0  0  0  0  0  0  0  0  0  0  0  0
   33.5280   29.5240   36.0910 H   0  0  0  0  0  0  0  0  0  0  0  0
   34.4720   28.4240   34.6030 C   0  0  0  0  0  3  0  0  0  0  0  0
   35.6670   27.7110   34.2730 C   0  0  0  0  0  3  0  0  0  0  0  0
   36.6860   27.9140   35.8550 S   0  0  0  0  0  0  0  0  0  0  0  0
  1  2  1  0  0  0  0
  2  3  1  0  0  0  0
  3 15  1  0  0  0  0
  3  4  2  0  0  0  0
  4  8  1  0  0  0  0
  5  4  1  0  0  0  0
  5  9  1  0  0  0  0
  6  5  2  0  0  0  0
  7  2  2  0  0  0  0
  7  6  1  0  0  0  0
 10  6  1  0  0  0  0
 11 19  1  0  0  0  0
 12 17  1  0  0  0  0
 12 11  2  0  0  0  0
 13 12  1  0  0  0  0
 14 13  2  0  0  0  0
 14 15  1  0  0  0  0
 15 16  2  0  0  0  0
 16 11  1  0  0  0  0
 18 13  1  0  0  0  0
 19 21  1  0  0  0  0
 19 20  1  0  0  0  0
 22  7  1  0  0  0  0
 23 24  1  0  0  0  0
 23 22  2  0  0  0  0
 25 23  1  0  0  0  0
 26 25  2  0  0  0  0
 26 27  1  0  0  0  0
 27 22  1  0  0  0  0
M  END
>  <minimizedAffinity>
-5.18115568

$$$$

 OpenBabel03252506113D

 27 29  0  0  0  0  0  0  0  0999 V2000
   39.2200   28.3190   40.4270 F   0  0  0  0  0  0  0  0  0  0  0  0
   37.9740   28.8020   40.3940 C   0  0  0  0  0  0  0  0  0  0  0  0
   37.7790   30.1360   40.1070 C   0  0  0  0  0  0  0  0  0  0  0  0
   36.5290   30.7100   40.0540 C   0  0  0  0  0  0  0  0  0  0  0  0
   35.3960   29.9350   40.2970 C   0  0  0  0  0  0  0  0  0  0  0  0
   35.6540   28.6080   40.5790 C   0  0  0  0  0  0  0  0  0  0  0  0
   36.8840   27.9930   40.6420 C   0  0  0  0  0  0  0  0  0  0  0  0
   36.4190   31.7640   39.8250 H   0  0  0  0  0  0  0  0  0  0  0  0
   34.4160   30.3520   40.2630 H   0  0  0  0  0  0  0  0  0  0  0  0
   34.7310   28.0340   40.7640 H   0  0  0  0  0  0  0  0  0  0  0  0
   40.2660   32.2200   38.3540 C   0  0  0  0  0  0  0  0  0  0  0  0
   41.0990   32.6160   39.4200 C   0  0  0  0  0  0  0  0  0  0  0  0
   40.8140   32.1750   40.7280 C   0  0  0  0  0  0  0  0  0  0  0  0
   39.7170   31.3700   40.8750 N   0  0  0  0  0  0  0  0  0  0  0  0
   38.9370   31.0060   39.8400 C   0  0  0  0  0  0  0  0  0  0  0  0
   39.2190   31.4290   38.6170 N   0  0  0  0  0  0  0  0  0  0  0  0
   41.9520   33.2530   39.2410 H   0  0  0  0  0  0  0  0  0  0  0  0
   41.4270   32.4550   41.5710 H   0  0  0  0  0  0  0  0  0  0  0  0
   40.5580   32.6650   37.0500 N   0  0  0  0  0  0  0  0  0  0  0  0
   39.9930   32.2930   36.2560 H   0  0  0  0  0  0  0  0  0  0  0  0
   41.3210   33.3510   36.8840 H   0  0  0  0  0  0  0  0  0  0  0  0
   36.9760   26.6070   40.9480 C   0  0  0  0  0  0  0  0  0  0  0  0
   37.2790   25.9670   42.1330 C   0  0  0  0  0  0  0  0  0  0  0  0
   37.4970   26.5100   43.0430 H   0  0  0  0  0  0  0  0  0  0  0  0
   37.3100   24.6240   42.1940 C   0  0  0  0  0  3  0  0  0  0  0  0
   37.0180   23.9250   40.9810 C   0  0  0  0  0  3  0  0  0  0  0  0
   36.7030   25.3530   39.7790 S   0  0  0  0  0  0  0  0  0  0  0  0
  2  1  1  0  0  0  0
  2  7  1  0  0  0  0
  3  2  2  0  0  0  0
  4  3  1  0  0  0  0
  4  5  2  0  0  0  0
  5  6  1  0  0  0  0
  6  7  2  0  0  0  0
  6 10  1  0  0  0  0
  7 22  1  0  0  0  0
  8  4  1  0  0  0  0
  9  5  1  0  0  0  0
 11 16  2  0  0  0  0
 11 12  1  0  0  0  0
 12 13  2  0  0  0  0
 13 14  1  0  0  0  0
 13 18  1  0  0  0  0
 15  3  1  0  0  0  0
 15 14  2  0  0  0  0
 16 15  1  0  0  0  0
 17 12  1  0  0  0  0
 19 11  1  0  0  0  0
 20 19  1  0  0  0  0
 21 19  1  0  0  0  0
 22 23  2  0  0  0  0
 23 25  1  0  0  0  0
 23 24  1  0  0  0  0
 26 25  2  0  0  0  0
 27 22  1  0  0  0  0
 27 26  1  0  0  0  0
M  END
>  <minimizedAffinity>
-5.17642021

$$$$

 OpenBabel03252506113D

 27 29  0  0  0  0  0  0  0  0999 V2000
   38.2590   28.1670   39.7650 F   0  0  0  0  0  0  0  0  0  0  0  0
   37.8470   27.9410   41.0160 C   0  0  0  0  0  0  0  0  0  0  0  0
   37.7620   28.9990   41.8960 C   0  0  0  0  0  0  0  0  0  0  0  0
   37.3470   28.8500   43.1990 C   0  0  0  0  0  0  0  0  0  0  0  0
   36.9920   27.5890   43.6780 C   0  0  0  0  0  0  0  0  0  0  0  0
   37.0980   26.5700   42.7520 C   0  0  0  0  0  0  0  0  0  0  0  0
   37.5070   26.6740   41.4420 C   0  0  0  0  0  0  0  0  0  0  0  0
   37.2930   29.7080   43.8600 H   0  0  0  0  0  0  0  0  0  0  0  0
   36.6670   27.4440   44.6830 H   0  0  0  0  0  0  0  0  0  0  0  0
   36.8080   25.5930   43.1730 H   0  0  0  0  0  0  0  0  0  0  0  0
   39.6720   32.0910   41.2710 C   0  0  0  0  0  0  0  0  0  0  0  0
   38.7180   32.8770   40.5940 C   0  0  0  0  0  0  0  0  0  0  0  0
   37.4310   32.3550   40.3530 C   0  0  0  0  0  0  0  0  0  0  0  0
   37.1920   31.0860   40.8060 N   0  0  0  0  0  0  0  0  0  0  0  0
   38.1210   30.3560   41.4490 C   0  0  0  0  0  0  0  0  0  0  0  0
   39.3260   30.8610   41.6690 N   0  0  0  0  0  0  0  0  0  0  0  0
   38.9660   33.8740   40.2610 H   0  0  0  0  0  0  0  0  0  0  0  0
   36.6720   32.9240   39.8380 H   0  0  0  0  0  0  0  0  0  0  0  0
   40.9560   32.6200   41.5090 N   0  0  0  0  0  0  0  0  0  0  0  0
   41.6240   32.0700   42.0910 H   0  0  0  0  0  0  0  0  0  0  0  0
   41.2310   33.5400   41.1120 H   0  0  0  0  0  0  0  0  0  0  0  0
   37.5600   25.5170   40.6160 C   0  0  0  0  0  0  0  0  0  0  0  0
   38.3990   24.4210   40.6570 C   0  0  0  0  0  0  0  0  0  0  0  0
   39.1800   24.3200   41.4000 H   0  0  0  0  0  0  0  0  0  0  0  0
   38.2680   23.4270   39.7610 C   0  0  0  0  0  3  0  0  0  0  0  0
   37.2290   23.5790   38.7900 C   0  0  0  0  0  3  0  0  0  0  0  0
   36.4830   25.2480   39.2810 S   0  0  0  0  0  0  0  0  0  0  0  0
  1  2  1  0  0  0  0
  2  7  2  0  0  0  0
  2  3  1  0  0  0  0
  3  4  2  0  0  0  0
  4  5  1  0  0  0  0
  4  8  1  0  0  0  0
  5  9  1  0  0  0  0
  6 10  1  0  0  0  0
  6  5  2  0  0  0  0
  7  6  1  0  0  0  0
 11 19  1  0  0  0  0
 11 16  1  0  0  0  0
 12 11  2  0  0  0  0
 13 12  1  0  0  0  0
 13 14  2  0  0  0  0
 14 15  1  0  0  0  0
 15 16  2  0  0  0  0
 15  3  1  0  0  0  0
 17 12  1  0  0  0  0
 18 13  1  0  0  0  0
 19 20  1  0  0  0  0
 21 19  1  0  0  0  0
 22 23  2  0  0  0  0
 22  7  1  0  0  0  0
 23 24  1  0  0  0  0
 25 23  1  0  0  0  0
 26 27  1  0  0  0  0
 26 25  2  0  0  0  0
 27 22  1  0  0  0  0
M  END
>  <minimizedAffinity>
-5.153368

$$$$

 OpenBabel03252506113D

 27 29  0  0  0  0  0  0  0  0999 V2000
   38.8250   28.8300   40.6840 F   0  0  0  0  0  0  0  0  0  0  0  0
   37.7200   28.8660   39.9330 C   0  0  0  0  0  0  0  0  0  0  0  0
   37.4140   30.0220   39.2450 C   0  0  0  0  0  0  0  0  0  0  0  0
   36.2970   30.1400   38.4510 C   0  0  0  0  0  0  0  0  0  0  0  0
   35.4200   29.0630   38.3170 C   0  0  0  0  0  0  0  0  0  0  0  0
   35.7790   27.9360   39.0290 C   0  0  0  0  0  0  0  0  0  0  0  0
   36.8840   27.7740   39.8330 C   0  0  0  0  0  0  0  0  0  0  0  0
   36.0920   31.0660   37.9270 H   0  0  0  0  0  0  0  0  0  0  0  0
   34.5470   29.1270   37.7090 H   0  0  0  0  0  0  0  0  0  0  0  0
   35.0590   27.1120   38.8950 H   0  0  0  0  0  0  0  0  0  0  0  0
   38.9280   33.1840   40.3880 C   0  0  0  0  0  0  0  0  0  0  0  0
   39.9860   33.3350   39.4700 C   0  0  0  0  0  0  0  0  0  0  0  0
   40.1810   32.3650   38.4660 C   0  0  0  0  0  0  0  0  0  0  0  0
   39.3050   31.3130   38.4550 N   0  0  0  0  0  0  0  0  0  0  0  0
   38.3020   31.1920   39.3450 C   0  0  0  0  0  0  0  0  0  0  0  0
   38.1320   32.1140   40.2820 N   0  0  0  0  0  0  0  0  0  0  0  0
   40.6460   34.1880   39.5290 H   0  0  0  0  0  0  0  0  0  0  0  0
   40.9790   32.4430   37.7440 H   0  0  0  0  0  0  0  0  0  0  0  0
   38.7400   34.1590   41.3880 N   0  0  0  0  0  0  0  0  0  0  0  0
   37.9010   34.0890   42.0040 H   0  0  0  0  0  0  0  0  0  0  0  0
   39.4230   34.9320   41.5080 H   0  0  0  0  0  0  0  0  0  0  0  0
   37.1080   26.5380   40.5010 C   0  0  0  0  0  0  0  0  0  0  0  0
   37.0240   26.2120   41.8400 C   0  0  0  0  0  0  0  0  0  0  0  0
   36.7500   26.9380   42.5940 H   0  0  0  0  0  0  0  0  0  0  0  0
   37.2840   24.9600   42.2550 C   0  0  0  0  0  3  0  0  0  0  0  0
   37.6430   24.0160   41.2420 C   0  0  0  0  0  3  0  0  0  0  0  0
   37.5730   25.0810   39.6790 S   0  0  0  0  0  0  0  0  0  0  0  0
  2  1  1  0  0  0  0
  3 15  1  0  0  0  0
  3  2  2  0  0  0  0
  4  3  1  0  0  0  0
  5  4  2  0  0  0  0
  5  6  1  0  0  0  0
  6  7  2  0  0  0  0
  7  2  1  0  0  0  0
  7 22  1  0  0  0  0
  8  4  1  0  0  0  0
  9  5  1  0  0  0  0
 10  6  1  0  0  0  0
 11 19  1  0  0  0  0
 12 17  1  0  0  0  0
 12 11  2  0  0  0  0
 13 12  1  0  0  0  0
 14 13  2  0  0  0  0
 14 15  1  0  0  0  0
 15 16  2  0  0  0  0
 16 11  1  0  0  0  0
 18 13  1  0  0  0  0
 19 21  1  0  0  0  0
 19 20  1  0  0  0  0
 22 23  2  0  0  0  0
 23 25  1  0  0  0  0
 23 24  1  0  0  0  0
 26 25  2  0  0  0  0
 27 22  1  0  0  0  0
 27 26  1  0  0  0  0
M  END
>  <minimizedAffinity>
-5.12963915

$$$$

 OpenBabel03252506113D

 27 29  0  0  0  0  0  0  0  0999 V2000
   36.4890   27.8950   39.2310 F   0  0  0  0  0  0  0  0  0  0  0  0
   36.8270   29.1750   39.4140 C   0  0  0  0  0  0  0  0  0  0  0  0
   36.6090   30.0780   38.3950 C   0  0  0  0  0  0  0  0  0  0  0  0
   36.9290   31.4120   38.5040 C   0  0  0  0  0  0  0  0  0  0  0  0
   37.4980   31.8990   39.6800 C   0  0  0  0  0  0  0  0  0  0  0  0
   37.6930   30.9480   40.6630 C   0  0  0  0  0  0  0  0  0  0  0  0
   37.3880   29.6070   40.5970 C   0  0  0  0  0  0  0  0  0  0  0  0
   36.7400   32.0900   37.6790 H   0  0  0  0  0  0  0  0  0  0  0  0
   37.7560   32.9270   39.7920 H   0  0  0  0  0  0  0  0  0  0  0  0
   38.1440   31.3760   41.5730 H   0  0  0  0  0  0  0  0  0  0  0  0
   36.1700   29.2160   34.8370 C   0  0  0  0  0  0  0  0  0  0  0  0
   34.8320   28.7730   34.8200 C   0  0  0  0  0  0  0  0  0  0  0  0
   34.0840   28.7690   36.0150 C   0  0  0  0  0  0  0  0  0  0  0  0
   34.7290   29.2080   37.1400 N   0  0  0  0  0  0  0  0  0  0  0  0
   36.0090   29.6250   37.1290 C   0  0  0  0  0  0  0  0  0  0  0  0
   36.6970   29.6230   35.9970 N   0  0  0  0  0  0  0  0  0  0  0  0
   34.3770   28.4380   33.8990 H   0  0  0  0  0  0  0  0  0  0  0  0
   33.0580   28.4380   36.0450 H   0  0  0  0  0  0  0  0  0  0  0  0
   36.9100   29.2170   33.6380 N   0  0  0  0  0  0  0  0  0  0  0  0
   37.8670   29.6330   33.6410 H   0  0  0  0  0  0  0  0  0  0  0  0
   36.5100   28.8110   32.7690 H   0  0  0  0  0  0  0  0  0  0  0  0
   37.6550   28.7580   41.7070 C   0  0  0  0  0  0  0  0  0  0  0  0
   36.7940   28.0830   42.5500 C   0  0  0  0  0  0  0  0  0  0  0  0
   35.7190   28.1360   42.4390 H   0  0  0  0  0  0  0  0  0  0  0  0
   37.2750   27.3250   43.5510 C   0  0  0  0  0  3  0  0  0  0  0  0
   38.6980   27.2680   43.6790 C   0  0  0  0  0  3  0  0  0  0  0  0
   39.2590   28.3830   42.2560 S   0  0  0  0  0  0  0  0  0  0  0  0
  1  2  1  0  0  0  0
  2  7  1  0  0  0  0
  3  4  1  0  0  0  0
  3  2  2  0  0  0  0
  4  5  2  0  0  0  0
  5  9  1  0  0  0  0
  5  6  1  0  0  0  0
  6 10  1  0  0  0  0
  7  6  2  0  0  0  0
  7 22  1  0  0  0  0
  8  4  1  0  0  0  0
 11 16  1  0  0  0  0
 12 11  2  0  0  0  0
 12 13  1  0  0  0  0
 13 18  1  0  0  0  0
 13 14  2  0  0  0  0
 15 14  1  0  0  0  0
 15  3  1  0  0  0  0
 16 15  2  0  0  0  0
 17 12  1  0  0  0  0
 19 20  1  0  0  0  0
 19 11  1  0  0  0  0
 21 19  1  0  0  0  0
 22 27  1  0  0  0  0
 22 23  2  0  0  0  0
 23 25  1  0  0  0  0
 24 23  1  0  0  0  0
 25 26  2  0  0  0  0
 27 26  1  0  0  0  0
M  END
>  <minimizedAffinity>
-5.07538795

$$$$

 OpenBabel03252506113D

 27 29  0  0  0  0  0  0  0  0999 V2000
   40.0090   28.9320   40.8770 F   0  0  0  0  0  0  0  0  0  0  0  0
   38.9560   28.4400   41.5370 C   0  0  0  0  0  0  0  0  0  0  0  0
   37.7010   28.9450   41.2680 C   0  0  0  0  0  0  0  0  0  0  0  0
   36.5670   28.4930   41.9030 C   0  0  0  0  0  0  0  0  0  0  0  0
   36.6610   27.4840   42.8620 C   0  0  0  0  0  0  0  0  0  0  0  0
   37.9420   27.0210   43.0880 C   0  0  0  0  0  0  0  0  0  0  0  0
   39.1010   27.4420   42.4780 C   0  0  0  0  0  0  0  0  0  0  0  0
   35.5980   28.9160   41.6620 H   0  0  0  0  0  0  0  0  0  0  0  0
   35.7990   27.1160   43.3700 H   0  0  0  0  0  0  0  0  0  0  0  0
   37.9680   26.2260   43.8520 H   0  0  0  0  0  0  0  0  0  0  0  0
   37.4800   30.7120   38.0390 C   0  0  0  0  0  0  0  0  0  0  0  0
   37.2250   32.0330   38.4600 C   0  0  0  0  0  0  0  0  0  0  0  0
   37.1290   32.3180   39.8370 C   0  0  0  0  0  0  0  0  0  0  0  0
   37.2960   31.2620   40.6920 N   0  0  0  0  0  0  0  0  0  0  0  0
   37.5380   30.0100   40.2640 C   0  0  0  0  0  0  0  0  0  0  0  0
   37.6250   29.7580   38.9660 N   0  0  0  0  0  0  0  0  0  0  0  0
   37.1030   32.8250   37.7370 H   0  0  0  0  0  0  0  0  0  0  0  0
   36.9350   33.3150   40.2010 H   0  0  0  0  0  0  0  0  0  0  0  0
   37.5740   30.4360   36.6610 N   0  0  0  0  0  0  0  0  0  0  0  0
   37.8550   29.4770   36.3610 H   0  0  0  0  0  0  0  0  0  0  0  0
   37.3680   31.1720   35.9580 H   0  0  0  0  0  0  0  0  0  0  0  0
   40.3480   26.8560   42.8290 C   0  0  0  0  0  0  0  0  0  0  0  0
   41.4600   27.4050   43.4360 C   0  0  0  0  0  0  0  0  0  0  0  0
   41.4980   28.4430   43.7400 H   0  0  0  0  0  0  0  0  0  0  0  0
   42.5480   26.6520   43.6760 C   0  0  0  0  0  3  0  0  0  0  0  0
   42.4760   25.2820   43.2680 C   0  0  0  0  0  3  0  0  0  0  0  0
   40.7370   25.1910   42.5280 S   0  0  0  0  0  0  0  0  0  0  0  0
  1  2  1  0  0  0  0
  2  7  1  0  0  0  0
  3  2  2  0  0  0  0
  3  4  1  0  0  0  0
  4  5  2  0  0  0  0
  5  6  1  0  0  0  0
  5  9  1  0  0  0  0
  6 10  1  0  0  0  0
  7 22  1  0  0  0  0
  7  6  2  0  0  0  0
  8  4  1  0  0  0  0
 11 12  2  0  0  0  0
 11 16  1  0  0  0  0
 12 13  1  0  0  0  0
 13 18  1  0  0  0  0
 13 14  2  0  0  0  0
 15 14  1  0  0  0  0
 15  3  1  0  0  0  0
 16 15  2  0  0  0  0
 17 12  1  0  0  0  0
 19 11  1  0  0  0  0
 20 19  1  0  0  0  0
 21 19  1  0  0  0  0
 22 23  2  0  0  0  0
 23 25  1  0  0  0  0
 23 24  1  0  0  0  0
 26 25  2  0  0  0  0
 27 22  1  0  0  0  0
 27 26  1  0  0  0  0
M  END
>  <minimizedAffinity>
-5.05710697

$$$$

 OpenBabel03252506113D

 27 29  0  0  0  0  0  0  0  0999 V2000
   36.0880   26.6010   39.0630 F   0  0  0  0  0  0  0  0  0  0  0  0
   36.2270   27.6760   39.8450 C   0  0  0  0  0  0  0  0  0  0  0  0
   35.6450   28.8650   39.4590 C   0  0  0  0  0  0  0  0  0  0  0  0
   35.7410   30.0160   40.2070 C   0  0  0  0  0  0  0  0  0  0  0  0
   36.4490   30.0100   41.4090 C   0  0  0  0  0  0  0  0  0  0  0  0
   37.0080   28.7920   41.7420 C   0  0  0  0  0  0  0  0  0  0  0  0
   36.9380   27.6190   41.0260 C   0  0  0  0  0  0  0  0  0  0  0  0
   35.2690   30.9320   39.8680 H   0  0  0  0  0  0  0  0  0  0  0  0
   36.5400   30.8870   42.0080 H   0  0  0  0  0  0  0  0  0  0  0  0
   37.5570   28.8330   42.6970 H   0  0  0  0  0  0  0  0  0  0  0  0
   32.8500   28.9610   37.0560 C   0  0  0  0  0  0  0  0  0  0  0  0
   33.5380   29.0690   35.8310 C   0  0  0  0  0  0  0  0  0  0  0  0
   34.9470   29.1070   35.8250 C   0  0  0  0  0  0  0  0  0  0  0  0
   35.5650   29.0360   37.0440 N   0  0  0  0  0  0  0  0  0  0  0  0
   34.8830   28.9350   38.2000 C   0  0  0  0  0  0  0  0  0  0  0  0
   33.5590   28.8990   38.1890 N   0  0  0  0  0  0  0  0  0  0  0  0
   32.9940   29.1200   34.8990 H   0  0  0  0  0  0  0  0  0  0  0  0
   35.5120   29.1890   34.9090 H   0  0  0  0  0  0  0  0  0  0  0  0
   31.4410   28.9230   37.0530 N   0  0  0  0  0  0  0  0  0  0  0  0
   30.9430   28.7490   37.9540 H   0  0  0  0  0  0  0  0  0  0  0  0
   30.9100   29.0640   36.1710 H   0  0  0  0  0  0  0  0  0  0  0  0
   37.5750   26.4440   41.5130 C   0  0  0  0  0  0  0  0  0  0  0  0
   37.0690   25.1830   41.7600 C   0  0  0  0  0  0  0  0  0  0  0  0
   36.0290   24.9360   41.5900 H   0  0  0  0  0  0  0  0  0  0  0  0
   37.8670   24.2080   42.2280 C   0  0  0  0  0  3  0  0  0  0  0  0
   39.2370   24.5560   42.4460 C   0  0  0  0  0  3  0  0  0  0  0  0
   39.2600   26.3760   41.9250 S   0  0  0  0  0  0  0  0  0  0  0  0
  1  2  1  0  0  0  0
  2  7  1  0  0  0  0
  3  2  2  0  0  0  0
  3  4  1  0  0  0  0
  4  5  2  0  0  0  0
  5  6  1  0  0  0  0
  5  9  1  0  0  0  0
  6 10  1  0  0  0  0
  7 22  1  0  0  0  0
  7  6  2  0  0  0  0
  8  4  1  0  0  0  0
 11 16  1  0  0  0  0
 12 11  2  0  0  0  0
 13 12  1  0  0  0  0
 13 14  2  0  0  0  0
 14 15  1  0  0  0  0
 15  3  1  0  0  0  0
 16 15  2  0  0  0  0
 17 12  1  0  0  0  0
 18 13  1  0  0  0  0
 19 11  1  0  0  0  0
 19 20  1  0  0  0  0
 21 19  1  0  0  0  0
 22 23  2  0  0  0  0
 22 27  1  0  0  0  0
 23 25  1  0  0  0  0
 24 23  1  0  0  0  0
 25 26  2  0  0  0  0
 27 26  1  0  0  0  0
M  END
>  <minimizedAffinity>
-5.01113176

$$$$
