
 OpenBabel03242523533D

 42 45  0  0  1  0  0  0  0  0999 V2000
   42.8170   34.5110   38.7530 C   0  0  1  0  0  0  0  0  0  0  0  0
   42.9530   35.1770   40.1120 C   0  0  1  0  0  0  0  0  0  0  0  0
   41.6640   35.3980   40.6300 O   0  0  0  0  0  0  0  0  0  0  0  0
   40.7360   35.7300   39.6390 C   0  0  0  0  0  0  0  0  0  0  0  0
   40.4350   34.5510   38.7310 C   0  0  2  0  0  0  0  0  0  0  0  0
   41.6570   33.5760   38.8620 C   0  0  1  0  0  0  0  0  0  0  0  0
   43.7660   33.9860   38.4760 H   0  0  0  0  0  0  0  0  0  0  0  0
   43.5420   36.1060   40.0830 H   0  0  0  0  0  0  0  0  0  0  0  0
   39.8090   35.9870   40.1620 H   0  0  0  0  0  0  0  0  0  0  0  0
   41.0430   36.6270   39.0670 H   0  0  0  0  0  0  0  0  0  0  0  0
   39.5090   34.0320   39.0190 H   0  0  0  0  0  0  0  0  0  0  0  0
   41.4460   33.2960   39.9480 H   0  0  0  0  0  0  0  0  0  0  0  0
   42.5940   35.4620   37.7460 O   0  0  0  0  0  0  0  0  0  0  0  0
   43.4030   35.9540   37.5340 H   0  0  0  0  0  0  0  0  0  0  0  0
   40.4470   34.9690   37.4080 O   0  0  0  0  0  0  0  0  0  0  0  0
   39.5250   35.1730   37.0770 H   0  0  0  0  0  0  0  0  0  0  0  0
   43.4950   34.1950   40.9560 O   0  0  0  0  0  0  0  0  0  0  0  0
   44.6020   34.3410   41.6940 C   0  0  0  0  0  0  0  0  0  0  0  0
   45.8650   34.4370   41.0900 C   0  0  0  0  0  0  0  0  0  0  0  0
   46.9770   34.5880   41.9030 C   0  0  0  0  0  0  0  0  0  0  0  0
   46.8100   34.6400   43.2760 N   0  0  0  0  0  0  0  0  0  0  0  0
   45.5760   34.5440   43.8210 C   0  0  0  0  0  0  0  0  0  0  0  0
   44.4780   34.3950   43.0340 N   0  0  0  0  0  0  0  0  0  0  0  0
   46.0020   34.3980   40.0240 H   0  0  0  0  0  0  0  0  0  0  0  0
   45.5210   34.5920   44.9010 H   0  0  0  0  0  0  0  0  0  0  0  0
   48.3560   34.6820   41.3360 C   0  0  0  0  0  0  0  0  0  0  0  0
   49.0760   36.0210   41.5050 C   0  0  0  0  0  0  0  0  0  0  0  0
   49.5050   34.7060   42.1850 C   0  0  0  0  0  0  0  0  0  0  0  0
   48.4240   34.2820   40.2860 H   0  0  0  0  0  0  0  0  0  0  0  0
   48.6270   36.7580   42.1710 H   0  0  0  0  0  0  0  0  0  0  0  0
   49.7630   36.3380   40.6980 H   0  0  0  0  0  0  0  0  0  0  0  0
   50.4620   34.2430   41.8670 H   0  0  0  0  0  0  0  0  0  0  0  0
   49.3550   34.6530   43.2910 H   0  0  0  0  0  0  0  0  0  0  0  0
   41.5260   32.6330   37.9090 O   0  0  0  0  0  0  0  0  0  0  0  0
   40.8800   31.4700   37.9230 C   0  0  0  0  0  0  0  0  0  0  0  0
   39.6470   31.3230   37.4680 O   0  0  0  0  0  0  0  0  0  0  0  0
   41.2750   30.0120   38.4110 C   0  0  0  0  0  0  0  0  0  0  0  0
   41.4310   29.4910   39.5760 C   0  0  0  0  0  0  0  0  0  0  0  0
   41.2550   30.1690   40.4030 H   0  0  0  0  0  0  0  0  0  0  0  0
   41.7910   28.1860   39.6950 C   0  0  0  0  0  3  0  0  0  0  0  0
   41.9690   27.4840   38.4980 C   0  0  0  0  0  3  0  0  0  0  0  0
   41.5810   28.8470   37.1970 S   0  0  0  0  0  0  0  0  0  0  0  0
  1  7  1  6  0  0  0
  1  6  1  0  0  0  0
  1  2  1  0  0  0  0
  2  8  1  6  0  0  0
  2  3  1  0  0  0  0
  2 17  1  0  0  0  0
  4  9  1  0  0  0  0
  4  3  1  0  0  0  0
  5  6  1  0  0  0  0
  5 11  1  1  0  0  0
  5  4  1  0  0  0  0
  6 12  1  1  0  0  0
 10  4  1  0  0  0  0
 13  1  1  0  0  0  0
 14 13  1  0  0  0  0
 15  5  1  0  0  0  0
 16 15  1  0  0  0  0
 17 18  1  0  0  0  0
 18 23  1  0  0  0  0
 19 18  2  0  0  0  0
 19 20  1  0  0  0  0
 20 21  2  0  0  0  0
 21 22  1  0  0  0  0
 22 25  1  0  0  0  0
 23 22  2  0  0  0  0
 24 19  1  0  0  0  0
 26 27  1  0  0  0  0
 26 20  1  0  0  0  0
 26 28  1  0  0  0  0
 27 30  1  0  0  0  0
 27 28  1  0  0  0  0
 28 33  1  0  0  0  0
 29 26  1  0  0  0  0
 31 27  1  0  0  0  0
 32 28  1  0  0  0  0
 34 35  1  0  0  0  0
 34  6  1  0  0  0  0
 35 37  1  0  0  0  0
 36 35  2  0  0  0  0
 37 38  2  0  0  0  0
 38 40  1  0  0  0  0
 38 39  1  0  0  0  0
 41 40  2  0  0  0  0
 42 37  1  0  0  0  0
 42 41  1  0  0  0  0
M  END
>  <minimizedAffinity>
-5.59494591

>  <minimizedRMSD>
0.0862771571

$$$$
