
     RDKit          3D

 34 37  0  0  0  0  0  0  0  0999 V2000
   46.6353   32.5228   44.0713 C   0  0  1  0  0  0  0  0  0  0  0  0
   46.0498   33.8432   44.3867 C   0  0  0  0  0  0  0  0  0  0  0  0
   47.5518   33.6526   43.9415 C   0  0  2  0  0  0  0  0  0  0  0  0
   46.1515   30.7986   47.3739 C   0  0  0  0  0  0  0  0  0  0  0  0
   45.9416   31.7072   46.3514 C   0  0  0  0  0  0  0  0  0  0  0  0
   46.7615   31.5898   45.2350 C   0  0  0  0  0  0  0  0  0  0  0  0
   47.7054   30.6230   45.1891 N   0  0  0  0  0  0  0  0  0  0  0  0
   47.8759   29.7517   46.2195 C   0  0  0  0  0  0  0  0  0  0  0  0
   47.0850   29.8522   47.3147 N   0  0  0  0  0  0  0  0  0  0  0  0
   45.2756   30.8935   48.5865 C   0  0  0  0  0  0  0  0  0  0  0  0
   46.0583   31.3209   49.6342 F   0  0  0  0  0  0  0  0  0  0  0  0
   44.8243   29.6220   48.8718 F   0  0  0  0  0  0  0  0  0  0  0  0
   44.2474   31.7795   48.3909 F   0  0  0  0  0  0  0  0  0  0  0  0
   47.8079   34.1458   42.5571 C   0  0  0  0  0  0  0  0  0  0  0  0
   47.2955   33.6194   41.3764 C   0  0  0  0  0  0  0  0  0  0  0  0
   47.8364   34.4352   40.4131 C   0  0  0  0  0  0  0  0  0  0  0  0
   48.6348   35.4027   41.0060 C   0  0  0  0  0  0  0  0  0  0  0  0
   48.5651   35.1599   42.2959 O   0  0  0  0  0  0  0  0  0  0  0  0
   46.3449   32.0164   43.1250 H   0  0  0  0  0  0  0  0  0  0  0  0
   45.9500   34.2014   45.4294 H   0  0  0  0  0  0  0  0  0  0  0  0
   45.3984   34.3723   43.6597 H   0  0  0  0  0  0  0  0  0  0  0  0
   48.2797   33.8865   44.7168 H   0  0  0  0  0  0  0  0  0  0  0  0
   45.2055   32.4833   46.3549 H   0  0  0  0  0  0  0  0  0  0  0  0
   48.6541   28.9809   46.1433 H   0  0  0  0  0  0  0  0  0  0  0  0
   46.6394   32.7819   41.2541 H   0  0  0  0  0  0  0  0  0  0  0  0
   47.6061   34.2610   39.3498 H   0  0  0  0  0  0  0  0  0  0  0  0
   49.3610   36.4315   40.2824 C   0  0  0  0  0  0  0  0  0  0  0  0
   50.1162   36.3961   39.1805 C   0  0  0  0  0  0  0  0  0  0  0  0
   50.2317   35.4261   38.7069 H   0  0  0  0  0  0  0  0  0  0  0  0
   50.7056   37.4990   38.6781 C   0  0  0  0  0  0  0  0  0  0  0  0
   50.4324   38.7095   39.4556 C   0  0  0  0  0  0  0  0  0  0  0  0
   49.3611   38.0874   40.8059 S   0  0  0  0  0  0  0  0  0  0  0  0
   51.3271   37.5365   37.7923 H   0  0  0  0  0  0  0  0  0  0  0  0
   50.9337   39.7229   39.0519 H   0  0  0  0  0  0  0  0  0  0  0  0
  1  2  1  0
  1  6  1  0
  3  1  1  0
  3  2  1  0
  4 10  1  0
  5  4  2  0
  6  5  1  0
  7  6  2  0
  7  8  1  0
  8  9  2  0
  9  4  1  0
 10 12  1  0
 10 11  1  0
 13 10  1  0
 14  3  1  0
 15 14  2  0
 16 17  2  0
 16 15  1  0
 17 18  1  0
 18 14  1  0
  1 19  1  6
  2 20  1  0
  2 21  1  0
  3 22  1  1
  5 23  1  0
  8 24  1  0
 15 25  1  0
 16 26  1  0
 27 28  2  0
 28 29  1  0
 28 30  1  0
 30 31  2  0
 31 32  1  0
 32 27  1  0
 30 33  1  0
 31 34  1  0
 17 27  1  0
M  ISO  8  19  13  20  13  21  13  22  13  23  14  24  14  25  14  26  14
M  ISO  1  29  15
M  END
>  <DihAtoms>  (1) 
15,16,26,27

>  <DihDeg>  (1) 
-179.99509549032587

$$$$
