REMARK  Name = 
REMARK  8 active torsions:
REMARK  status: ('A' for Active; 'I' for Inactive)
REMARK    1  A    between atoms: C_1  and  O_7
REMARK    2  A    between atoms: C_2  and  O_9
REMARK    3  A    between atoms: C_5  and  O_8
REMARK    4  A    between atoms: C_6  and  O_19
REMARK    5  A    between atoms: O_9  and  C_10
REMARK    6  A    between atoms: C_12  and  C_16
REMARK    7  A    between atoms: O_19  and  C_20
REMARK    8  A    between atoms: C_20  and  C_37
REMARK                            x       y       z     vdW  Elec       q    Type
REMARK                         _______ _______ _______ _____ _____    ______ ____
ROOT
ATOM      1  C   UNL     1      42.827  34.489  38.779  0.00  0.00    +0.000 C 
ATOM      2  C   UNL     1      42.950  35.166  40.135  0.00  0.00    +0.000 C 
ATOM      3  O   UNL     1      41.656  35.387  40.640  0.00  0.00    +0.000 OA
ATOM      4  C   UNL     1      40.736  35.709  39.639  0.00  0.00    +0.000 C 
ATOM      5  C   UNL     1      40.445  34.523  38.738  0.00  0.00    +0.000 C 
ATOM      6  C   UNL     1      41.669  33.552  38.886  0.00  0.00    +0.000 C 
ATOM      7  H   UNL     1      43.780  33.965  38.514  0.00  0.00    +0.000 HD
ATOM      8  H   UNL     1      43.537  36.096  40.104  0.00  0.00    +0.000 HD
ATOM      9  H   UNL     1      39.804  35.967  40.153  0.00  0.00    +0.000 HD
ATOM     10  H   UNL     1      41.045  36.603  39.063  0.00  0.00    +0.000 HD
ATOM     11  H   UNL     1      39.518  34.003  39.022  0.00  0.00    +0.000 HD
ATOM     12  H   UNL     1      41.449  33.279  39.972  0.00  0.00    +0.000 HD
ENDROOT
BRANCH   1  13
ATOM     13  O   UNL     1      42.610  35.432  37.764  0.00  0.00    +0.000 OA
ATOM     14  H   UNL     1      43.419  35.925  37.555  0.00  0.00    +0.000 HD
ENDBRANCH   1  13
BRANCH   5  15
ATOM     15  O   UNL     1      40.467  34.931  37.412  0.00  0.00    +0.000 OA
ATOM     16  H   UNL     1      39.547  35.130  37.072  0.00  0.00    +0.000 HD
ENDBRANCH   5  15
BRANCH   2  17
ATOM     17  O   UNL     1      43.488  34.191  40.990  0.00  0.00    +0.000 OA
BRANCH  17  18
ATOM     18  C   UNL     1      44.601  34.337  41.719  0.00  0.00    +0.000 A 
ATOM     19  C   UNL     1      45.857  34.449  41.104  0.00  0.00    +0.000 A 
ATOM     20  C   UNL     1      46.976  34.600  41.907  0.00  0.00    +0.000 A 
ATOM     21  N   UNL     1      46.822  34.636  43.282  0.00  0.00    +0.000 NA
ATOM     22  C   UNL     1      45.594  34.525  43.838  0.00  0.00    +0.000 A 
ATOM     23  N   UNL     1      44.490  34.376  43.060  0.00  0.00    +0.000 NA
ATOM     24  H   UNL     1      45.984  34.422  40.036  0.00  0.00    +0.000 HD
ATOM     25  H   UNL     1      45.550  34.561  44.919  0.00  0.00    +0.000 HD
BRANCH  20  26
ATOM     26  C   UNL     1      48.349  34.710  41.328  0.00  0.00    +0.000 C 
ATOM     27  C   UNL     1      49.069  36.045  41.522  0.00  0.00    +0.000 C 
ATOM     28  C   UNL     1      49.507  34.715  42.164  0.00  0.00    +0.000 C 
ATOM     29  H   UNL     1      48.406  34.336  40.267  0.00  0.00    +0.000 HD
ATOM     30  H   UNL     1      48.626  36.765  42.210  0.00  0.00    +0.000 HD
ATOM     31  H   UNL     1      49.746  36.383  40.715  0.00  0.00    +0.000 HD
ATOM     32  H   UNL     1      50.461  34.261  41.825  0.00  0.00    +0.000 HD
ATOM     33  H   UNL     1      49.369  34.634  43.270  0.00  0.00    +0.000 HD
ENDBRANCH  20  26
ENDBRANCH  17  18
ENDBRANCH   2  17
BRANCH   6  34
ATOM     34  O   UNL     1      41.548  32.602  37.939  0.00  0.00    +0.000 OA
BRANCH  34  35
ATOM     35  C   UNL     1      40.929  31.424  37.966  0.00  0.00    +0.000 C 
ATOM     36  O   UNL     1      39.676  31.257  37.577  0.00  0.00    +0.000 OA
BRANCH  35  37
ATOM     37  C   UNL     1      41.382  29.967  38.402  0.00  0.00    +0.000 A 
ATOM     38  C   UNL     1      41.446  28.846  37.776  0.00  0.00    +0.000 A 
ATOM     39  H   UNL     1      41.138  28.889  36.738  0.00  0.00    +0.000 HD
ATOM     40  C   UNL     1      41.876  27.730  38.421  0.00  0.00    +0.000 A 
ATOM     41  C   UNL     1      42.228  27.891  39.765  0.00  0.00    +0.000 A 
ATOM     42  S   UNL     1      41.893  29.768  40.022  0.00  0.00    +0.000 S 
ENDBRANCH  35  37
ENDBRANCH  34  35
ENDBRANCH   6  34
TORSDOF 8
