
 OpenBabel03242514133D

 31 33  0  0  0  0  0  0  0  0999 V2000
   46.5370   32.6570   46.1020 C   0  0  0  0  0  0  0  0  0  0  0  0
   46.5290   31.3390   45.5370 C   0  0  0  0  0  0  0  0  0  0  0  0
   45.4130   30.4840   46.0790 C   0  0  0  0  0  0  0  0  0  0  0  0
   45.6410   30.2810   47.5680 C   0  0  0  0  0  0  0  0  0  0  0  0
   45.8770   31.5750   48.2830 C   0  0  0  0  0  0  0  0  0  0  0  0
   45.6650   32.7580   47.3730 C   0  0  0  0  0  0  0  0  0  0  0  0
   47.5120   32.9960   46.5010 H   0  0  0  0  0  0  0  0  0  0  0  0
   47.4080   30.8050   46.0610 H   0  0  0  0  0  0  0  0  0  0  0  0
   46.8640   31.1630   44.5220 H   0  0  0  0  0  0  0  0  0  0  0  0
   45.4810   29.4860   45.5990 H   0  0  0  0  0  0  0  0  0  0  0  0
   44.4110   30.8950   46.1140 H   0  0  0  0  0  0  0  0  0  0  0  0
   46.4810   29.5650   47.7080 H   0  0  0  0  0  0  0  0  0  0  0  0
   44.7670   29.7730   48.0360 H   0  0  0  0  0  0  0  0  0  0  0  0
   46.9770   31.6030   48.5370 H   0  0  0  0  0  0  0  0  0  0  0  0
   45.3060   31.7310   49.1950 H   0  0  0  0  0  0  0  0  0  0  0  0
   45.9230   33.6810   47.8770 H   0  0  0  0  0  0  0  0  0  0  0  0
   44.6050   32.8140   47.0160 H   0  0  0  0  0  0  0  0  0  0  0  0
   46.1340   33.7380   45.1790 C   0  0  0  0  0  0  0  0  0  0  0  0
   46.8250   33.8080   43.9850 C   0  0  0  0  0  0  0  0  0  0  0  0
   46.2950   34.7750   43.1380 C   0  0  0  0  0  0  0  0  0  0  0  0
   45.2280   35.5530   43.4710 N   0  0  0  0  0  0  0  0  0  0  0  0
   44.6050   35.4510   44.6360 C   0  0  0  0  0  0  0  0  0  0  0  0
   45.0730   34.5410   45.4660 N   0  0  0  0  0  0  0  0  0  0  0  0
   46.5800   35.0890   42.1400 H   0  0  0  0  0  0  0  0  0  0  0  0
   43.7740   35.9910   45.0210 H   0  0  0  0  0  0  0  0  0  0  0  0
   48.0040   33.4250   43.3710 C   0  0  0  0  0  0  0  0  0  0  0  0
   48.9530   34.5050   42.9830 C   0  0  0  0  0  0  0  0  0  0  0  0
   48.8510   35.5570   43.2060 H   0  0  0  0  0  0  0  0  0  0  0  0
   50.0490   34.1500   42.2860 C   0  0  0  0  0  0  0  0  0  0  0  0
   50.3550   32.8240   41.9020 C   0  0  0  0  0  0  0  0  0  0  0  0
   48.8640   31.9510   42.6430 S   0  0  0  0  0  0  0  0  0  0  0  0
  1  7  1  0  0  0  0
  1  6  1  0  0  0  0
  2  8  1  0  0  0  0
  2  3  1  0  0  0  0
  2  1  1  0  0  0  0
  3 11  1  0  0  0  0
  3  4  1  0  0  0  0
  4 12  1  0  0  0  0
  4 13  1  0  0  0  0
  4  5  1  0  0  0  0
  5 14  1  0  0  0  0
  5 15  1  0  0  0  0
  6 16  1  0  0  0  0
  6  5  1  0  0  0  0
  9  2  1  0  0  0  0
 10  3  1  0  0  0  0
 17  6  1  0  0  0  0
 18 23  1  0  0  0  0
 18  1  1  0  0  0  0
 19 18  2  0  0  0  0
 20 21  2  0  0  0  0
 20 19  1  0  0  0  0
 21 22  1  0  0  0  0
 22 25  1  0  0  0  0
 22 23  2  0  0  0  0
 24 20  1  0  0  0  0
 26 19  1  0  0  0  0
 27 28  1  0  0  0  0
 27 26  2  0  0  0  0
 29 27  1  0  0  0  0
 30 29  2  0  0  0  0
 30 31  1  0  0  0  0
 31 26  1  0  0  0  0
M  END
>  <minimizedAffinity>
-5.12869549

>  <minimizedRMSD>
5.06028461

$$$$
