
 OpenBabel03242511543D

 31 33  0  0  1  0  0  0  0  0999 V2000
   41.0540   29.4780   41.3350 C   0  0  2  0  0  0  0  0  0  0  0  0
   40.2560   28.5710   40.4850 C   0  0  0  0  0  0  0  0  0  0  0  0
   41.0800   27.6690   39.6170 C   0  0  0  0  0  0  0  0  0  0  0  0
   42.0750   28.4220   38.7640 C   0  0  0  0  0  0  0  0  0  0  0  0
   42.7140   29.5990   39.4750 C   0  0  0  0  0  0  0  0  0  0  0  0
   42.5280   29.4680   40.9730 C   0  0  1  0  0  0  0  0  0  0  0  0
   40.6800   30.5420   41.2490 H   0  0  0  0  0  0  0  0  0  0  0  0
   39.6180   29.1940   39.7910 H   0  0  0  0  0  0  0  0  0  0  0  0
   39.5280   27.9310   41.0230 H   0  0  0  0  0  0  0  0  0  0  0  0
   41.5290   26.8030   40.0950 H   0  0  0  0  0  0  0  0  0  0  0  0
   40.3500   27.2260   38.8730 H   0  0  0  0  0  0  0  0  0  0  0  0
   42.8820   27.7050   38.5030 H   0  0  0  0  0  0  0  0  0  0  0  0
   41.6130   28.7380   37.7890 H   0  0  0  0  0  0  0  0  0  0  0  0
   43.7710   29.7020   39.2430 H   0  0  0  0  0  0  0  0  0  0  0  0
   42.2100   30.5320   39.1550 H   0  0  0  0  0  0  0  0  0  0  0  0
   42.8980   28.4400   41.2200 H   0  0  0  0  0  0  0  0  0  0  0  0
   40.9460   29.1460   42.7670 C   0  0  0  0  0  0  0  0  0  0  0  0
   41.3590   27.8500   43.1290 C   0  0  0  0  0  0  0  0  0  0  0  0
   41.2910   27.4330   44.4650 C   0  0  0  0  0  0  0  0  0  0  0  0
   40.8050   28.3670   45.3610 N   0  0  0  0  0  0  0  0  0  0  0  0
   40.4220   29.5870   44.9820 C   0  0  0  0  0  0  0  0  0  0  0  0
   40.4890   29.9860   43.6900 N   0  0  0  0  0  0  0  0  0  0  0  0
   41.7470   27.0610   42.5020 H   0  0  0  0  0  0  0  0  0  0  0  0
   41.5670   26.4970   44.8740 H   0  0  0  0  0  0  0  0  0  0  0  0
   40.0390   30.3250   45.6880 H   0  0  0  0  0  0  0  0  0  0  0  0
   43.3290   30.3980   41.7330 C   0  0  0  0  0  0  0  0  0  0  0  0
   44.2680   30.2770   42.6770 C   0  0  0  0  0  0  0  0  0  0  0  0
   44.5350   29.2510   42.9750 H   0  0  0  0  0  0  0  0  0  0  0  0
   44.8750   31.3300   43.2500 C   0  0  0  0  0  3  0  0  0  0  0  0
   44.4500   32.5970   42.7820 C   0  0  0  0  0  3  0  0  0  0  0  0
   43.1410   32.2130   41.4840 S   0  0  0  0  0  0  0  0  0  0  0  0
  1  7  1  6  0  0  0
  1 17  1  0  0  0  0
  2  9  1  0  0  0  0
  2  1  1  0  0  0  0
  3 10  1  0  0  0  0
  3  2  1  0  0  0  0
  4  5  1  0  0  0  0
  4  3  1  0  0  0  0
  5  6  1  0  0  0  0
  6 16  1  1  0  0  0
  6  1  1  0  0  0  0
  6 26  1  0  0  0  0
  8  2  1  0  0  0  0
 11  3  1  0  0  0  0
 12  4  1  0  0  0  0
 13  4  1  0  0  0  0
 14  5  1  0  0  0  0
 15  5  1  0  0  0  0
 17 18  2  0  0  0  0
 17 22  1  0  0  0  0
 18 19  1  0  0  0  0
 19 24  1  0  0  0  0
 19 20  2  0  0  0  0
 21 20  1  0  0  0  0
 21 25  1  0  0  0  0
 22 21  2  0  0  0  0
 23 18  1  0  0  0  0
 26 27  2  0  0  0  0
 27 28  1  0  0  0  0
 27 29  1  0  0  0  0
 30 29  2  0  0  0  0
 31 26  1  0  0  0  0
 31 30  1  0  0  0  0
M  END
>  <minimizedAffinity>
-2.21420956

>  <minimizedRMSD>
8.06910896

$$$$
