
 OpenBabel03252506263D

 42 46  0  0  0  0  0  0  0  0999 V2000
   46.2260   30.2550   48.4400 C   0  0  0  0  0  0  0  0  0  0  0  0
   46.4620   29.8700   49.4770 H   0  0  0  0  0  0  0  0  0  0  0  0
   45.5670   31.1300   48.6150 H   0  0  0  0  0  0  0  0  0  0  0  0
   45.7300   27.8170   47.7720 C   0  0  0  0  0  0  0  0  0  0  0  0
   45.5230   29.1890   47.7440 C   0  0  0  0  0  0  0  0  0  0  0  0
   44.4990   29.6210   46.9320 C   0  0  0  0  0  0  0  0  0  0  0  0
   43.7180   28.7640   46.1870 C   0  0  0  0  0  0  0  0  0  0  0  0
   42.6840   28.8960   45.3400 N   0  0  0  0  0  0  0  0  0  0  0  0
   42.2770   27.7150   44.8770 C   0  0  0  0  0  0  0  0  0  0  0  0
   43.0640   26.7340   45.4280 C   0  0  0  0  0  0  0  0  0  0  0  0
   43.9430   27.4000   46.2290 C   0  0  0  0  0  0  0  0  0  0  0  0
   44.9560   26.9510   47.0300 C   0  0  0  0  0  0  0  0  0  0  0  0
   46.5490   27.6090   48.4360 H   0  0  0  0  0  0  0  0  0  0  0  0
   44.2130   30.6540   46.8030 H   0  0  0  0  0  0  0  0  0  0  0  0
   42.2520   29.8300   45.0790 H   0  0  0  0  0  0  0  0  0  0  0  0
   41.4580   27.6000   44.1830 H   0  0  0  0  0  0  0  0  0  0  0  0
   42.9000   25.7150   45.1870 H   0  0  0  0  0  0  0  0  0  0  0  0
   45.3520   25.5730   47.2090 C   0  0  0  0  0  0  0  0  0  0  0  0
   45.1640   24.6990   48.1770 C   0  0  0  0  0  0  0  0  0  0  0  0
   44.6620   24.7840   49.1070 H   0  0  0  0  0  0  0  0  0  0  0  0
   45.6190   23.4310   48.1360 C   0  0  0  0  0  3  0  0  0  0  0  0
   46.3310   23.0470   46.9820 C   0  0  0  0  0  3  0  0  0  0  0  0
   46.2620   24.6560   46.0250 S   0  0  0  0  0  0  0  0  0  0  0  0
   47.5130   30.7050   47.8570 C   0  0  0  0  0  0  0  0  0  0  0  0
   47.9480   31.4650   48.5560 H   0  0  0  0  0  0  0  0  0  0  0  0
   48.2070   29.8780   47.7360 H   0  0  0  0  0  0  0  0  0  0  0  0
   46.6120   32.8720   45.1560 C   0  0  0  0  0  0  0  0  0  0  0  0
   47.2520   31.8230   44.4800 C   0  0  0  0  0  0  0  0  0  0  0  0
   47.6610   30.9010   45.3880 C   0  0  0  0  0  0  0  0  0  0  0  0
   47.2850   31.3660   46.5820 N   0  0  0  0  0  0  0  0  0  0  0  0
   46.6540   32.5500   46.4580 N   0  0  0  0  0  0  0  0  0  0  0  0
   47.4220   31.7140   43.4110 H   0  0  0  0  0  0  0  0  0  0  0  0
   48.1880   29.9630   45.2220 H   0  0  0  0  0  0  0  0  0  0  0  0
   44.5440   35.8170   44.5570 C   0  0  0  0  0  0  0  0  0  0  0  0
   44.9480   36.2590   43.3090 C   0  0  0  0  0  0  0  0  0  0  0  0
   45.9420   35.5330   42.6710 C   0  0  0  0  0  0  0  0  0  0  0  0
   46.4520   34.4440   43.3060 N   0  0  0  0  0  0  0  0  0  0  0  0
   46.0410   34.0450   44.5100 C   0  0  0  0  0  0  0  0  0  0  0  0
   45.0870   34.7350   45.1300 N   0  0  0  0  0  0  0  0  0  0  0  0
   43.7690   36.3960   45.0380 H   0  0  0  0  0  0  0  0  0  0  0  0
   44.5550   37.1100   42.8030 H   0  0  0  0  0  0  0  0  0  0  0  0
   46.3650   35.7370   41.7120 H   0  0  0  0  0  0  0  0  0  0  0  0
  1  3  1  0  0  0  0
  1  2  1  0  0  0  0
  4 13  1  0  0  0  0
  5  4  1  0  0  0  0
  5  1  1  0  0  0  0
  6  5  2  0  0  0  0
  7 11  2  0  0  0  0
  7  6  1  0  0  0  0
  8  7  1  0  0  0  0
  9  8  1  0  0  0  0
  9 10  2  0  0  0  0
 10 11  1  0  0  0  0
 11 12  1  0  0  0  0
 12 18  1  0  0  0  0
 12  4  2  0  0  0  0
 14  6  1  0  0  0  0
 15  8  1  0  0  0  0
 16  9  1  0  0  0  0
 17 10  1  0  0  0  0
 18 19  2  0  0  0  0
 19 20  1  0  0  0  0
 21 19  1  0  0  0  0
 22 21  2  0  0  0  0
 23 22  1  0  0  0  0
 23 18  1  0  0  0  0
 24  1  1  0  0  0  0
 24 25  1  0  0  0  0
 26 24  1  0  0  0  0
 27 31  2  0  0  0  0
 28 27  1  0  0  0  0
 28 29  2  0  0  0  0
 29 30  1  0  0  0  0
 30 24  1  0  0  0  0
 31 30  1  0  0  0  0
 32 28  1  0  0  0  0
 33 29  1  0  0  0  0
 34 40  1  0  0  0  0
 34 39  1  0  0  0  0
 35 34  2  0  0  0  0
 36 37  2  0  0  0  0
 36 35  1  0  0  0  0
 37 38  1  0  0  0  0
 38 39  2  0  0  0  0
 38 27  1  0  0  0  0
 41 35  1  0  0  0  0
 42 36  1  0  0  0  0
M  END
>  <minimizedAffinity>
-5.31530666

>  <minimizedRMSD>
0.765629232

$$$$
