
 OpenBabel03252504423D

 42 45  0  0  0  0  0  0  0  0999 V2000
   46.3030   32.2000   47.9040 C   0  0  0  0  0  0  0  0  0  0  0  0
   45.8580   31.7610   49.1140 C   0  0  0  0  0  0  0  0  0  0  0  0
   46.8590   31.0710   49.6600 N   0  0  0  0  0  0  0  0  0  0  0  0
   47.9170   31.0520   48.8560 C   0  0  0  0  0  0  0  0  0  0  0  0
   47.5680   31.7660   47.7420 N   0  0  0  0  0  0  0  0  0  0  0  0
   49.2120   30.4590   48.9920 N   0  0  0  0  0  0  0  0  0  0  0  0
   50.2590   31.2750   49.6490 C   0  0  0  0  0  0  0  0  0  0  0  0
   50.3910   30.6890   51.0500 C   0  0  0  0  0  0  0  0  0  0  0  0
   50.4900   29.1810   50.9690 C   0  0  0  0  0  0  0  0  0  0  0  0
   50.8510   28.7730   49.5490 C   0  0  0  0  0  0  0  0  0  0  0  0
   49.7320   29.1860   48.6120 C   0  0  0  0  0  0  0  0  0  0  0  0
   44.8700   31.9490   49.5340 H   0  0  0  0  0  0  0  0  0  0  0  0
   46.8350   30.6010   50.5970 H   0  0  0  0  0  0  0  0  0  0  0  0
   51.2240   31.1920   49.1260 H   0  0  0  0  0  0  0  0  0  0  0  0
   49.9160   32.3170   49.7690 H   0  0  0  0  0  0  0  0  0  0  0  0
   51.2930   31.0630   51.5830 H   0  0  0  0  0  0  0  0  0  0  0  0
   49.4960   30.9750   51.6610 H   0  0  0  0  0  0  0  0  0  0  0  0
   49.5010   28.7390   51.1870 H   0  0  0  0  0  0  0  0  0  0  0  0
   51.2000   28.7830   51.6960 H   0  0  0  0  0  0  0  0  0  0  0  0
   50.8720   27.6480   49.5590 H   0  0  0  0  0  0  0  0  0  0  0  0
   51.8330   29.1880   49.2350 H   0  0  0  0  0  0  0  0  0  0  0  0
   50.1740   29.2840   47.6000 H   0  0  0  0  0  0  0  0  0  0  0  0
   48.9610   28.3900   48.5520 H   0  0  0  0  0  0  0  0  0  0  0  0
   45.5410   33.0210   46.9280 C   0  0  0  0  0  0  0  0  0  0  0  0
   45.4750   34.0490   47.3730 H   0  0  0  0  0  0  0  0  0  0  0  0
   44.5140   32.6350   46.8160 H   0  0  0  0  0  0  0  0  0  0  0  0
   45.9350   33.9930   44.6880 C   0  0  0  0  0  3  0  0  0  0  0  0
   46.2770   33.1650   45.6520 C   0  0  0  0  0  3  0  0  0  0  0  0
   46.7540   34.0320   43.4810 C   0  0  0  0  0  0  0  0  0  0  0  0
   46.6500   35.0870   42.5500 C   0  0  0  0  0  0  0  0  0  0  0  0
   47.4750   35.0300   41.4320 C   0  0  0  0  0  0  0  0  0  0  0  0
   48.3310   33.9890   41.2740 N   0  0  0  0  0  0  0  0  0  0  0  0
   48.4080   32.9940   42.1810 C   0  0  0  0  0  0  0  0  0  0  0  0
   47.6380   33.0140   43.2590 N   0  0  0  0  0  0  0  0  0  0  0  0
   45.9510   35.8600   42.7580 H   0  0  0  0  0  0  0  0  0  0  0  0
   47.3680   35.8550   40.7400 H   0  0  0  0  0  0  0  0  0  0  0  0
   49.3770   31.9890   41.8240 C   0  0  0  0  0  0  0  0  0  0  0  0
   49.2190   30.6840   41.5210 C   0  0  0  0  0  0  0  0  0  0  0  0
   48.2230   30.2640   41.5300 H   0  0  0  0  0  0  0  0  0  0  0  0
   50.3180   29.9210   41.2080 C   0  0  0  0  0  3  0  0  0  0  0  0
   51.5550   30.5770   41.2300 C   0  0  0  0  0  3  0  0  0  0  0  0
   51.1390   32.2930   41.6990 S   0  0  0  0  0  0  0  0  0  0  0  0
  1  2  2  0  0  0  0
  2 12  1  0  0  0  0
  2  3  1  0  0  0  0
  3 13  1  0  0  0  0
  4  6  1  0  0  0  0
  4  3  1  0  0  0  0
  5  1  1  0  0  0  0
  5  4  2  0  0  0  0
  6  7  1  0  0  0  0
  7 15  1  0  0  0  0
  7  8  1  0  0  0  0
  8 16  1  0  0  0  0
  8 17  1  0  0  0  0
  9  8  1  0  0  0  0
  9 18  1  0  0  0  0
  9 19  1  0  0  0  0
 10 20  1  0  0  0  0
 10  9  1  0  0  0  0
 11  6  1  0  0  0  0
 11 10  1  0  0  0  0
 14  7  1  0  0  0  0
 21 10  1  0  0  0  0
 22 11  1  0  0  0  0
 23 11  1  0  0  0  0
 24 25  1  0  0  0  0
 24  1  1  0  0  0  0
 26 24  1  0  0  0  0
 27 28  2  0  0  0  0
 28 24  1  0  0  0  0
 29 27  1  0  0  0  0
 30 35  1  0  0  0  0
 30 29  2  0  0  0  0
 31 30  1  0  0  0  0
 32 31  2  0  0  0  0
 32 33  1  0  0  0  0
 33 34  2  0  0  0  0
 34 29  1  0  0  0  0
 36 31  1  0  0  0  0
 37 33  1  0  0  0  0
 38 39  1  0  0  0  0
 38 37  2  0  0  0  0
 40 41  2  0  0  0  0
 40 38  1  0  0  0  0
 41 42  1  0  0  0  0
 42 37  1  0  0  0  0
M  END
>  <minimizedAffinity>
-5.67374945

>  <minimizedRMSD>
0.748281062

$$$$
