
 OpenBabel03252505193D

 31 34  0  0  0  0  0  0  0  0999 V2000
   44.6030   35.9070   44.3750 C   0  0  0  0  0  0  0  0  0  0  0  0
   45.3090   35.8740   43.1760 C   0  0  0  0  0  0  0  0  0  0  0  0
   46.2430   34.8720   43.0540 C   0  0  0  0  0  0  0  0  0  0  0  0
   46.4510   33.9670   44.0700 N   0  0  0  0  0  0  0  0  0  0  0  0
   45.7200   34.0510   45.2300 C   0  0  0  0  0  0  0  0  0  0  0  0
   44.8000   35.0230   45.3750 N   0  0  0  0  0  0  0  0  0  0  0  0
   43.8630   36.7100   44.4600 H   0  0  0  0  0  0  0  0  0  0  0  0
   45.1540   36.5760   42.3760 H   0  0  0  0  0  0  0  0  0  0  0  0
   45.9520   33.0660   46.2780 C   0  0  0  0  0  0  0  0  0  0  0  0
   45.2300   33.1200   47.4360 C   0  0  0  0  0  0  0  0  0  0  0  0
   45.4290   32.1870   48.4420 C   0  0  0  0  0  0  0  0  0  0  0  0
   46.3730   31.2090   48.2360 C   0  0  0  0  0  0  0  0  0  0  0  0
   47.0690   31.2020   47.0530 C   0  0  0  0  0  0  0  0  0  0  0  0
   46.8860   32.1050   46.0650 N   0  0  0  0  0  0  0  0  0  0  0  0
   44.5010   33.8910   47.5740 H   0  0  0  0  0  0  0  0  0  0  0  0
   44.8810   32.2070   49.3530 H   0  0  0  0  0  0  0  0  0  0  0  0
   46.5220   30.4910   49.0190 H   0  0  0  0  0  0  0  0  0  0  0  0
   48.0730   30.1960   46.7840 C   0  0  0  0  0  0  0  0  0  0  0  0
   48.9980   29.4080   47.5000 C   0  0  0  0  0  0  0  0  0  0  0  0
   48.8990   29.6510   48.5370 H   0  0  0  0  0  0  0  0  0  0  0  0
   49.7860   28.5510   46.8050 C   0  0  0  0  0  3  0  0  0  0  0  0
   49.7090   28.4240   45.3930 C   0  0  0  0  0  3  0  0  0  0  0  0
   48.3430   29.6840   45.0020 S   0  0  0  0  0  0  0  0  0  0  0  0
   47.0510   34.7140   41.7900 C   0  0  0  0  0  0  0  0  0  0  0  0
   48.3610   35.5030   41.8590 C   0  0  0  0  0  0  0  0  0  0  0  0
   48.2710   33.9510   41.8390 C   0  0  0  0  0  0  0  0  0  0  0  0
   46.5010   34.8150   40.8300 H   0  0  0  0  0  0  0  0  0  0  0  0
   48.6650   35.9700   42.7940 H   0  0  0  0  0  0  0  0  0  0  0  0
   48.6500   35.9920   40.9330 H   0  0  0  0  0  0  0  0  0  0  0  0
   48.5320   33.4870   42.8340 H   0  0  0  0  0  0  0  0  0  0  0  0
   48.7650   33.4530   41.0150 H   0  0  0  0  0  0  0  0  0  0  0  0
  1  7  1  0  0  0  0
  1  6  1  0  0  0  0
  2  1  2  0  0  0  0
  3  2  1  0  0  0  0
  3  4  2  0  0  0  0
  4  5  1  0  0  0  0
  5  6  2  0  0  0  0
  5  9  1  0  0  0  0
  8  2  1  0  0  0  0
  9 10  1  0  0  0  0
 10 15  1  0  0  0  0
 10 11  2  0  0  0  0
 11 16  1  0  0  0  0
 12 11  1  0  0  0  0
 12 17  1  0  0  0  0
 13 12  2  0  0  0  0
 14  9  2  0  0  0  0
 14 13  1  0  0  0  0
 18 13  1  0  0  0  0
 18 19  2  0  0  0  0
 19 20  1  0  0  0  0
 21 19  1  0  0  0  0
 22 21  2  0  0  0  0
 23 22  1  0  0  0  0
 23 18  1  0  0  0  0
 24 26  1  0  0  0  0
 24 25  1  0  0  0  0
 24  3  1  0  0  0  0
 25 28  1  0  0  0  0
 26 25  1  0  0  0  0
 26 30  1  0  0  0  0
 27 24  1  0  0  0  0
 29 25  1  0  0  0  0
 31 26  1  0  0  0  0
M  END
>  <minimizedAffinity>
-5.58188343

>  <minimizedRMSD>
0.625120401

$$$$
