REMARK  Name = 
REMARK  5 active torsions:
REMARK  status: ('A' for Active; 'I' for Inactive)
REMARK    1  A    between atoms: C_1  and  N_5
REMARK    2  A    between atoms: C_1  and  C_13
REMARK    3  A    between atoms: C_2  and  C_11
REMARK    4  A    between atoms: C_13  and  C_15
REMARK    5  A    between atoms: C_22  and  C_37
REMARK                            x       y       z     vdW  Elec       q    Type
REMARK                         _______ _______ _______ _____ _____    ______ ____
ROOT
ATOM      1  C   UNL     1      46.006  29.944  48.268  0.00  0.00    +0.000 C 
ATOM      2  H   UNL     1      46.207  29.605  49.328  0.00  0.00    +0.000 HD
ATOM      3  H   UNL     1      45.446  30.894  48.384  0.00  0.00    +0.000 HD
ENDROOT
BRANCH   1   5
ATOM      4  C   UNL     1      45.116  27.554  47.902  0.00  0.00    +0.000 A 
ATOM      5  C   UNL     1      45.187  28.916  47.645  0.00  0.00    +0.000 A 
ATOM      6  C   UNL     1      44.362  29.377  46.644  0.00  0.00    +0.000 A 
ATOM      7  C   UNL     1      43.514  28.557  45.931  0.00  0.00    +0.000 A 
ATOM      8  N   UNL     1      42.625  28.723  44.939  0.00  0.00    +0.000 N 
ATOM      9  C   UNL     1      42.046  27.571  44.602  0.00  0.00    +0.000 A 
ATOM     10  C   UNL     1      42.560  26.575  45.395  0.00  0.00    +0.000 A 
ATOM     11  C   UNL     1      43.460  27.202  46.204  0.00  0.00    +0.000 A 
ATOM     12  C   UNL     1      44.272  26.725  47.195  0.00  0.00    +0.000 A 
ATOM     13  H   UNL     1      45.801  27.321  48.697  0.00  0.00    +0.000 HD
ATOM     14  H   UNL     1      44.301  30.407  46.326  0.00  0.00    +0.000 HD
ATOM     15  H   UNL     1      42.416  29.661  44.486  0.00  0.00    +0.000 HD
ATOM     16  H   UNL     1      41.301  27.486  43.825  0.00  0.00    +0.000 HD
ATOM     17  H   UNL     1      42.226  25.576  45.286  0.00  0.00    +0.000 HD
BRANCH  12  18
ATOM     18  C   UNL     1      44.367  25.349  47.628  0.00  0.00    +0.000 A 
ATOM     19  C   UNL     1      43.697  24.632  48.506  0.00  0.00    +0.000 A 
ATOM     20  H   UNL     1      42.891  24.886  49.147  0.00  0.00    +0.000 HD
ATOM     21  C   UNL     1      43.947  23.330  48.753  0.00  0.00    +0.000 A 
ATOM     22  C   UNL     1      44.988  22.731  48.017  0.00  0.00    +0.000 A 
ATOM     23  S   UNL     1      45.524  24.201  46.986  0.00  0.00    +0.000 S 
ENDBRANCH  12  18
ENDBRANCH   1   5
BRANCH   1  24
ATOM     24  C   UNL     1      47.329  30.213  47.655  0.00  0.00    +0.000 C 
ATOM     25  H   UNL     1      47.917  30.823  48.387  0.00  0.00    +0.000 HD
ATOM     26  H   UNL     1      47.861  29.292  47.434  0.00  0.00    +0.000 HD
BRANCH  24  30
ATOM     27  C   UNL     1      46.561  32.656  45.156  0.00  0.00    +0.000 A 
ATOM     28  C   UNL     1      47.276  31.703  44.415  0.00  0.00    +0.000 A 
ATOM     29  C   UNL     1      47.645  30.692  45.241  0.00  0.00    +0.000 A 
ATOM     30  N   UNL     1      47.173  31.010  46.449  0.00  0.00    +0.000 N 
ATOM     31  N   UNL     1      46.520  32.188  46.413  0.00  0.00    +0.000 NA
ATOM     32  H   UNL     1      47.524  31.720  43.356  0.00  0.00    +0.000 HD
ATOM     33  H   UNL     1      48.208  29.790  45.010  0.00  0.00    +0.000 HD
BRANCH  27  38
ATOM     34  C   UNL     1      44.579  35.700  44.826  0.00  0.00    +0.000 A 
ATOM     35  C   UNL     1      44.940  36.200  43.586  0.00  0.00    +0.000 A 
ATOM     36  C   UNL     1      45.876  35.478  42.861  0.00  0.00    +0.000 A 
ATOM     37  N   UNL     1      46.374  34.337  43.408  0.00  0.00    +0.000 NA
ATOM     38  C   UNL     1      46.005  33.883  44.606  0.00  0.00    +0.000 A 
ATOM     39  N   UNL     1      45.107  34.569  45.310  0.00  0.00    +0.000 NA
ATOM     40  H   UNL     1      43.849  36.277  45.376  0.00  0.00    +0.000 HD
ATOM     41  H   UNL     1      44.556  37.092  43.149  0.00  0.00    +0.000 HD
ATOM     42  H   UNL     1      46.261  35.723  41.895  0.00  0.00    +0.000 HD
ENDBRANCH  27  38
ENDBRANCH  24  30
ENDBRANCH   1  24
TORSDOF 5
