
     RDKit          3D

 32 34  0  0  0  0  0  0  0  0999 V2000
   46.5965   34.8001   42.1001 C   0  0  0  0  0  0  0  0  0  0  0  0
   47.9276   35.2143   42.0454 C   0  0  0  0  0  0  0  0  0  0  0  0
   48.7108   35.0326   40.8998 C   0  0  0  0  0  0  0  0  0  0  0  0
   48.1705   34.4330   39.7924 C   0  0  0  0  0  0  0  0  0  0  0  0
   46.8744   34.0331   39.8549 C   0  0  0  0  0  0  0  0  0  0  0  0
   46.0803   34.2042   40.9825 C   0  0  0  0  0  0  0  0  0  0  0  0
   44.4215   36.2231   44.7925 C   0  0  0  0  0  0  0  0  0  0  0  0
   45.0786   36.1178   43.5458 C   0  0  0  0  0  0  0  0  0  0  0  0
   45.8825   35.0253   43.3191 C   0  0  0  0  0  0  0  0  0  0  0  0
   46.0031   34.1060   44.3102 N   0  0  0  0  0  0  0  0  0  0  0  0
   45.3574   34.2420   45.4972 C   0  0  0  0  0  0  0  0  0  0  0  0
   44.5655   35.3011   45.7374 N   0  0  0  0  0  0  0  0  0  0  0  0
   45.5275   33.2661   46.5247 N   0  0  0  0  0  0  0  0  0  0  0  0
   44.6749   33.7521   41.0234 C   0  0  0  0  0  0  0  0  0  0  0  0
   44.4633   32.8994   39.9436 F   0  0  0  0  0  0  0  0  0  0  0  0
   43.8354   34.8472   40.9361 F   0  0  0  0  0  0  0  0  0  0  0  0
   44.3223   33.0946   42.1780 F   0  0  0  0  0  0  0  0  0  0  0  0
   48.3990   35.6986   42.9107 H   0  0  0  0  0  0  0  0  0  0  0  0
   49.7432   35.3763   40.9150 H   0  0  0  0  0  0  0  0  0  0  0  0
   48.7970   34.3055   38.9218 H   0  0  0  0  0  0  0  0  0  0  0  0
   46.4537   33.5591   38.9745 H   0  0  0  0  0  0  0  0  0  0  0  0
   43.7811   37.0699   44.9990 H   0  0  0  0  0  0  0  0  0  0  0  0
   44.9733   33.2892   47.3788 H   0  0  0  0  0  0  0  0  0  0  0  0
   46.2367   32.5021   46.4099 H   0  0  0  0  0  0  0  0  0  0  0  0
   44.8715   37.2083   42.6327 C   0  0  0  0  0  0  0  0  0  0  0  0
   45.0555   37.3958   41.2650 C   0  0  0  0  0  0  0  0  0  0  0  0
   45.4418   36.5206   40.7740 H   0  0  0  0  0  0  0  0  0  0  0  0
   44.7396   38.6066   40.7384 C   0  0  0  0  0  0  0  0  0  0  0  0
   44.2479   39.5870   41.6138 C   0  0  0  0  0  0  0  0  0  0  0  0
   44.2541   38.7048   43.2339 S   0  0  0  0  0  0  0  0  0  0  0  0
   44.8790   38.7692   39.6650 H   0  0  0  0  0  0  0  0  0  0  0  0
   43.9736   40.5949   41.2397 H   0  0  0  0  0  0  0  0  0  0  0  0
  1  9  1  0
  2  1  2  0
  3  2  1  0
  4  5  1  0
  4  3  2  0
  5  6  2  0
  6 14  1  0
  6  1  1  0
  7 12  2  0
  8  7  1  0
  9  8  2  0
  9 10  1  0
 10 11  2  0
 11 12  1  0
 11 13  1  0
 14 17  1  0
 15 14  1  0
 16 14  1  0
  2 18  1  0
  3 19  1  0
  4 20  1  0
  5 21  1  0
  7 22  1  0
 13 23  1  0
 13 24  1  0
 25 26  2  0
 26 27  1  0
 26 28  1  0
 28 29  2  0
 29 30  1  0
 30 25  1  0
 28 31  1  0
 29 32  1  0
  8 25  1  0
M  ISO  6  18  14  19  14  20  14  21  14  22  14  27  15
M  END
>  <DihAtoms>  (1) 
6,7,24,25

>  <DihDeg>  (1) 
-58.15750041947932

$$$$
