
 OpenBabel03252507013D

 34 36  0  0  0  0  0  0  0  0999 V2000
   49.3230   32.6450   41.3680 N   0  0  0  0  0  0  0  0  0  0  0  0
   50.1360   32.0450   40.3690 C   0  0  0  0  0  0  0  0  0  0  0  0
   51.4280   31.7700   41.1560 C   0  0  0  0  0  0  0  0  0  0  0  0
   51.2200   30.9000   42.3410 C   0  0  0  0  0  0  0  0  0  0  0  0
   49.8280   30.7690   42.8770 C   0  0  0  0  0  0  0  0  0  0  0  0
   48.8200   31.7300   42.3600 C   0  0  0  0  0  0  0  0  0  0  0  0
   49.7690   31.0700   40.0640 H   0  0  0  0  0  0  0  0  0  0  0  0
   50.3600   32.5890   39.4680 H   0  0  0  0  0  0  0  0  0  0  0  0
   52.1160   31.2700   40.4490 H   0  0  0  0  0  0  0  0  0  0  0  0
   51.8890   32.7530   41.3820 H   0  0  0  0  0  0  0  0  0  0  0  0
   51.5510   29.8680   42.1400 H   0  0  0  0  0  0  0  0  0  0  0  0
   51.8340   31.3060   43.1740 H   0  0  0  0  0  0  0  0  0  0  0  0
   49.5180   30.0730   43.6020 H   0  0  0  0  0  0  0  0  0  0  0  0
   47.5730   31.6360   42.9610 C   0  0  0  0  0  0  0  0  0  0  0  0
   46.3260   31.2320   42.6120 C   0  0  0  0  0  0  0  0  0  0  0  0
   46.2500   30.8740   41.5990 H   0  0  0  0  0  0  0  0  0  0  0  0
   45.3140   31.3080   43.5270 C   0  0  0  0  0  3  0  0  0  0  0  0
   45.5010   31.7840   44.8170 C   0  0  0  0  0  3  0  0  0  0  0  0
   47.3560   32.1850   44.7460 S   0  0  0  0  0  0  0  0  0  0  0  0
   49.1620   33.9610   41.6230 C   0  0  0  0  0  0  0  0  0  0  0  0
   48.7090   34.1640   42.6230 H   0  0  0  0  0  0  0  0  0  0  0  0
   50.0670   34.6270   41.6080 H   0  0  0  0  0  0  0  0  0  0  0  0
   48.2120   34.5870   40.6280 C   0  0  0  0  0  0  0  0  0  0  0  0
   48.5240   35.6620   40.5500 H   0  0  0  0  0  0  0  0  0  0  0  0
   48.2410   34.2220   39.6190 H   0  0  0  0  0  0  0  0  0  0  0  0
   46.8850   34.6680   41.2740 C   0  0  0  0  0  0  0  0  0  0  0  0
   46.7300   35.2010   42.5290 C   0  0  0  0  0  0  0  0  0  0  0  0
   45.4610   35.2620   43.1160 C   0  0  0  0  0  0  0  0  0  0  0  0
   44.4260   34.7710   42.3750 N   0  0  0  0  0  0  0  0  0  0  0  0
   44.6110   34.2610   41.1630 C   0  0  0  0  0  0  0  0  0  0  0  0
   45.8280   34.2170   40.6340 N   0  0  0  0  0  0  0  0  0  0  0  0
   47.5470   35.5810   43.0950 H   0  0  0  0  0  0  0  0  0  0  0  0
   45.2830   35.6720   44.1010 H   0  0  0  0  0  0  0  0  0  0  0  0
   43.7870   33.8630   40.5570 H   0  0  0  0  0  0  0  0  0  0  0  0
  1 20  1  0  0  0  0
  1  6  1  0  0  0  0
  2  3  1  0  0  0  0
  2  1  1  0  0  0  0
  3 10  1  0  0  0  0
  3  4  1  0  0  0  0
  4  5  1  0  0  0  0
  4 12  1  0  0  0  0
  5 13  1  0  0  0  0
  6  5  2  0  0  0  0
  6 14  1  0  0  0  0
  7  2  1  0  0  0  0
  8  2  1  0  0  0  0
  9  3  1  0  0  0  0
 11  4  1  0  0  0  0
 14 19  1  0  0  0  0
 15 14  2  0  0  0  0
 15 17  1  0  0  0  0
 16 15  1  0  0  0  0
 17 18  2  0  0  0  0
 19 18  1  0  0  0  0
 20 21  1  0  0  0  0
 22 20  1  0  0  0  0
 23 26  1  0  0  0  0
 23 20  1  0  0  0  0
 24 23  1  0  0  0  0
 25 23  1  0  0  0  0
 26 27  1  0  0  0  0
 27 32  1  0  0  0  0
 27 28  2  0  0  0  0
 28 33  1  0  0  0  0
 29 28  1  0  0  0  0
 30 29  2  0  0  0  0
 31 30  1  0  0  0  0
 31 26  2  0  0  0  0
 34 30  1  0  0  0  0
M  END
>  <minimizedAffinity>
-3.53263974

>  <minimizedRMSD>
4.22640228

$$$$
