
 OpenBabel03252506273D

 42 46  0  0  0  0  0  0  0  0999 V2000
   35.5540   29.5000   38.5140 C   0  0  0  0  0  0  0  0  0  0  0  0
   35.2930   30.5110   38.9490 H   0  0  0  0  0  0  0  0  0  0  0  0
   34.5890   29.1050   38.1360 H   0  0  0  0  0  0  0  0  0  0  0  0
   36.4620   27.3600   39.6240 C   0  0  0  0  0  0  0  0  0  0  0  0
   36.0700   28.6910   39.6070 C   0  0  0  0  0  0  0  0  0  0  0  0
   36.1770   29.3580   40.8060 C   0  0  0  0  0  0  0  0  0  0  0  0
   36.6400   28.7630   41.9600 C   0  0  0  0  0  0  0  0  0  0  0  0
   36.8480   29.1540   43.2270 N   0  0  0  0  0  0  0  0  0  0  0  0
   37.3280   28.1610   43.9740 C   0  0  0  0  0  0  0  0  0  0  0  0
   37.4530   27.0430   43.1860 C   0  0  0  0  0  0  0  0  0  0  0  0
   37.0250   27.4340   41.9530 C   0  0  0  0  0  0  0  0  0  0  0  0
   36.9260   26.7540   40.7710 C   0  0  0  0  0  0  0  0  0  0  0  0
   36.3330   26.9540   38.6370 H   0  0  0  0  0  0  0  0  0  0  0  0
   35.9120   30.3940   40.9560 H   0  0  0  0  0  0  0  0  0  0  0  0
   36.6510   30.1370   43.5800 H   0  0  0  0  0  0  0  0  0  0  0  0
   37.5640   28.2670   45.0220 H   0  0  0  0  0  0  0  0  0  0  0  0
   37.8230   26.1380   43.5940 H   0  0  0  0  0  0  0  0  0  0  0  0
   37.2720   25.3670   40.5570 C   0  0  0  0  0  0  0  0  0  0  0  0
   36.5640   24.2580   40.5030 C   0  0  0  0  0  0  0  0  0  0  0  0
   35.5220   24.0890   40.6100 H   0  0  0  0  0  0  0  0  0  0  0  0
   37.0980   23.0410   40.2760 C   0  0  0  0  0  3  0  0  0  0  0  0
   38.4930   22.9830   40.0890 C   0  0  0  0  0  3  0  0  0  0  0  0
   38.9060   24.8020   40.2730 S   0  0  0  0  0  0  0  0  0  0  0  0
   36.4710   29.7570   37.3770 C   0  0  0  0  0  0  0  0  0  0  0  0
   36.7890   28.7620   36.9750 H   0  0  0  0  0  0  0  0  0  0  0  0
   35.9830   30.3300   36.5930 H   0  0  0  0  0  0  0  0  0  0  0  0
   38.9160   32.0110   38.6980 C   0  0  0  0  0  0  0  0  0  0  0  0
   39.7090   30.9190   38.3160 C   0  0  0  0  0  0  0  0  0  0  0  0
   38.9100   29.9590   37.7860 C   0  0  0  0  0  0  0  0  0  0  0  0
   37.6660   30.4440   37.8380 N   0  0  0  0  0  0  0  0  0  0  0  0
   37.6550   31.6750   38.3840 N   0  0  0  0  0  0  0  0  0  0  0  0
   40.7870   30.8040   38.4070 H   0  0  0  0  0  0  0  0  0  0  0  0
   39.1820   28.9840   37.3880 H   0  0  0  0  0  0  0  0  0  0  0  0
   39.0880   35.0560   40.6980 C   0  0  0  0  0  0  0  0  0  0  0  0
   40.3660   35.5360   40.4650 C   0  0  0  0  0  0  0  0  0  0  0  0
   41.1720   34.7990   39.6100 C   0  0  0  0  0  0  0  0  0  0  0  0
   40.6620   33.6650   39.0610 N   0  0  0  0  0  0  0  0  0  0  0  0
   39.4260   33.2300   39.3070 C   0  0  0  0  0  0  0  0  0  0  0  0
   38.6440   33.9300   40.1260 N   0  0  0  0  0  0  0  0  0  0  0  0
   38.4760   35.6430   41.3680 H   0  0  0  0  0  0  0  0  0  0  0  0
   40.7760   36.4220   40.8900 H   0  0  0  0  0  0  0  0  0  0  0  0
   42.1770   35.0280   39.3260 H   0  0  0  0  0  0  0  0  0  0  0  0
  1  2  1  0  0  0  0
  1  5  1  0  0  0  0
  3  1  1  0  0  0  0
  4 12  1  0  0  0  0
  5  4  2  0  0  0  0
  5  6  1  0  0  0  0
  6 14  1  0  0  0  0
  6  7  2  0  0  0  0
  7  8  1  0  0  0  0
  8 15  1  0  0  0  0
  8  9  1  0  0  0  0
  9 16  1  0  0  0  0
 10 17  1  0  0  0  0
 10  9  2  0  0  0  0
 11  7  1  0  0  0  0
 11 10  1  0  0  0  0
 12 11  2  0  0  0  0
 13  4  1  0  0  0  0
 18 12  1  0  0  0  0
 19 18  2  0  0  0  0
 19 20  1  0  0  0  0
 21 19  1  0  0  0  0
 22 23  1  0  0  0  0
 22 21  2  0  0  0  0
 23 18  1  0  0  0  0
 24 30  1  0  0  0  0
 24  1  1  0  0  0  0
 25 24  1  0  0  0  0
 26 24  1  0  0  0  0
 27 38  1  0  0  0  0
 28 32  1  0  0  0  0
 28 27  1  0  0  0  0
 29 30  1  0  0  0  0
 29 28  2  0  0  0  0
 30 31  1  0  0  0  0
 31 27  2  0  0  0  0
 33 29  1  0  0  0  0
 34 40  1  0  0  0  0
 35 34  1  0  0  0  0
 35 41  1  0  0  0  0
 36 35  2  0  0  0  0
 37 38  2  0  0  0  0
 37 36  1  0  0  0  0
 38 39  1  0  0  0  0
 39 34  2  0  0  0  0
 42 36  1  0  0  0  0
M  END
>  <minimizedAffinity>
-6.73138285

$$$$

 OpenBabel03252506273D

 42 46  0  0  0  0  0  0  0  0999 V2000
   38.5710   31.3850   39.6220 C   0  0  0  0  0  0  0  0  0  0  0  0
   38.3320   31.2490   38.5250 H   0  0  0  0  0  0  0  0  0  0  0  0
   39.6790   31.4310   39.6580 H   0  0  0  0  0  0  0  0  0  0  0  0
   37.6310   28.9930   39.8040 C   0  0  0  0  0  0  0  0  0  0  0  0
   38.0650   30.2090   40.3130 C   0  0  0  0  0  0  0  0  0  0  0  0
   38.0060   30.3370   41.6820 C   0  0  0  0  0  0  0  0  0  0  0  0
   37.5500   29.3350   42.5120 C   0  0  0  0  0  0  0  0  0  0  0  0
   37.3900   29.1820   43.8360 N   0  0  0  0  0  0  0  0  0  0  0  0
   36.9020   27.9790   44.1350 C   0  0  0  0  0  0  0  0  0  0  0  0
   36.7190   27.2790   42.9670 C   0  0  0  0  0  0  0  0  0  0  0  0
   37.1230   28.1310   41.9830 C   0  0  0  0  0  0  0  0  0  0  0  0
   37.1730   27.9850   40.6240 C   0  0  0  0  0  0  0  0  0  0  0  0
   37.7260   29.0180   38.7330 H   0  0  0  0  0  0  0  0  0  0  0  0
   38.3060   31.2180   42.2290 H   0  0  0  0  0  0  0  0  0  0  0  0
   37.6280   29.9330   44.5490 H   0  0  0  0  0  0  0  0  0  0  0  0
   36.6990   27.6540   45.1440 H   0  0  0  0  0  0  0  0  0  0  0  0
   36.3370   26.2920   42.9880 H   0  0  0  0  0  0  0  0  0  0  0  0
   36.7720   26.8130   39.8800 C   0  0  0  0  0  0  0  0  0  0  0  0
   36.9520   25.5210   40.0630 C   0  0  0  0  0  0  0  0  0  0  0  0
   37.4590   24.9880   40.8270 H   0  0  0  0  0  0  0  0  0  0  0  0
   36.4710   24.5750   39.2310 C   0  0  0  0  0  3  0  0  0  0  0  0
   35.7390   25.0220   38.1140 C   0  0  0  0  0  3  0  0  0  0  0  0
   35.8300   26.8710   38.4030 S   0  0  0  0  0  0  0  0  0  0  0  0
   38.0010   32.6950   40.0180 C   0  0  0  0  0  0  0  0  0  0  0  0
   37.3780   33.0590   39.1620 H   0  0  0  0  0  0  0  0  0  0  0  0
   37.3870   32.6100   40.9090 H   0  0  0  0  0  0  0  0  0  0  0  0
   41.0560   34.4530   40.6370 C   0  0  0  0  0  0  0  0  0  0  0  0
   40.1560   35.5080   40.4240 C   0  0  0  0  0  0  0  0  0  0  0  0
   38.9280   34.9920   40.1710 C   0  0  0  0  0  0  0  0  0  0  0  0
   39.0650   33.6650   40.2260 N   0  0  0  0  0  0  0  0  0  0  0  0
   40.3390   33.3260   40.5050 N   0  0  0  0  0  0  0  0  0  0  0  0
   40.3550   36.5770   40.4450 H   0  0  0  0  0  0  0  0  0  0  0  0
   37.9960   35.5140   39.9620 H   0  0  0  0  0  0  0  0  0  0  0  0
   44.6860   34.1800   40.4050 C   0  0  0  0  0  0  0  0  0  0  0  0
   45.1450   34.9200   41.4820 C   0  0  0  0  0  0  0  0  0  0  0  0
   44.1910   35.5170   42.2920 C   0  0  0  0  0  0  0  0  0  0  0  0
   42.8790   35.3390   41.9810 N   0  0  0  0  0  0  0  0  0  0  0  0
   42.4700   34.6200   40.9350 C   0  0  0  0  0  0  0  0  0  0  0  0
   43.3790   34.0430   40.1510 N   0  0  0  0  0  0  0  0  0  0  0  0
   45.4450   33.7230   39.7850 H   0  0  0  0  0  0  0  0  0  0  0  0
   46.1700   35.0650   41.7340 H   0  0  0  0  0  0  0  0  0  0  0  0
   44.3740   36.1170   43.1560 H   0  0  0  0  0  0  0  0  0  0  0  0
  1  3  1  0  0  0  0
  1 24  1  0  0  0  0
  1  5  1  0  0  0  0
  2  1  1  0  0  0  0
  4  5  2  0  0  0  0
  4 12  1  0  0  0  0
  5  6  1  0  0  0  0
  6 14  1  0  0  0  0
  6  7  2  0  0  0  0
  7  8  1  0  0  0  0
  8  9  1  0  0  0  0
  8 15  1  0  0  0  0
  9 16  1  0  0  0  0
 10 17  1  0  0  0  0
 10  9  2  0  0  0  0
 11  7  1  0  0  0  0
 11 10  1  0  0  0  0
 12 11  2  0  0  0  0
 13  4  1  0  0  0  0
 18 19  2  0  0  0  0
 18 12  1  0  0  0  0
 19 20  1  0  0  0  0
 21 19  1  0  0  0  0
 22 23  1  0  0  0  0
 22 21  2  0  0  0  0
 23 18  1  0  0  0  0
 24 30  1  0  0  0  0
 24 26  1  0  0  0  0
 25 24  1  0  0  0  0
 27 38  1  0  0  0  0
 28 32  1  0  0  0  0
 28 27  1  0  0  0  0
 29 30  1  0  0  0  0
 29 28  2  0  0  0  0
 30 31  1  0  0  0  0
 31 27  2  0  0  0  0
 33 29  1  0  0  0  0
 34 35  1  0  0  0  0
 35 41  1  0  0  0  0
 35 36  2  0  0  0  0
 36 42  1  0  0  0  0
 37 36  1  0  0  0  0
 38 37  2  0  0  0  0
 39 34  2  0  0  0  0
 39 38  1  0  0  0  0
 40 34  1  0  0  0  0
M  END
>  <minimizedAffinity>
-6.728508

$$$$

 OpenBabel03252506273D

 42 46  0  0  0  0  0  0  0  0999 V2000
   36.1810   29.3690   41.6120 C   0  0  0  0  0  0  0  0  0  0  0  0
   36.9020   30.1910   41.9000 H   0  0  0  0  0  0  0  0  0  0  0  0
   35.3640   29.4440   42.3580 H   0  0  0  0  0  0  0  0  0  0  0  0
   36.7710   26.9320   41.0190 C   0  0  0  0  0  0  0  0  0  0  0  0
   36.9030   28.1120   41.7380 C   0  0  0  0  0  0  0  0  0  0  0  0
   37.8580   28.1030   42.7290 C   0  0  0  0  0  0  0  0  0  0  0  0
   38.6430   27.0050   43.0070 C   0  0  0  0  0  0  0  0  0  0  0  0
   39.6210   26.7190   43.8800 N   0  0  0  0  0  0  0  0  0  0  0  0
   40.0670   25.4720   43.7260 C   0  0  0  0  0  0  0  0  0  0  0  0
   39.3640   24.8800   42.7060 C   0  0  0  0  0  0  0  0  0  0  0  0
   38.4940   25.8380   42.2780 C   0  0  0  0  0  0  0  0  0  0  0  0
   37.5510   25.8280   41.2890 C   0  0  0  0  0  0  0  0  0  0  0  0
   36.0010   27.0660   40.2820 H   0  0  0  0  0  0  0  0  0  0  0  0
   38.0800   28.9410   43.3730 H   0  0  0  0  0  0  0  0  0  0  0  0
   39.9880   27.4080   44.6000 H   0  0  0  0  0  0  0  0  0  0  0  0
   40.8530   25.0440   44.3290 H   0  0  0  0  0  0  0  0  0  0  0  0
   39.5700   23.8810   42.4220 H   0  0  0  0  0  0  0  0  0  0  0  0
   37.2400   24.7130   40.4220 C   0  0  0  0  0  0  0  0  0  0  0  0
   36.2130   23.8930   40.3410 C   0  0  0  0  0  0  0  0  0  0  0  0
   35.3210   23.8310   40.9110 H   0  0  0  0  0  0  0  0  0  0  0  0
   36.1180   22.9050   39.4290 C   0  0  0  0  0  3  0  0  0  0  0  0
   37.1900   22.7670   38.5250 C   0  0  0  0  0  3  0  0  0  0  0  0
   38.2850   24.1630   39.1280 S   0  0  0  0  0  0  0  0  0  0  0  0
   35.6650   29.7160   40.2660 C   0  0  0  0  0  0  0  0  0  0  0  0
   35.6710   28.7780   39.6550 H   0  0  0  0  0  0  0  0  0  0  0  0
   34.6550   30.1150   40.3160 H   0  0  0  0  0  0  0  0  0  0  0  0
   37.9560   32.3190   39.3840 C   0  0  0  0  0  0  0  0  0  0  0  0
   37.6790   31.7460   38.1340 C   0  0  0  0  0  0  0  0  0  0  0  0
   36.8050   30.7220   38.3050 C   0  0  0  0  0  0  0  0  0  0  0  0
   36.5530   30.6660   39.6150 N   0  0  0  0  0  0  0  0  0  0  0  0
   37.2380   31.6200   40.2760 N   0  0  0  0  0  0  0  0  0  0  0  0
   38.0690   32.0320   37.1600 H   0  0  0  0  0  0  0  0  0  0  0  0
   36.3740   30.0590   37.5590 H   0  0  0  0  0  0  0  0  0  0  0  0
   40.9840   34.3520   39.4460 C   0  0  0  0  0  0  0  0  0  0  0  0
   40.5680   35.5540   39.9920 C   0  0  0  0  0  0  0  0  0  0  0  0
   39.2290   35.6610   40.3390 C   0  0  0  0  0  0  0  0  0  0  0  0
   38.4210   34.5890   40.1250 N   0  0  0  0  0  0  0  0  0  0  0  0
   38.8540   33.4440   39.5970 C   0  0  0  0  0  0  0  0  0  0  0  0
   40.1370   33.3320   39.2600 N   0  0  0  0  0  0  0  0  0  0  0  0
   42.0300   34.2880   39.1810 H   0  0  0  0  0  0  0  0  0  0  0  0
   41.1930   36.3990   40.1630 H   0  0  0  0  0  0  0  0  0  0  0  0
   38.7480   36.5130   40.7680 H   0  0  0  0  0  0  0  0  0  0  0  0
  1  5  1  0  0  0  0
  1  2  1  0  0  0  0
  1  3  1  0  0  0  0
  4 12  2  0  0  0  0
  4  5  1  0  0  0  0
  5  6  2  0  0  0  0
  6  7  1  0  0  0  0
  6 14  1  0  0  0  0
  7  8  1  0  0  0  0
  8 15  1  0  0  0  0
  9  8  1  0  0  0  0
  9 16  1  0  0  0  0
 10  9  2  0  0  0  0
 11 10  1  0  0  0  0
 11  7  2  0  0  0  0
 12 11  1  0  0  0  0
 13  4  1  0  0  0  0
 17 10  1  0  0  0  0
 18 12  1  0  0  0  0
 19 18  2  0  0  0  0
 19 20  1  0  0  0  0
 21 19  1  0  0  0  0
 22 23  1  0  0  0  0
 22 21  2  0  0  0  0
 23 18  1  0  0  0  0
 24 26  1  0  0  0  0
 24  1  1  0  0  0  0
 25 24  1  0  0  0  0
 27 38  1  0  0  0  0
 27 31  2  0  0  0  0
 28 29  2  0  0  0  0
 28 27  1  0  0  0  0
 29 30  1  0  0  0  0
 30 24  1  0  0  0  0
 30 31  1  0  0  0  0
 32 28  1  0  0  0  0
 33 29  1  0  0  0  0
 34 35  1  0  0  0  0
 35 41  1  0  0  0  0
 35 36  2  0  0  0  0
 36 42  1  0  0  0  0
 37 36  1  0  0  0  0
 38 37  2  0  0  0  0
 39 34  2  0  0  0  0
 39 38  1  0  0  0  0
 40 34  1  0  0  0  0
M  END
>  <minimizedAffinity>
-6.41463232

$$$$

 OpenBabel03252506273D

 42 46  0  0  0  0  0  0  0  0999 V2000
   36.8470   28.0060   42.4450 C   0  0  0  0  0  0  0  0  0  0  0  0
   36.6390   27.5580   43.4630 H   0  0  0  0  0  0  0  0  0  0  0  0
   35.9740   28.6600   42.2470 H   0  0  0  0  0  0  0  0  0  0  0  0
   36.5440   26.8460   40.1650 C   0  0  0  0  0  0  0  0  0  0  0  0
   36.9090   26.9000   41.5030 C   0  0  0  0  0  0  0  0  0  0  0  0
   37.4030   25.7290   42.0330 C   0  0  0  0  0  0  0  0  0  0  0  0
   37.5350   24.5690   41.3010 C   0  0  0  0  0  0  0  0  0  0  0  0
   37.9740   23.3240   41.5440 N   0  0  0  0  0  0  0  0  0  0  0  0
   37.8940   22.5550   40.4580 C   0  0  0  0  0  0  0  0  0  0  0  0
   37.3780   23.3050   39.4290 C   0  0  0  0  0  0  0  0  0  0  0  0
   37.1650   24.5380   39.9690 C   0  0  0  0  0  0  0  0  0  0  0  0
   36.6720   25.6910   39.4240 C   0  0  0  0  0  0  0  0  0  0  0  0
   36.1780   27.8130   39.8720 H   0  0  0  0  0  0  0  0  0  0  0  0
   37.7290   25.6090   43.0550 H   0  0  0  0  0  0  0  0  0  0  0  0
   38.3380   23.0010   42.4880 H   0  0  0  0  0  0  0  0  0  0  0  0
   38.1960   21.5190   40.4400 H   0  0  0  0  0  0  0  0  0  0  0  0
   37.2360   22.8760   38.4720 H   0  0  0  0  0  0  0  0  0  0  0  0
   36.2280   25.8650   38.0590 C   0  0  0  0  0  0  0  0  0  0  0  0
   35.0400   25.8790   37.4910 C   0  0  0  0  0  0  0  0  0  0  0  0
   34.0690   25.7590   37.9000 H   0  0  0  0  0  0  0  0  0  0  0  0
   34.8460   26.0720   36.1710 C   0  0  0  0  0  3  0  0  0  0  0  0
   35.9960   26.2670   35.3800 C   0  0  0  0  0  3  0  0  0  0  0  0
   37.3110   26.1430   36.7100 S   0  0  0  0  0  0  0  0  0  0  0  0
   38.0690   28.8320   42.5930 C   0  0  0  0  0  0  0  0  0  0  0  0
   38.1650   29.0950   43.6780 H   0  0  0  0  0  0  0  0  0  0  0  0
   38.9560   28.2960   42.2660 H   0  0  0  0  0  0  0  0  0  0  0  0
   38.4500   32.0190   41.0100 C   0  0  0  0  0  0  0  0  0  0  0  0
   37.1380   31.6760   40.6520 C   0  0  0  0  0  0  0  0  0  0  0  0
   36.8390   30.4660   41.1880 C   0  0  0  0  0  0  0  0  0  0  0  0
   37.9290   30.0770   41.8540 N   0  0  0  0  0  0  0  0  0  0  0  0
   38.9050   31.0000   41.7550 N   0  0  0  0  0  0  0  0  0  0  0  0
   36.4340   32.2430   40.0470 H   0  0  0  0  0  0  0  0  0  0  0  0
   35.9160   29.8940   41.1160 H   0  0  0  0  0  0  0  0  0  0  0  0
   38.9940   35.5000   40.0680 C   0  0  0  0  0  0  0  0  0  0  0  0
   40.3620   35.5810   39.8670 C   0  0  0  0  0  0  0  0  0  0  0  0
   41.0990   34.4230   40.0600 C   0  0  0  0  0  0  0  0  0  0  0  0
   40.4390   33.2930   40.4300 N   0  0  0  0  0  0  0  0  0  0  0  0
   39.1200   33.2490   40.6150 C   0  0  0  0  0  0  0  0  0  0  0  0
   38.4030   34.3560   40.4320 N   0  0  0  0  0  0  0  0  0  0  0  0
   38.4370   36.4130   39.9130 H   0  0  0  0  0  0  0  0  0  0  0  0
   40.8880   36.4610   39.5780 H   0  0  0  0  0  0  0  0  0  0  0  0
   42.1560   34.3140   39.9490 H   0  0  0  0  0  0  0  0  0  0  0  0
  1 24  1  0  0  0  0
  1  2  1  0  0  0  0
  3  1  1  0  0  0  0
  4  5  1  0  0  0  0
  5  6  2  0  0  0  0
  5  1  1  0  0  0  0
  6 14  1  0  0  0  0
  7  8  1  0  0  0  0
  7  6  1  0  0  0  0
  8 15  1  0  0  0  0
  9  8  1  0  0  0  0
 10 11  1  0  0  0  0
 10  9  2  0  0  0  0
 11  7  2  0  0  0  0
 12 11  1  0  0  0  0
 12  4  2  0  0  0  0
 13  4  1  0  0  0  0
 16  9  1  0  0  0  0
 17 10  1  0  0  0  0
 18 12  1  0  0  0  0
 19 20  1  0  0  0  0
 19 18  2  0  0  0  0
 21 19  1  0  0  0  0
 22 21  2  0  0  0  0
 22 23  1  0  0  0  0
 23 18  1  0  0  0  0
 24 25  1  0  0  0  0
 26 24  1  0  0  0  0
 27 31  2  0  0  0  0
 28 27  1  0  0  0  0
 28 29  2  0  0  0  0
 29 30  1  0  0  0  0
 30 24  1  0  0  0  0
 31 30  1  0  0  0  0
 32 28  1  0  0  0  0
 33 29  1  0  0  0  0
 34 39  1  0  0  0  0
 35 36  1  0  0  0  0
 35 34  2  0  0  0  0
 36 37  2  0  0  0  0
 37 38  1  0  0  0  0
 38 27  1  0  0  0  0
 39 38  2  0  0  0  0
 40 34  1  0  0  0  0
 41 35  1  0  0  0  0
 42 36  1  0  0  0  0
M  END
>  <minimizedAffinity>
-6.23510027

$$$$

 OpenBabel03252506273D

 42 46  0  0  0  0  0  0  0  0999 V2000
   36.3750   30.7620   39.5300 C   0  0  0  0  0  0  0  0  0  0  0  0
   36.6320   29.7890   39.0130 H   0  0  0  0  0  0  0  0  0  0  0  0
   35.5630   31.1960   38.9130 H   0  0  0  0  0  0  0  0  0  0  0  0
   38.8140   31.3330   38.9260 C   0  0  0  0  0  0  0  0  0  0  0  0
   37.5720   31.5880   39.4900 C   0  0  0  0  0  0  0  0  0  0  0  0
   37.4420   32.8060   40.1170 C   0  0  0  0  0  0  0  0  0  0  0  0
   38.4640   33.7270   40.1910 C   0  0  0  0  0  0  0  0  0  0  0  0
   38.6180   34.9530   40.7160 N   0  0  0  0  0  0  0  0  0  0  0  0
   39.8440   35.4280   40.5010 C   0  0  0  0  0  0  0  0  0  0  0  0
   40.5600   34.4890   39.8020 C   0  0  0  0  0  0  0  0  0  0  0  0
   39.6940   33.4520   39.6220 C   0  0  0  0  0  0  0  0  0  0  0  0
   39.8440   32.2460   38.9940 C   0  0  0  0  0  0  0  0  0  0  0  0
   38.7890   30.3590   38.4710 H   0  0  0  0  0  0  0  0  0  0  0  0
   36.5410   33.1520   40.6030 H   0  0  0  0  0  0  0  0  0  0  0  0
   37.8500   35.4720   41.2360 H   0  0  0  0  0  0  0  0  0  0  0  0
   40.1730   36.3980   40.8430 H   0  0  0  0  0  0  0  0  0  0  0  0
   41.5660   34.6760   39.5270 H   0  0  0  0  0  0  0  0  0  0  0  0
   41.0430   31.7690   38.3440 C   0  0  0  0  0  0  0  0  0  0  0  0
   41.5630   31.9680   37.1500 C   0  0  0  0  0  0  0  0  0  0  0  0
   41.2230   32.5460   36.3280 H   0  0  0  0  0  0  0  0  0  0  0  0
   42.7250   31.4220   36.7420 C   0  0  0  0  0  3  0  0  0  0  0  0
   43.4000   30.5960   37.6630 C   0  0  0  0  0  3  0  0  0  0  0  0
   42.2100   30.7070   39.1070 S   0  0  0  0  0  0  0  0  0  0  0  0
   35.8510   30.4010   40.8690 C   0  0  0  0  0  0  0  0  0  0  0  0
   36.0800   31.2540   41.5570 H   0  0  0  0  0  0  0  0  0  0  0  0
   34.7790   30.2270   40.8440 H   0  0  0  0  0  0  0  0  0  0  0  0
   37.2460   27.1690   41.5120 C   0  0  0  0  0  0  0  0  0  0  0  0
   37.7410   27.9150   42.5920 C   0  0  0  0  0  0  0  0  0  0  0  0
   37.2910   29.1910   42.4870 C   0  0  0  0  0  0  0  0  0  0  0  0
   36.5430   29.2290   41.3820 N   0  0  0  0  0  0  0  0  0  0  0  0
   36.5070   28.0220   40.7850 N   0  0  0  0  0  0  0  0  0  0  0  0
   38.3830   27.5810   43.4050 H   0  0  0  0  0  0  0  0  0  0  0  0
   37.4750   30.0380   43.1450 H   0  0  0  0  0  0  0  0  0  0  0  0
   38.9750   23.9580   41.4540 C   0  0  0  0  0  0  0  0  0  0  0  0
   38.0590   23.0970   40.8720 C   0  0  0  0  0  0  0  0  0  0  0  0
   36.8350   23.6330   40.4990 C   0  0  0  0  0  0  0  0  0  0  0  0
   36.6160   24.9560   40.7250 N   0  0  0  0  0  0  0  0  0  0  0  0
   37.5200   25.7580   41.2880 C   0  0  0  0  0  0  0  0  0  0  0  0
   38.6970   25.2530   41.6500 N   0  0  0  0  0  0  0  0  0  0  0  0
   39.9220   23.5220   41.7380 H   0  0  0  0  0  0  0  0  0  0  0  0
   38.2210   22.0600   40.6910 H   0  0  0  0  0  0  0  0  0  0  0  0
   36.0240   23.1100   40.0420 H   0  0  0  0  0  0  0  0  0  0  0  0
  1 24  1  0  0  0  0
  2  1  1  0  0  0  0
  3  1  1  0  0  0  0
  4 12  2  0  0  0  0
  4  5  1  0  0  0  0
  5  1  1  0  0  0  0
  5  6  2  0  0  0  0
  6  7  1  0  0  0  0
  6 14  1  0  0  0  0
  7  8  1  0  0  0  0
  8 15  1  0  0  0  0
  9  8  1  0  0  0  0
  9 16  1  0  0  0  0
 10  9  2  0  0  0  0
 11 10  1  0  0  0  0
 11  7  2  0  0  0  0
 12 11  1  0  0  0  0
 13  4  1  0  0  0  0
 17 10  1  0  0  0  0
 18 12  1  0  0  0  0
 18 23  1  0  0  0  0
 19 18  2  0  0  0  0
 20 19  1  0  0  0  0
 21 19  1  0  0  0  0
 21 22  2  0  0  0  0
 22 23  1  0  0  0  0
 24 30  1  0  0  0  0
 24 25  1  0  0  0  0
 26 24  1  0  0  0  0
 27 28  1  0  0  0  0
 28 32  1  0  0  0  0
 29 28  2  0  0  0  0
 29 33  1  0  0  0  0
 30 29  1  0  0  0  0
 31 30  1  0  0  0  0
 31 27  2  0  0  0  0
 34 39  1  0  0  0  0
 34 40  1  0  0  0  0
 35 34  2  0  0  0  0
 36 37  2  0  0  0  0
 36 35  1  0  0  0  0
 37 38  1  0  0  0  0
 38 27  1  0  0  0  0
 38 39  2  0  0  0  0
 41 35  1  0  0  0  0
 42 36  1  0  0  0  0
M  END
>  <minimizedAffinity>
-6.16419792

$$$$

 OpenBabel03252506273D

 42 46  0  0  0  0  0  0  0  0999 V2000
   36.8650   29.8430   41.9720 C   0  0  0  0  0  0  0  0  0  0  0  0
   37.5960   30.7060   41.9830 H   0  0  0  0  0  0  0  0  0  0  0  0
   36.1600   30.0680   42.7980 H   0  0  0  0  0  0  0  0  0  0  0  0
   38.9110   28.4900   42.7630 C   0  0  0  0  0  0  0  0  0  0  0  0
   37.6330   28.6370   42.2410 C   0  0  0  0  0  0  0  0  0  0  0  0
   36.9830   27.4670   41.9200 C   0  0  0  0  0  0  0  0  0  0  0  0
   37.5460   26.2210   42.0970 C   0  0  0  0  0  0  0  0  0  0  0  0
   37.1600   24.9530   41.8850 N   0  0  0  0  0  0  0  0  0  0  0  0
   38.1070   24.0860   42.2420 C   0  0  0  0  0  0  0  0  0  0  0  0
   39.1870   24.7890   42.7170 C   0  0  0  0  0  0  0  0  0  0  0  0
   38.8210   26.0990   42.6190 C   0  0  0  0  0  0  0  0  0  0  0  0
   39.4830   27.2500   42.9440 C   0  0  0  0  0  0  0  0  0  0  0  0
   39.3080   29.4670   42.9710 H   0  0  0  0  0  0  0  0  0  0  0  0
   35.9870   27.4120   41.5060 H   0  0  0  0  0  0  0  0  0  0  0  0
   36.2140   24.6840   41.4830 H   0  0  0  0  0  0  0  0  0  0  0  0
   37.9970   23.0160   42.1520 H   0  0  0  0  0  0  0  0  0  0  0  0
   40.0510   24.2810   43.0560 H   0  0  0  0  0  0  0  0  0  0  0  0
   40.8170   27.3370   43.4950 C   0  0  0  0  0  0  0  0  0  0  0  0
   41.4250   26.7220   44.4870 C   0  0  0  0  0  0  0  0  0  0  0  0
   41.0830   25.9810   45.1640 H   0  0  0  0  0  0  0  0  0  0  0  0
   42.7080   26.9520   44.8340 C   0  0  0  0  0  3  0  0  0  0  0  0
   43.4110   27.9080   44.0750 C   0  0  0  0  0  3  0  0  0  0  0  0
   42.0620   28.4000   42.8700 S   0  0  0  0  0  0  0  0  0  0  0  0
   36.1540   29.9110   40.6720 C   0  0  0  0  0  0  0  0  0  0  0  0
   36.0170   28.8590   40.3130 H   0  0  0  0  0  0  0  0  0  0  0  0
   35.1860   30.3940   40.7720 H   0  0  0  0  0  0  0  0  0  0  0  0
   38.5920   31.8050   38.8640 C   0  0  0  0  0  0  0  0  0  0  0  0
   37.7220   31.4040   37.8380 C   0  0  0  0  0  0  0  0  0  0  0  0
   36.7230   30.6600   38.3770 C   0  0  0  0  0  0  0  0  0  0  0  0
   36.9680   30.6060   39.6880 N   0  0  0  0  0  0  0  0  0  0  0  0
   38.0880   31.2890   39.9950 N   0  0  0  0  0  0  0  0  0  0  0  0
   37.7880   31.6210   36.7750 H   0  0  0  0  0  0  0  0  0  0  0  0
   35.8780   30.1880   37.8810 H   0  0  0  0  0  0  0  0  0  0  0  0
   41.1170   34.3950   39.3320 C   0  0  0  0  0  0  0  0  0  0  0  0
   42.0230   34.1650   38.3110 C   0  0  0  0  0  0  0  0  0  0  0  0
   41.7580   33.1060   37.4560 C   0  0  0  0  0  0  0  0  0  0  0  0
   40.6360   32.3690   37.6720 N   0  0  0  0  0  0  0  0  0  0  0  0
   39.7830   32.6170   38.6660 C   0  0  0  0  0  0  0  0  0  0  0  0
   40.0290   33.6320   39.4920 N   0  0  0  0  0  0  0  0  0  0  0  0
   41.3410   35.2250   39.9880 H   0  0  0  0  0  0  0  0  0  0  0  0
   42.9050   34.7360   38.1330 H   0  0  0  0  0  0  0  0  0  0  0  0
   42.3520   32.7940   36.6240 H   0  0  0  0  0  0  0  0  0  0  0  0
  1  2  1  0  0  0  0
  1  5  1  0  0  0  0
  1  3  1  0  0  0  0
  4 12  1  0  0  0  0
  4 13  1  0  0  0  0
  5  4  2  0  0  0  0
  6  7  2  0  0  0  0
  6  5  1  0  0  0  0
  7 11  1  0  0  0  0
  8  7  1  0  0  0  0
  8  9  1  0  0  0  0
  9 10  2  0  0  0  0
 10 17  1  0  0  0  0
 11 10  1  0  0  0  0
 11 12  2  0  0  0  0
 12 18  1  0  0  0  0
 14  6  1  0  0  0  0
 15  8  1  0  0  0  0
 16  9  1  0  0  0  0
 18 19  2  0  0  0  0
 19 21  1  0  0  0  0
 19 20  1  0  0  0  0
 22 21  2  0  0  0  0
 23 18  1  0  0  0  0
 23 22  1  0  0  0  0
 24 26  1  0  0  0  0
 24  1  1  0  0  0  0
 25 24  1  0  0  0  0
 27 31  2  0  0  0  0
 28 29  2  0  0  0  0
 28 27  1  0  0  0  0
 29 30  1  0  0  0  0
 30 31  1  0  0  0  0
 30 24  1  0  0  0  0
 32 28  1  0  0  0  0
 33 29  1  0  0  0  0
 34 39  1  0  0  0  0
 34 40  1  0  0  0  0
 35 34  2  0  0  0  0
 36 37  2  0  0  0  0
 36 35  1  0  0  0  0
 37 38  1  0  0  0  0
 38 27  1  0  0  0  0
 38 39  2  0  0  0  0
 41 35  1  0  0  0  0
 42 36  1  0  0  0  0
M  END
>  <minimizedAffinity>
-6.1202879

$$$$

 OpenBabel03252506273D

 42 46  0  0  0  0  0  0  0  0999 V2000
   37.3550   28.7610   37.5990 C   0  0  0  0  0  0  0  0  0  0  0  0
   37.1610   28.3360   36.5690 H   0  0  0  0  0  0  0  0  0  0  0  0
   38.3850   29.1670   37.5390 H   0  0  0  0  0  0  0  0  0  0  0  0
   37.9200   27.4580   39.7480 C   0  0  0  0  0  0  0  0  0  0  0  0
   37.2750   27.6500   38.5350 C   0  0  0  0  0  0  0  0  0  0  0  0
   36.4270   26.6390   38.1440 C   0  0  0  0  0  0  0  0  0  0  0  0
   36.2190   25.5000   38.8920 C   0  0  0  0  0  0  0  0  0  0  0  0
   35.4750   24.3900   38.7670 N   0  0  0  0  0  0  0  0  0  0  0  0
   35.6360   23.5720   39.8070 C   0  0  0  0  0  0  0  0  0  0  0  0
   36.5280   24.1450   40.6800 C   0  0  0  0  0  0  0  0  0  0  0  0
   36.8740   25.3290   40.0990 C   0  0  0  0  0  0  0  0  0  0  0  0
   37.7200   26.3230   40.5050 C   0  0  0  0  0  0  0  0  0  0  0  0
   38.5470   28.3100   39.9400 H   0  0  0  0  0  0  0  0  0  0  0  0
   35.8540   26.6390   37.2280 H   0  0  0  0  0  0  0  0  0  0  0  0
   34.8400   24.1970   37.9380 H   0  0  0  0  0  0  0  0  0  0  0  0
   35.1270   22.6240   39.9010 H   0  0  0  0  0  0  0  0  0  0  0  0
   36.7910   23.6520   41.5790 H   0  0  0  0  0  0  0  0  0  0  0  0
   38.4950   26.3340   41.7250 C   0  0  0  0  0  0  0  0  0  0  0  0
   38.4000   27.0140   42.8480 C   0  0  0  0  0  0  0  0  0  0  0  0
   37.7100   27.7570   43.1590 H   0  0  0  0  0  0  0  0  0  0  0  0
   39.2430   26.8580   43.8890 C   0  0  0  0  0  3  0  0  0  0  0  0
   40.2730   25.9070   43.7370 C   0  0  0  0  0  3  0  0  0  0  0  0
   39.8880   25.3070   42.0040 S   0  0  0  0  0  0  0  0  0  0  0  0
   36.3880   29.8690   37.7850 C   0  0  0  0  0  0  0  0  0  0  0  0
   36.2840   30.3890   36.7990 H   0  0  0  0  0  0  0  0  0  0  0  0
   35.4190   29.5020   38.1110 H   0  0  0  0  0  0  0  0  0  0  0  0
   38.1210   32.4670   39.5320 C   0  0  0  0  0  0  0  0  0  0  0  0
   37.2500   31.9870   40.5220 C   0  0  0  0  0  0  0  0  0  0  0  0
   36.5090   30.9770   40.0020 C   0  0  0  0  0  0  0  0  0  0  0  0
   36.9090   30.8380   38.7360 N   0  0  0  0  0  0  0  0  0  0  0  0
   37.8770   31.7280   38.4390 N   0  0  0  0  0  0  0  0  0  0  0  0
   37.1430   32.3290   41.5490 H   0  0  0  0  0  0  0  0  0  0  0  0
   35.7380   30.3760   40.4810 H   0  0  0  0  0  0  0  0  0  0  0  0
   39.5460   35.6600   40.5690 C   0  0  0  0  0  0  0  0  0  0  0  0
   40.8450   35.6160   40.0910 C   0  0  0  0  0  0  0  0  0  0  0  0
   41.2290   34.4730   39.4060 C   0  0  0  0  0  0  0  0  0  0  0  0
   40.3140   33.4790   39.2490 N   0  0  0  0  0  0  0  0  0  0  0  0
   39.0700   33.5530   39.7220 C   0  0  0  0  0  0  0  0  0  0  0  0
   38.6920   34.6460   40.3820 N   0  0  0  0  0  0  0  0  0  0  0  0
   39.2670   36.5580   41.1010 H   0  0  0  0  0  0  0  0  0  0  0  0
   41.5690   36.3890   40.2090 H   0  0  0  0  0  0  0  0  0  0  0  0
   42.1870   34.2790   38.9760 H   0  0  0  0  0  0  0  0  0  0  0  0
  1 24  1  0  0  0  0
  1  5  1  0  0  0  0
  2  1  1  0  0  0  0
  3  1  1  0  0  0  0
  4 13  1  0  0  0  0
  4 12  1  0  0  0  0
  5  4  2  0  0  0  0
  6  5  1  0  0  0  0
  6  7  2  0  0  0  0
  7 11  1  0  0  0  0
  8  7  1  0  0  0  0
  8  9  1  0  0  0  0
  9 16  1  0  0  0  0
  9 10  2  0  0  0  0
 10 17  1  0  0  0  0
 11 12  2  0  0  0  0
 11 10  1  0  0  0  0
 12 18  1  0  0  0  0
 14  6  1  0  0  0  0
 15  8  1  0  0  0  0
 18 23  1  0  0  0  0
 18 19  2  0  0  0  0
 19 20  1  0  0  0  0
 19 21  1  0  0  0  0
 22 21  2  0  0  0  0
 23 22  1  0  0  0  0
 24 26  1  0  0  0  0
 24 30  1  0  0  0  0
 25 24  1  0  0  0  0
 27 38  1  0  0  0  0
 27 28  1  0  0  0  0
 28 32  1  0  0  0  0
 29 33  1  0  0  0  0
 29 28  2  0  0  0  0
 30 29  1  0  0  0  0
 31 30  1  0  0  0  0
 31 27  2  0  0  0  0
 34 40  1  0  0  0  0
 35 41  1  0  0  0  0
 35 34  2  0  0  0  0
 36 35  1  0  0  0  0
 37 36  2  0  0  0  0
 37 38  1  0  0  0  0
 38 39  2  0  0  0  0
 39 34  1  0  0  0  0
 42 36  1  0  0  0  0
M  END
>  <minimizedAffinity>
-6.07685852

$$$$

 OpenBabel03252506273D

 42 46  0  0  0  0  0  0  0  0999 V2000
   35.4860   29.3850   38.6380 C   0  0  0  0  0  0  0  0  0  0  0  0
   35.1500   30.3560   39.1100 H   0  0  0  0  0  0  0  0  0  0  0  0
   34.5520   28.9280   38.2510 H   0  0  0  0  0  0  0  0  0  0  0  0
   36.5800   27.2900   39.6650 C   0  0  0  0  0  0  0  0  0  0  0  0
   36.0720   28.5810   39.7000 C   0  0  0  0  0  0  0  0  0  0  0  0
   36.1200   29.2080   40.9250 C   0  0  0  0  0  0  0  0  0  0  0  0
   36.6340   28.6100   42.0550 C   0  0  0  0  0  0  0  0  0  0  0  0
   36.8080   28.9680   43.3370 N   0  0  0  0  0  0  0  0  0  0  0  0
   37.3740   27.9920   44.0460 C   0  0  0  0  0  0  0  0  0  0  0  0
   37.5970   26.9210   43.2160 C   0  0  0  0  0  0  0  0  0  0  0  0
   37.1350   27.3220   41.9980 C   0  0  0  0  0  0  0  0  0  0  0  0
   37.0960   26.6830   40.7900 C   0  0  0  0  0  0  0  0  0  0  0  0
   36.4860   26.9140   38.6630 H   0  0  0  0  0  0  0  0  0  0  0  0
   35.7650   30.2100   41.1150 H   0  0  0  0  0  0  0  0  0  0  0  0
   36.5260   29.9150   43.7280 H   0  0  0  0  0  0  0  0  0  0  0  0
   37.6000   28.0770   45.0980 H   0  0  0  0  0  0  0  0  0  0  0  0
   38.0460   26.0370   43.5880 H   0  0  0  0  0  0  0  0  0  0  0  0
   37.5620   25.3410   40.5220 C   0  0  0  0  0  0  0  0  0  0  0  0
   38.6950   24.8560   40.0590 C   0  0  0  0  0  0  0  0  0  0  0  0
   39.5870   25.3380   39.7480 H   0  0  0  0  0  0  0  0  0  0  0  0
   38.9300   23.5380   39.8930 C   0  0  0  0  0  3  0  0  0  0  0  0
   37.8880   22.6560   40.2430 C   0  0  0  0  0  3  0  0  0  0  0  0
   36.6060   23.9010   40.8080 S   0  0  0  0  0  0  0  0  0  0  0  0
   36.3710   29.7520   37.5060 C   0  0  0  0  0  0  0  0  0  0  0  0
   36.9070   28.8210   37.1880 H   0  0  0  0  0  0  0  0  0  0  0  0
   35.8050   30.1530   36.6710 H   0  0  0  0  0  0  0  0  0  0  0  0
   39.3370   31.6200   38.2250 C   0  0  0  0  0  0  0  0  0  0  0  0
   38.3470   32.4100   38.8280 C   0  0  0  0  0  0  0  0  0  0  0  0
   37.1400   31.8220   38.6370 C   0  0  0  0  0  0  0  0  0  0  0  0
   37.3770   30.7070   37.9420 N   0  0  0  0  0  0  0  0  0  0  0  0
   38.6930   30.5730   37.6870 N   0  0  0  0  0  0  0  0  0  0  0  0
   38.4690   33.3460   39.3690 H   0  0  0  0  0  0  0  0  0  0  0  0
   36.1570   32.1540   38.9660 H   0  0  0  0  0  0  0  0  0  0  0  0
   42.5630   32.9970   37.2270 C   0  0  0  0  0  0  0  0  0  0  0  0
   43.4370   32.5370   38.1980 C   0  0  0  0  0  0  0  0  0  0  0  0
   42.9040   31.7450   39.2040 C   0  0  0  0  0  0  0  0  0  0  0  0
   41.5720   31.4740   39.1730 N   0  0  0  0  0  0  0  0  0  0  0  0
   40.7580   31.9340   38.2230 C   0  0  0  0  0  0  0  0  0  0  0  0
   41.2590   32.6950   37.2530 N   0  0  0  0  0  0  0  0  0  0  0  0
   42.9970   33.6130   36.4520 H   0  0  0  0  0  0  0  0  0  0  0  0
   44.4810   32.7430   38.2300 H   0  0  0  0  0  0  0  0  0  0  0  0
   43.4360   31.3120   40.0230 H   0  0  0  0  0  0  0  0  0  0  0  0
  1  2  1  0  0  0  0
  1  5  1  0  0  0  0
  3  1  1  0  0  0  0
  4  5  2  0  0  0  0
  4 12  1  0  0  0  0
  5  6  1  0  0  0  0
  6 14  1  0  0  0  0
  6  7  2  0  0  0  0
  7  8  1  0  0  0  0
  8 15  1  0  0  0  0
  8  9  1  0  0  0  0
  9 16  1  0  0  0  0
 10 17  1  0  0  0  0
 10  9  2  0  0  0  0
 11  7  1  0  0  0  0
 11 10  1  0  0  0  0
 12 11  2  0  0  0  0
 13  4  1  0  0  0  0
 18 12  1  0  0  0  0
 18 23  1  0  0  0  0
 19 18  2  0  0  0  0
 20 19  1  0  0  0  0
 21 19  1  0  0  0  0
 21 22  2  0  0  0  0
 22 23  1  0  0  0  0
 24 30  1  0  0  0  0
 24  1  1  0  0  0  0
 25 24  1  0  0  0  0
 26 24  1  0  0  0  0
 27 28  1  0  0  0  0
 28 32  1  0  0  0  0
 29 28  2  0  0  0  0
 29 33  1  0  0  0  0
 30 29  1  0  0  0  0
 31 30  1  0  0  0  0
 31 27  2  0  0  0  0
 34 39  2  0  0  0  0
 34 35  1  0  0  0  0
 35 41  1  0  0  0  0
 35 36  2  0  0  0  0
 36 42  1  0  0  0  0
 37 36  1  0  0  0  0
 38 27  1  0  0  0  0
 38 37  2  0  0  0  0
 39 38  1  0  0  0  0
 40 34  1  0  0  0  0
M  END
>  <minimizedAffinity>
-6.07027674

$$$$

 OpenBabel03252506273D

 42 46  0  0  0  0  0  0  0  0999 V2000
   36.3220   30.7130   39.2300 C   0  0  0  0  0  0  0  0  0  0  0  0
   35.7080   31.0910   38.3590 H   0  0  0  0  0  0  0  0  0  0  0  0
   35.6760   30.8810   40.1160 H   0  0  0  0  0  0  0  0  0  0  0  0
   38.7900   31.2920   38.7700 C   0  0  0  0  0  0  0  0  0  0  0  0
   37.5240   31.5300   39.2860 C   0  0  0  0  0  0  0  0  0  0  0  0
   37.3700   32.7200   39.9610 C   0  0  0  0  0  0  0  0  0  0  0  0
   38.3940   33.6290   40.1260 C   0  0  0  0  0  0  0  0  0  0  0  0
   38.5290   34.8280   40.7130 N   0  0  0  0  0  0  0  0  0  0  0  0
   39.7670   35.3030   40.5780 C   0  0  0  0  0  0  0  0  0  0  0  0
   40.5110   34.3900   39.8710 C   0  0  0  0  0  0  0  0  0  0  0  0
   39.6480   33.3700   39.6030 C   0  0  0  0  0  0  0  0  0  0  0  0
   39.8200   32.1930   38.9290 C   0  0  0  0  0  0  0  0  0  0  0  0
   38.7800   30.3400   38.2700 H   0  0  0  0  0  0  0  0  0  0  0  0
   36.4500   33.0500   40.4190 H   0  0  0  0  0  0  0  0  0  0  0  0
   37.7400   35.3290   41.2190 H   0  0  0  0  0  0  0  0  0  0  0  0
   40.0850   36.2540   40.9790 H   0  0  0  0  0  0  0  0  0  0  0  0
   41.5290   34.5810   39.6540 H   0  0  0  0  0  0  0  0  0  0  0  0
   41.0470   31.7360   38.3150 C   0  0  0  0  0  0  0  0  0  0  0  0
   41.6530   32.0300   37.1840 C   0  0  0  0  0  0  0  0  0  0  0  0
   41.3890   32.6960   36.4020 H   0  0  0  0  0  0  0  0  0  0  0  0
   42.8240   31.4820   36.8010 C   0  0  0  0  0  3  0  0  0  0  0  0
   43.4080   30.5470   37.6790 C   0  0  0  0  0  3  0  0  0  0  0  0
   42.1250   30.5630   39.0450 S   0  0  0  0  0  0  0  0  0  0  0  0
   36.5070   29.2580   39.0130 C   0  0  0  0  0  0  0  0  0  0  0  0
   35.5150   28.8380   38.7070 H   0  0  0  0  0  0  0  0  0  0  0  0
   37.2440   29.0610   38.2390 H   0  0  0  0  0  0  0  0  0  0  0  0
   38.1490   27.6170   41.7360 C   0  0  0  0  0  0  0  0  0  0  0  0
   36.8430   27.7540   42.2300 C   0  0  0  0  0  0  0  0  0  0  0  0
   36.0820   28.3730   41.2920 C   0  0  0  0  0  0  0  0  0  0  0  0
   36.8910   28.6080   40.2560 N   0  0  0  0  0  0  0  0  0  0  0  0
   38.1360   28.1590   40.5090 N   0  0  0  0  0  0  0  0  0  0  0  0
   36.4500   27.4380   43.1940 H   0  0  0  0  0  0  0  0  0  0  0  0
   35.0290   28.6410   41.3330 H   0  0  0  0  0  0  0  0  0  0  0  0
   41.1130   27.2240   43.8260 C   0  0  0  0  0  0  0  0  0  0  0  0
   41.3280   25.8560   43.8440 C   0  0  0  0  0  0  0  0  0  0  0  0
   40.4410   25.0660   43.1280 C   0  0  0  0  0  0  0  0  0  0  0  0
   39.4270   25.6780   42.4610 N   0  0  0  0  0  0  0  0  0  0  0  0
   39.2470   26.9990   42.4640 C   0  0  0  0  0  0  0  0  0  0  0  0
   40.0930   27.7660   43.1480 N   0  0  0  0  0  0  0  0  0  0  0  0
   41.8140   27.8220   44.3890 H   0  0  0  0  0  0  0  0  0  0  0  0
   42.1190   25.3670   44.3630 H   0  0  0  0  0  0  0  0  0  0  0  0
   40.4650   24.0010   43.0390 H   0  0  0  0  0  0  0  0  0  0  0  0
  1  5  1  0  0  0  0
  1  3  1  0  0  0  0
  2  1  1  0  0  0  0
  4 12  2  0  0  0  0
  4  5  1  0  0  0  0
  5  6  2  0  0  0  0
  6  7  1  0  0  0  0
  6 14  1  0  0  0  0
  7  8  1  0  0  0  0
  8 15  1  0  0  0  0
  9  8  1  0  0  0  0
  9 16  1  0  0  0  0
 10  9  2  0  0  0  0
 11 10  1  0  0  0  0
 11  7  2  0  0  0  0
 12 11  1  0  0  0  0
 13  4  1  0  0  0  0
 17 10  1  0  0  0  0
 18 12  1  0  0  0  0
 18 23  1  0  0  0  0
 19 18  2  0  0  0  0
 20 19  1  0  0  0  0
 21 19  1  0  0  0  0
 21 22  2  0  0  0  0
 22 23  1  0  0  0  0
 24  1  1  0  0  0  0
 24 30  1  0  0  0  0
 25 24  1  0  0  0  0
 26 24  1  0  0  0  0
 27 28  1  0  0  0  0
 27 38  1  0  0  0  0
 28 32  1  0  0  0  0
 29 33  1  0  0  0  0
 29 28  2  0  0  0  0
 30 31  1  0  0  0  0
 30 29  1  0  0  0  0
 31 27  2  0  0  0  0
 34 35  1  0  0  0  0
 34 40  1  0  0  0  0
 35 41  1  0  0  0  0
 36 35  2  0  0  0  0
 37 38  2  0  0  0  0
 37 36  1  0  0  0  0
 38 39  1  0  0  0  0
 39 34  2  0  0  0  0
 42 36  1  0  0  0  0
M  END
>  <minimizedAffinity>
-6.03520012

$$$$
