REMARK  Name = 
REMARK  3 active torsions:
REMARK  status: ('A' for Active; 'I' for Inactive)
REMARK    1  A    between atoms: C_1  and  C_9
REMARK    2  A    between atoms: C_6  and  C_14
REMARK    3  A    between atoms: C_8  and  C_25
REMARK                            x       y       z     vdW  Elec       q    Type
REMARK                         _______ _______ _______ _____ _____    ______ ____
ROOT
ATOM      1  C   UNL     1      44.422  36.223  44.792  0.00  0.00    +0.000 A 
ATOM      2  C   UNL     1      45.079  36.118  43.546  0.00  0.00    +0.000 A 
ATOM      3  C   UNL     1      45.883  35.025  43.319  0.00  0.00    +0.000 A 
ATOM      4  N   UNL     1      46.003  34.106  44.310  0.00  0.00    +0.000 NA
ATOM      5  C   UNL     1      45.357  34.242  45.497  0.00  0.00    +0.000 A 
ATOM      6  N   UNL     1      44.566  35.301  45.737  0.00  0.00    +0.000 NA
ATOM      7  N   UNL     1      45.528  33.266  46.525  0.00  0.00    +0.000 N 
ATOM      8  H   UNL     1      43.781  37.070  44.999  0.00  0.00    +0.000 HD
ATOM      9  H   UNL     1      44.973  33.289  47.379  0.00  0.00    +0.000 HD
ATOM     10  H   UNL     1      46.237  32.502  46.410  0.00  0.00    +0.000 HD
ENDROOT
BRANCH   3  11
ATOM     11  C   UNL     1      46.596  34.800  42.100  0.00  0.00    +0.000 A 
ATOM     12  C   UNL     1      47.928  35.214  42.045  0.00  0.00    +0.000 A 
ATOM     13  C   UNL     1      48.711  35.033  40.900  0.00  0.00    +0.000 A 
ATOM     14  C   UNL     1      48.170  34.433  39.792  0.00  0.00    +0.000 A 
ATOM     15  C   UNL     1      46.874  34.033  39.855  0.00  0.00    +0.000 A 
ATOM     16  C   UNL     1      46.080  34.204  40.983  0.00  0.00    +0.000 A 
ATOM     17  H   UNL     1      48.399  35.699  42.911  0.00  0.00    +0.000 HD
ATOM     18  H   UNL     1      49.743  35.376  40.915  0.00  0.00    +0.000 HD
ATOM     19  H   UNL     1      48.797  34.306  38.922  0.00  0.00    +0.000 HD
ATOM     20  H   UNL     1      46.454  33.559  38.974  0.00  0.00    +0.000 HD
BRANCH  16  21
ATOM     21  C   UNL     1      44.675  33.752  41.023  0.00  0.00    +0.000 C 
ATOM     22  F   UNL     1      44.463  32.899  39.944  0.00  0.00    +0.000 F 
ATOM     23  F   UNL     1      43.835  34.847  40.936  0.00  0.00    +0.000 F 
ATOM     24  F   UNL     1      44.322  33.095  42.178  0.00  0.00    +0.000 F 
ENDBRANCH  16  21
ENDBRANCH   3  11
BRANCH   2  25
ATOM     25  C   UNL     1      44.871  37.208  42.633  0.00  0.00    +0.000 A 
ATOM     26  C   UNL     1      43.758  37.797  42.038  0.00  0.00    +0.000 A 
ATOM     27  H   UNL     1      42.835  37.329  42.330  0.00  0.00    +0.000 HD
ATOM     28  C   UNL     1      43.961  38.844  41.199  0.00  0.00    +0.000 A 
ATOM     29  C   UNL     1      45.285  39.261  40.989  0.00  0.00    +0.000 A 
ATOM     30  S   UNL     1      46.237  38.088  42.047  0.00  0.00    +0.000 S 
ENDBRANCH   2  25
TORSDOF 3
