
 OpenBabel03252500363D

 43 46  0  0  1  0  0  0  0  0999 V2000
   46.4630   33.1750   44.6320 C   0  0  0  0  0  0  0  0  0  0  0  0
   47.5840   33.2190   44.7140 H   0  0  0  0  0  0  0  0  0  0  0  0
   46.2630   32.7640   43.6230 H   0  0  0  0  0  0  0  0  0  0  0  0
   45.9330   32.3650   45.6650 N   0  0  0  0  0  0  0  0  0  0  0  0
   45.9810   32.8490   46.9770 C   0  0  0  0  0  0  0  0  0  0  0  0
   47.2710   32.4080   47.6910 C   0  0  0  0  0  0  0  0  0  0  0  0
   47.1680   30.9160   47.8700 C   0  0  0  0  0  0  0  0  0  0  0  0
   47.1040   30.3330   46.4700 C   0  0  0  0  0  0  0  0  0  0  0  0
   46.0630   30.9710   45.5880 C   0  0  2  0  0  0  0  0  0  0  0  0
   45.7200   33.8800   47.1870 H   0  0  0  0  0  0  0  0  0  0  0  0
   45.1880   32.2650   47.5400 H   0  0  0  0  0  0  0  0  0  0  0  0
   48.1700   32.7040   47.1140 H   0  0  0  0  0  0  0  0  0  0  0  0
   47.2620   32.8870   48.6900 H   0  0  0  0  0  0  0  0  0  0  0  0
   48.0350   30.4710   48.3590 H   0  0  0  0  0  0  0  0  0  0  0  0
   46.2050   30.7290   48.3780 H   0  0  0  0  0  0  0  0  0  0  0  0
   46.9430   29.2500   46.4700 H   0  0  0  0  0  0  0  0  0  0  0  0
   48.0850   30.5430   45.9940 H   0  0  0  0  0  0  0  0  0  0  0  0
   45.0900   30.5110   45.8600 H   0  0  0  0  0  0  0  0  0  0  0  0
   46.3560   30.5060   44.1660 C   0  0  0  0  0  0  0  0  0  0  0  0
   46.7850   29.4870   44.1710 H   0  0  0  0  0  0  0  0  0  0  0  0
   45.4130   30.5210   43.5670 H   0  0  0  0  0  0  0  0  0  0  0  0
   47.0620   31.1740   43.6520 H   0  0  0  0  0  0  0  0  0  0  0  0
   45.6940   35.4350   43.5420 C   0  0  1  0  0  0  0  0  0  0  0  0
   44.5990   34.8760   44.2050 C   0  0  0  0  0  0  0  0  0  0  0  0
   45.9060   34.5360   44.7950 C   0  0  1  0  0  0  0  0  0  0  0  0
   45.9660   36.5140   43.6870 H   0  0  0  0  0  0  0  0  0  0  0  0
   43.8920   35.4960   44.7820 H   0  0  0  0  0  0  0  0  0  0  0  0
   44.0590   33.9950   43.7490 H   0  0  0  0  0  0  0  0  0  0  0  0
   46.3760   35.1170   45.6030 H   0  0  0  0  0  0  0  0  0  0  0  0
   45.4580   34.2450   41.3590 C   0  0  0  0  0  0  0  0  0  0  0  0
   46.3160   34.9450   42.2700 C   0  0  0  0  0  0  0  0  0  0  0  0
   47.6290   35.1310   41.9670 C   0  0  0  0  0  0  0  0  0  0  0  0
   48.0840   34.6230   40.7690 N   0  0  0  0  0  0  0  0  0  0  0  0
   47.2570   33.9660   39.9250 C   0  0  0  0  0  0  0  0  0  0  0  0
   45.9300   33.7550   40.1850 N   0  0  0  0  0  0  0  0  0  0  0  0
   44.4080   34.0650   41.5400 H   0  0  0  0  0  0  0  0  0  0  0  0
   48.2780   35.6590   42.6500 H   0  0  0  0  0  0  0  0  0  0  0  0
   47.9700   33.5130   38.7050 C   0  0  0  0  0  0  0  0  0  0  0  0
   47.9880   34.0780   37.4640 C   0  0  0  0  0  0  0  0  0  0  0  0
   47.4150   34.9830   37.3140 H   0  0  0  0  0  0  0  0  0  0  0  0
   48.7160   33.4980   36.4670 C   0  0  0  0  0  0  0  0  0  0  0  0
   49.4150   32.3160   36.8110 C   0  0  0  0  0  0  0  0  0  0  0  0
   48.9520   32.1190   38.6370 S   0  0  0  0  0  0  0  0  0  0  0  0
  1  2  1  0  0  0  0
  1 25  1  0  0  0  0
  1  4  1  0  0  0  0
  3  1  1  0  0  0  0
  4  5  1  0  0  0  0
  5 10  1  0  0  0  0
  5 11  1  0  0  0  0
  5  6  1  0  0  0  0
  6  7  1  0  0  0  0
  6 13  1  0  0  0  0
  7 14  1  0  0  0  0
  7 15  1  0  0  0  0
  8 16  1  0  0  0  0
  8  7  1  0  0  0  0
  9  4  1  0  0  0  0
  9 18  1  1  0  0  0
  9  8  1  0  0  0  0
 12  6  1  0  0  0  0
 17  8  1  0  0  0  0
 19 20  1  0  0  0  0
 19  9  1  0  0  0  0
 21 19  1  0  0  0  0
 22 19  1  0  0  0  0
 23 26  1  1  0  0  0
 23 24  1  0  0  0  0
 23 25  1  0  0  0  0
 24 27  1  0  0  0  0
 24 25  1  0  0  0  0
 25 29  1  1  0  0  0
 28 24  1  0  0  0  0
 30 36  1  0  0  0  0
 30 31  1  0  0  0  0
 31 23  1  0  0  0  0
 32 31  2  0  0  0  0
 32 37  1  0  0  0  0
 33 32  1  0  0  0  0
 34 35  1  0  0  0  0
 34 33  2  0  0  0  0
 35 30  2  0  0  0  0
 38 34  1  0  0  0  0
 39 38  2  0  0  0  0
 40 39  1  0  0  0  0
 41 42  2  0  0  0  0
 41 39  1  0  0  0  0
 42 43  1  0  0  0  0
 43 38  1  0  0  0  0
M  END
>  <minimizedAffinity>
-4.92579079

>  <minimizedRMSD>
2.69786859

$$$$
