
     RDKit          3D

 46 49  0  0  0  0  0  0  0  0999 V2000
   45.6879   32.9662   46.7640 C   0  0  0  0  0  0  0  0  0  0  0  0
   46.4041   32.1661   47.7905 C   0  0  0  0  0  0  0  0  0  0  0  0
   45.9301   31.8146   49.0192 C   0  0  0  0  0  0  0  0  0  0  0  0
   46.8944   31.1111   49.6113 N   0  0  0  0  0  0  0  0  0  0  0  0
   47.9559   30.9988   48.8197 C   0  0  0  0  0  0  0  0  0  0  0  0
   47.6492   31.6656   47.6647 N   0  0  0  0  0  0  0  0  0  0  0  0
   49.2210   30.3552   49.0014 N   0  0  0  0  0  0  0  0  0  0  0  0
   50.3003   31.1572   49.6221 C   0  0  0  0  0  0  0  0  0  0  0  0
   50.3955   30.6439   51.0542 C   0  0  0  0  0  0  0  0  0  0  0  0
   50.4236   29.1308   51.0573 C   0  0  0  0  0  0  0  0  0  0  0  0
   50.7758   28.6291   49.6651 C   0  0  0  0  0  0  0  0  0  0  0  0
   49.6843   29.0406   48.6962 C   0  0  0  0  0  0  0  0  0  0  0  0
   46.1514   33.8722   44.5096 C   0  0  0  0  0  0  0  0  0  0  0  0
   46.5376   33.2055   45.5764 C   0  0  0  0  0  0  0  0  0  0  0  0
   47.0947   34.0328   43.4093 C   0  0  0  0  0  0  0  0  0  0  0  0
   46.8962   34.9968   42.3985 C   0  0  0  0  0  0  0  0  0  0  0  0
   47.8536   35.0700   41.3938 C   0  0  0  0  0  0  0  0  0  0  0  0
   48.9226   34.2339   41.4147 N   0  0  0  0  0  0  0  0  0  0  0  0
   49.0872   33.3215   42.3935 C   0  0  0  0  0  0  0  0  0  0  0  0
   48.1935   33.2231   43.3687 N   0  0  0  0  0  0  0  0  0  0  0  0
   45.5034   33.9713   47.2291 H   0  0  0  0  0  0  0  0  0  0  0  0
   44.7090   32.5140   46.5354 H   0  0  0  0  0  0  0  0  0  0  0  0
   44.9488   32.0711   49.4181 H   0  0  0  0  0  0  0  0  0  0  0  0
   46.8423   30.6935   50.5724 H   0  0  0  0  0  0  0  0  0  0  0  0
   51.2640   31.0014   49.1143 H   0  0  0  0  0  0  0  0  0  0  0  0
   50.0052   32.2187   49.6821 H   0  0  0  0  0  0  0  0  0  0  0  0
   51.3085   31.0050   51.5753 H   0  0  0  0  0  0  0  0  0  0  0  0
   49.5095   31.0042   51.6404 H   0  0  0  0  0  0  0  0  0  0  0  0
   49.4139   28.7470   51.2887 H   0  0  0  0  0  0  0  0  0  0  0  0
   51.1101   28.7413   51.8111 H   0  0  0  0  0  0  0  0  0  0  0  0
   50.7450   27.5063   49.7372 H   0  0  0  0  0  0  0  0  0  0  0  0
   51.7778   28.9801   49.3376 H   0  0  0  0  0  0  0  0  0  0  0  0
   50.1367   29.0617   47.6837 H   0  0  0  0  0  0  0  0  0  0  0  0
   48.8773   28.2786   48.6716 H   0  0  0  0  0  0  0  0  0  0  0  0
   45.1549   34.2893   44.4565 H   0  0  0  0  0  0  0  0  0  0  0  0
   47.5594   32.7964   45.5920 H   0  0  0  0  0  0  0  0  0  0  0  0
   46.0289   35.6078   42.4655 H   0  0  0  0  0  0  0  0  0  0  0  0
   47.6693   35.8199   40.6361 H   0  0  0  0  0  0  0  0  0  0  0  0
   50.2843   32.5363   42.2287 C   0  0  0  0  0  0  0  0  0  0  0  0
   51.5153   32.8910   41.8087 C   0  0  0  0  0  0  0  0  0  0  0  0
   51.6973   33.9215   41.5360 H   0  0  0  0  0  0  0  0  0  0  0  0
   52.5081   31.9429   41.7360 C   0  0  0  0  0  0  0  0  0  0  0  0
   52.1524   30.6421   42.1156 C   0  0  0  0  0  0  0  0  0  0  0  0
   50.3896   30.7822   42.5773 S   0  0  0  0  0  0  0  0  0  0  0  0
   53.5239   32.1251   41.4134 H   0  0  0  0  0  0  0  0  0  0  0  0
   52.7686   29.7698   42.1316 H   0  0  0  0  0  0  0  0  0  0  0  0
  1  2  1  0
  2  3  2  0
  3  4  1  0
  5  7  1  0
  5  4  1  0
  6  2  1  0
  6  5  2  0
  7  8  1  0
  8  9  1  0
  9 10  1  0
 11 10  1  0
 12  7  1  0
 12 11  1  0
 13 14  2  0
 14  1  1  0
 15 13  1  0
 16 15  2  0
 17 18  2  0
 17 16  1  0
 18 19  1  0
 19 20  2  0
 20 15  1  0
  1 21  1  0
  1 22  1  0
  3 23  1  0
  4 24  1  0
  8 25  1  0
  8 26  1  0
  9 27  1  0
  9 28  1  0
 10 29  1  0
 10 30  1  0
 11 31  1  0
 11 32  1  0
 12 33  1  0
 12 34  1  0
 13 35  1  0
 14 36  1  0
 16 37  1  0
 17 38  1  0
 39 40  2  0
 40 41  1  0
 40 42  1  0
 42 43  2  0
 43 44  1  0
 44 39  1  0
 42 45  1  0
 43 46  1  0
 19 39  1  0
M  ISO  8  21   8  22   8  23  14  24   9  25  13  26  13  27  13  28  13
M  ISO  8  29  13  30  13  31  13  32  13  33  13  34  13  37  14  38  14
M  ISO  1  41  15
M  END
>  <DihAtoms>  (1) 
17,18,38,39

>  <DihDeg>  (1) 
-81.08048667051943

$$$$
