
 OpenBabel03242514143D

 31 33  0  0  0  0  0  0  0  0999 V2000
   37.3250   29.0510   41.8710 C   0  0  0  0  0  0  0  0  0  0  0  0
   38.7470   28.8790   41.9290 C   0  0  0  0  0  0  0  0  0  0  0  0
   39.1480   27.4420   42.1410 C   0  0  0  0  0  0  0  0  0  0  0  0
   38.6360   26.9950   43.5000 C   0  0  0  0  0  0  0  0  0  0  0  0
   37.1800   27.2980   43.6800 C   0  0  0  0  0  0  0  0  0  0  0  0
   36.5620   27.8200   42.4080 C   0  0  0  0  0  0  0  0  0  0  0  0
   36.9160   29.8420   42.5270 H   0  0  0  0  0  0  0  0  0  0  0  0
   39.0350   29.2810   42.9730 H   0  0  0  0  0  0  0  0  0  0  0  0
   39.4120   29.5190   41.3620 H   0  0  0  0  0  0  0  0  0  0  0  0
   40.2570   27.3980   42.1810 H   0  0  0  0  0  0  0  0  0  0  0  0
   38.6930   26.6770   41.5250 H   0  0  0  0  0  0  0  0  0  0  0  0
   39.2620   27.4600   44.2930 H   0  0  0  0  0  0  0  0  0  0  0  0
   38.7870   25.9000   43.6390 H   0  0  0  0  0  0  0  0  0  0  0  0
   37.1230   28.1640   44.4030 H   0  0  0  0  0  0  0  0  0  0  0  0
   36.5630   26.4880   44.0590 H   0  0  0  0  0  0  0  0  0  0  0  0
   35.5330   28.1180   42.5750 H   0  0  0  0  0  0  0  0  0  0  0  0
   36.5980   27.0540   41.5920 H   0  0  0  0  0  0  0  0  0  0  0  0
   36.7860   29.3810   40.5360 C   0  0  0  0  0  0  0  0  0  0  0  0
   37.3140   30.5030   39.9270 C   0  0  0  0  0  0  0  0  0  0  0  0
   36.8350   30.6610   38.6320 C   0  0  0  0  0  0  0  0  0  0  0  0
   35.9450   29.8040   38.0560 N   0  0  0  0  0  0  0  0  0  0  0  0
   35.4630   28.7460   38.6890 C   0  0  0  0  0  0  0  0  0  0  0  0
   35.8970   28.5560   39.9190 N   0  0  0  0  0  0  0  0  0  0  0  0
   37.0380   31.4130   37.8780 H   0  0  0  0  0  0  0  0  0  0  0  0
   34.7690   28.0080   38.3650 H   0  0  0  0  0  0  0  0  0  0  0  0
   37.9910   31.6810   40.1870 C   0  0  0  0  0  0  0  0  0  0  0  0
   37.3270   32.9520   39.7880 C   0  0  0  0  0  0  0  0  0  0  0  0
   36.3290   33.0540   39.3880 H   0  0  0  0  0  0  0  0  0  0  0  0
   38.0260   34.0930   39.9350 C   0  0  0  0  0  3  0  0  0  0  0  0
   39.3440   34.1610   40.4420 C   0  0  0  0  0  3  0  0  0  0  0  0
   39.6330   32.3310   40.7590 S   0  0  0  0  0  0  0  0  0  0  0  0
  1  2  1  0  0  0  0
  1  6  1  0  0  0  0
  1  7  1  0  0  0  0
  2  3  1  0  0  0  0
  2  8  1  0  0  0  0
  3 10  1  0  0  0  0
  3  4  1  0  0  0  0
  4 13  1  0  0  0  0
  4  5  1  0  0  0  0
  4 12  1  0  0  0  0
  5 15  1  0  0  0  0
  5 14  1  0  0  0  0
  6 16  1  0  0  0  0
  6  5  1  0  0  0  0
  9  2  1  0  0  0  0
 11  3  1  0  0  0  0
 17  6  1  0  0  0  0
 18  1  1  0  0  0  0
 19 26  1  0  0  0  0
 19 18  1  0  0  0  0
 20 19  2  0  0  0  0
 21 20  1  0  0  0  0
 21 22  2  0  0  0  0
 22 23  1  0  0  0  0
 23 18  2  0  0  0  0
 24 20  1  0  0  0  0
 25 22  1  0  0  0  0
 26 31  1  0  0  0  0
 27 29  1  0  0  0  0
 27 26  2  0  0  0  0
 28 27  1  0  0  0  0
 29 30  2  0  0  0  0
 30 31  1  0  0  0  0
M  END
>  <minimizedAffinity>
-4.9095974

$$$$

 OpenBabel03242514143D

 31 33  0  0  0  0  0  0  0  0999 V2000
   38.0000   30.8570   40.2520 C   0  0  0  0  0  0  0  0  0  0  0  0
   39.3220   31.3670   40.4700 C   0  0  0  0  0  0  0  0  0  0  0  0
   39.3180   32.7610   41.0400 C   0  0  0  0  0  0  0  0  0  0  0  0
   38.6910   33.6970   40.0210 C   0  0  0  0  0  0  0  0  0  0  0  0
   37.3700   33.1900   39.5290 C   0  0  0  0  0  0  0  0  0  0  0  0
   36.9270   31.9680   40.2910 C   0  0  0  0  0  0  0  0  0  0  0  0
   37.8130   30.4350   39.2460 H   0  0  0  0  0  0  0  0  0  0  0  0
   39.6980   31.6290   39.4100 H   0  0  0  0  0  0  0  0  0  0  0  0
   40.1400   30.7070   40.7320 H   0  0  0  0  0  0  0  0  0  0  0  0
   40.3730   33.0810   41.1710 H   0  0  0  0  0  0  0  0  0  0  0  0
   38.6780   32.9760   41.8870 H   0  0  0  0  0  0  0  0  0  0  0  0
   39.4130   33.8600   39.1900 H   0  0  0  0  0  0  0  0  0  0  0  0
   38.5400   34.7120   40.4550 H   0  0  0  0  0  0  0  0  0  0  0  0
   37.5430   32.8240   38.4740 H   0  0  0  0  0  0  0  0  0  0  0  0
   36.5540   33.9080   39.5180 H   0  0  0  0  0  0  0  0  0  0  0  0
   36.0160   31.5610   39.8690 H   0  0  0  0  0  0  0  0  0  0  0  0
   36.7620   32.2000   41.3740 H   0  0  0  0  0  0  0  0  0  0  0  0
   37.5820   29.7800   41.1720 C   0  0  0  0  0  0  0  0  0  0  0  0
   36.8610   28.7440   40.6110 C   0  0  0  0  0  0  0  0  0  0  0  0
   36.6200   27.7260   41.5260 C   0  0  0  0  0  0  0  0  0  0  0  0
   37.0470   27.7710   42.8190 N   0  0  0  0  0  0  0  0  0  0  0  0
   37.7290   28.7940   43.3110 C   0  0  0  0  0  0  0  0  0  0  0  0
   37.9840   29.7780   42.4730 N   0  0  0  0  0  0  0  0  0  0  0  0
   36.1000   26.7800   41.4270 H   0  0  0  0  0  0  0  0  0  0  0  0
   38.1130   28.9580   44.2890 H   0  0  0  0  0  0  0  0  0  0  0  0
   36.0810   28.4130   39.5170 C   0  0  0  0  0  0  0  0  0  0  0  0
   34.7940   29.1430   39.3510 C   0  0  0  0  0  0  0  0  0  0  0  0
   34.4430   29.9670   39.9540 H   0  0  0  0  0  0  0  0  0  0  0  0
   33.9790   28.7490   38.3550 C   0  0  0  0  0  3  0  0  0  0  0  0
   34.2650   27.6910   37.4610 C   0  0  0  0  0  3  0  0  0  0  0  0
   35.9440   27.1820   38.1350 S   0  0  0  0  0  0  0  0  0  0  0  0
  1  6  1  0  0  0  0
  1  2  1  0  0  0  0
  1 18  1  0  0  0  0
  2  9  1  0  0  0  0
  2  3  1  0  0  0  0
  3 10  1  0  0  0  0
  3 11  1  0  0  0  0
  4 13  1  0  0  0  0
  4  3  1  0  0  0  0
  5  4  1  0  0  0  0
  5  6  1  0  0  0  0
  6 17  1  0  0  0  0
  7  1  1  0  0  0  0
  8  2  1  0  0  0  0
 12  4  1  0  0  0  0
 14  5  1  0  0  0  0
 15  5  1  0  0  0  0
 16  6  1  0  0  0  0
 18 23  1  0  0  0  0
 19 18  2  0  0  0  0
 19 20  1  0  0  0  0
 20 21  2  0  0  0  0
 21 22  1  0  0  0  0
 22 25  1  0  0  0  0
 23 22  2  0  0  0  0
 24 20  1  0  0  0  0
 26 19  1  0  0  0  0
 27 26  2  0  0  0  0
 27 28  1  0  0  0  0
 29 27  1  0  0  0  0
 30 31  1  0  0  0  0
 30 29  2  0  0  0  0
 31 26  1  0  0  0  0
M  END
>  <minimizedAffinity>
-4.8037281

$$$$

 OpenBabel03242514143D

 31 33  0  0  0  0  0  0  0  0999 V2000
   37.2160   26.0600   41.6010 C   0  0  0  0  0  0  0  0  0  0  0  0
   36.8680   24.7490   42.0640 C   0  0  0  0  0  0  0  0  0  0  0  0
   37.1170   23.6840   41.0290 C   0  0  0  0  0  0  0  0  0  0  0  0
   36.2060   23.9440   39.8410 C   0  0  0  0  0  0  0  0  0  0  0  0
   36.3030   25.3580   39.3570 C   0  0  0  0  0  0  0  0  0  0  0  0
   37.3960   26.1130   40.0670 C   0  0  0  0  0  0  0  0  0  0  0  0
   36.4390   26.8350   41.7370 H   0  0  0  0  0  0  0  0  0  0  0  0
   35.7130   24.7390   42.0300 H   0  0  0  0  0  0  0  0  0  0  0  0
   36.9620   24.4820   43.1100 H   0  0  0  0  0  0  0  0  0  0  0  0
   36.8160   22.7070   41.4630 H   0  0  0  0  0  0  0  0  0  0  0  0
   38.0700   23.6690   40.5150 H   0  0  0  0  0  0  0  0  0  0  0  0
   35.1650   23.6650   40.1180 H   0  0  0  0  0  0  0  0  0  0  0  0
   36.4560   23.2630   38.9950 H   0  0  0  0  0  0  0  0  0  0  0  0
   35.3470   25.8690   39.6760 H   0  0  0  0  0  0  0  0  0  0  0  0
   36.4260   25.4910   38.2850 H   0  0  0  0  0  0  0  0  0  0  0  0
   37.3970   27.1550   39.7710 H   0  0  0  0  0  0  0  0  0  0  0  0
   38.4020   25.6680   39.8580 H   0  0  0  0  0  0  0  0  0  0  0  0
   38.4180   26.6490   42.2260 C   0  0  0  0  0  0  0  0  0  0  0  0
   38.5440   28.0210   42.1320 C   0  0  0  0  0  0  0  0  0  0  0  0
   39.6370   28.4910   42.8510 C   0  0  0  0  0  0  0  0  0  0  0  0
   40.4740   27.6750   43.5500 N   0  0  0  0  0  0  0  0  0  0  0  0
   40.3140   26.3620   43.6010 C   0  0  0  0  0  0  0  0  0  0  0  0
   39.2850   25.8760   42.9370 N   0  0  0  0  0  0  0  0  0  0  0  0
   40.0210   29.4930   42.9990 H   0  0  0  0  0  0  0  0  0  0  0  0
   40.8890   25.6170   44.0980 H   0  0  0  0  0  0  0  0  0  0  0  0
   38.1150   29.1180   41.4060 C   0  0  0  0  0  0  0  0  0  0  0  0
   36.8310   29.7500   41.8190 C   0  0  0  0  0  0  0  0  0  0  0  0
   36.2380   29.4880   42.6820 H   0  0  0  0  0  0  0  0  0  0  0  0
   36.3520   30.7460   41.0510 C   0  0  0  0  0  3  0  0  0  0  0  0
   36.9870   31.2280   39.8830 C   0  0  0  0  0  3  0  0  0  0  0  0
   38.4900   30.1000   39.8760 S   0  0  0  0  0  0  0  0  0  0  0  0
  1  7  1  0  0  0  0
  1  2  1  0  0  0  0
  1 18  1  0  0  0  0
  2  9  1  0  0  0  0
  3 10  1  0  0  0  0
  3  2  1  0  0  0  0
  4 12  1  0  0  0  0
  4  3  1  0  0  0  0
  5 14  1  0  0  0  0
  5  4  1  0  0  0  0
  5  6  1  0  0  0  0
  6  1  1  0  0  0  0
  8  2  1  0  0  0  0
 11  3  1  0  0  0  0
 13  4  1  0  0  0  0
 15  5  1  0  0  0  0
 16  6  1  0  0  0  0
 17  6  1  0  0  0  0
 18 23  1  0  0  0  0
 19 18  2  0  0  0  0
 19 20  1  0  0  0  0
 20 24  1  0  0  0  0
 20 21  2  0  0  0  0
 21 22  1  0  0  0  0
 22 25  1  0  0  0  0
 23 22  2  0  0  0  0
 26 27  2  0  0  0  0
 26 19  1  0  0  0  0
 27 28  1  0  0  0  0
 29 27  1  0  0  0  0
 30 29  2  0  0  0  0
 31 30  1  0  0  0  0
 31 26  1  0  0  0  0
M  END
>  <minimizedAffinity>
-4.80203581

$$$$

 OpenBabel03242514143D

 31 33  0  0  0  0  0  0  0  0999 V2000
   38.0900   29.0400   41.2890 C   0  0  0  0  0  0  0  0  0  0  0  0
   37.0550   28.6980   42.2210 C   0  0  0  0  0  0  0  0  0  0  0  0
   37.5700   28.5500   43.6290 C   0  0  0  0  0  0  0  0  0  0  0  0
   38.5430   27.3840   43.6660 C   0  0  0  0  0  0  0  0  0  0  0  0
   39.5880   27.4890   42.5980 C   0  0  0  0  0  0  0  0  0  0  0  0
   39.5030   28.8040   41.8660 C   0  0  0  0  0  0  0  0  0  0  0  0
   38.1380   28.4110   40.3810 H   0  0  0  0  0  0  0  0  0  0  0  0
   36.8460   27.5820   42.0090 H   0  0  0  0  0  0  0  0  0  0  0  0
   36.0380   29.0430   42.0790 H   0  0  0  0  0  0  0  0  0  0  0  0
   36.7130   28.2800   44.2810 H   0  0  0  0  0  0  0  0  0  0  0  0
   38.2120   29.3220   44.0330 H   0  0  0  0  0  0  0  0  0  0  0  0
   37.9690   26.4330   43.5990 H   0  0  0  0  0  0  0  0  0  0  0  0
   39.0540   27.3260   44.6540 H   0  0  0  0  0  0  0  0  0  0  0  0
   39.3270   26.7110   41.8200 H   0  0  0  0  0  0  0  0  0  0  0  0
   40.6160   27.3320   42.9140 H   0  0  0  0  0  0  0  0  0  0  0  0
   40.2040   28.8310   41.0420 H   0  0  0  0  0  0  0  0  0  0  0  0
   39.7040   29.6660   42.5530 H   0  0  0  0  0  0  0  0  0  0  0  0
   38.0310   30.4190   40.7630 C   0  0  0  0  0  0  0  0  0  0  0  0
   37.0860   30.6580   39.7850 C   0  0  0  0  0  0  0  0  0  0  0  0
   37.0250   32.0040   39.4430 C   0  0  0  0  0  0  0  0  0  0  0  0
   37.8190   32.9540   40.0130 N   0  0  0  0  0  0  0  0  0  0  0  0
   38.7170   32.6700   40.9430 C   0  0  0  0  0  0  0  0  0  0  0  0
   38.8030   31.4040   41.3000 N   0  0  0  0  0  0  0  0  0  0  0  0
   36.4050   32.5370   38.7310 H   0  0  0  0  0  0  0  0  0  0  0  0
   39.3960   33.3040   41.4600 H   0  0  0  0  0  0  0  0  0  0  0  0
   36.3010   30.0290   38.8350 C   0  0  0  0  0  0  0  0  0  0  0  0
   35.0160   29.4370   39.2970 C   0  0  0  0  0  0  0  0  0  0  0  0
   34.5920   29.5200   40.2860 H   0  0  0  0  0  0  0  0  0  0  0  0
   34.3010   28.7260   38.4040 C   0  0  0  0  0  3  0  0  0  0  0  0
   34.6920   28.5080   37.0620 C   0  0  0  0  0  3  0  0  0  0  0  0
   36.3160   29.4550   37.0700 S   0  0  0  0  0  0  0  0  0  0  0  0
  1  6  1  0  0  0  0
  1  2  1  0  0  0  0
  2  3  1  0  0  0  0
  3  4  1  0  0  0  0
  3 11  1  0  0  0  0
  3 10  1  0  0  0  0
  4 13  1  0  0  0  0
  5 15  1  0  0  0  0
  5  4  1  0  0  0  0
  6 17  1  0  0  0  0
  6  5  1  0  0  0  0
  7  1  1  0  0  0  0
  8  2  1  0  0  0  0
  9  2  1  0  0  0  0
 12  4  1  0  0  0  0
 14  5  1  0  0  0  0
 16  6  1  0  0  0  0
 18  1  1  0  0  0  0
 18 23  1  0  0  0  0
 19 18  2  0  0  0  0
 20 19  1  0  0  0  0
 20 21  2  0  0  0  0
 21 22  1  0  0  0  0
 22 23  2  0  0  0  0
 22 25  1  0  0  0  0
 24 20  1  0  0  0  0
 26 27  2  0  0  0  0
 26 19  1  0  0  0  0
 27 28  1  0  0  0  0
 29 27  1  0  0  0  0
 30 31  1  0  0  0  0
 30 29  2  0  0  0  0
 31 26  1  0  0  0  0
M  END
>  <minimizedAffinity>
-4.77088213

$$$$

 OpenBabel03242514143D

 31 33  0  0  0  0  0  0  0  0999 V2000
   36.8750   31.2170   39.8380 C   0  0  0  0  0  0  0  0  0  0  0  0
   35.9440   30.7600   40.8280 C   0  0  0  0  0  0  0  0  0  0  0  0
   35.6730   29.2810   40.7290 C   0  0  0  0  0  0  0  0  0  0  0  0
   35.0060   29.0010   39.3930 C   0  0  0  0  0  0  0  0  0  0  0  0
   35.7640   29.6020   38.2490 C   0  0  0  0  0  0  0  0  0  0  0  0
   37.0760   30.1900   38.7010 C   0  0  0  0  0  0  0  0  0  0  0  0
   36.5530   32.1000   39.2540 H   0  0  0  0  0  0  0  0  0  0  0  0
   34.9210   31.1350   40.4430 H   0  0  0  0  0  0  0  0  0  0  0  0
   35.8890   31.2280   41.8030 H   0  0  0  0  0  0  0  0  0  0  0  0
   34.9420   29.0130   41.5210 H   0  0  0  0  0  0  0  0  0  0  0  0
   36.5120   28.6020   40.6480 H   0  0  0  0  0  0  0  0  0  0  0  0
   33.9540   29.3590   39.4340 H   0  0  0  0  0  0  0  0  0  0  0  0
   34.9160   27.9040   39.2180 H   0  0  0  0  0  0  0  0  0  0  0  0
   35.1580   30.4900   37.8980 H   0  0  0  0  0  0  0  0  0  0  0  0
   35.9490   28.9510   37.3990 H   0  0  0  0  0  0  0  0  0  0  0  0
   37.5720   30.6970   37.8830 H   0  0  0  0  0  0  0  0  0  0  0  0
   37.7560   29.4010   39.1140 H   0  0  0  0  0  0  0  0  0  0  0  0
   38.2050   31.5980   40.3550 C   0  0  0  0  0  0  0  0  0  0  0  0
   38.9790   30.5710   40.8600 C   0  0  0  0  0  0  0  0  0  0  0  0
   40.2520   31.0070   41.2080 C   0  0  0  0  0  0  0  0  0  0  0  0
   40.6620   32.2990   41.0670 N   0  0  0  0  0  0  0  0  0  0  0  0
   39.8760   33.2480   40.5830 C   0  0  0  0  0  0  0  0  0  0  0  0
   38.6610   32.8750   40.2350 N   0  0  0  0  0  0  0  0  0  0  0  0
   41.1030   30.4790   41.6220 H   0  0  0  0  0  0  0  0  0  0  0  0
   40.0640   34.2830   40.4260 H   0  0  0  0  0  0  0  0  0  0  0  0
   38.9070   29.2860   41.3660 C   0  0  0  0  0  0  0  0  0  0  0  0
   38.7250   29.1410   42.8370 C   0  0  0  0  0  0  0  0  0  0  0  0
   38.5600   29.9410   43.5430 H   0  0  0  0  0  0  0  0  0  0  0  0
   38.7670   27.8970   43.3500 C   0  0  0  0  0  3  0  0  0  0  0  0
   38.9710   26.7250   42.5850 C   0  0  0  0  0  3  0  0  0  0  0  0
   39.1250   27.5070   40.8830 S   0  0  0  0  0  0  0  0  0  0  0  0
  1 18  1  0  0  0  0
  1  2  1  0  0  0  0
  2  9  1  0  0  0  0
  3  2  1  0  0  0  0
  3 10  1  0  0  0  0
  4 12  1  0  0  0  0
  4  3  1  0  0  0  0
  5  6  1  0  0  0  0
  5  4  1  0  0  0  0
  6 17  1  0  0  0  0
  6  1  1  0  0  0  0
  7  1  1  0  0  0  0
  8  2  1  0  0  0  0
 11  3  1  0  0  0  0
 13  4  1  0  0  0  0
 14  5  1  0  0  0  0
 15  5  1  0  0  0  0
 16  6  1  0  0  0  0
 18 19  1  0  0  0  0
 19 20  2  0  0  0  0
 19 26  1  0  0  0  0
 20 24  1  0  0  0  0
 21 20  1  0  0  0  0
 22 21  2  0  0  0  0
 23 18  2  0  0  0  0
 23 22  1  0  0  0  0
 25 22  1  0  0  0  0
 26 27  2  0  0  0  0
 27 29  1  0  0  0  0
 27 28  1  0  0  0  0
 30 29  2  0  0  0  0
 31 26  1  0  0  0  0
 31 30  1  0  0  0  0
M  END
>  <minimizedAffinity>
-4.68569183

$$$$

 OpenBabel03242514143D

 31 33  0  0  0  0  0  0  0  0999 V2000
   37.5610   26.4960   42.3350 C   0  0  0  0  0  0  0  0  0  0  0  0
   36.6950   27.5110   42.8610 C   0  0  0  0  0  0  0  0  0  0  0  0
   37.1730   28.9030   42.5390 C   0  0  0  0  0  0  0  0  0  0  0  0
   38.5110   29.1240   43.2240 C   0  0  0  0  0  0  0  0  0  0  0  0
   39.4800   28.0190   42.9350 C   0  0  0  0  0  0  0  0  0  0  0  0
   38.9360   27.0580   41.9100 C   0  0  0  0  0  0  0  0  0  0  0  0
   37.8770   25.7210   43.0580 H   0  0  0  0  0  0  0  0  0  0  0  0
   36.9290   27.5190   43.9920 H   0  0  0  0  0  0  0  0  0  0  0  0
   35.6290   27.3420   42.9560 H   0  0  0  0  0  0  0  0  0  0  0  0
   36.4550   29.6230   42.9850 H   0  0  0  0  0  0  0  0  0  0  0  0
   37.4610   29.1330   41.5210 H   0  0  0  0  0  0  0  0  0  0  0  0
   38.3390   29.2560   44.3150 H   0  0  0  0  0  0  0  0  0  0  0  0
   38.9670   30.0870   42.9000 H   0  0  0  0  0  0  0  0  0  0  0  0
   39.5610   27.4110   43.8840 H   0  0  0  0  0  0  0  0  0  0  0  0
   40.4780   28.3230   42.6310 H   0  0  0  0  0  0  0  0  0  0  0  0
   39.6070   26.2190   41.7750 H   0  0  0  0  0  0  0  0  0  0  0  0
   38.7710   27.5630   40.9240 H   0  0  0  0  0  0  0  0  0  0  0  0
   37.0090   25.7240   41.2030 C   0  0  0  0  0  0  0  0  0  0  0  0
   36.9390   26.3840   39.9920 C   0  0  0  0  0  0  0  0  0  0  0  0
   36.5230   25.5420   38.9680 C   0  0  0  0  0  0  0  0  0  0  0  0
   36.2180   24.2280   39.1600 N   0  0  0  0  0  0  0  0  0  0  0  0
   36.2950   23.6440   40.3470 C   0  0  0  0  0  0  0  0  0  0  0  0
   36.6920   24.4070   41.3450 N   0  0  0  0  0  0  0  0  0  0  0  0
   36.3660   25.7210   37.9100 H   0  0  0  0  0  0  0  0  0  0  0  0
   36.0850   22.6420   40.6350 H   0  0  0  0  0  0  0  0  0  0  0  0
   36.9180   27.6470   39.4270 C   0  0  0  0  0  0  0  0  0  0  0  0
   35.5840   28.2660   39.1920 C   0  0  0  0  0  0  0  0  0  0  0  0
   34.6290   27.8630   39.4930 H   0  0  0  0  0  0  0  0  0  0  0  0
   35.5510   29.4440   38.5400 C   0  0  0  0  0  3  0  0  0  0  0  0
   36.6960   30.1270   38.0690 C   0  0  0  0  0  3  0  0  0  0  0  0
   38.0170   28.9160   38.6370 S   0  0  0  0  0  0  0  0  0  0  0  0
  1  2  1  0  0  0  0
  1  7  1  0  0  0  0
  2  9  1  0  0  0  0
  2  8  1  0  0  0  0
  3  2  1  0  0  0  0
  3 10  1  0  0  0  0
  3  4  1  0  0  0  0
  4 12  1  0  0  0  0
  5  4  1  0  0  0  0
  5 14  1  0  0  0  0
  6  1  1  0  0  0  0
  6  5  1  0  0  0  0
 11  3  1  0  0  0  0
 13  4  1  0  0  0  0
 15  5  1  0  0  0  0
 16  6  1  0  0  0  0
 17  6  1  0  0  0  0
 18 23  1  0  0  0  0
 18  1  1  0  0  0  0
 19 18  2  0  0  0  0
 20 21  2  0  0  0  0
 20 19  1  0  0  0  0
 21 22  1  0  0  0  0
 22 25  1  0  0  0  0
 22 23  2  0  0  0  0
 24 20  1  0  0  0  0
 26 19  1  0  0  0  0
 27 26  2  0  0  0  0
 27 28  1  0  0  0  0
 29 27  1  0  0  0  0
 30 29  2  0  0  0  0
 30 31  1  0  0  0  0
 31 26  1  0  0  0  0
M  END
>  <minimizedAffinity>
-4.59627676

$$$$

 OpenBabel03242514143D

 31 33  0  0  0  0  0  0  0  0999 V2000
   36.5760   29.2220   38.5820 C   0  0  0  0  0  0  0  0  0  0  0  0
   37.0100   29.1580   37.2170 C   0  0  0  0  0  0  0  0  0  0  0  0
   35.8850   29.3820   36.2410 C   0  0  0  0  0  0  0  0  0  0  0  0
   34.8810   28.2520   36.3950 C   0  0  0  0  0  0  0  0  0  0  0  0
   34.4740   28.0510   37.8220 C   0  0  0  0  0  0  0  0  0  0  0  0
   35.0400   29.1250   38.7160 C   0  0  0  0  0  0  0  0  0  0  0  0
   36.8860   28.3720   39.2190 H   0  0  0  0  0  0  0  0  0  0  0  0
   37.1650   28.0290   37.0260 H   0  0  0  0  0  0  0  0  0  0  0  0
   38.0070   29.4700   36.9320 H   0  0  0  0  0  0  0  0  0  0  0  0
   36.3020   29.3100   35.2150 H   0  0  0  0  0  0  0  0  0  0  0  0
   35.2210   30.2240   36.3950 H   0  0  0  0  0  0  0  0  0  0  0  0
   35.3070   27.3280   35.9460 H   0  0  0  0  0  0  0  0  0  0  0  0
   33.9650   28.4520   35.7920 H   0  0  0  0  0  0  0  0  0  0  0  0
   34.9770   27.0990   38.1650 H   0  0  0  0  0  0  0  0  0  0  0  0
   33.4070   27.9680   38.0110 H   0  0  0  0  0  0  0  0  0  0  0  0
   34.8120   28.9190   39.7550 H   0  0  0  0  0  0  0  0  0  0  0  0
   34.6420   30.1350   38.4420 H   0  0  0  0  0  0  0  0  0  0  0  0
   37.0300   30.4110   39.3310 C   0  0  0  0  0  0  0  0  0  0  0  0
   37.7250   30.1670   40.4990 C   0  0  0  0  0  0  0  0  0  0  0  0
   38.2130   31.3400   41.0650 C   0  0  0  0  0  0  0  0  0  0  0  0
   38.0090   32.5710   40.5190 N   0  0  0  0  0  0  0  0  0  0  0  0
   37.3270   32.7510   39.3990 C   0  0  0  0  0  0  0  0  0  0  0  0
   36.8520   31.6640   38.8260 N   0  0  0  0  0  0  0  0  0  0  0  0
   38.7950   31.5150   41.9620 H   0  0  0  0  0  0  0  0  0  0  0  0
   37.0920   33.6450   38.8730 H   0  0  0  0  0  0  0  0  0  0  0  0
   37.9500   29.2020   41.4640 C   0  0  0  0  0  0  0  0  0  0  0  0
   36.7560   28.5560   42.0750 C   0  0  0  0  0  0  0  0  0  0  0  0
   35.7270   28.7060   41.7820 H   0  0  0  0  0  0  0  0  0  0  0  0
   36.9630   27.6990   43.0920 C   0  0  0  0  0  3  0  0  0  0  0  0
   38.2360   27.3740   43.6140 C   0  0  0  0  0  3  0  0  0  0  0  0
   39.2980   28.4450   42.4920 S   0  0  0  0  0  0  0  0  0  0  0  0
  1  6  1  0  0  0  0
  1  7  1  0  0  0  0
  1 18  1  0  0  0  0
  2  1  1  0  0  0  0
  3  4  1  0  0  0  0
  3 11  1  0  0  0  0
  3  2  1  0  0  0  0
  4  5  1  0  0  0  0
  5 15  1  0  0  0  0
  5 14  1  0  0  0  0
  5  6  1  0  0  0  0
  6 16  1  0  0  0  0
  8  2  1  0  0  0  0
  9  2  1  0  0  0  0
 10  3  1  0  0  0  0
 12  4  1  0  0  0  0
 13  4  1  0  0  0  0
 17  6  1  0  0  0  0
 18 19  1  0  0  0  0
 19 20  2  0  0  0  0
 19 26  1  0  0  0  0
 20 24  1  0  0  0  0
 21 20  1  0  0  0  0
 22 21  2  0  0  0  0
 23 18  2  0  0  0  0
 23 22  1  0  0  0  0
 25 22  1  0  0  0  0
 26 27  2  0  0  0  0
 26 31  1  0  0  0  0
 27 29  1  0  0  0  0
 28 27  1  0  0  0  0
 29 30  2  0  0  0  0
 31 30  1  0  0  0  0
M  END
>  <minimizedAffinity>
-4.53880882

$$$$

 OpenBabel03242514143D

 31 33  0  0  0  0  0  0  0  0999 V2000
   37.7490   29.0550   39.8220 C   0  0  0  0  0  0  0  0  0  0  0  0
   38.7050   30.1170   39.7000 C   0  0  0  0  0  0  0  0  0  0  0  0
   38.0580   31.4510   39.4320 C   0  0  0  0  0  0  0  0  0  0  0  0
   37.3590   31.3850   38.0850 C   0  0  0  0  0  0  0  0  0  0  0  0
   36.4610   30.1920   37.9740 C   0  0  0  0  0  0  0  0  0  0  0  0
   36.3570   29.4530   39.2840 C   0  0  0  0  0  0  0  0  0  0  0  0
   37.9530   28.1600   39.2050 H   0  0  0  0  0  0  0  0  0  0  0  0
   39.1730   29.9540   38.6570 H   0  0  0  0  0  0  0  0  0  0  0  0
   39.6350   30.0990   40.2560 H   0  0  0  0  0  0  0  0  0  0  0  0
   38.8620   32.2110   39.3460 H   0  0  0  0  0  0  0  0  0  0  0  0
   37.2200   31.7560   40.0460 H   0  0  0  0  0  0  0  0  0  0  0  0
   38.1260   31.4090   37.2800 H   0  0  0  0  0  0  0  0  0  0  0  0
   36.7500   32.3020   37.9100 H   0  0  0  0  0  0  0  0  0  0  0  0
   36.9790   29.4680   37.2780 H   0  0  0  0  0  0  0  0  0  0  0  0
   35.4580   30.3770   37.5990 H   0  0  0  0  0  0  0  0  0  0  0  0
   35.7770   28.5460   39.1680 H   0  0  0  0  0  0  0  0  0  0  0  0
   35.8910   30.0920   40.0770 H   0  0  0  0  0  0  0  0  0  0  0  0
   37.5790   28.5160   41.1860 C   0  0  0  0  0  0  0  0  0  0  0  0
   37.3360   27.1600   41.2790 C   0  0  0  0  0  0  0  0  0  0  0  0
   37.3120   26.7280   42.6000 C   0  0  0  0  0  0  0  0  0  0  0  0
   37.5010   27.5630   43.6600 N   0  0  0  0  0  0  0  0  0  0  0  0
   37.7230   28.8600   43.5160 C   0  0  0  0  0  0  0  0  0  0  0  0
   37.7600   29.3090   42.2780 N   0  0  0  0  0  0  0  0  0  0  0  0
   37.1570   25.7460   43.0320 H   0  0  0  0  0  0  0  0  0  0  0  0
   37.8800   29.6170   44.2470 H   0  0  0  0  0  0  0  0  0  0  0  0
   36.8830   26.0710   40.5550 C   0  0  0  0  0  0  0  0  0  0  0  0
   36.8960   24.7470   41.2360 C   0  0  0  0  0  0  0  0  0  0  0  0
   37.1470   24.5610   42.2700 H   0  0  0  0  0  0  0  0  0  0  0  0
   36.5640   23.6670   40.5040 C   0  0  0  0  0  3  0  0  0  0  0  0
   36.2050   23.7100   39.1370 C   0  0  0  0  0  3  0  0  0  0  0  0
   36.3610   25.5610   38.8490 S   0  0  0  0  0  0  0  0  0  0  0  0
  1 18  1  0  0  0  0
  2  1  1  0  0  0  0
  2  9  1  0  0  0  0
  3  2  1  0  0  0  0
  3 11  1  0  0  0  0
  4  3  1  0  0  0  0
  5  4  1  0  0  0  0
  5  6  1  0  0  0  0
  6  1  1  0  0  0  0
  6 17  1  0  0  0  0
  7  1  1  0  0  0  0
  8  2  1  0  0  0  0
 10  3  1  0  0  0  0
 12  4  1  0  0  0  0
 13  4  1  0  0  0  0
 14  5  1  0  0  0  0
 15  5  1  0  0  0  0
 16  6  1  0  0  0  0
 18 19  2  0  0  0  0
 18 23  1  0  0  0  0
 19 20  1  0  0  0  0
 20 24  1  0  0  0  0
 20 21  2  0  0  0  0
 22 21  1  0  0  0  0
 22 25  1  0  0  0  0
 23 22  2  0  0  0  0
 26 27  2  0  0  0  0
 26 19  1  0  0  0  0
 27 28  1  0  0  0  0
 29 27  1  0  0  0  0
 30 29  2  0  0  0  0
 31 30  1  0  0  0  0
 31 26  1  0  0  0  0
M  END
>  <minimizedAffinity>
-4.50206423

$$$$

 OpenBabel03242514143D

 31 33  0  0  0  0  0  0  0  0999 V2000
   38.9440   29.0460   42.2690 C   0  0  0  0  0  0  0  0  0  0  0  0
   39.4020   30.1300   43.0870 C   0  0  0  0  0  0  0  0  0  0  0  0
   40.6660   30.7580   42.5620 C   0  0  0  0  0  0  0  0  0  0  0  0
   41.7760   29.7220   42.6120 C   0  0  0  0  0  0  0  0  0  0  0  0
   41.3720   28.4320   41.9660 C   0  0  0  0  0  0  0  0  0  0  0  0
   40.0300   28.5480   41.2900 C   0  0  0  0  0  0  0  0  0  0  0  0
   38.7160   28.1070   42.8080 H   0  0  0  0  0  0  0  0  0  0  0  0
   39.8560   29.6090   44.0130 H   0  0  0  0  0  0  0  0  0  0  0  0
   38.7040   30.7570   43.6290 H   0  0  0  0  0  0  0  0  0  0  0  0
   40.9550   31.5780   43.2520 H   0  0  0  0  0  0  0  0  0  0  0  0
   40.7220   31.0180   41.5120 H   0  0  0  0  0  0  0  0  0  0  0  0
   42.0900   29.5810   43.6700 H   0  0  0  0  0  0  0  0  0  0  0  0
   42.6930   30.0990   42.1030 H   0  0  0  0  0  0  0  0  0  0  0  0
   41.2070   27.6940   42.8050 H   0  0  0  0  0  0  0  0  0  0  0  0
   42.0800   28.0040   41.2610 H   0  0  0  0  0  0  0  0  0  0  0  0
   39.7100   27.5880   40.9030 H   0  0  0  0  0  0  0  0  0  0  0  0
   40.0570   29.2940   40.4540 H   0  0  0  0  0  0  0  0  0  0  0  0
   37.7150   29.3190   41.4950 C   0  0  0  0  0  0  0  0  0  0  0  0
   36.9290   28.2230   41.1950 C   0  0  0  0  0  0  0  0  0  0  0  0
   35.7410   28.5940   40.5750 C   0  0  0  0  0  0  0  0  0  0  0  0
   35.4180   29.8880   40.2990 N   0  0  0  0  0  0  0  0  0  0  0  0
   36.2130   30.9030   40.6000 C   0  0  0  0  0  0  0  0  0  0  0  0
   37.3480   30.5950   41.1960 N   0  0  0  0  0  0  0  0  0  0  0  0
   34.9050   28.0050   40.2150 H   0  0  0  0  0  0  0  0  0  0  0  0
   36.0880   31.9470   40.4390 H   0  0  0  0  0  0  0  0  0  0  0  0
   36.9600   26.8450   41.0790 C   0  0  0  0  0  0  0  0  0  0  0  0
   37.0150   26.0550   42.3400 C   0  0  0  0  0  0  0  0  0  0  0  0
   36.9510   26.4480   43.3440 H   0  0  0  0  0  0  0  0  0  0  0  0
   37.1580   24.7210   42.2330 C   0  0  0  0  0  3  0  0  0  0  0  0
   37.2580   24.0250   41.0060 C   0  0  0  0  0  3  0  0  0  0  0  0
   37.1280   25.4840   39.8280 S   0  0  0  0  0  0  0  0  0  0  0  0
  1  7  1  0  0  0  0
  1  2  1  0  0  0  0
  2  9  1  0  0  0  0
  2  8  1  0  0  0  0
  3  4  1  0  0  0  0
  3  2  1  0  0  0  0
  3 10  1  0  0  0  0
  4 12  1  0  0  0  0
  5  4  1  0  0  0  0
  5 14  1  0  0  0  0
  6  5  1  0  0  0  0
  6  1  1  0  0  0  0
 11  3  1  0  0  0  0
 13  4  1  0  0  0  0
 15  5  1  0  0  0  0
 16  6  1  0  0  0  0
 17  6  1  0  0  0  0
 18  1  1  0  0  0  0
 19 18  2  0  0  0  0
 20 19  1  0  0  0  0
 21 20  2  0  0  0  0
 21 22  1  0  0  0  0
 22 23  2  0  0  0  0
 23 18  1  0  0  0  0
 24 20  1  0  0  0  0
 25 22  1  0  0  0  0
 26 19  1  0  0  0  0
 26 27  2  0  0  0  0
 27 28  1  0  0  0  0
 29 27  1  0  0  0  0
 30 29  2  0  0  0  0
 31 30  1  0  0  0  0
 31 26  1  0  0  0  0
M  END
>  <minimizedAffinity>
-4.47820473

$$$$
