
 OpenBabel03252506253D

 42 46  0  0  0  0  0  0  0  0999 V2000
   46.2860   30.2720   48.4520 C   0  0  0  0  0  0  0  0  0  0  0  0
   46.5380   29.8630   49.4760 H   0  0  0  0  0  0  0  0  0  0  0  0
   45.6080   31.1250   48.6560 H   0  0  0  0  0  0  0  0  0  0  0  0
   45.8680   27.8480   47.6840 C   0  0  0  0  0  0  0  0  0  0  0  0
   45.6030   29.2100   47.7310 C   0  0  0  0  0  0  0  0  0  0  0  0
   44.5320   29.6340   46.9770 C   0  0  0  0  0  0  0  0  0  0  0  0
   43.7610   28.7790   46.2190 C   0  0  0  0  0  0  0  0  0  0  0  0
   42.6920   28.9050   45.4160 N   0  0  0  0  0  0  0  0  0  0  0  0
   42.3170   27.7300   44.9110 C   0  0  0  0  0  0  0  0  0  0  0  0
   43.1640   26.7600   45.3860 C   0  0  0  0  0  0  0  0  0  0  0  0
   44.0440   27.4260   46.1870 C   0  0  0  0  0  0  0  0  0  0  0  0
   45.1040   26.9850   46.9290 C   0  0  0  0  0  0  0  0  0  0  0  0
   46.7200   27.6460   48.3090 H   0  0  0  0  0  0  0  0  0  0  0  0
   44.1980   30.6580   46.9080 H   0  0  0  0  0  0  0  0  0  0  0  0
   42.2110   29.8310   45.2160 H   0  0  0  0  0  0  0  0  0  0  0  0
   41.4780   27.6120   44.2410 H   0  0  0  0  0  0  0  0  0  0  0  0
   43.0340   25.7480   45.1030 H   0  0  0  0  0  0  0  0  0  0  0  0
   45.5640   25.6180   47.0280 C   0  0  0  0  0  0  0  0  0  0  0  0
   46.1950   24.8170   46.1960 C   0  0  0  0  0  0  0  0  0  0  0  0
   46.5390   24.9690   45.2030 H   0  0  0  0  0  0  0  0  0  0  0  0
   46.5480   23.5520   46.5010 C   0  0  0  0  0  3  0  0  0  0  0  0
   46.2100   23.0890   47.7880 C   0  0  0  0  0  3  0  0  0  0  0  0
   45.3690   24.6230   48.4580 S   0  0  0  0  0  0  0  0  0  0  0  0
   47.5580   30.7680   47.8730 C   0  0  0  0  0  0  0  0  0  0  0  0
   47.9590   31.5470   48.5700 H   0  0  0  0  0  0  0  0  0  0  0  0
   48.2840   29.9680   47.7600 H   0  0  0  0  0  0  0  0  0  0  0  0
   46.6180   32.9020   45.1590 C   0  0  0  0  0  0  0  0  0  0  0  0
   47.2480   31.8450   44.4870 C   0  0  0  0  0  0  0  0  0  0  0  0
   47.6700   30.9340   45.4000 C   0  0  0  0  0  0  0  0  0  0  0  0
   47.3110   31.4130   46.5940 N   0  0  0  0  0  0  0  0  0  0  0  0
   46.6780   32.5960   46.4640 N   0  0  0  0  0  0  0  0  0  0  0  0
   47.4030   31.7230   43.4170 H   0  0  0  0  0  0  0  0  0  0  0  0
   48.1950   29.9950   45.2380 H   0  0  0  0  0  0  0  0  0  0  0  0
   44.5320   35.8320   44.5490 C   0  0  0  0  0  0  0  0  0  0  0  0
   44.9250   36.2650   43.2950 C   0  0  0  0  0  0  0  0  0  0  0  0
   45.9200   35.5390   42.6570 C   0  0  0  0  0  0  0  0  0  0  0  0
   46.4390   34.4580   43.2980 N   0  0  0  0  0  0  0  0  0  0  0  0
   46.0370   34.0660   44.5080 C   0  0  0  0  0  0  0  0  0  0  0  0
   45.0830   34.7580   45.1280 N   0  0  0  0  0  0  0  0  0  0  0  0
   43.7570   36.4110   45.0300 H   0  0  0  0  0  0  0  0  0  0  0  0
   44.5250   37.1100   42.7840 H   0  0  0  0  0  0  0  0  0  0  0  0
   46.3360   35.7370   41.6930 H   0  0  0  0  0  0  0  0  0  0  0  0
  1  3  1  0  0  0  0
  1  2  1  0  0  0  0
  4  5  1  0  0  0  0
  4 13  1  0  0  0  0
  5  1  1  0  0  0  0
  6  5  2  0  0  0  0
  7  6  1  0  0  0  0
  8  7  1  0  0  0  0
  9 10  2  0  0  0  0
  9  8  1  0  0  0  0
 10 11  1  0  0  0  0
 11  7  2  0  0  0  0
 11 12  1  0  0  0  0
 12 18  1  0  0  0  0
 12  4  2  0  0  0  0
 14  6  1  0  0  0  0
 15  8  1  0  0  0  0
 16  9  1  0  0  0  0
 17 10  1  0  0  0  0
 18 23  1  0  0  0  0
 19 21  1  0  0  0  0
 19 18  2  0  0  0  0
 20 19  1  0  0  0  0
 21 22  2  0  0  0  0
 22 23  1  0  0  0  0
 24  1  1  0  0  0  0
 24 25  1  0  0  0  0
 26 24  1  0  0  0  0
 27 31  2  0  0  0  0
 28 27  1  0  0  0  0
 28 29  2  0  0  0  0
 29 30  1  0  0  0  0
 30 24  1  0  0  0  0
 31 30  1  0  0  0  0
 32 28  1  0  0  0  0
 33 29  1  0  0  0  0
 34 40  1  0  0  0  0
 34 39  1  0  0  0  0
 35 34  2  0  0  0  0
 36 35  1  0  0  0  0
 36 37  2  0  0  0  0
 37 38  1  0  0  0  0
 38 39  2  0  0  0  0
 38 27  1  0  0  0  0
 41 35  1  0  0  0  0
 42 36  1  0  0  0  0
M  END
>  <minimizedAffinity>
-5.20587873

>  <minimizedRMSD>
1.01376915

$$$$
