
     RDKit          3D

 44 48  0  0  0  0  0  0  0  0999 V2000
   47.3290   30.2129   47.6547 C   0  0  0  0  0  0  0  0  0  0  0  0
   46.5612   32.6559   45.1562 C   0  0  0  0  0  0  0  0  0  0  0  0
   47.2764   31.7034   44.4146 C   0  0  0  0  0  0  0  0  0  0  0  0
   47.6446   30.6919   45.2414 C   0  0  0  0  0  0  0  0  0  0  0  0
   47.1730   31.0098   46.4493 N   0  0  0  0  0  0  0  0  0  0  0  0
   46.5198   32.1879   46.4125 N   0  0  0  0  0  0  0  0  0  0  0  0
   44.5794   35.7003   44.8257 C   0  0  0  0  0  0  0  0  0  0  0  0
   44.9403   36.2004   43.5859 C   0  0  0  0  0  0  0  0  0  0  0  0
   45.8764   35.4776   42.8609 C   0  0  0  0  0  0  0  0  0  0  0  0
   46.3739   34.3374   43.4081 N   0  0  0  0  0  0  0  0  0  0  0  0
   46.0047   33.8825   44.6065 C   0  0  0  0  0  0  0  0  0  0  0  0
   45.1069   34.5687   45.3104 N   0  0  0  0  0  0  0  0  0  0  0  0
   46.0064   29.9436   48.2682 C   0  0  0  0  0  0  0  0  0  0  0  0
   45.1159   27.5537   47.9022 C   0  0  0  0  0  0  0  0  0  0  0  0
   45.1865   28.9160   47.6450 C   0  0  0  0  0  0  0  0  0  0  0  0
   44.3623   29.3766   46.6444 C   0  0  0  0  0  0  0  0  0  0  0  0
   43.5144   28.5570   45.9314 C   0  0  0  0  0  0  0  0  0  0  0  0
   42.6247   28.7232   44.9389 N   0  0  0  0  0  0  0  0  0  0  0  0
   42.0463   27.5711   44.6020 C   0  0  0  0  0  0  0  0  0  0  0  0
   42.5599   26.5750   45.3950 C   0  0  0  0  0  0  0  0  0  0  0  0
   43.4603   27.2016   46.2043 C   0  0  0  0  0  0  0  0  0  0  0  0
   44.2718   26.7248   47.1946 C   0  0  0  0  0  0  0  0  0  0  0  0
   47.9174   30.8228   48.3867 H   0  0  0  0  0  0  0  0  0  0  0  0
   47.8608   29.2916   47.4343 H   0  0  0  0  0  0  0  0  0  0  0  0
   47.5236   31.7202   43.3561 H   0  0  0  0  0  0  0  0  0  0  0  0
   48.2076   29.7901   45.0096 H   0  0  0  0  0  0  0  0  0  0  0  0
   43.8485   36.2772   45.3763 H   0  0  0  0  0  0  0  0  0  0  0  0
   44.5563   37.0921   43.1492 H   0  0  0  0  0  0  0  0  0  0  0  0
   46.2607   35.7228   41.8952 H   0  0  0  0  0  0  0  0  0  0  0  0
   46.2074   29.6045   49.3277 H   0  0  0  0  0  0  0  0  0  0  0  0
   45.4458   30.8943   48.3840 H   0  0  0  0  0  0  0  0  0  0  0  0
   45.8008   27.3211   48.6973 H   0  0  0  0  0  0  0  0  0  0  0  0
   44.3010   30.4066   46.3262 H   0  0  0  0  0  0  0  0  0  0  0  0
   42.4161   29.6609   44.4862 H   0  0  0  0  0  0  0  0  0  0  0  0
   41.3006   27.4864   43.8250 H   0  0  0  0  0  0  0  0  0  0  0  0
   42.2262   25.5763   45.2861 H   0  0  0  0  0  0  0  0  0  0  0  0
   44.3666   25.3493   47.6282 C   0  0  0  0  0  0  0  0  0  0  0  0
   44.0152   24.2046   47.0806 C   0  0  0  0  0  0  0  0  0  0  0  0
   43.5528   23.9874   46.1508 H   0  0  0  0  0  0  0  0  0  0  0  0
   44.2104   23.0056   47.6666 C   0  0  0  0  0  0  0  0  0  0  0  0
   44.8259   23.0090   48.9334 C   0  0  0  0  0  0  0  0  0  0  0  0
   45.0710   24.8536   49.1545 S   0  0  0  0  0  0  0  0  0  0  0  0
   44.0604   21.9574   47.5183 H   0  0  0  0  0  0  0  0  0  0  0  0
   45.1966   22.4346   49.7852 H   0  0  0  0  0  0  0  0  0  0  0  0
  1 13  1  0
  2  6  2  0
  3  2  1  0
  3  4  2  0
  4  5  1  0
  5  1  1  0
  6  5  1  0
  7 12  2  0
  8  7  1  0
  9 10  1  0
  9  8  2  0
 10 11  2  0
 11  2  1  0
 11 12  1  0
 15 14  2  0
 15 13  1  0
 16 15  1  0
 17 21  1  0
 17 16  2  0
 18 17  1  0
 19 18  1  0
 19 20  2  0
 20 21  1  0
 21 22  2  0
 22 14  1  0
  1 23  1  0
  1 24  1  0
  3 25  1  0
  4 26  1  0
  7 27  1  0
  8 28  1  0
  9 29  1  0
 13 30  1  0
 13 31  1  0
 14 32  1  0
 16 33  1  0
 18 34  1  0
 19 35  1  0
 20 36  1  0
 37 38  2  0
 38 39  1  0
 38 40  1  0
 40 41  2  0
 41 42  1  0
 42 37  1  0
 40 43  1  0
 41 44  1  0
 22 37  1  0
M  ISO  8  23   8  24   8  25  14  26  14  27  14  28  14  29  14  30   8
M  ISO  7  31   8  32  14  33  14  34   9  35  14  36  14  39  15
M  END
>  <DihAtoms>  (1) 
20,21,36,37

>  <DihDeg>  (1) 
3.104693418973554

$$$$
