
 OpenBabel03242511543D

 31 33  0  0  1  0  0  0  0  0999 V2000
   43.0660   32.0920   40.8610 C   0  0  2  0  0  0  0  0  0  0  0  0
   42.1740   30.9180   40.7910 C   0  0  0  0  0  0  0  0  0  0  0  0
   41.8600   30.3120   42.1250 C   0  0  0  0  0  0  0  0  0  0  0  0
   43.0980   29.9620   42.9180 C   0  0  0  0  0  0  0  0  0  0  0  0
   44.2130   30.9810   42.7800 C   0  0  0  0  0  0  0  0  0  0  0  0
   43.6640   32.2870   42.2430 C   0  0  1  0  0  0  0  0  0  0  0  0
   43.9180   31.9960   40.1230 H   0  0  0  0  0  0  0  0  0  0  0  0
   42.6810   30.1130   40.1810 H   0  0  0  0  0  0  0  0  0  0  0  0
   41.2080   31.0840   40.2730 H   0  0  0  0  0  0  0  0  0  0  0  0
   41.1180   30.8210   42.7340 H   0  0  0  0  0  0  0  0  0  0  0  0
   41.3850   29.3110   41.8920 H   0  0  0  0  0  0  0  0  0  0  0  0
   42.7980   29.9330   43.9860 H   0  0  0  0  0  0  0  0  0  0  0  0
   43.4600   28.9280   42.6680 H   0  0  0  0  0  0  0  0  0  0  0  0
   44.7350   31.1590   43.7170 H   0  0  0  0  0  0  0  0  0  0  0  0
   44.9580   30.6050   42.0500 H   0  0  0  0  0  0  0  0  0  0  0  0
   42.8050   32.5360   42.9170 H   0  0  0  0  0  0  0  0  0  0  0  0
   42.3790   33.3440   40.4950 C   0  0  0  0  0  0  0  0  0  0  0  0
   41.2450   33.6680   41.2620 C   0  0  0  0  0  0  0  0  0  0  0  0
   40.5160   34.8340   40.9910 C   0  0  0  0  0  0  0  0  0  0  0  0
   40.9900   35.6070   39.9480 N   0  0  0  0  0  0  0  0  0  0  0  0
   42.0690   35.2690   39.2410 C   0  0  0  0  0  0  0  0  0  0  0  0
   42.7700   34.1410   39.5060 N   0  0  0  0  0  0  0  0  0  0  0  0
   40.8050   33.1270   42.0870 H   0  0  0  0  0  0  0  0  0  0  0  0
   39.6540   35.1980   41.4850 H   0  0  0  0  0  0  0  0  0  0  0  0
   42.4430   35.8790   38.4180 H   0  0  0  0  0  0  0  0  0  0  0  0
   44.6010   33.3820   42.3320 C   0  0  0  0  0  0  0  0  0  0  0  0
   44.6230   34.5480   42.9860 C   0  0  0  0  0  0  0  0  0  0  0  0
   43.7530   34.7700   43.6240 H   0  0  0  0  0  0  0  0  0  0  0  0
   45.6380   35.4240   42.8930 C   0  0  0  0  0  3  0  0  0  0  0  0
   46.6990   35.0260   42.0440 C   0  0  0  0  0  3  0  0  0  0  0  0
   46.1790   33.3410   41.3840 S   0  0  0  0  0  0  0  0  0  0  0  0
  1  7  1  6  0  0  0
  1  6  1  0  0  0  0
  2  1  1  0  0  0  0
  2  3  1  0  0  0  0
  3 10  1  0  0  0  0
  3  4  1  0  0  0  0
  4 12  1  0  0  0  0
  5  4  1  0  0  0  0
  5 14  1  0  0  0  0
  6 26  1  0  0  0  0
  6  5  1  0  0  0  0
  6 16  1  1  0  0  0
  8  2  1  0  0  0  0
  9  2  1  0  0  0  0
 11  3  1  0  0  0  0
 13  4  1  0  0  0  0
 15  5  1  0  0  0  0
 17  1  1  0  0  0  0
 17 18  1  0  0  0  0
 18 23  1  0  0  0  0
 19 18  2  0  0  0  0
 19 24  1  0  0  0  0
 20 19  1  0  0  0  0
 21 22  1  0  0  0  0
 21 20  2  0  0  0  0
 22 17  2  0  0  0  0
 25 21  1  0  0  0  0
 26 27  2  0  0  0  0
 27 28  1  0  0  0  0
 29 27  1  0  0  0  0
 30 29  2  0  0  0  0
 31 30  1  0  0  0  0
 31 26  1  0  0  0  0
M  END
>  <minimizedAffinity>
-3.5693481

>  <minimizedRMSD>
6.77063656

$$$$
