
 OpenBabel03252500143D

 35 38  0  0  0  0  0  0  0  0999 V2000
   45.5880   32.4140   40.4450 Cl  0  0  0  0  0  0  0  0  0  0  0  0
   46.8760   33.5470   40.1430 C   0  0  0  0  0  0  0  0  0  0  0  0
   47.4170   34.2740   41.1690 C   0  0  0  0  0  0  0  0  0  0  0  0
   48.4540   35.1900   40.9550 C   0  0  0  0  0  0  0  0  0  0  0  0
   48.8940   35.3160   39.6570 C   0  0  0  0  0  0  0  0  0  0  0  0
   48.3450   34.5820   38.6270 C   0  0  0  0  0  0  0  0  0  0  0  0
   47.3570   33.7120   38.8480 C   0  0  0  0  0  0  0  0  0  0  0  0
   48.8580   35.7480   41.7860 H   0  0  0  0  0  0  0  0  0  0  0  0
   49.6940   36.0250   39.4930 H   0  0  0  0  0  0  0  0  0  0  0  0
   48.7110   34.7000   37.6100 H   0  0  0  0  0  0  0  0  0  0  0  0
   46.8830   32.8800   44.5330 C   0  0  0  0  0  0  0  0  0  0  0  0
   45.9420   33.7810   45.0900 C   0  0  0  0  0  0  0  0  0  0  0  0
   45.5100   34.8500   44.2980 C   0  0  0  0  0  0  0  0  0  0  0  0
   46.0140   34.9720   43.0310 N   0  0  0  0  0  0  0  0  0  0  0  0
   46.9080   34.0970   42.5330 C   0  0  0  0  0  0  0  0  0  0  0  0
   47.3340   33.0600   43.2870 N   0  0  0  0  0  0  0  0  0  0  0  0
   47.1800   32.0740   45.1910 H   0  0  0  0  0  0  0  0  0  0  0  0
   45.5120   33.7440   46.0620 H   0  0  0  0  0  0  0  0  0  0  0  0
   44.5210   35.8670   44.7700 C   0  0  0  0  0  0  0  0  0  0  0  0
   44.9710   37.1320   44.5500 F   0  0  0  0  0  0  0  0  0  0  0  0
   43.3360   35.6880   44.0640 F   0  0  0  0  0  0  0  0  0  0  0  0
   44.3050   35.6170   46.1020 F   0  0  0  0  0  0  0  0  0  0  0  0
   46.7550   32.9180   37.7800 C   0  0  0  0  0  0  0  0  0  0  0  0
   45.5950   33.2580   37.1100 C   0  0  0  0  0  0  0  0  0  0  0  0
   45.2980   32.3100   36.1720 C   0  0  0  0  0  0  0  0  0  0  0  0
   46.3230   31.4090   36.3180 C   0  0  0  0  0  0  0  0  0  0  0  0
   47.1590   31.7910   37.2660 O   0  0  0  0  0  0  0  0  0  0  0  0
   44.9260   34.1270   37.2230 H   0  0  0  0  0  0  0  0  0  0  0  0
   44.5610   32.1050   35.4330 H   0  0  0  0  0  0  0  0  0  0  0  0
   46.7440   30.1230   35.6990 C   0  0  0  0  0  0  0  0  0  0  0  0
   47.7780   30.1990   34.8550 C   0  0  0  0  0  0  0  0  0  0  0  0
   48.4210   31.0240   34.4920 H   0  0  0  0  0  0  0  0  0  0  0  0
   48.3990   29.2310   34.1370 C   0  0  0  0  0  0  0  0  0  0  0  0
   47.6840   27.9690   34.4690 C   0  0  0  0  0  0  0  0  0  0  0  0
   46.3080   28.4760   35.7200 S   0  0  0  0  0  0  0  0  0  0  0  0
  2  1  1  0  0  0  0
  2  3  1  0  0  0  0
  3 15  1  0  0  0  0
  4  3  2  0  0  0  0
  4  8  1  0  0  0  0
  5  4  1  0  0  0  0
  6  7  1  0  0  0  0
  6  5  2  0  0  0  0
  7  2  2  0  0  0  0
  9  5  1  0  0  0  0
 10  6  1  0  0  0  0
 11 12  1  0  0  0  0
 11 17  1  0  0  0  0
 12 18  1  0  0  0  0
 13 19  1  0  0  0  0
 13 12  2  0  0  0  0
 14 13  1  0  0  0  0
 15 14  2  0  0  0  0
 15 16  1  0  0  0  0
 16 11  2  0  0  0  0
 19 22  1  0  0  0  0
 20 19  1  0  0  0  0
 21 19  1  0  0  0  0
 23  7  1  0  0  0  0
 24 28  1  0  0  0  0
 24 23  2  0  0  0  0
 25 26  2  0  0  0  0
 25 24  1  0  0  0  0
 26 27  1  0  0  0  0
 27 23  1  0  0  0  0
 29 25  1  0  0  0  0
 30 35  1  0  0  0  0
 30 26  1  0  0  0  0
 31 30  2  0  0  0  0
 32 31  1  0  0  0  0
 33 34  2  0  0  0  0
 33 31  1  0  0  0  0
 34 35  1  0  0  0  0
M  END
>  <minimizedAffinity>
-5.64453268

>  <minimizedRMSD>
0.592575073

$$$$
