
 OpenBabel03252505363D

 30 32  0  0  0  0  0  0  0  0999 V2000
   44.6340   35.3810   45.8990 C   0  0  0  0  0  0  0  0  0  0  0  0
   45.2080   35.5220   44.6160 C   0  0  0  0  0  0  0  0  0  0  0  0
   45.8110   34.4260   44.0440 C   0  0  0  0  0  0  0  0  0  0  0  0
   45.8240   33.2660   44.7480 N   0  0  0  0  0  0  0  0  0  0  0  0
   45.2630   33.1690   45.9810 C   0  0  0  0  0  0  0  0  0  0  0  0
   44.6680   34.2280   46.5560 N   0  0  0  0  0  0  0  0  0  0  0  0
   45.3190   31.9380   46.7020 N   0  0  0  0  0  0  0  0  0  0  0  0
   44.1510   36.2250   46.3750 H   0  0  0  0  0  0  0  0  0  0  0  0
   44.8150   31.8100   47.5780 H   0  0  0  0  0  0  0  0  0  0  0  0
   45.8870   31.1380   46.3310 H   0  0  0  0  0  0  0  0  0  0  0  0
   46.4210   34.4380   42.7500 C   0  0  0  0  0  0  0  0  0  0  0  0
   47.7480   34.8620   42.6660 C   0  0  0  0  0  0  0  0  0  0  0  0
   48.4340   34.9030   41.4480 C   0  0  0  0  0  0  0  0  0  0  0  0
   47.8000   34.5180   40.2950 C   0  0  0  0  0  0  0  0  0  0  0  0
   46.5090   34.1070   40.3870 C   0  0  0  0  0  0  0  0  0  0  0  0
   45.8110   34.0590   41.5870 C   0  0  0  0  0  0  0  0  0  0  0  0
   48.2920   35.1780   43.5670 H   0  0  0  0  0  0  0  0  0  0  0  0
   49.4680   35.2420   41.4430 H   0  0  0  0  0  0  0  0  0  0  0  0
   48.3540   34.5600   39.3680 H   0  0  0  0  0  0  0  0  0  0  0  0
   46.0150   33.8040   39.4690 H   0  0  0  0  0  0  0  0  0  0  0  0
   44.4090   33.6000   41.6560 C   0  0  0  0  0  0  0  0  0  0  0  0
   44.0410   33.1420   40.3940 F   0  0  0  0  0  0  0  0  0  0  0  0
   43.5960   34.6520   42.0360 F   0  0  0  0  0  0  0  0  0  0  0  0
   44.1830   32.5980   42.5700 F   0  0  0  0  0  0  0  0  0  0  0  0
   45.1400   36.8370   44.0390 C   0  0  0  0  0  0  0  0  0  0  0  0
   44.9690   37.3410   42.7520 C   0  0  0  0  0  0  0  0  0  0  0  0
   44.8600   36.5670   42.0140 H   0  0  0  0  0  0  0  0  0  0  0  0
   44.9600   38.6880   42.5900 C   0  0  0  0  0  3  0  0  0  0  0  0
   45.1240   39.4820   43.7360 C   0  0  0  0  0  3  0  0  0  0  0  0
   45.2940   38.2160   45.0670 S   0  0  0  0  0  0  0  0  0  0  0  0
  1  8  1  0  0  0  0
  1  6  1  0  0  0  0
  2  1  2  0  0  0  0
  3  2  1  0  0  0  0
  3  4  2  0  0  0  0
  4  5  1  0  0  0  0
  5  6  2  0  0  0  0
  5  7  1  0  0  0  0
  7  9  1  0  0  0  0
 10  7  1  0  0  0  0
 11  3  1  0  0  0  0
 12 11  1  0  0  0  0
 12 17  1  0  0  0  0
 13 12  2  0  0  0  0
 14 15  2  0  0  0  0
 14 13  1  0  0  0  0
 15 16  1  0  0  0  0
 16 21  1  0  0  0  0
 16 11  2  0  0  0  0
 18 13  1  0  0  0  0
 19 14  1  0  0  0  0
 20 15  1  0  0  0  0
 21 23  1  0  0  0  0
 21 24  1  0  0  0  0
 22 21  1  0  0  0  0
 25  2  1  0  0  0  0
 25 30  1  0  0  0  0
 26 25  2  0  0  0  0
 27 26  1  0  0  0  0
 28 26  1  0  0  0  0
 28 29  2  0  0  0  0
 29 30  1  0  0  0  0
M  END
>  <minimizedAffinity>
-1.42925978

>  <minimizedRMSD>
1.36204743

$$$$
