
 OpenBabel03252506253D

 42 46  0  0  0  0  0  0  0  0999 V2000
   46.1930   30.3300   48.4270 C   0  0  0  0  0  0  0  0  0  0  0  0
   46.4190   30.0170   49.4900 H   0  0  0  0  0  0  0  0  0  0  0  0
   45.5480   31.2260   48.5350 H   0  0  0  0  0  0  0  0  0  0  0  0
   45.6180   27.8580   47.9800 C   0  0  0  0  0  0  0  0  0  0  0  0
   45.4720   29.2280   47.8090 C   0  0  0  0  0  0  0  0  0  0  0  0
   44.5020   29.6160   46.9130 C   0  0  0  0  0  0  0  0  0  0  0  0
   43.7150   28.7200   46.2220 C   0  0  0  0  0  0  0  0  0  0  0  0
   42.7240   28.8060   45.3210 N   0  0  0  0  0  0  0  0  0  0  0  0
   42.2840   27.6020   44.9590 C   0  0  0  0  0  0  0  0  0  0  0  0
   43.0040   26.6510   45.6380 C   0  0  0  0  0  0  0  0  0  0  0  0
   43.8780   27.3590   46.4080 C   0  0  0  0  0  0  0  0  0  0  0  0
   44.8380   26.9530   47.2940 C   0  0  0  0  0  0  0  0  0  0  0  0
   46.4000   27.6860   48.6980 H   0  0  0  0  0  0  0  0  0  0  0  0
   44.2670   30.6410   46.6700 H   0  0  0  0  0  0  0  0  0  0  0  0
   42.3430   29.7260   44.9500 H   0  0  0  0  0  0  0  0  0  0  0  0
   41.4900   27.4500   44.2430 H   0  0  0  0  0  0  0  0  0  0  0  0
   42.8060   25.6210   45.4920 H   0  0  0  0  0  0  0  0  0  0  0  0
   45.1650   25.5850   47.6260 C   0  0  0  0  0  0  0  0  0  0  0  0
   45.1850   24.4680   46.9290 C   0  0  0  0  0  0  0  0  0  0  0  0
   44.9560   24.2740   45.9120 H   0  0  0  0  0  0  0  0  0  0  0  0
   45.5420   23.2730   47.4450 C   0  0  0  0  0  3  0  0  0  0  0  0
   45.9070   23.2500   48.8050 C   0  0  0  0  0  3  0  0  0  0  0  0
   45.6830   25.0650   49.2180 S   0  0  0  0  0  0  0  0  0  0  0  0
   47.4880   30.7130   47.8170 C   0  0  0  0  0  0  0  0  0  0  0  0
   47.9740   31.4520   48.5040 H   0  0  0  0  0  0  0  0  0  0  0  0
   48.1380   29.8520   47.6850 H   0  0  0  0  0  0  0  0  0  0  0  0
   46.6040   32.8950   45.1220 C   0  0  0  0  0  0  0  0  0  0  0  0
   47.2470   31.8490   44.4440 C   0  0  0  0  0  0  0  0  0  0  0  0
   47.6500   30.9220   45.3490 C   0  0  0  0  0  0  0  0  0  0  0  0
   47.2680   31.3810   46.5440 N   0  0  0  0  0  0  0  0  0  0  0  0
   46.6390   32.5660   46.4230 N   0  0  0  0  0  0  0  0  0  0  0  0
   47.4230   31.7450   43.3760 H   0  0  0  0  0  0  0  0  0  0  0  0
   48.1760   29.9850   45.1820 H   0  0  0  0  0  0  0  0  0  0  0  0
   44.5450   35.8470   44.5290 C   0  0  0  0  0  0  0  0  0  0  0  0
   44.9540   36.2940   43.2830 C   0  0  0  0  0  0  0  0  0  0  0  0
   45.9490   35.5680   42.6460 C   0  0  0  0  0  0  0  0  0  0  0  0
   46.4540   34.4750   43.2790 N   0  0  0  0  0  0  0  0  0  0  0  0
   46.0380   34.0720   44.4790 C   0  0  0  0  0  0  0  0  0  0  0  0
   45.0830   34.7620   45.0990 N   0  0  0  0  0  0  0  0  0  0  0  0
   43.7690   36.4260   45.0100 H   0  0  0  0  0  0  0  0  0  0  0  0
   44.5640   37.1470   42.7800 H   0  0  0  0  0  0  0  0  0  0  0  0
   46.3750   35.7750   41.6890 H   0  0  0  0  0  0  0  0  0  0  0  0
  1  3  1  0  0  0  0
  1  2  1  0  0  0  0
  4 13  1  0  0  0  0
  5  4  1  0  0  0  0
  5  1  1  0  0  0  0
  6  5  2  0  0  0  0
  7 11  2  0  0  0  0
  7  6  1  0  0  0  0
  8  7  1  0  0  0  0
  9  8  1  0  0  0  0
  9 10  2  0  0  0  0
 10 11  1  0  0  0  0
 11 12  1  0  0  0  0
 12 18  1  0  0  0  0
 12  4  2  0  0  0  0
 14  6  1  0  0  0  0
 15  8  1  0  0  0  0
 16  9  1  0  0  0  0
 17 10  1  0  0  0  0
 18 23  1  0  0  0  0
 19 21  1  0  0  0  0
 19 18  2  0  0  0  0
 20 19  1  0  0  0  0
 21 22  2  0  0  0  0
 22 23  1  0  0  0  0
 24  1  1  0  0  0  0
 24 25  1  0  0  0  0
 26 24  1  0  0  0  0
 27 31  2  0  0  0  0
 28 27  1  0  0  0  0
 28 29  2  0  0  0  0
 29 30  1  0  0  0  0
 30 24  1  0  0  0  0
 31 30  1  0  0  0  0
 32 28  1  0  0  0  0
 33 29  1  0  0  0  0
 34 40  1  0  0  0  0
 34 39  1  0  0  0  0
 35 34  2  0  0  0  0
 36 37  2  0  0  0  0
 36 35  1  0  0  0  0
 37 38  1  0  0  0  0
 38 39  2  0  0  0  0
 38 27  1  0  0  0  0
 41 35  1  0  0  0  0
 42 36  1  0  0  0  0
M  END
>  <minimizedAffinity>
-5.42826891

>  <minimizedRMSD>
0.582453191

$$$$
