
 OpenBabel03242511543D

 31 33  0  0  1  0  0  0  0  0999 V2000
   41.6050   28.1330   42.3960 C   0  0  2  0  0  0  0  0  0  0  0  0
   41.1490   29.0720   41.3510 C   0  0  0  0  0  0  0  0  0  0  0  0
   41.2210   30.5130   41.7550 C   0  0  0  0  0  0  0  0  0  0  0  0
   40.4930   30.7990   43.0480 C   0  0  0  0  0  0  0  0  0  0  0  0
   40.6450   29.7020   44.0830 C   0  0  0  0  0  0  0  0  0  0  0  0
   41.8220   28.8140   43.7350 C   0  0  1  0  0  0  0  0  0  0  0  0
   40.8540   27.3010   42.5450 H   0  0  0  0  0  0  0  0  0  0  0  0
   40.0650   28.8550   41.1180 H   0  0  0  0  0  0  0  0  0  0  0  0
   41.6620   28.9800   40.3730 H   0  0  0  0  0  0  0  0  0  0  0  0
   42.2010   30.9820   41.7280 H   0  0  0  0  0  0  0  0  0  0  0  0
   40.6270   31.0710   40.9680 H   0  0  0  0  0  0  0  0  0  0  0  0
   40.9360   31.7250   43.4680 H   0  0  0  0  0  0  0  0  0  0  0  0
   39.4090   31.0310   42.8580 H   0  0  0  0  0  0  0  0  0  0  0  0
   40.7650   30.0930   45.0910 H   0  0  0  0  0  0  0  0  0  0  0  0
   39.7350   29.0700   44.0780 H   0  0  0  0  0  0  0  0  0  0  0  0
   42.6800   29.5190   43.5860 H   0  0  0  0  0  0  0  0  0  0  0  0
   42.8630   27.4560   42.0340 C   0  0  0  0  0  0  0  0  0  0  0  0
   43.9610   28.2970   41.7750 C   0  0  0  0  0  0  0  0  0  0  0  0
   45.2010   27.7530   41.4170 C   0  0  0  0  0  0  0  0  0  0  0  0
   45.2520   26.3740   41.3420 N   0  0  0  0  0  0  0  0  0  0  0  0
   44.1900   25.6060   41.5940 C   0  0  0  0  0  0  0  0  0  0  0  0
   42.9930   26.1360   41.9400 N   0  0  0  0  0  0  0  0  0  0  0  0
   44.0120   29.3760   41.8070 H   0  0  0  0  0  0  0  0  0  0  0  0
   46.1030   28.2630   41.1990 H   0  0  0  0  0  0  0  0  0  0  0  0
   44.2300   24.5180   41.5360 H   0  0  0  0  0  0  0  0  0  0  0  0
   42.1970   27.9150   44.8010 C   0  0  0  0  0  0  0  0  0  0  0  0
   41.6050   26.8820   45.4110 C   0  0  0  0  0  0  0  0  0  0  0  0
   40.6020   26.6070   45.0500 H   0  0  0  0  0  0  0  0  0  0  0  0
   42.1790   26.1930   46.4120 C   0  0  0  0  0  3  0  0  0  0  0  0
   43.4700   26.6380   46.7860 C   0  0  0  0  0  3  0  0  0  0  0  0
   43.8280   28.0880   45.6380 S   0  0  0  0  0  0  0  0  0  0  0  0
  1  7  1  1  0  0  0
  1  6  1  0  0  0  0
  2  3  1  0  0  0  0
  2  1  1  0  0  0  0
  3  4  1  0  0  0  0
  4 12  1  0  0  0  0
  4  5  1  0  0  0  0
  5 14  1  0  0  0  0
  6 16  1  6  0  0  0
  6  5  1  0  0  0  0
  6 26  1  0  0  0  0
  8  2  1  0  0  0  0
  9  2  1  0  0  0  0
 10  3  1  0  0  0  0
 11  3  1  0  0  0  0
 13  4  1  0  0  0  0
 15  5  1  0  0  0  0
 17  1  1  0  0  0  0
 18 23  1  0  0  0  0
 18 17  2  0  0  0  0
 19 18  1  0  0  0  0
 20 19  2  0  0  0  0
 20 21  1  0  0  0  0
 21 22  2  0  0  0  0
 22 17  1  0  0  0  0
 24 19  1  0  0  0  0
 25 21  1  0  0  0  0
 26 27  2  0  0  0  0
 26 31  1  0  0  0  0
 27 29  1  0  0  0  0
 28 27  1  0  0  0  0
 29 30  2  0  0  0  0
 31 30  1  0  0  0  0
M  END
>  <minimizedAffinity>
-2.10332704

>  <minimizedRMSD>
7.42894459

$$$$
