
     RDKit          3D

 33 36  0  0  0  0  0  0  0  0999 V2000
   44.5388   35.8291   44.6451 C   0  0  0  0  0  0  0  0  0  0  0  0
   45.1670   35.7867   43.4044 C   0  0  0  0  0  0  0  0  0  0  0  0
   46.0963   34.7868   43.2320 C   0  0  0  0  0  0  0  0  0  0  0  0
   46.3717   33.8930   44.2407 N   0  0  0  0  0  0  0  0  0  0  0  0
   45.7163   33.9863   45.4452 C   0  0  0  0  0  0  0  0  0  0  0  0
   44.8027   34.9562   45.6393 N   0  0  0  0  0  0  0  0  0  0  0  0
   46.8225   34.6195   41.9206 C   0  0  0  0  0  0  0  0  0  0  0  0
   48.1624   35.3602   41.9235 C   0  0  0  0  0  0  0  0  0  0  0  0
   48.0138   33.8132   41.8878 C   0  0  0  0  0  0  0  0  0  0  0  0
   46.0185   33.0117   46.4850 C   0  0  0  0  0  0  0  0  0  0  0  0
   45.2391   32.9463   47.6055 C   0  0  0  0  0  0  0  0  0  0  0  0
   45.5046   32.0213   48.6021 C   0  0  0  0  0  0  0  0  0  0  0  0
   46.5739   31.1744   48.4281 C   0  0  0  0  0  0  0  0  0  0  0  0
   47.3228   31.2844   47.2832 C   0  0  0  0  0  0  0  0  0  0  0  0
   47.0764   32.1810   46.3027 N   0  0  0  0  0  0  0  0  0  0  0  0
   43.8020   36.6302   44.7686 H   0  0  0  0  0  0  0  0  0  0  0  0
   44.9595   36.4803   42.6083 H   0  0  0  0  0  0  0  0  0  0  0  0
   46.2208   34.7551   40.9960 H   0  0  0  0  0  0  0  0  0  0  0  0
   48.5368   35.8013   42.8440 H   0  0  0  0  0  0  0  0  0  0  0  0
   48.4152   35.8521   40.9879 H   0  0  0  0  0  0  0  0  0  0  0  0
   48.3163   33.3244   42.8595 H   0  0  0  0  0  0  0  0  0  0  0  0
   48.4411   33.3105   41.0290 H   0  0  0  0  0  0  0  0  0  0  0  0
   44.4129   33.6160   47.7177 H   0  0  0  0  0  0  0  0  0  0  0  0
   44.9143   31.9488   49.4840 H   0  0  0  0  0  0  0  0  0  0  0  0
   46.7730   30.4614   49.2038 H   0  0  0  0  0  0  0  0  0  0  0  0
   48.4583   30.4192   47.0482 C   0  0  0  0  0  0  0  0  0  0  0  0
   49.1416   29.8459   45.9560 C   0  0  0  0  0  0  0  0  0  0  0  0
   48.6513   30.1645   45.0607 H   0  0  0  0  0  0  0  0  0  0  0  0
   50.2131   29.0559   46.2104 C   0  0  0  0  0  0  0  0  0  0  0  0
   50.6642   28.7902   47.5296 C   0  0  0  0  0  0  0  0  0  0  0  0
   49.4040   29.7918   48.5382 S   0  0  0  0  0  0  0  0  0  0  0  0
   50.6790   28.6558   45.2968 H   0  0  0  0  0  0  0  0  0  0  0  0
   51.5842   28.1035   47.5952 H   0  0  0  0  0  0  0  0  0  0  0  0
  1  6  2  0
  2  1  1  0
  3  2  2  0
  3  4  1  0
  4  5  2  0
  5  6  1  0
  5 10  1  0
  7  3  1  0
  8  7  1  0
  9  8  1  0
  9  7  1  0
 10 11  2  0
 11 12  1  0
 13 12  2  0
 14 13  1  0
 15 10  1  0
 15 14  2  0
  1 16  1  0
  2 17  1  0
  7 18  1  0
  8 19  1  0
  8 20  1  0
  9 21  1  0
  9 22  1  0
 11 23  1  0
 12 24  1  0
 13 25  1  0
 26 27  2  0
 27 28  1  0
 27 29  1  0
 29 30  2  0
 30 31  1  0
 31 26  1  0
 29 32  1  0
 30 33  1  0
 14 26  1  0
M  ISO  8  16  14  17  14  18  13  19  13  20  13  21  13  22  13  23  14
M  ISO  3  24  14  25  14  28  15
M  END
>  <DihAtoms>  (1) 
12,13,25,26

>  <DihDeg>  (1) 
-179.9818003219564

$$$$
