
 OpenBabel03242511543D

 31 33  0  0  1  0  0  0  0  0999 V2000
   43.5340   31.9130   39.8540 C   0  0  2  0  0  0  0  0  0  0  0  0
   42.5390   31.1960   39.0320 C   0  0  0  0  0  0  0  0  0  0  0  0
   41.2400   31.9280   38.8740 C   0  0  0  0  0  0  0  0  0  0  0  0
   40.6210   32.3190   40.1960 C   0  0  0  0  0  0  0  0  0  0  0  0
   41.6360   32.7680   41.2300 C   0  0  0  0  0  0  0  0  0  0  0  0
   42.9460   33.1230   40.5570 C   0  0  1  0  0  0  0  0  0  0  0  0
   43.9730   31.2300   40.6420 H   0  0  0  0  0  0  0  0  0  0  0  0
   42.2970   30.2120   39.5330 H   0  0  0  0  0  0  0  0  0  0  0  0
   42.8770   30.9090   38.0170 H   0  0  0  0  0  0  0  0  0  0  0  0
   41.2210   32.7450   38.1590 H   0  0  0  0  0  0  0  0  0  0  0  0
   40.5220   31.1660   38.4430 H   0  0  0  0  0  0  0  0  0  0  0  0
   39.9440   33.1750   39.9930 H   0  0  0  0  0  0  0  0  0  0  0  0
   39.9700   31.4960   40.5980 H   0  0  0  0  0  0  0  0  0  0  0  0
   41.2850   33.6120   41.8200 H   0  0  0  0  0  0  0  0  0  0  0  0
   41.8340   31.9320   41.9300 H   0  0  0  0  0  0  0  0  0  0  0  0
   42.6670   33.8440   39.7470 H   0  0  0  0  0  0  0  0  0  0  0  0
   44.6870   32.3780   39.0620 C   0  0  0  0  0  0  0  0  0  0  0  0
   44.3810   32.9820   37.8280 C   0  0  0  0  0  0  0  0  0  0  0  0
   45.4060   33.4530   36.9970 C   0  0  0  0  0  0  0  0  0  0  0  0
   46.6920   33.2800   37.4730 N   0  0  0  0  0  0  0  0  0  0  0  0
   46.9460   32.7020   38.6480 C   0  0  0  0  0  0  0  0  0  0  0  0
   45.9530   32.2480   39.4490 N   0  0  0  0  0  0  0  0  0  0  0  0
   43.4150   33.1560   37.3790 H   0  0  0  0  0  0  0  0  0  0  0  0
   45.3190   33.9250   36.0530 H   0  0  0  0  0  0  0  0  0  0  0  0
   47.9600   32.5660   39.0250 H   0  0  0  0  0  0  0  0  0  0  0  0
   43.8720   33.8070   41.4290 C   0  0  0  0  0  0  0  0  0  0  0  0
   44.3480   35.0540   41.5000 C   0  0  0  0  0  0  0  0  0  0  0  0
   43.9760   35.7650   40.7480 H   0  0  0  0  0  0  0  0  0  0  0  0
   45.2350   35.4490   42.4290 C   0  0  0  0  0  3  0  0  0  0  0  0
   45.6370   34.4460   43.3440 C   0  0  0  0  0  3  0  0  0  0  0  0
   44.6890   32.9080   42.8130 S   0  0  0  0  0  0  0  0  0  0  0  0
  1  6  1  0  0  0  0
  1  7  1  1  0  0  0
  2  8  1  0  0  0  0
  2  1  1  0  0  0  0
  3  2  1  0  0  0  0
  3  4  1  0  0  0  0
  4 13  1  0  0  0  0
  4  5  1  0  0  0  0
  5 14  1  0  0  0  0
  5 15  1  0  0  0  0
  6 16  1  6  0  0  0
  6  5  1  0  0  0  0
  6 26  1  0  0  0  0
  9  2  1  0  0  0  0
 10  3  1  0  0  0  0
 11  3  1  0  0  0  0
 12  4  1  0  0  0  0
 17 22  1  0  0  0  0
 17  1  1  0  0  0  0
 18 17  2  0  0  0  0
 19 20  2  0  0  0  0
 19 18  1  0  0  0  0
 20 21  1  0  0  0  0
 21 25  1  0  0  0  0
 21 22  2  0  0  0  0
 23 18  1  0  0  0  0
 24 19  1  0  0  0  0
 26 27  2  0  0  0  0
 26 31  1  0  0  0  0
 27 29  1  0  0  0  0
 28 27  1  0  0  0  0
 29 30  2  0  0  0  0
 31 30  1  0  0  0  0
M  END
>  <minimizedAffinity>
-3.16537309

>  <minimizedRMSD>
5.58170795

$$$$
