
 OpenBabel03252504423D

 42 45  0  0  0  0  0  0  0  0999 V2000
   46.3120   32.2320   47.8430 C   0  0  0  0  0  0  0  0  0  0  0  0
   45.8640   31.8360   49.0670 C   0  0  0  0  0  0  0  0  0  0  0  0
   46.8580   31.1520   49.6330 N   0  0  0  0  0  0  0  0  0  0  0  0
   47.9150   31.0960   48.8290 C   0  0  0  0  0  0  0  0  0  0  0  0
   47.5730   31.7780   47.6930 N   0  0  0  0  0  0  0  0  0  0  0  0
   49.2030   30.4930   48.9830 N   0  0  0  0  0  0  0  0  0  0  0  0
   50.2600   31.3170   49.6120 C   0  0  0  0  0  0  0  0  0  0  0  0
   50.3870   30.7750   51.0310 C   0  0  0  0  0  0  0  0  0  0  0  0
   50.4690   29.2640   50.9980 C   0  0  0  0  0  0  0  0  0  0  0  0
   50.8240   28.8070   49.5910 C   0  0  0  0  0  0  0  0  0  0  0  0
   49.7080   29.2030   48.6430 C   0  0  0  0  0  0  0  0  0  0  0  0
   44.8790   32.0480   49.4810 H   0  0  0  0  0  0  0  0  0  0  0  0
   46.8300   30.7120   50.5840 H   0  0  0  0  0  0  0  0  0  0  0  0
   51.2230   31.2070   49.0920 H   0  0  0  0  0  0  0  0  0  0  0  0
   49.9290   32.3670   49.7000 H   0  0  0  0  0  0  0  0  0  0  0  0
   51.2940   31.1560   51.5520 H   0  0  0  0  0  0  0  0  0  0  0  0
   49.4970   31.0900   51.6340 H   0  0  0  0  0  0  0  0  0  0  0  0
   49.4760   28.8400   51.2310 H   0  0  0  0  0  0  0  0  0  0  0  0
   51.1760   28.8810   51.7360 H   0  0  0  0  0  0  0  0  0  0  0  0
   50.8330   27.6830   49.6370 H   0  0  0  0  0  0  0  0  0  0  0  0
   51.8100   29.2010   49.2630 H   0  0  0  0  0  0  0  0  0  0  0  0
   50.1500   29.2630   47.6270 H   0  0  0  0  0  0  0  0  0  0  0  0
   48.9280   28.4140   48.6090 H   0  0  0  0  0  0  0  0  0  0  0  0
   45.5590   33.0300   46.8420 C   0  0  0  0  0  0  0  0  0  0  0  0
   45.4860   34.0670   47.2650 H   0  0  0  0  0  0  0  0  0  0  0  0
   44.5340   32.6390   46.7280 H   0  0  0  0  0  0  0  0  0  0  0  0
   45.9810   33.9650   44.5920 C   0  0  0  0  0  3  0  0  0  0  0  0
   46.3070   33.1480   45.5700 C   0  0  0  0  0  3  0  0  0  0  0  0
   46.8100   33.9780   43.3910 C   0  0  0  0  0  0  0  0  0  0  0  0
   46.7400   35.0310   42.4540 C   0  0  0  0  0  0  0  0  0  0  0  0
   47.5720   34.9490   41.3440 C   0  0  0  0  0  0  0  0  0  0  0  0
   48.4050   33.8870   41.1980 N   0  0  0  0  0  0  0  0  0  0  0  0
   48.4510   32.8950   42.1100 C   0  0  0  0  0  0  0  0  0  0  0  0
   47.6720   32.9390   43.1820 N   0  0  0  0  0  0  0  0  0  0  0  0
   46.0570   35.8210   42.6530 H   0  0  0  0  0  0  0  0  0  0  0  0
   47.4910   35.7730   40.6470 H   0  0  0  0  0  0  0  0  0  0  0  0
   49.3980   31.8650   41.7660 C   0  0  0  0  0  0  0  0  0  0  0  0
   49.2270   30.5410   41.5790 C   0  0  0  0  0  0  0  0  0  0  0  0
   48.2370   30.1230   41.6930 H   0  0  0  0  0  0  0  0  0  0  0  0
   50.3060   29.7560   41.2520 C   0  0  0  0  0  3  0  0  0  0  0  0
   51.5390   30.4120   41.1330 C   0  0  0  0  0  3  0  0  0  0  0  0
   51.1450   32.1600   41.4930 S   0  0  0  0  0  0  0  0  0  0  0  0
  1  2  2  0  0  0  0
  2 12  1  0  0  0  0
  2  3  1  0  0  0  0
  3 13  1  0  0  0  0
  4  6  1  0  0  0  0
  4  3  1  0  0  0  0
  5  1  1  0  0  0  0
  5  4  2  0  0  0  0
  6  7  1  0  0  0  0
  7 15  1  0  0  0  0
  7  8  1  0  0  0  0
  8 16  1  0  0  0  0
  8 17  1  0  0  0  0
  9  8  1  0  0  0  0
  9 18  1  0  0  0  0
  9 19  1  0  0  0  0
 10 20  1  0  0  0  0
 10  9  1  0  0  0  0
 11  6  1  0  0  0  0
 11 10  1  0  0  0  0
 14  7  1  0  0  0  0
 21 10  1  0  0  0  0
 22 11  1  0  0  0  0
 23 11  1  0  0  0  0
 24 25  1  0  0  0  0
 24  1  1  0  0  0  0
 26 24  1  0  0  0  0
 27 28  2  0  0  0  0
 28 24  1  0  0  0  0
 29 27  1  0  0  0  0
 30 35  1  0  0  0  0
 30 29  2  0  0  0  0
 31 30  1  0  0  0  0
 32 31  2  0  0  0  0
 32 33  1  0  0  0  0
 33 34  2  0  0  0  0
 34 29  1  0  0  0  0
 36 31  1  0  0  0  0
 37 33  1  0  0  0  0
 38 39  1  0  0  0  0
 38 37  2  0  0  0  0
 40 38  1  0  0  0  0
 41 40  2  0  0  0  0
 41 42  1  0  0  0  0
 42 37  1  0  0  0  0
M  END
>  <minimizedAffinity>
-5.6792388

>  <minimizedRMSD>
0.77022624

$$$$
