
 OpenBabel03242518483D

 42 45  0  0  1  0  0  0  0  0999 V2000
   39.1900   31.3480   39.2100 C   0  0  2  0  0  0  0  0  0  0  0  0
   39.3720   32.8170   39.0770 C   0  0  1  0  0  0  0  0  0  0  0  0
   38.6670   33.5890   40.1940 C   0  0  0  0  0  0  0  0  0  0  0  0
   37.3460   33.1330   40.1420 O   0  0  0  0  0  0  0  0  0  0  0  0
   37.2310   31.8500   40.6320 C   0  0  0  0  0  0  0  0  0  0  0  0
   38.4860   31.0430   40.5440 C   0  0  1  0  0  0  0  0  0  0  0  0
   38.5420   30.9520   38.4090 H   0  0  0  0  0  0  0  0  0  0  0  0
   38.9120   33.1930   38.1140 H   0  0  0  0  0  0  0  0  0  0  0  0
   39.1420   33.3890   41.1740 H   0  0  0  0  0  0  0  0  0  0  0  0
   38.6200   34.6610   39.9530 H   0  0  0  0  0  0  0  0  0  0  0  0
   36.8850   31.9400   41.6950 H   0  0  0  0  0  0  0  0  0  0  0  0
   36.3910   31.3090   40.1260 H   0  0  0  0  0  0  0  0  0  0  0  0
   39.2220   31.3320   41.3250 H   0  0  0  0  0  0  0  0  0  0  0  0
   42.6730   33.9270   37.9370 C   0  0  0  0  0  0  0  0  0  0  0  0
   43.3930   34.1560   39.1480 C   0  0  0  0  0  0  0  0  0  0  0  0
   42.6790   33.9090   40.3470 C   0  0  0  0  0  0  0  0  0  0  0  0
   41.3980   33.4820   40.2770 N   0  0  0  0  0  0  0  0  0  0  0  0
   40.7690   33.2830   39.1000 C   0  0  0  0  0  0  0  0  0  0  0  0
   41.4110   33.5070   37.9350 N   0  0  0  0  0  0  0  0  0  0  0  0
   44.4160   34.4970   39.1280 H   0  0  0  0  0  0  0  0  0  0  0  0
   43.2020   34.0740   41.2750 H   0  0  0  0  0  0  0  0  0  0  0  0
   43.3440   34.1580   36.7810 O   0  0  0  0  0  0  0  0  0  0  0  0
   43.0860   33.6400   35.9510 H   0  0  0  0  0  0  0  0  0  0  0  0
   40.3870   30.6300   39.1800 O   0  0  0  0  0  0  0  0  0  0  0  0
   40.9320   30.8850   39.9810 H   0  0  0  0  0  0  0  0  0  0  0  0
   38.2780   29.6840   40.5840 O   0  0  0  0  0  0  0  0  0  0  0  0
   38.2100   27.1400   39.6920 F   0  0  0  0  0  0  0  0  0  0  0  0
   37.8620   27.5300   40.9340 C   0  0  0  0  0  0  0  0  0  0  0  0
   37.8710   28.8000   41.4730 C   0  0  0  0  0  0  0  0  0  0  0  0
   37.4680   28.8890   42.7940 C   0  0  0  0  0  0  0  0  0  0  0  0
   37.0690   27.8520   43.5980 C   0  0  0  0  0  0  0  0  0  0  0  0
   37.0780   26.6200   43.0200 C   0  0  0  0  0  0  0  0  0  0  0  0
   37.4640   26.4270   41.7070 C   0  0  0  0  0  0  0  0  0  0  0  0
   37.5020   29.9330   43.1540 H   0  0  0  0  0  0  0  0  0  0  0  0
   36.7910   28.1230   44.6080 H   0  0  0  0  0  0  0  0  0  0  0  0
   36.7620   25.7910   43.6570 H   0  0  0  0  0  0  0  0  0  0  0  0
   37.4390   25.0480   41.1680 C   0  0  0  0  0  0  0  0  0  0  0  0
   36.4790   24.4770   40.4760 C   0  0  0  0  0  0  0  0  0  0  0  0
   35.5610   24.9840   40.2150 H   0  0  0  0  0  0  0  0  0  0  0  0
   36.6860   23.1850   40.0830 C   0  0  0  0  0  3  0  0  0  0  0  0
   37.8810   22.5410   40.4280 C   0  0  0  0  0  3  0  0  0  0  0  0
   38.7310   23.9130   41.3710 S   0  0  0  0  0  0  0  0  0  0  0  0
  1  7  1  6  0  0  0
  1  6  1  0  0  0  0
  2  8  1  6  0  0  0
  2 18  1  0  0  0  0
  2  1  1  0  0  0  0
  2  3  1  0  0  0  0
  3  9  1  0  0  0  0
  4  3  1  0  0  0  0
  4  5  1  0  0  0  0
  5 11  1  0  0  0  0
  6 26  1  0  0  0  0
  6  5  1  0  0  0  0
  6 13  1  1  0  0  0
 10  3  1  0  0  0  0
 12  5  1  0  0  0  0
 14 15  1  0  0  0  0
 15 16  2  0  0  0  0
 16 21  1  0  0  0  0
 17 16  1  0  0  0  0
 18 17  2  0  0  0  0
 19 14  2  0  0  0  0
 19 18  1  0  0  0  0
 20 15  1  0  0  0  0
 22 14  1  0  0  0  0
 23 22  1  0  0  0  0
 24  1  1  0  0  0  0
 24 25  1  0  0  0  0
 26 29  1  0  0  0  0
 27 28  1  0  0  0  0
 28 29  2  0  0  0  0
 28 33  1  0  0  0  0
 29 30  1  0  0  0  0
 30 34  1  0  0  0  0
 30 31  2  0  0  0  0
 31 35  1  0  0  0  0
 32 31  1  0  0  0  0
 32 36  1  0  0  0  0
 33 32  2  0  0  0  0
 37 42  1  0  0  0  0
 37 33  1  0  0  0  0
 38 37  2  0  0  0  0
 39 38  1  0  0  0  0
 40 41  2  0  0  0  0
 40 38  1  0  0  0  0
 41 42  1  0  0  0  0
M  END
>  <minimizedAffinity>
-6.66727209

$$$$

 OpenBabel03242518483D

 42 45  0  0  1  0  0  0  0  0999 V2000
   40.2830   31.3870   38.8490 C   0  0  2  0  0  0  0  0  0  0  0  0
   41.0210   32.3970   38.0440 C   0  0  1  0  0  0  0  0  0  0  0  0
   41.3950   33.6300   38.8680 C   0  0  0  0  0  0  0  0  0  0  0  0
   40.1800   34.0570   39.4120 O   0  0  0  0  0  0  0  0  0  0  0  0
   39.7520   33.2200   40.4200 C   0  0  0  0  0  0  0  0  0  0  0  0
   40.2760   31.8240   40.3240 C   0  0  1  0  0  0  0  0  0  0  0  0
   39.2280   31.3170   38.5310 H   0  0  0  0  0  0  0  0  0  0  0  0
   40.3770   32.7830   37.1980 H   0  0  0  0  0  0  0  0  0  0  0  0
   42.1380   33.3730   39.6480 H   0  0  0  0  0  0  0  0  0  0  0  0
   41.7290   34.4470   38.2110 H   0  0  0  0  0  0  0  0  0  0  0  0
   40.0580   33.6980   41.3890 H   0  0  0  0  0  0  0  0  0  0  0  0
   38.6330   33.2070   40.4740 H   0  0  0  0  0  0  0  0  0  0  0  0
   41.3380   31.7540   40.6450 H   0  0  0  0  0  0  0  0  0  0  0  0
   43.3790   30.5310   35.9500 C   0  0  0  0  0  0  0  0  0  0  0  0
   44.6550   31.0450   36.3310 C   0  0  0  0  0  0  0  0  0  0  0  0
   44.6410   32.0490   37.3300 C   0  0  0  0  0  0  0  0  0  0  0  0
   43.4590   32.4500   37.8490 N   0  0  0  0  0  0  0  0  0  0  0  0
   42.2820   31.9260   37.4470 C   0  0  0  0  0  0  0  0  0  0  0  0
   42.2490   30.9680   36.4990 N   0  0  0  0  0  0  0  0  0  0  0  0
   45.5590   30.6770   35.8740 H   0  0  0  0  0  0  0  0  0  0  0  0
   45.5930   32.4530   37.6360 H   0  0  0  0  0  0  0  0  0  0  0  0
   43.3760   29.5670   34.9950 O   0  0  0  0  0  0  0  0  0  0  0  0
   42.6250   28.8880   34.9850 H   0  0  0  0  0  0  0  0  0  0  0  0
   40.8320   30.1060   38.7800 O   0  0  0  0  0  0  0  0  0  0  0  0
   41.7470   30.1290   39.1900 H   0  0  0  0  0  0  0  0  0  0  0  0
   39.5240   30.8980   41.0100 O   0  0  0  0  0  0  0  0  0  0  0  0
   39.3350   28.2200   41.2660 F   0  0  0  0  0  0  0  0  0  0  0  0
   38.2900   29.0520   41.0860 C   0  0  0  0  0  0  0  0  0  0  0  0
   38.2950   30.4250   40.9520 C   0  0  0  0  0  0  0  0  0  0  0  0
   37.0520   31.0120   40.7910 C   0  0  0  0  0  0  0  0  0  0  0  0
   35.8430   30.3670   40.7540 C   0  0  0  0  0  0  0  0  0  0  0  0
   35.8910   29.0130   40.8910 C   0  0  0  0  0  0  0  0  0  0  0  0
   37.0830   28.3340   41.0560 C   0  0  0  0  0  0  0  0  0  0  0  0
   37.1370   32.1090   40.6910 H   0  0  0  0  0  0  0  0  0  0  0  0
   34.9770   31.0020   40.6210 H   0  0  0  0  0  0  0  0  0  0  0  0
   34.9300   28.4950   40.8630 H   0  0  0  0  0  0  0  0  0  0  0  0
   37.0330   26.8610   41.1970 C   0  0  0  0  0  0  0  0  0  0  0  0
   37.0520   26.1620   42.3100 C   0  0  0  0  0  0  0  0  0  0  0  0
   37.1110   26.6170   43.2890 H   0  0  0  0  0  0  0  0  0  0  0  0
   36.9950   24.8040   42.1870 C   0  0  0  0  0  3  0  0  0  0  0  0
   36.9200   24.2280   40.9120 C   0  0  0  0  0  3  0  0  0  0  0  0
   36.9340   25.7690   39.8560 S   0  0  0  0  0  0  0  0  0  0  0  0
  1  7  1  6  0  0  0
  1  6  1  0  0  0  0
  2  8  1  6  0  0  0
  2  1  1  0  0  0  0
  2  3  1  0  0  0  0
  3  4  1  0  0  0  0
  3  9  1  0  0  0  0
  4  5  1  0  0  0  0
  5 12  1  0  0  0  0
  5 11  1  0  0  0  0
  6  5  1  0  0  0  0
  6 13  1  1  0  0  0
  6 26  1  0  0  0  0
 10  3  1  0  0  0  0
 14 15  2  0  0  0  0
 14 19  1  0  0  0  0
 15 16  1  0  0  0  0
 16 21  1  0  0  0  0
 16 17  2  0  0  0  0
 18 17  1  0  0  0  0
 18  2  1  0  0  0  0
 19 18  2  0  0  0  0
 20 15  1  0  0  0  0
 22 14  1  0  0  0  0
 23 22  1  0  0  0  0
 24  1  1  0  0  0  0
 24 25  1  0  0  0  0
 28 27  1  0  0  0  0
 29 26  1  0  0  0  0
 29 28  2  0  0  0  0
 30 29  1  0  0  0  0
 31 30  2  0  0  0  0
 31 32  1  0  0  0  0
 32 33  2  0  0  0  0
 33 28  1  0  0  0  0
 33 37  1  0  0  0  0
 34 30  1  0  0  0  0
 35 31  1  0  0  0  0
 36 32  1  0  0  0  0
 37 38  2  0  0  0  0
 38 39  1  0  0  0  0
 40 38  1  0  0  0  0
 41 40  2  0  0  0  0
 42 41  1  0  0  0  0
 42 37  1  0  0  0  0
M  END
>  <minimizedAffinity>
-6.18666077

$$$$

 OpenBabel03242518483D

 42 45  0  0  1  0  0  0  0  0999 V2000
   37.2030   28.2650   40.5290 C   0  0  2  0  0  0  0  0  0  0  0  0
   36.9880   29.3260   41.5480 C   0  0  1  0  0  0  0  0  0  0  0  0
   37.5030   28.9140   42.9280 C   0  0  0  0  0  0  0  0  0  0  0  0
   36.8660   27.6940   43.1780 O   0  0  0  0  0  0  0  0  0  0  0  0
   37.3980   26.6780   42.4150 C   0  0  0  0  0  0  0  0  0  0  0  0
   38.0440   27.1340   41.1470 C   0  0  1  0  0  0  0  0  0  0  0  0
   36.2450   27.8150   40.2130 H   0  0  0  0  0  0  0  0  0  0  0  0
   35.8840   29.5320   41.6860 H   0  0  0  0  0  0  0  0  0  0  0  0
   38.6060   28.8200   42.9270 H   0  0  0  0  0  0  0  0  0  0  0  0
   37.1330   29.6050   43.7000 H   0  0  0  0  0  0  0  0  0  0  0  0
   38.1310   26.1330   43.0660 H   0  0  0  0  0  0  0  0  0  0  0  0
   36.6180   25.9040   42.1910 H   0  0  0  0  0  0  0  0  0  0  0  0
   39.0410   27.5890   41.3290 H   0  0  0  0  0  0  0  0  0  0  0  0
   37.5050   32.7510   40.3520 C   0  0  0  0  0  0  0  0  0  0  0  0
   38.8560   33.0390   40.7120 C   0  0  0  0  0  0  0  0  0  0  0  0
   39.5510   31.9980   41.3770 C   0  0  0  0  0  0  0  0  0  0  0  0
   38.9160   30.8310   41.6230 N   0  0  0  0  0  0  0  0  0  0  0  0
   37.6350   30.6170   41.2570 C   0  0  0  0  0  0  0  0  0  0  0  0
   36.9360   31.5800   40.6230 N   0  0  0  0  0  0  0  0  0  0  0  0
   39.2990   33.9940   40.4840 H   0  0  0  0  0  0  0  0  0  0  0  0
   40.5740   32.1910   41.6600 H   0  0  0  0  0  0  0  0  0  0  0  0
   36.8270   33.7370   39.7130 O   0  0  0  0  0  0  0  0  0  0  0  0
   36.0800   33.4870   39.0770 H   0  0  0  0  0  0  0  0  0  0  0  0
   37.8590   28.7130   39.3810 O   0  0  0  0  0  0  0  0  0  0  0  0
   38.7840   29.0030   39.6370 H   0  0  0  0  0  0  0  0  0  0  0  0
   38.1520   26.1500   40.1920 O   0  0  0  0  0  0  0  0  0  0  0  0
   35.7740   25.4490   39.1300 F   0  0  0  0  0  0  0  0  0  0  0  0
   36.7050   24.5820   39.5740 C   0  0  0  0  0  0  0  0  0  0  0  0
   37.9420   24.8500   40.1220 C   0  0  0  0  0  0  0  0  0  0  0  0
   38.6900   23.7410   40.4750 C   0  0  0  0  0  0  0  0  0  0  0  0
   38.3220   22.4280   40.3320 C   0  0  0  0  0  0  0  0  0  0  0  0
   37.0930   22.2160   39.7860 C   0  0  0  0  0  0  0  0  0  0  0  0
   36.2710   23.2570   39.4010 C   0  0  0  0  0  0  0  0  0  0  0  0
   39.6650   24.0360   40.9060 H   0  0  0  0  0  0  0  0  0  0  0  0
   39.0480   21.6990   40.6680 H   0  0  0  0  0  0  0  0  0  0  0  0
   36.7960   21.1710   39.6700 H   0  0  0  0  0  0  0  0  0  0  0  0
   34.9520   22.9240   38.8170 C   0  0  0  0  0  0  0  0  0  0  0  0
   33.8250   22.7070   39.4580 C   0  0  0  0  0  0  0  0  0  0  0  0
   33.7430   22.7510   40.5350 H   0  0  0  0  0  0  0  0  0  0  0  0
   32.7290   22.4150   38.6970 C   0  0  0  0  0  3  0  0  0  0  0  0
   32.8500   22.3610   37.3020 C   0  0  0  0  0  3  0  0  0  0  0  0
   34.6660   22.7610   37.1170 S   0  0  0  0  0  0  0  0  0  0  0  0
  1  7  1  6  0  0  0
  1  6  1  0  0  0  0
  1  2  1  0  0  0  0
  2  8  1  1  0  0  0
  2  3  1  0  0  0  0
  3  4  1  0  0  0  0
  3 10  1  0  0  0  0
  5 11  1  0  0  0  0
  5  4  1  0  0  0  0
  6 13  1  1  0  0  0
  6  5  1  0  0  0  0
  9  3  1  0  0  0  0
 12  5  1  0  0  0  0
 14 19  2  0  0  0  0
 14 15  1  0  0  0  0
 15 16  2  0  0  0  0
 16 17  1  0  0  0  0
 16 21  1  0  0  0  0
 18  2  1  0  0  0  0
 18 17  2  0  0  0  0
 19 18  1  0  0  0  0
 20 15  1  0  0  0  0
 22 14  1  0  0  0  0
 23 22  1  0  0  0  0
 24 25  1  0  0  0  0
 24  1  1  0  0  0  0
 26  6  1  0  0  0  0
 27 28  1  0  0  0  0
 28 29  1  0  0  0  0
 29 26  1  0  0  0  0
 29 30  2  0  0  0  0
 30 34  1  0  0  0  0
 31 30  1  0  0  0  0
 31 35  1  0  0  0  0
 32 31  2  0  0  0  0
 33 28  2  0  0  0  0
 33 32  1  0  0  0  0
 36 32  1  0  0  0  0
 37 33  1  0  0  0  0
 37 38  2  0  0  0  0
 38 39  1  0  0  0  0
 40 38  1  0  0  0  0
 41 40  2  0  0  0  0
 42 41  1  0  0  0  0
 42 37  1  0  0  0  0
M  END
>  <minimizedAffinity>
-5.91904402

$$$$

 OpenBabel03242518483D

 42 45  0  0  1  0  0  0  0  0999 V2000
   37.9190   28.6480   42.2530 C   0  0  2  0  0  0  0  0  0  0  0  0
   37.0070   27.5190   41.9300 C   0  0  1  0  0  0  0  0  0  0  0  0
   36.1340   27.8150   40.7100 C   0  0  0  0  0  0  0  0  0  0  0  0
   35.5110   29.0270   41.0230 O   0  0  0  0  0  0  0  0  0  0  0  0
   36.3910   30.0850   40.9450 C   0  0  0  0  0  0  0  0  0  0  0  0
   37.8240   29.7090   41.1430 C   0  0  1  0  0  0  0  0  0  0  0  0
   37.6230   29.1430   43.1950 H   0  0  0  0  0  0  0  0  0  0  0  0
   36.2850   27.3300   42.7800 H   0  0  0  0  0  0  0  0  0  0  0  0
   36.7470   27.8820   39.7910 H   0  0  0  0  0  0  0  0  0  0  0  0
   35.3210   27.0770   40.6280 H   0  0  0  0  0  0  0  0  0  0  0  0
   36.2360   30.5620   39.9410 H   0  0  0  0  0  0  0  0  0  0  0  0
   36.1020   30.8910   41.6680 H   0  0  0  0  0  0  0  0  0  0  0  0
   38.2530   29.2180   40.2440 H   0  0  0  0  0  0  0  0  0  0  0  0
   38.9390   24.4360   42.3680 C   0  0  0  0  0  0  0  0  0  0  0  0
   38.9210   23.8340   41.0740 C   0  0  0  0  0  0  0  0  0  0  0  0
   38.2150   24.5470   40.0730 C   0  0  0  0  0  0  0  0  0  0  0  0
   37.6200   25.7190   40.3900 N   0  0  0  0  0  0  0  0  0  0  0  0
   37.6720   26.2380   41.6340 C   0  0  0  0  0  0  0  0  0  0  0  0
   38.3320   25.5930   42.6180 N   0  0  0  0  0  0  0  0  0  0  0  0
   39.4180   22.8960   40.8920 H   0  0  0  0  0  0  0  0  0  0  0  0
   38.1880   24.1130   39.0860 H   0  0  0  0  0  0  0  0  0  0  0  0
   39.6110   23.7650   43.3370 O   0  0  0  0  0  0  0  0  0  0  0  0
   40.0210   24.2870   44.1010 H   0  0  0  0  0  0  0  0  0  0  0  0
   39.2570   28.2700   42.3760 O   0  0  0  0  0  0  0  0  0  0  0  0
   39.5780   27.9410   41.4850 H   0  0  0  0  0  0  0  0  0  0  0  0
   38.6270   30.7590   41.5250 O   0  0  0  0  0  0  0  0  0  0  0  0
   40.8750   30.2760   40.1140 F   0  0  0  0  0  0  0  0  0  0  0  0
   40.3010   31.4870   40.2590 C   0  0  0  0  0  0  0  0  0  0  0  0
   39.1560   31.8220   40.9520 C   0  0  0  0  0  0  0  0  0  0  0  0
   38.8030   33.1590   40.9090 C   0  0  0  0  0  0  0  0  0  0  0  0
   39.4720   34.1600   40.2530 C   0  0  0  0  0  0  0  0  0  0  0  0
   40.5940   33.7790   39.5830 C   0  0  0  0  0  0  0  0  0  0  0  0
   41.0300   32.4680   39.5660 C   0  0  0  0  0  0  0  0  0  0  0  0
   37.8790   33.3480   41.4850 H   0  0  0  0  0  0  0  0  0  0  0  0
   39.0370   35.1470   40.3360 H   0  0  0  0  0  0  0  0  0  0  0  0
   41.1300   34.5730   39.0580 H   0  0  0  0  0  0  0  0  0  0  0  0
   42.2630   32.1520   38.8090 C   0  0  0  0  0  0  0  0  0  0  0  0
   43.4930   32.0950   39.2700 C   0  0  0  0  0  0  0  0  0  0  0  0
   43.7420   32.2830   40.3060 H   0  0  0  0  0  0  0  0  0  0  0  0
   44.4740   31.7810   38.3750 C   0  0  0  0  0  3  0  0  0  0  0  0
   44.1370   31.5400   37.0360 C   0  0  0  0  0  3  0  0  0  0  0  0
   42.2870   31.7900   37.1160 S   0  0  0  0  0  0  0  0  0  0  0  0
  1 24  1  0  0  0  0
  1  7  1  1  0  0  0
  2  1  1  0  0  0  0
  2  8  1  1  0  0  0
  3  4  1  0  0  0  0
  3  2  1  0  0  0  0
  5  4  1  0  0  0  0
  5  6  1  0  0  0  0
  5 12  1  0  0  0  0
  6 13  1  6  0  0  0
  6 26  1  0  0  0  0
  6  1  1  0  0  0  0
  9  3  1  0  0  0  0
 10  3  1  0  0  0  0
 11  5  1  0  0  0  0
 14 19  1  0  0  0  0
 14 22  1  0  0  0  0
 15 14  2  0  0  0  0
 16 17  2  0  0  0  0
 16 15  1  0  0  0  0
 17 18  1  0  0  0  0
 18  2  1  0  0  0  0
 18 19  2  0  0  0  0
 20 15  1  0  0  0  0
 21 16  1  0  0  0  0
 22 23  1  0  0  0  0
 25 24  1  0  0  0  0
 27 28  1  0  0  0  0
 28 29  1  0  0  0  0
 29 26  1  0  0  0  0
 30 29  2  0  0  0  0
 30 34  1  0  0  0  0
 31 35  1  0  0  0  0
 31 30  1  0  0  0  0
 32 31  2  0  0  0  0
 33 32  1  0  0  0  0
 33 28  2  0  0  0  0
 36 32  1  0  0  0  0
 37 38  2  0  0  0  0
 37 33  1  0  0  0  0
 38 39  1  0  0  0  0
 40 38  1  0  0  0  0
 41 42  1  0  0  0  0
 41 40  2  0  0  0  0
 42 37  1  0  0  0  0
M  END
>  <minimizedAffinity>
-5.80568981

$$$$

 OpenBabel03242518483D

 42 45  0  0  1  0  0  0  0  0999 V2000
   39.7020   30.8560   38.5360 C   0  0  2  0  0  0  0  0  0  0  0  0
   40.6840   31.8830   38.0960 C   0  0  1  0  0  0  0  0  0  0  0  0
   40.9540   32.9250   39.1830 C   0  0  0  0  0  0  0  0  0  0  0  0
   39.6840   33.4050   39.5180 O   0  0  0  0  0  0  0  0  0  0  0  0
   38.9690   32.4810   40.2490 C   0  0  0  0  0  0  0  0  0  0  0  0
   39.3880   31.0630   40.0280 C   0  0  1  0  0  0  0  0  0  0  0  0
   38.7470   30.9590   37.9910 H   0  0  0  0  0  0  0  0  0  0  0  0
   40.2860   32.4650   37.2110 H   0  0  0  0  0  0  0  0  0  0  0  0
   41.4740   32.4700   40.0470 H   0  0  0  0  0  0  0  0  0  0  0  0
   41.4950   33.7880   38.7640 H   0  0  0  0  0  0  0  0  0  0  0  0
   39.0790   32.7680   41.3290 H   0  0  0  0  0  0  0  0  0  0  0  0
   37.8710   32.5910   40.0570 H   0  0  0  0  0  0  0  0  0  0  0  0
   40.3380   30.8230   40.5530 H   0  0  0  0  0  0  0  0  0  0  0  0
   43.3820   30.4030   36.1060 C   0  0  0  0  0  0  0  0  0  0  0  0
   44.4960   30.3880   36.9980 C   0  0  0  0  0  0  0  0  0  0  0  0
   44.2550   30.9090   38.2940 C   0  0  0  0  0  0  0  0  0  0  0  0
   43.0230   31.3750   38.6010 N   0  0  0  0  0  0  0  0  0  0  0  0
   42.0080   31.3640   37.7130 C   0  0  0  0  0  0  0  0  0  0  0  0
   42.1930   30.8770   36.4690 N   0  0  0  0  0  0  0  0  0  0  0  0
   45.4510   30.0000   36.6860 H   0  0  0  0  0  0  0  0  0  0  0  0
   45.0810   30.9080   38.9870 H   0  0  0  0  0  0  0  0  0  0  0  0
   43.5970   29.9060   34.8620 O   0  0  0  0  0  0  0  0  0  0  0  0
   42.8210   29.4990   34.3550 H   0  0  0  0  0  0  0  0  0  0  0  0
   40.1480   29.5450   38.3660 O   0  0  0  0  0  0  0  0  0  0  0  0
   40.9420   29.3990   38.9610 H   0  0  0  0  0  0  0  0  0  0  0  0
   38.4260   30.1400   40.3650 O   0  0  0  0  0  0  0  0  0  0  0  0
   38.3430   27.5330   39.6740 F   0  0  0  0  0  0  0  0  0  0  0  0
   38.1650   28.0050   40.9240 C   0  0  0  0  0  0  0  0  0  0  0  0
   38.1960   29.3120   41.3650 C   0  0  0  0  0  0  0  0  0  0  0  0
   37.9900   29.4880   42.7220 C   0  0  0  0  0  0  0  0  0  0  0  0
   37.7630   28.5030   43.6480 C   0  0  0  0  0  0  0  0  0  0  0  0
   37.7420   27.2310   43.1640 C   0  0  0  0  0  0  0  0  0  0  0  0
   37.9370   26.9520   41.8250 C   0  0  0  0  0  0  0  0  0  0  0  0
   38.0300   30.5580   42.9980 H   0  0  0  0  0  0  0  0  0  0  0  0
   37.6250   28.8410   44.6670 H   0  0  0  0  0  0  0  0  0  0  0  0
   37.5610   26.4430   43.8980 H   0  0  0  0  0  0  0  0  0  0  0  0
   37.8950   25.5360   41.3950 C   0  0  0  0  0  0  0  0  0  0  0  0
   36.8310   24.8080   41.1360 C   0  0  0  0  0  0  0  0  0  0  0  0
   35.8240   25.1920   41.2170 H   0  0  0  0  0  0  0  0  0  0  0  0
   37.0450   23.5160   40.7520 C   0  0  0  0  0  3  0  0  0  0  0  0
   38.3560   23.0330   40.6510 C   0  0  0  0  0  3  0  0  0  0  0  0
   39.3070   24.5630   41.1490 S   0  0  0  0  0  0  0  0  0  0  0  0
  1  7  1  6  0  0  0
  1  6  1  0  0  0  0
  2  8  1  6  0  0  0
  2  1  1  0  0  0  0
  2  3  1  0  0  0  0
  3  4  1  0  0  0  0
  3  9  1  0  0  0  0
  4  5  1  0  0  0  0
  5 11  1  0  0  0  0
  6  5  1  0  0  0  0
  6 26  1  0  0  0  0
  6 13  1  1  0  0  0
 10  3  1  0  0  0  0
 12  5  1  0  0  0  0
 14 19  2  0  0  0  0
 14 15  1  0  0  0  0
 15 16  2  0  0  0  0
 16 17  1  0  0  0  0
 16 21  1  0  0  0  0
 18  2  1  0  0  0  0
 18 17  2  0  0  0  0
 19 18  1  0  0  0  0
 20 15  1  0  0  0  0
 22 14  1  0  0  0  0
 23 22  1  0  0  0  0
 24  1  1  0  0  0  0
 24 25  1  0  0  0  0
 26 29  1  0  0  0  0
 27 28  1  0  0  0  0
 28 29  2  0  0  0  0
 28 33  1  0  0  0  0
 29 30  1  0  0  0  0
 30 34  1  0  0  0  0
 30 31  2  0  0  0  0
 31 35  1  0  0  0  0
 32 31  1  0  0  0  0
 32 36  1  0  0  0  0
 33 32  2  0  0  0  0
 37 33  1  0  0  0  0
 38 39  1  0  0  0  0
 38 37  2  0  0  0  0
 40 38  1  0  0  0  0
 41 40  2  0  0  0  0
 41 42  1  0  0  0  0
 42 37  1  0  0  0  0
M  END
>  <minimizedAffinity>
-5.75411987

$$$$

 OpenBabel03242518483D

 42 45  0  0  1  0  0  0  0  0999 V2000
   35.6900   28.6310   40.1490 C   0  0  2  0  0  0  0  0  0  0  0  0
   35.5770   29.7380   39.1620 C   0  0  1  0  0  0  0  0  0  0  0  0
   36.6910   30.7740   39.3280 C   0  0  0  0  0  0  0  0  0  0  0  0
   36.6100   31.1490   40.6730 O   0  0  0  0  0  0  0  0  0  0  0  0
   37.0830   30.1590   41.5060 C   0  0  0  0  0  0  0  0  0  0  0  0
   37.0080   28.7820   40.9290 C   0  0  1  0  0  0  0  0  0  0  0  0
   34.8730   28.6740   40.8910 H   0  0  0  0  0  0  0  0  0  0  0  0
   34.6110   30.3080   39.3080 H   0  0  0  0  0  0  0  0  0  0  0  0
   37.6760   30.3400   39.0710 H   0  0  0  0  0  0  0  0  0  0  0  0
   36.4610   31.6830   38.7530 H   0  0  0  0  0  0  0  0  0  0  0  0
   38.1410   30.4300   41.7620 H   0  0  0  0  0  0  0  0  0  0  0  0
   36.5560   30.1900   42.4940 H   0  0  0  0  0  0  0  0  0  0  0  0
   37.8050   28.6020   40.1760 H   0  0  0  0  0  0  0  0  0  0  0  0
   36.8930   28.7530   35.8870 C   0  0  0  0  0  0  0  0  0  0  0  0
   35.7240   28.5610   35.0930 C   0  0  0  0  0  0  0  0  0  0  0  0
   34.4880   28.7880   35.7490 C   0  0  0  0  0  0  0  0  0  0  0  0
   34.4890   29.1620   37.0480 N   0  0  0  0  0  0  0  0  0  0  0  0
   35.6300   29.3280   37.7490 C   0  0  0  0  0  0  0  0  0  0  0  0
   36.8280   29.1230   37.1640 N   0  0  0  0  0  0  0  0  0  0  0  0
   35.7980   28.2610   34.0600 H   0  0  0  0  0  0  0  0  0  0  0  0
   33.5890   28.6490   35.1700 H   0  0  0  0  0  0  0  0  0  0  0  0
   38.0840   28.5410   35.2720 O   0  0  0  0  0  0  0  0  0  0  0  0
   38.9010   29.0430   35.5970 H   0  0  0  0  0  0  0  0  0  0  0  0
   35.6730   27.3610   39.5710 O   0  0  0  0  0  0  0  0  0  0  0  0
   36.4870   27.2630   38.9950 H   0  0  0  0  0  0  0  0  0  0  0  0
   37.0290   27.7810   41.8730 O   0  0  0  0  0  0  0  0  0  0  0  0
   39.7010   27.8440   42.2400 F   0  0  0  0  0  0  0  0  0  0  0  0
   38.9570   26.7220   42.1850 C   0  0  0  0  0  0  0  0  0  0  0  0
   37.5940   26.5980   42.0070 C   0  0  0  0  0  0  0  0  0  0  0  0
   37.1090   25.3020   42.0080 C   0  0  0  0  0  0  0  0  0  0  0  0
   37.8430   24.1550   42.1660 C   0  0  0  0  0  0  0  0  0  0  0  0
   39.1820   24.3300   42.3380 C   0  0  0  0  0  0  0  0  0  0  0  0
   39.7630   25.5840   42.3520 C   0  0  0  0  0  0  0  0  0  0  0  0
   36.0140   25.2840   41.8610 H   0  0  0  0  0  0  0  0  0  0  0  0
   37.2810   23.2310   42.1380 H   0  0  0  0  0  0  0  0  0  0  0  0
   39.7710   23.4190   42.4650 H   0  0  0  0  0  0  0  0  0  0  0  0
   41.2280   25.6710   42.5460 C   0  0  0  0  0  0  0  0  0  0  0  0
   41.8790   25.8070   43.6800 C   0  0  0  0  0  0  0  0  0  0  0  0
   41.3830   25.8720   44.6380 H   0  0  0  0  0  0  0  0  0  0  0  0
   43.2410   25.8640   43.6070 C   0  0  0  0  0  3  0  0  0  0  0  0
   43.8710   25.7780   42.3580 C   0  0  0  0  0  3  0  0  0  0  0  0
   42.3760   25.6040   41.2500 S   0  0  0  0  0  0  0  0  0  0  0  0
  1  7  1  1  0  0  0
  1  6  1  0  0  0  0
  2  8  1  1  0  0  0
  2  3  1  0  0  0  0
  2  1  1  0  0  0  0
  3  4  1  0  0  0  0
  4  5  1  0  0  0  0
  5 11  1  0  0  0  0
  5 12  1  0  0  0  0
  6 13  1  6  0  0  0
  6  5  1  0  0  0  0
  6 26  1  0  0  0  0
  9  3  1  0  0  0  0
 10  3  1  0  0  0  0
 14 19  1  0  0  0  0
 15 16  1  0  0  0  0
 15 14  2  0  0  0  0
 16 17  2  0  0  0  0
 17 18  1  0  0  0  0
 18  2  1  0  0  0  0
 19 18  2  0  0  0  0
 20 15  1  0  0  0  0
 21 16  1  0  0  0  0
 22 23  1  0  0  0  0
 22 14  1  0  0  0  0
 24  1  1  0  0  0  0
 25 24  1  0  0  0  0
 26 29  1  0  0  0  0
 28 27  1  0  0  0  0
 28 33  1  0  0  0  0
 29 30  1  0  0  0  0
 29 28  2  0  0  0  0
 30 31  2  0  0  0  0
 31 32  1  0  0  0  0
 32 33  2  0  0  0  0
 32 36  1  0  0  0  0
 33 37  1  0  0  0  0
 34 30  1  0  0  0  0
 35 31  1  0  0  0  0
 37 38  2  0  0  0  0
 38 39  1  0  0  0  0
 40 38  1  0  0  0  0
 41 40  2  0  0  0  0
 42 41  1  0  0  0  0
 42 37  1  0  0  0  0
M  END
>  <minimizedAffinity>
-5.7349577

$$$$

 OpenBabel03242518483D

 42 45  0  0  1  0  0  0  0  0999 V2000
   40.1210   32.2540   37.7440 C   0  0  2  0  0  0  0  0  0  0  0  0
   41.5390   32.6820   37.8730 C   0  0  1  0  0  0  0  0  0  0  0  0
   41.8680   33.1660   39.2870 C   0  0  0  0  0  0  0  0  0  0  0  0
   40.9110   34.1530   39.5410 O   0  0  0  0  0  0  0  0  0  0  0  0
   39.6650   33.6070   39.7630 C   0  0  0  0  0  0  0  0  0  0  0  0
   39.4600   32.2670   39.1330 C   0  0  1  0  0  0  0  0  0  0  0  0
   39.5490   32.9560   37.1110 H   0  0  0  0  0  0  0  0  0  0  0  0
   41.7560   33.5610   37.1950 H   0  0  0  0  0  0  0  0  0  0  0  0
   41.8160   32.3320   40.0130 H   0  0  0  0  0  0  0  0  0  0  0  0
   42.8390   33.6840   39.3010 H   0  0  0  0  0  0  0  0  0  0  0  0
   39.5290   33.5530   40.8750 H   0  0  0  0  0  0  0  0  0  0  0  0
   38.8610   34.3130   39.4320 H   0  0  0  0  0  0  0  0  0  0  0  0
   39.9720   31.4590   39.6980 H   0  0  0  0  0  0  0  0  0  0  0  0
   43.5490   30.2430   36.0190 C   0  0  0  0  0  0  0  0  0  0  0  0
   44.4180   29.6940   37.0080 C   0  0  0  0  0  0  0  0  0  0  0  0
   44.2650   30.2110   38.3190 C   0  0  0  0  0  0  0  0  0  0  0  0
   43.3340   31.1630   38.5490 N   0  0  0  0  0  0  0  0  0  0  0  0
   42.5390   31.6440   37.5710 C   0  0  0  0  0  0  0  0  0  0  0  0
   42.6510   31.1810   36.3090 N   0  0  0  0  0  0  0  0  0  0  0  0
   45.1390   28.9350   36.7530 H   0  0  0  0  0  0  0  0  0  0  0  0
   44.9110   29.8110   39.0850 H   0  0  0  0  0  0  0  0  0  0  0  0
   43.6830   29.7570   34.7590 O   0  0  0  0  0  0  0  0  0  0  0  0
   42.8790   29.7620   34.1430 H   0  0  0  0  0  0  0  0  0  0  0  0
   39.9680   30.9760   37.2040 O   0  0  0  0  0  0  0  0  0  0  0  0
   40.3700   30.3130   37.8390 H   0  0  0  0  0  0  0  0  0  0  0  0
   38.1380   31.9360   38.9490 O   0  0  0  0  0  0  0  0  0  0  0  0
   36.7100   30.4540   37.2050 F   0  0  0  0  0  0  0  0  0  0  0  0
   36.5770   30.4070   38.5450 C   0  0  0  0  0  0  0  0  0  0  0  0
   37.2640   31.1200   39.5060 C   0  0  0  0  0  0  0  0  0  0  0  0
   36.9140   30.8450   40.8160 C   0  0  0  0  0  0  0  0  0  0  0  0
   35.9670   29.9480   41.2370 C   0  0  0  0  0  0  0  0  0  0  0  0
   35.3170   29.2690   40.2520 C   0  0  0  0  0  0  0  0  0  0  0  0
   35.5950   29.4730   38.9140 C   0  0  0  0  0  0  0  0  0  0  0  0
   37.5060   31.4530   41.5250 H   0  0  0  0  0  0  0  0  0  0  0  0
   35.8360   29.8730   42.3090 H   0  0  0  0  0  0  0  0  0  0  0  0
   34.5620   28.5520   40.5830 H   0  0  0  0  0  0  0  0  0  0  0  0
   34.8340   28.6860   37.9160 C   0  0  0  0  0  0  0  0  0  0  0  0
   33.6330   28.9390   37.4450 C   0  0  0  0  0  0  0  0  0  0  0  0
   33.0480   29.7930   37.7550 H   0  0  0  0  0  0  0  0  0  0  0  0
   33.1350   28.0630   36.5240 C   0  0  0  0  0  3  0  0  0  0  0  0
   33.9050   26.9610   36.1310 C   0  0  0  0  0  3  0  0  0  0  0  0
   35.4300   27.2400   37.1730 S   0  0  0  0  0  0  0  0  0  0  0  0
  1  7  1  6  0  0  0
  1  2  1  0  0  0  0
  1  6  1  0  0  0  0
  2  8  1  6  0  0  0
  2  3  1  0  0  0  0
  3 10  1  0  0  0  0
  3  4  1  0  0  0  0
  3  9  1  0  0  0  0
  4  5  1  0  0  0  0
  5 11  1  0  0  0  0
  6 13  1  1  0  0  0
  6  5  1  0  0  0  0
 12  5  1  0  0  0  0
 14 19  2  0  0  0  0
 14 15  1  0  0  0  0
 15 16  2  0  0  0  0
 16 17  1  0  0  0  0
 16 21  1  0  0  0  0
 18  2  1  0  0  0  0
 18 17  2  0  0  0  0
 19 18  1  0  0  0  0
 20 15  1  0  0  0  0
 22 14  1  0  0  0  0
 23 22  1  0  0  0  0
 24  1  1  0  0  0  0
 24 25  1  0  0  0  0
 26  6  1  0  0  0  0
 26 29  1  0  0  0  0
 27 28  1  0  0  0  0
 28 33  2  0  0  0  0
 28 29  1  0  0  0  0
 29 30  2  0  0  0  0
 30 31  1  0  0  0  0
 30 34  1  0  0  0  0
 31 35  1  0  0  0  0
 32 36  1  0  0  0  0
 32 31  2  0  0  0  0
 33 32  1  0  0  0  0
 37 33  1  0  0  0  0
 38 39  1  0  0  0  0
 38 37  2  0  0  0  0
 40 38  1  0  0  0  0
 41 40  2  0  0  0  0
 41 42  1  0  0  0  0
 42 37  1  0  0  0  0
M  END
>  <minimizedAffinity>
-5.7108674

$$$$

 OpenBabel03242518483D

 42 45  0  0  1  0  0  0  0  0999 V2000
   38.7720   26.4790   43.1110 C   0  0  2  0  0  0  0  0  0  0  0  0
   39.6100   25.2510   43.1020 C   0  0  1  0  0  0  0  0  0  0  0  0
   39.0790   24.1980   42.1270 C   0  0  0  0  0  0  0  0  0  0  0  0
   37.7460   24.0210   42.5110 O   0  0  0  0  0  0  0  0  0  0  0  0
   36.9650   25.0960   42.1460 C   0  0  0  0  0  0  0  0  0  0  0  0
   37.7160   26.3800   41.9970 C   0  0  1  0  0  0  0  0  0  0  0  0
   38.2230   26.5800   44.0650 H   0  0  0  0  0  0  0  0  0  0  0  0
   39.6030   24.7530   44.1180 H   0  0  0  0  0  0  0  0  0  0  0  0
   39.1730   24.5460   41.0800 H   0  0  0  0  0  0  0  0  0  0  0  0
   39.5690   23.2280   42.3010 H   0  0  0  0  0  0  0  0  0  0  0  0
   36.4560   24.8150   41.1860 H   0  0  0  0  0  0  0  0  0  0  0  0
   36.1160   25.2290   42.8650 H   0  0  0  0  0  0  0  0  0  0  0  0
   38.2980   26.4140   41.0510 H   0  0  0  0  0  0  0  0  0  0  0  0
   42.6540   25.5330   41.0810 C   0  0  0  0  0  0  0  0  0  0  0  0
   43.6710   25.8350   42.0350 C   0  0  0  0  0  0  0  0  0  0  0  0
   43.2430   25.9310   43.3830 C   0  0  0  0  0  0  0  0  0  0  0  0
   41.9380   25.7370   43.6770 N   0  0  0  0  0  0  0  0  0  0  0  0
   41.0210   25.4540   42.7290 C   0  0  0  0  0  0  0  0  0  0  0  0
   41.3840   25.3540   41.4350 N   0  0  0  0  0  0  0  0  0  0  0  0
   44.6940   25.9770   41.7280 H   0  0  0  0  0  0  0  0  0  0  0  0
   43.9930   26.1570   44.1240 H   0  0  0  0  0  0  0  0  0  0  0  0
   43.0480   25.4370   39.7860 O   0  0  0  0  0  0  0  0  0  0  0  0
   42.5280   24.8380   39.1580 H   0  0  0  0  0  0  0  0  0  0  0  0
   39.4980   27.6550   42.9150 O   0  0  0  0  0  0  0  0  0  0  0  0
   39.8950   27.6330   41.9950 H   0  0  0  0  0  0  0  0  0  0  0  0
   36.9260   27.5010   42.0960 O   0  0  0  0  0  0  0  0  0  0  0  0
   35.8750   27.1640   39.6340 F   0  0  0  0  0  0  0  0  0  0  0  0
   36.2160   28.3530   40.1700 C   0  0  0  0  0  0  0  0  0  0  0  0
   36.7500   28.6160   41.4150 C   0  0  0  0  0  0  0  0  0  0  0  0
   36.9850   29.9510   41.6920 C   0  0  0  0  0  0  0  0  0  0  0  0
   36.7390   31.0140   40.8600 C   0  0  0  0  0  0  0  0  0  0  0  0
   36.2120   30.7020   39.6450 C   0  0  0  0  0  0  0  0  0  0  0  0
   35.9420   29.3990   39.2730 C   0  0  0  0  0  0  0  0  0  0  0  0
   37.4110   30.0820   42.7030 H   0  0  0  0  0  0  0  0  0  0  0  0
   36.9900   31.9880   41.2580 H   0  0  0  0  0  0  0  0  0  0  0  0
   36.0140   31.5450   38.9790 H   0  0  0  0  0  0  0  0  0  0  0  0
   35.3690   29.1610   37.9290 C   0  0  0  0  0  0  0  0  0  0  0  0
   35.9970   29.1860   36.7750 C   0  0  0  0  0  0  0  0  0  0  0  0
   37.0550   29.3940   36.6860 H   0  0  0  0  0  0  0  0  0  0  0  0
   35.2520   28.9320   35.6600 C   0  0  0  0  0  3  0  0  0  0  0  0
   33.8830   28.6640   35.7910 C   0  0  0  0  0  3  0  0  0  0  0  0
   33.7000   28.7930   37.6460 S   0  0  0  0  0  0  0  0  0  0  0  0
  1  7  1  1  0  0  0
  2  1  1  0  0  0  0
  2  8  1  1  0  0  0
  3 10  1  0  0  0  0
  3  4  1  0  0  0  0
  3  2  1  0  0  0  0
  5  4  1  0  0  0  0
  5 12  1  0  0  0  0
  6 13  1  6  0  0  0
  6 26  1  0  0  0  0
  6  5  1  0  0  0  0
  6  1  1  0  0  0  0
  9  3  1  0  0  0  0
 11  5  1  0  0  0  0
 14 19  2  0  0  0  0
 14 15  1  0  0  0  0
 15 16  2  0  0  0  0
 16 17  1  0  0  0  0
 16 21  1  0  0  0  0
 18  2  1  0  0  0  0
 18 17  2  0  0  0  0
 19 18  1  0  0  0  0
 20 15  1  0  0  0  0
 22 14  1  0  0  0  0
 23 22  1  0  0  0  0
 24  1  1  0  0  0  0
 25 24  1  0  0  0  0
 27 28  1  0  0  0  0
 28 29  1  0  0  0  0
 29 30  2  0  0  0  0
 29 26  1  0  0  0  0
 30 34  1  0  0  0  0
 31 35  1  0  0  0  0
 31 30  1  0  0  0  0
 32 31  2  0  0  0  0
 33 32  1  0  0  0  0
 33 28  2  0  0  0  0
 36 32  1  0  0  0  0
 37 33  1  0  0  0  0
 38 37  2  0  0  0  0
 39 38  1  0  0  0  0
 40 41  2  0  0  0  0
 40 38  1  0  0  0  0
 41 42  1  0  0  0  0
 42 37  1  0  0  0  0
M  END
>  <minimizedAffinity>
-5.66732788

$$$$

 OpenBabel03242518483D

 42 45  0  0  1  0  0  0  0  0999 V2000
   38.6170   28.0310   40.8890 C   0  0  2  0  0  0  0  0  0  0  0  0
   38.2740   27.0220   41.9260 C   0  0  1  0  0  0  0  0  0  0  0  0
   36.9910   27.3830   42.6780 C   0  0  0  0  0  0  0  0  0  0  0  0
   37.2240   28.6800   43.1460 O   0  0  0  0  0  0  0  0  0  0  0  0
   37.1680   29.6060   42.1260 C   0  0  0  0  0  0  0  0  0  0  0  0
   37.4700   29.0490   40.7720 C   0  0  1  0  0  0  0  0  0  0  0  0
   39.5220   28.5990   41.1690 H   0  0  0  0  0  0  0  0  0  0  0  0
   39.0820   26.9680   42.7160 H   0  0  0  0  0  0  0  0  0  0  0  0
   36.1120   27.3290   42.0080 H   0  0  0  0  0  0  0  0  0  0  0  0
   36.8820   26.7590   43.5780 H   0  0  0  0  0  0  0  0  0  0  0  0
   36.1410   30.0570   42.1550 H   0  0  0  0  0  0  0  0  0  0  0  0
   37.8440   30.4730   42.3430 H   0  0  0  0  0  0  0  0  0  0  0  0
   36.6160   28.4670   40.3620 H   0  0  0  0  0  0  0  0  0  0  0  0
   36.6440   24.0670   40.4980 C   0  0  0  0  0  0  0  0  0  0  0  0
   37.6730   23.0780   40.4920 C   0  0  0  0  0  0  0  0  0  0  0  0
   38.9300   23.4940   41.0000 C   0  0  0  0  0  0  0  0  0  0  0  0
   39.0760   24.7610   41.4470 N   0  0  0  0  0  0  0  0  0  0  0  0
   38.0640   25.6530   41.4270 C   0  0  0  0  0  0  0  0  0  0  0  0
   36.8520   25.3000   40.9520 N   0  0  0  0  0  0  0  0  0  0  0  0
   37.4850   22.0850   40.1210 H   0  0  0  0  0  0  0  0  0  0  0  0
   39.7240   22.7650   41.0070 H   0  0  0  0  0  0  0  0  0  0  0  0
   35.4350   23.6840   40.0160 O   0  0  0  0  0  0  0  0  0  0  0  0
   34.6010   24.1380   40.3660 H   0  0  0  0  0  0  0  0  0  0  0  0
   38.8380   27.4820   39.6240 O   0  0  0  0  0  0  0  0  0  0  0  0
   37.9810   27.0760   39.3000 H   0  0  0  0  0  0  0  0  0  0  0  0
   37.8670   29.9950   39.8570 O   0  0  0  0  0  0  0  0  0  0  0  0
   40.4550   30.7540   39.8220 F   0  0  0  0  0  0  0  0  0  0  0  0
   39.4050   31.5990   39.8320 C   0  0  0  0  0  0  0  0  0  0  0  0
   38.0580   31.3000   39.8440 C   0  0  0  0  0  0  0  0  0  0  0  0
   37.2060   32.3900   39.8380 C   0  0  0  0  0  0  0  0  0  0  0  0
   37.5700   33.7110   39.8210 C   0  0  0  0  0  0  0  0  0  0  0  0
   38.9100   33.9540   39.8080 C   0  0  0  0  0  0  0  0  0  0  0  0
   39.8410   32.9340   39.8140 C   0  0  0  0  0  0  0  0  0  0  0  0
   36.1470   32.0710   39.8480 H   0  0  0  0  0  0  0  0  0  0  0  0
   36.7540   34.4220   39.8170 H   0  0  0  0  0  0  0  0  0  0  0  0
   39.2050   35.0060   39.7940 H   0  0  0  0  0  0  0  0  0  0  0  0
   41.2760   33.2990   39.8000 C   0  0  0  0  0  0  0  0  0  0  0  0
   42.0250   33.6380   40.8250 C   0  0  0  0  0  0  0  0  0  0  0  0
   41.6490   33.6870   41.8370 H   0  0  0  0  0  0  0  0  0  0  0  0
   43.3320   33.9340   40.5630 C   0  0  0  0  0  3  0  0  0  0  0  0
   43.8060   33.8660   39.2460 C   0  0  0  0  0  3  0  0  0  0  0  0
   42.2450   33.3400   38.3650 S   0  0  0  0  0  0  0  0  0  0  0  0
  1  7  1  1  0  0  0
  1  2  1  0  0  0  0
  2  3  1  0  0  0  0
  2  8  1  1  0  0  0
  3  4  1  0  0  0  0
  3 10  1  0  0  0  0
  5 11  1  0  0  0  0
  5 12  1  0  0  0  0
  5  4  1  0  0  0  0
  6 13  1  6  0  0  0
  6  1  1  0  0  0  0
  6  5  1  0  0  0  0
  9  3  1  0  0  0  0
 14 19  1  0  0  0  0
 15 14  2  0  0  0  0
 15 16  1  0  0  0  0
 16 21  1  0  0  0  0
 16 17  2  0  0  0  0
 18 17  1  0  0  0  0
 18  2  1  0  0  0  0
 19 18  2  0  0  0  0
 20 15  1  0  0  0  0
 22 23  1  0  0  0  0
 22 14  1  0  0  0  0
 24  1  1  0  0  0  0
 25 24  1  0  0  0  0
 26  6  1  0  0  0  0
 27 28  1  0  0  0  0
 28 29  1  0  0  0  0
 29 26  1  0  0  0  0
 30 29  2  0  0  0  0
 30 34  1  0  0  0  0
 31 30  1  0  0  0  0
 32 33  1  0  0  0  0
 32 31  2  0  0  0  0
 33 28  2  0  0  0  0
 35 31  1  0  0  0  0
 36 32  1  0  0  0  0
 37 33  1  0  0  0  0
 37 38  2  0  0  0  0
 38 39  1  0  0  0  0
 40 38  1  0  0  0  0
 41 40  2  0  0  0  0
 42 41  1  0  0  0  0
 42 37  1  0  0  0  0
M  END
>  <minimizedAffinity>
-5.63454342

$$$$
