
 OpenBabel03252502453D

 28 30  0  0  1  0  0  0  0  0999 V2000
   38.1170   29.2820   43.2520 C   0  0  0  0  0  0  0  0  0  0  0  0
   37.1240   29.7450   42.9540 H   0  0  0  0  0  0  0  0  0  0  0  0
   38.4050   29.4860   44.2810 H   0  0  0  0  0  0  0  0  0  0  0  0
   37.9090   27.8120   43.0650 C   0  0  1  0  0  0  0  0  0  0  0  0
   36.5600   27.2660   43.4190 C   0  0  0  0  0  0  0  0  0  0  0  0
   37.0100   27.3840   42.0070 C   0  0  2  0  0  0  0  0  0  0  0  0
   38.8310   27.2290   43.3460 H   0  0  0  0  0  0  0  0  0  0  0  0
   35.7640   27.8870   43.8590 H   0  0  0  0  0  0  0  0  0  0  0  0
   36.6100   26.2890   43.9450 H   0  0  0  0  0  0  0  0  0  0  0  0
   36.5850   27.8770   41.1720 H   0  0  0  0  0  0  0  0  0  0  0  0
   37.4490   25.9660   41.4410 C   0  0  0  0  0  0  0  0  0  0  0  0
   37.0070   24.8190   41.9810 C   0  0  0  0  0  0  0  0  0  0  0  0
   36.3300   24.7650   42.8280 H   0  0  0  0  0  0  0  0  0  0  0  0
   37.4620   23.6770   41.3970 C   0  0  0  0  0  3  0  0  0  0  0  0
   38.3190   23.7200   40.3260 C   0  0  0  0  0  3  0  0  0  0  0  0
   38.4900   25.6010   40.1360 S   0  0  0  0  0  0  0  0  0  0  0  0
   39.1690   29.6820   42.2250 C   0  0  0  0  0  0  0  0  0  0  0  0
   39.0350   28.9760   41.3460 H   0  0  0  0  0  0  0  0  0  0  0  0
   40.1790   29.7360   42.6080 H   0  0  0  0  0  0  0  0  0  0  0  0
   37.0810   32.0290   40.1660 C   0  0  0  0  0  0  0  0  0  0  0  0
   37.4880   30.8530   40.8650 C   0  0  0  0  0  0  0  0  0  0  0  0
   38.6900   30.9030   41.5160 C   0  0  0  0  0  0  0  0  0  0  0  0
   39.4440   32.0370   41.4820 N   0  0  0  0  0  0  0  0  0  0  0  0
   39.0430   33.1220   40.8240 C   0  0  0  0  0  0  0  0  0  0  0  0
   37.8750   33.1310   40.1660 N   0  0  0  0  0  0  0  0  0  0  0  0
   36.1470   32.0950   39.6180 H   0  0  0  0  0  0  0  0  0  0  0  0
   36.7590   30.0860   40.7810 H   0  0  0  0  0  0  0  0  0  0  0  0
   39.6600   34.0080   40.8130 H   0  0  0  0  0  0  0  0  0  0  0  0
  1  3  1  0  0  0  0
  2  1  1  0  0  0  0
  4  1  1  0  0  0  0
  4  7  1  1  0  0  0
  4  5  1  0  0  0  0
  5  8  1  0  0  0  0
  5  9  1  0  0  0  0
  6 10  1  6  0  0  0
  6  4  1  0  0  0  0
  6  5  1  0  0  0  0
 11 12  2  0  0  0  0
 11  6  1  0  0  0  0
 12 13  1  0  0  0  0
 14 12  1  0  0  0  0
 15 14  2  0  0  0  0
 16 15  1  0  0  0  0
 16 11  1  0  0  0  0
 17 19  1  0  0  0  0
 17  1  1  0  0  0  0
 18 17  1  0  0  0  0
 20 21  1  0  0  0  0
 21 22  2  0  0  0  0
 22 17  1  0  0  0  0
 23 22  1  0  0  0  0
 24 23  2  0  0  0  0
 25 20  2  0  0  0  0
 25 24  1  0  0  0  0
 26 20  1  0  0  0  0
 27 21  1  0  0  0  0
 28 24  1  0  0  0  0
M  END
>  <minimizedAffinity>
-4.62564993

$$$$

 OpenBabel03252502453D

 28 30  0  0  1  0  0  0  0  0999 V2000
   36.2210   28.1600   41.6290 C   0  0  0  0  0  0  0  0  0  0  0  0
   35.1730   28.5600   41.8030 H   0  0  0  0  0  0  0  0  0  0  0  0
   36.2470   27.2160   41.0890 H   0  0  0  0  0  0  0  0  0  0  0  0
   36.8920   29.2260   40.8210 C   0  0  1  0  0  0  0  0  0  0  0  0
   36.1160   29.8000   39.6760 C   0  0  0  0  0  0  0  0  0  0  0  0
   36.3710   30.5780   40.9160 C   0  0  2  0  0  0  0  0  0  0  0  0
   37.9900   29.0110   40.6900 H   0  0  0  0  0  0  0  0  0  0  0  0
   35.1230   29.4260   39.3840 H   0  0  0  0  0  0  0  0  0  0  0  0
   36.7370   29.9680   38.7700 H   0  0  0  0  0  0  0  0  0  0  0  0
   35.7120   31.0560   41.5940 H   0  0  0  0  0  0  0  0  0  0  0  0
   37.5270   31.6410   40.6810 C   0  0  0  0  0  0  0  0  0  0  0  0
   37.3200   32.7720   39.9880 C   0  0  0  0  0  0  0  0  0  0  0  0
   36.3710   33.0480   39.5400 H   0  0  0  0  0  0  0  0  0  0  0  0
   38.3980   33.5940   39.8630 C   0  0  0  0  0  3  0  0  0  0  0  0
   39.6100   33.2660   40.4190 C   0  0  0  0  0  3  0  0  0  0  0  0
   39.1530   31.6000   41.2050 S   0  0  0  0  0  0  0  0  0  0  0  0
   36.9590   28.1300   42.9620 C   0  0  0  0  0  0  0  0  0  0  0  0
   36.2280   27.7030   43.7180 H   0  0  0  0  0  0  0  0  0  0  0  0
   37.4080   29.0700   43.2530 H   0  0  0  0  0  0  0  0  0  0  0  0
   39.9150   25.9080   43.6230 C   0  0  0  0  0  0  0  0  0  0  0  0
   39.0400   27.0340   43.6800 C   0  0  0  0  0  0  0  0  0  0  0  0
   37.8800   26.9580   42.9600 C   0  0  0  0  0  0  0  0  0  0  0  0
   37.5970   25.8430   42.2290 N   0  0  0  0  0  0  0  0  0  0  0  0
   38.4280   24.8040   42.1910 C   0  0  0  0  0  0  0  0  0  0  0  0
   39.5800   24.8230   42.8760 N   0  0  0  0  0  0  0  0  0  0  0  0
   40.8580   25.8670   44.1550 H   0  0  0  0  0  0  0  0  0  0  0  0
   39.4340   27.7920   44.3110 H   0  0  0  0  0  0  0  0  0  0  0  0
   38.1800   23.9320   41.6030 H   0  0  0  0  0  0  0  0  0  0  0  0
  1  2  1  0  0  0  0
  1 17  1  0  0  0  0
  3  1  1  0  0  0  0
  4  7  1  6  0  0  0
  4  6  1  0  0  0  0
  4  1  1  0  0  0  0
  5  4  1  0  0  0  0
  5  6  1  0  0  0  0
  6 10  1  1  0  0  0
  8  5  1  0  0  0  0
  9  5  1  0  0  0  0
 11  6  1  0  0  0  0
 11 16  1  0  0  0  0
 12 11  2  0  0  0  0
 13 12  1  0  0  0  0
 14 12  1  0  0  0  0
 14 15  2  0  0  0  0
 15 16  1  0  0  0  0
 17 19  1  0  0  0  0
 17 18  1  0  0  0  0
 20 21  1  0  0  0  0
 20 26  1  0  0  0  0
 21 27  1  0  0  0  0
 22 17  1  0  0  0  0
 22 21  2  0  0  0  0
 23 22  1  0  0  0  0
 24 23  2  0  0  0  0
 24 25  1  0  0  0  0
 25 20  2  0  0  0  0
 28 24  1  0  0  0  0
M  END
>  <minimizedAffinity>
-4.56130409

$$$$

 OpenBabel03252502453D

 28 30  0  0  1  0  0  0  0  0999 V2000
   36.0430   28.6820   39.2850 C   0  0  0  0  0  0  0  0  0  0  0  0
   35.2080   28.9420   38.5610 H   0  0  0  0  0  0  0  0  0  0  0  0
   36.4950   27.7090   39.1030 H   0  0  0  0  0  0  0  0  0  0  0  0
   37.0600   29.7610   39.0770 C   0  0  1  0  0  0  0  0  0  0  0  0
   37.0050   30.5040   37.7780 C   0  0  0  0  0  0  0  0  0  0  0  0
   36.5950   31.1370   39.0590 C   0  0  2  0  0  0  0  0  0  0  0  0
   38.0600   29.4680   39.5030 H   0  0  0  0  0  0  0  0  0  0  0  0
   36.3000   30.2440   36.9730 H   0  0  0  0  0  0  0  0  0  0  0  0
   38.0100   30.7060   37.3490 H   0  0  0  0  0  0  0  0  0  0  0  0
   35.6900   31.6010   39.3560 H   0  0  0  0  0  0  0  0  0  0  0  0
   37.7280   32.1160   39.5860 C   0  0  0  0  0  0  0  0  0  0  0  0
   37.5220   33.4370   39.7090 C   0  0  0  0  0  0  0  0  0  0  0  0
   36.5880   33.9340   39.4640 H   0  0  0  0  0  0  0  0  0  0  0  0
   38.5780   34.1590   40.1740 C   0  0  0  0  0  3  0  0  0  0  0  0
   39.7690   33.5540   40.4890 C   0  0  0  0  0  3  0  0  0  0  0  0
   39.3250   31.7550   40.0750 S   0  0  0  0  0  0  0  0  0  0  0  0
   35.5310   28.8700   40.7070 C   0  0  0  0  0  0  0  0  0  0  0  0
   34.8420   27.9910   40.9130 H   0  0  0  0  0  0  0  0  0  0  0  0
   35.0940   29.8390   40.9070 H   0  0  0  0  0  0  0  0  0  0  0  0
   37.9440   26.7530   42.6560 C   0  0  0  0  0  0  0  0  0  0  0  0
   36.9380   27.1240   41.7140 C   0  0  0  0  0  0  0  0  0  0  0  0
   36.6050   28.4480   41.6510 C   0  0  0  0  0  0  0  0  0  0  0  0
   37.2220   29.3520   42.4630 N   0  0  0  0  0  0  0  0  0  0  0  0
   38.1580   28.9820   43.3330 C   0  0  0  0  0  0  0  0  0  0  0  0
   38.5250   27.6970   43.4410 N   0  0  0  0  0  0  0  0  0  0  0  0
   38.2810   25.7300   42.7870 H   0  0  0  0  0  0  0  0  0  0  0  0
   36.5920   26.2790   41.1710 H   0  0  0  0  0  0  0  0  0  0  0  0
   38.6320   29.7190   43.9660 H   0  0  0  0  0  0  0  0  0  0  0  0
  1 17  1  0  0  0  0
  2  1  1  0  0  0  0
  3  1  1  0  0  0  0
  4  1  1  0  0  0  0
  4  7  1  1  0  0  0
  5  6  1  0  0  0  0
  5  4  1  0  0  0  0
  6  4  1  0  0  0  0
  6 10  1  1  0  0  0
  6 11  1  0  0  0  0
  8  5  1  0  0  0  0
  9  5  1  0  0  0  0
 11 12  2  0  0  0  0
 11 16  1  0  0  0  0
 12 14  1  0  0  0  0
 13 12  1  0  0  0  0
 14 15  2  0  0  0  0
 16 15  1  0  0  0  0
 17 19  1  0  0  0  0
 17 18  1  0  0  0  0
 17 22  1  0  0  0  0
 20 26  1  0  0  0  0
 20 25  1  0  0  0  0
 21 20  2  0  0  0  0
 22 21  1  0  0  0  0
 22 23  2  0  0  0  0
 23 24  1  0  0  0  0
 24 25  2  0  0  0  0
 24 28  1  0  0  0  0
 27 21  1  0  0  0  0
M  END
>  <minimizedAffinity>
-4.54192734

$$$$

 OpenBabel03252502453D

 28 30  0  0  1  0  0  0  0  0999 V2000
   37.7840   28.0370   43.6160 C   0  0  0  0  0  0  0  0  0  0  0  0
   38.8230   27.5950   43.5060 H   0  0  0  0  0  0  0  0  0  0  0  0
   37.5030   28.2470   44.6460 H   0  0  0  0  0  0  0  0  0  0  0  0
   37.8440   29.3140   42.8370 C   0  0  1  0  0  0  0  0  0  0  0  0
   39.1530   30.0410   42.8250 C   0  0  0  0  0  0  0  0  0  0  0  0
   38.6420   29.3300   41.6240 C   0  0  2  0  0  0  0  0  0  0  0  0
   36.8870   29.9000   42.9380 H   0  0  0  0  0  0  0  0  0  0  0  0
   40.0250   29.7070   43.4070 H   0  0  0  0  0  0  0  0  0  0  0  0
   39.0390   31.1430   42.9150 H   0  0  0  0  0  0  0  0  0  0  0  0
   39.0680   28.5680   41.0240 H   0  0  0  0  0  0  0  0  0  0  0  0
   38.0440   30.3630   40.5750 C   0  0  0  0  0  0  0  0  0  0  0  0
   37.2990   29.9620   39.5330 C   0  0  0  0  0  0  0  0  0  0  0  0
   37.0500   28.9270   39.3230 H   0  0  0  0  0  0  0  0  0  0  0  0
   36.8500   30.9520   38.7130 C   0  0  0  0  0  3  0  0  0  0  0  0
   37.1530   32.2690   38.9560 C   0  0  0  0  0  3  0  0  0  0  0  0
   38.1940   32.0640   40.5310 S   0  0  0  0  0  0  0  0  0  0  0  0
   36.7940   27.1490   42.8730 C   0  0  0  0  0  0  0  0  0  0  0  0
   36.6490   27.6240   41.8520 H   0  0  0  0  0  0  0  0  0  0  0  0
   35.8770   26.9460   43.4090 H   0  0  0  0  0  0  0  0  0  0  0  0
   37.5430   23.8120   41.3200 C   0  0  0  0  0  0  0  0  0  0  0  0
   36.8170   24.9650   41.7430 C   0  0  0  0  0  0  0  0  0  0  0  0
   37.5240   25.9460   42.3810 C   0  0  0  0  0  0  0  0  0  0  0  0
   38.8630   25.8020   42.5900 N   0  0  0  0  0  0  0  0  0  0  0  0
   39.5200   24.7180   42.1860 C   0  0  0  0  0  0  0  0  0  0  0  0
   38.8780   23.7230   41.5570 N   0  0  0  0  0  0  0  0  0  0  0  0
   37.0780   22.9780   40.8070 H   0  0  0  0  0  0  0  0  0  0  0  0
   35.7920   24.8910   41.4770 H   0  0  0  0  0  0  0  0  0  0  0  0
   40.5820   24.6290   42.3640 H   0  0  0  0  0  0  0  0  0  0  0  0
  1  3  1  0  0  0  0
  2  1  1  0  0  0  0
  4  7  1  1  0  0  0
  4  1  1  0  0  0  0
  5  4  1  0  0  0  0
  5  9  1  0  0  0  0
  5  8  1  0  0  0  0
  6 10  1  6  0  0  0
  6  5  1  0  0  0  0
  6  4  1  0  0  0  0
 11  6  1  0  0  0  0
 12 11  2  0  0  0  0
 13 12  1  0  0  0  0
 14 15  2  0  0  0  0
 14 12  1  0  0  0  0
 15 16  1  0  0  0  0
 16 11  1  0  0  0  0
 17 19  1  0  0  0  0
 17  1  1  0  0  0  0
 18 17  1  0  0  0  0
 20 25  2  0  0  0  0
 20 21  1  0  0  0  0
 21 22  2  0  0  0  0
 22 23  1  0  0  0  0
 22 17  1  0  0  0  0
 24 28  1  0  0  0  0
 24 23  2  0  0  0  0
 25 24  1  0  0  0  0
 26 20  1  0  0  0  0
 27 21  1  0  0  0  0
M  END
>  <minimizedAffinity>
-4.45425034

$$$$

 OpenBabel03252502453D

 28 30  0  0  1  0  0  0  0  0999 V2000
   36.3350   30.3520   38.3260 C   0  0  0  0  0  0  0  0  0  0  0  0
   36.0990   29.4200   37.7220 H   0  0  0  0  0  0  0  0  0  0  0  0
   35.6290   31.1660   38.1720 H   0  0  0  0  0  0  0  0  0  0  0  0
   36.2800   29.8930   39.7490 C   0  0  1  0  0  0  0  0  0  0  0  0
   35.0150   29.2290   40.1990 C   0  0  0  0  0  0  0  0  0  0  0  0
   36.2730   28.4620   40.0000 C   0  0  2  0  0  0  0  0  0  0  0  0
   36.7940   30.6230   40.4350 H   0  0  0  0  0  0  0  0  0  0  0  0
   34.1310   29.1300   39.5500 H   0  0  0  0  0  0  0  0  0  0  0  0
   34.7010   29.5360   41.2190 H   0  0  0  0  0  0  0  0  0  0  0  0
   36.4950   27.6190   39.3980 H   0  0  0  0  0  0  0  0  0  0  0  0
   36.9560   28.1360   41.3960 C   0  0  0  0  0  0  0  0  0  0  0  0
   37.4090   29.1060   42.2070 C   0  0  0  0  0  0  0  0  0  0  0  0
   37.3480   30.1660   41.9820 H   0  0  0  0  0  0  0  0  0  0  0  0
   37.9710   28.6860   43.3730 C   0  0  0  0  0  3  0  0  0  0  0  0
   38.0610   27.3500   43.6780 C   0  0  0  0  0  3  0  0  0  0  0  0
   37.2490   26.6190   42.1260 S   0  0  0  0  0  0  0  0  0  0  0  0
   37.7880   30.7390   38.0760 C   0  0  0  0  0  0  0  0  0  0  0  0
   37.7830   31.4030   37.1550 H   0  0  0  0  0  0  0  0  0  0  0  0
   38.4760   29.9070   38.0250 H   0  0  0  0  0  0  0  0  0  0  0  0
   37.7980   33.9690   39.9920 C   0  0  0  0  0  0  0  0  0  0  0  0
   37.3910   32.9460   39.0840 C   0  0  0  0  0  0  0  0  0  0  0  0
   38.1570   31.8140   39.0390 C   0  0  0  0  0  0  0  0  0  0  0  0
   39.2560   31.6960   39.8370 N   0  0  0  0  0  0  0  0  0  0  0  0
   39.6160   32.6640   40.6760 C   0  0  0  0  0  0  0  0  0  0  0  0
   38.9030   33.7960   40.7630 N   0  0  0  0  0  0  0  0  0  0  0  0
   37.2620   34.9050   40.1050 H   0  0  0  0  0  0  0  0  0  0  0  0
   36.5080   33.2240   38.5650 H   0  0  0  0  0  0  0  0  0  0  0  0
   40.4920   32.5440   41.2980 H   0  0  0  0  0  0  0  0  0  0  0  0
  1  4  1  0  0  0  0
  2  1  1  0  0  0  0
  3  1  1  0  0  0  0
  4  6  1  0  0  0  0
  4  5  1  0  0  0  0
  4  7  1  1  0  0  0
  5  9  1  0  0  0  0
  6 10  1  6  0  0  0
  6  5  1  0  0  0  0
  6 11  1  0  0  0  0
  8  5  1  0  0  0  0
 11 16  1  0  0  0  0
 11 12  2  0  0  0  0
 12 14  1  0  0  0  0
 13 12  1  0  0  0  0
 14 15  2  0  0  0  0
 16 15  1  0  0  0  0
 17  1  1  0  0  0  0
 17 22  1  0  0  0  0
 18 17  1  0  0  0  0
 19 17  1  0  0  0  0
 20 26  1  0  0  0  0
 20 25  1  0  0  0  0
 21 20  2  0  0  0  0
 22 21  1  0  0  0  0
 22 23  2  0  0  0  0
 23 24  1  0  0  0  0
 24 25  2  0  0  0  0
 24 28  1  0  0  0  0
 27 21  1  0  0  0  0
M  END
>  <minimizedAffinity>
-4.38151407

$$$$

 OpenBabel03252502453D

 28 30  0  0  1  0  0  0  0  0999 V2000
   38.3540   28.2220   43.3330 C   0  0  0  0  0  0  0  0  0  0  0  0
   39.0270   27.5940   42.6690 H   0  0  0  0  0  0  0  0  0  0  0  0
   38.5990   28.1600   44.3920 H   0  0  0  0  0  0  0  0  0  0  0  0
   38.5600   29.6220   42.8460 C   0  0  1  0  0  0  0  0  0  0  0  0
   39.9740   30.0600   42.6150 C   0  0  0  0  0  0  0  0  0  0  0  0
   39.0400   29.8030   41.4870 C   0  0  2  0  0  0  0  0  0  0  0  0
   37.8340   30.3350   43.3290 H   0  0  0  0  0  0  0  0  0  0  0  0
   40.8400   29.4210   42.8470 H   0  0  0  0  0  0  0  0  0  0  0  0
   40.1690   31.0990   42.9560 H   0  0  0  0  0  0  0  0  0  0  0  0
   39.1090   29.1580   40.6490 H   0  0  0  0  0  0  0  0  0  0  0  0
   38.5050   31.1710   40.8830 C   0  0  0  0  0  0  0  0  0  0  0  0
   39.1910   32.3180   41.0080 C   0  0  0  0  0  0  0  0  0  0  0  0
   40.1440   32.4060   41.5210 H   0  0  0  0  0  0  0  0  0  0  0  0
   38.6170   33.4150   40.4430 C   0  0  0  0  0  3  0  0  0  0  0  0
   37.4110   33.3300   39.7910 C   0  0  0  0  0  3  0  0  0  0  0  0
   37.0660   31.4760   40.0140 S   0  0  0  0  0  0  0  0  0  0  0  0
   36.9030   27.8860   43.0130 C   0  0  0  0  0  0  0  0  0  0  0  0
   36.5270   28.7190   42.3390 H   0  0  0  0  0  0  0  0  0  0  0  0
   36.2810   27.6930   43.8770 H   0  0  0  0  0  0  0  0  0  0  0  0
   37.1120   24.5420   41.3150 C   0  0  0  0  0  0  0  0  0  0  0  0
   37.0940   25.5270   42.3480 C   0  0  0  0  0  0  0  0  0  0  0  0
   36.8880   26.8240   41.9680 C   0  0  0  0  0  0  0  0  0  0  0  0
   36.7110   27.1340   40.6530 N   0  0  0  0  0  0  0  0  0  0  0  0
   36.7310   26.1990   39.7060 C   0  0  0  0  0  0  0  0  0  0  0  0
   36.9300   24.9110   40.0200 N   0  0  0  0  0  0  0  0  0  0  0  0
   37.2680   23.4870   41.5090 H   0  0  0  0  0  0  0  0  0  0  0  0
   37.2380   25.0830   43.3020 H   0  0  0  0  0  0  0  0  0  0  0  0
   36.5870   26.4730   38.6710 H   0  0  0  0  0  0  0  0  0  0  0  0
  1  3  1  0  0  0  0
  2  1  1  0  0  0  0
  4  7  1  1  0  0  0
  4  1  1  0  0  0  0
  5  4  1  0  0  0  0
  5  8  1  0  0  0  0
  5  9  1  0  0  0  0
  6 10  1  6  0  0  0
  6  5  1  0  0  0  0
  6  4  1  0  0  0  0
 11 12  2  0  0  0  0
 11  6  1  0  0  0  0
 12 13  1  0  0  0  0
 14 12  1  0  0  0  0
 15 16  1  0  0  0  0
 15 14  2  0  0  0  0
 16 11  1  0  0  0  0
 17  1  1  0  0  0  0
 17 19  1  0  0  0  0
 18 17  1  0  0  0  0
 20 26  1  0  0  0  0
 20 21  1  0  0  0  0
 21 27  1  0  0  0  0
 22 21  2  0  0  0  0
 22 17  1  0  0  0  0
 23 22  1  0  0  0  0
 24 25  1  0  0  0  0
 24 23  2  0  0  0  0
 25 20  2  0  0  0  0
 28 24  1  0  0  0  0
M  END
>  <minimizedAffinity>
-4.28069544

$$$$

 OpenBabel03252502453D

 28 30  0  0  1  0  0  0  0  0999 V2000
   37.9050   25.7690   42.4850 C   0  0  0  0  0  0  0  0  0  0  0  0
   38.6600   25.7290   41.6380 H   0  0  0  0  0  0  0  0  0  0  0  0
   38.3410   25.6130   43.4700 H   0  0  0  0  0  0  0  0  0  0  0  0
   37.3270   27.1470   42.3970 C   0  0  1  0  0  0  0  0  0  0  0  0
   37.2130   27.9180   43.6750 C   0  0  0  0  0  0  0  0  0  0  0  0
   38.2150   28.2710   42.6350 C   0  0  2  0  0  0  0  0  0  0  0  0
   36.4860   27.1900   41.6490 H   0  0  0  0  0  0  0  0  0  0  0  0
   37.4760   27.4890   44.6550 H   0  0  0  0  0  0  0  0  0  0  0  0
   36.2630   28.4890   43.7560 H   0  0  0  0  0  0  0  0  0  0  0  0
   39.2690   28.3670   42.6780 H   0  0  0  0  0  0  0  0  0  0  0  0
   37.7400   29.5420   41.8100 C   0  0  0  0  0  0  0  0  0  0  0  0
   36.4680   29.6910   41.4070 C   0  0  0  0  0  0  0  0  0  0  0  0
   35.6780   28.9730   41.6040 H   0  0  0  0  0  0  0  0  0  0  0  0
   36.1990   30.8280   40.7090 C   0  0  0  0  0  3  0  0  0  0  0  0
   37.1820   31.7500   40.4460 C   0  0  0  0  0  3  0  0  0  0  0  0
   38.6500   30.8920   41.2910 S   0  0  0  0  0  0  0  0  0  0  0  0
   36.7570   24.8200   42.1600 C   0  0  0  0  0  0  0  0  0  0  0  0
   35.9050   25.4730   41.7890 H   0  0  0  0  0  0  0  0  0  0  0  0
   36.4890   24.1430   42.9590 H   0  0  0  0  0  0  0  0  0  0  0  0
   38.2630   22.6270   39.5090 C   0  0  0  0  0  0  0  0  0  0  0  0
   37.9910   23.1940   40.7900 C   0  0  0  0  0  0  0  0  0  0  0  0
   37.0410   24.1760   40.8470 C   0  0  0  0  0  0  0  0  0  0  0  0
   36.3980   24.5750   39.7140 N   0  0  0  0  0  0  0  0  0  0  0  0
   36.6680   24.0310   38.5300 C   0  0  0  0  0  0  0  0  0  0  0  0
   37.5900   23.0650   38.4140 N   0  0  0  0  0  0  0  0  0  0  0  0
   38.9970   21.8440   39.3550 H   0  0  0  0  0  0  0  0  0  0  0  0
   38.5870   22.7400   41.5440 H   0  0  0  0  0  0  0  0  0  0  0  0
   36.1430   24.3660   37.6470 H   0  0  0  0  0  0  0  0  0  0  0  0
  1  3  1  0  0  0  0
  2  1  1  0  0  0  0
  4  7  1  6  0  0  0
  4  1  1  0  0  0  0
  4  6  1  0  0  0  0
  4  5  1  0  0  0  0
  5  9  1  0  0  0  0
  5  8  1  0  0  0  0
  6 10  1  1  0  0  0
  6  5  1  0  0  0  0
 11  6  1  0  0  0  0
 12 13  1  0  0  0  0
 12 11  2  0  0  0  0
 14 12  1  0  0  0  0
 15 14  2  0  0  0  0
 15 16  1  0  0  0  0
 16 11  1  0  0  0  0
 17  1  1  0  0  0  0
 17 19  1  0  0  0  0
 18 17  1  0  0  0  0
 20 21  1  0  0  0  0
 21 22  2  0  0  0  0
 21 27  1  0  0  0  0
 22 17  1  0  0  0  0
 23 22  1  0  0  0  0
 24 23  2  0  0  0  0
 25 24  1  0  0  0  0
 25 20  2  0  0  0  0
 26 20  1  0  0  0  0
 28 24  1  0  0  0  0
M  END
>  <minimizedAffinity>
-4.24346733

$$$$

 OpenBabel03252502453D

 28 30  0  0  1  0  0  0  0  0999 V2000
   38.7970   27.1160   43.5940 C   0  0  0  0  0  0  0  0  0  0  0  0
   38.6990   26.3620   44.4380 H   0  0  0  0  0  0  0  0  0  0  0  0
   39.7730   27.5950   43.5450 H   0  0  0  0  0  0  0  0  0  0  0  0
   38.5630   26.3120   42.3540 C   0  0  1  0  0  0  0  0  0  0  0  0
   38.6450   24.8220   42.4840 C   0  0  0  0  0  0  0  0  0  0  0  0
   37.3480   25.5190   42.2790 C   0  0  2  0  0  0  0  0  0  0  0  0
   39.0130   26.8120   41.4510 H   0  0  0  0  0  0  0  0  0  0  0  0
   38.9260   24.3220   43.4240 H   0  0  0  0  0  0  0  0  0  0  0  0
   39.1640   24.3380   41.6290 H   0  0  0  0  0  0  0  0  0  0  0  0
   36.4500   25.5130   42.8400 H   0  0  0  0  0  0  0  0  0  0  0  0
   36.8680   25.3730   40.7720 C   0  0  0  0  0  0  0  0  0  0  0  0
   36.7410   26.4370   39.9630 C   0  0  0  0  0  0  0  0  0  0  0  0
   36.9500   27.4590   40.2620 H   0  0  0  0  0  0  0  0  0  0  0  0
   36.3210   26.1690   38.6960 C   0  0  0  0  0  3  0  0  0  0  0  0
   36.0490   24.8840   38.2950 C   0  0  0  0  0  3  0  0  0  0  0  0
   36.4400   23.9630   39.9080 S   0  0  0  0  0  0  0  0  0  0  0  0
   37.6320   28.0930   43.6760 C   0  0  0  0  0  0  0  0  0  0  0  0
   37.7570   28.6520   44.6570 H   0  0  0  0  0  0  0  0  0  0  0  0
   36.6560   27.6480   43.5350 H   0  0  0  0  0  0  0  0  0  0  0  0
   37.3330   30.7520   41.0400 C   0  0  0  0  0  0  0  0  0  0  0  0
   36.9920   29.6590   41.8910 C   0  0  0  0  0  0  0  0  0  0  0  0
   37.9350   29.2570   42.7960 C   0  0  0  0  0  0  0  0  0  0  0  0
   39.1390   29.8920   42.8600 N   0  0  0  0  0  0  0  0  0  0  0  0
   39.4350   30.9090   42.0560 C   0  0  0  0  0  0  0  0  0  0  0  0
   38.5500   31.3460   41.1490 N   0  0  0  0  0  0  0  0  0  0  0  0
   36.6580   31.1470   40.2890 H   0  0  0  0  0  0  0  0  0  0  0  0
   36.0070   29.3130   41.6940 H   0  0  0  0  0  0  0  0  0  0  0  0
   40.3980   31.3950   42.1270 H   0  0  0  0  0  0  0  0  0  0  0  0
  1 17  1  0  0  0  0
  1  2  1  0  0  0  0
  3  1  1  0  0  0  0
  4  7  1  6  0  0  0
  4  5  1  0  0  0  0
  4  1  1  0  0  0  0
  5  8  1  0  0  0  0
  6  4  1  0  0  0  0
  6  5  1  0  0  0  0
  6 10  1  1  0  0  0
  9  5  1  0  0  0  0
 11  6  1  0  0  0  0
 12 13  1  0  0  0  0
 12 11  2  0  0  0  0
 14 12  1  0  0  0  0
 15 14  2  0  0  0  0
 15 16  1  0  0  0  0
 16 11  1  0  0  0  0
 17 18  1  0  0  0  0
 19 17  1  0  0  0  0
 20 25  2  0  0  0  0
 20 21  1  0  0  0  0
 21 22  2  0  0  0  0
 22 23  1  0  0  0  0
 22 17  1  0  0  0  0
 24 28  1  0  0  0  0
 24 23  2  0  0  0  0
 25 24  1  0  0  0  0
 26 20  1  0  0  0  0
 27 21  1  0  0  0  0
M  END
>  <minimizedAffinity>
-4.19330502

$$$$

 OpenBabel03252502453D

 28 30  0  0  1  0  0  0  0  0999 V2000
   38.6100   30.2610   42.0380 C   0  0  0  0  0  0  0  0  0  0  0  0
   37.7750   30.7780   42.6080 H   0  0  0  0  0  0  0  0  0  0  0  0
   39.6070   30.5150   42.3930 H   0  0  0  0  0  0  0  0  0  0  0  0
   38.3510   28.8020   42.2480 C   0  0  1  0  0  0  0  0  0  0  0  0
   37.6000   28.4170   43.4850 C   0  0  0  0  0  0  0  0  0  0  0  0
   36.9810   28.3340   42.1370 C   0  0  2  0  0  0  0  0  0  0  0  0
   39.2300   28.1790   41.9200 H   0  0  0  0  0  0  0  0  0  0  0  0
   37.2980   29.1490   44.2510 H   0  0  0  0  0  0  0  0  0  0  0  0
   38.0050   27.5050   43.9750 H   0  0  0  0  0  0  0  0  0  0  0  0
   36.0970   28.7620   41.7410 H   0  0  0  0  0  0  0  0  0  0  0  0
   36.9450   26.8280   41.6310 C   0  0  0  0  0  0  0  0  0  0  0  0
   37.0090   25.7930   42.4820 C   0  0  0  0  0  0  0  0  0  0  0  0
   37.0890   25.8930   43.5600 H   0  0  0  0  0  0  0  0  0  0  0  0
   36.9670   24.5570   41.9140 C   0  0  0  0  0  3  0  0  0  0  0  0
   36.8670   24.4040   40.5530 C   0  0  0  0  0  3  0  0  0  0  0  0
   36.8280   26.2300   40.0350 S   0  0  0  0  0  0  0  0  0  0  0  0
   38.4040   30.5040   40.5480 C   0  0  0  0  0  0  0  0  0  0  0  0
   37.3380   30.8770   40.4340 H   0  0  0  0  0  0  0  0  0  0  0  0
   38.6570   29.6660   39.9130 H   0  0  0  0  0  0  0  0  0  0  0  0
   40.6330   33.0460   38.9110 C   0  0  0  0  0  0  0  0  0  0  0  0
   40.0010   31.7990   39.1990 C   0  0  0  0  0  0  0  0  0  0  0  0
   39.0590   31.7940   40.1900 C   0  0  0  0  0  0  0  0  0  0  0  0
   38.7560   32.9440   40.8560 N   0  0  0  0  0  0  0  0  0  0  0  0
   39.3580   34.0960   40.5690 C   0  0  0  0  0  0  0  0  0  0  0  0
   40.2910   34.1600   39.6080 N   0  0  0  0  0  0  0  0  0  0  0  0
   41.3930   33.1580   38.1460 H   0  0  0  0  0  0  0  0  0  0  0  0
   40.3660   31.0300   38.5650 H   0  0  0  0  0  0  0  0  0  0  0  0
   39.0990   34.9930   41.1120 H   0  0  0  0  0  0  0  0  0  0  0  0
  1  4  1  0  0  0  0
  1  3  1  0  0  0  0
  1  2  1  0  0  0  0
  4  7  1  6  0  0  0
  4  5  1  0  0  0  0
  5  9  1  0  0  0  0
  5  8  1  0  0  0  0
  6 10  1  6  0  0  0
  6  4  1  0  0  0  0
  6  5  1  0  0  0  0
 11  6  1  0  0  0  0
 11 12  2  0  0  0  0
 12 13  1  0  0  0  0
 14 12  1  0  0  0  0
 15 14  2  0  0  0  0
 16 15  1  0  0  0  0
 16 11  1  0  0  0  0
 17  1  1  0  0  0  0
 18 17  1  0  0  0  0
 19 17  1  0  0  0  0
 20 21  2  0  0  0  0
 20 25  1  0  0  0  0
 21 22  1  0  0  0  0
 22 17  1  0  0  0  0
 22 23  2  0  0  0  0
 24 23  1  0  0  0  0
 24 28  1  0  0  0  0
 25 24  2  0  0  0  0
 26 20  1  0  0  0  0
 27 21  1  0  0  0  0
M  END
>  <minimizedAffinity>
-4.16527891

$$$$
