
 OpenBabel03242517093D

 31 33  0  0  1  0  0  0  0  0999 V2000
   36.4990   30.1980   40.1860 C   0  0  2  0  0  0  0  0  0  0  0  0
   36.8810   29.5380   38.9190 C   0  0  2  0  0  0  0  0  0  0  0  0
   37.9480   30.2910   38.1720 C   0  0  0  0  0  0  0  0  0  0  0  0
   37.6130   31.7430   37.9410 C   0  0  0  0  0  0  0  0  0  0  0  0
   37.0070   32.4130   39.1380 C   0  0  0  0  0  0  0  0  0  0  0  0
   37.1280   31.5690   40.3850 C   0  0  0  0  0  0  0  0  0  0  0  0
   35.3940   30.4120   40.3020 H   0  0  0  0  0  0  0  0  0  0  0  0
   37.3920   28.5550   39.1770 H   0  0  0  0  0  0  0  0  0  0  0  0
   38.9470   30.2630   38.6050 H   0  0  0  0  0  0  0  0  0  0  0  0
   38.0420   29.8370   37.1590 H   0  0  0  0  0  0  0  0  0  0  0  0
   36.9490   31.8790   37.0620 H   0  0  0  0  0  0  0  0  0  0  0  0
   38.5470   32.2960   37.7030 H   0  0  0  0  0  0  0  0  0  0  0  0
   35.9350   32.6680   39.0120 H   0  0  0  0  0  0  0  0  0  0  0  0
   37.4910   33.3980   39.3560 H   0  0  0  0  0  0  0  0  0  0  0  0
   36.6170   32.0860   41.1970 H   0  0  0  0  0  0  0  0  0  0  0  0
   38.2220   31.4820   40.6010 H   0  0  0  0  0  0  0  0  0  0  0  0
   36.8730   29.3840   41.3610 C   0  0  0  0  0  0  0  0  0  0  0  0
   38.0080   29.8500   42.0890 C   0  0  0  0  0  0  0  0  0  0  0  0
   38.4430   29.1350   43.2100 C   0  0  0  0  0  0  0  0  0  0  0  0
   37.7290   28.0100   43.5420 N   0  0  0  0  0  0  0  0  0  0  0  0
   36.6510   27.5930   42.8290 C   0  0  0  0  0  0  0  0  0  0  0  0
   36.2400   28.2790   41.7560 N   0  0  0  0  0  0  0  0  0  0  0  0
   38.6080   30.7050   41.9070 H   0  0  0  0  0  0  0  0  0  0  0  0
   39.2930   29.4230   43.8120 H   0  0  0  0  0  0  0  0  0  0  0  0
   36.1390   26.6990   43.1490 H   0  0  0  0  0  0  0  0  0  0  0  0
   35.7330   29.2770   38.0390 C   0  0  0  0  0  0  0  0  0  0  0  0
   34.3330   29.1220   38.2520 C   0  0  0  0  0  0  0  0  0  0  0  0
   33.9420   29.1960   39.2490 H   0  0  0  0  0  0  0  0  0  0  0  0
   33.5710   28.8860   37.1540 C   0  0  0  0  0  3  0  0  0  0  0  0
   34.1010   28.7920   35.8560 C   0  0  0  0  0  3  0  0  0  0  0  0
   35.9440   29.0770   36.2210 S   0  0  0  0  0  0  0  0  0  0  0  0
  1  7  1  1  0  0  0
  1  6  1  0  0  0  0
  1 17  1  0  0  0  0
  2  8  1  1  0  0  0
  2  1  1  0  0  0  0
  3  9  1  0  0  0  0
  3  2  1  0  0  0  0
  4  3  1  0  0  0  0
  4  5  1  0  0  0  0
  5 14  1  0  0  0  0
  5  6  1  0  0  0  0
  6 16  1  0  0  0  0
  6 15  1  0  0  0  0
 10  3  1  0  0  0  0
 11  4  1  0  0  0  0
 12  4  1  0  0  0  0
 13  5  1  0  0  0  0
 17 22  2  0  0  0  0
 17 18  1  0  0  0  0
 18 19  2  0  0  0  0
 19 20  1  0  0  0  0
 19 24  1  0  0  0  0
 21 25  1  0  0  0  0
 21 20  2  0  0  0  0
 22 21  1  0  0  0  0
 23 18  1  0  0  0  0
 26 27  2  0  0  0  0
 26  2  1  0  0  0  0
 27 28  1  0  0  0  0
 29 27  1  0  0  0  0
 30 31  1  0  0  0  0
 30 29  2  0  0  0  0
 31 26  1  0  0  0  0
M  END
>  <minimizedAffinity>
-4.85789871

$$$$

 OpenBabel03242517093D

 31 33  0  0  1  0  0  0  0  0999 V2000
   37.4070   30.2520   41.0920 C   0  0  2  0  0  0  0  0  0  0  0  0
   38.1800   29.1060   40.5660 C   0  0  2  0  0  0  0  0  0  0  0  0
   37.4440   28.3560   39.4900 C   0  0  0  0  0  0  0  0  0  0  0  0
   36.0560   27.9270   39.8940 C   0  0  0  0  0  0  0  0  0  0  0  0
   35.2980   28.9850   40.6380 C   0  0  0  0  0  0  0  0  0  0  0  0
   35.9800   30.3300   40.5680 C   0  0  0  0  0  0  0  0  0  0  0  0
   37.2600   30.2580   42.2140 H   0  0  0  0  0  0  0  0  0  0  0  0
   39.0870   29.5190   40.0180 H   0  0  0  0  0  0  0  0  0  0  0  0
   37.3500   28.8630   38.5300 H   0  0  0  0  0  0  0  0  0  0  0  0
   38.0040   27.4150   39.2840 H   0  0  0  0  0  0  0  0  0  0  0  0
   36.0700   26.9900   40.4900 H   0  0  0  0  0  0  0  0  0  0  0  0
   35.4690   27.6940   38.9800 H   0  0  0  0  0  0  0  0  0  0  0  0
   35.1360   28.7490   41.7090 H   0  0  0  0  0  0  0  0  0  0  0  0
   34.2610   29.1180   40.2350 H   0  0  0  0  0  0  0  0  0  0  0  0
   35.4110   31.0330   41.1760 H   0  0  0  0  0  0  0  0  0  0  0  0
   35.9630   30.6370   39.4920 H   0  0  0  0  0  0  0  0  0  0  0  0
   38.0500   31.5410   40.7670 C   0  0  0  0  0  0  0  0  0  0  0  0
   37.2150   32.4910   40.1060 C   0  0  0  0  0  0  0  0  0  0  0  0
   37.7420   33.7360   39.7490 C   0  0  0  0  0  0  0  0  0  0  0  0
   39.0580   33.9650   40.0670 N   0  0  0  0  0  0  0  0  0  0  0  0
   39.8280   33.0410   40.6990 C   0  0  0  0  0  0  0  0  0  0  0  0
   39.3180   31.8500   41.0380 N   0  0  0  0  0  0  0  0  0  0  0  0
   36.1950   32.3990   39.8310 H   0  0  0  0  0  0  0  0  0  0  0  0
   37.1740   34.5060   39.2460 H   0  0  0  0  0  0  0  0  0  0  0  0
   40.8540   33.2920   40.9170 H   0  0  0  0  0  0  0  0  0  0  0  0
   38.6230   28.1810   41.6190 C   0  0  0  0  0  0  0  0  0  0  0  0
   38.4500   28.1280   43.0310 C   0  0  0  0  0  0  0  0  0  0  0  0
   37.8840   28.8980   43.5210 H   0  0  0  0  0  0  0  0  0  0  0  0
   39.0270   27.0830   43.6780 C   0  0  0  0  0  3  0  0  0  0  0  0
   39.7640   26.0840   43.0200 C   0  0  0  0  0  3  0  0  0  0  0  0
   39.6350   26.6940   41.2250 S   0  0  0  0  0  0  0  0  0  0  0  0
  1  7  1  1  0  0  0
  2  8  1  6  0  0  0
  2  1  1  0  0  0  0
  2 26  1  0  0  0  0
  3  4  1  0  0  0  0
  3  2  1  0  0  0  0
  4 11  1  0  0  0  0
  4  5  1  0  0  0  0
  5 13  1  0  0  0  0
  6  5  1  0  0  0  0
  6  1  1  0  0  0  0
  6 15  1  0  0  0  0
  9  3  1  0  0  0  0
 10  3  1  0  0  0  0
 12  4  1  0  0  0  0
 14  5  1  0  0  0  0
 16  6  1  0  0  0  0
 17 22  1  0  0  0  0
 17  1  1  0  0  0  0
 18 17  2  0  0  0  0
 19 20  2  0  0  0  0
 19 18  1  0  0  0  0
 20 21  1  0  0  0  0
 21 25  1  0  0  0  0
 21 22  2  0  0  0  0
 23 18  1  0  0  0  0
 24 19  1  0  0  0  0
 26 27  2  0  0  0  0
 27 28  1  0  0  0  0
 27 29  1  0  0  0  0
 30 29  2  0  0  0  0
 31 26  1  0  0  0  0
 31 30  1  0  0  0  0
M  END
>  <minimizedAffinity>
-4.85565329

$$$$

 OpenBabel03242517093D

 31 33  0  0  1  0  0  0  0  0999 V2000
   38.7350   28.2760   41.4640 C   0  0  2  0  0  0  0  0  0  0  0  0
   37.7750   27.5140   42.2930 C   0  0  2  0  0  0  0  0  0  0  0  0
   38.3000   27.2300   43.6730 C   0  0  0  0  0  0  0  0  0  0  0  0
   39.6570   26.5710   43.6800 C   0  0  0  0  0  0  0  0  0  0  0  0
   40.6120   27.1640   42.6880 C   0  0  0  0  0  0  0  0  0  0  0  0
   40.1000   28.4620   42.1090 C   0  0  0  0  0  0  0  0  0  0  0  0
   38.9910   27.8040   40.4690 H   0  0  0  0  0  0  0  0  0  0  0  0
   36.8770   28.1830   42.4910 H   0  0  0  0  0  0  0  0  0  0  0  0
   38.3610   28.0820   44.3490 H   0  0  0  0  0  0  0  0  0  0  0  0
   37.6100   26.5040   44.1600 H   0  0  0  0  0  0  0  0  0  0  0  0
   39.5850   25.4750   43.5180 H   0  0  0  0  0  0  0  0  0  0  0  0
   40.1170   26.6980   44.6830 H   0  0  0  0  0  0  0  0  0  0  0  0
   40.8490   26.4920   41.8380 H   0  0  0  0  0  0  0  0  0  0  0  0
   41.6120   27.3770   43.1450 H   0  0  0  0  0  0  0  0  0  0  0  0
   40.8110   28.8040   41.3570 H   0  0  0  0  0  0  0  0  0  0  0  0
   40.0480   29.1870   42.9600 H   0  0  0  0  0  0  0  0  0  0  0  0
   38.2290   29.6270   41.1450 C   0  0  0  0  0  0  0  0  0  0  0  0
   36.8080   29.7640   41.1510 C   0  0  0  0  0  0  0  0  0  0  0  0
   36.2380   31.0050   40.8490 C   0  0  0  0  0  0  0  0  0  0  0  0
   37.1050   32.0310   40.5620 N   0  0  0  0  0  0  0  0  0  0  0  0
   38.4540   31.8690   40.5660 C   0  0  0  0  0  0  0  0  0  0  0  0
   38.9940   30.6790   40.8540 N   0  0  0  0  0  0  0  0  0  0  0  0
   36.0720   29.0320   41.3670 H   0  0  0  0  0  0  0  0  0  0  0  0
   35.1730   31.1880   40.8330 H   0  0  0  0  0  0  0  0  0  0  0  0
   39.0720   32.7210   40.3300 H   0  0  0  0  0  0  0  0  0  0  0  0
   37.3270   26.2700   41.6530 C   0  0  0  0  0  0  0  0  0  0  0  0
   36.9280   24.9910   42.1360 C   0  0  0  0  0  0  0  0  0  0  0  0
   36.9280   24.8070   43.1940 H   0  0  0  0  0  0  0  0  0  0  0  0
   36.5700   24.0710   41.2050 C   0  0  0  0  0  3  0  0  0  0  0  0
   36.5780   24.3310   39.8240 C   0  0  0  0  0  3  0  0  0  0  0  0
   37.1780   26.1340   39.8220 S   0  0  0  0  0  0  0  0  0  0  0  0
  1  7  1  6  0  0  0
  1  6  1  0  0  0  0
  1  2  1  0  0  0  0
  2  8  1  1  0  0  0
  2  3  1  0  0  0  0
  3  4  1  0  0  0  0
  3 10  1  0  0  0  0
  3  9  1  0  0  0  0
  4 12  1  0  0  0  0
  5 14  1  0  0  0  0
  5  4  1  0  0  0  0
  6  5  1  0  0  0  0
  6 16  1  0  0  0  0
 11  4  1  0  0  0  0
 13  5  1  0  0  0  0
 15  6  1  0  0  0  0
 17 18  1  0  0  0  0
 17  1  1  0  0  0  0
 18 23  1  0  0  0  0
 19 18  2  0  0  0  0
 20 21  2  0  0  0  0
 20 19  1  0  0  0  0
 21 22  1  0  0  0  0
 22 17  2  0  0  0  0
 24 19  1  0  0  0  0
 25 21  1  0  0  0  0
 26 27  2  0  0  0  0
 26  2  1  0  0  0  0
 27 28  1  0  0  0  0
 29 27  1  0  0  0  0
 30 29  2  0  0  0  0
 31 30  1  0  0  0  0
 31 26  1  0  0  0  0
M  END
>  <minimizedAffinity>
-4.78253555

$$$$

 OpenBabel03242517093D

 31 33  0  0  1  0  0  0  0  0999 V2000
   37.6850   27.0120   41.2720 C   0  0  2  0  0  0  0  0  0  0  0  0
   37.9150   26.5380   42.6540 C   0  0  2  0  0  0  0  0  0  0  0  0
   37.1640   27.3460   43.6760 C   0  0  0  0  0  0  0  0  0  0  0  0
   37.4060   28.8310   43.5700 C   0  0  0  0  0  0  0  0  0  0  0  0
   37.4080   29.3360   42.1580 C   0  0  0  0  0  0  0  0  0  0  0  0
   36.8870   28.3050   41.1840 C   0  0  0  0  0  0  0  0  0  0  0  0
   38.6210   27.2570   40.6860 H   0  0  0  0  0  0  0  0  0  0  0  0
   37.4510   25.5050   42.7500 H   0  0  0  0  0  0  0  0  0  0  0  0
   36.0840   27.2050   43.7000 H   0  0  0  0  0  0  0  0  0  0  0  0
   37.5320   27.0510   44.6850 H   0  0  0  0  0  0  0  0  0  0  0  0
   38.3490   29.1330   44.0740 H   0  0  0  0  0  0  0  0  0  0  0  0
   36.5940   29.3700   44.1020 H   0  0  0  0  0  0  0  0  0  0  0  0
   38.4060   29.6570   41.7990 H   0  0  0  0  0  0  0  0  0  0  0  0
   36.7750   30.2520   42.0410 H   0  0  0  0  0  0  0  0  0  0  0  0
   36.9720   28.7140   40.1770 H   0  0  0  0  0  0  0  0  0  0  0  0
   35.8140   28.1340   41.4510 H   0  0  0  0  0  0  0  0  0  0  0  0
   36.9600   26.0100   40.4640 C   0  0  0  0  0  0  0  0  0  0  0  0
   36.7990   24.7310   41.0780 C   0  0  0  0  0  0  0  0  0  0  0  0
   36.1350   23.7160   40.3820 C   0  0  0  0  0  0  0  0  0  0  0  0
   35.6720   24.0270   39.1280 N   0  0  0  0  0  0  0  0  0  0  0  0
   35.8390   25.2540   38.5710 C   0  0  0  0  0  0  0  0  0  0  0  0
   36.4770   26.2220   39.2400 N   0  0  0  0  0  0  0  0  0  0  0  0
   37.1180   24.4120   42.0370 H   0  0  0  0  0  0  0  0  0  0  0  0
   35.9750   22.7240   40.7790 H   0  0  0  0  0  0  0  0  0  0  0  0
   35.4480   25.4250   37.5800 H   0  0  0  0  0  0  0  0  0  0  0  0
   39.3400   26.4700   43.0070 C   0  0  0  0  0  0  0  0  0  0  0  0
   40.3020   27.4250   43.4450 C   0  0  0  0  0  0  0  0  0  0  0  0
   40.0060   28.4490   43.5700 H   0  0  0  0  0  0  0  0  0  0  0  0
   41.5570   26.9640   43.6780 C   0  0  0  0  0  3  0  0  0  0  0  0
   41.9260   25.6190   43.5080 C   0  0  0  0  0  3  0  0  0  0  0  0
   40.2710   24.8830   42.9340 S   0  0  0  0  0  0  0  0  0  0  0  0
  1  7  1  6  0  0  0
  1  2  1  0  0  0  0
  2  8  1  1  0  0  0
  2 26  1  0  0  0  0
  2  3  1  0  0  0  0
  3  9  1  0  0  0  0
  3 10  1  0  0  0  0
  4  3  1  0  0  0  0
  4 11  1  0  0  0  0
  4 12  1  0  0  0  0
  5  4  1  0  0  0  0
  6  1  1  0  0  0  0
  6 16  1  0  0  0  0
  6  5  1  0  0  0  0
 13  5  1  0  0  0  0
 14  5  1  0  0  0  0
 15  6  1  0  0  0  0
 17 18  1  0  0  0  0
 17  1  1  0  0  0  0
 18 23  1  0  0  0  0
 19 24  1  0  0  0  0
 19 18  2  0  0  0  0
 20 19  1  0  0  0  0
 21 20  2  0  0  0  0
 21 22  1  0  0  0  0
 22 17  2  0  0  0  0
 25 21  1  0  0  0  0
 26 27  2  0  0  0  0
 27 28  1  0  0  0  0
 27 29  1  0  0  0  0
 30 29  2  0  0  0  0
 31 26  1  0  0  0  0
 31 30  1  0  0  0  0
M  END
>  <minimizedAffinity>
-4.71944666

$$$$

 OpenBabel03242517093D

 31 33  0  0  1  0  0  0  0  0999 V2000
   38.1530   28.3920   40.8690 C   0  0  2  0  0  0  0  0  0  0  0  0
   37.0630   27.4560   41.2190 C   0  0  2  0  0  0  0  0  0  0  0  0
   36.4360   27.7670   42.5500 C   0  0  0  0  0  0  0  0  0  0  0  0
   37.4330   27.8760   43.6770 C   0  0  0  0  0  0  0  0  0  0  0  0
   38.6730   28.6330   43.3050 C   0  0  0  0  0  0  0  0  0  0  0  0
   38.5250   29.3560   41.9870 C   0  0  0  0  0  0  0  0  0  0  0  0
   39.1430   27.9070   40.6200 H   0  0  0  0  0  0  0  0  0  0  0  0
   36.2090   27.6240   40.4870 H   0  0  0  0  0  0  0  0  0  0  0  0
   35.8160   28.6620   42.5910 H   0  0  0  0  0  0  0  0  0  0  0  0
   35.7660   26.9190   42.8210 H   0  0  0  0  0  0  0  0  0  0  0  0
   37.7120   26.8800   44.0800 H   0  0  0  0  0  0  0  0  0  0  0  0
   36.9650   28.4230   44.5230 H   0  0  0  0  0  0  0  0  0  0  0  0
   39.5800   27.9990   43.2360 H   0  0  0  0  0  0  0  0  0  0  0  0
   38.9410   29.4000   44.0750 H   0  0  0  0  0  0  0  0  0  0  0  0
   39.4760   29.8320   41.7510 H   0  0  0  0  0  0  0  0  0  0  0  0
   37.7260   30.1250   42.1380 H   0  0  0  0  0  0  0  0  0  0  0  0
   37.8070   29.2190   39.6940 C   0  0  0  0  0  0  0  0  0  0  0  0
   37.3130   30.5250   39.9900 C   0  0  0  0  0  0  0  0  0  0  0  0
   36.9490   31.3740   38.9400 C   0  0  0  0  0  0  0  0  0  0  0  0
   37.0980   30.8810   37.6660 N   0  0  0  0  0  0  0  0  0  0  0  0
   37.5720   29.6330   37.4170 C   0  0  0  0  0  0  0  0  0  0  0  0
   37.9180   28.8240   38.4260 N   0  0  0  0  0  0  0  0  0  0  0  0
   37.1750   30.9820   40.9360 H   0  0  0  0  0  0  0  0  0  0  0  0
   36.5670   32.3740   39.0830 H   0  0  0  0  0  0  0  0  0  0  0  0
   37.6620   29.3150   36.3900 H   0  0  0  0  0  0  0  0  0  0  0  0
   37.4800   26.0470   41.1700 C   0  0  0  0  0  0  0  0  0  0  0  0
   36.9510   24.8360   41.6990 C   0  0  0  0  0  0  0  0  0  0  0  0
   36.0480   24.8650   42.2780 H   0  0  0  0  0  0  0  0  0  0  0  0
   37.6420   23.6980   41.4290 C   0  0  0  0  0  3  0  0  0  0  0  0
   38.8240   23.6790   40.6690 C   0  0  0  0  0  3  0  0  0  0  0  0
   39.0000   25.5290   40.2690 S   0  0  0  0  0  0  0  0  0  0  0  0
  1  7  1  6  0  0  0
  1  2  1  0  0  0  0
  1  6  1  0  0  0  0
  2  8  1  6  0  0  0
  2  3  1  0  0  0  0
  3  9  1  0  0  0  0
  3 10  1  0  0  0  0
  3  4  1  0  0  0  0
  4 11  1  0  0  0  0
  4 12  1  0  0  0  0
  5  4  1  0  0  0  0
  5 14  1  0  0  0  0
  6 16  1  0  0  0  0
  6  5  1  0  0  0  0
 13  5  1  0  0  0  0
 15  6  1  0  0  0  0
 17 18  1  0  0  0  0
 17  1  1  0  0  0  0
 18 23  1  0  0  0  0
 19 24  1  0  0  0  0
 19 18  2  0  0  0  0
 20 19  1  0  0  0  0
 21 20  2  0  0  0  0
 21 22  1  0  0  0  0
 22 17  2  0  0  0  0
 25 21  1  0  0  0  0
 26  2  1  0  0  0  0
 26 27  2  0  0  0  0
 27 28  1  0  0  0  0
 29 27  1  0  0  0  0
 30 29  2  0  0  0  0
 31 30  1  0  0  0  0
 31 26  1  0  0  0  0
M  END
>  <minimizedAffinity>
-4.68773985

$$$$

 OpenBabel03242517093D

 31 33  0  0  1  0  0  0  0  0999 V2000
   37.2870   26.6130   41.3830 C   0  0  2  0  0  0  0  0  0  0  0  0
   38.2110   27.7640   41.2940 C   0  0  2  0  0  0  0  0  0  0  0  0
   38.6900   28.2280   42.6420 C   0  0  0  0  0  0  0  0  0  0  0  0
   37.5740   28.5090   43.6160 C   0  0  0  0  0  0  0  0  0  0  0  0
   36.4850   27.4800   43.5880 C   0  0  0  0  0  0  0  0  0  0  0  0
   36.8820   26.2510   42.8040 C   0  0  0  0  0  0  0  0  0  0  0  0
   36.2900   26.7560   40.8690 H   0  0  0  0  0  0  0  0  0  0  0  0
   39.1660   27.4070   40.7900 H   0  0  0  0  0  0  0  0  0  0  0  0
   39.3960   27.5720   43.1520 H   0  0  0  0  0  0  0  0  0  0  0  0
   39.2220   29.1970   42.5020 H   0  0  0  0  0  0  0  0  0  0  0  0
   37.1360   29.5180   43.4620 H   0  0  0  0  0  0  0  0  0  0  0  0
   37.9860   28.5140   44.6470 H   0  0  0  0  0  0  0  0  0  0  0  0
   35.5290   27.8500   43.1640 H   0  0  0  0  0  0  0  0  0  0  0  0
   36.2050   27.1390   44.6180 H   0  0  0  0  0  0  0  0  0  0  0  0
   36.0280   25.5740   42.7750 H   0  0  0  0  0  0  0  0  0  0  0  0
   37.7340   25.7850   43.3590 H   0  0  0  0  0  0  0  0  0  0  0  0
   37.8720   25.3950   40.7850 C   0  0  0  0  0  0  0  0  0  0  0  0
   37.2650   24.1670   41.1860 C   0  0  0  0  0  0  0  0  0  0  0  0
   37.7600   22.9610   40.6790 C   0  0  0  0  0  0  0  0  0  0  0  0
   38.8200   23.0430   39.8090 N   0  0  0  0  0  0  0  0  0  0  0  0
   39.3750   24.2290   39.4460 C   0  0  0  0  0  0  0  0  0  0  0  0
   38.8980   25.3800   39.9340 N   0  0  0  0  0  0  0  0  0  0  0  0
   36.4470   24.0140   41.8410 H   0  0  0  0  0  0  0  0  0  0  0  0
   37.3560   21.9920   40.9350 H   0  0  0  0  0  0  0  0  0  0  0  0
   40.2050   24.2160   38.7570 H   0  0  0  0  0  0  0  0  0  0  0  0
   37.6500   28.8920   40.5370 C   0  0  0  0  0  0  0  0  0  0  0  0
   36.3750   29.1710   39.9690 C   0  0  0  0  0  0  0  0  0  0  0  0
   35.5870   28.4490   40.0660 H   0  0  0  0  0  0  0  0  0  0  0  0
   36.2380   30.3600   39.3280 C   0  0  0  0  0  3  0  0  0  0  0  0
   37.2820   31.2940   39.2110 C   0  0  0  0  0  3  0  0  0  0  0  0
   38.6650   30.3760   40.1360 S   0  0  0  0  0  0  0  0  0  0  0  0
  1  7  1  6  0  0  0
  1  6  1  0  0  0  0
  2  8  1  6  0  0  0
  2  1  1  0  0  0  0
  2  3  1  0  0  0  0
  3  9  1  0  0  0  0
  3  4  1  0  0  0  0
  4 12  1  0  0  0  0
  5  4  1  0  0  0  0
  5 14  1  0  0  0  0
  6 16  1  0  0  0  0
  6  5  1  0  0  0  0
 10  3  1  0  0  0  0
 11  4  1  0  0  0  0
 13  5  1  0  0  0  0
 15  6  1  0  0  0  0
 17 18  1  0  0  0  0
 17  1  1  0  0  0  0
 18 23  1  0  0  0  0
 19 24  1  0  0  0  0
 19 18  2  0  0  0  0
 20 19  1  0  0  0  0
 21 20  2  0  0  0  0
 21 22  1  0  0  0  0
 22 17  2  0  0  0  0
 25 21  1  0  0  0  0
 26  2  1  0  0  0  0
 27 28  1  0  0  0  0
 27 26  2  0  0  0  0
 29 27  1  0  0  0  0
 30 29  2  0  0  0  0
 30 31  1  0  0  0  0
 31 26  1  0  0  0  0
M  END
>  <minimizedAffinity>
-4.66221189

$$$$

 OpenBabel03242517093D

 31 33  0  0  1  0  0  0  0  0999 V2000
   38.1650   29.4020   40.0700 C   0  0  2  0  0  0  0  0  0  0  0  0
   37.1760   30.4730   39.8200 C   0  0  2  0  0  0  0  0  0  0  0  0
   36.4720   30.3150   38.5010 C   0  0  0  0  0  0  0  0  0  0  0  0
   37.4090   30.1660   37.3290 C   0  0  0  0  0  0  0  0  0  0  0  0
   38.5680   29.2560   37.6050 C   0  0  0  0  0  0  0  0  0  0  0  0
   38.3860   28.4740   38.8840 C   0  0  0  0  0  0  0  0  0  0  0  0
   39.2120   29.7590   40.3050 H   0  0  0  0  0  0  0  0  0  0  0  0
   36.3350   30.3550   40.5770 H   0  0  0  0  0  0  0  0  0  0  0  0
   35.7530   29.4990   38.4350 H   0  0  0  0  0  0  0  0  0  0  0  0
   35.8920   31.2470   38.3080 H   0  0  0  0  0  0  0  0  0  0  0  0
   37.7840   31.1490   36.9730 H   0  0  0  0  0  0  0  0  0  0  0  0
   36.8530   29.7280   36.4740 H   0  0  0  0  0  0  0  0  0  0  0  0
   39.5430   29.7800   37.6710 H   0  0  0  0  0  0  0  0  0  0  0  0
   38.7210   28.5130   36.7810 H   0  0  0  0  0  0  0  0  0  0  0  0
   39.2860   27.8820   39.0530 H   0  0  0  0  0  0  0  0  0  0  0  0
   37.5010   27.8080   38.7230 H   0  0  0  0  0  0  0  0  0  0  0  0
   37.7700   28.5480   41.2090 C   0  0  0  0  0  0  0  0  0  0  0  0
   37.7550   29.1970   42.4810 C   0  0  0  0  0  0  0  0  0  0  0  0
   37.4040   28.4640   43.6190 C   0  0  0  0  0  0  0  0  0  0  0  0
   37.0910   27.1400   43.4310 N   0  0  0  0  0  0  0  0  0  0  0  0
   37.1130   26.5520   42.2060 C   0  0  0  0  0  0  0  0  0  0  0  0
   37.4510   27.2570   41.1200 N   0  0  0  0  0  0  0  0  0  0  0  0
   37.9750   30.2070   42.7130 H   0  0  0  0  0  0  0  0  0  0  0  0
   37.3700   28.8820   44.6150 H   0  0  0  0  0  0  0  0  0  0  0  0
   36.8540   25.5070   42.1350 H   0  0  0  0  0  0  0  0  0  0  0  0
   37.7510   31.8210   39.9320 C   0  0  0  0  0  0  0  0  0  0  0  0
   37.2640   33.1330   39.6690 C   0  0  0  0  0  0  0  0  0  0  0  0
   36.2640   33.2590   39.3020 H   0  0  0  0  0  0  0  0  0  0  0  0
   38.1200   34.1610   39.9050 C   0  0  0  0  0  3  0  0  0  0  0  0
   39.4280   33.9760   40.3860 C   0  0  0  0  0  3  0  0  0  0  0  0
   39.4730   32.0820   40.5310 S   0  0  0  0  0  0  0  0  0  0  0  0
  1  7  1  1  0  0  0
  1 17  1  0  0  0  0
  2 26  1  0  0  0  0
  2  1  1  0  0  0  0
  2  8  1  1  0  0  0
  3  2  1  0  0  0  0
  4  5  1  0  0  0  0
  4  3  1  0  0  0  0
  5 13  1  0  0  0  0
  5  6  1  0  0  0  0
  6 15  1  0  0  0  0
  6  1  1  0  0  0  0
  9  3  1  0  0  0  0
 10  3  1  0  0  0  0
 11  4  1  0  0  0  0
 12  4  1  0  0  0  0
 14  5  1  0  0  0  0
 16  6  1  0  0  0  0
 17 18  1  0  0  0  0
 18 23  1  0  0  0  0
 18 19  2  0  0  0  0
 19 24  1  0  0  0  0
 20 19  1  0  0  0  0
 21 20  2  0  0  0  0
 22 17  2  0  0  0  0
 22 21  1  0  0  0  0
 25 21  1  0  0  0  0
 26 31  1  0  0  0  0
 27 29  1  0  0  0  0
 27 26  2  0  0  0  0
 28 27  1  0  0  0  0
 29 30  2  0  0  0  0
 30 31  1  0  0  0  0
M  END
>  <minimizedAffinity>
-4.63502693

$$$$

 OpenBabel03242517093D

 31 33  0  0  1  0  0  0  0  0999 V2000
   37.1900   27.9800   40.7760 C   0  0  2  0  0  0  0  0  0  0  0  0
   37.0930   26.8530   41.7290 C   0  0  2  0  0  0  0  0  0  0  0  0
   36.6000   27.2810   43.0840 C   0  0  0  0  0  0  0  0  0  0  0  0
   37.3850   28.4230   43.6800 C   0  0  0  0  0  0  0  0  0  0  0  0
   37.7100   29.5030   42.6920 C   0  0  0  0  0  0  0  0  0  0  0  0
   36.9410   29.3440   41.4010 C   0  0  0  0  0  0  0  0  0  0  0  0
   38.2010   28.1110   40.2880 H   0  0  0  0  0  0  0  0  0  0  0  0
   36.2710   26.1570   41.3640 H   0  0  0  0  0  0  0  0  0  0  0  0
   35.5480   27.5560   43.1470 H   0  0  0  0  0  0  0  0  0  0  0  0
   36.7330   26.4250   43.7840 H   0  0  0  0  0  0  0  0  0  0  0  0
   38.3190   28.0710   44.1680 H   0  0  0  0  0  0  0  0  0  0  0  0
   36.7840   28.8950   44.4850 H   0  0  0  0  0  0  0  0  0  0  0  0
   38.7860   29.5620   42.4310 H   0  0  0  0  0  0  0  0  0  0  0  0
   37.4770   30.5210   43.0940 H   0  0  0  0  0  0  0  0  0  0  0  0
   37.2680   30.1230   40.7120 H   0  0  0  0  0  0  0  0  0  0  0  0
   35.8600   29.4770   41.6610 H   0  0  0  0  0  0  0  0  0  0  0  0
   36.2260   27.8400   39.6640 C   0  0  0  0  0  0  0  0  0  0  0  0
   35.2530   28.8790   39.5660 C   0  0  0  0  0  0  0  0  0  0  0  0
   34.2920   28.8240   38.5510 C   0  0  0  0  0  0  0  0  0  0  0  0
   34.3540   27.7500   37.6980 N   0  0  0  0  0  0  0  0  0  0  0  0
   35.2950   26.7770   37.8170 C   0  0  0  0  0  0  0  0  0  0  0  0
   36.2110   26.8330   38.7910 N   0  0  0  0  0  0  0  0  0  0  0  0
   35.1380   29.7400   40.1740 H   0  0  0  0  0  0  0  0  0  0  0  0
   33.5240   29.5710   38.4120 H   0  0  0  0  0  0  0  0  0  0  0  0
   35.2810   25.9630   37.1090 H   0  0  0  0  0  0  0  0  0  0  0  0
   38.3500   26.1020   41.8590 C   0  0  0  0  0  0  0  0  0  0  0  0
   38.7450   24.9450   42.5880 C   0  0  0  0  0  0  0  0  0  0  0  0
   38.0270   24.4460   43.2100 H   0  0  0  0  0  0  0  0  0  0  0  0
   40.0340   24.5420   42.4430 C   0  0  0  0  0  3  0  0  0  0  0  0
   40.9600   25.2090   41.6230 C   0  0  0  0  0  3  0  0  0  0  0  0
   39.8690   26.6130   40.9510 S   0  0  0  0  0  0  0  0  0  0  0  0
  1  7  1  6  0  0  0
  1  6  1  0  0  0  0
  1  2  1  0  0  0  0
  2  8  1  6  0  0  0
  2 26  1  0  0  0  0
  2  3  1  0  0  0  0
  3  9  1  0  0  0  0
  3  4  1  0  0  0  0
  3 10  1  0  0  0  0
  4 11  1  0  0  0  0
  4 12  1  0  0  0  0
  5 14  1  0  0  0  0
  5  4  1  0  0  0  0
  6 16  1  0  0  0  0
  6  5  1  0  0  0  0
 13  5  1  0  0  0  0
 15  6  1  0  0  0  0
 17  1  1  0  0  0  0
 18 17  1  0  0  0  0
 18 23  1  0  0  0  0
 19 18  2  0  0  0  0
 20 21  2  0  0  0  0
 20 19  1  0  0  0  0
 21 22  1  0  0  0  0
 22 17  2  0  0  0  0
 24 19  1  0  0  0  0
 25 21  1  0  0  0  0
 26 27  2  0  0  0  0
 27 28  1  0  0  0  0
 29 27  1  0  0  0  0
 30 29  2  0  0  0  0
 31 30  1  0  0  0  0
 31 26  1  0  0  0  0
M  END
>  <minimizedAffinity>
-4.62898636

$$$$

 OpenBabel03242517093D

 31 33  0  0  1  0  0  0  0  0999 V2000
   36.9460   29.1710   41.0700 C   0  0  2  0  0  0  0  0  0  0  0  0
   37.3860   28.0940   40.1560 C   0  0  2  0  0  0  0  0  0  0  0  0
   36.7330   28.1800   38.8040 C   0  0  0  0  0  0  0  0  0  0  0  0
   35.2280   28.2530   38.8630 C   0  0  0  0  0  0  0  0  0  0  0  0
   34.7170   29.1690   39.9350 C   0  0  0  0  0  0  0  0  0  0  0  0
   35.8130   30.0260   40.5220 C   0  0  0  0  0  0  0  0  0  0  0  0
   36.5350   28.8200   42.0630 H   0  0  0  0  0  0  0  0  0  0  0  0
   38.4860   28.2630   39.9230 H   0  0  0  0  0  0  0  0  0  0  0  0
   37.0630   28.9970   38.1630 H   0  0  0  0  0  0  0  0  0  0  0  0
   36.9690   27.2430   38.2490 H   0  0  0  0  0  0  0  0  0  0  0  0
   34.7700   27.2480   38.9830 H   0  0  0  0  0  0  0  0  0  0  0  0
   34.8460   28.6450   37.8970 H   0  0  0  0  0  0  0  0  0  0  0  0
   34.2210   28.6420   40.7750 H   0  0  0  0  0  0  0  0  0  0  0  0
   33.9260   29.8620   39.5500 H   0  0  0  0  0  0  0  0  0  0  0  0
   35.3860   30.6200   41.3300 H   0  0  0  0  0  0  0  0  0  0  0  0
   36.1730   30.6880   39.6940 H   0  0  0  0  0  0  0  0  0  0  0  0
   38.0530   30.0930   41.4010 C   0  0  0  0  0  0  0  0  0  0  0  0
   38.0680   31.3160   40.6670 C   0  0  0  0  0  0  0  0  0  0  0  0
   39.0860   32.2460   40.9050 C   0  0  0  0  0  0  0  0  0  0  0  0
   40.0210   31.9100   41.8530 N   0  0  0  0  0  0  0  0  0  0  0  0
   39.9780   30.7360   42.5370 C   0  0  0  0  0  0  0  0  0  0  0  0
   39.0030   29.8500   42.3040 N   0  0  0  0  0  0  0  0  0  0  0  0
   37.3870   31.6550   39.9290 H   0  0  0  0  0  0  0  0  0  0  0  0
   39.1650   33.1920   40.3900 H   0  0  0  0  0  0  0  0  0  0  0  0
   40.7480   30.5410   43.2670 H   0  0  0  0  0  0  0  0  0  0  0  0
   37.2050   26.7510   40.7240 C   0  0  0  0  0  0  0  0  0  0  0  0
   37.0300   26.2450   42.0440 C   0  0  0  0  0  0  0  0  0  0  0  0
   37.0170   26.9290   42.8710 H   0  0  0  0  0  0  0  0  0  0  0  0
   36.8900   24.9010   42.1690 C   0  0  0  0  0  3  0  0  0  0  0  0
   36.9100   24.0210   41.0740 C   0  0  0  0  0  3  0  0  0  0  0  0
   37.1650   25.2550   39.6510 S   0  0  0  0  0  0  0  0  0  0  0  0
  1 17  1  0  0  0  0
  1  7  1  1  0  0  0
  2  8  1  6  0  0  0
  2 26  1  0  0  0  0
  2  1  1  0  0  0  0
  3  4  1  0  0  0  0
  3  2  1  0  0  0  0
  4 11  1  0  0  0  0
  4  5  1  0  0  0  0
  5  6  1  0  0  0  0
  5 13  1  0  0  0  0
  6  1  1  0  0  0  0
  6 15  1  0  0  0  0
  9  3  1  0  0  0  0
 10  3  1  0  0  0  0
 12  4  1  0  0  0  0
 14  5  1  0  0  0  0
 16  6  1  0  0  0  0
 17 22  1  0  0  0  0
 18 19  1  0  0  0  0
 18 17  2  0  0  0  0
 19 20  2  0  0  0  0
 20 21  1  0  0  0  0
 21 25  1  0  0  0  0
 22 21  2  0  0  0  0
 23 18  1  0  0  0  0
 24 19  1  0  0  0  0
 26 27  2  0  0  0  0
 27 29  1  0  0  0  0
 27 28  1  0  0  0  0
 30 29  2  0  0  0  0
 31 26  1  0  0  0  0
 31 30  1  0  0  0  0
M  END
>  <minimizedAffinity>
-4.55531883

$$$$
