
 OpenBabel03252500383D

 43 46  0  0  1  0  0  0  0  0999 V2000
   37.0620   28.0550   40.9680 C   0  0  0  0  0  0  0  0  0  0  0  0
   37.8240   28.7730   40.5570 H   0  0  0  0  0  0  0  0  0  0  0  0
   37.0820   27.1870   40.2800 H   0  0  0  0  0  0  0  0  0  0  0  0
   37.3970   27.7040   42.2980 N   0  0  0  0  0  0  0  0  0  0  0  0
   38.1230   28.6240   43.0630 C   0  0  0  0  0  0  0  0  0  0  0  0
   39.6380   28.3910   42.9300 C   0  0  0  0  0  0  0  0  0  0  0  0
   39.9260   27.0730   43.5980 C   0  0  0  0  0  0  0  0  0  0  0  0
   39.1520   26.0300   42.8120 C   0  0  0  0  0  0  0  0  0  0  0  0
   37.6990   26.3710   42.6080 C   0  0  2  0  0  0  0  0  0  0  0  0
   37.8600   29.6750   43.0450 H   0  0  0  0  0  0  0  0  0  0  0  0
   37.9330   28.3310   44.1430 H   0  0  0  0  0  0  0  0  0  0  0  0
   39.9540   28.4050   41.8670 H   0  0  0  0  0  0  0  0  0  0  0  0
   40.1360   29.1970   43.5050 H   0  0  0  0  0  0  0  0  0  0  0  0
   40.9750   26.7810   43.5630 H   0  0  0  0  0  0  0  0  0  0  0  0
   39.4990   27.1400   44.6160 H   0  0  0  0  0  0  0  0  0  0  0  0
   39.2160   25.0320   43.2560 H   0  0  0  0  0  0  0  0  0  0  0  0
   39.6070   25.9950   41.8000 H   0  0  0  0  0  0  0  0  0  0  0  0
   37.1750   26.1000   43.5480 H   0  0  0  0  0  0  0  0  0  0  0  0
   37.1730   25.4090   41.5500 C   0  0  0  0  0  0  0  0  0  0  0  0
   37.6940   24.4360   41.6160 H   0  0  0  0  0  0  0  0  0  0  0  0
   36.0740   25.2650   41.6890 H   0  0  0  0  0  0  0  0  0  0  0  0
   37.3090   25.8030   40.5320 H   0  0  0  0  0  0  0  0  0  0  0  0
   35.5380   30.0740   40.2750 C   0  0  1  0  0  0  0  0  0  0  0  0
   34.9830   28.9080   39.7430 C   0  0  0  0  0  0  0  0  0  0  0  0
   35.7350   28.7090   40.9940 C   0  0  1  0  0  0  0  0  0  0  0  0
   34.9020   30.8120   40.8330 H   0  0  0  0  0  0  0  0  0  0  0  0
   33.8950   28.7350   39.7350 H   0  0  0  0  0  0  0  0  0  0  0  0
   35.4600   28.4240   38.8400 H   0  0  0  0  0  0  0  0  0  0  0  0
   35.2700   28.7350   41.9920 H   0  0  0  0  0  0  0  0  0  0  0  0
   37.1440   30.6020   38.4380 C   0  0  0  0  0  0  0  0  0  0  0  0
   36.7870   30.7630   39.8170 C   0  0  0  0  0  0  0  0  0  0  0  0
   37.5720   31.5040   40.6450 C   0  0  0  0  0  0  0  0  0  0  0  0
   38.7030   32.0780   40.1050 N   0  0  0  0  0  0  0  0  0  0  0  0
   39.0210   31.9130   38.8010 C   0  0  0  0  0  0  0  0  0  0  0  0
   38.2630   31.1780   37.9300 N   0  0  0  0  0  0  0  0  0  0  0  0
   36.5650   30.0270   37.7300 H   0  0  0  0  0  0  0  0  0  0  0  0
   37.3050   31.6280   41.6840 H   0  0  0  0  0  0  0  0  0  0  0  0
   40.2780   32.6210   38.4530 C   0  0  0  0  0  0  0  0  0  0  0  0
   41.1080   32.4180   37.3910 C   0  0  0  0  0  0  0  0  0  0  0  0
   40.8440   31.6410   36.6860 H   0  0  0  0  0  0  0  0  0  0  0  0
   42.2280   33.1840   37.2510 C   0  0  0  0  0  3  0  0  0  0  0  0
   42.4450   34.1610   38.2520 C   0  0  0  0  0  3  0  0  0  0  0  0
   40.9440   33.8900   39.3770 S   0  0  0  0  0  0  0  0  0  0  0  0
  1 25  1  0  0  0  0
  1  4  1  0  0  0  0
  2  1  1  0  0  0  0
  3  1  1  0  0  0  0
  4  9  1  0  0  0  0
  4  5  1  0  0  0  0
  5 11  1  0  0  0  0
  6  5  1  0  0  0  0
  6 13  1  0  0  0  0
  6  7  1  0  0  0  0
  7 15  1  0  0  0  0
  8 16  1  0  0  0  0
  8  7  1  0  0  0  0
  9  8  1  0  0  0  0
  9 18  1  1  0  0  0
 10  5  1  0  0  0  0
 12  6  1  0  0  0  0
 14  7  1  0  0  0  0
 17  8  1  0  0  0  0
 19 20  1  0  0  0  0
 19 21  1  0  0  0  0
 19  9  1  0  0  0  0
 22 19  1  0  0  0  0
 23 26  1  1  0  0  0
 23 25  1  0  0  0  0
 24 23  1  0  0  0  0
 24 25  1  0  0  0  0
 25 29  1  1  0  0  0
 27 24  1  0  0  0  0
 28 24  1  0  0  0  0
 30 31  1  0  0  0  0
 31 23  1  0  0  0  0
 31 32  2  0  0  0  0
 32 37  1  0  0  0  0
 33 32  1  0  0  0  0
 34 33  2  0  0  0  0
 35 30  2  0  0  0  0
 35 34  1  0  0  0  0
 36 30  1  0  0  0  0
 38 34  1  0  0  0  0
 38 43  1  0  0  0  0
 39 38  2  0  0  0  0
 40 39  1  0  0  0  0
 41 39  1  0  0  0  0
 41 42  2  0  0  0  0
 42 43  1  0  0  0  0
M  END
>  <minimizedAffinity>
-5.62335873

$$$$

 OpenBabel03252500383D

 43 46  0  0  1  0  0  0  0  0999 V2000
   36.9080   28.0780   40.8030 C   0  0  0  0  0  0  0  0  0  0  0  0
   37.6990   28.7890   40.4380 H   0  0  0  0  0  0  0  0  0  0  0  0
   36.9770   27.2000   40.1300 H   0  0  0  0  0  0  0  0  0  0  0  0
   37.1440   27.7450   42.1580 N   0  0  0  0  0  0  0  0  0  0  0  0
   37.7800   28.6910   42.9700 C   0  0  0  0  0  0  0  0  0  0  0  0
   39.3070   28.5010   42.9610 C   0  0  0  0  0  0  0  0  0  0  0  0
   39.5770   27.1960   43.6630 C   0  0  0  0  0  0  0  0  0  0  0  0
   38.8990   26.1270   42.8260 C   0  0  0  0  0  0  0  0  0  0  0  0
   37.4590   26.4240   42.5030 C   0  0  2  0  0  0  0  0  0  0  0  0
   37.4900   29.7340   42.9220 H   0  0  0  0  0  0  0  0  0  0  0  0
   37.5120   28.4000   44.0340 H   0  0  0  0  0  0  0  0  0  0  0  0
   39.7070   28.5170   41.9280 H   0  0  0  0  0  0  0  0  0  0  0  0
   39.7340   29.3250   43.5680 H   0  0  0  0  0  0  0  0  0  0  0  0
   40.6340   26.9350   43.7150 H   0  0  0  0  0  0  0  0  0  0  0  0
   39.0680   27.2580   44.6420 H   0  0  0  0  0  0  0  0  0  0  0  0
   38.9560   25.1340   43.2830 H   0  0  0  0  0  0  0  0  0  0  0  0
   39.4350   26.0980   41.8540 H   0  0  0  0  0  0  0  0  0  0  0  0
   36.8680   26.1430   43.4000 H   0  0  0  0  0  0  0  0  0  0  0  0
   37.0470   25.4400   41.4140 C   0  0  0  0  0  0  0  0  0  0  0  0
   37.5880   24.4830   41.5310 H   0  0  0  0  0  0  0  0  0  0  0  0
   35.9450   25.2650   41.4660 H   0  0  0  0  0  0  0  0  0  0  0  0
   37.2530   25.8310   40.4070 H   0  0  0  0  0  0  0  0  0  0  0  0
   35.4410   30.0860   39.9680 C   0  0  1  0  0  0  0  0  0  0  0  0
   34.9240   28.9120   39.4170 C   0  0  0  0  0  0  0  0  0  0  0  0
   35.5840   28.7330   40.7230 C   0  0  1  0  0  0  0  0  0  0  0  0
   34.7680   30.8340   40.4670 H   0  0  0  0  0  0  0  0  0  0  0  0
   33.8380   28.7390   39.3340 H   0  0  0  0  0  0  0  0  0  0  0  0
   35.4630   28.4120   38.5590 H   0  0  0  0  0  0  0  0  0  0  0  0
   35.0490   28.7760   41.6840 H   0  0  0  0  0  0  0  0  0  0  0  0
   37.2880   31.6610   40.5550 C   0  0  0  0  0  0  0  0  0  0  0  0
   36.7210   30.7660   39.5890 C   0  0  0  0  0  0  0  0  0  0  0  0
   37.3380   30.5710   38.3920 C   0  0  0  0  0  0  0  0  0  0  0  0
   38.5060   31.2640   38.1580 N   0  0  0  0  0  0  0  0  0  0  0  0
   39.0230   32.1040   39.0830 C   0  0  0  0  0  0  0  0  0  0  0  0
   38.4400   32.3310   40.3000 N   0  0  0  0  0  0  0  0  0  0  0  0
   36.8490   31.8590   41.5210 H   0  0  0  0  0  0  0  0  0  0  0  0
   36.9150   29.8960   37.6620 H   0  0  0  0  0  0  0  0  0  0  0  0
   40.2800   32.7340   38.6070 C   0  0  0  0  0  0  0  0  0  0  0  0
   41.0240   32.4320   37.5050 C   0  0  0  0  0  0  0  0  0  0  0  0
   40.6790   31.6280   36.8680 H   0  0  0  0  0  0  0  0  0  0  0  0
   42.1610   33.1380   37.2420 C   0  0  0  0  0  3  0  0  0  0  0  0
   42.4880   34.1610   38.1650 C   0  0  0  0  0  3  0  0  0  0  0  0
   41.0610   34.0230   39.4040 S   0  0  0  0  0  0  0  0  0  0  0  0
  1  4  1  0  0  0  0
  2  1  1  0  0  0  0
  3  1  1  0  0  0  0
  4  9  1  0  0  0  0
  4  5  1  0  0  0  0
  5 11  1  0  0  0  0
  6  5  1  0  0  0  0
  6 13  1  0  0  0  0
  6  7  1  0  0  0  0
  7 14  1  0  0  0  0
  7 15  1  0  0  0  0
  8 16  1  0  0  0  0
  8  7  1  0  0  0  0
  9  8  1  0  0  0  0
  9 18  1  1  0  0  0
 10  5  1  0  0  0  0
 12  6  1  0  0  0  0
 17  8  1  0  0  0  0
 19 21  1  0  0  0  0
 19 20  1  0  0  0  0
 19  9  1  0  0  0  0
 22 19  1  0  0  0  0
 23 26  1  1  0  0  0
 23 25  1  0  0  0  0
 24 23  1  0  0  0  0
 24 25  1  0  0  0  0
 25  1  1  0  0  0  0
 25 29  1  1  0  0  0
 27 24  1  0  0  0  0
 28 24  1  0  0  0  0
 30 36  1  0  0  0  0
 31 23  1  0  0  0  0
 31 30  2  0  0  0  0
 32 31  1  0  0  0  0
 33 32  2  0  0  0  0
 33 34  1  0  0  0  0
 34 35  2  0  0  0  0
 35 30  1  0  0  0  0
 37 32  1  0  0  0  0
 38 34  1  0  0  0  0
 38 43  1  0  0  0  0
 39 38  2  0  0  0  0
 40 39  1  0  0  0  0
 41 39  1  0  0  0  0
 41 42  2  0  0  0  0
 42 43  1  0  0  0  0
M  END
>  <minimizedAffinity>
-5.61807251

$$$$

 OpenBabel03252500383D

 43 46  0  0  1  0  0  0  0  0999 V2000
   36.5750   27.6820   40.9250 C   0  0  0  0  0  0  0  0  0  0  0  0
   37.5150   27.9510   40.3690 H   0  0  0  0  0  0  0  0  0  0  0  0
   36.1220   26.8540   40.3440 H   0  0  0  0  0  0  0  0  0  0  0  0
   36.8880   27.3090   42.2540 N   0  0  0  0  0  0  0  0  0  0  0  0
   37.4110   28.2840   43.1100 C   0  0  0  0  0  0  0  0  0  0  0  0
   38.9490   28.3060   43.0630 C   0  0  0  0  0  0  0  0  0  0  0  0
   39.4110   27.0130   43.6790 C   0  0  0  0  0  0  0  0  0  0  0  0
   38.8630   25.9100   42.7920 C   0  0  0  0  0  0  0  0  0  0  0  0
   37.3880   26.0250   42.5130 C   0  0  2  0  0  0  0  0  0  0  0  0
   36.9800   29.2790   43.1300 H   0  0  0  0  0  0  0  0  0  0  0  0
   37.2120   27.8990   44.1590 H   0  0  0  0  0  0  0  0  0  0  0  0
   39.3160   28.4360   42.0250 H   0  0  0  0  0  0  0  0  0  0  0  0
   39.2750   29.1450   43.7100 H   0  0  0  0  0  0  0  0  0  0  0  0
   40.4950   26.8960   43.6970 H   0  0  0  0  0  0  0  0  0  0  0  0
   38.9240   26.9480   44.6690 H   0  0  0  0  0  0  0  0  0  0  0  0
   39.0660   24.9100   43.1870 H   0  0  0  0  0  0  0  0  0  0  0  0
   39.3730   26.0110   41.8110 H   0  0  0  0  0  0  0  0  0  0  0  0
   36.8640   25.6150   43.4020 H   0  0  0  0  0  0  0  0  0  0  0  0
   37.0860   25.0580   41.3740 C   0  0  0  0  0  0  0  0  0  0  0  0
   37.7550   24.1790   41.4230 H   0  0  0  0  0  0  0  0  0  0  0  0
   36.0190   24.7310   41.4350 H   0  0  0  0  0  0  0  0  0  0  0  0
   37.2110   25.5300   40.3890 H   0  0  0  0  0  0  0  0  0  0  0  0
   35.9710   30.0880   40.0680 C   0  0  1  0  0  0  0  0  0  0  0  0
   34.8840   29.2490   39.8110 C   0  0  0  0  0  0  0  0  0  0  0  0
   35.6860   28.8640   40.9860 C   0  0  1  0  0  0  0  0  0  0  0  0
   35.8250   31.0870   40.5580 H   0  0  0  0  0  0  0  0  0  0  0  0
   33.8450   29.5870   39.9560 H   0  0  0  0  0  0  0  0  0  0  0  0
   34.9370   28.5100   38.9580 H   0  0  0  0  0  0  0  0  0  0  0  0
   35.4640   29.2020   42.0100 H   0  0  0  0  0  0  0  0  0  0  0  0
   38.4080   30.6360   40.0720 C   0  0  0  0  0  0  0  0  0  0  0  0
   37.2920   30.0840   39.3600 C   0  0  0  0  0  0  0  0  0  0  0  0
   37.4570   29.5980   38.1000 C   0  0  0  0  0  0  0  0  0  0  0  0
   38.7210   29.6620   37.5540 N   0  0  0  0  0  0  0  0  0  0  0  0
   39.7590   30.1860   38.2430 C   0  0  0  0  0  0  0  0  0  0  0  0
   39.6430   30.6870   39.5120 N   0  0  0  0  0  0  0  0  0  0  0  0
   38.3430   31.0370   41.0730 H   0  0  0  0  0  0  0  0  0  0  0  0
   36.6190   29.1810   37.5620 H   0  0  0  0  0  0  0  0  0  0  0  0
   41.0140   30.1480   37.4520 C   0  0  0  0  0  0  0  0  0  0  0  0
   41.5940   29.0890   36.8180 C   0  0  0  0  0  0  0  0  0  0  0  0
   41.0960   28.1310   36.8790 H   0  0  0  0  0  0  0  0  0  0  0  0
   42.7620   29.2660   36.1370 C   0  0  0  0  0  3  0  0  0  0  0  0
   43.2970   30.5760   36.1440 C   0  0  0  0  0  3  0  0  0  0  0  0
   42.0120   31.5050   37.1820 S   0  0  0  0  0  0  0  0  0  0  0  0
  1 25  1  0  0  0  0
  1  4  1  0  0  0  0
  2  1  1  0  0  0  0
  3  1  1  0  0  0  0
  4  9  1  0  0  0  0
  4  5  1  0  0  0  0
  5 10  1  0  0  0  0
  5 11  1  0  0  0  0
  6  5  1  0  0  0  0
  6  7  1  0  0  0  0
  6 13  1  0  0  0  0
  7 14  1  0  0  0  0
  7 15  1  0  0  0  0
  8 16  1  0  0  0  0
  8  7  1  0  0  0  0
  9  8  1  0  0  0  0
  9 18  1  1  0  0  0
 12  6  1  0  0  0  0
 17  8  1  0  0  0  0
 19 20  1  0  0  0  0
 19 21  1  0  0  0  0
 19  9  1  0  0  0  0
 22 19  1  0  0  0  0
 23 26  1  1  0  0  0
 23 25  1  0  0  0  0
 24 27  1  0  0  0  0
 24 23  1  0  0  0  0
 24 25  1  0  0  0  0
 25 29  1  1  0  0  0
 28 24  1  0  0  0  0
 30 36  1  0  0  0  0
 31 23  1  0  0  0  0
 31 30  2  0  0  0  0
 32 31  1  0  0  0  0
 33 32  2  0  0  0  0
 33 34  1  0  0  0  0
 34 35  2  0  0  0  0
 35 30  1  0  0  0  0
 37 32  1  0  0  0  0
 38 34  1  0  0  0  0
 39 40  1  0  0  0  0
 39 38  2  0  0  0  0
 41 42  2  0  0  0  0
 41 39  1  0  0  0  0
 42 43  1  0  0  0  0
 43 38  1  0  0  0  0
M  END
>  <minimizedAffinity>
-5.39379072

$$$$

 OpenBabel03252500383D

 43 46  0  0  1  0  0  0  0  0999 V2000
   38.1430   30.5190   40.6570 C   0  0  0  0  0  0  0  0  0  0  0  0
   39.2100   30.4910   40.3030 H   0  0  0  0  0  0  0  0  0  0  0  0
   37.5790   29.9100   39.9230 H   0  0  0  0  0  0  0  0  0  0  0  0
   38.0560   30.0040   41.9730 N   0  0  0  0  0  0  0  0  0  0  0  0
   39.2040   30.0330   42.7720 C   0  0  0  0  0  0  0  0  0  0  0  0
   40.0190   28.7340   42.6310 C   0  0  0  0  0  0  0  0  0  0  0  0
   39.1870   27.6420   43.2490 C   0  0  0  0  0  0  0  0  0  0  0  0
   37.9150   27.5700   42.4240 C   0  0  0  0  0  0  0  0  0  0  0  0
   37.2330   28.8990   42.2320 C   0  0  2  0  0  0  0  0  0  0  0  0
   39.8310   30.9170   42.7940 H   0  0  0  0  0  0  0  0  0  0  0  0
   38.8270   29.9610   43.8400 H   0  0  0  0  0  0  0  0  0  0  0  0
   40.2660   28.5300   41.5700 H   0  0  0  0  0  0  0  0  0  0  0  0
   40.9370   28.8670   43.2370 H   0  0  0  0  0  0  0  0  0  0  0  0
   39.6500   26.6570   43.2040 H   0  0  0  0  0  0  0  0  0  0  0  0
   38.9300   27.9850   44.2680 H   0  0  0  0  0  0  0  0  0  0  0  0
   37.1880   26.8610   42.8290 H   0  0  0  0  0  0  0  0  0  0  0  0
   38.2140   27.2270   41.4110 H   0  0  0  0  0  0  0  0  0  0  0  0
   36.6590   29.0980   43.1610 H   0  0  0  0  0  0  0  0  0  0  0  0
   36.1920   28.6980   41.1370 C   0  0  0  0  0  0  0  0  0  0  0  0
   35.7910   27.6680   41.1670 H   0  0  0  0  0  0  0  0  0  0  0  0
   35.3630   29.4350   41.2700 H   0  0  0  0  0  0  0  0  0  0  0  0
   36.6090   28.8760   40.1350 H   0  0  0  0  0  0  0  0  0  0  0  0
   38.3080   32.9660   39.7260 C   0  0  1  0  0  0  0  0  0  0  0  0
   37.0070   32.5060   39.5120 C   0  0  0  0  0  0  0  0  0  0  0  0
   37.6730   31.9210   40.6890 C   0  0  1  0  0  0  0  0  0  0  0  0
   38.4940   33.9740   40.1830 H   0  0  0  0  0  0  0  0  0  0  0  0
   36.1290   33.1580   39.6580 H   0  0  0  0  0  0  0  0  0  0  0  0
   36.8050   31.7630   38.6840 H   0  0  0  0  0  0  0  0  0  0  0  0
   37.5920   32.3410   41.7030 H   0  0  0  0  0  0  0  0  0  0  0  0
   40.7970   32.7890   39.6460 C   0  0  0  0  0  0  0  0  0  0  0  0
   39.5440   32.5270   39.0020 C   0  0  0  0  0  0  0  0  0  0  0  0
   39.5130   31.9140   37.7870 C   0  0  0  0  0  0  0  0  0  0  0  0
   40.7210   31.5690   37.2190 N   0  0  0  0  0  0  0  0  0  0  0  0
   41.8920   31.8260   37.8450 C   0  0  0  0  0  0  0  0  0  0  0  0
   41.9730   32.4380   39.0660 N   0  0  0  0  0  0  0  0  0  0  0  0
   40.8890   33.2710   40.6090 H   0  0  0  0  0  0  0  0  0  0  0  0
   38.5710   31.7140   37.2990 H   0  0  0  0  0  0  0  0  0  0  0  0
   43.0520   31.3650   37.0420 C   0  0  0  0  0  0  0  0  0  0  0  0
   43.0820   30.4590   36.0230 C   0  0  0  0  0  0  0  0  0  0  0  0
   42.1490   29.9930   35.7350 H   0  0  0  0  0  0  0  0  0  0  0  0
   44.2650   30.1710   35.4090 C   0  0  0  0  0  3  0  0  0  0  0  0
   45.4040   30.8580   35.8930 C   0  0  0  0  0  3  0  0  0  0  0  0
   44.6480   31.9220   37.2670 S   0  0  0  0  0  0  0  0  0  0  0  0
  1 25  1  0  0  0  0
  1  4  1  0  0  0  0
  2  1  1  0  0  0  0
  3  1  1  0  0  0  0
  4  9  1  0  0  0  0
  4  5  1  0  0  0  0
  5 10  1  0  0  0  0
  5 11  1  0  0  0  0
  6  5  1  0  0  0  0
  6 13  1  0  0  0  0
  6  7  1  0  0  0  0
  7 15  1  0  0  0  0
  8 16  1  0  0  0  0
  8  7  1  0  0  0  0
  9  8  1  0  0  0  0
  9 18  1  1  0  0  0
 12  6  1  0  0  0  0
 14  7  1  0  0  0  0
 17  8  1  0  0  0  0
 19 20  1  0  0  0  0
 19 21  1  0  0  0  0
 19  9  1  0  0  0  0
 22 19  1  0  0  0  0
 23 26  1  1  0  0  0
 23 25  1  0  0  0  0
 24 27  1  0  0  0  0
 24 23  1  0  0  0  0
 24 25  1  0  0  0  0
 25 29  1  1  0  0  0
 28 24  1  0  0  0  0
 30 36  1  0  0  0  0
 31 30  2  0  0  0  0
 31 23  1  0  0  0  0
 32 31  1  0  0  0  0
 33 32  2  0  0  0  0
 33 34  1  0  0  0  0
 34 35  2  0  0  0  0
 35 30  1  0  0  0  0
 37 32  1  0  0  0  0
 38 43  1  0  0  0  0
 38 34  1  0  0  0  0
 39 38  2  0  0  0  0
 40 39  1  0  0  0  0
 41 42  2  0  0  0  0
 41 39  1  0  0  0  0
 42 43  1  0  0  0  0
M  END
>  <minimizedAffinity>
-5.24871731

$$$$

 OpenBabel03252500383D

 43 46  0  0  1  0  0  0  0  0999 V2000
   37.6390   30.3970   41.4240 C   0  0  0  0  0  0  0  0  0  0  0  0
   37.4630   30.6040   42.5160 H   0  0  0  0  0  0  0  0  0  0  0  0
   38.6520   30.7950   41.2140 H   0  0  0  0  0  0  0  0  0  0  0  0
   37.5360   29.0080   41.1720 N   0  0  0  0  0  0  0  0  0  0  0  0
   36.4540   28.3140   41.7220 C   0  0  0  0  0  0  0  0  0  0  0  0
   36.8010   27.7400   43.1070 C   0  0  0  0  0  0  0  0  0  0  0  0
   37.8280   26.6640   42.8750 C   0  0  0  0  0  0  0  0  0  0  0  0
   39.0310   27.3610   42.2660 C   0  0  0  0  0  0  0  0  0  0  0  0
   38.7000   28.2320   41.0830 C   0  0  2  0  0  0  0  0  0  0  0  0
   35.4570   28.7400   41.6860 H   0  0  0  0  0  0  0  0  0  0  0  0
   36.3510   27.3730   41.0950 H   0  0  0  0  0  0  0  0  0  0  0  0
   37.1650   28.5340   43.7890 H   0  0  0  0  0  0  0  0  0  0  0  0
   35.8760   27.2700   43.4980 H   0  0  0  0  0  0  0  0  0  0  0  0
   38.1720   26.1790   43.7890 H   0  0  0  0  0  0  0  0  0  0  0  0
   37.3960   25.9780   42.1230 H   0  0  0  0  0  0  0  0  0  0  0  0
   39.8210   26.6630   41.9740 H   0  0  0  0  0  0  0  0  0  0  0  0
   39.4320   28.0400   43.0480 H   0  0  0  0  0  0  0  0  0  0  0  0
   38.6070   27.5560   40.2080 H   0  0  0  0  0  0  0  0  0  0  0  0
   39.9330   29.0870   40.8160 C   0  0  0  0  0  0  0  0  0  0  0  0
   40.8530   28.5350   41.0830 H   0  0  0  0  0  0  0  0  0  0  0  0
   39.9610   29.3760   39.7370 H   0  0  0  0  0  0  0  0  0  0  0  0
   39.9160   30.0250   41.3890 H   0  0  0  0  0  0  0  0  0  0  0  0
   37.0240   32.0590   39.4890 C   0  0  1  0  0  0  0  0  0  0  0  0
   36.4830   30.8100   39.1780 C   0  0  0  0  0  0  0  0  0  0  0  0
   36.6000   31.0800   40.6220 C   0  0  1  0  0  0  0  0  0  0  0  0
   36.4020   32.9910   39.4160 H   0  0  0  0  0  0  0  0  0  0  0  0
   35.4820   30.7070   38.7280 H   0  0  0  0  0  0  0  0  0  0  0  0
   37.1600   29.9830   38.8100 H   0  0  0  0  0  0  0  0  0  0  0  0
   35.7920   31.5240   41.2230 H   0  0  0  0  0  0  0  0  0  0  0  0
   38.8910   33.4630   40.3740 C   0  0  0  0  0  0  0  0  0  0  0  0
   38.4730   32.4410   39.4590 C   0  0  0  0  0  0  0  0  0  0  0  0
   39.3720   31.8720   38.6110 C   0  0  0  0  0  0  0  0  0  0  0  0
   40.6740   32.3180   38.6720 N   0  0  0  0  0  0  0  0  0  0  0  0
   41.0470   33.2830   39.5430 C   0  0  0  0  0  0  0  0  0  0  0  0
   40.1800   33.8840   40.4150 N   0  0  0  0  0  0  0  0  0  0  0  0
   38.2280   33.9530   41.0710 H   0  0  0  0  0  0  0  0  0  0  0  0
   39.0610   31.1010   37.9210 H   0  0  0  0  0  0  0  0  0  0  0  0
   42.4940   33.5960   39.4250 C   0  0  0  0  0  0  0  0  0  0  0  0
   43.4190   33.7530   40.4130 C   0  0  0  0  0  0  0  0  0  0  0  0
   43.0870   33.6400   41.4370 H   0  0  0  0  0  0  0  0  0  0  0  0
   44.7120   34.0420   40.0900 C   0  0  0  0  0  3  0  0  0  0  0  0
   44.9990   34.1610   38.7090 C   0  0  0  0  0  3  0  0  0  0  0  0
   43.2990   33.8290   37.9390 S   0  0  0  0  0  0  0  0  0  0  0  0
  1  2  1  0  0  0  0
  3  1  1  0  0  0  0
  4  1  1  0  0  0  0
  4  5  1  0  0  0  0
  5  6  1  0  0  0  0
  6 13  1  0  0  0  0
  6 12  1  0  0  0  0
  7  6  1  0  0  0  0
  7 14  1  0  0  0  0
  8  7  1  0  0  0  0
  8 17  1  0  0  0  0
  9 18  1  6  0  0  0
  9  4  1  0  0  0  0
  9  8  1  0  0  0  0
 10  5  1  0  0  0  0
 11  5  1  0  0  0  0
 15  7  1  0  0  0  0
 16  8  1  0  0  0  0
 19 20  1  0  0  0  0
 19  9  1  0  0  0  0
 19 22  1  0  0  0  0
 21 19  1  0  0  0  0
 23 26  1  6  0  0  0
 23 25  1  0  0  0  0
 24 23  1  0  0  0  0
 24 25  1  0  0  0  0
 25 29  1  1  0  0  0
 25  1  1  0  0  0  0
 27 24  1  0  0  0  0
 28 24  1  0  0  0  0
 30 35  1  0  0  0  0
 30 36  1  0  0  0  0
 31 23  1  0  0  0  0
 31 30  2  0  0  0  0
 32 33  2  0  0  0  0
 32 31  1  0  0  0  0
 33 34  1  0  0  0  0
 34 35  2  0  0  0  0
 37 32  1  0  0  0  0
 38 34  1  0  0  0  0
 38 39  2  0  0  0  0
 39 40  1  0  0  0  0
 41 39  1  0  0  0  0
 42 41  2  0  0  0  0
 43 42  1  0  0  0  0
 43 38  1  0  0  0  0
M  END
>  <minimizedAffinity>
-5.23202705

$$$$

 OpenBabel03252500383D

 43 46  0  0  1  0  0  0  0  0999 V2000
   38.1560   26.5070   41.9330 C   0  0  0  0  0  0  0  0  0  0  0  0
   39.0930   25.8880   41.9850 H   0  0  0  0  0  0  0  0  0  0  0  0
   38.4120   27.3650   41.2800 H   0  0  0  0  0  0  0  0  0  0  0  0
   37.0900   25.7300   41.4200 N   0  0  0  0  0  0  0  0  0  0  0  0
   36.9530   24.4130   41.8730 C   0  0  0  0  0  0  0  0  0  0  0  0
   37.7190   23.4290   40.9710 C   0  0  0  0  0  0  0  0  0  0  0  0
   37.0030   23.4210   39.6460 C   0  0  0  0  0  0  0  0  0  0  0  0
   37.1110   24.8360   39.1080 C   0  0  0  0  0  0  0  0  0  0  0  0
   36.6880   25.8990   40.0880 C   0  0  2  0  0  0  0  0  0  0  0  0
   37.0630   24.1850   42.9270 H   0  0  0  0  0  0  0  0  0  0  0  0
   35.8730   24.1350   41.6630 H   0  0  0  0  0  0  0  0  0  0  0  0
   38.7840   23.7180   40.8760 H   0  0  0  0  0  0  0  0  0  0  0  0
   37.6160   22.4270   41.4350 H   0  0  0  0  0  0  0  0  0  0  0  0
   37.4570   22.7650   38.9040 H   0  0  0  0  0  0  0  0  0  0  0  0
   35.9420   23.2050   39.8670 H   0  0  0  0  0  0  0  0  0  0  0  0
   36.5530   24.9790   38.1780 H   0  0  0  0  0  0  0  0  0  0  0  0
   38.1880   25.0160   38.9030 H   0  0  0  0  0  0  0  0  0  0  0  0
   35.5790   25.9360   40.0570 H   0  0  0  0  0  0  0  0  0  0  0  0
   37.1620   27.2300   39.5170 C   0  0  0  0  0  0  0  0  0  0  0  0
   37.1450   27.2060   38.4110 H   0  0  0  0  0  0  0  0  0  0  0  0
   36.5060   28.0520   39.8920 H   0  0  0  0  0  0  0  0  0  0  0  0
   38.1840   27.4750   39.8390 H   0  0  0  0  0  0  0  0  0  0  0  0
   37.7740   28.4610   43.6420 C   0  0  1  0  0  0  0  0  0  0  0  0
   36.5730   27.7620   43.5060 C   0  0  0  0  0  0  0  0  0  0  0  0
   37.7810   26.9440   43.2960 C   0  0  1  0  0  0  0  0  0  0  0  0
   38.1810   28.7140   44.6570 H   0  0  0  0  0  0  0  0  0  0  0  0
   35.9230   27.5510   44.3710 H   0  0  0  0  0  0  0  0  0  0  0  0
   35.9470   27.9000   42.5750 H   0  0  0  0  0  0  0  0  0  0  0  0
   38.2750   26.3750   44.0990 H   0  0  0  0  0  0  0  0  0  0  0  0
   37.5120   30.0640   41.7450 C   0  0  0  0  0  0  0  0  0  0  0  0
   38.4010   29.3690   42.6290 C   0  0  0  0  0  0  0  0  0  0  0  0
   39.7470   29.5410   42.5200 C   0  0  0  0  0  0  0  0  0  0  0  0
   40.2010   30.3960   41.5390 N   0  0  0  0  0  0  0  0  0  0  0  0
   39.3440   31.0410   40.7160 C   0  0  0  0  0  0  0  0  0  0  0  0
   37.9840   30.9010   40.7870 N   0  0  0  0  0  0  0  0  0  0  0  0
   36.4360   29.9710   41.7800 H   0  0  0  0  0  0  0  0  0  0  0  0
   40.4200   29.0200   43.1850 H   0  0  0  0  0  0  0  0  0  0  0  0
   40.0640   31.9020   39.7440 C   0  0  0  0  0  0  0  0  0  0  0  0
   40.2890   31.6910   38.4170 C   0  0  0  0  0  0  0  0  0  0  0  0
   39.9030   30.7800   37.9790 H   0  0  0  0  0  0  0  0  0  0  0  0
   40.9820   32.6160   37.6920 C   0  0  0  0  0  3  0  0  0  0  0  0
   41.4270   33.7580   38.4000 C   0  0  0  0  0  3  0  0  0  0  0  0
   40.7800   33.3980   40.1450 S   0  0  0  0  0  0  0  0  0  0  0  0
  1  2  1  0  0  0  0
  1 25  1  0  0  0  0
  3  1  1  0  0  0  0
  4  5  1  0  0  0  0
  4  1  1  0  0  0  0
  5 10  1  0  0  0  0
  6 13  1  0  0  0  0
  6  5  1  0  0  0  0
  7 15  1  0  0  0  0
  7  6  1  0  0  0  0
  8  7  1  0  0  0  0
  8  9  1  0  0  0  0
  9 18  1  6  0  0  0
  9  4  1  0  0  0  0
 11  5  1  0  0  0  0
 12  6  1  0  0  0  0
 14  7  1  0  0  0  0
 16  8  1  0  0  0  0
 17  8  1  0  0  0  0
 19 22  1  0  0  0  0
 19 21  1  0  0  0  0
 19  9  1  0  0  0  0
 20 19  1  0  0  0  0
 23 26  1  1  0  0  0
 24 23  1  0  0  0  0
 24 27  1  0  0  0  0
 25 24  1  0  0  0  0
 25 23  1  0  0  0  0
 25 29  1  1  0  0  0
 28 24  1  0  0  0  0
 30 36  1  0  0  0  0
 30 31  1  0  0  0  0
 31 23  1  0  0  0  0
 32 31  2  0  0  0  0
 32 37  1  0  0  0  0
 33 32  1  0  0  0  0
 34 35  1  0  0  0  0
 34 33  2  0  0  0  0
 35 30  2  0  0  0  0
 38 43  1  0  0  0  0
 38 34  1  0  0  0  0
 39 38  2  0  0  0  0
 40 39  1  0  0  0  0
 41 42  2  0  0  0  0
 41 39  1  0  0  0  0
 42 43  1  0  0  0  0
M  END
>  <minimizedAffinity>
-5.18033028

$$$$

 OpenBabel03252500383D

 43 46  0  0  1  0  0  0  0  0999 V2000
   37.5240   26.3810   41.4700 C   0  0  0  0  0  0  0  0  0  0  0  0
   37.7910   27.3950   41.0620 H   0  0  0  0  0  0  0  0  0  0  0  0
   36.5800   26.1030   40.9610 H   0  0  0  0  0  0  0  0  0  0  0  0
   38.5720   25.4650   41.2120 N   0  0  0  0  0  0  0  0  0  0  0  0
   38.8560   24.4940   42.1790 C   0  0  0  0  0  0  0  0  0  0  0  0
   39.9230   24.9870   43.1720 C   0  0  0  0  0  0  0  0  0  0  0  0
   41.2080   25.0940   42.3950 C   0  0  0  0  0  0  0  0  0  0  0  0
   40.9570   26.1340   41.3180 C   0  0  0  0  0  0  0  0  0  0  0  0
   39.7090   25.8910   40.5110 C   0  0  2  0  0  0  0  0  0  0  0  0
   38.0490   23.9580   42.6670 H   0  0  0  0  0  0  0  0  0  0  0  0
   39.4090   23.6720   41.6250 H   0  0  0  0  0  0  0  0  0  0  0  0
   39.6260   25.9480   43.6350 H   0  0  0  0  0  0  0  0  0  0  0  0
   40.0370   24.1920   43.9370 H   0  0  0  0  0  0  0  0  0  0  0  0
   42.0520   25.4490   42.9860 H   0  0  0  0  0  0  0  0  0  0  0  0
   41.3630   24.1120   41.9110 H   0  0  0  0  0  0  0  0  0  0  0  0
   41.8000   26.2430   40.6300 H   0  0  0  0  0  0  0  0  0  0  0  0
   40.8030   27.1010   41.8420 H   0  0  0  0  0  0  0  0  0  0  0  0
   39.9650   25.1210   39.7540 H   0  0  0  0  0  0  0  0  0  0  0  0
   39.4440   27.1700   39.7260 C   0  0  0  0  0  0  0  0  0  0  0  0
   40.3950   27.6710   39.4680 H   0  0  0  0  0  0  0  0  0  0  0  0
   38.8760   26.9260   38.7950 H   0  0  0  0  0  0  0  0  0  0  0  0
   38.8240   27.8800   40.2920 H   0  0  0  0  0  0  0  0  0  0  0  0
   37.5580   27.8400   43.6500 C   0  0  1  0  0  0  0  0  0  0  0  0
   36.2780   27.3000   43.5080 C   0  0  0  0  0  0  0  0  0  0  0  0
   37.3550   26.4720   42.9370 C   0  0  1  0  0  0  0  0  0  0  0  0
   38.1010   27.7820   44.6310 H   0  0  0  0  0  0  0  0  0  0  0  0
   35.7080   26.9210   44.3730 H   0  0  0  0  0  0  0  0  0  0  0  0
   35.5720   27.7290   42.7370 H   0  0  0  0  0  0  0  0  0  0  0  0
   37.8670   25.6740   43.4960 H   0  0  0  0  0  0  0  0  0  0  0  0
   39.5960   29.0490   42.8620 C   0  0  0  0  0  0  0  0  0  0  0  0
   38.1680   28.9290   42.8220 C   0  0  0  0  0  0  0  0  0  0  0  0
   37.4300   29.7850   42.0630 C   0  0  0  0  0  0  0  0  0  0  0  0
   38.1090   30.7520   41.3540 N   0  0  0  0  0  0  0  0  0  0  0  0
   39.4570   30.8470   41.4070 C   0  0  0  0  0  0  0  0  0  0  0  0
   40.2410   30.0100   42.1540 N   0  0  0  0  0  0  0  0  0  0  0  0
   40.2370   28.4020   43.4430 H   0  0  0  0  0  0  0  0  0  0  0  0
   36.3550   29.6970   42.0290 H   0  0  0  0  0  0  0  0  0  0  0  0
   39.9590   31.9610   40.5640 C   0  0  0  0  0  0  0  0  0  0  0  0
   39.5790   33.2700   40.5620 C   0  0  0  0  0  0  0  0  0  0  0  0
   38.8080   33.5730   41.2570 H   0  0  0  0  0  0  0  0  0  0  0  0
   40.1700   34.1450   39.6980 C   0  0  0  0  0  3  0  0  0  0  0  0
   41.1640   33.6050   38.8460 C   0  0  0  0  0  3  0  0  0  0  0  0
   41.1730   31.7870   39.3790 S   0  0  0  0  0  0  0  0  0  0  0  0
  1 25  1  0  0  0  0
  2  1  1  0  0  0  0
  3  1  1  0  0  0  0
  4  1  1  0  0  0  0
  4  5  1  0  0  0  0
  5 10  1  0  0  0  0
  5  6  1  0  0  0  0
  6 12  1  0  0  0  0
  6 13  1  0  0  0  0
  7 14  1  0  0  0  0
  7  6  1  0  0  0  0
  8 17  1  0  0  0  0
  8  7  1  0  0  0  0
  9 18  1  6  0  0  0
  9  4  1  0  0  0  0
  9  8  1  0  0  0  0
 11  5  1  0  0  0  0
 15  7  1  0  0  0  0
 16  8  1  0  0  0  0
 19 22  1  0  0  0  0
 19  9  1  0  0  0  0
 20 19  1  0  0  0  0
 21 19  1  0  0  0  0
 23 26  1  1  0  0  0
 24 23  1  0  0  0  0
 24 27  1  0  0  0  0
 25 29  1  1  0  0  0
 25 24  1  0  0  0  0
 25 23  1  0  0  0  0
 28 24  1  0  0  0  0
 30 36  1  0  0  0  0
 31 30  1  0  0  0  0
 31 23  1  0  0  0  0
 32 31  2  0  0  0  0
 33 34  2  0  0  0  0
 33 32  1  0  0  0  0
 34 35  1  0  0  0  0
 35 30  2  0  0  0  0
 37 32  1  0  0  0  0
 38 34  1  0  0  0  0
 39 38  2  0  0  0  0
 39 40  1  0  0  0  0
 41 39  1  0  0  0  0
 42 43  1  0  0  0  0
 42 41  2  0  0  0  0
 43 38  1  0  0  0  0
M  END
>  <minimizedAffinity>
-5.13947344

$$$$

 OpenBabel03252500383D

 43 46  0  0  1  0  0  0  0  0999 V2000
   39.0360   27.6800   41.5640 C   0  0  0  0  0  0  0  0  0  0  0  0
   40.0150   27.3990   41.0850 H   0  0  0  0  0  0  0  0  0  0  0  0
   38.3030   27.6960   40.7330 H   0  0  0  0  0  0  0  0  0  0  0  0
   38.7020   26.7400   42.5680 N   0  0  0  0  0  0  0  0  0  0  0  0
   39.6600   26.4460   43.5450 C   0  0  0  0  0  0  0  0  0  0  0  0
   40.5360   25.2510   43.1280 C   0  0  0  0  0  0  0  0  0  0  0  0
   39.6390   24.0420   43.1400 C   0  0  0  0  0  0  0  0  0  0  0  0
   38.5680   24.3090   42.0990 C   0  0  0  0  0  0  0  0  0  0  0  0
   37.8880   25.6450   42.2490 C   0  0  2  0  0  0  0  0  0  0  0  0
   40.2330   27.2430   44.0040 H   0  0  0  0  0  0  0  0  0  0  0  0
   39.0750   26.0170   44.4180 H   0  0  0  0  0  0  0  0  0  0  0  0
   41.0040   25.4230   42.1380 H   0  0  0  0  0  0  0  0  0  0  0  0
   41.3050   25.1300   43.9180 H   0  0  0  0  0  0  0  0  0  0  0  0
   40.1410   23.1190   42.8490 H   0  0  0  0  0  0  0  0  0  0  0  0
   39.1660   24.0150   44.1390 H   0  0  0  0  0  0  0  0  0  0  0  0
   37.8010   23.5290   42.0720 H   0  0  0  0  0  0  0  0  0  0  0  0
   39.0820   24.3320   41.1150 H   0  0  0  0  0  0  0  0  0  0  0  0
   37.1280   25.5260   43.0490 H   0  0  0  0  0  0  0  0  0  0  0  0
   37.1020   25.8780   40.9640 C   0  0  0  0  0  0  0  0  0  0  0  0
   36.7450   24.9170   40.5480 H   0  0  0  0  0  0  0  0  0  0  0  0
   36.2350   26.5500   41.1730 H   0  0  0  0  0  0  0  0  0  0  0  0
   37.7080   26.3810   40.1970 H   0  0  0  0  0  0  0  0  0  0  0  0
   38.1420   30.1260   41.8790 C   0  0  1  0  0  0  0  0  0  0  0  0
   38.1180   29.4900   43.1230 C   0  0  0  0  0  0  0  0  0  0  0  0
   39.1680   29.0040   42.2100 C   0  0  1  0  0  0  0  0  0  0  0  0
   38.5870   31.1510   41.7650 H   0  0  0  0  0  0  0  0  0  0  0  0
   38.4080   30.0150   44.0480 H   0  0  0  0  0  0  0  0  0  0  0  0
   37.3150   28.7270   43.3450 H   0  0  0  0  0  0  0  0  0  0  0  0
   40.1920   29.4090   42.1930 H   0  0  0  0  0  0  0  0  0  0  0  0
   35.9370   29.3260   41.0250 C   0  0  0  0  0  0  0  0  0  0  0  0
   37.2310   29.8620   40.7200 C   0  0  0  0  0  0  0  0  0  0  0  0
   37.5860   30.1000   39.4280 C   0  0  0  0  0  0  0  0  0  0  0  0
   36.6620   29.8040   38.4500 N   0  0  0  0  0  0  0  0  0  0  0  0
   35.4470   29.2980   38.7590 C   0  0  0  0  0  0  0  0  0  0  0  0
   35.0440   29.0430   40.0420 N   0  0  0  0  0  0  0  0  0  0  0  0
   35.5940   29.1150   42.0270 H   0  0  0  0  0  0  0  0  0  0  0  0
   38.5600   30.5050   39.1950 H   0  0  0  0  0  0  0  0  0  0  0  0
   34.6280   29.0610   37.5440 C   0  0  0  0  0  0  0  0  0  0  0  0
   33.2730   28.9770   37.4290 C   0  0  0  0  0  0  0  0  0  0  0  0
   32.6820   29.0950   38.3270 H   0  0  0  0  0  0  0  0  0  0  0  0
   32.7100   28.7500   36.2070 C   0  0  0  0  0  3  0  0  0  0  0  0
   33.6090   28.6150   35.1210 C   0  0  0  0  0  3  0  0  0  0  0  0
   35.2810   28.8380   35.9840 S   0  0  0  0  0  0  0  0  0  0  0  0
  1 25  1  0  0  0  0
  1  4  1  0  0  0  0
  2  1  1  0  0  0  0
  3  1  1  0  0  0  0
  4  5  1  0  0  0  0
  5 10  1  0  0  0  0
  5 11  1  0  0  0  0
  6  7  1  0  0  0  0
  6  5  1  0  0  0  0
  6 13  1  0  0  0  0
  7 15  1  0  0  0  0
  8  9  1  0  0  0  0
  8  7  1  0  0  0  0
  9  4  1  0  0  0  0
  9 18  1  1  0  0  0
 12  6  1  0  0  0  0
 14  7  1  0  0  0  0
 16  8  1  0  0  0  0
 17  8  1  0  0  0  0
 19 21  1  0  0  0  0
 19  9  1  0  0  0  0
 20 19  1  0  0  0  0
 22 19  1  0  0  0  0
 23 26  1  1  0  0  0
 23 25  1  0  0  0  0
 23 24  1  0  0  0  0
 24 28  1  0  0  0  0
 24 27  1  0  0  0  0
 25 29  1  1  0  0  0
 25 24  1  0  0  0  0
 30 36  1  0  0  0  0
 31 30  1  0  0  0  0
 31 23  1  0  0  0  0
 32 31  2  0  0  0  0
 33 34  2  0  0  0  0
 33 32  1  0  0  0  0
 34 35  1  0  0  0  0
 35 30  2  0  0  0  0
 37 32  1  0  0  0  0
 38 34  1  0  0  0  0
 39 38  2  0  0  0  0
 39 40  1  0  0  0  0
 41 39  1  0  0  0  0
 42 43  1  0  0  0  0
 42 41  2  0  0  0  0
 43 38  1  0  0  0  0
M  END
>  <minimizedAffinity>
-4.97308874

$$$$

 OpenBabel03252500383D

 43 46  0  0  1  0  0  0  0  0999 V2000
   37.3020   27.0680   40.0020 C   0  0  0  0  0  0  0  0  0  0  0  0
   38.0080   27.9180   39.7910 H   0  0  0  0  0  0  0  0  0  0  0  0
   37.8940   26.1490   39.8190 H   0  0  0  0  0  0  0  0  0  0  0  0
   36.8260   27.1540   41.3320 N   0  0  0  0  0  0  0  0  0  0  0  0
   36.2580   28.3610   41.7560 C   0  0  0  0  0  0  0  0  0  0  0  0
   37.3140   29.2880   42.3830 C   0  0  0  0  0  0  0  0  0  0  0  0
   37.7450   28.6320   43.6680 C   0  0  0  0  0  0  0  0  0  0  0  0
   38.3650   27.3050   43.2700 C   0  0  0  0  0  0  0  0  0  0  0  0
   37.5020   26.4760   42.3560 C   0  0  2  0  0  0  0  0  0  0  0  0
   35.5660   28.8930   41.1130 H   0  0  0  0  0  0  0  0  0  0  0  0
   35.6170   28.0910   42.6520 H   0  0  0  0  0  0  0  0  0  0  0  0
   38.1610   29.4570   41.6890 H   0  0  0  0  0  0  0  0  0  0  0  0
   36.7990   30.2390   42.6250 H   0  0  0  0  0  0  0  0  0  0  0  0
   38.5090   29.1880   44.2110 H   0  0  0  0  0  0  0  0  0  0  0  0
   36.8220   28.4350   44.2430 H   0  0  0  0  0  0  0  0  0  0  0  0
   38.6460   26.6940   44.1330 H   0  0  0  0  0  0  0  0  0  0  0  0
   39.2850   27.5450   42.6950 H   0  0  0  0  0  0  0  0  0  0  0  0
   36.7520   25.9700   42.9990 H   0  0  0  0  0  0  0  0  0  0  0  0
   38.3930   25.3660   41.8090 C   0  0  0  0  0  0  0  0  0  0  0  0
   39.1560   25.0770   42.5550 H   0  0  0  0  0  0  0  0  0  0  0  0
   37.7650   24.4810   41.5420 H   0  0  0  0  0  0  0  0  0  0  0  0
   38.9100   25.6690   40.8880 H   0  0  0  0  0  0  0  0  0  0  0  0
   36.0980   28.2700   38.0050 C   0  0  1  0  0  0  0  0  0  0  0  0
   36.2990   26.9340   37.6510 C   0  0  0  0  0  0  0  0  0  0  0  0
   36.1350   27.1630   39.0980 C   0  0  1  0  0  0  0  0  0  0  0  0
   35.0970   28.7590   37.8650 H   0  0  0  0  0  0  0  0  0  0  0  0
   35.5330   26.3570   37.1070 H   0  0  0  0  0  0  0  0  0  0  0  0
   37.3310   26.5820   37.3570 H   0  0  0  0  0  0  0  0  0  0  0  0
   35.1650   27.1080   39.6150 H   0  0  0  0  0  0  0  0  0  0  0  0
   38.3940   29.0820   37.4550 C   0  0  0  0  0  0  0  0  0  0  0  0
   37.1460   29.3350   38.1130 C   0  0  0  0  0  0  0  0  0  0  0  0
   36.9580   30.4940   38.8020 C   0  0  0  0  0  0  0  0  0  0  0  0
   38.0050   31.3900   38.8370 N   0  0  0  0  0  0  0  0  0  0  0  0
   39.1740   31.1310   38.2080 C   0  0  0  0  0  0  0  0  0  0  0  0
   39.4090   29.9820   37.5030 N   0  0  0  0  0  0  0  0  0  0  0  0
   38.6060   28.1850   36.8930 H   0  0  0  0  0  0  0  0  0  0  0  0
   36.0190   30.6880   39.2990 H   0  0  0  0  0  0  0  0  0  0  0  0
   40.1460   32.2380   38.3860 C   0  0  0  0  0  0  0  0  0  0  0  0
   40.1540   33.2280   39.3240 C   0  0  0  0  0  0  0  0  0  0  0  0
   39.3560   33.2360   40.0540 H   0  0  0  0  0  0  0  0  0  0  0  0
   41.1480   34.1610   39.3150 C   0  0  0  0  0  3  0  0  0  0  0  0
   42.1240   34.0230   38.2990 C   0  0  0  0  0  3  0  0  0  0  0  0
   41.5070   32.4810   37.3870 S   0  0  0  0  0  0  0  0  0  0  0  0
  1  4  1  0  0  0  0
  2  1  1  0  0  0  0
  3  1  1  0  0  0  0
  4  5  1  0  0  0  0
  4  9  1  0  0  0  0
  5  6  1  0  0  0  0
  5 11  1  0  0  0  0
  6 13  1  0  0  0  0
  6  7  1  0  0  0  0
  7 14  1  0  0  0  0
  7 15  1  0  0  0  0
  8  7  1  0  0  0  0
  8 16  1  0  0  0  0
  9 18  1  1  0  0  0
  9  8  1  0  0  0  0
 10  5  1  0  0  0  0
 12  6  1  0  0  0  0
 17  8  1  0  0  0  0
 19  9  1  0  0  0  0
 19 20  1  0  0  0  0
 21 19  1  0  0  0  0
 22 19  1  0  0  0  0
 23 26  1  6  0  0  0
 23 31  1  0  0  0  0
 23 25  1  0  0  0  0
 24 23  1  0  0  0  0
 24 25  1  0  0  0  0
 25 29  1  1  0  0  0
 25  1  1  0  0  0  0
 27 24  1  0  0  0  0
 28 24  1  0  0  0  0
 30 35  2  0  0  0  0
 30 31  1  0  0  0  0
 31 32  2  0  0  0  0
 32 33  1  0  0  0  0
 32 37  1  0  0  0  0
 34 38  1  0  0  0  0
 34 33  2  0  0  0  0
 35 34  1  0  0  0  0
 36 30  1  0  0  0  0
 38 39  2  0  0  0  0
 39 40  1  0  0  0  0
 41 39  1  0  0  0  0
 42 41  2  0  0  0  0
 43 42  1  0  0  0  0
 43 38  1  0  0  0  0
M  END
>  <minimizedAffinity>
-4.88030052

$$$$
