
 OpenBabel03252506253D

 42 46  0  0  0  0  0  0  0  0999 V2000
   46.4640   30.1250   48.2900 C   0  0  0  0  0  0  0  0  0  0  0  0
   46.7670   29.6900   49.2890 H   0  0  0  0  0  0  0  0  0  0  0  0
   45.8260   30.9930   48.5500 H   0  0  0  0  0  0  0  0  0  0  0  0
   45.9230   27.7280   47.5170 C   0  0  0  0  0  0  0  0  0  0  0  0
   45.7070   29.0970   47.5940 C   0  0  0  0  0  0  0  0  0  0  0  0
   44.6130   29.5670   46.9040 C   0  0  0  0  0  0  0  0  0  0  0  0
   43.7730   28.7500   46.1780 C   0  0  0  0  0  0  0  0  0  0  0  0
   42.6680   28.9230   45.4360 N   0  0  0  0  0  0  0  0  0  0  0  0
   42.2260   27.7680   44.9380 C   0  0  0  0  0  0  0  0  0  0  0  0
   43.0640   26.7640   45.3550 C   0  0  0  0  0  0  0  0  0  0  0  0
   44.0070   27.3880   46.1150 C   0  0  0  0  0  0  0  0  0  0  0  0
   45.0900   26.9020   46.7940 C   0  0  0  0  0  0  0  0  0  0  0  0
   46.7990   27.4880   48.0920 H   0  0  0  0  0  0  0  0  0  0  0  0
   44.3120   30.6030   46.8650 H   0  0  0  0  0  0  0  0  0  0  0  0
   42.2090   29.8670   45.2730 H   0  0  0  0  0  0  0  0  0  0  0  0
   41.3490   27.6880   44.3130 H   0  0  0  0  0  0  0  0  0  0  0  0
   42.8840   25.7610   45.0670 H   0  0  0  0  0  0  0  0  0  0  0  0
   45.5060   25.5180   46.8510 C   0  0  0  0  0  0  0  0  0  0  0  0
   46.0570   24.7060   45.9740 C   0  0  0  0  0  0  0  0  0  0  0  0
   46.3430   24.8570   44.9640 H   0  0  0  0  0  0  0  0  0  0  0  0
   46.3830   23.4250   46.2470 C   0  0  0  0  0  3  0  0  0  0  0  0
   46.1090   22.9600   47.5470 C   0  0  0  0  0  3  0  0  0  0  0  0
   45.3640   24.5160   48.2810 S   0  0  0  0  0  0  0  0  0  0  0  0
   47.7120   30.5960   47.6430 C   0  0  0  0  0  0  0  0  0  0  0  0
   48.1910   31.3320   48.3380 H   0  0  0  0  0  0  0  0  0  0  0  0
   48.3970   29.7750   47.4500 H   0  0  0  0  0  0  0  0  0  0  0  0
   46.6440   32.8520   45.0790 C   0  0  0  0  0  0  0  0  0  0  0  0
   47.2420   31.8280   44.3290 C   0  0  0  0  0  0  0  0  0  0  0  0
   47.7070   30.8770   45.1770 C   0  0  0  0  0  0  0  0  0  0  0  0
   47.4050   31.2990   46.4080 N   0  0  0  0  0  0  0  0  0  0  0  0
   46.7670   32.4850   46.3640 N   0  0  0  0  0  0  0  0  0  0  0  0
   47.3460   31.7570   43.2480 H   0  0  0  0  0  0  0  0  0  0  0  0
   48.2240   29.9480   44.9470 H   0  0  0  0  0  0  0  0  0  0  0  0
   44.5210   35.7940   44.7000 C   0  0  0  0  0  0  0  0  0  0  0  0
   44.8650   36.2950   43.4560 C   0  0  0  0  0  0  0  0  0  0  0  0
   45.8380   35.6090   42.7450 C   0  0  0  0  0  0  0  0  0  0  0  0
   46.3870   34.5000   43.3090 N   0  0  0  0  0  0  0  0  0  0  0  0
   46.0330   34.0440   44.5110 C   0  0  0  0  0  0  0  0  0  0  0  0
   45.1000   34.6950   45.2010 N   0  0  0  0  0  0  0  0  0  0  0  0
   43.7610   36.3420   45.2390 H   0  0  0  0  0  0  0  0  0  0  0  0
   44.4410   37.1620   43.0060 H   0  0  0  0  0  0  0  0  0  0  0  0
   46.2170   35.8600   41.7780 H   0  0  0  0  0  0  0  0  0  0  0  0
  1  3  1  0  0  0  0
  1  2  1  0  0  0  0
  4  5  1  0  0  0  0
  4 13  1  0  0  0  0
  5  1  1  0  0  0  0
  6  5  2  0  0  0  0
  7  6  1  0  0  0  0
  8  7  1  0  0  0  0
  9 10  2  0  0  0  0
  9  8  1  0  0  0  0
 10 11  1  0  0  0  0
 11  7  2  0  0  0  0
 11 12  1  0  0  0  0
 12 18  1  0  0  0  0
 12  4  2  0  0  0  0
 14  6  1  0  0  0  0
 15  8  1  0  0  0  0
 16  9  1  0  0  0  0
 17 10  1  0  0  0  0
 18 23  1  0  0  0  0
 19 21  1  0  0  0  0
 19 18  2  0  0  0  0
 20 19  1  0  0  0  0
 21 22  2  0  0  0  0
 22 23  1  0  0  0  0
 24  1  1  0  0  0  0
 24 25  1  0  0  0  0
 26 24  1  0  0  0  0
 27 31  2  0  0  0  0
 28 27  1  0  0  0  0
 28 29  2  0  0  0  0
 29 30  1  0  0  0  0
 30 24  1  0  0  0  0
 31 30  1  0  0  0  0
 32 28  1  0  0  0  0
 33 29  1  0  0  0  0
 34 39  1  0  0  0  0
 34 40  1  0  0  0  0
 35 34  2  0  0  0  0
 36 37  2  0  0  0  0
 36 35  1  0  0  0  0
 37 38  1  0  0  0  0
 38 27  1  0  0  0  0
 38 39  2  0  0  0  0
 41 35  1  0  0  0  0
 42 36  1  0  0  0  0
M  END
>  <minimizedAffinity>
-5.17972136

>  <minimizedRMSD>
0.936564267

$$$$
