
 OpenBabel03252503463D

 41 44  0  0  1  0  0  0  0  0999 V2000
   45.0230   34.8870   44.8780 C   0  0  0  0  0  0  0  0  0  0  0  0
   45.9430   34.6800   43.8590 C   0  0  0  0  0  0  0  0  0  0  0  0
   46.8290   33.6120   43.9920 C   0  0  0  0  0  0  0  0  0  0  0  0
   46.7860   32.8150   45.0720 N   0  0  0  0  0  0  0  0  0  0  0  0
   45.8760   33.0400   46.0540 C   0  0  0  0  0  0  0  0  0  0  0  0
   45.0000   34.0610   45.9680 N   0  0  0  0  0  0  0  0  0  0  0  0
   44.2850   35.6760   44.8940 H   0  0  0  0  0  0  0  0  0  0  0  0
   47.5810   33.3450   43.3050 H   0  0  0  0  0  0  0  0  0  0  0  0
   47.3290   31.8210   47.6690 C   0  0  2  0  0  0  0  0  0  0  0  0
   45.8760   32.1320   47.1970 C   0  0  1  0  0  0  0  0  0  0  0  0
   45.3770   32.6290   48.3530 O   0  0  0  0  0  0  0  0  0  0  0  0
   45.7540   31.8020   49.3680 C   0  0  0  0  0  0  0  0  0  0  0  0
   46.9500   30.9840   48.9040 C   0  0  2  0  0  0  0  0  0  0  0  0
   47.8380   31.2120   46.9150 H   0  0  0  0  0  0  0  0  0  0  0  0
   45.4160   31.1400   46.9600 H   0  0  0  0  0  0  0  0  0  0  0  0
   44.9450   31.0780   49.5930 H   0  0  0  0  0  0  0  0  0  0  0  0
   46.0210   32.3180   50.3070 H   0  0  0  0  0  0  0  0  0  0  0  0
   46.6640   29.9590   48.6020 H   0  0  0  0  0  0  0  0  0  0  0  0
   47.9250   32.9440   48.1040 O   0  0  0  0  0  0  0  0  0  0  0  0
   48.8930   33.0050   47.9720 H   0  0  0  0  0  0  0  0  0  0  0  0
   47.9600   30.9060   49.8250 O   0  0  0  0  0  0  0  0  0  0  0  0
   48.0830   30.0250   50.2360 H   0  0  0  0  0  0  0  0  0  0  0  0
   45.9350   35.5850   42.7100 C   0  0  0  0  0  0  0  0  0  0  0  0
   45.7830   36.6470   43.0590 H   0  0  0  0  0  0  0  0  0  0  0  0
   46.9230   35.5910   42.2590 H   0  0  0  0  0  0  0  0  0  0  0  0
   44.9050   35.1990   41.7490 C   0  0  0  0  0  0  0  0  0  0  0  0
   43.6320   35.7610   41.7370 C   0  0  0  0  0  0  0  0  0  0  0  0
   42.6300   35.3780   40.8620 C   0  0  0  0  0  0  0  0  0  0  0  0
   42.9220   34.3900   39.9680 C   0  0  0  0  0  0  0  0  0  0  0  0
   44.1790   33.8310   39.9740 C   0  0  0  0  0  0  0  0  0  0  0  0
   45.2320   34.2080   40.8600 C   0  0  0  0  0  0  0  0  0  0  0  0
   43.5030   36.5440   42.4960 H   0  0  0  0  0  0  0  0  0  0  0  0
   41.7180   35.9360   41.0140 H   0  0  0  0  0  0  0  0  0  0  0  0
   42.1140   34.1340   39.3230 H   0  0  0  0  0  0  0  0  0  0  0  0
   44.2340   33.0580   39.1940 H   0  0  0  0  0  0  0  0  0  0  0  0
   46.4290   33.5270   40.4480 C   0  0  0  0  0  0  0  0  0  0  0  0
   46.7360   32.1570   40.5580 C   0  0  0  0  0  0  0  0  0  0  0  0
   46.2430   31.2680   40.8910 H   0  0  0  0  0  0  0  0  0  0  0  0
   47.9460   31.6710   40.2150 C   0  0  0  0  0  0  0  0  0  0  0  0
   48.8990   32.6070   39.7370 C   0  0  0  0  0  0  0  0  0  0  0  0
   47.8870   34.1960   39.8370 S   0  0  0  0  0  0  0  0  0  0  0  0
  1  7  1  0  0  0  0
  1  6  1  0  0  0  0
  2  3  1  0  0  0  0
  2  1  2  0  0  0  0
  3  4  2  0  0  0  0
  4  5  1  0  0  0  0
  5 10  1  0  0  0  0
  6  5  2  0  0  0  0
  8  3  1  0  0  0  0
  9 14  1  6  0  0  0
  9 19  1  0  0  0  0
  9 13  1  0  0  0  0
 10 15  1  6  0  0  0
 10  9  1  0  0  0  0
 10 11  1  0  0  0  0
 11 12  1  0  0  0  0
 12 16  1  0  0  0  0
 12 17  1  0  0  0  0
 13 18  1  6  0  0  0
 13 12  1  0  0  0  0
 13 21  1  0  0  0  0
 20 19  1  0  0  0  0
 21 22  1  0  0  0  0
 23 24  1  0  0  0  0
 23  2  1  0  0  0  0
 25 23  1  0  0  0  0
 26 23  1  0  0  0  0
 27 26  1  0  0  0  0
 27 32  1  0  0  0  0
 28 33  1  0  0  0  0
 28 27  2  0  0  0  0
 29 30  2  0  0  0  0
 29 28  1  0  0  0  0
 30 31  1  0  0  0  0
 31 26  2  0  0  0  0
 34 29  1  0  0  0  0
 35 30  1  0  0  0  0
 36 37  2  0  0  0  0
 36 31  1  0  0  0  0
 37 38  1  0  0  0  0
 39 37  1  0  0  0  0
 40 41  1  0  0  0  0
 40 39  2  0  0  0  0
 41 36  1  0  0  0  0
M  END
>  <minimizedAffinity>
-6.91119957

>  <minimizedRMSD>
0.306014597

$$$$
