
 OpenBabel03252505253D

 40 43  0  0  1  0  0  0  0  0999 V2000
   46.6910   33.2950   44.8730 F   0  0  0  0  0  0  0  0  0  0  0  0
   47.3280   32.0990   44.6820 C   0  0  0  0  0  0  0  0  0  0  0  0
   48.1630   31.9850   43.6090 C   0  0  0  0  0  0  0  0  0  0  0  0
   48.8020   30.7890   43.4140 C   0  0  0  0  0  0  0  0  0  0  0  0
   48.5860   29.7470   44.2950 C   0  0  0  0  0  0  0  0  0  0  0  0
   47.7540   29.8550   45.3680 C   0  0  0  0  0  0  0  0  0  0  0  0
   47.1030   31.0880   45.5590 C   0  0  0  0  0  0  0  0  0  0  0  0
   49.4780   30.6350   42.5810 H   0  0  0  0  0  0  0  0  0  0  0  0
   49.0980   28.8030   44.1330 H   0  0  0  0  0  0  0  0  0  0  0  0
   47.5900   29.0380   46.0520 H   0  0  0  0  0  0  0  0  0  0  0  0
   46.2420   31.1560   46.6910 N   0  0  0  0  0  0  0  0  0  0  0  0
   45.1110   30.3530   47.0680 C   0  0  0  0  0  0  0  0  0  0  0  0
   45.4280   29.9980   48.5350 C   0  0  0  0  0  0  0  0  0  0  0  0
   46.3640   31.1020   48.9720 C   0  0  0  0  0  0  0  0  0  0  0  0
   46.2600   32.0800   47.8220 C   0  0  2  0  0  0  0  0  0  0  0  0
   44.1600   30.8780   46.9620 H   0  0  0  0  0  0  0  0  0  0  0  0
   45.1320   29.4360   46.4460 H   0  0  0  0  0  0  0  0  0  0  0  0
   44.4580   30.0550   49.0690 H   0  0  0  0  0  0  0  0  0  0  0  0
   45.8900   29.0020   48.6230 H   0  0  0  0  0  0  0  0  0  0  0  0
   47.3820   30.7230   49.0660 H   0  0  0  0  0  0  0  0  0  0  0  0
   46.0720   31.5570   49.9350 H   0  0  0  0  0  0  0  0  0  0  0  0
   47.2120   32.6260   47.7740 H   0  0  0  0  0  0  0  0  0  0  0  0
   45.0740   32.9780   47.8810 C   0  0  0  0  0  0  0  0  0  0  0  0
   44.1850   32.4600   48.2880 H   0  0  0  0  0  0  0  0  0  0  0  0
   44.9340   33.4400   46.8980 H   0  0  0  0  0  0  0  0  0  0  0  0
   45.3180   33.7960   48.5890 H   0  0  0  0  0  0  0  0  0  0  0  0
   49.1670   35.2460   42.2860 C   0  0  0  0  0  0  0  0  0  0  0  0
   48.7250   35.2300   40.9630 C   0  0  0  0  0  0  0  0  0  0  0  0
   48.0820   34.0630   40.5700 C   0  0  0  0  0  0  0  0  0  0  0  0
   47.9240   33.0530   41.4430 N   0  0  0  0  0  0  0  0  0  0  0  0
   48.3600   33.1040   42.7050 C   0  0  0  0  0  0  0  0  0  0  0  0
   48.9790   34.2070   43.1080 N   0  0  0  0  0  0  0  0  0  0  0  0
   49.6630   36.1690   42.5570 H   0  0  0  0  0  0  0  0  0  0  0  0
   48.7970   35.9640   40.1960 H   0  0  0  0  0  0  0  0  0  0  0  0
   47.5360   33.7890   39.2760 C   0  0  0  0  0  0  0  0  0  0  0  0
   48.1570   34.1880   38.1560 C   0  0  0  0  0  0  0  0  0  0  0  0
   49.0810   34.7340   37.9070 H   0  0  0  0  0  0  0  0  0  0  0  0
   47.7580   34.0000   36.8730 C   0  0  0  0  0  0  0  0  0  0  0  0
   46.4610   33.2460   36.8390 C   0  0  0  0  0  0  0  0  0  0  0  0
   46.0750   32.9580   38.6940 S   0  0  0  0  0  0  0  0  0  0  0  0
  2  1  1  0  0  0  0
  2  7  1  0  0  0  0
  3  2  2  0  0  0  0
  4  3  1  0  0  0  0
  4  5  2  0  0  0  0
  5  6  1  0  0  0  0
  6  7  2  0  0  0  0
  6 10  1  0  0  0  0
  7 11  1  0  0  0  0
  8  4  1  0  0  0  0
  9  5  1  0  0  0  0
 11 12  1  0  0  0  0
 11 15  1  0  0  0  0
 12 13  1  0  0  0  0
 13 19  1  0  0  0  0
 13 14  1  0  0  0  0
 13 18  1  0  0  0  0
 14 20  1  0  0  0  0
 14 21  1  0  0  0  0
 15 22  1  6  0  0  0
 15 23  1  0  0  0  0
 15 14  1  0  0  0  0
 16 12  1  0  0  0  0
 17 12  1  0  0  0  0
 23 24  1  0  0  0  0
 23 26  1  0  0  0  0
 25 23  1  0  0  0  0
 27 33  1  0  0  0  0
 27 32  1  0  0  0  0
 28 27  2  0  0  0  0
 29 28  1  0  0  0  0
 29 30  2  0  0  0  0
 30 31  1  0  0  0  0
 31 32  2  0  0  0  0
 31  3  1  0  0  0  0
 34 28  1  0  0  0  0
 35 29  1  0  0  0  0
 36 35  2  0  0  0  0
 37 36  1  0  0  0  0
 38 36  1  0  0  0  0
 39 38  2  0  0  0  0
 39 40  1  0  0  0  0
 40 35  1  0  0  0  0
M  END
>  <minimizedAffinity>
-5.53275061

>  <minimizedRMSD>
0.804284573

$$$$
