
 OpenBabel03252506253D

 42 46  0  0  0  0  0  0  0  0999 V2000
   46.2660   30.2740   48.4650 C   0  0  0  0  0  0  0  0  0  0  0  0
   46.5140   29.8640   49.4900 H   0  0  0  0  0  0  0  0  0  0  0  0
   45.5850   31.1260   48.6670 H   0  0  0  0  0  0  0  0  0  0  0  0
   45.8590   27.8510   47.6910 C   0  0  0  0  0  0  0  0  0  0  0  0
   45.5900   29.2120   47.7380 C   0  0  0  0  0  0  0  0  0  0  0  0
   44.5220   29.6340   46.9800 C   0  0  0  0  0  0  0  0  0  0  0  0
   43.7570   28.7790   46.2160 C   0  0  0  0  0  0  0  0  0  0  0  0
   42.6920   28.9040   45.4080 N   0  0  0  0  0  0  0  0  0  0  0  0
   42.3230   27.7290   44.8990 C   0  0  0  0  0  0  0  0  0  0  0  0
   43.1700   26.7600   45.3770 C   0  0  0  0  0  0  0  0  0  0  0  0
   44.0430   27.4260   46.1830 C   0  0  0  0  0  0  0  0  0  0  0  0
   45.1000   26.9870   46.9310 C   0  0  0  0  0  0  0  0  0  0  0  0
   46.7070   27.6490   48.3200 H   0  0  0  0  0  0  0  0  0  0  0  0
   44.1860   30.6580   46.9100 H   0  0  0  0  0  0  0  0  0  0  0  0
   42.2100   29.8290   45.2070 H   0  0  0  0  0  0  0  0  0  0  0  0
   41.4880   27.6100   44.2240 H   0  0  0  0  0  0  0  0  0  0  0  0
   43.0440   25.7480   45.0910 H   0  0  0  0  0  0  0  0  0  0  0  0
   45.5630   25.6210   47.0290 C   0  0  0  0  0  0  0  0  0  0  0  0
   46.1970   24.8210   46.1980 C   0  0  0  0  0  0  0  0  0  0  0  0
   46.5410   24.9740   45.2060 H   0  0  0  0  0  0  0  0  0  0  0  0
   46.5530   23.5570   46.5040 C   0  0  0  0  0  3  0  0  0  0  0  0
   46.2130   23.0940   47.7910 C   0  0  0  0  0  3  0  0  0  0  0  0
   45.3680   24.6270   48.4590 S   0  0  0  0  0  0  0  0  0  0  0  0
   47.5400   30.7750   47.8940 C   0  0  0  0  0  0  0  0  0  0  0  0
   47.9330   31.5560   48.5920 H   0  0  0  0  0  0  0  0  0  0  0  0
   48.2700   29.9780   47.7870 H   0  0  0  0  0  0  0  0  0  0  0  0
   46.6120   32.9040   45.1720 C   0  0  0  0  0  0  0  0  0  0  0  0
   47.2450   31.8440   44.5040 C   0  0  0  0  0  0  0  0  0  0  0  0
   47.6630   30.9360   45.4210 C   0  0  0  0  0  0  0  0  0  0  0  0
   47.2990   31.4170   46.6120 N   0  0  0  0  0  0  0  0  0  0  0  0
   46.6670   32.6000   46.4780 N   0  0  0  0  0  0  0  0  0  0  0  0
   47.4040   31.7200   43.4350 H   0  0  0  0  0  0  0  0  0  0  0  0
   48.1880   29.9960   45.2630 H   0  0  0  0  0  0  0  0  0  0  0  0
   44.5320   35.8350   44.5490 C   0  0  0  0  0  0  0  0  0  0  0  0
   44.9290   36.2640   43.2930 C   0  0  0  0  0  0  0  0  0  0  0  0
   45.9230   35.5340   42.6600 C   0  0  0  0  0  0  0  0  0  0  0  0
   46.4390   34.4540   43.3050 N   0  0  0  0  0  0  0  0  0  0  0  0
   46.0340   34.0670   44.5150 C   0  0  0  0  0  0  0  0  0  0  0  0
   45.0800   34.7610   45.1320 N   0  0  0  0  0  0  0  0  0  0  0  0
   43.7570   36.4170   45.0260 H   0  0  0  0  0  0  0  0  0  0  0  0
   44.5310   37.1080   42.7800 H   0  0  0  0  0  0  0  0  0  0  0  0
   46.3410   35.7280   41.6960 H   0  0  0  0  0  0  0  0  0  0  0  0
  1  3  1  0  0  0  0
  1  2  1  0  0  0  0
  4  5  1  0  0  0  0
  4 13  1  0  0  0  0
  5  1  1  0  0  0  0
  6  5  2  0  0  0  0
  7  6  1  0  0  0  0
  8  7  1  0  0  0  0
  9 10  2  0  0  0  0
  9  8  1  0  0  0  0
 10 11  1  0  0  0  0
 11  7  2  0  0  0  0
 11 12  1  0  0  0  0
 12 18  1  0  0  0  0
 12  4  2  0  0  0  0
 14  6  1  0  0  0  0
 15  8  1  0  0  0  0
 16  9  1  0  0  0  0
 17 10  1  0  0  0  0
 18 23  1  0  0  0  0
 19 21  1  0  0  0  0
 19 18  2  0  0  0  0
 20 19  1  0  0  0  0
 21 22  2  0  0  0  0
 22 23  1  0  0  0  0
 24  1  1  0  0  0  0
 24 25  1  0  0  0  0
 26 24  1  0  0  0  0
 27 31  2  0  0  0  0
 28 27  1  0  0  0  0
 28 29  2  0  0  0  0
 29 30  1  0  0  0  0
 30 24  1  0  0  0  0
 31 30  1  0  0  0  0
 32 28  1  0  0  0  0
 33 29  1  0  0  0  0
 34 40  1  0  0  0  0
 34 39  1  0  0  0  0
 35 34  2  0  0  0  0
 36 35  1  0  0  0  0
 36 37  2  0  0  0  0
 37 38  1  0  0  0  0
 38 39  2  0  0  0  0
 38 27  1  0  0  0  0
 41 35  1  0  0  0  0
 42 36  1  0  0  0  0
M  END
>  <minimizedAffinity>
-5.20792961

>  <minimizedRMSD>
0.954248607

$$$$
