
 OpenBabel03252504493D

 21 22  0  0  0  0  0  0  0  0999 V2000
   45.6650   34.6280   44.2130 C   0  0  0  0  0  0  0  0  0  0  0  0
   46.7460   34.2790   43.4030 C   0  0  0  0  0  0  0  0  0  0  0  0
   47.4920   33.1610   43.7890 C   0  0  0  0  0  0  0  0  0  0  0  0
   47.1280   32.4900   44.9130 N   0  0  0  0  0  0  0  0  0  0  0  0
   46.0690   32.8730   45.6610 C   0  0  0  0  0  0  0  0  0  0  0  0
   45.3310   33.9460   45.3140 N   0  0  0  0  0  0  0  0  0  0  0  0
   45.0350   35.4740   43.9920 H   0  0  0  0  0  0  0  0  0  0  0  0
   48.3330   32.8860   43.1640 H   0  0  0  0  0  0  0  0  0  0  0  0
   45.8580   31.9950   46.8390 C   0  0  0  0  0  0  0  0  0  0  0  0
   45.6230   30.6430   46.8330 C   0  0  0  0  0  0  0  0  0  0  0  0
   45.5780   30.1130   45.8900 H   0  0  0  0  0  0  0  0  0  0  0  0
   45.4550   30.0130   48.0150 C   0  0  0  0  0  3  0  0  0  0  0  0
   45.5290   30.7820   49.1900 C   0  0  0  0  0  3  0  0  0  0  0  0
   45.8480   32.4460   48.5920 S   0  0  0  0  0  0  0  0  0  0  0  0
   47.0400   35.0760   42.2210 C   0  0  0  0  0  0  0  0  0  0  0  0
   46.7420   36.1100   42.3720 H   0  0  0  0  0  0  0  0  0  0  0  0
   46.5520   34.6940   41.3030 H   0  0  0  0  0  0  0  0  0  0  0  0
   48.5370   35.0680   42.0000 C   0  0  0  0  0  0  0  0  0  0  0  0
   48.7710   34.2650   41.2470 H   0  0  0  0  0  0  0  0  0  0  0  0
   49.1090   34.9070   42.9170 H   0  0  0  0  0  0  0  0  0  0  0  0
   48.8360   36.0280   41.5110 H   0  0  0  0  0  0  0  0  0  0  0  0
  1  6  1  0  0  0  0
  2  3  1  0  0  0  0
  2  1  2  0  0  0  0
  3  4  2  0  0  0  0
  4  5  1  0  0  0  0
  5  9  1  0  0  0  0
  6  5  2  0  0  0  0
  7  1  1  0  0  0  0
  8  3  1  0  0  0  0
  9 14  1  0  0  0  0
 10  9  2  0  0  0  0
 10 12  1  0  0  0  0
 11 10  1  0  0  0  0
 12 13  2  0  0  0  0
 14 13  1  0  0  0  0
 15 16  1  0  0  0  0
 15  2  1  0  0  0  0
 17 15  1  0  0  0  0
 18 15  1  0  0  0  0
 18 20  1  0  0  0  0
 19 18  1  0  0  0  0
 21 18  1  0  0  0  0
M  END
>  <minimizedAffinity>
-4.10443974

>  <minimizedRMSD>
1.55402732

$$$$
