
 OpenBabel03252504423D

 42 45  0  0  0  0  0  0  0  0999 V2000
   46.4130   32.2020   47.7660 C   0  0  0  0  0  0  0  0  0  0  0  0
   45.9460   31.8400   48.9940 C   0  0  0  0  0  0  0  0  0  0  0  0
   46.9240   31.1540   49.5840 N   0  0  0  0  0  0  0  0  0  0  0  0
   47.9870   31.0640   48.7920 C   0  0  0  0  0  0  0  0  0  0  0  0
   47.6670   31.7270   47.6390 N   0  0  0  0  0  0  0  0  0  0  0  0
   49.2650   30.4440   48.9720 N   0  0  0  0  0  0  0  0  0  0  0  0
   50.3280   31.2660   49.5930 C   0  0  0  0  0  0  0  0  0  0  0  0
   50.4340   30.7520   51.0240 C   0  0  0  0  0  0  0  0  0  0  0  0
   50.4920   29.2400   51.0250 C   0  0  0  0  0  0  0  0  0  0  0  0
   50.8530   28.7470   49.6320 C   0  0  0  0  0  0  0  0  0  0  0  0
   49.7530   29.1400   48.6640 C   0  0  0  0  0  0  0  0  0  0  0  0
   44.9610   32.0770   49.3940 H   0  0  0  0  0  0  0  0  0  0  0  0
   46.8810   30.7350   50.5440 H   0  0  0  0  0  0  0  0  0  0  0  0
   51.2950   31.1290   49.0840 H   0  0  0  0  0  0  0  0  0  0  0  0
   50.0130   32.3220   49.6550 H   0  0  0  0  0  0  0  0  0  0  0  0
   51.3410   31.1300   51.5450 H   0  0  0  0  0  0  0  0  0  0  0  0
   49.5430   31.0940   51.6110 H   0  0  0  0  0  0  0  0  0  0  0  0
   49.4900   28.8370   51.2570 H   0  0  0  0  0  0  0  0  0  0  0  0
   51.1860   28.8620   51.7780 H   0  0  0  0  0  0  0  0  0  0  0  0
   50.8440   27.6240   49.7020 H   0  0  0  0  0  0  0  0  0  0  0  0
   51.8480   29.1180   49.3050 H   0  0  0  0  0  0  0  0  0  0  0  0
   50.2050   29.1710   47.6520 H   0  0  0  0  0  0  0  0  0  0  0  0
   48.9610   28.3620   48.6400 H   0  0  0  0  0  0  0  0  0  0  0  0
   45.6810   32.9900   46.7410 C   0  0  0  0  0  0  0  0  0  0  0  0
   45.5620   34.0210   47.1700 H   0  0  0  0  0  0  0  0  0  0  0  0
   44.6730   32.5730   46.5790 H   0  0  0  0  0  0  0  0  0  0  0  0
   46.1570   33.9360   44.5060 C   0  0  0  0  0  3  0  0  0  0  0  0
   46.4790   33.1420   45.5040 C   0  0  0  0  0  3  0  0  0  0  0  0
   47.0390   33.9870   43.3440 C   0  0  0  0  0  0  0  0  0  0  0  0
   46.9740   35.0450   42.4120 C   0  0  0  0  0  0  0  0  0  0  0  0
   47.8580   35.0000   41.3410 C   0  0  0  0  0  0  0  0  0  0  0  0
   48.7320   33.9680   41.2250 N   0  0  0  0  0  0  0  0  0  0  0  0
   48.7710   32.9710   42.1310 C   0  0  0  0  0  0  0  0  0  0  0  0
   47.9430   32.9790   43.1670 N   0  0  0  0  0  0  0  0  0  0  0  0
   46.2570   35.8100   42.5860 H   0  0  0  0  0  0  0  0  0  0  0  0
   47.7810   35.8270   40.6470 H   0  0  0  0  0  0  0  0  0  0  0  0
   49.7670   31.9760   41.8240 C   0  0  0  0  0  0  0  0  0  0  0  0
   50.8630   31.5910   42.5090 C   0  0  0  0  0  0  0  0  0  0  0  0
   51.0830   32.0700   43.4530 H   0  0  0  0  0  0  0  0  0  0  0  0
   51.6720   30.6040   41.9980 C   0  0  0  0  0  3  0  0  0  0  0  0
   51.2840   30.0590   40.7680 C   0  0  0  0  0  3  0  0  0  0  0  0
   49.7540   30.9660   40.3450 S   0  0  0  0  0  0  0  0  0  0  0  0
  1  2  2  0  0  0  0
  2 12  1  0  0  0  0
  2  3  1  0  0  0  0
  3 13  1  0  0  0  0
  4  6  1  0  0  0  0
  4  3  1  0  0  0  0
  5  1  1  0  0  0  0
  5  4  2  0  0  0  0
  6  7  1  0  0  0  0
  7 15  1  0  0  0  0
  7  8  1  0  0  0  0
  8  9  1  0  0  0  0
  8 16  1  0  0  0  0
  8 17  1  0  0  0  0
  9 18  1  0  0  0  0
  9 19  1  0  0  0  0
 10 20  1  0  0  0  0
 10  9  1  0  0  0  0
 11  6  1  0  0  0  0
 11 10  1  0  0  0  0
 14  7  1  0  0  0  0
 21 10  1  0  0  0  0
 22 11  1  0  0  0  0
 23 11  1  0  0  0  0
 24 25  1  0  0  0  0
 24  1  1  0  0  0  0
 26 24  1  0  0  0  0
 27 28  2  0  0  0  0
 28 24  1  0  0  0  0
 29 27  1  0  0  0  0
 30 35  1  0  0  0  0
 30 29  2  0  0  0  0
 31 30  1  0  0  0  0
 32 31  2  0  0  0  0
 32 33  1  0  0  0  0
 33 34  2  0  0  0  0
 34 29  1  0  0  0  0
 36 31  1  0  0  0  0
 37 33  1  0  0  0  0
 37 38  2  0  0  0  0
 38 39  1  0  0  0  0
 40 38  1  0  0  0  0
 41 40  2  0  0  0  0
 42 41  1  0  0  0  0
 42 37  1  0  0  0  0
M  END
>  <minimizedAffinity>
-5.75156403

>  <minimizedRMSD>
0.561872065

$$$$
