
 OpenBabel03252504423D

 42 45  0  0  0  0  0  0  0  0999 V2000
   46.3040   32.2300   47.8560 C   0  0  0  0  0  0  0  0  0  0  0  0
   45.8580   31.8240   49.0780 C   0  0  0  0  0  0  0  0  0  0  0  0
   46.8540   31.1370   49.6370 N   0  0  0  0  0  0  0  0  0  0  0  0
   47.9100   31.0880   48.8310 C   0  0  0  0  0  0  0  0  0  0  0  0
   47.5650   31.7790   47.7010 N   0  0  0  0  0  0  0  0  0  0  0  0
   49.1990   30.4850   48.9770 N   0  0  0  0  0  0  0  0  0  0  0  0
   50.2560   31.3060   49.6110 C   0  0  0  0  0  0  0  0  0  0  0  0
   50.3870   30.7530   51.0250 C   0  0  0  0  0  0  0  0  0  0  0  0
   50.4700   29.2430   50.9800 C   0  0  0  0  0  0  0  0  0  0  0  0
   50.8230   28.7970   49.5690 C   0  0  0  0  0  0  0  0  0  0  0  0
   49.7050   29.1990   48.6260 C   0  0  0  0  0  0  0  0  0  0  0  0
   44.8740   32.0320   49.4950 H   0  0  0  0  0  0  0  0  0  0  0  0
   46.8290   30.6890   50.5840 H   0  0  0  0  0  0  0  0  0  0  0  0
   51.2190   31.2010   49.0880 H   0  0  0  0  0  0  0  0  0  0  0  0
   49.9240   32.3540   49.7080 H   0  0  0  0  0  0  0  0  0  0  0  0
   51.2940   31.1310   51.5470 H   0  0  0  0  0  0  0  0  0  0  0  0
   49.4970   31.0620   51.6320 H   0  0  0  0  0  0  0  0  0  0  0  0
   49.4780   28.8150   51.2110 H   0  0  0  0  0  0  0  0  0  0  0  0
   51.1790   28.8550   51.7140 H   0  0  0  0  0  0  0  0  0  0  0  0
   50.8330   27.6720   49.6070 H   0  0  0  0  0  0  0  0  0  0  0  0
   51.8080   29.1940   49.2430 H   0  0  0  0  0  0  0  0  0  0  0  0
   50.1450   29.2680   47.6100 H   0  0  0  0  0  0  0  0  0  0  0  0
   48.9260   28.4090   48.5870 H   0  0  0  0  0  0  0  0  0  0  0  0
   45.5480   33.0340   46.8630 C   0  0  0  0  0  0  0  0  0  0  0  0
   45.4650   34.0650   47.2990 H   0  0  0  0  0  0  0  0  0  0  0  0
   44.5270   32.6360   46.7390 H   0  0  0  0  0  0  0  0  0  0  0  0
   45.9410   33.9630   44.6050 C   0  0  0  0  0  3  0  0  0  0  0  0
   46.3000   33.1770   45.5960 C   0  0  0  0  0  3  0  0  0  0  0  0
   46.7790   34.0060   43.4110 C   0  0  0  0  0  0  0  0  0  0  0  0
   46.7000   35.0710   42.4890 C   0  0  0  0  0  0  0  0  0  0  0  0
   47.5420   35.0160   41.3840 C   0  0  0  0  0  0  0  0  0  0  0  0
   48.3910   33.9690   41.2300 N   0  0  0  0  0  0  0  0  0  0  0  0
   48.4450   32.9650   42.1280 C   0  0  0  0  0  0  0  0  0  0  0  0
   47.6570   32.9820   43.1940 N   0  0  0  0  0  0  0  0  0  0  0  0
   46.0050   35.8480   42.6930 H   0  0  0  0  0  0  0  0  0  0  0  0
   47.4550   35.8490   40.6980 H   0  0  0  0  0  0  0  0  0  0  0  0
   49.4100   31.9540   41.7770 C   0  0  0  0  0  0  0  0  0  0  0  0
   49.2500   30.6430   41.5060 C   0  0  0  0  0  0  0  0  0  0  0  0
   48.2550   30.2200   41.5440 H   0  0  0  0  0  0  0  0  0  0  0  0
   50.3450   29.8750   41.1930 C   0  0  0  0  0  3  0  0  0  0  0  0
   51.5810   30.5330   41.1760 C   0  0  0  0  0  3  0  0  0  0  0  0
   51.1690   32.2590   41.6140 S   0  0  0  0  0  0  0  0  0  0  0  0
  1  2  2  0  0  0  0
  2 12  1  0  0  0  0
  2  3  1  0  0  0  0
  3 13  1  0  0  0  0
  4  6  1  0  0  0  0
  4  3  1  0  0  0  0
  5  1  1  0  0  0  0
  5  4  2  0  0  0  0
  6  7  1  0  0  0  0
  7 15  1  0  0  0  0
  7  8  1  0  0  0  0
  8 16  1  0  0  0  0
  8 17  1  0  0  0  0
  9  8  1  0  0  0  0
  9 18  1  0  0  0  0
  9 19  1  0  0  0  0
 10 20  1  0  0  0  0
 10  9  1  0  0  0  0
 11  6  1  0  0  0  0
 11 10  1  0  0  0  0
 14  7  1  0  0  0  0
 21 10  1  0  0  0  0
 22 11  1  0  0  0  0
 23 11  1  0  0  0  0
 24 25  1  0  0  0  0
 24  1  1  0  0  0  0
 26 24  1  0  0  0  0
 27 28  2  0  0  0  0
 28 24  1  0  0  0  0
 29 27  1  0  0  0  0
 30 35  1  0  0  0  0
 30 29  2  0  0  0  0
 31 30  1  0  0  0  0
 32 31  2  0  0  0  0
 32 33  1  0  0  0  0
 33 34  2  0  0  0  0
 34 29  1  0  0  0  0
 36 31  1  0  0  0  0
 37 33  1  0  0  0  0
 38 39  1  0  0  0  0
 38 37  2  0  0  0  0
 40 38  1  0  0  0  0
 41 40  2  0  0  0  0
 41 42  1  0  0  0  0
 42 37  1  0  0  0  0
M  END
>  <minimizedAffinity>
-5.67735481

>  <minimizedRMSD>
0.737444401

$$$$
