
 OpenBabel03242522503D

 23 24  0  0  0  0  0  0  0  0999 V2000
   45.5610   30.7560   47.5820 O   0  0  0  0  0  0  0  0  0  0  0  0
   45.9090   32.0500   48.3680 P   0  0  2  0  0  0  0  0  0  0  0  0
   45.3440   31.7800   49.9270 O   0  0  0  0  0  0  0  0  0  0  0  0
   45.4280   32.5540   50.5290 H   0  0  0  0  0  0  0  0  0  0  0  0
   45.0700   33.3230   47.6480 O   0  0  0  0  0  0  0  0  0  0  0  0
   46.7250   33.4750   44.4160 C   0  0  0  0  0  0  0  0  0  0  0  0
   46.3780   33.0690   45.7190 C   0  0  0  0  0  0  0  0  0  0  0  0
   45.3810   33.7520   46.3750 C   0  0  0  0  0  0  0  0  0  0  0  0
   44.7890   34.7790   45.7290 N   0  0  0  0  0  0  0  0  0  0  0  0
   45.1120   35.1700   44.4940 C   0  0  0  0  0  0  0  0  0  0  0  0
   46.0830   34.5200   43.8310 N   0  0  0  0  0  0  0  0  0  0  0  0
   47.4930   33.0070   43.8170 H   0  0  0  0  0  0  0  0  0  0  0  0
   46.9670   32.2410   46.0290 H   0  0  0  0  0  0  0  0  0  0  0  0
   44.5400   36.0130   44.1160 H   0  0  0  0  0  0  0  0  0  0  0  0
   47.5450   32.2720   48.3130 O   0  0  0  0  0  0  0  0  0  0  0  0
   48.5790   31.6100   48.8370 C   0  0  0  0  0  0  0  0  0  0  0  0
   49.5200   32.3730   49.3310 O   0  0  0  0  0  0  0  0  0  0  0  0
   49.1930   30.1750   49.1300 C   0  0  0  0  0  0  0  0  0  0  0  0
   49.1500   29.0990   48.3820 C   0  0  0  0  0  0  0  0  0  0  0  0
   48.6110   29.1650   47.4200 H   0  0  0  0  0  0  0  0  0  0  0  0
   49.7280   27.9600   48.7510 C   0  0  0  0  0  3  0  0  0  0  0  0
   50.3910   28.0600   50.0460 C   0  0  0  0  0  3  0  0  0  0  0  0
   50.0280   29.8930   50.5080 S   0  0  0  0  0  0  0  0  0  0  0  0
  2  1  2  6  0  0  0
  2  3  1  0  0  0  0
  3  4  1  0  0  0  0
  5  2  1  0  0  0  0
  6  7  1  0  0  0  0
  7 13  1  0  0  0  0
  7  8  2  0  0  0  0
  8  5  1  0  0  0  0
  9  8  1  0  0  0  0
 10  9  2  0  0  0  0
 11  6  2  0  0  0  0
 11 10  1  0  0  0  0
 12  6  1  0  0  0  0
 14 10  1  0  0  0  0
 15  2  1  0  0  0  0
 15 16  1  0  0  0  0
 16 18  1  0  0  0  0
 16 17  2  0  0  0  0
 18 23  1  0  0  0  0
 19 21  1  0  0  0  0
 19 18  2  0  0  0  0
 20 19  1  0  0  0  0
 21 22  2  0  0  0  0
 22 23  1  0  0  0  0
M  END
>  <minimizedAffinity>
-4.74287128

>  <minimizedRMSD>
0.651915193

$$$$
