
 OpenBabel03242522503D

 23 24  0  0  0  0  0  0  0  0999 V2000
   45.5580   30.7580   47.5860 O   0  0  0  0  0  0  0  0  0  0  0  0
   45.9040   32.0500   48.3750 P   0  0  2  0  0  0  0  0  0  0  0  0
   45.3410   31.7760   49.9330 O   0  0  0  0  0  0  0  0  0  0  0  0
   45.4230   32.5480   50.5380 H   0  0  0  0  0  0  0  0  0  0  0  0
   45.0620   33.3240   47.6590 O   0  0  0  0  0  0  0  0  0  0  0  0
   46.7110   33.4830   44.4240 C   0  0  0  0  0  0  0  0  0  0  0  0
   46.3660   33.0730   45.7270 C   0  0  0  0  0  0  0  0  0  0  0  0
   45.3720   33.7560   46.3870 C   0  0  0  0  0  0  0  0  0  0  0  0
   44.7790   34.7860   45.7440 N   0  0  0  0  0  0  0  0  0  0  0  0
   45.1000   35.1790   44.5100 C   0  0  0  0  0  0  0  0  0  0  0  0
   46.0690   34.5300   43.8430 N   0  0  0  0  0  0  0  0  0  0  0  0
   47.4770   33.0150   43.8220 H   0  0  0  0  0  0  0  0  0  0  0  0
   46.9550   32.2440   46.0330 H   0  0  0  0  0  0  0  0  0  0  0  0
   44.5280   36.0250   44.1350 H   0  0  0  0  0  0  0  0  0  0  0  0
   47.5400   32.2760   48.3200 O   0  0  0  0  0  0  0  0  0  0  0  0
   48.5750   31.6130   48.8400 C   0  0  0  0  0  0  0  0  0  0  0  0
   49.5190   32.3740   49.3300 O   0  0  0  0  0  0  0  0  0  0  0  0
   49.1890   30.1760   49.1290 C   0  0  0  0  0  0  0  0  0  0  0  0
   49.1440   29.1030   48.3790 C   0  0  0  0  0  0  0  0  0  0  0  0
   48.6030   29.1690   47.4170 H   0  0  0  0  0  0  0  0  0  0  0  0
   49.7230   27.9620   48.7450 C   0  0  0  0  0  3  0  0  0  0  0  0
   50.3870   28.0600   50.0390 C   0  0  0  0  0  3  0  0  0  0  0  0
   50.0260   29.8910   50.5040 S   0  0  0  0  0  0  0  0  0  0  0  0
  2  1  2  6  0  0  0
  2  3  1  0  0  0  0
  3  4  1  0  0  0  0
  5  2  1  0  0  0  0
  6  7  1  0  0  0  0
  7 13  1  0  0  0  0
  7  8  2  0  0  0  0
  8  5  1  0  0  0  0
  9  8  1  0  0  0  0
 10  9  2  0  0  0  0
 11  6  2  0  0  0  0
 11 10  1  0  0  0  0
 12  6  1  0  0  0  0
 14 10  1  0  0  0  0
 15  2  1  0  0  0  0
 15 16  1  0  0  0  0
 16 18  1  0  0  0  0
 16 17  2  0  0  0  0
 18 23  1  0  0  0  0
 19 21  1  0  0  0  0
 19 18  2  0  0  0  0
 20 19  1  0  0  0  0
 21 22  2  0  0  0  0
 22 23  1  0  0  0  0
M  END
>  <minimizedAffinity>
-4.74203062

>  <minimizedRMSD>
0.675414264

$$$$
