
 OpenBabel03242514593D

 34 36  0  0  0  0  0  0  0  0999 V2000
   41.9700   35.0680   41.4880 C   0  0  0  0  0  0  0  0  0  0  0  0
   41.5030   34.0530   41.5210 H   0  0  0  0  0  0  0  0  0  0  0  0
   42.0210   35.4230   42.5490 H   0  0  0  0  0  0  0  0  0  0  0  0
   41.0590   35.9910   40.7410 C   0  0  0  0  0  0  0  0  0  0  0  0
   41.6660   36.7520   40.2210 H   0  0  0  0  0  0  0  0  0  0  0  0
   40.3710   36.5300   41.4160 H   0  0  0  0  0  0  0  0  0  0  0  0
   41.8650   36.2380   37.8220 Cl  0  0  0  0  0  0  0  0  0  0  0  0
   40.5280   35.3000   38.3880 C   0  0  0  0  0  0  0  0  0  0  0  0
   40.2380   35.2510   39.7620 C   0  0  0  0  0  0  0  0  0  0  0  0
   39.1600   34.4840   40.1260 C   0  0  0  0  0  0  0  0  0  0  0  0
   38.3290   33.7550   39.2930 C   0  0  0  0  0  0  0  0  0  0  0  0
   38.6340   33.8170   37.9420 C   0  0  0  0  0  0  0  0  0  0  0  0
   37.6380   32.9250   36.7940 Cl  0  0  0  0  0  0  0  0  0  0  0  0
   39.7150   34.5780   37.5110 C   0  0  0  0  0  0  0  0  0  0  0  0
   38.9380   34.4480   41.1890 H   0  0  0  0  0  0  0  0  0  0  0  0
   37.5040   33.1820   39.6940 H   0  0  0  0  0  0  0  0  0  0  0  0
   39.9140   34.5960   36.4370 H   0  0  0  0  0  0  0  0  0  0  0  0
   43.5930   34.9120   40.7490 S   0  0  0  0  0  0  0  0  0  0  0  0
   44.8820   34.6540   41.9690 C   0  0  0  0  0  0  0  0  0  0  0  0
   46.2060   34.6520   41.4940 C   0  0  0  0  0  0  0  0  0  0  0  0
   47.2380   34.4550   42.4100 C   0  0  0  0  0  0  0  0  0  0  0  0
   46.9150   34.2740   43.7170 N   0  0  0  0  0  0  0  0  0  0  0  0
   45.6500   34.2780   44.1580 C   0  0  0  0  0  0  0  0  0  0  0  0
   44.6450   34.4670   43.2860 N   0  0  0  0  0  0  0  0  0  0  0  0
   46.4530   34.7970   40.4470 H   0  0  0  0  0  0  0  0  0  0  0  0
   48.2540   34.4510   42.0540 H   0  0  0  0  0  0  0  0  0  0  0  0
   45.3990   34.0820   45.5640 C   0  0  0  0  0  0  0  0  0  0  0  0
   44.6790   34.8860   46.1820 O   0  0  0  0  0  0  0  0  0  0  0  0
   45.9740   32.9610   46.2750 C   0  0  0  0  0  0  0  0  0  0  0  0
   46.9560   32.0300   45.9850 C   0  0  0  0  0  0  0  0  0  0  0  0
   47.4300   32.1170   45.0250 H   0  0  0  0  0  0  0  0  0  0  0  0
   47.2620   31.0750   46.9110 C   0  0  0  0  0  0  0  0  0  0  0  0
   46.5630   31.0440   48.1770 C   0  0  0  0  0  0  0  0  0  0  0  0
   45.3950   32.5060   47.9800 S   0  0  0  0  0  0  0  0  0  0  0  0
  1  2  1  0  0  0  0
  1  3  1  0  0  0  0
  4  6  1  0  0  0  0
  4  1  1  0  0  0  0
  5  4  1  0  0  0  0
  7  8  1  0  0  0  0
  8  9  1  0  0  0  0
  9 10  2  0  0  0  0
  9  4  1  0  0  0  0
 10 15  1  0  0  0  0
 11 16  1  0  0  0  0
 11 10  1  0  0  0  0
 12 11  2  0  0  0  0
 13 12  1  0  0  0  0
 14 12  1  0  0  0  0
 14  8  2  0  0  0  0
 17 14  1  0  0  0  0
 18  1  1  0  0  0  0
 18 19  1  0  0  0  0
 19 24  1  0  0  0  0
 20 19  2  0  0  0  0
 20 21  1  0  0  0  0
 21 22  2  0  0  0  0
 22 23  1  0  0  0  0
 23 27  1  0  0  0  0
 24 23  2  0  0  0  0
 25 20  1  0  0  0  0
 26 21  1  0  0  0  0
 27 28  2  0  0  0  0
 27 29  1  0  0  0  0
 29 34  1  0  0  0  0
 30 29  2  0  0  0  0
 30 32  1  0  0  0  0
 31 30  1  0  0  0  0
 32 33  2  0  0  0  0
 34 33  1  0  0  0  0
M  END
>  <minimizedAffinity>
-6.63484001

>  <minimizedRMSD>
0.35957858

$$$$
