
 OpenBabel03242515023D

 34 36  0  0  0  0  0  0  0  0999 V2000
   37.5610   29.0710   43.1060 C   0  0  0  0  0  0  0  0  0  0  0  0
   37.0840   29.8660   43.7310 H   0  0  0  0  0  0  0  0  0  0  0  0
   36.7870   28.7510   42.3630 H   0  0  0  0  0  0  0  0  0  0  0  0
   37.8690   27.8950   43.9800 C   0  0  0  0  0  0  0  0  0  0  0  0
   37.0490   27.7630   44.7060 H   0  0  0  0  0  0  0  0  0  0  0  0
   38.7960   28.0430   44.5610 H   0  0  0  0  0  0  0  0  0  0  0  0
   40.5940   26.5560   44.0820 Cl  0  0  0  0  0  0  0  0  0  0  0  0
   39.2540   25.9700   43.1590 C   0  0  0  0  0  0  0  0  0  0  0  0
   38.0330   26.6650   43.1790 C   0  0  0  0  0  0  0  0  0  0  0  0
   37.0210   26.1330   42.4200 C   0  0  0  0  0  0  0  0  0  0  0  0
   37.0700   24.9920   41.6380 C   0  0  0  0  0  0  0  0  0  0  0  0
   38.2840   24.3230   41.6330 C   0  0  0  0  0  0  0  0  0  0  0  0
   38.4540   22.8570   40.6690 Cl  0  0  0  0  0  0  0  0  0  0  0  0
   39.3470   24.8130   42.3830 C   0  0  0  0  0  0  0  0  0  0  0  0
   36.0780   26.6730   42.4370 H   0  0  0  0  0  0  0  0  0  0  0  0
   36.2050   24.6650   41.0780 H   0  0  0  0  0  0  0  0  0  0  0  0
   40.2830   24.2500   42.3460 H   0  0  0  0  0  0  0  0  0  0  0  0
   39.0070   29.7730   42.3170 S   0  0  0  0  0  0  0  0  0  0  0  0
   38.5960   31.1120   41.1980 C   0  0  0  0  0  0  0  0  0  0  0  0
   37.3840   30.9950   40.4950 C   0  0  0  0  0  0  0  0  0  0  0  0
   37.0270   32.0150   39.6150 C   0  0  0  0  0  0  0  0  0  0  0  0
   37.8680   33.0730   39.4780 N   0  0  0  0  0  0  0  0  0  0  0  0
   39.0210   33.1740   40.1540 C   0  0  0  0  0  0  0  0  0  0  0  0
   39.3770   32.1980   41.0060 N   0  0  0  0  0  0  0  0  0  0  0  0
   36.7190   30.1450   40.6110 H   0  0  0  0  0  0  0  0  0  0  0  0
   36.1010   31.9330   39.0720 H   0  0  0  0  0  0  0  0  0  0  0  0
   39.8500   34.3350   39.9500 C   0  0  0  0  0  0  0  0  0  0  0  0
   39.3940   35.4700   40.1780 O   0  0  0  0  0  0  0  0  0  0  0  0
   41.2130   34.2050   39.4810 C   0  0  0  0  0  0  0  0  0  0  0  0
   41.8170   34.2440   38.2360 C   0  0  0  0  0  0  0  0  0  0  0  0
   41.1700   34.4040   37.3940 H   0  0  0  0  0  0  0  0  0  0  0  0
   43.1690   34.0810   38.1480 C   0  0  0  0  0  3  0  0  0  0  0  0
   43.9530   33.8700   39.3450 C   0  0  0  0  0  3  0  0  0  0  0  0
   42.6140   33.9180   40.6660 S   0  0  0  0  0  0  0  0  0  0  0  0
  1  2  1  0  0  0  0
  1  4  1  0  0  0  0
  3  1  1  0  0  0  0
  4  6  1  0  0  0  0
  4  5  1  0  0  0  0
  8  9  1  0  0  0  0
  8  7  1  0  0  0  0
  9  4  1  0  0  0  0
 10 15  1  0  0  0  0
 10  9  2  0  0  0  0
 11 10  1  0  0  0  0
 12 11  2  0  0  0  0
 12 14  1  0  0  0  0
 13 12  1  0  0  0  0
 14  8  2  0  0  0  0
 16 11  1  0  0  0  0
 17 14  1  0  0  0  0
 18  1  1  0  0  0  0
 19 18  1  0  0  0  0
 20 25  1  0  0  0  0
 20 19  2  0  0  0  0
 21 20  1  0  0  0  0
 22 21  2  0  0  0  0
 22 23  1  0  0  0  0
 23 24  2  0  0  0  0
 24 19  1  0  0  0  0
 26 21  1  0  0  0  0
 27 23  1  0  0  0  0
 27 28  2  0  0  0  0
 29 27  1  0  0  0  0
 29 34  1  0  0  0  0
 30 29  2  0  0  0  0
 31 30  1  0  0  0  0
 32 30  1  0  0  0  0
 32 33  2  0  0  0  0
 33 34  1  0  0  0  0
M  END
>  <minimizedAffinity>
-5.79443836

$$$$

 OpenBabel03242515023D

 34 36  0  0  0  0  0  0  0  0999 V2000
   39.4530   27.9660   43.0500 C   0  0  0  0  0  0  0  0  0  0  0  0
   39.6290   27.8200   41.9560 H   0  0  0  0  0  0  0  0  0  0  0  0
   40.3930   28.4150   43.4610 H   0  0  0  0  0  0  0  0  0  0  0  0
   39.2710   26.6250   43.6890 C   0  0  0  0  0  0  0  0  0  0  0  0
   38.5570   26.7190   44.5250 H   0  0  0  0  0  0  0  0  0  0  0  0
   40.2140   26.2350   44.1100 H   0  0  0  0  0  0  0  0  0  0  0  0
   41.3650   25.0150   42.1870 Cl  0  0  0  0  0  0  0  0  0  0  0  0
   39.6590   24.8390   41.9690 C   0  0  0  0  0  0  0  0  0  0  0  0
   38.7710   25.6340   42.7140 C   0  0  0  0  0  0  0  0  0  0  0  0
   37.4340   25.4320   42.4800 C   0  0  0  0  0  0  0  0  0  0  0  0
   36.8640   24.5350   41.5940 C   0  0  0  0  0  0  0  0  0  0  0  0
   37.7580   23.7610   40.8700 C   0  0  0  0  0  0  0  0  0  0  0  0
   37.1360   22.5860   39.7110 Cl  0  0  0  0  0  0  0  0  0  0  0  0
   39.1260   23.9200   41.0620 C   0  0  0  0  0  0  0  0  0  0  0  0
   36.7510   26.0480   43.0580 H   0  0  0  0  0  0  0  0  0  0  0  0
   35.7900   24.4610   41.4920 H   0  0  0  0  0  0  0  0  0  0  0  0
   39.7890   23.2880   40.4680 H   0  0  0  0  0  0  0  0  0  0  0  0
   38.0430   29.0500   43.2500 S   0  0  0  0  0  0  0  0  0  0  0  0
   37.2610   29.4550   41.6880 C   0  0  0  0  0  0  0  0  0  0  0  0
   36.1320   28.6950   41.3340 C   0  0  0  0  0  0  0  0  0  0  0  0
   35.4930   28.9770   40.1280 C   0  0  0  0  0  0  0  0  0  0  0  0
   35.9940   29.9740   39.3510 N   0  0  0  0  0  0  0  0  0  0  0  0
   37.0700   30.6910   39.6980 C   0  0  0  0  0  0  0  0  0  0  0  0
   37.6960   30.4300   40.8590 N   0  0  0  0  0  0  0  0  0  0  0  0
   35.7400   27.9010   41.9630 H   0  0  0  0  0  0  0  0  0  0  0  0
   34.6290   28.4000   39.8500 H   0  0  0  0  0  0  0  0  0  0  0  0
   37.5300   31.7320   38.8140 C   0  0  0  0  0  0  0  0  0  0  0  0
   37.3190   31.6440   37.5910 O   0  0  0  0  0  0  0  0  0  0  0  0
   38.2380   32.8860   39.3240 C   0  0  0  0  0  0  0  0  0  0  0  0
   37.8490   34.0950   39.8760 C   0  0  0  0  0  0  0  0  0  0  0  0
   36.7920   34.2620   39.9690 H   0  0  0  0  0  0  0  0  0  0  0  0
   38.8060   34.9870   40.2640 C   0  0  0  0  0  3  0  0  0  0  0  0
   40.2060   34.6660   40.0960 C   0  0  0  0  0  3  0  0  0  0  0  0
   40.0930   32.9540   39.3240 S   0  0  0  0  0  0  0  0  0  0  0  0
  1 18  1  0  0  0  0
  1  3  1  0  0  0  0
  1  4  1  0  0  0  0
  2  1  1  0  0  0  0
  4  6  1  0  0  0  0
  4  5  1  0  0  0  0
  8  7  1  0  0  0  0
  8  9  1  0  0  0  0
  9  4  1  0  0  0  0
 10  9  2  0  0  0  0
 10 15  1  0  0  0  0
 11 10  1  0  0  0  0
 12 14  1  0  0  0  0
 12 11  2  0  0  0  0
 13 12  1  0  0  0  0
 14  8  2  0  0  0  0
 16 11  1  0  0  0  0
 17 14  1  0  0  0  0
 19 18  1  0  0  0  0
 20 19  1  0  0  0  0
 20 25  1  0  0  0  0
 21 20  2  0  0  0  0
 22 23  2  0  0  0  0
 22 21  1  0  0  0  0
 23 24  1  0  0  0  0
 24 19  2  0  0  0  0
 26 21  1  0  0  0  0
 27 29  1  0  0  0  0
 27 23  1  0  0  0  0
 28 27  2  0  0  0  0
 29 30  2  0  0  0  0
 30 31  1  0  0  0  0
 30 32  1  0  0  0  0
 33 32  2  0  0  0  0
 34 29  1  0  0  0  0
 34 33  1  0  0  0  0
M  END
>  <minimizedAffinity>
-5.60889006

$$$$

 OpenBabel03242515023D

 34 36  0  0  0  0  0  0  0  0999 V2000
   36.7890   27.5220   37.3670 C   0  0  0  0  0  0  0  0  0  0  0  0
   37.7090   27.8250   37.9270 H   0  0  0  0  0  0  0  0  0  0  0  0
   37.0520   27.5820   36.2800 H   0  0  0  0  0  0  0  0  0  0  0  0
   35.7140   28.5300   37.6320 C   0  0  0  0  0  0  0  0  0  0  0  0
   34.9700   28.0890   38.3170 H   0  0  0  0  0  0  0  0  0  0  0  0
   35.1770   28.8150   36.7100 H   0  0  0  0  0  0  0  0  0  0  0  0
   34.9720   29.1090   40.5210 Cl  0  0  0  0  0  0  0  0  0  0  0  0
   35.9890   30.1190   39.5550 C   0  0  0  0  0  0  0  0  0  0  0  0
   36.2730   29.7610   38.2260 C   0  0  0  0  0  0  0  0  0  0  0  0
   37.0880   30.6170   37.5290 C   0  0  0  0  0  0  0  0  0  0  0  0
   37.6610   31.7910   37.9880 C   0  0  0  0  0  0  0  0  0  0  0  0
   37.3690   32.1240   39.3010 C   0  0  0  0  0  0  0  0  0  0  0  0
   38.0470   33.6000   39.9850 Cl  0  0  0  0  0  0  0  0  0  0  0  0
   36.5470   31.2960   40.0590 C   0  0  0  0  0  0  0  0  0  0  0  0
   37.3050   30.3380   36.5010 H   0  0  0  0  0  0  0  0  0  0  0  0
   38.2920   32.3890   37.3450 H   0  0  0  0  0  0  0  0  0  0  0  0
   36.3460   31.6020   41.0880 H   0  0  0  0  0  0  0  0  0  0  0  0
   36.3520   25.8610   37.8670 S   0  0  0  0  0  0  0  0  0  0  0  0
   36.6990   25.5500   39.5980 C   0  0  0  0  0  0  0  0  0  0  0  0
   36.8510   24.2040   39.9770 C   0  0  0  0  0  0  0  0  0  0  0  0
   37.1230   23.9190   41.3140 C   0  0  0  0  0  0  0  0  0  0  0  0
   37.2260   24.9550   42.1870 N   0  0  0  0  0  0  0  0  0  0  0  0
   37.0800   26.2330   41.8140 C   0  0  0  0  0  0  0  0  0  0  0  0
   36.8180   26.5230   40.5280 N   0  0  0  0  0  0  0  0  0  0  0  0
   36.7660   23.3830   39.2720 H   0  0  0  0  0  0  0  0  0  0  0  0
   37.2400   22.8910   41.6120 H   0  0  0  0  0  0  0  0  0  0  0  0
   37.2110   27.2700   42.8070 C   0  0  0  0  0  0  0  0  0  0  0  0
   36.3980   27.3330   43.7470 O   0  0  0  0  0  0  0  0  0  0  0  0
   38.2760   28.2460   42.7320 C   0  0  0  0  0  0  0  0  0  0  0  0
   38.3220   29.6280   42.6960 C   0  0  0  0  0  0  0  0  0  0  0  0
   37.3790   30.1410   42.7300 H   0  0  0  0  0  0  0  0  0  0  0  0
   39.5340   30.2520   42.6230 C   0  0  0  0  0  3  0  0  0  0  0  0
   40.7490   29.4700   42.5820 C   0  0  0  0  0  3  0  0  0  0  0  0
   40.0560   27.7220   42.6580 S   0  0  0  0  0  0  0  0  0  0  0  0
  1  4  1  0  0  0  0
  1 18  1  0  0  0  0
  1  2  1  0  0  0  0
  3  1  1  0  0  0  0
  4  9  1  0  0  0  0
  4  5  1  0  0  0  0
  6  4  1  0  0  0  0
  8 14  1  0  0  0  0
  8  7  1  0  0  0  0
  9  8  2  0  0  0  0
 10 11  2  0  0  0  0
 10  9  1  0  0  0  0
 11 12  1  0  0  0  0
 12 13  1  0  0  0  0
 12 14  2  0  0  0  0
 14 17  1  0  0  0  0
 15 10  1  0  0  0  0
 16 11  1  0  0  0  0
 18 19  1  0  0  0  0
 19 20  2  0  0  0  0
 19 24  1  0  0  0  0
 20 21  1  0  0  0  0
 21 26  1  0  0  0  0
 21 22  2  0  0  0  0
 23 22  1  0  0  0  0
 23 27  1  0  0  0  0
 24 23  2  0  0  0  0
 25 20  1  0  0  0  0
 27 28  2  0  0  0  0
 29 27  1  0  0  0  0
 30 31  1  0  0  0  0
 30 29  2  0  0  0  0
 32 30  1  0  0  0  0
 33 32  2  0  0  0  0
 33 34  1  0  0  0  0
 34 29  1  0  0  0  0
M  END
>  <minimizedAffinity>
-5.48404789

$$$$

 OpenBabel03242515023D

 34 36  0  0  0  0  0  0  0  0999 V2000
   41.1050   28.9580   41.7980 C   0  0  0  0  0  0  0  0  0  0  0  0
   40.6120   28.9450   40.7940 H   0  0  0  0  0  0  0  0  0  0  0  0
   41.8540   28.1260   41.7890 H   0  0  0  0  0  0  0  0  0  0  0  0
   40.0780   28.6370   42.8390 C   0  0  0  0  0  0  0  0  0  0  0  0
   39.4820   29.5420   43.0470 H   0  0  0  0  0  0  0  0  0  0  0  0
   40.5390   28.3260   43.7930 H   0  0  0  0  0  0  0  0  0  0  0  0
   37.3320   28.4970   44.1320 Cl  0  0  0  0  0  0  0  0  0  0  0  0
   37.9010   27.3920   42.9300 C   0  0  0  0  0  0  0  0  0  0  0  0
   39.1910   27.5440   42.3930 C   0  0  0  0  0  0  0  0  0  0  0  0
   39.5640   26.6250   41.4450 C   0  0  0  0  0  0  0  0  0  0  0  0
   38.8140   25.5690   40.9590 C   0  0  0  0  0  0  0  0  0  0  0  0
   37.5450   25.4380   41.5010 C   0  0  0  0  0  0  0  0  0  0  0  0
   36.5060   24.1240   40.9530 Cl  0  0  0  0  0  0  0  0  0  0  0  0
   37.1090   26.3380   42.4670 C   0  0  0  0  0  0  0  0  0  0  0  0
   40.5620   26.7450   41.0310 H   0  0  0  0  0  0  0  0  0  0  0  0
   39.2130   24.9040   40.2050 H   0  0  0  0  0  0  0  0  0  0  0  0
   36.1020   26.1930   42.8640 H   0  0  0  0  0  0  0  0  0  0  0  0
   41.8740   30.5590   42.0220 S   0  0  0  0  0  0  0  0  0  0  0  0
   40.9690   31.8760   41.2090 C   0  0  0  0  0  0  0  0  0  0  0  0
   41.6950   33.0400   40.9000 C   0  0  0  0  0  0  0  0  0  0  0  0
   41.0300   34.0880   40.2670 C   0  0  0  0  0  0  0  0  0  0  0  0
   39.7100   33.9350   39.9800 N   0  0  0  0  0  0  0  0  0  0  0  0
   39.0290   32.8210   40.2790 C   0  0  0  0  0  0  0  0  0  0  0  0
   39.6580   31.8020   40.8890 N   0  0  0  0  0  0  0  0  0  0  0  0
   42.7500   33.1520   41.1340 H   0  0  0  0  0  0  0  0  0  0  0  0
   41.5780   34.9830   40.0280 H   0  0  0  0  0  0  0  0  0  0  0  0
   37.6320   32.7430   39.9340 C   0  0  0  0  0  0  0  0  0  0  0  0
   37.0250   33.7680   39.5740 O   0  0  0  0  0  0  0  0  0  0  0  0
   36.9160   31.4880   39.9980 C   0  0  0  0  0  0  0  0  0  0  0  0
   36.2830   30.7840   41.0080 C   0  0  0  0  0  0  0  0  0  0  0  0
   36.3000   31.2280   41.9850 H   0  0  0  0  0  0  0  0  0  0  0  0
   35.6870   29.5910   40.7140 C   0  0  0  0  0  3  0  0  0  0  0  0
   35.7210   29.0780   39.3630 C   0  0  0  0  0  3  0  0  0  0  0  0
   36.6860   30.4350   38.4860 S   0  0  0  0  0  0  0  0  0  0  0  0
  1 18  1  0  0  0  0
  1  4  1  0  0  0  0
  2  1  1  0  0  0  0
  3  1  1  0  0  0  0
  4  5  1  0  0  0  0
  4  6  1  0  0  0  0
  8  7  1  0  0  0  0
  9  4  1  0  0  0  0
  9  8  2  0  0  0  0
 10  9  1  0  0  0  0
 11 10  2  0  0  0  0
 11 12  1  0  0  0  0
 12 14  2  0  0  0  0
 13 12  1  0  0  0  0
 14 17  1  0  0  0  0
 14  8  1  0  0  0  0
 15 10  1  0  0  0  0
 16 11  1  0  0  0  0
 19 18  1  0  0  0  0
 20 25  1  0  0  0  0
 20 19  1  0  0  0  0
 21 20  2  0  0  0  0
 22 21  1  0  0  0  0
 22 23  2  0  0  0  0
 23 24  1  0  0  0  0
 24 19  2  0  0  0  0
 26 21  1  0  0  0  0
 27 29  1  0  0  0  0
 27 23  1  0  0  0  0
 28 27  2  0  0  0  0
 29 30  2  0  0  0  0
 30 31  1  0  0  0  0
 32 30  1  0  0  0  0
 33 32  2  0  0  0  0
 34 33  1  0  0  0  0
 34 29  1  0  0  0  0
M  END
>  <minimizedAffinity>
-5.44131041

$$$$

 OpenBabel03242515023D

 34 36  0  0  0  0  0  0  0  0999 V2000
   39.1360   27.8180   42.8040 C   0  0  0  0  0  0  0  0  0  0  0  0
   39.3630   27.3480   43.7930 H   0  0  0  0  0  0  0  0  0  0  0  0
   38.0200   27.8790   42.7360 H   0  0  0  0  0  0  0  0  0  0  0  0
   39.6110   26.9030   41.7190 C   0  0  0  0  0  0  0  0  0  0  0  0
   40.4610   26.3090   42.0960 H   0  0  0  0  0  0  0  0  0  0  0  0
   39.9700   27.4600   40.8350 H   0  0  0  0  0  0  0  0  0  0  0  0
   39.4460   24.1920   43.0800 Cl  0  0  0  0  0  0  0  0  0  0  0  0
   38.3680   24.7260   41.8390 C   0  0  0  0  0  0  0  0  0  0  0  0
   38.5290   26.0020   41.2720 C   0  0  0  0  0  0  0  0  0  0  0  0
   37.6320   26.3480   40.2930 C   0  0  0  0  0  0  0  0  0  0  0  0
   36.5890   25.5820   39.8030 C   0  0  0  0  0  0  0  0  0  0  0  0
   36.4470   24.3280   40.3760 C   0  0  0  0  0  0  0  0  0  0  0  0
   35.1490   23.2710   39.8240 Cl  0  0  0  0  0  0  0  0  0  0  0  0
   37.3260   23.9200   41.3730 C   0  0  0  0  0  0  0  0  0  0  0  0
   37.7600   27.3350   39.8560 H   0  0  0  0  0  0  0  0  0  0  0  0
   35.9400   25.9600   39.0250 H   0  0  0  0  0  0  0  0  0  0  0  0
   37.1740   22.9230   41.7930 H   0  0  0  0  0  0  0  0  0  0  0  0
   39.9060   29.4340   42.7640 S   0  0  0  0  0  0  0  0  0  0  0  0
   38.9550   30.6240   41.8180 C   0  0  0  0  0  0  0  0  0  0  0  0
   37.6240   30.2770   41.5260 C   0  0  0  0  0  0  0  0  0  0  0  0
   36.8500   31.1740   40.7930 C   0  0  0  0  0  0  0  0  0  0  0  0
   37.4200   32.3420   40.3950 N   0  0  0  0  0  0  0  0  0  0  0  0
   38.6890   32.6630   40.6790 C   0  0  0  0  0  0  0  0  0  0  0  0
   39.4470   31.8070   41.3860 N   0  0  0  0  0  0  0  0  0  0  0  0
   37.1790   29.3400   41.8480 H   0  0  0  0  0  0  0  0  0  0  0  0
   35.8310   30.9150   40.5640 H   0  0  0  0  0  0  0  0  0  0  0  0
   39.2100   33.9260   40.2200 C   0  0  0  0  0  0  0  0  0  0  0  0
   38.6700   34.9870   40.5820 O   0  0  0  0  0  0  0  0  0  0  0  0
   40.3570   33.9850   39.3410 C   0  0  0  0  0  0  0  0  0  0  0  0
   41.3840   34.8920   39.1490 C   0  0  0  0  0  0  0  0  0  0  0  0
   41.3730   35.7690   39.7690 H   0  0  0  0  0  0  0  0  0  0  0  0
   42.3350   34.6310   38.2040 C   0  0  0  0  0  3  0  0  0  0  0  0
   42.2610   33.4190   37.4180 C   0  0  0  0  0  3  0  0  0  0  0  0
   40.7030   32.6300   38.1190 S   0  0  0  0  0  0  0  0  0  0  0  0
  1  2  1  0  0  0  0
  3  1  1  0  0  0  0
  4  5  1  0  0  0  0
  4  1  1  0  0  0  0
  6  4  1  0  0  0  0
  8  7  1  0  0  0  0
  9  4  1  0  0  0  0
  9  8  2  0  0  0  0
 10  9  1  0  0  0  0
 11 10  2  0  0  0  0
 11 12  1  0  0  0  0
 12 14  2  0  0  0  0
 13 12  1  0  0  0  0
 14 17  1  0  0  0  0
 14  8  1  0  0  0  0
 15 10  1  0  0  0  0
 16 11  1  0  0  0  0
 18  1  1  0  0  0  0
 19 18  1  0  0  0  0
 20 19  1  0  0  0  0
 20 25  1  0  0  0  0
 21 20  2  0  0  0  0
 22 23  2  0  0  0  0
 22 21  1  0  0  0  0
 23 24  1  0  0  0  0
 24 19  2  0  0  0  0
 26 21  1  0  0  0  0
 27 28  2  0  0  0  0
 27 23  1  0  0  0  0
 29 27  1  0  0  0  0
 30 29  2  0  0  0  0
 30 31  1  0  0  0  0
 32 30  1  0  0  0  0
 33 34  1  0  0  0  0
 33 32  2  0  0  0  0
 34 29  1  0  0  0  0
M  END
>  <minimizedAffinity>
-5.41499853

$$$$

 OpenBabel03242515023D

 34 36  0  0  0  0  0  0  0  0999 V2000
   37.3690   30.7090   41.0260 C   0  0  0  0  0  0  0  0  0  0  0  0
   38.2580   30.0380   41.1270 H   0  0  0  0  0  0  0  0  0  0  0  0
   37.3150   31.3000   41.9750 H   0  0  0  0  0  0  0  0  0  0  0  0
   36.1370   29.8630   40.9430 C   0  0  0  0  0  0  0  0  0  0  0  0
   35.6550   30.0250   39.9640 H   0  0  0  0  0  0  0  0  0  0  0  0
   35.3980   30.1320   41.7180 H   0  0  0  0  0  0  0  0  0  0  0  0
   36.1090   28.1550   38.4310 Cl  0  0  0  0  0  0  0  0  0  0  0  0
   36.4760   27.5580   40.0110 C   0  0  0  0  0  0  0  0  0  0  0  0
   36.4620   28.4320   41.1110 C   0  0  0  0  0  0  0  0  0  0  0  0
   36.7640   27.8770   42.3290 C   0  0  0  0  0  0  0  0  0  0  0  0
   37.0800   26.5560   42.5940 C   0  0  0  0  0  0  0  0  0  0  0  0
   37.0890   25.7120   41.4950 C   0  0  0  0  0  0  0  0  0  0  0  0
   37.4780   24.0080   41.7220 Cl  0  0  0  0  0  0  0  0  0  0  0  0
   36.7900   26.2150   40.2340 C   0  0  0  0  0  0  0  0  0  0  0  0
   36.7520   28.5560   43.1780 H   0  0  0  0  0  0  0  0  0  0  0  0
   37.3030   26.2290   43.6010 H   0  0  0  0  0  0  0  0  0  0  0  0
   36.8100   25.5100   39.4000 H   0  0  0  0  0  0  0  0  0  0  0  0
   37.6180   31.7520   39.5920 S   0  0  0  0  0  0  0  0  0  0  0  0
   38.7490   33.1050   39.9140 C   0  0  0  0  0  0  0  0  0  0  0  0
   38.1860   34.3910   39.9900 C   0  0  0  0  0  0  0  0  0  0  0  0
   39.0300   35.4710   40.2400 C   0  0  0  0  0  0  0  0  0  0  0  0
   40.3580   35.2290   40.3970 N   0  0  0  0  0  0  0  0  0  0  0  0
   40.8840   33.9990   40.3230 C   0  0  0  0  0  0  0  0  0  0  0  0
   40.0800   32.9480   40.0840 N   0  0  0  0  0  0  0  0  0  0  0  0
   37.1230   34.5740   39.8620 H   0  0  0  0  0  0  0  0  0  0  0  0
   38.6070   36.4590   40.2980 H   0  0  0  0  0  0  0  0  0  0  0  0
   42.3030   33.8340   40.5070 C   0  0  0  0  0  0  0  0  0  0  0  0
   42.8690   34.3740   41.4750 O   0  0  0  0  0  0  0  0  0  0  0  0
   43.0890   33.0480   39.5820 C   0  0  0  0  0  0  0  0  0  0  0  0
   43.5660   31.7480   39.5770 C   0  0  0  0  0  0  0  0  0  0  0  0
   43.3250   31.1450   40.4320 H   0  0  0  0  0  0  0  0  0  0  0  0
   44.3000   31.3130   38.5110 C   0  0  0  0  0  3  0  0  0  0  0  0
   44.5720   32.2050   37.4060 C   0  0  0  0  0  3  0  0  0  0  0  0
   43.6920   33.7670   37.9790 S   0  0  0  0  0  0  0  0  0  0  0  0
  1  2  1  0  0  0  0
  1  3  1  0  0  0  0
  4  1  1  0  0  0  0
  4  9  1  0  0  0  0
  4  6  1  0  0  0  0
  5  4  1  0  0  0  0
  7  8  1  0  0  0  0
  8 14  2  0  0  0  0
  8  9  1  0  0  0  0
  9 10  2  0  0  0  0
 10 11  1  0  0  0  0
 10 15  1  0  0  0  0
 11 16  1  0  0  0  0
 12 13  1  0  0  0  0
 12 11  2  0  0  0  0
 14 12  1  0  0  0  0
 17 14  1  0  0  0  0
 18 19  1  0  0  0  0
 18  1  1  0  0  0  0
 19 20  2  0  0  0  0
 19 24  1  0  0  0  0
 20 21  1  0  0  0  0
 21 26  1  0  0  0  0
 21 22  2  0  0  0  0
 23 22  1  0  0  0  0
 23 27  1  0  0  0  0
 24 23  2  0  0  0  0
 25 20  1  0  0  0  0
 27 28  2  0  0  0  0
 29 27  1  0  0  0  0
 30 29  2  0  0  0  0
 30 31  1  0  0  0  0
 32 30  1  0  0  0  0
 33 34  1  0  0  0  0
 33 32  2  0  0  0  0
 34 29  1  0  0  0  0
M  END
>  <minimizedAffinity>
-5.39864779

$$$$

 OpenBabel03242515023D

 34 36  0  0  0  0  0  0  0  0999 V2000
   40.5960   30.3560   42.4670 C   0  0  0  0  0  0  0  0  0  0  0  0
   40.8480   29.3580   42.0290 H   0  0  0  0  0  0  0  0  0  0  0  0
   41.2410   30.4700   43.3750 H   0  0  0  0  0  0  0  0  0  0  0  0
   39.1700   30.3310   42.9220 C   0  0  0  0  0  0  0  0  0  0  0  0
   38.5970   31.0770   42.3450 H   0  0  0  0  0  0  0  0  0  0  0  0
   39.0700   30.5990   43.9890 H   0  0  0  0  0  0  0  0  0  0  0  0
   36.4730   30.2170   41.5280 Cl  0  0  0  0  0  0  0  0  0  0  0  0
   37.3310   28.8320   42.1050 C   0  0  0  0  0  0  0  0  0  0  0  0
   38.5750   28.9920   42.7380 C   0  0  0  0  0  0  0  0  0  0  0  0
   39.1890   27.8420   43.1670 C   0  0  0  0  0  0  0  0  0  0  0  0
   38.7210   26.5460   43.0450 C   0  0  0  0  0  0  0  0  0  0  0  0
   37.4920   26.4110   42.4180 C   0  0  0  0  0  0  0  0  0  0  0  0
   36.8030   24.8010   42.2120 Cl  0  0  0  0  0  0  0  0  0  0  0  0
   36.8200   27.5390   41.9620 C   0  0  0  0  0  0  0  0  0  0  0  0
   40.1510   27.9690   43.6560 H   0  0  0  0  0  0  0  0  0  0  0  0
   39.2940   25.7100   43.4220 H   0  0  0  0  0  0  0  0  0  0  0  0
   35.8560   27.3810   41.4740 H   0  0  0  0  0  0  0  0  0  0  0  0
   40.9330   31.6090   41.2350 S   0  0  0  0  0  0  0  0  0  0  0  0
   39.4730   32.0600   40.2970 C   0  0  0  0  0  0  0  0  0  0  0  0
   38.8660   33.2850   40.6280 C   0  0  0  0  0  0  0  0  0  0  0  0
   37.7280   33.6730   39.9230 C   0  0  0  0  0  0  0  0  0  0  0  0
   37.2610   32.8490   38.9480 N   0  0  0  0  0  0  0  0  0  0  0  0
   37.8480   31.6850   38.6410 C   0  0  0  0  0  0  0  0  0  0  0  0
   38.9450   31.2980   39.3130 N   0  0  0  0  0  0  0  0  0  0  0  0
   39.2470   33.9360   41.4090 H   0  0  0  0  0  0  0  0  0  0  0  0
   37.2570   34.6090   40.1710 H   0  0  0  0  0  0  0  0  0  0  0  0
   37.2850   30.8750   37.5900 C   0  0  0  0  0  0  0  0  0  0  0  0
   37.4060   31.2300   36.4030 O   0  0  0  0  0  0  0  0  0  0  0  0
   36.5780   29.6500   37.8890 C   0  0  0  0  0  0  0  0  0  0  0  0
   35.2470   29.3230   38.0830 C   0  0  0  0  0  0  0  0  0  0  0  0
   34.5390   30.1260   38.0050 H   0  0  0  0  0  0  0  0  0  0  0  0
   34.9140   28.0270   38.3580 C   0  0  0  0  0  3  0  0  0  0  0  0
   35.9440   27.0170   38.4430 C   0  0  0  0  0  3  0  0  0  0  0  0
   37.4840   28.0430   38.0970 S   0  0  0  0  0  0  0  0  0  0  0  0
  1  4  1  0  0  0  0
  1  3  1  0  0  0  0
  2  1  1  0  0  0  0
  4  6  1  0  0  0  0
  5  4  1  0  0  0  0
  7  8  1  0  0  0  0
  8  9  1  0  0  0  0
  9  4  1  0  0  0  0
  9 10  2  0  0  0  0
 10 15  1  0  0  0  0
 11 10  1  0  0  0  0
 11 16  1  0  0  0  0
 12 11  2  0  0  0  0
 13 12  1  0  0  0  0
 14  8  2  0  0  0  0
 14 12  1  0  0  0  0
 17 14  1  0  0  0  0
 18  1  1  0  0  0  0
 19 20  1  0  0  0  0
 19 18  1  0  0  0  0
 20 25  1  0  0  0  0
 21 26  1  0  0  0  0
 21 20  2  0  0  0  0
 22 21  1  0  0  0  0
 23 22  2  0  0  0  0
 23 24  1  0  0  0  0
 24 19  2  0  0  0  0
 27 29  1  0  0  0  0
 27 23  1  0  0  0  0
 28 27  2  0  0  0  0
 29 30  2  0  0  0  0
 29 34  1  0  0  0  0
 30 32  1  0  0  0  0
 31 30  1  0  0  0  0
 32 33  2  0  0  0  0
 34 33  1  0  0  0  0
M  END
>  <minimizedAffinity>
-5.39666414

$$$$

 OpenBabel03242515023D

 34 36  0  0  0  0  0  0  0  0999 V2000
   36.3240   31.0230   40.7930 C   0  0  0  0  0  0  0  0  0  0  0  0
   35.4670   31.6880   41.0620 H   0  0  0  0  0  0  0  0  0  0  0  0
   37.0740   31.1290   41.6180 H   0  0  0  0  0  0  0  0  0  0  0  0
   36.9530   31.5390   39.5360 C   0  0  0  0  0  0  0  0  0  0  0  0
   36.1820   32.0430   38.9290 H   0  0  0  0  0  0  0  0  0  0  0  0
   37.3710   30.7250   38.9170 H   0  0  0  0  0  0  0  0  0  0  0  0
   39.7280   30.3440   39.8550 Cl  0  0  0  0  0  0  0  0  0  0  0  0
   39.3700   32.0290   40.0030 C   0  0  0  0  0  0  0  0  0  0  0  0
   38.0500   32.4810   39.8370 C   0  0  0  0  0  0  0  0  0  0  0  0
   37.8510   33.8320   39.9710 C   0  0  0  0  0  0  0  0  0  0  0  0
   38.8040   34.7960   40.2510 C   0  0  0  0  0  0  0  0  0  0  0  0
   40.0990   34.3280   40.4100 C   0  0  0  0  0  0  0  0  0  0  0  0
   41.3900   35.4740   40.7700 Cl  0  0  0  0  0  0  0  0  0  0  0  0
   40.3630   32.9690   40.2860 C   0  0  0  0  0  0  0  0  0  0  0  0
   36.8290   34.1790   39.8420 H   0  0  0  0  0  0  0  0  0  0  0  0
   38.5310   35.8400   40.3340 H   0  0  0  0  0  0  0  0  0  0  0  0
   41.3990   32.6490   40.4210 H   0  0  0  0  0  0  0  0  0  0  0  0
   35.7090   29.3480   40.6490 S   0  0  0  0  0  0  0  0  0  0  0  0
   36.7420   28.1610   41.5090 C   0  0  0  0  0  0  0  0  0  0  0  0
   37.3650   28.6070   42.6880 C   0  0  0  0  0  0  0  0  0  0  0  0
   38.1760   27.7150   43.3880 C   0  0  0  0  0  0  0  0  0  0  0  0
   38.3260   26.4570   42.8950 N   0  0  0  0  0  0  0  0  0  0  0  0
   37.7270   26.0430   41.7710 C   0  0  0  0  0  0  0  0  0  0  0  0
   36.9420   26.8930   41.0860 N   0  0  0  0  0  0  0  0  0  0  0  0
   37.2380   29.6140   43.0730 H   0  0  0  0  0  0  0  0  0  0  0  0
   38.6570   28.0490   44.2910 H   0  0  0  0  0  0  0  0  0  0  0  0
   37.9400   24.6900   41.3240 C   0  0  0  0  0  0  0  0  0  0  0  0
   38.8240   23.9940   41.8560 O   0  0  0  0  0  0  0  0  0  0  0  0
   37.1410   24.1200   40.2610 C   0  0  0  0  0  0  0  0  0  0  0  0
   35.8780   23.5580   40.1940 C   0  0  0  0  0  0  0  0  0  0  0  0
   35.3240   23.5100   41.1130 H   0  0  0  0  0  0  0  0  0  0  0  0
   35.4140   23.1050   38.9920 C   0  0  0  0  0  3  0  0  0  0  0  0
   36.2390   23.2150   37.8100 C   0  0  0  0  0  3  0  0  0  0  0  0
   37.7790   24.0320   38.5190 S   0  0  0  0  0  0  0  0  0  0  0  0
  1  2  1  0  0  0  0
  1  3  1  0  0  0  0
  4  9  1  0  0  0  0
  4  1  1  0  0  0  0
  5  4  1  0  0  0  0
  6  4  1  0  0  0  0
  7  8  1  0  0  0  0
  8 14  1  0  0  0  0
  9 10  1  0  0  0  0
  9  8  2  0  0  0  0
 10 11  2  0  0  0  0
 11 16  1  0  0  0  0
 11 12  1  0  0  0  0
 12 13  1  0  0  0  0
 14 12  2  0  0  0  0
 14 17  1  0  0  0  0
 15 10  1  0  0  0  0
 18  1  1  0  0  0  0
 18 19  1  0  0  0  0
 19 20  1  0  0  0  0
 20 25  1  0  0  0  0
 20 21  2  0  0  0  0
 21 26  1  0  0  0  0
 22 21  1  0  0  0  0
 23 22  2  0  0  0  0
 24 19  2  0  0  0  0
 24 23  1  0  0  0  0
 27 23  1  0  0  0  0
 27 28  2  0  0  0  0
 29 27  1  0  0  0  0
 30 29  2  0  0  0  0
 30 31  1  0  0  0  0
 32 30  1  0  0  0  0
 33 34  1  0  0  0  0
 33 32  2  0  0  0  0
 34 29  1  0  0  0  0
M  END
>  <minimizedAffinity>
-5.38299608

$$$$

 OpenBabel03242515023D

 34 36  0  0  0  0  0  0  0  0999 V2000
   35.9430   29.9880   40.2390 C   0  0  0  0  0  0  0  0  0  0  0  0
   34.8990   30.3880   40.2310 H   0  0  0  0  0  0  0  0  0  0  0  0
   35.8510   28.8720   40.2010 H   0  0  0  0  0  0  0  0  0  0  0  0
   36.5850   30.3490   41.5420 C   0  0  0  0  0  0  0  0  0  0  0  0
   35.8010   30.6440   42.2590 H   0  0  0  0  0  0  0  0  0  0  0  0
   37.2730   31.2070   41.4410 H   0  0  0  0  0  0  0  0  0  0  0  0
   39.4020   30.9600   42.5020 Cl  0  0  0  0  0  0  0  0  0  0  0  0
   38.6730   29.3940   42.5560 C   0  0  0  0  0  0  0  0  0  0  0  0
   37.3600   29.2150   42.0860 C   0  0  0  0  0  0  0  0  0  0  0  0
   36.8570   27.9410   42.1640 C   0  0  0  0  0  0  0  0  0  0  0  0
   37.4960   26.8150   42.6530 C   0  0  0  0  0  0  0  0  0  0  0  0
   38.7880   27.0140   43.1120 C   0  0  0  0  0  0  0  0  0  0  0  0
   39.6930   25.6450   43.7560 Cl  0  0  0  0  0  0  0  0  0  0  0  0
   39.3540   28.2830   43.0590 C   0  0  0  0  0  0  0  0  0  0  0  0
   35.8420   27.8060   41.7990 H   0  0  0  0  0  0  0  0  0  0  0  0
   36.9980   25.8550   42.6660 H   0  0  0  0  0  0  0  0  0  0  0  0
   40.3760   28.3880   43.4320 H   0  0  0  0  0  0  0  0  0  0  0  0
   36.8030   30.6440   38.8120 S   0  0  0  0  0  0  0  0  0  0  0  0
   37.9400   31.9620   39.2420 C   0  0  0  0  0  0  0  0  0  0  0  0
   37.3670   33.1720   39.6710 C   0  0  0  0  0  0  0  0  0  0  0  0
   38.2150   34.2230   40.0150 C   0  0  0  0  0  0  0  0  0  0  0  0
   39.5560   34.0270   39.9190 N   0  0  0  0  0  0  0  0  0  0  0  0
   40.0910   32.8690   39.5090 C   0  0  0  0  0  0  0  0  0  0  0  0
   39.2850   31.8480   39.1740 N   0  0  0  0  0  0  0  0  0  0  0  0
   36.2930   33.3190   39.7440 H   0  0  0  0  0  0  0  0  0  0  0  0
   37.7840   35.1530   40.3440 H   0  0  0  0  0  0  0  0  0  0  0  0
   41.5260   32.7490   39.4400 C   0  0  0  0  0  0  0  0  0  0  0  0
   42.0790   32.5550   38.3430 O   0  0  0  0  0  0  0  0  0  0  0  0
   42.3410   32.8480   40.6310 C   0  0  0  0  0  0  0  0  0  0  0  0
   42.7170   31.9610   41.6250 C   0  0  0  0  0  0  0  0  0  0  0  0
   42.3450   30.9580   41.5380 H   0  0  0  0  0  0  0  0  0  0  0  0
   43.5210   32.3980   42.6380 C   0  0  0  0  0  3  0  0  0  0  0  0
   43.9690   33.7730   42.6640 C   0  0  0  0  0  3  0  0  0  0  0  0
   43.1560   34.4480   41.1070 S   0  0  0  0  0  0  0  0  0  0  0  0
  1  4  1  0  0  0  0
  2  1  1  0  0  0  0
  3  1  1  0  0  0  0
  4  9  1  0  0  0  0
  4  5  1  0  0  0  0
  6  4  1  0  0  0  0
  7  8  1  0  0  0  0
  8 14  1  0  0  0  0
  9 10  1  0  0  0  0
  9  8  2  0  0  0  0
 10 11  2  0  0  0  0
 11 16  1  0  0  0  0
 11 12  1  0  0  0  0
 12 13  1  0  0  0  0
 14 12  2  0  0  0  0
 14 17  1  0  0  0  0
 15 10  1  0  0  0  0
 18 19  1  0  0  0  0
 18  1  1  0  0  0  0
 19 20  1  0  0  0  0
 20 25  1  0  0  0  0
 20 21  2  0  0  0  0
 21 26  1  0  0  0  0
 22 21  1  0  0  0  0
 23 22  2  0  0  0  0
 24 19  2  0  0  0  0
 24 23  1  0  0  0  0
 27 23  1  0  0  0  0
 27 29  1  0  0  0  0
 28 27  2  0  0  0  0
 29 34  1  0  0  0  0
 29 30  2  0  0  0  0
 30 32  1  0  0  0  0
 31 30  1  0  0  0  0
 32 33  2  0  0  0  0
 34 33  1  0  0  0  0
M  END
>  <minimizedAffinity>
-5.38249397

$$$$
