
 OpenBabel03242514323D

 23 24  0  0  0  0  0  0  0  0999 V2000
   49.3810   35.4750   42.4470 O   0  0  0  0  0  0  0  0  0  0  0  0
   48.8060   34.2800   41.7480 P   0  0  1  0  0  0  0  0  0  0  0  0
   50.0750   33.2580   41.3400 O   0  0  0  0  0  0  0  0  0  0  0  0
   50.8930   33.7990   41.2100 H   0  0  0  0  0  0  0  0  0  0  0  0
   47.6810   33.4760   42.7650 O   0  0  0  0  0  0  0  0  0  0  0  0
   46.1340   35.3040   42.7690 C   0  0  0  0  0  0  0  0  0  0  0  0
   46.6660   34.1940   43.4050 C   0  0  0  0  0  0  0  0  0  0  0  0
   46.1690   33.8320   44.6670 C   0  0  0  0  0  0  0  0  0  0  0  0
   45.1740   34.6110   45.1980 N   0  0  0  0  0  0  0  0  0  0  0  0
   44.6850   35.6720   44.5550 C   0  0  0  0  0  0  0  0  0  0  0  0
   45.1620   36.0130   43.3560 N   0  0  0  0  0  0  0  0  0  0  0  0
   46.4460   35.6560   41.8090 H   0  0  0  0  0  0  0  0  0  0  0  0
   46.6110   32.9720   45.1140 H   0  0  0  0  0  0  0  0  0  0  0  0
   43.8970   36.2430   45.0370 H   0  0  0  0  0  0  0  0  0  0  0  0
   48.0480   34.7900   40.3520 O   0  0  0  0  0  0  0  0  0  0  0  0
   47.4590   34.0250   39.4180 C   0  0  0  0  0  0  0  0  0  0  0  0
   46.3230   33.5640   39.8320 O   0  0  0  0  0  0  0  0  0  0  0  0
   47.6320   33.4990   38.0460 C   0  0  0  0  0  0  0  0  0  0  0  0
   48.7700   33.7280   37.1930 C   0  0  0  0  0  0  0  0  0  0  0  0
   49.5830   34.3320   37.5540 H   0  0  0  0  0  0  0  0  0  0  0  0
   48.6420   33.1110   35.9810 C   0  0  0  0  0  0  0  0  0  0  0  0
   47.5770   32.3630   35.5990 C   0  0  0  0  0  0  0  0  0  0  0  0
   46.4820   32.4860   37.1800 S   0  0  0  0  0  0  0  0  0  0  0  0
  2  1  2  1  0  0  0
  2  5  1  0  0  0  0
  3  2  1  0  0  0  0
  4  3  1  0  0  0  0
  5  7  1  0  0  0  0
  6 11  2  0  0  0  0
  6  7  1  0  0  0  0
  7  8  2  0  0  0  0
  8 13  1  0  0  0  0
  8  9  1  0  0  0  0
 10 14  1  0  0  0  0
 10  9  2  0  0  0  0
 11 10  1  0  0  0  0
 12  6  1  0  0  0  0
 15  2  1  0  0  0  0
 16 17  2  0  0  0  0
 16 15  1  0  0  0  0
 18 16  1  0  0  0  0
 19 20  1  0  0  0  0
 19 18  2  0  0  0  0
 21 19  1  0  0  0  0
 22 21  2  0  0  0  0
 22 23  1  0  0  0  0
 23 18  1  0  0  0  0
M  END
>  <minimizedAffinity>
-4.45520115

>  <minimizedRMSD>
0.844581902

$$$$
