
 OpenBabel03242519403D

 26 27  0  0  0  0  0  0  0  0999 V2000
   48.0140   32.8960   41.7570 O   0  0  0  0  0  0  0  0  0  0  0  0
   47.1590   34.1050   41.2950 P   0  0  2  0  0  0  0  0  0  0  0  0
   45.5660   33.8960   41.8930 O   0  0  0  0  0  0  0  0  0  0  0  0
   44.3910   35.9280   44.6840 C   0  0  0  0  0  0  0  0  0  0  0  0
   44.6680   35.5120   43.3600 C   0  0  0  0  0  0  0  0  0  0  0  0
   45.3070   34.2740   43.1960 C   0  0  0  0  0  0  0  0  0  0  0  0
   45.6170   33.5540   44.2940 N   0  0  0  0  0  0  0  0  0  0  0  0
   45.3380   33.9820   45.5450 C   0  0  0  0  0  0  0  0  0  0  0  0
   44.7290   35.1610   45.7480 N   0  0  0  0  0  0  0  0  0  0  0  0
   43.8990   36.8880   44.7640 H   0  0  0  0  0  0  0  0  0  0  0  0
   44.3890   36.1420   42.5320 H   0  0  0  0  0  0  0  0  0  0  0  0
   45.6030   33.3760   46.4030 H   0  0  0  0  0  0  0  0  0  0  0  0
   47.1140   34.1420   39.6390 O   0  0  0  0  0  0  0  0  0  0  0  0
   46.6900   33.2060   38.7650 C   0  0  0  0  0  0  0  0  0  0  0  0
   46.7150   33.3980   37.4380 O   0  0  0  0  0  0  0  0  0  0  0  0
   46.0850   31.7170   38.5800 C   0  0  0  0  0  0  0  0  0  0  0  0
   45.2160   31.0710   39.4830 C   0  0  0  0  0  0  0  0  0  0  0  0
   44.8990   31.6350   40.3870 H   0  0  0  0  0  0  0  0  0  0  0  0
   44.8120   29.8510   39.2440 C   0  0  0  0  0  3  0  0  0  0  0  0
   45.3350   29.3240   38.0440 C   0  0  0  0  0  3  0  0  0  0  0  0
   46.4050   30.8090   37.4250 S   0  0  0  0  0  0  0  0  0  0  0  0
   47.8260   35.4530   41.9860 O   0  0  0  0  0  0  0  0  0  0  0  0
   49.0630   35.7840   41.4510 C   0  0  0  0  0  0  0  0  0  0  0  0
   49.4710   37.0630   41.7910 F   0  0  0  0  0  0  0  0  0  0  0  0
   49.9780   34.8350   41.7700 F   0  0  0  0  0  0  0  0  0  0  0  0
   48.8920   35.7820   40.0650 F   0  0  0  0  0  0  0  0  0  0  0  0
  2  1  2  1  0  0  0
  2  3  1  0  0  0  0
  2 22  1  0  0  0  0
  3  6  1  0  0  0  0
  4 10  1  0  0  0  0
  4  9  1  0  0  0  0
  5  4  2  0  0  0  0
  6  5  1  0  0  0  0
  6  7  2  0  0  0  0
  7  8  1  0  0  0  0
  8  9  2  0  0  0  0
  8 12  1  0  0  0  0
 11  5  1  0  0  0  0
 13  2  1  0  0  0  0
 14 13  1  0  0  0  0
 15 14  2  0  0  0  0
 16 14  1  0  0  0  0
 16 17  2  0  0  0  0
 17 18  1  0  0  0  0
 19 17  1  0  0  0  0
 20 19  2  0  0  0  0
 21 20  1  0  0  0  0
 21 16  1  0  0  0  0
 23 25  1  0  0  0  0
 23 24  1  0  0  0  0
 23 22  1  0  0  0  0
 26 23  1  0  0  0  0
M  END
>  <minimizedAffinity>
-4.77569628

>  <minimizedRMSD>
0.353825748

$$$$
