
 OpenBabel03242519403D

 26 27  0  0  0  0  0  0  0  0999 V2000
   48.0100   32.8880   41.6990 O   0  0  0  0  0  0  0  0  0  0  0  0
   47.1500   34.1060   41.2720 P   0  0  2  0  0  0  0  0  0  0  0  0
   45.5630   33.8840   41.8810 O   0  0  0  0  0  0  0  0  0  0  0  0
   44.3970   35.9170   44.6750 C   0  0  0  0  0  0  0  0  0  0  0  0
   44.6690   35.5000   43.3500 C   0  0  0  0  0  0  0  0  0  0  0  0
   45.3090   34.2620   43.1850 C   0  0  0  0  0  0  0  0  0  0  0  0
   45.6260   33.5450   44.2820 N   0  0  0  0  0  0  0  0  0  0  0  0
   45.3520   33.9750   45.5340 C   0  0  0  0  0  0  0  0  0  0  0  0
   44.7410   35.1520   45.7390 N   0  0  0  0  0  0  0  0  0  0  0  0
   43.9030   36.8760   44.7570 H   0  0  0  0  0  0  0  0  0  0  0  0
   44.3840   36.1280   42.5230 H   0  0  0  0  0  0  0  0  0  0  0  0
   45.6220   33.3700   46.3920 H   0  0  0  0  0  0  0  0  0  0  0  0
   47.0870   34.1770   39.6180 O   0  0  0  0  0  0  0  0  0  0  0  0
   46.7940   33.2130   38.7210 C   0  0  0  0  0  0  0  0  0  0  0  0
   46.7750   33.4410   37.4000 O   0  0  0  0  0  0  0  0  0  0  0  0
   46.4100   31.6570   38.5000 C   0  0  0  0  0  0  0  0  0  0  0  0
   46.7260   30.8930   37.3570 C   0  0  0  0  0  0  0  0  0  0  0  0
   47.3060   31.3870   36.5490 H   0  0  0  0  0  0  0  0  0  0  0  0
   46.3370   29.6460   37.2760 C   0  0  0  0  0  3  0  0  0  0  0  0
   45.6140   29.2200   38.4090 C   0  0  0  0  0  3  0  0  0  0  0  0
   45.6270   30.8280   39.4810 S   0  0  0  0  0  0  0  0  0  0  0  0
   47.8220   35.4390   41.9830 O   0  0  0  0  0  0  0  0  0  0  0  0
   49.0590   35.7750   41.4510 C   0  0  0  0  0  0  0  0  0  0  0  0
   49.4620   37.0550   41.7920 F   0  0  0  0  0  0  0  0  0  0  0  0
   49.9780   34.8290   41.7730 F   0  0  0  0  0  0  0  0  0  0  0  0
   48.8920   35.7730   40.0650 F   0  0  0  0  0  0  0  0  0  0  0  0
  2  1  2  1  0  0  0
  2  3  1  0  0  0  0
  2 22  1  0  0  0  0
  3  6  1  0  0  0  0
  4 10  1  0  0  0  0
  4  9  1  0  0  0  0
  5  4  2  0  0  0  0
  6  5  1  0  0  0  0
  6  7  2  0  0  0  0
  7  8  1  0  0  0  0
  8  9  2  0  0  0  0
  8 12  1  0  0  0  0
 11  5  1  0  0  0  0
 13  2  1  0  0  0  0
 14 13  1  0  0  0  0
 15 14  2  0  0  0  0
 16 14  1  0  0  0  0
 16 21  1  0  0  0  0
 17 16  2  0  0  0  0
 18 17  1  0  0  0  0
 19 17  1  0  0  0  0
 19 20  2  0  0  0  0
 20 21  1  0  0  0  0
 23 25  1  0  0  0  0
 23 24  1  0  0  0  0
 23 22  1  0  0  0  0
 26 23  1  0  0  0  0
M  END
>  <minimizedAffinity>
-4.78199387

>  <minimizedRMSD>
0.256723255

$$$$
