
 OpenBabel03242519413D

 26 27  0  0  0  0  0  0  0  0999 V2000
   48.0020   32.8880   41.7210 O   0  0  0  0  0  0  0  0  0  0  0  0
   47.1490   34.1060   41.2770 P   0  0  2  0  0  0  0  0  0  0  0  0
   45.5580   33.8970   41.8800 O   0  0  0  0  0  0  0  0  0  0  0  0
   44.3940   35.9220   44.6810 C   0  0  0  0  0  0  0  0  0  0  0  0
   44.6670   35.5090   43.3540 C   0  0  0  0  0  0  0  0  0  0  0  0
   45.3040   34.2700   43.1850 C   0  0  0  0  0  0  0  0  0  0  0  0
   45.6180   33.5480   44.2800 N   0  0  0  0  0  0  0  0  0  0  0  0
   45.3430   33.9730   45.5330 C   0  0  0  0  0  0  0  0  0  0  0  0
   44.7360   35.1510   45.7420 N   0  0  0  0  0  0  0  0  0  0  0  0
   43.9030   36.8820   44.7660 H   0  0  0  0  0  0  0  0  0  0  0  0
   44.3850   36.1410   42.5290 H   0  0  0  0  0  0  0  0  0  0  0  0
   45.6110   33.3640   46.3890 H   0  0  0  0  0  0  0  0  0  0  0  0
   47.0970   34.1620   39.6220 O   0  0  0  0  0  0  0  0  0  0  0  0
   46.7020   33.2220   38.7380 C   0  0  0  0  0  0  0  0  0  0  0  0
   46.7550   33.4150   37.4120 O   0  0  0  0  0  0  0  0  0  0  0  0
   46.1150   31.7280   38.5380 C   0  0  0  0  0  0  0  0  0  0  0  0
   46.3950   30.8800   37.4460 C   0  0  0  0  0  0  0  0  0  0  0  0
   47.0940   31.2530   36.6690 H   0  0  0  0  0  0  0  0  0  0  0  0
   45.8370   29.6980   37.3770 C   0  0  0  0  0  3  0  0  0  0  0  0
   44.9860   29.4260   38.4680 C   0  0  0  0  0  3  0  0  0  0  0  0
   45.1550   31.0600   39.4840 S   0  0  0  0  0  0  0  0  0  0  0  0
   47.8240   35.4430   41.9790 O   0  0  0  0  0  0  0  0  0  0  0  0
   49.0610   35.7750   41.4440 C   0  0  0  0  0  0  0  0  0  0  0  0
   49.4720   37.0510   41.7890 F   0  0  0  0  0  0  0  0  0  0  0  0
   49.9750   34.8220   41.7580 F   0  0  0  0  0  0  0  0  0  0  0  0
   48.8880   35.7790   40.0580 F   0  0  0  0  0  0  0  0  0  0  0  0
  2  1  2  1  0  0  0
  2  3  1  0  0  0  0
  2 22  1  0  0  0  0
  3  6  1  0  0  0  0
  4 10  1  0  0  0  0
  4  9  1  0  0  0  0
  5  4  2  0  0  0  0
  6  5  1  0  0  0  0
  6  7  2  0  0  0  0
  7  8  1  0  0  0  0
  8  9  2  0  0  0  0
  8 12  1  0  0  0  0
 11  5  1  0  0  0  0
 13  2  1  0  0  0  0
 14 13  1  0  0  0  0
 15 14  2  0  0  0  0
 16 14  1  0  0  0  0
 16 21  1  0  0  0  0
 17 16  2  0  0  0  0
 18 17  1  0  0  0  0
 19 17  1  0  0  0  0
 19 20  2  0  0  0  0
 20 21  1  0  0  0  0
 23 25  1  0  0  0  0
 23 24  1  0  0  0  0
 23 22  1  0  0  0  0
 26 23  1  0  0  0  0
M  END
>  <minimizedAffinity>
-4.79026985

>  <minimizedRMSD>
0.368021071

$$$$
