
 OpenBabel03242519403D

 26 27  0  0  0  0  0  0  0  0999 V2000
   48.0170   32.9100   41.7590 O   0  0  0  0  0  0  0  0  0  0  0  0
   47.1500   34.1010   41.2740 P   0  0  2  0  0  0  0  0  0  0  0  0
   45.5600   33.8890   41.8780 O   0  0  0  0  0  0  0  0  0  0  0  0
   44.3930   35.9170   44.6760 C   0  0  0  0  0  0  0  0  0  0  0  0
   44.6660   35.5020   43.3500 C   0  0  0  0  0  0  0  0  0  0  0  0
   45.3050   34.2650   43.1820 C   0  0  0  0  0  0  0  0  0  0  0  0
   45.6200   33.5440   44.2780 N   0  0  0  0  0  0  0  0  0  0  0  0
   45.3450   33.9710   45.5300 C   0  0  0  0  0  0  0  0  0  0  0  0
   44.7360   35.1480   45.7380 N   0  0  0  0  0  0  0  0  0  0  0  0
   43.9010   36.8760   44.7590 H   0  0  0  0  0  0  0  0  0  0  0  0
   44.3830   36.1330   42.5240 H   0  0  0  0  0  0  0  0  0  0  0  0
   45.6140   33.3640   46.3870 H   0  0  0  0  0  0  0  0  0  0  0  0
   47.1030   34.1030   39.6180 O   0  0  0  0  0  0  0  0  0  0  0  0
   46.8230   33.1000   38.7600 C   0  0  0  0  0  0  0  0  0  0  0  0
   46.0720   33.2790   37.6640 O   0  0  0  0  0  0  0  0  0  0  0  0
   47.0400   31.5360   38.4060 C   0  0  0  0  0  0  0  0  0  0  0  0
   46.2010   30.7630   37.5760 C   0  0  0  0  0  0  0  0  0  0  0  0
   45.3320   31.2700   37.1060 H   0  0  0  0  0  0  0  0  0  0  0  0
   46.4580   29.4950   37.3840 C   0  0  0  0  0  3  0  0  0  0  0  0
   47.6090   29.0570   38.0760 C   0  0  0  0  0  3  0  0  0  0  0  0
   48.1560   30.6880   38.9510 S   0  0  0  0  0  0  0  0  0  0  0  0
   47.8040   35.4690   41.9350 O   0  0  0  0  0  0  0  0  0  0  0  0
   49.0530   35.7810   41.4180 C   0  0  0  0  0  0  0  0  0  0  0  0
   49.4820   37.0480   41.7740 F   0  0  0  0  0  0  0  0  0  0  0  0
   49.9460   34.8110   41.7410 F   0  0  0  0  0  0  0  0  0  0  0  0
   48.9000   35.7930   40.0300 F   0  0  0  0  0  0  0  0  0  0  0  0
  2  1  2  1  0  0  0
  2  3  1  0  0  0  0
  2 22  1  0  0  0  0
  3  6  1  0  0  0  0
  4 10  1  0  0  0  0
  4  9  1  0  0  0  0
  5  4  2  0  0  0  0
  6  5  1  0  0  0  0
  6  7  2  0  0  0  0
  7  8  1  0  0  0  0
  8  9  2  0  0  0  0
  8 12  1  0  0  0  0
 11  5  1  0  0  0  0
 13  2  1  0  0  0  0
 14 13  1  0  0  0  0
 15 14  2  0  0  0  0
 16 14  1  0  0  0  0
 16 21  1  0  0  0  0
 17 16  2  0  0  0  0
 18 17  1  0  0  0  0
 19 17  1  0  0  0  0
 19 20  2  0  0  0  0
 20 21  1  0  0  0  0
 23 25  1  0  0  0  0
 23 24  1  0  0  0  0
 23 22  1  0  0  0  0
 26 23  1  0  0  0  0
M  END
>  <minimizedAffinity>
-4.75925684

>  <minimizedRMSD>
0.593490124

$$$$
