
     RDKit          3D

 21 22  0  0  0  0  0  0  0  0999 V2000
   44.6635   36.0760   44.2846 C   0  0  0  0  0  0  0  0  0  0  0  0
   45.4734   35.5867   43.2401 C   0  0  0  0  0  0  0  0  0  0  0  0
   46.1746   34.3920   43.4724 C   0  0  0  0  0  0  0  0  0  0  0  0
   46.0474   33.7654   44.6738 N   0  0  0  0  0  0  0  0  0  0  0  0
   45.2605   34.2672   45.6496 C   0  0  0  0  0  0  0  0  0  0  0  0
   44.5759   35.4230   45.4386 N   0  0  0  0  0  0  0  0  0  0  0  0
   46.1651   32.5881   47.1170 C   0  0  0  0  0  0  0  0  0  0  0  0
   47.1002   32.2798   46.3686 O   0  0  0  0  0  0  0  0  0  0  0  0
   45.1663   33.5629   46.8922 N   0  0  0  0  0  0  0  0  0  0  0  0
   44.0782   36.9757   44.2346 H   0  0  0  0  0  0  0  0  0  0  0  0
   45.5043   36.1592   42.3286 H   0  0  0  0  0  0  0  0  0  0  0  0
   46.7917   34.0199   42.6753 H   0  0  0  0  0  0  0  0  0  0  0  0
   44.4088   33.7691   47.5676 H   0  0  0  0  0  0  0  0  0  0  0  0
   46.0977   31.8324   48.4052 C   0  0  0  0  0  0  0  0  0  0  0  0
   45.8583   32.4026   49.7357 C   0  0  0  0  0  0  0  0  0  0  0  0
   45.7126   33.4642   49.8327 H   0  0  0  0  0  0  0  0  0  0  0  0
   45.8569   31.4373   50.7076 C   0  0  0  0  0  0  0  0  0  0  0  0
   46.0534   30.1225   50.4604 C   0  0  0  0  0  0  0  0  0  0  0  0
   46.2871   30.0989   48.6308 S   0  0  0  0  0  0  0  0  0  0  0  0
   45.6846   31.7676   51.7450 H   0  0  0  0  0  0  0  0  0  0  0  0
   46.0733   29.3110   51.1111 H   0  0  0  0  0  0  0  0  0  0  0  0
  1  6  2  0
  2  3  2  0
  2  1  1  0
  3  4  1  0
  4  5  2  0
  5  9  1  0
  6  5  1  0
  8  7  2  0
  9  7  1  0
  1 10  1  0
  2 11  1  0
  3 12  1  0
  9 13  1  0
 14 15  2  0
 15 16  1  0
 15 17  1  0
 17 18  2  0
 18 19  1  0
 19 14  1  0
 17 20  1  0
 18 21  1  0
  7 14  1  0
M  ISO  4  10  14  11  14  12  14  16  15
M  END
>  <DihAtoms>  (1) 
7,6,13,14

>  <DihDeg>  (1) 
-179.9869169544638

$$$$
