
 OpenBabel03242510493D

 19 20  0  0  0  0  0  0  0  0999 V2000
   44.5240   36.1650   44.6670 C   0  0  0  0  0  0  0  0  0  0  0  0
   45.0890   36.3150   43.3840 C   0  0  0  0  0  0  0  0  0  0  0  0
   45.8830   35.2610   42.9010 C   0  0  0  0  0  0  0  0  0  0  0  0
   46.0730   34.1580   43.6760 N   0  0  0  0  0  0  0  0  0  0  0  0
   45.5150   34.0540   44.9010 C   0  0  0  0  0  0  0  0  0  0  0  0
   44.7430   35.0660   45.3810 N   0  0  0  0  0  0  0  0  0  0  0  0
   46.8200   32.0590   45.2270 C   0  0  0  0  0  0  0  0  0  0  0  0
   47.5660   32.2570   44.2610 O   0  0  0  0  0  0  0  0  0  0  0  0
   45.7490   32.8700   45.6690 N   0  0  0  0  0  0  0  0  0  0  0  0
   43.9000   36.8950   45.1490 H   0  0  0  0  0  0  0  0  0  0  0  0
   44.8760   37.2270   42.8530 H   0  0  0  0  0  0  0  0  0  0  0  0
   46.3130   35.3760   41.9230 H   0  0  0  0  0  0  0  0  0  0  0  0
   45.1630   32.6400   46.4920 H   0  0  0  0  0  0  0  0  0  0  0  0
   47.0950   30.8130   46.0050 C   0  0  0  0  0  0  0  0  0  0  0  0
   46.8460   29.4380   45.5610 C   0  0  0  0  0  0  0  0  0  0  0  0
   46.4250   29.2700   44.5840 H   0  0  0  0  0  0  0  0  0  0  0  0
   47.2090   28.5230   46.5140 C   0  0  0  0  0  3  0  0  0  0  0  0
   47.7310   28.8580   47.7150 C   0  0  0  0  0  3  0  0  0  0  0  0
   47.7740   30.7010   47.6240 S   0  0  0  0  0  0  0  0  0  0  0  0
  1 10  1  0  0  0  0
  1  6  1  0  0  0  0
  2  1  2  0  0  0  0
  3  2  1  0  0  0  0
  3  4  2  0  0  0  0
  4  5  1  0  0  0  0
  5  6  2  0  0  0  0
  5  9  1  0  0  0  0
  7  9  1  0  0  0  0
  7 14  1  0  0  0  0
  8  7  2  0  0  0  0
  9 13  1  0  0  0  0
 11  2  1  0  0  0  0
 12  3  1  0  0  0  0
 14 19  1  0  0  0  0
 15 14  2  0  0  0  0
 15 17  1  0  0  0  0
 16 15  1  0  0  0  0
 17 18  2  0  0  0  0
 19 18  1  0  0  0  0
M  END
>  <minimizedAffinity>
-3.99754381

>  <minimizedRMSD>
2.35086799

$$$$
