
 OpenBabel03242510493D

 19 20  0  0  0  0  0  0  0  0999 V2000
   44.5890   36.3330   44.5090 C   0  0  0  0  0  0  0  0  0  0  0  0
   45.2420   36.3950   43.2610 C   0  0  0  0  0  0  0  0  0  0  0  0
   45.9760   35.2670   42.8590 C   0  0  0  0  0  0  0  0  0  0  0  0
   46.0260   34.1770   43.6750 N   0  0  0  0  0  0  0  0  0  0  0  0
   45.3870   34.1580   44.8640 C   0  0  0  0  0  0  0  0  0  0  0  0
   44.6730   35.2440   45.2650 N   0  0  0  0  0  0  0  0  0  0  0  0
   46.5010   32.0770   45.3280 C   0  0  0  0  0  0  0  0  0  0  0  0
   47.3200   32.1830   44.4070 O   0  0  0  0  0  0  0  0  0  0  0  0
   45.4750   32.9850   45.6780 N   0  0  0  0  0  0  0  0  0  0  0  0
   43.9980   37.1260   44.9300 H   0  0  0  0  0  0  0  0  0  0  0  0
   45.1390   37.3040   42.6930 H   0  0  0  0  0  0  0  0  0  0  0  0
   46.4740   35.3150   41.9080 H   0  0  0  0  0  0  0  0  0  0  0  0
   44.8230   32.8290   46.4670 H   0  0  0  0  0  0  0  0  0  0  0  0
   46.6240   30.8390   46.1560 C   0  0  0  0  0  0  0  0  0  0  0  0
   45.5980   30.2820   47.0440 C   0  0  0  0  0  0  0  0  0  0  0  0
   44.6520   30.7850   47.1320 H   0  0  0  0  0  0  0  0  0  0  0  0
   46.0290   29.1360   47.6600 C   0  0  0  0  0  3  0  0  0  0  0  0
   47.2530   28.5950   47.4680 C   0  0  0  0  0  3  0  0  0  0  0  0
   48.0150   29.7670   46.2650 S   0  0  0  0  0  0  0  0  0  0  0  0
  1 10  1  0  0  0  0
  1  6  1  0  0  0  0
  2  1  2  0  0  0  0
  3  2  1  0  0  0  0
  3  4  2  0  0  0  0
  4  5  1  0  0  0  0
  5  6  2  0  0  0  0
  5  9  1  0  0  0  0
  7  9  1  0  0  0  0
  7 14  1  0  0  0  0
  8  7  2  0  0  0  0
  9 13  1  0  0  0  0
 11  2  1  0  0  0  0
 12  3  1  0  0  0  0
 14 19  1  0  0  0  0
 14 15  2  0  0  0  0
 15 16  1  0  0  0  0
 15 17  1  0  0  0  0
 18 17  2  0  0  0  0
 19 18  1  0  0  0  0
M  END
>  <minimizedAffinity>
-4.23550415

>  <minimizedRMSD>
2.19125152

$$$$
