
 OpenBabel03252508493D

 25 27  0  0  0  0  0  0  0  0999 V2000
   45.8880   34.1990   41.0200 C   0  0  0  0  0  0  0  0  0  0  0  0
   46.5050   34.7950   42.1190 C   0  0  0  0  0  0  0  0  0  0  0  0
   47.8530   35.1110   41.9820 C   0  0  0  0  0  0  0  0  0  0  0  0
   48.4780   34.8240   40.7960 N   0  0  0  0  0  0  0  0  0  0  0  0
   47.8500   34.2540   39.7740 C   0  0  0  0  0  0  0  0  0  0  0  0
   46.5410   33.9350   39.8780 N   0  0  0  0  0  0  0  0  0  0  0  0
   48.3560   35.5770   42.8250 H   0  0  0  0  0  0  0  0  0  0  0  0
   48.3570   34.0330   38.8440 H   0  0  0  0  0  0  0  0  0  0  0  0
   45.7400   35.0500   43.3260 C   0  0  0  0  0  0  0  0  0  0  0  0
   45.0950   36.2570   43.5650 C   0  0  0  0  0  0  0  0  0  0  0  0
   44.5080   36.0470   44.8070 C   0  0  0  0  0  0  0  0  0  0  0  0
   44.7830   34.8000   45.2780 N   0  0  0  0  0  0  0  0  0  0  0  0
   45.5260   34.2210   44.3640 N   0  0  0  0  0  0  0  0  0  0  0  0
   45.0330   37.1600   42.9750 H   0  0  0  0  0  0  0  0  0  0  0  0
   43.9040   36.7760   45.3450 H   0  0  0  0  0  0  0  0  0  0  0  0
   44.4560   34.4020   46.1860 H   0  0  0  0  0  0  0  0  0  0  0  0
   44.5530   33.8700   41.1180 O   0  0  0  0  0  0  0  0  0  0  0  0
   43.4900   34.5580   40.6080 C   0  0  0  0  0  0  0  0  0  0  0  0
   43.1710   35.7770   40.8260 O   0  0  0  0  0  0  0  0  0  0  0  0
   42.4680   33.9430   39.6520 C   0  0  0  0  0  0  0  0  0  0  0  0
   42.5090   32.7920   38.9730 C   0  0  0  0  0  0  0  0  0  0  0  0
   43.3950   32.1860   39.1060 H   0  0  0  0  0  0  0  0  0  0  0  0
   41.4840   32.4240   38.1670 C   0  0  0  0  0  3  0  0  0  0  0  0
   40.3900   33.3550   38.1140 C   0  0  0  0  0  3  0  0  0  0  0  0
   40.9700   34.7200   39.2750 S   0  0  0  0  0  0  0  0  0  0  0  0
  1 17  1  0  0  0  0
  1  2  1  0  0  0  0
  2  9  1  0  0  0  0
  3  2  2  0  0  0  0
  3  7  1  0  0  0  0
  4  3  1  0  0  0  0
  5  6  1  0  0  0  0
  5  4  2  0  0  0  0
  6  1  2  0  0  0  0
  8  5  1  0  0  0  0
  9 10  1  0  0  0  0
  9 13  2  0  0  0  0
 10 11  2  0  0  0  0
 11 12  1  0  0  0  0
 11 15  1  0  0  0  0
 12 16  1  0  0  0  0
 13 12  1  0  0  0  0
 14 10  1  0  0  0  0
 18 19  2  0  0  0  0
 18 17  1  0  0  0  0
 20 18  1  0  0  0  0
 21 22  1  0  0  0  0
 21 20  2  0  0  0  0
 23 21  1  0  0  0  0
 24 23  2  0  0  0  0
 24 25  1  0  0  0  0
 25 20  1  0  0  0  0
M  END
>  <minimizedAffinity>
-5.09296703

>  <minimizedRMSD>
0.559797347

$$$$
