
     RDKit          3D

 27 29  0  0  0  0  0  0  0  0999 V2000
   46.0816   34.1597   41.0139 C   0  0  0  0  0  0  0  0  0  0  0  0
   46.6184   34.8387   42.1081 C   0  0  0  0  0  0  0  0  0  0  0  0
   47.9326   35.2784   41.9860 C   0  0  0  0  0  0  0  0  0  0  0  0
   48.6047   35.0215   40.8195 N   0  0  0  0  0  0  0  0  0  0  0  0
   48.0544   34.3704   39.8009 C   0  0  0  0  0  0  0  0  0  0  0  0
   46.7788   33.9314   39.8913 N   0  0  0  0  0  0  0  0  0  0  0  0
   45.8087   35.0504   43.2936 C   0  0  0  0  0  0  0  0  0  0  0  0
   45.0441   36.1934   43.4874 C   0  0  0  0  0  0  0  0  0  0  0  0
   44.4569   35.9599   44.7254 C   0  0  0  0  0  0  0  0  0  0  0  0
   44.8438   34.7596   45.2370 N   0  0  0  0  0  0  0  0  0  0  0  0
   45.6585   34.2330   44.3531 N   0  0  0  0  0  0  0  0  0  0  0  0
   44.7822   33.7086   41.0982 O   0  0  0  0  0  0  0  0  0  0  0  0
   43.6919   34.1912   40.4316 C   0  0  0  0  0  0  0  0  0  0  0  0
   43.2536   35.3928   40.4170 O   0  0  0  0  0  0  0  0  0  0  0  0
   48.3728   35.8098   42.8248 H   0  0  0  0  0  0  0  0  0  0  0  0
   48.5969   34.1746   38.8864 H   0  0  0  0  0  0  0  0  0  0  0  0
   44.9039   37.0693   42.8698 H   0  0  0  0  0  0  0  0  0  0  0  0
   43.7740   36.6407   45.2317 H   0  0  0  0  0  0  0  0  0  0  0  0
   44.5414   34.3571   46.1512 H   0  0  0  0  0  0  0  0  0  0  0  0
   42.7842   33.3231   39.5606 C   0  0  0  0  0  0  0  0  0  0  0  0
   42.0533   32.2520   39.8820 C   0  0  0  0  0  0  0  0  0  0  0  0
   42.0961   31.9303   40.9134 H   0  0  0  0  0  0  0  0  0  0  0  0
   41.3042   31.6171   38.9470 C   0  0  0  0  0  0  0  0  0  0  0  0
   41.3694   32.1850   37.6285 C   0  0  0  0  0  0  0  0  0  0  0  0
   42.5492   33.6332   37.8764 S   0  0  0  0  0  0  0  0  0  0  0  0
   40.6919   30.7506   39.1325 H   0  0  0  0  0  0  0  0  0  0  0  0
   40.7617   31.7110   36.7575 H   0  0  0  0  0  0  0  0  0  0  0  0
  1 12  1  0
  1  2  1  0
  2  7  1  0
  3  2  2  0
  4  3  1  0
  5  6  1  0
  5  4  2  0
  6  1  2  0
  7  8  1  0
  7 11  2  0
  8  9  2  0
  9 10  1  0
 11 10  1  0
 13 14  2  0
 13 12  1  0
  3 15  1  0
  5 16  1  0
  8 17  1  0
  9 18  1  0
 10 19  1  0
 20 21  2  0
 21 22  1  0
 21 23  1  0
 23 24  2  0
 24 25  1  0
 25 20  1  0
 23 26  1  0
 24 27  1  0
 13 20  1  0
M  ISO  6  15  14  16  14  17  14  18  14  19   9  22  15
M  END
>  <DihAtoms>  (1) 
13,12,19,20

>  <DihDeg>  (1) 
-179.82312155898398

$$$$
