
 OpenBabel03252508493D

 25 27  0  0  0  0  0  0  0  0999 V2000
   45.9620   34.1880   41.0420 C   0  0  0  0  0  0  0  0  0  0  0  0
   46.5480   34.8200   42.1390 C   0  0  0  0  0  0  0  0  0  0  0  0
   47.8840   35.1870   42.0070 C   0  0  0  0  0  0  0  0  0  0  0  0
   48.5270   34.9120   40.8280 N   0  0  0  0  0  0  0  0  0  0  0  0
   47.9290   34.3060   39.8080 C   0  0  0  0  0  0  0  0  0  0  0  0
   46.6320   33.9370   39.9070 N   0  0  0  0  0  0  0  0  0  0  0  0
   48.3620   35.6810   42.8480 H   0  0  0  0  0  0  0  0  0  0  0  0
   48.4490   34.0950   38.8840 H   0  0  0  0  0  0  0  0  0  0  0  0
   45.7650   35.0580   43.3380 C   0  0  0  0  0  0  0  0  0  0  0  0
   45.0690   36.2390   43.5570 C   0  0  0  0  0  0  0  0  0  0  0  0
   44.4840   36.0200   44.7990 C   0  0  0  0  0  0  0  0  0  0  0  0
   44.8070   34.7920   45.2880 N   0  0  0  0  0  0  0  0  0  0  0  0
   45.5800   34.2340   44.3860 N   0  0  0  0  0  0  0  0  0  0  0  0
   44.9730   37.1320   42.9550 H   0  0  0  0  0  0  0  0  0  0  0  0
   43.8460   36.7310   45.3240 H   0  0  0  0  0  0  0  0  0  0  0  0
   44.4920   34.3930   46.1990 H   0  0  0  0  0  0  0  0  0  0  0  0
   44.6400   33.8090   41.1360 O   0  0  0  0  0  0  0  0  0  0  0  0
   43.5610   34.4120   40.5580 C   0  0  0  0  0  0  0  0  0  0  0  0
   43.1680   35.6210   40.7070 O   0  0  0  0  0  0  0  0  0  0  0  0
   42.6100   33.6990   39.5970 C   0  0  0  0  0  0  0  0  0  0  0  0
   42.8370   32.6830   38.7600 C   0  0  0  0  0  0  0  0  0  0  0  0
   43.8440   32.2870   38.7420 H   0  0  0  0  0  0  0  0  0  0  0  0
   41.8420   32.1880   37.9830 C   0  0  0  0  0  3  0  0  0  0  0  0
   40.5700   32.8370   38.1400 C   0  0  0  0  0  3  0  0  0  0  0  0
   40.9480   34.1460   39.4410 S   0  0  0  0  0  0  0  0  0  0  0  0
  1 17  1  0  0  0  0
  1  2  1  0  0  0  0
  2  9  1  0  0  0  0
  3  2  2  0  0  0  0
  3  7  1  0  0  0  0
  4  3  1  0  0  0  0
  5  6  1  0  0  0  0
  5  4  2  0  0  0  0
  6  1  2  0  0  0  0
  8  5  1  0  0  0  0
  9 10  1  0  0  0  0
  9 13  2  0  0  0  0
 10 11  2  0  0  0  0
 11 12  1  0  0  0  0
 11 15  1  0  0  0  0
 12 16  1  0  0  0  0
 13 12  1  0  0  0  0
 14 10  1  0  0  0  0
 18 19  2  0  0  0  0
 18 17  1  0  0  0  0
 20 18  1  0  0  0  0
 21 20  2  0  0  0  0
 22 21  1  0  0  0  0
 23 24  2  0  0  0  0
 23 21  1  0  0  0  0
 24 25  1  0  0  0  0
 25 20  1  0  0  0  0
M  END
>  <minimizedAffinity>
-5.05754232

>  <minimizedRMSD>
0.324507892

$$$$
