
 OpenBabel03252503333D

 38 40  0  0  1  0  0  0  0  0999 V2000
   38.5860   27.1860   39.5040 C   0  0  0  0  0  0  0  0  0  0  0  0
   37.6980   26.6310   40.4740 C   0  0  0  0  0  0  0  0  0  0  0  0
   38.0460   25.3670   40.9790 C   0  0  0  0  0  0  0  0  0  0  0  0
   39.1660   24.7890   40.5170 N   0  0  0  0  0  0  0  0  0  0  0  0
   39.9770   25.3590   39.5940 C   0  0  0  0  0  0  0  0  0  0  0  0
   39.6720   26.5710   39.0900 N   0  0  0  0  0  0  0  0  0  0  0  0
   38.5820   29.5080   39.8490 C   0  0  0  0  0  0  0  0  0  0  0  0
   38.9970   29.2060   41.0180 O   0  0  0  0  0  0  0  0  0  0  0  0
   38.2910   28.4740   38.9490 N   0  0  0  0  0  0  0  0  0  0  0  0
   38.4430   30.8850   39.5460 N   0  0  0  0  0  0  0  0  0  0  0  0
   38.4570   31.8750   40.6410 C   0  0  0  0  0  0  0  0  0  0  0  0
   37.5630   32.9500   40.1080 C   0  0  0  0  0  0  0  0  0  0  0  0
   37.1980   32.5390   38.7110 C   0  0  0  0  0  0  0  0  0  0  0  0
   38.3010   31.5910   38.3050 C   0  0  1  0  0  0  0  0  0  0  0  0
   36.8430   27.1980   40.7510 H   0  0  0  0  0  0  0  0  0  0  0  0
   40.8730   24.8480   39.2560 H   0  0  0  0  0  0  0  0  0  0  0  0
   37.9180   28.7170   38.0290 H   0  0  0  0  0  0  0  0  0  0  0  0
   38.1300   31.4550   41.5940 H   0  0  0  0  0  0  0  0  0  0  0  0
   39.5050   32.2410   40.6830 H   0  0  0  0  0  0  0  0  0  0  0  0
   38.0460   33.9710   40.1110 H   0  0  0  0  0  0  0  0  0  0  0  0
   36.6880   33.0390   40.7790 H   0  0  0  0  0  0  0  0  0  0  0  0
   36.7420   33.2080   38.0600 H   0  0  0  0  0  0  0  0  0  0  0  0
   36.3600   31.7830   38.9190 H   0  0  0  0  0  0  0  0  0  0  0  0
   37.8990   31.0880   37.4300 H   0  0  0  0  0  0  0  0  0  0  0  0
   40.7640   31.5060   37.5780 C   0  0  0  0  0  0  0  0  0  0  0  0
   40.4850   30.3230   37.2950 O   0  0  0  0  0  0  0  0  0  0  0  0
   39.5650   32.2260   37.9610 N   0  0  0  0  0  0  0  0  0  0  0  0
   39.5610   33.2940   38.0080 H   0  0  0  0  0  0  0  0  0  0  0  0
   41.9140   32.2620   37.6090 C   0  0  0  0  0  0  0  0  0  0  0  0
   41.9460   33.7710   37.8190 C   0  0  0  0  0  0  0  0  0  0  0  0
   41.0060   34.2640   37.9500 H   0  0  0  0  0  0  0  0  0  0  0  0
   43.1740   34.3450   37.8180 C   0  0  0  0  0  3  0  0  0  0  0  0
   44.3720   33.6010   37.6350 C   0  0  0  0  0  3  0  0  0  0  0  0
   43.7640   31.8810   37.4330 S   0  0  0  0  0  0  0  0  0  0  0  0
   37.1240   24.8220   41.9660 C   0  0  0  0  0  0  0  0  0  0  0  0
   37.8030   23.8850   42.7360 F   0  0  0  0  0  0  0  0  0  0  0  0
   36.1580   24.0920   41.2720 F   0  0  0  0  0  0  0  0  0  0  0  0
   36.5820   25.7640   42.8000 F   0  0  0  0  0  0  0  0  0  0  0  0
  1  2  1  0  0  0  0
  2 15  1  0  0  0  0
  2  3  2  0  0  0  0
  3 35  1  0  0  0  0
  4  3  1  0  0  0  0
  5  4  2  0  0  0  0
  6  1  2  0  0  0  0
  6  5  1  0  0  0  0
  7  8  2  0  0  0  0
  9  1  1  0  0  0  0
  9  7  1  0  0  0  0
 10  7  1  0  0  0  0
 10 11  1  0  0  0  0
 11 19  1  0  0  0  0
 11 18  1  0  0  0  0
 12 20  1  0  0  0  0
 12 11  1  0  0  0  0
 12 21  1  0  0  0  0
 13 23  1  0  0  0  0
 13 12  1  0  0  0  0
 14 24  1  6  0  0  0
 14 13  1  0  0  0  0
 14 10  1  0  0  0  0
 16  5  1  0  0  0  0
 17  9  1  0  0  0  0
 22 13  1  0  0  0  0
 25 29  1  0  0  0  0
 25 27  1  0  0  0  0
 26 25  2  0  0  0  0
 27 28  1  0  0  0  0
 27 14  1  0  0  0  0
 29 30  2  0  0  0  0
 30 31  1  0  0  0  0
 32 30  1  0  0  0  0
 33 32  2  0  0  0  0
 34 29  1  0  0  0  0
 34 33  1  0  0  0  0
 35 36  1  0  0  0  0
 35 38  1  0  0  0  0
 37 35  1  0  0  0  0
M  END
>  <minimizedAffinity>
-5.8313489

$$$$

 OpenBabel03252503333D

 38 40  0  0  1  0  0  0  0  0999 V2000
   40.2850   30.6730   39.6200 C   0  0  0  0  0  0  0  0  0  0  0  0
   40.4740   31.9840   40.1520 C   0  0  0  0  0  0  0  0  0  0  0  0
   40.6550   33.0130   39.2130 C   0  0  0  0  0  0  0  0  0  0  0  0
   40.6370   32.6890   37.9100 N   0  0  0  0  0  0  0  0  0  0  0  0
   40.4530   31.4270   37.4550 C   0  0  0  0  0  0  0  0  0  0  0  0
   40.2760   30.4170   38.3300 N   0  0  0  0  0  0  0  0  0  0  0  0
   38.8040   29.5740   41.0700 C   0  0  0  0  0  0  0  0  0  0  0  0
   38.0050   30.5230   40.7680 O   0  0  0  0  0  0  0  0  0  0  0  0
   40.0930   29.5780   40.5230 N   0  0  0  0  0  0  0  0  0  0  0  0
   38.3180   28.5730   41.9490 N   0  0  0  0  0  0  0  0  0  0  0  0
   37.0840   28.8200   42.7200 C   0  0  0  0  0  0  0  0  0  0  0  0
   37.3270   28.0330   43.9700 C   0  0  0  0  0  0  0  0  0  0  0  0
   38.6300   27.3150   43.7660 C   0  0  0  0  0  0  0  0  0  0  0  0
   38.7890   27.2550   42.2660 C   0  0  1  0  0  0  0  0  0  0  0  0
   40.4670   32.1000   41.2080 H   0  0  0  0  0  0  0  0  0  0  0  0
   40.4460   31.2200   36.3890 H   0  0  0  0  0  0  0  0  0  0  0  0
   40.7450   28.8400   40.8000 H   0  0  0  0  0  0  0  0  0  0  0  0
   36.8990   29.8820   42.8920 H   0  0  0  0  0  0  0  0  0  0  0  0
   36.2740   28.3440   42.1260 H   0  0  0  0  0  0  0  0  0  0  0  0
   36.5000   27.3020   44.2020 H   0  0  0  0  0  0  0  0  0  0  0  0
   37.3450   28.7350   44.8240 H   0  0  0  0  0  0  0  0  0  0  0  0
   38.9260   26.5550   44.4090 H   0  0  0  0  0  0  0  0  0  0  0  0
   39.3790   28.1510   44.0070 H   0  0  0  0  0  0  0  0  0  0  0  0
   39.8360   26.9980   42.1270 H   0  0  0  0  0  0  0  0  0  0  0  0
   38.2070   25.7530   40.2640 C   0  0  0  0  0  0  0  0  0  0  0  0
   39.3690   26.0340   39.9060 O   0  0  0  0  0  0  0  0  0  0  0  0
   37.9550   26.2680   41.5960 N   0  0  0  0  0  0  0  0  0  0  0  0
   37.1120   25.9310   42.1610 H   0  0  0  0  0  0  0  0  0  0  0  0
   37.1410   25.0870   39.7020 C   0  0  0  0  0  0  0  0  0  0  0  0
   36.4260   23.9080   40.3480 C   0  0  0  0  0  0  0  0  0  0  0  0
   36.7860   23.5840   41.3030 H   0  0  0  0  0  0  0  0  0  0  0  0
   35.3960   23.3780   39.6440 C   0  0  0  0  0  3  0  0  0  0  0  0
   34.9920   23.8800   38.3770 C   0  0  0  0  0  3  0  0  0  0  0  0
   36.1630   25.2630   38.0860 S   0  0  0  0  0  0  0  0  0  0  0  0
   40.8480   34.3400   39.7810 C   0  0  0  0  0  0  0  0  0  0  0  0
   39.6060   34.9540   39.9020 F   0  0  0  0  0  0  0  0  0  0  0  0
   41.5390   35.0990   38.8360 F   0  0  0  0  0  0  0  0  0  0  0  0
   41.4550   34.3360   41.0090 F   0  0  0  0  0  0  0  0  0  0  0  0
  1  2  1  0  0  0  0
  1  9  1  0  0  0  0
  2 15  1  0  0  0  0
  3 35  1  0  0  0  0
  3  2  2  0  0  0  0
  4  3  1  0  0  0  0
  5  4  2  0  0  0  0
  5  6  1  0  0  0  0
  6  1  2  0  0  0  0
  7 10  1  0  0  0  0
  8  7  2  0  0  0  0
  9 17  1  0  0  0  0
  9  7  1  0  0  0  0
 10 14  1  0  0  0  0
 10 11  1  0  0  0  0
 11 18  1  0  0  0  0
 11 12  1  0  0  0  0
 12 20  1  0  0  0  0
 12 21  1  0  0  0  0
 13 12  1  0  0  0  0
 13 23  1  0  0  0  0
 13 22  1  0  0  0  0
 14 24  1  6  0  0  0
 14 13  1  0  0  0  0
 16  5  1  0  0  0  0
 19 11  1  0  0  0  0
 25 27  1  0  0  0  0
 26 25  2  0  0  0  0
 27 28  1  0  0  0  0
 27 14  1  0  0  0  0
 29 25  1  0  0  0  0
 29 30  2  0  0  0  0
 30 31  1  0  0  0  0
 32 30  1  0  0  0  0
 33 32  2  0  0  0  0
 34 33  1  0  0  0  0
 34 29  1  0  0  0  0
 35 36  1  0  0  0  0
 35 38  1  0  0  0  0
 37 35  1  0  0  0  0
M  END
>  <minimizedAffinity>
-5.76791096

$$$$

 OpenBabel03252503333D

 38 40  0  0  1  0  0  0  0  0999 V2000
   40.0370   28.1390   41.8380 C   0  0  0  0  0  0  0  0  0  0  0  0
   38.7290   27.5960   41.6590 C   0  0  0  0  0  0  0  0  0  0  0  0
   38.3880   26.5180   42.4930 C   0  0  0  0  0  0  0  0  0  0  0  0
   39.3020   26.0890   43.3770 N   0  0  0  0  0  0  0  0  0  0  0  0
   40.5320   26.6400   43.5090 C   0  0  0  0  0  0  0  0  0  0  0  0
   40.8910   27.6750   42.7240 N   0  0  0  0  0  0  0  0  0  0  0  0
   39.8620   30.4440   41.4340 C   0  0  0  0  0  0  0  0  0  0  0  0
   39.0270   30.4200   42.3990 O   0  0  0  0  0  0  0  0  0  0  0  0
   40.4490   29.2410   41.0210 N   0  0  0  0  0  0  0  0  0  0  0  0
   40.1350   31.7040   40.8440 N   0  0  0  0  0  0  0  0  0  0  0  0
   39.2410   32.8450   41.1210 C   0  0  0  0  0  0  0  0  0  0  0  0
   39.3310   33.6340   39.8530 C   0  0  0  0  0  0  0  0  0  0  0  0
   40.3500   32.9390   38.9980 C   0  0  0  0  0  0  0  0  0  0  0  0
   41.1880   32.1580   39.9820 C   0  0  1  0  0  0  0  0  0  0  0  0
   38.1040   28.0320   40.9190 H   0  0  0  0  0  0  0  0  0  0  0  0
   41.2340   26.2550   44.2420 H   0  0  0  0  0  0  0  0  0  0  0  0
   41.0840   29.2560   40.2200 H   0  0  0  0  0  0  0  0  0  0  0  0
   38.2270   32.5330   41.3810 H   0  0  0  0  0  0  0  0  0  0  0  0
   39.7330   33.4000   41.9480 H   0  0  0  0  0  0  0  0  0  0  0  0
   39.6190   34.7130   40.0210 H   0  0  0  0  0  0  0  0  0  0  0  0
   38.3260   33.6690   39.3930 H   0  0  0  0  0  0  0  0  0  0  0  0
   40.7350   33.3960   38.1470 H   0  0  0  0  0  0  0  0  0  0  0  0
   39.7210   32.0860   38.5590 H   0  0  0  0  0  0  0  0  0  0  0  0
   41.7290   31.4520   39.3570 H   0  0  0  0  0  0  0  0  0  0  0  0
   43.4940   32.5360   41.0510 C   0  0  0  0  0  0  0  0  0  0  0  0
   43.8230   31.5780   40.3230 O   0  0  0  0  0  0  0  0  0  0  0  0
   42.1360   32.9500   40.7500 N   0  0  0  0  0  0  0  0  0  0  0  0
   41.7630   33.8910   41.0960 H   0  0  0  0  0  0  0  0  0  0  0  0
   44.1040   33.2690   42.0440 C   0  0  0  0  0  0  0  0  0  0  0  0
   44.6170   32.6840   43.3530 C   0  0  0  0  0  0  0  0  0  0  0  0
   44.4890   31.6310   43.4990 H   0  0  0  0  0  0  0  0  0  0  0  0
   45.1910   33.5610   44.2130 C   0  0  0  0  0  3  0  0  0  0  0  0
   45.3150   34.9480   43.9270 C   0  0  0  0  0  3  0  0  0  0  0  0
   44.5520   35.0990   42.2640 S   0  0  0  0  0  0  0  0  0  0  0  0
   37.0490   25.9810   42.2900 C   0  0  0  0  0  0  0  0  0  0  0  0
   36.2200   26.4680   43.2950 F   0  0  0  0  0  0  0  0  0  0  0  0
   37.1170   24.6050   42.5080 F   0  0  0  0  0  0  0  0  0  0  0  0
   36.5000   26.3020   41.0770 F   0  0  0  0  0  0  0  0  0  0  0  0
  1  6  1  0  0  0  0
  2  1  2  0  0  0  0
  2  3  1  0  0  0  0
  3  4  2  0  0  0  0
  4  5  1  0  0  0  0
  5 16  1  0  0  0  0
  6  5  2  0  0  0  0
  7  8  2  0  0  0  0
  9  7  1  0  0  0  0
  9  1  1  0  0  0  0
 10 11  1  0  0  0  0
 10  7  1  0  0  0  0
 11 18  1  0  0  0  0
 11 19  1  0  0  0  0
 12 20  1  0  0  0  0
 12 11  1  0  0  0  0
 13 12  1  0  0  0  0
 13 14  1  0  0  0  0
 14 24  1  6  0  0  0
 14 27  1  0  0  0  0
 14 10  1  0  0  0  0
 15  2  1  0  0  0  0
 17  9  1  0  0  0  0
 21 12  1  0  0  0  0
 22 13  1  0  0  0  0
 23 13  1  0  0  0  0
 25 29  1  0  0  0  0
 26 25  2  0  0  0  0
 27 25  1  0  0  0  0
 27 28  1  0  0  0  0
 29 34  1  0  0  0  0
 29 30  2  0  0  0  0
 30 31  1  0  0  0  0
 30 32  1  0  0  0  0
 33 32  2  0  0  0  0
 34 33  1  0  0  0  0
 35  3  1  0  0  0  0
 35 37  1  0  0  0  0
 35 36  1  0  0  0  0
 38 35  1  0  0  0  0
M  END
>  <minimizedAffinity>
-5.52769804

$$$$

 OpenBabel03252503333D

 38 40  0  0  1  0  0  0  0  0999 V2000
   39.3070   27.1480   40.2690 C   0  0  0  0  0  0  0  0  0  0  0  0
   38.1280   26.3690   40.4700 C   0  0  0  0  0  0  0  0  0  0  0  0
   38.2900   25.1780   41.1960 C   0  0  0  0  0  0  0  0  0  0  0  0
   39.5190   24.8680   41.6360 N   0  0  0  0  0  0  0  0  0  0  0  0
   40.6090   25.6420   41.4190 C   0  0  0  0  0  0  0  0  0  0  0  0
   40.4890   26.7920   40.7260 N   0  0  0  0  0  0  0  0  0  0  0  0
   38.6360   29.3960   40.3060 C   0  0  0  0  0  0  0  0  0  0  0  0
   38.2270   29.1220   41.4840 O   0  0  0  0  0  0  0  0  0  0  0  0
   39.2130   28.3760   39.5380 N   0  0  0  0  0  0  0  0  0  0  0  0
   38.4730   30.7310   39.8580 N   0  0  0  0  0  0  0  0  0  0  0  0
   37.5740   31.6400   40.5960 C   0  0  0  0  0  0  0  0  0  0  0  0
   37.0680   32.5370   39.5100 C   0  0  0  0  0  0  0  0  0  0  0  0
   37.8000   32.1380   38.2610 C   0  0  0  0  0  0  0  0  0  0  0  0
   39.0510   31.4600   38.7660 C   0  0  1  0  0  0  0  0  0  0  0  0
   37.2150   26.7330   40.0660 H   0  0  0  0  0  0  0  0  0  0  0  0
   41.5820   25.3450   41.7980 H   0  0  0  0  0  0  0  0  0  0  0  0
   39.5000   28.5880   38.5800 H   0  0  0  0  0  0  0  0  0  0  0  0
   36.7890   31.1100   41.1370 H   0  0  0  0  0  0  0  0  0  0  0  0
   38.2410   32.2110   41.2780 H   0  0  0  0  0  0  0  0  0  0  0  0
   37.2240   33.6330   39.7310 H   0  0  0  0  0  0  0  0  0  0  0  0
   35.9730   32.4080   39.4340 H   0  0  0  0  0  0  0  0  0  0  0  0
   37.7690   32.7340   37.4110 H   0  0  0  0  0  0  0  0  0  0  0  0
   37.1960   31.2160   37.9410 H   0  0  0  0  0  0  0  0  0  0  0  0
   39.4300   30.9340   37.8940 H   0  0  0  0  0  0  0  0  0  0  0  0
   41.4580   31.9770   39.5040 C   0  0  0  0  0  0  0  0  0  0  0  0
   41.7060   30.8940   38.9350 O   0  0  0  0  0  0  0  0  0  0  0  0
   40.0780   32.3590   39.2730 N   0  0  0  0  0  0  0  0  0  0  0  0
   39.7460   33.3550   39.4760 H   0  0  0  0  0  0  0  0  0  0  0  0
   42.1710   32.8650   40.2760 C   0  0  0  0  0  0  0  0  0  0  0  0
   41.7120   34.2800   40.6050 C   0  0  0  0  0  0  0  0  0  0  0  0
   40.7710   34.5920   40.2040 H   0  0  0  0  0  0  0  0  0  0  0  0
   42.5500   35.0110   41.3810 C   0  0  0  0  0  3  0  0  0  0  0  0
   43.7860   34.5060   41.8670 C   0  0  0  0  0  3  0  0  0  0  0  0
   43.8340   32.8020   41.1870 S   0  0  0  0  0  0  0  0  0  0  0  0
   37.0720   24.4020   41.3860 C   0  0  0  0  0  0  0  0  0  0  0  0
   37.3880   23.0510   41.2840 F   0  0  0  0  0  0  0  0  0  0  0  0
   36.2390   24.6640   40.2980 F   0  0  0  0  0  0  0  0  0  0  0  0
   36.4590   24.6170   42.5920 F   0  0  0  0  0  0  0  0  0  0  0  0
  1  2  2  0  0  0  0
  1  6  1  0  0  0  0
  2  3  1  0  0  0  0
  3 35  1  0  0  0  0
  3  4  2  0  0  0  0
  5  4  1  0  0  0  0
  5 16  1  0  0  0  0
  6  5  2  0  0  0  0
  7  8  2  0  0  0  0
  9  1  1  0  0  0  0
  9  7  1  0  0  0  0
 10  7  1  0  0  0  0
 10 11  1  0  0  0  0
 11 18  1  0  0  0  0
 11 19  1  0  0  0  0
 12 20  1  0  0  0  0
 12 11  1  0  0  0  0
 13 14  1  0  0  0  0
 13 12  1  0  0  0  0
 14 24  1  6  0  0  0
 14 27  1  0  0  0  0
 14 10  1  0  0  0  0
 15  2  1  0  0  0  0
 17  9  1  0  0  0  0
 21 12  1  0  0  0  0
 22 13  1  0  0  0  0
 23 13  1  0  0  0  0
 25 29  1  0  0  0  0
 26 25  2  0  0  0  0
 27 28  1  0  0  0  0
 27 25  1  0  0  0  0
 29 30  2  0  0  0  0
 29 34  1  0  0  0  0
 30 32  1  0  0  0  0
 31 30  1  0  0  0  0
 32 33  2  0  0  0  0
 34 33  1  0  0  0  0
 35 38  1  0  0  0  0
 36 35  1  0  0  0  0
 37 35  1  0  0  0  0
M  END
>  <minimizedAffinity>
-5.49275255

$$$$

 OpenBabel03252503333D

 38 40  0  0  1  0  0  0  0  0999 V2000
   38.6770   30.2390   39.3220 C   0  0  0  0  0  0  0  0  0  0  0  0
   38.9190   31.4980   39.9500 C   0  0  0  0  0  0  0  0  0  0  0  0
   38.3110   32.6140   39.3530 C   0  0  0  0  0  0  0  0  0  0  0  0
   37.5610   32.4140   38.2580 N   0  0  0  0  0  0  0  0  0  0  0  0
   37.3610   31.1970   37.6990 C   0  0  0  0  0  0  0  0  0  0  0  0
   37.9300   30.1050   38.2470 N   0  0  0  0  0  0  0  0  0  0  0  0
   38.6000   28.6420   41.0400 C   0  0  0  0  0  0  0  0  0  0  0  0
   37.6330   29.3490   41.4810 O   0  0  0  0  0  0  0  0  0  0  0  0
   39.2670   29.0590   39.8810 N   0  0  0  0  0  0  0  0  0  0  0  0
   38.9310   27.4710   41.7680 N   0  0  0  0  0  0  0  0  0  0  0  0
   38.4000   27.2900   43.1330 C   0  0  0  0  0  0  0  0  0  0  0  0
   39.4840   26.4980   43.7930 C   0  0  0  0  0  0  0  0  0  0  0  0
   40.4950   26.1980   42.7240 C   0  0  0  0  0  0  0  0  0  0  0  0
   39.7170   26.3180   41.4350 C   0  0  1  0  0  0  0  0  0  0  0  0
   39.5350   31.5130   40.8160 H   0  0  0  0  0  0  0  0  0  0  0  0
   36.7440   31.0910   36.8120 H   0  0  0  0  0  0  0  0  0  0  0  0
   40.0680   28.5140   39.5540 H   0  0  0  0  0  0  0  0  0  0  0  0
   38.1760   28.2370   43.6280 H   0  0  0  0  0  0  0  0  0  0  0  0
   37.4940   26.6590   43.0070 H   0  0  0  0  0  0  0  0  0  0  0  0
   39.1110   25.5440   44.2680 H   0  0  0  0  0  0  0  0  0  0  0  0
   39.8950   27.0970   44.6260 H   0  0  0  0  0  0  0  0  0  0  0  0
   41.2470   25.4990   42.8810 H   0  0  0  0  0  0  0  0  0  0  0  0
   41.0770   27.1870   42.6920 H   0  0  0  0  0  0  0  0  0  0  0  0
   40.4890   26.3810   40.6730 H   0  0  0  0  0  0  0  0  0  0  0  0
   39.0610   24.2360   40.0790 C   0  0  0  0  0  0  0  0  0  0  0  0
   40.2360   24.3180   39.6660 O   0  0  0  0  0  0  0  0  0  0  0  0
   38.8350   25.1980   41.1410 N   0  0  0  0  0  0  0  0  0  0  0  0
   37.9760   25.1210   41.7740 H   0  0  0  0  0  0  0  0  0  0  0  0
   37.9640   23.4650   39.7680 C   0  0  0  0  0  0  0  0  0  0  0  0
   36.5220   23.9520   39.8430 C   0  0  0  0  0  0  0  0  0  0  0  0
   36.3650   24.9620   40.1600 H   0  0  0  0  0  0  0  0  0  0  0  0
   35.5710   23.0480   39.4990 C   0  0  0  0  0  3  0  0  0  0  0  0
   35.8810   21.7230   39.0900 C   0  0  0  0  0  3  0  0  0  0  0  0
   37.7140   21.6800   39.1790 S   0  0  0  0  0  0  0  0  0  0  0  0
   38.5740   33.8860   40.0120 C   0  0  0  0  0  0  0  0  0  0  0  0
   39.8170   34.3510   39.5950 F   0  0  0  0  0  0  0  0  0  0  0  0
   38.7220   33.6240   41.3740 F   0  0  0  0  0  0  0  0  0  0  0  0
   37.6370   34.8510   39.7530 F   0  0  0  0  0  0  0  0  0  0  0  0
  1  9  1  0  0  0  0
  1  2  1  0  0  0  0
  2 15  1  0  0  0  0
  3  2  2  0  0  0  0
  3 35  1  0  0  0  0
  4  3  1  0  0  0  0
  5  6  1  0  0  0  0
  5  4  2  0  0  0  0
  6  1  2  0  0  0  0
  7  8  2  0  0  0  0
  7 10  1  0  0  0  0
  9  7  1  0  0  0  0
 10 11  1  0  0  0  0
 11 18  1  0  0  0  0
 11 12  1  0  0  0  0
 12 20  1  0  0  0  0
 12 21  1  0  0  0  0
 13 22  1  0  0  0  0
 13 12  1  0  0  0  0
 14 24  1  6  0  0  0
 14 10  1  0  0  0  0
 14 13  1  0  0  0  0
 16  5  1  0  0  0  0
 17  9  1  0  0  0  0
 19 11  1  0  0  0  0
 23 13  1  0  0  0  0
 25 27  1  0  0  0  0
 26 25  2  0  0  0  0
 27 14  1  0  0  0  0
 27 28  1  0  0  0  0
 29 30  2  0  0  0  0
 29 25  1  0  0  0  0
 30 31  1  0  0  0  0
 32 30  1  0  0  0  0
 33 34  1  0  0  0  0
 33 32  2  0  0  0  0
 34 29  1  0  0  0  0
 35 37  1  0  0  0  0
 36 35  1  0  0  0  0
 38 35  1  0  0  0  0
M  END
>  <minimizedAffinity>
-5.47137213

$$$$

 OpenBabel03252503333D

 38 40  0  0  1  0  0  0  0  0999 V2000
   42.1770   31.7630   40.4080 C   0  0  0  0  0  0  0  0  0  0  0  0
   42.5000   32.7760   39.4560 C   0  0  0  0  0  0  0  0  0  0  0  0
   43.8550   32.8840   39.1030 C   0  0  0  0  0  0  0  0  0  0  0  0
   44.7270   32.0420   39.6790 N   0  0  0  0  0  0  0  0  0  0  0  0
   44.3700   31.0950   40.5800 C   0  0  0  0  0  0  0  0  0  0  0  0
   43.0780   30.9650   40.9400 N   0  0  0  0  0  0  0  0  0  0  0  0
   40.0530   30.9540   39.8260 C   0  0  0  0  0  0  0  0  0  0  0  0
   40.6120   30.6550   38.7170 O   0  0  0  0  0  0  0  0  0  0  0  0
   40.8130   31.5980   40.8110 N   0  0  0  0  0  0  0  0  0  0  0  0
   38.6870   30.6070   39.9770 N   0  0  0  0  0  0  0  0  0  0  0  0
   37.8960   30.2350   38.7880 C   0  0  0  0  0  0  0  0  0  0  0  0
   36.5240   30.7060   39.1600 C   0  0  0  0  0  0  0  0  0  0  0  0
   36.6210   31.2090   40.5710 C   0  0  0  0  0  0  0  0  0  0  0  0
   37.8380   30.5100   41.1300 C   0  0  1  0  0  0  0  0  0  0  0  0
   41.7090   33.3770   39.0780 H   0  0  0  0  0  0  0  0  0  0  0  0
   45.1160   30.4380   41.0150 H   0  0  0  0  0  0  0  0  0  0  0  0
   40.3520   31.8750   41.6810 H   0  0  0  0  0  0  0  0  0  0  0  0
   38.2830   30.6770   37.8680 H   0  0  0  0  0  0  0  0  0  0  0  0
   37.9200   29.1250   38.7630 H   0  0  0  0  0  0  0  0  0  0  0  0
   35.7400   29.8980   39.0770 H   0  0  0  0  0  0  0  0  0  0  0  0
   36.2170   31.4860   38.4390 H   0  0  0  0  0  0  0  0  0  0  0  0
   35.7660   31.4110   41.1250 H   0  0  0  0  0  0  0  0  0  0  0  0
   37.0600   32.2550   40.3990 H   0  0  0  0  0  0  0  0  0  0  0  0
   38.0680   31.0740   42.0300 H   0  0  0  0  0  0  0  0  0  0  0  0
   38.4700   28.3730   42.4080 C   0  0  0  0  0  0  0  0  0  0  0  0
   39.1570   29.1620   43.0890 O   0  0  0  0  0  0  0  0  0  0  0  0
   37.6430   29.1090   41.4720 N   0  0  0  0  0  0  0  0  0  0  0  0
   36.8250   28.6330   40.9740 H   0  0  0  0  0  0  0  0  0  0  0  0
   38.3210   27.0060   42.3440 C   0  0  0  0  0  0  0  0  0  0  0  0
   36.9870   26.2940   42.1600 C   0  0  0  0  0  0  0  0  0  0  0  0
   36.1150   26.9080   42.0770 H   0  0  0  0  0  0  0  0  0  0  0  0
   37.0360   24.9400   42.1210 C   0  0  0  0  0  3  0  0  0  0  0  0
   38.2500   24.2100   42.2420 C   0  0  0  0  0  3  0  0  0  0  0  0
   39.5100   25.5310   42.4370 S   0  0  0  0  0  0  0  0  0  0  0  0
   44.1590   33.9260   38.1310 C   0  0  0  0  0  0  0  0  0  0  0  0
   44.7250   33.3320   37.0080 F   0  0  0  0  0  0  0  0  0  0  0  0
   45.1710   34.7170   38.6750 F   0  0  0  0  0  0  0  0  0  0  0  0
   43.0670   34.6530   37.7380 F   0  0  0  0  0  0  0  0  0  0  0  0
  1  9  1  0  0  0  0
  1  6  1  0  0  0  0
  2  1  2  0  0  0  0
  3  2  1  0  0  0  0
  3  4  2  0  0  0  0
  4  5  1  0  0  0  0
  5  6  2  0  0  0  0
  5 16  1  0  0  0  0
  7 10  1  0  0  0  0
  7  9  1  0  0  0  0
  8  7  2  0  0  0  0
  9 17  1  0  0  0  0
 10 14  1  0  0  0  0
 11 12  1  0  0  0  0
 11 10  1  0  0  0  0
 12 13  1  0  0  0  0
 13 22  1  0  0  0  0
 13 14  1  0  0  0  0
 14 27  1  0  0  0  0
 14 24  1  1  0  0  0
 15  2  1  0  0  0  0
 18 11  1  0  0  0  0
 19 11  1  0  0  0  0
 20 12  1  0  0  0  0
 21 12  1  0  0  0  0
 23 13  1  0  0  0  0
 25 26  2  0  0  0  0
 27 25  1  0  0  0  0
 28 27  1  0  0  0  0
 29 25  1  0  0  0  0
 29 34  1  0  0  0  0
 30 29  2  0  0  0  0
 31 30  1  0  0  0  0
 32 30  1  0  0  0  0
 32 33  2  0  0  0  0
 33 34  1  0  0  0  0
 35 37  1  0  0  0  0
 35  3  1  0  0  0  0
 36 35  1  0  0  0  0
 38 35  1  0  0  0  0
M  END
>  <minimizedAffinity>
-5.4592762

$$$$

 OpenBabel03252503333D

 38 40  0  0  1  0  0  0  0  0999 V2000
   36.9680   25.0990   39.0860 C   0  0  0  0  0  0  0  0  0  0  0  0
   37.2660   23.7260   39.3410 C   0  0  0  0  0  0  0  0  0  0  0  0
   37.6270   22.9540   38.2250 C   0  0  0  0  0  0  0  0  0  0  0  0
   37.6630   23.5560   37.0260 N   0  0  0  0  0  0  0  0  0  0  0  0
   37.3700   24.8640   36.8350 C   0  0  0  0  0  0  0  0  0  0  0  0
   37.0200   25.6330   37.8850 N   0  0  0  0  0  0  0  0  0  0  0  0
   37.6980   26.3000   40.9650 C   0  0  0  0  0  0  0  0  0  0  0  0
   38.8420   25.8150   40.6720 O   0  0  0  0  0  0  0  0  0  0  0  0
   36.5930   25.9430   40.1810 N   0  0  0  0  0  0  0  0  0  0  0  0
   37.6320   27.1750   42.0780 N   0  0  0  0  0  0  0  0  0  0  0  0
   38.7620   27.2320   43.0260 C   0  0  0  0  0  0  0  0  0  0  0  0
   38.0780   27.5570   44.3170 C   0  0  0  0  0  0  0  0  0  0  0  0
   36.6300   27.7640   43.9840 C   0  0  0  0  0  0  0  0  0  0  0  0
   36.6340   28.1090   42.5130 C   0  0  1  0  0  0  0  0  0  0  0  0
   37.1980   23.3780   40.3430 H   0  0  0  0  0  0  0  0  0  0  0  0
   37.4150   25.3020   35.8430 H   0  0  0  0  0  0  0  0  0  0  0  0
   35.6720   26.2990   40.4440 H   0  0  0  0  0  0  0  0  0  0  0  0
   39.3410   26.3070   43.0490 H   0  0  0  0  0  0  0  0  0  0  0  0
   39.3720   28.0990   42.6930 H   0  0  0  0  0  0  0  0  0  0  0  0
   38.5050   28.4680   44.8290 H   0  0  0  0  0  0  0  0  0  0  0  0
   38.2490   26.7200   45.0200 H   0  0  0  0  0  0  0  0  0  0  0  0
   35.9780   28.1880   44.6740 H   0  0  0  0  0  0  0  0  0  0  0  0
   36.2620   26.6790   43.9270 H   0  0  0  0  0  0  0  0  0  0  0  0
   35.5960   27.9830   42.2160 H   0  0  0  0  0  0  0  0  0  0  0  0
   36.6200   30.2160   41.0420 C   0  0  0  0  0  0  0  0  0  0  0  0
   35.6120   29.6780   40.5400 O   0  0  0  0  0  0  0  0  0  0  0  0
   37.0670   29.4630   42.1990 N   0  0  0  0  0  0  0  0  0  0  0  0
   37.7610   29.8880   42.8920 H   0  0  0  0  0  0  0  0  0  0  0  0
   37.3830   31.3270   40.7590 C   0  0  0  0  0  0  0  0  0  0  0  0
   36.9180   32.4910   39.8940 C   0  0  0  0  0  0  0  0  0  0  0  0
   35.9320   32.4290   39.4830 H   0  0  0  0  0  0  0  0  0  0  0  0
   37.8090   33.4990   39.7260 C   0  0  0  0  0  3  0  0  0  0  0  0
   39.1020   33.4890   40.3150 C   0  0  0  0  0  3  0  0  0  0  0  0
   39.1300   31.8970   41.2260 S   0  0  0  0  0  0  0  0  0  0  0  0
   37.9260   21.5580   38.5120 C   0  0  0  0  0  0  0  0  0  0  0  0
   38.1500   20.8970   37.3090 F   0  0  0  0  0  0  0  0  0  0  0  0
   36.7650   20.9840   39.0310 F   0  0  0  0  0  0  0  0  0  0  0  0
   39.0170   21.3770   39.3200 F   0  0  0  0  0  0  0  0  0  0  0  0
  1  2  1  0  0  0  0
  1  9  1  0  0  0  0
  2 15  1  0  0  0  0
  3 35  1  0  0  0  0
  3  2  2  0  0  0  0
  4  3  1  0  0  0  0
  5  4  2  0  0  0  0
  5  6  1  0  0  0  0
  6  1  2  0  0  0  0
  7 10  1  0  0  0  0
  8  7  2  0  0  0  0
  9 17  1  0  0  0  0
  9  7  1  0  0  0  0
 10 14  1  0  0  0  0
 10 11  1  0  0  0  0
 11 18  1  0  0  0  0
 11 12  1  0  0  0  0
 12 20  1  0  0  0  0
 12 21  1  0  0  0  0
 13 12  1  0  0  0  0
 13 22  1  0  0  0  0
 14 24  1  6  0  0  0
 14 13  1  0  0  0  0
 16  5  1  0  0  0  0
 19 11  1  0  0  0  0
 23 13  1  0  0  0  0
 25 27  1  0  0  0  0
 26 25  2  0  0  0  0
 27 14  1  0  0  0  0
 27 28  1  0  0  0  0
 29 25  1  0  0  0  0
 29 34  1  0  0  0  0
 30 29  2  0  0  0  0
 31 30  1  0  0  0  0
 32 30  1  0  0  0  0
 32 33  2  0  0  0  0
 33 34  1  0  0  0  0
 35 37  1  0  0  0  0
 35 38  1  0  0  0  0
 36 35  1  0  0  0  0
M  END
>  <minimizedAffinity>
-5.4265871

$$$$

 OpenBabel03252503333D

 38 40  0  0  1  0  0  0  0  0999 V2000
   40.1640   31.1250   41.1070 C   0  0  0  0  0  0  0  0  0  0  0  0
   40.1970   32.4760   40.6460 C   0  0  0  0  0  0  0  0  0  0  0  0
   41.4680   33.0660   40.5510 C   0  0  0  0  0  0  0  0  0  0  0  0
   42.5350   32.3280   40.8960 N   0  0  0  0  0  0  0  0  0  0  0  0
   42.4510   31.0470   41.3280 C   0  0  0  0  0  0  0  0  0  0  0  0
   41.2460   30.4510   41.4300 N   0  0  0  0  0  0  0  0  0  0  0  0
   38.3930   30.0790   39.9770 C   0  0  0  0  0  0  0  0  0  0  0  0
   39.0460   30.3950   38.9260 O   0  0  0  0  0  0  0  0  0  0  0  0
   38.9000   30.4620   41.2260 N   0  0  0  0  0  0  0  0  0  0  0  0
   37.1890   29.3540   39.7980 N   0  0  0  0  0  0  0  0  0  0  0  0
   36.5770   29.2810   38.4570 C   0  0  0  0  0  0  0  0  0  0  0  0
   35.1180   29.1890   38.7780 C   0  0  0  0  0  0  0  0  0  0  0  0
   35.0220   29.1080   40.2740 C   0  0  0  0  0  0  0  0  0  0  0  0
   36.3760   28.5940   40.7040 C   0  0  1  0  0  0  0  0  0  0  0  0
   39.2740   32.9440   40.4070 H   0  0  0  0  0  0  0  0  0  0  0  0
   43.3460   30.4940   41.5930 H   0  0  0  0  0  0  0  0  0  0  0  0
   38.3540   30.2450   42.0620 H   0  0  0  0  0  0  0  0  0  0  0  0
   36.8410   30.1320   37.8260 H   0  0  0  0  0  0  0  0  0  0  0  0
   36.9310   28.3180   38.0310 H   0  0  0  0  0  0  0  0  0  0  0  0
   34.6120   28.3030   38.2960 H   0  0  0  0  0  0  0  0  0  0  0  0
   34.6120   30.0780   38.3560 H   0  0  0  0  0  0  0  0  0  0  0  0
   34.1300   28.8440   40.7380 H   0  0  0  0  0  0  0  0  0  0  0  0
   35.1340   30.2130   40.5600 H   0  0  0  0  0  0  0  0  0  0  0  0
   36.4030   28.8000   41.7710 H   0  0  0  0  0  0  0  0  0  0  0  0
   37.5790   26.3760   41.1880 C   0  0  0  0  0  0  0  0  0  0  0  0
   37.9810   26.9870   42.1990 O   0  0  0  0  0  0  0  0  0  0  0  0
   36.5960   27.1740   40.4790 N   0  0  0  0  0  0  0  0  0  0  0  0
   35.9710   26.7320   39.7320 H   0  0  0  0  0  0  0  0  0  0  0  0
   37.8450   25.1560   40.6090 C   0  0  0  0  0  0  0  0  0  0  0  0
   37.6620   23.8140   41.3060 C   0  0  0  0  0  0  0  0  0  0  0  0
   37.3020   23.8350   42.3140 H   0  0  0  0  0  0  0  0  0  0  0  0
   37.9770   22.7170   40.5760 C   0  0  0  0  0  3  0  0  0  0  0  0
   38.4500   22.7930   39.2380 C   0  0  0  0  0  3  0  0  0  0  0  0
   38.4780   24.5980   38.9100 S   0  0  0  0  0  0  0  0  0  0  0  0
   41.4740   34.4440   40.0800 C   0  0  0  0  0  0  0  0  0  0  0  0
   42.6170   35.0720   40.5640 F   0  0  0  0  0  0  0  0  0  0  0  0
   40.4090   35.0990   40.7000 F   0  0  0  0  0  0  0  0  0  0  0  0
   41.4530   34.5650   38.7160 F   0  0  0  0  0  0  0  0  0  0  0  0
  1  9  1  0  0  0  0
  1  6  1  0  0  0  0
  2  1  2  0  0  0  0
  3  2  1  0  0  0  0
  3  4  2  0  0  0  0
  4  5  1  0  0  0  0
  5  6  2  0  0  0  0
  5 16  1  0  0  0  0
  7  9  1  0  0  0  0
  8  7  2  0  0  0  0
  9 17  1  0  0  0  0
 10  7  1  0  0  0  0
 10 14  1  0  0  0  0
 11 12  1  0  0  0  0
 11 10  1  0  0  0  0
 12 13  1  0  0  0  0
 13 23  1  0  0  0  0
 13 14  1  0  0  0  0
 13 22  1  0  0  0  0
 14 24  1  1  0  0  0
 15  2  1  0  0  0  0
 18 11  1  0  0  0  0
 19 11  1  0  0  0  0
 20 12  1  0  0  0  0
 21 12  1  0  0  0  0
 25 26  2  0  0  0  0
 27 14  1  0  0  0  0
 27 25  1  0  0  0  0
 28 27  1  0  0  0  0
 29 25  1  0  0  0  0
 29 30  2  0  0  0  0
 30 31  1  0  0  0  0
 32 30  1  0  0  0  0
 33 32  2  0  0  0  0
 34 33  1  0  0  0  0
 34 29  1  0  0  0  0
 35  3  1  0  0  0  0
 35 36  1  0  0  0  0
 35 37  1  0  0  0  0
 38 35  1  0  0  0  0
M  END
>  <minimizedAffinity>
-5.34861469

$$$$

 OpenBabel03252503333D

 38 40  0  0  1  0  0  0  0  0999 V2000
   37.3490   30.9690   40.2270 C   0  0  0  0  0  0  0  0  0  0  0  0
   37.4660   32.3650   39.9550 C   0  0  0  0  0  0  0  0  0  0  0  0
   38.5610   33.0200   40.5420 C   0  0  0  0  0  0  0  0  0  0  0  0
   39.3980   32.2950   41.3010 N   0  0  0  0  0  0  0  0  0  0  0  0
   39.2430   30.9680   41.5280 C   0  0  0  0  0  0  0  0  0  0  0  0
   38.2030   30.3100   40.9790 N   0  0  0  0  0  0  0  0  0  0  0  0
   36.4510   29.9870   38.2940 C   0  0  0  0  0  0  0  0  0  0  0  0
   37.4930   30.4570   37.7250 O   0  0  0  0  0  0  0  0  0  0  0  0
   36.2550   30.2390   39.6570 N   0  0  0  0  0  0  0  0  0  0  0  0
   35.5580   29.2350   37.4890 N   0  0  0  0  0  0  0  0  0  0  0  0
   35.6760   29.2970   36.0200 C   0  0  0  0  0  0  0  0  0  0  0  0
   34.2590   29.1010   35.5790 C   0  0  0  0  0  0  0  0  0  0  0  0
   33.4650   28.8350   36.8250 C   0  0  0  0  0  0  0  0  0  0  0  0
   34.4890   28.3350   37.8160 C   0  0  1  0  0  0  0  0  0  0  0  0
   36.7290   32.8170   39.3360 H   0  0  0  0  0  0  0  0  0  0  0  0
   39.9510   30.4290   42.1500 H   0  0  0  0  0  0  0  0  0  0  0  0
   35.3990   29.8990   40.1000 H   0  0  0  0  0  0  0  0  0  0  0  0
   36.1250   30.2290   35.6710 H   0  0  0  0  0  0  0  0  0  0  0  0
   36.2840   28.4100   35.7430 H   0  0  0  0  0  0  0  0  0  0  0  0
   34.1370   28.2570   34.8400 H   0  0  0  0  0  0  0  0  0  0  0  0
   33.9330   30.0100   35.0400 H   0  0  0  0  0  0  0  0  0  0  0  0
   32.4910   28.4770   36.7710 H   0  0  0  0  0  0  0  0  0  0  0  0
   33.3170   29.9020   37.2210 H   0  0  0  0  0  0  0  0  0  0  0  0
   33.9800   28.4120   38.7740 H   0  0  0  0  0  0  0  0  0  0  0  0
   35.8980   26.2810   38.4470 C   0  0  0  0  0  0  0  0  0  0  0  0
   36.0650   26.9080   39.5130 O   0  0  0  0  0  0  0  0  0  0  0  0
   34.9290   26.9640   37.6100 N   0  0  0  0  0  0  0  0  0  0  0  0
   34.4830   26.4670   36.7750 H   0  0  0  0  0  0  0  0  0  0  0  0
   36.4070   25.1260   37.8990 C   0  0  0  0  0  0  0  0  0  0  0  0
   35.9580   23.7210   38.2820 C   0  0  0  0  0  0  0  0  0  0  0  0
   35.1950   23.6410   39.0290 H   0  0  0  0  0  0  0  0  0  0  0  0
   36.5740   22.7020   37.6350 C   0  0  0  0  0  3  0  0  0  0  0  0
   37.5810   22.9110   36.6540 C   0  0  0  0  0  3  0  0  0  0  0  0
   37.7230   24.7400   36.5890 S   0  0  0  0  0  0  0  0  0  0  0  0
   38.6570   34.4440   40.2510 C   0  0  0  0  0  0  0  0  0  0  0  0
   39.7950   34.6630   39.4830 F   0  0  0  0  0  0  0  0  0  0  0  0
   38.9000   35.0980   41.4590 F   0  0  0  0  0  0  0  0  0  0  0  0
   37.5740   34.9480   39.5810 F   0  0  0  0  0  0  0  0  0  0  0  0
  1  6  1  0  0  0  0
  2  1  2  0  0  0  0
  2  3  1  0  0  0  0
  3  4  2  0  0  0  0
  4  5  1  0  0  0  0
  5 16  1  0  0  0  0
  6  5  2  0  0  0  0
  7  9  1  0  0  0  0
  8  7  2  0  0  0  0
  9 17  1  0  0  0  0
  9  1  1  0  0  0  0
 10 14  1  0  0  0  0
 10  7  1  0  0  0  0
 11 10  1  0  0  0  0
 12 11  1  0  0  0  0
 12 13  1  0  0  0  0
 13 23  1  0  0  0  0
 13 14  1  0  0  0  0
 14 24  1  1  0  0  0
 15  2  1  0  0  0  0
 18 11  1  0  0  0  0
 19 11  1  0  0  0  0
 20 12  1  0  0  0  0
 21 12  1  0  0  0  0
 22 13  1  0  0  0  0
 25 26  2  0  0  0  0
 27 14  1  0  0  0  0
 27 25  1  0  0  0  0
 28 27  1  0  0  0  0
 29 30  2  0  0  0  0
 29 25  1  0  0  0  0
 30 31  1  0  0  0  0
 32 30  1  0  0  0  0
 33 32  2  0  0  0  0
 34 33  1  0  0  0  0
 34 29  1  0  0  0  0
 35  3  1  0  0  0  0
 35 37  1  0  0  0  0
 36 35  1  0  0  0  0
 38 35  1  0  0  0  0
M  END
>  <minimizedAffinity>
-5.34815788

$$$$
