
 OpenBabel03242510243D

 35 38  0  0  1  0  0  0  0  0999 V2000
   37.6350   29.7820   39.8560 N   0  0  0  0  0  0  0  0  0  0  0  0
   36.9960   29.8510   41.0910 C   0  0  0  0  0  0  0  0  0  0  0  0
   36.1640   30.6840   41.5380 O   0  0  0  0  0  0  0  0  0  0  0  0
   38.6590   29.5230   39.9700 H   0  0  0  0  0  0  0  0  0  0  0  0
   37.3200   31.2970   37.9310 C   0  0  1  0  0  0  0  0  0  0  0  0
   37.9590   30.1590   37.4260 C   0  0  0  0  0  0  0  0  0  0  0  0
   36.9710   30.0360   38.6260 C   0  0  1  0  0  0  0  0  0  0  0  0
   36.5290   31.8500   37.3710 H   0  0  0  0  0  0  0  0  0  0  0  0
   37.5570   29.6900   36.4760 H   0  0  0  0  0  0  0  0  0  0  0  0
   38.9880   29.7920   37.6030 H   0  0  0  0  0  0  0  0  0  0  0  0
   36.1010   29.3970   38.3900 H   0  0  0  0  0  0  0  0  0  0  0  0
   37.5720   33.2700   39.6120 C   0  0  0  0  0  0  0  0  0  0  0  0
   38.1610   32.2920   38.7420 C   0  0  0  0  0  0  0  0  0  0  0  0
   39.5400   32.2830   38.6330 C   0  0  0  0  0  0  0  0  0  0  0  0
   40.2590   33.1820   39.3390 N   0  0  0  0  0  0  0  0  0  0  0  0
   39.6840   34.1060   40.1610 C   0  0  0  0  0  0  0  0  0  0  0  0
   38.2940   34.1410   40.2930 N   0  0  0  0  0  0  0  0  0  0  0  0
   36.5050   33.2520   39.7060 H   0  0  0  0  0  0  0  0  0  0  0  0
   40.0160   31.5590   37.9870 H   0  0  0  0  0  0  0  0  0  0  0  0
   40.3950   34.7490   40.6500 H   0  0  0  0  0  0  0  0  0  0  0  0
   37.2810   28.7870   42.1350 C   0  0  2  0  0  0  0  0  0  0  0  0
   38.2530   29.1920   43.3010 C   0  0  0  0  0  0  0  0  0  0  0  0
   38.6120   28.1840   42.2660 C   0  0  1  0  0  0  0  0  0  0  0  0
   36.4120   28.2500   42.5660 H   0  0  0  0  0  0  0  0  0  0  0  0
   37.9950   28.9040   44.3140 H   0  0  0  0  0  0  0  0  0  0  0  0
   38.6660   30.2170   43.2140 H   0  0  0  0  0  0  0  0  0  0  0  0
   39.3400   28.4350   41.4520 H   0  0  0  0  0  0  0  0  0  0  0  0
   38.6780   26.7370   42.6890 C   0  0  0  0  0  0  0  0  0  0  0  0
   39.3030   26.4020   43.6800 O   0  0  0  0  0  0  0  0  0  0  0  0
   37.9450   25.7130   41.8470 C   0  0  0  0  0  0  0  0  0  0  0  0
   37.0170   24.8120   42.0680 C   0  0  0  0  0  0  0  0  0  0  0  0
   36.6890   24.7870   43.0960 H   0  0  0  0  0  0  0  0  0  0  0  0
   36.5690   24.0320   41.0440 C   0  0  0  0  0  3  0  0  0  0  0  0
   37.2150   24.3060   39.7440 C   0  0  0  0  0  3  0  0  0  0  0  0
   38.4150   25.6990   40.2090 S   0  0  0  0  0  0  0  0  0  0  0  0
  1  4  1  0  0  0  0
  1  2  1  0  0  0  0
  2  3  2  0  0  0  0
  2 21  1  0  0  0  0
  5  8  1  6  0  0  0
  5  7  1  0  0  0  0
  5 13  1  0  0  0  0
  6 10  1  0  0  0  0
  6  5  1  0  0  0  0
  6  7  1  0  0  0  0
  7 11  1  6  0  0  0
  7  1  1  0  0  0  0
  9  6  1  0  0  0  0
 12 18  1  0  0  0  0
 12 17  1  0  0  0  0
 13 12  2  0  0  0  0
 14 13  1  0  0  0  0
 14 15  2  0  0  0  0
 15 16  1  0  0  0  0
 16 17  2  0  0  0  0
 16 20  1  0  0  0  0
 19 14  1  0  0  0  0
 21 23  1  0  0  0  0
 21 24  1  1  0  0  0
 21 22  1  0  0  0  0
 22 25  1  0  0  0  0
 23 27  1  6  0  0  0
 23 28  1  0  0  0  0
 23 22  1  0  0  0  0
 26 22  1  0  0  0  0
 28 29  2  0  0  0  0
 30 31  2  0  0  0  0
 30 28  1  0  0  0  0
 31 32  1  0  0  0  0
 33 31  1  0  0  0  0
 34 35  1  0  0  0  0
 34 33  2  0  0  0  0
 35 30  1  0  0  0  0
M  END
>  <minimizedAffinity>
-5.36180449

$$$$

 OpenBabel03242510243D

 35 38  0  0  1  0  0  0  0  0999 V2000
   39.4490   31.4840   39.8690 N   0  0  0  0  0  0  0  0  0  0  0  0
   40.1350   31.6470   41.0700 C   0  0  0  0  0  0  0  0  0  0  0  0
   40.9390   32.5420   41.4390 O   0  0  0  0  0  0  0  0  0  0  0  0
   39.4590   30.4680   39.5580 H   0  0  0  0  0  0  0  0  0  0  0  0
   37.3670   32.4690   38.9760 C   0  0  1  0  0  0  0  0  0  0  0  0
   37.7570   33.2910   40.0400 C   0  0  0  0  0  0  0  0  0  0  0  0
   38.8320   32.5610   39.1780 C   0  0  1  0  0  0  0  0  0  0  0  0
   36.9190   32.8640   38.0350 H   0  0  0  0  0  0  0  0  0  0  0  0
   37.7560   34.4130   39.8850 H   0  0  0  0  0  0  0  0  0  0  0  0
   37.7760   33.0750   41.1250 H   0  0  0  0  0  0  0  0  0  0  0  0
   39.5040   33.2680   38.6580 H   0  0  0  0  0  0  0  0  0  0  0  0
   36.3090   30.7670   40.6390 C   0  0  0  0  0  0  0  0  0  0  0  0
   36.7350   31.1110   39.3120 C   0  0  0  0  0  0  0  0  0  0  0  0
   36.5780   30.1570   38.3240 C   0  0  0  0  0  0  0  0  0  0  0  0
   36.0400   28.9610   38.6460 N   0  0  0  0  0  0  0  0  0  0  0  0
   35.6410   28.6490   39.9130 C   0  0  0  0  0  0  0  0  0  0  0  0
   35.7860   29.5910   40.9340 N   0  0  0  0  0  0  0  0  0  0  0  0
   36.4140   31.5230   41.3910 H   0  0  0  0  0  0  0  0  0  0  0  0
   36.8880   30.3840   37.3130 H   0  0  0  0  0  0  0  0  0  0  0  0
   35.2340   27.6560   40.0030 H   0  0  0  0  0  0  0  0  0  0  0  0
   39.9420   30.6290   42.1790 C   0  0  2  0  0  0  0  0  0  0  0  0
   41.0830   29.5650   42.3600 C   0  0  0  0  0  0  0  0  0  0  0  0
   39.7180   29.2100   41.8830 C   0  0  1  0  0  0  0  0  0  0  0  0
   39.6520   31.0130   43.1780 H   0  0  0  0  0  0  0  0  0  0  0  0
   41.4170   29.3280   43.3640 H   0  0  0  0  0  0  0  0  0  0  0  0
   41.9040   29.6470   41.6190 H   0  0  0  0  0  0  0  0  0  0  0  0
   39.5360   28.9630   40.8040 H   0  0  0  0  0  0  0  0  0  0  0  0
   38.8250   28.4390   42.8230 C   0  0  0  0  0  0  0  0  0  0  0  0
   38.0150   29.0140   43.5290 O   0  0  0  0  0  0  0  0  0  0  0  0
   38.9620   26.9310   42.8630 C   0  0  0  0  0  0  0  0  0  0  0  0
   39.8070   26.0840   43.4010 C   0  0  0  0  0  0  0  0  0  0  0  0
   40.6000   26.5690   43.9490 H   0  0  0  0  0  0  0  0  0  0  0  0
   39.6240   24.7430   43.2350 C   0  0  0  0  0  3  0  0  0  0  0  0
   38.4380   24.3870   42.4290 C   0  0  0  0  0  3  0  0  0  0  0  0
   37.7390   26.1010   42.0170 S   0  0  0  0  0  0  0  0  0  0  0  0
  1  2  1  0  0  0  0
  2  3  2  0  0  0  0
  2 21  1  0  0  0  0
  4  1  1  0  0  0  0
  5  8  1  6  0  0  0
  5  7  1  0  0  0  0
  5 13  1  0  0  0  0
  5  6  1  0  0  0  0
  6 10  1  0  0  0  0
  7 11  1  6  0  0  0
  7  1  1  0  0  0  0
  7  6  1  0  0  0  0
  9  6  1  0  0  0  0
 12 17  1  0  0  0  0
 12 18  1  0  0  0  0
 13 12  2  0  0  0  0
 14 15  2  0  0  0  0
 14 13  1  0  0  0  0
 15 16  1  0  0  0  0
 16 20  1  0  0  0  0
 16 17  2  0  0  0  0
 19 14  1  0  0  0  0
 21 22  1  0  0  0  0
 21 24  1  1  0  0  0
 22 25  1  0  0  0  0
 23 27  1  6  0  0  0
 23 21  1  0  0  0  0
 23 22  1  0  0  0  0
 23 28  1  0  0  0  0
 26 22  1  0  0  0  0
 28 30  1  0  0  0  0
 28 29  2  0  0  0  0
 30 31  2  0  0  0  0
 31 32  1  0  0  0  0
 33 31  1  0  0  0  0
 34 33  2  0  0  0  0
 35 34  1  0  0  0  0
 35 30  1  0  0  0  0
M  END
>  <minimizedAffinity>
-5.16378975

$$$$

 OpenBabel03242510243D

 35 38  0  0  1  0  0  0  0  0999 V2000
   37.0850   31.9230   40.7520 N   0  0  0  0  0  0  0  0  0  0  0  0
   36.4580   30.7070   41.0090 C   0  0  0  0  0  0  0  0  0  0  0  0
   35.3190   30.2870   40.6760 O   0  0  0  0  0  0  0  0  0  0  0  0
   37.5940   32.2800   41.6140 H   0  0  0  0  0  0  0  0  0  0  0  0
   38.2870   32.6350   38.7150 C   0  0  1  0  0  0  0  0  0  0  0  0
   37.4030   31.6290   38.3100 C   0  0  0  0  0  0  0  0  0  0  0  0
   37.0260   32.5740   39.4900 C   0  0  1  0  0  0  0  0  0  0  0  0
   38.5070   33.5370   38.0980 H   0  0  0  0  0  0  0  0  0  0  0  0
   36.7710   31.8050   37.3870 H   0  0  0  0  0  0  0  0  0  0  0  0
   37.4160   30.5460   38.5380 H   0  0  0  0  0  0  0  0  0  0  0  0
   36.1190   33.1680   39.2810 H   0  0  0  0  0  0  0  0  0  0  0  0
   40.1630   33.0420   40.4760 C   0  0  0  0  0  0  0  0  0  0  0  0
   39.5540   32.2140   39.4740 C   0  0  0  0  0  0  0  0  0  0  0  0
   40.1660   31.0090   39.1840 C   0  0  0  0  0  0  0  0  0  0  0  0
   41.2920   30.6690   39.8470 N   0  0  0  0  0  0  0  0  0  0  0  0
   41.8590   31.4670   40.7960 C   0  0  0  0  0  0  0  0  0  0  0  0
   41.2650   32.6910   41.1120 N   0  0  0  0  0  0  0  0  0  0  0  0
   39.6670   33.9630   40.7080 H   0  0  0  0  0  0  0  0  0  0  0  0
   39.7330   30.3610   38.4340 H   0  0  0  0  0  0  0  0  0  0  0  0
   42.7530   31.0520   41.2290 H   0  0  0  0  0  0  0  0  0  0  0  0
   37.1910   29.6470   41.8100 C   0  0  2  0  0  0  0  0  0  0  0  0
   38.2580   28.7960   41.0340 C   0  0  0  0  0  0  0  0  0  0  0  0
   36.9870   28.2180   41.5520 C   0  0  1  0  0  0  0  0  0  0  0  0
   37.6210   29.9530   42.7860 H   0  0  0  0  0  0  0  0  0  0  0  0
   39.2120   28.5990   41.5110 H   0  0  0  0  0  0  0  0  0  0  0  0
   38.3350   29.0360   39.9540 H   0  0  0  0  0  0  0  0  0  0  0  0
   36.1470   27.9670   40.8530 H   0  0  0  0  0  0  0  0  0  0  0  0
   37.0720   27.2820   42.7320 C   0  0  0  0  0  0  0  0  0  0  0  0
   36.3140   27.3990   43.6790 O   0  0  0  0  0  0  0  0  0  0  0  0
   38.1260   26.1940   42.7070 C   0  0  0  0  0  0  0  0  0  0  0  0
   38.2570   25.0340   42.1100 C   0  0  0  0  0  0  0  0  0  0  0  0
   37.4160   24.7840   41.4820 H   0  0  0  0  0  0  0  0  0  0  0  0
   39.3770   24.2850   42.3170 C   0  0  0  0  0  3  0  0  0  0  0  0
   40.3570   24.9000   43.2360 C   0  0  0  0  0  3  0  0  0  0  0  0
   39.4860   26.5250   43.6790 S   0  0  0  0  0  0  0  0  0  0  0  0
  1  2  1  0  0  0  0
  1  4  1  0  0  0  0
  2 21  1  0  0  0  0
  3  2  2  0  0  0  0
  5  8  1  6  0  0  0
  5 13  1  0  0  0  0
  5  7  1  0  0  0  0
  6 10  1  0  0  0  0
  6  5  1  0  0  0  0
  6  7  1  0  0  0  0
  7 11  1  6  0  0  0
  7  1  1  0  0  0  0
  9  6  1  0  0  0  0
 12 18  1  0  0  0  0
 12 17  1  0  0  0  0
 13 12  2  0  0  0  0
 14 13  1  0  0  0  0
 14 15  2  0  0  0  0
 15 16  1  0  0  0  0
 16 17  2  0  0  0  0
 16 20  1  0  0  0  0
 19 14  1  0  0  0  0
 21 24  1  1  0  0  0
 22 25  1  0  0  0  0
 22 23  1  0  0  0  0
 22 21  1  0  0  0  0
 23 27  1  6  0  0  0
 23 21  1  0  0  0  0
 23 28  1  0  0  0  0
 26 22  1  0  0  0  0
 28 29  2  0  0  0  0
 30 28  1  0  0  0  0
 30 35  1  0  0  0  0
 31 33  1  0  0  0  0
 31 30  2  0  0  0  0
 32 31  1  0  0  0  0
 33 34  2  0  0  0  0
 34 35  1  0  0  0  0
M  END
>  <minimizedAffinity>
-5.02660036

$$$$

 OpenBabel03242510243D

 35 38  0  0  1  0  0  0  0  0999 V2000
   36.9670   28.8410   41.4110 N   0  0  0  0  0  0  0  0  0  0  0  0
   35.9800   29.4820   40.6670 C   0  0  0  0  0  0  0  0  0  0  0  0
   34.7990   29.1340   40.4020 O   0  0  0  0  0  0  0  0  0  0  0  0
   37.9130   28.9160   40.9330 H   0  0  0  0  0  0  0  0  0  0  0  0
   37.2250   26.8020   42.7790 C   0  0  1  0  0  0  0  0  0  0  0  0
   38.0080   27.7830   43.3980 C   0  0  0  0  0  0  0  0  0  0  0  0
   36.7050   28.1820   42.6410 C   0  0  1  0  0  0  0  0  0  0  0  0
   36.6320   26.0480   43.3490 H   0  0  0  0  0  0  0  0  0  0  0  0
   37.9220   27.9150   44.5200 H   0  0  0  0  0  0  0  0  0  0  0  0
   38.9410   28.2640   43.0470 H   0  0  0  0  0  0  0  0  0  0  0  0
   35.9580   28.6520   43.3070 H   0  0  0  0  0  0  0  0  0  0  0  0
   36.9020   25.5460   40.5200 C   0  0  0  0  0  0  0  0  0  0  0  0
   37.7620   26.1620   41.4910 C   0  0  0  0  0  0  0  0  0  0  0  0
   39.1220   26.1440   41.2420 C   0  0  0  0  0  0  0  0  0  0  0  0
   39.5740   25.5560   40.1140 N   0  0  0  0  0  0  0  0  0  0  0  0
   38.7440   24.9750   39.2010 C   0  0  0  0  0  0  0  0  0  0  0  0
   37.3650   24.9760   39.4230 N   0  0  0  0  0  0  0  0  0  0  0  0
   35.8490   25.5880   40.7130 H   0  0  0  0  0  0  0  0  0  0  0  0
   39.7970   26.5990   41.9530 H   0  0  0  0  0  0  0  0  0  0  0  0
   39.2610   24.5500   38.3580 H   0  0  0  0  0  0  0  0  0  0  0  0
   36.2810   30.8290   40.0360 C   0  0  2  0  0  0  0  0  0  0  0  0
   36.8290   30.8070   38.5640 C   0  0  0  0  0  0  0  0  0  0  0  0
   37.6560   31.2360   39.7260 C   0  0  1  0  0  0  0  0  0  0  0  0
   35.5020   31.6140   40.1140 H   0  0  0  0  0  0  0  0  0  0  0  0
   36.4310   31.5200   37.8520 H   0  0  0  0  0  0  0  0  0  0  0  0
   36.9780   29.7890   38.1490 H   0  0  0  0  0  0  0  0  0  0  0  0
   38.4610   30.5700   40.1310 H   0  0  0  0  0  0  0  0  0  0  0  0
   37.9880   32.7030   39.8470 C   0  0  0  0  0  0  0  0  0  0  0  0
   37.1260   33.5520   39.7090 O   0  0  0  0  0  0  0  0  0  0  0  0
   39.4220   33.0880   40.1440 C   0  0  0  0  0  0  0  0  0  0  0  0
   40.1710   34.1430   39.9270 C   0  0  0  0  0  0  0  0  0  0  0  0
   39.6470   34.9340   39.4110 H   0  0  0  0  0  0  0  0  0  0  0  0
   41.4680   34.1550   40.3450 C   0  0  0  0  0  3  0  0  0  0  0  0
   41.8980   32.9150   41.0260 C   0  0  0  0  0  3  0  0  0  0  0  0
   40.3080   31.8830   40.9590 S   0  0  0  0  0  0  0  0  0  0  0  0
  1  7  1  0  0  0  0
  2  1  1  0  0  0  0
  3  2  2  0  0  0  0
  4  1  1  0  0  0  0
  5  8  1  1  0  0  0
  5  6  1  0  0  0  0
  6  9  1  0  0  0  0
  7  5  1  0  0  0  0
  7 11  1  1  0  0  0
  7  6  1  0  0  0  0
 10  6  1  0  0  0  0
 12 18  1  0  0  0  0
 12 13  1  0  0  0  0
 13  5  1  0  0  0  0
 14 13  2  0  0  0  0
 14 19  1  0  0  0  0
 15 14  1  0  0  0  0
 16 17  1  0  0  0  0
 16 15  2  0  0  0  0
 17 12  2  0  0  0  0
 20 16  1  0  0  0  0
 21 24  1  1  0  0  0
 21  2  1  0  0  0  0
 22 23  1  0  0  0  0
 22 21  1  0  0  0  0
 23 28  1  0  0  0  0
 23 21  1  0  0  0  0
 23 27  1  1  0  0  0
 25 22  1  0  0  0  0
 26 22  1  0  0  0  0
 28 30  1  0  0  0  0
 29 28  2  0  0  0  0
 30 35  1  0  0  0  0
 31 30  2  0  0  0  0
 31 33  1  0  0  0  0
 32 31  1  0  0  0  0
 33 34  2  0  0  0  0
 35 34  1  0  0  0  0
M  END
>  <minimizedAffinity>
-4.9986105

$$$$

 OpenBabel03242510243D

 35 38  0  0  1  0  0  0  0  0999 V2000
   37.4370   28.8800   41.4050 N   0  0  0  0  0  0  0  0  0  0  0  0
   38.0530   28.7400   42.6460 C   0  0  0  0  0  0  0  0  0  0  0  0
   38.3680   29.6040   43.5060 O   0  0  0  0  0  0  0  0  0  0  0  0
   37.9000   28.2590   40.6770 H   0  0  0  0  0  0  0  0  0  0  0  0
   36.6050   30.9570   40.3600 C   0  0  1  0  0  0  0  0  0  0  0  0
   35.9950   29.9050   39.6670 C   0  0  0  0  0  0  0  0  0  0  0  0
   36.3390   29.7520   41.1790 C   0  0  1  0  0  0  0  0  0  0  0  0
   36.0800   31.9100   40.6020 H   0  0  0  0  0  0  0  0  0  0  0  0
   34.8810   29.9590   39.4720 H   0  0  0  0  0  0  0  0  0  0  0  0
   36.4450   29.1550   38.9870 H   0  0  0  0  0  0  0  0  0  0  0  0
   35.4400   29.5880   41.8010 H   0  0  0  0  0  0  0  0  0  0  0  0
   38.7600   30.7190   38.9160 C   0  0  0  0  0  0  0  0  0  0  0  0
   38.0840   31.2480   40.0670 C   0  0  0  0  0  0  0  0  0  0  0  0
   38.8220   32.0260   40.9390 C   0  0  0  0  0  0  0  0  0  0  0  0
   40.1270   32.2510   40.6740 N   0  0  0  0  0  0  0  0  0  0  0  0
   40.7550   31.7410   39.5760 C   0  0  0  0  0  0  0  0  0  0  0  0
   40.0370   30.9510   38.6750 N   0  0  0  0  0  0  0  0  0  0  0  0
   38.1710   30.1370   38.2360 H   0  0  0  0  0  0  0  0  0  0  0  0
   38.3430   32.4410   41.8160 H   0  0  0  0  0  0  0  0  0  0  0  0
   41.7950   32.0120   39.5100 H   0  0  0  0  0  0  0  0  0  0  0  0
   38.4420   27.3550   43.1310 C   0  0  2  0  0  0  0  0  0  0  0  0
   39.9660   27.1180   43.4260 C   0  0  0  0  0  0  0  0  0  0  0  0
   39.2500   26.4550   42.3010 C   0  0  1  0  0  0  0  0  0  0  0  0
   37.8470   26.9200   43.9590 H   0  0  0  0  0  0  0  0  0  0  0  0
   40.2420   26.5780   44.3240 H   0  0  0  0  0  0  0  0  0  0  0  0
   40.6140   27.9910   43.2060 H   0  0  0  0  0  0  0  0  0  0  0  0
   39.4140   26.7880   41.2440 H   0  0  0  0  0  0  0  0  0  0  0  0
   38.9780   24.9760   42.4180 C   0  0  0  0  0  0  0  0  0  0  0  0
   39.5530   24.2980   43.2510 O   0  0  0  0  0  0  0  0  0  0  0  0
   37.9710   24.3570   41.4690 C   0  0  0  0  0  0  0  0  0  0  0  0
   36.6630   24.3380   41.3770 C   0  0  0  0  0  0  0  0  0  0  0  0
   36.1760   24.8950   42.1640 H   0  0  0  0  0  0  0  0  0  0  0  0
   36.0620   23.6600   40.3590 C   0  0  0  0  0  3  0  0  0  0  0  0
   37.0040   22.9940   39.4350 C   0  0  0  0  0  3  0  0  0  0  0  0
   38.6740   23.4630   40.2010 S   0  0  0  0  0  0  0  0  0  0  0  0
  1  2  1  0  0  0  0
  2 21  1  0  0  0  0
  2  3  2  0  0  0  0
  4  1  1  0  0  0  0
  5  8  1  1  0  0  0
  5  7  1  0  0  0  0
  6  5  1  0  0  0  0
  6  7  1  0  0  0  0
  7  1  1  0  0  0  0
  7 11  1  1  0  0  0
  9  6  1  0  0  0  0
 10  6  1  0  0  0  0
 12 13  1  0  0  0  0
 13  5  1  0  0  0  0
 13 14  2  0  0  0  0
 14 19  1  0  0  0  0
 15 14  1  0  0  0  0
 16 15  2  0  0  0  0
 17 12  2  0  0  0  0
 17 16  1  0  0  0  0
 18 12  1  0  0  0  0
 20 16  1  0  0  0  0
 21 22  1  0  0  0  0
 21 24  1  1  0  0  0
 22 25  1  0  0  0  0
 23 27  1  6  0  0  0
 23 28  1  0  0  0  0
 23 21  1  0  0  0  0
 23 22  1  0  0  0  0
 26 22  1  0  0  0  0
 28 29  2  0  0  0  0
 30 28  1  0  0  0  0
 31 30  2  0  0  0  0
 31 32  1  0  0  0  0
 33 31  1  0  0  0  0
 34 35  1  0  0  0  0
 34 33  2  0  0  0  0
 35 30  1  0  0  0  0
M  END
>  <minimizedAffinity>
-4.97380829

$$$$

 OpenBabel03242510243D

 35 38  0  0  1  0  0  0  0  0999 V2000
   37.0700   29.4340   39.5960 N   0  0  0  0  0  0  0  0  0  0  0  0
   36.2170   28.8210   40.5090 C   0  0  0  0  0  0  0  0  0  0  0  0
   34.9870   28.9850   40.7180 O   0  0  0  0  0  0  0  0  0  0  0  0
   38.0050   29.6690   40.0450 H   0  0  0  0  0  0  0  0  0  0  0  0
   37.2980   30.9040   37.6240 C   0  0  1  0  0  0  0  0  0  0  0  0
   37.9260   29.7010   37.2830 C   0  0  0  0  0  0  0  0  0  0  0  0
   36.7030   29.7000   38.2500 C   0  0  1  0  0  0  0  0  0  0  0  0
   36.6930   31.5010   36.9020 H   0  0  0  0  0  0  0  0  0  0  0  0
   37.6920   29.2350   36.2780 H   0  0  0  0  0  0  0  0  0  0  0  0
   38.8600   29.2580   37.6790 H   0  0  0  0  0  0  0  0  0  0  0  0
   35.8480   29.1280   37.8460 H   0  0  0  0  0  0  0  0  0  0  0  0
   37.3480   32.8180   39.3910 C   0  0  0  0  0  0  0  0  0  0  0  0
   38.0350   31.8540   38.5800 C   0  0  0  0  0  0  0  0  0  0  0  0
   39.4150   31.8160   38.6640 C   0  0  0  0  0  0  0  0  0  0  0  0
   40.0440   32.6750   39.4940 N   0  0  0  0  0  0  0  0  0  0  0  0
   39.3760   33.5860   40.2580 C   0  0  0  0  0  0  0  0  0  0  0  0
   37.9820   33.6490   40.1960 N   0  0  0  0  0  0  0  0  0  0  0  0
   36.2780   32.8210   39.3340 H   0  0  0  0  0  0  0  0  0  0  0  0
   39.9640   31.1020   38.0660 H   0  0  0  0  0  0  0  0  0  0  0  0
   40.0240   34.1970   40.8640 H   0  0  0  0  0  0  0  0  0  0  0  0
   36.7690   27.7600   41.4440 C   0  0  2  0  0  0  0  0  0  0  0  0
   36.9400   28.1740   42.9490 C   0  0  0  0  0  0  0  0  0  0  0  0
   38.0960   27.8960   42.0540 C   0  0  1  0  0  0  0  0  0  0  0  0
   36.3060   26.7530   41.4020 H   0  0  0  0  0  0  0  0  0  0  0  0
   36.6310   27.4740   43.7180 H   0  0  0  0  0  0  0  0  0  0  0  0
   36.6730   29.2290   43.1650 H   0  0  0  0  0  0  0  0  0  0  0  0
   38.7270   28.7330   41.6580 H   0  0  0  0  0  0  0  0  0  0  0  0
   38.8800   26.6290   42.2930 C   0  0  0  0  0  0  0  0  0  0  0  0
   38.3940   25.5380   42.0560 O   0  0  0  0  0  0  0  0  0  0  0  0
   40.2890   26.7530   42.8370 C   0  0  0  0  0  0  0  0  0  0  0  0
   41.0550   27.7420   43.2300 C   0  0  0  0  0  0  0  0  0  0  0  0
   40.5760   28.7060   43.1500 H   0  0  0  0  0  0  0  0  0  0  0  0
   42.3170   27.4880   43.6800 C   0  0  0  0  0  3  0  0  0  0  0  0
   42.6880   26.0580   43.6700 C   0  0  0  0  0  3  0  0  0  0  0  0
   41.1050   25.2660   42.9890 S   0  0  0  0  0  0  0  0  0  0  0  0
  1  4  1  0  0  0  0
  1  2  1  0  0  0  0
  2  3  2  0  0  0  0
  2 21  1  0  0  0  0
  5  8  1  6  0  0  0
  5  7  1  0  0  0  0
  5 13  1  0  0  0  0
  6  5  1  0  0  0  0
  6 10  1  0  0  0  0
  6  7  1  0  0  0  0
  7 11  1  6  0  0  0
  7  1  1  0  0  0  0
  9  6  1  0  0  0  0
 12 17  1  0  0  0  0
 13 14  1  0  0  0  0
 13 12  2  0  0  0  0
 14 15  2  0  0  0  0
 15 16  1  0  0  0  0
 16 20  1  0  0  0  0
 17 16  2  0  0  0  0
 18 12  1  0  0  0  0
 19 14  1  0  0  0  0
 21 24  1  6  0  0  0
 21 23  1  0  0  0  0
 21 22  1  0  0  0  0
 22 26  1  0  0  0  0
 22 25  1  0  0  0  0
 23 27  1  6  0  0  0
 23 28  1  0  0  0  0
 23 22  1  0  0  0  0
 28 30  1  0  0  0  0
 29 28  2  0  0  0  0
 30 35  1  0  0  0  0
 30 31  2  0  0  0  0
 31 33  1  0  0  0  0
 32 31  1  0  0  0  0
 34 33  2  0  0  0  0
 35 34  1  0  0  0  0
M  END
>  <minimizedAffinity>
-4.91284895

$$$$

 OpenBabel03242510243D

 35 38  0  0  1  0  0  0  0  0999 V2000
   37.7960   26.7400   41.1730 N   0  0  0  0  0  0  0  0  0  0  0  0
   36.9570   26.4380   40.1040 C   0  0  0  0  0  0  0  0  0  0  0  0
   36.3170   25.3880   39.8360 O   0  0  0  0  0  0  0  0  0  0  0  0
   38.6590   27.2660   40.8450 H   0  0  0  0  0  0  0  0  0  0  0  0
   37.9750   27.2960   43.5730 C   0  0  1  0  0  0  0  0  0  0  0  0
   36.6210   27.4290   43.2470 C   0  0  0  0  0  0  0  0  0  0  0  0
   37.5040   26.3730   42.5140 C   0  0  1  0  0  0  0  0  0  0  0  0
   38.3280   26.8780   44.5450 H   0  0  0  0  0  0  0  0  0  0  0  0
   35.8510   26.9590   43.9320 H   0  0  0  0  0  0  0  0  0  0  0  0
   36.1220   28.1780   42.6020 H   0  0  0  0  0  0  0  0  0  0  0  0
   37.1480   25.3400   42.6800 H   0  0  0  0  0  0  0  0  0  0  0  0
   38.4800   29.6980   42.7040 C   0  0  0  0  0  0  0  0  0  0  0  0
   38.9370   28.4000   43.1120 C   0  0  0  0  0  0  0  0  0  0  0  0
   40.2960   28.1560   43.0560 C   0  0  0  0  0  0  0  0  0  0  0  0
   41.1220   29.1340   42.6260 N   0  0  0  0  0  0  0  0  0  0  0  0
   40.6710   30.3630   42.2410 C   0  0  0  0  0  0  0  0  0  0  0  0
   39.3040   30.6420   42.2870 N   0  0  0  0  0  0  0  0  0  0  0  0
   37.4270   29.8830   42.7740 H   0  0  0  0  0  0  0  0  0  0  0  0
   40.6740   27.1880   43.3570 H   0  0  0  0  0  0  0  0  0  0  0  0
   41.4560   31.0280   41.9250 H   0  0  0  0  0  0  0  0  0  0  0  0
   36.7070   27.4880   39.0360 C   0  0  2  0  0  0  0  0  0  0  0  0
   37.7540   27.5620   37.8680 C   0  0  0  0  0  0  0  0  0  0  0  0
   37.5980   28.6430   38.8790 C   0  0  1  0  0  0  0  0  0  0  0  0
   35.6870   27.5430   38.6050 H   0  0  0  0  0  0  0  0  0  0  0  0
   37.3900   27.6720   36.8520 H   0  0  0  0  0  0  0  0  0  0  0  0
   38.6010   26.8530   37.9700 H   0  0  0  0  0  0  0  0  0  0  0  0
   38.3590   28.7820   39.6900 H   0  0  0  0  0  0  0  0  0  0  0  0
   36.9740   29.9410   38.4280 C   0  0  0  0  0  0  0  0  0  0  0  0
   36.0420   29.9480   37.6440 O   0  0  0  0  0  0  0  0  0  0  0  0
   37.5410   31.2340   38.9760 C   0  0  0  0  0  0  0  0  0  0  0  0
   37.0630   32.2530   39.6500 C   0  0  0  0  0  0  0  0  0  0  0  0
   36.0110   32.1560   39.8730 H   0  0  0  0  0  0  0  0  0  0  0  0
   37.8820   33.2860   39.9940 C   0  0  0  0  0  3  0  0  0  0  0  0
   39.2810   33.1280   39.5440 C   0  0  0  0  0  3  0  0  0  0  0  0
   39.2010   31.4520   38.6600 S   0  0  0  0  0  0  0  0  0  0  0  0
  1  7  1  0  0  0  0
  2  1  1  0  0  0  0
  3  2  2  0  0  0  0
  4  1  1  0  0  0  0
  5  8  1  1  0  0  0
  6  5  1  0  0  0  0
  6  9  1  0  0  0  0
  7 11  1  1  0  0  0
  7  6  1  0  0  0  0
  7  5  1  0  0  0  0
 10  6  1  0  0  0  0
 12 18  1  0  0  0  0
 12 13  1  0  0  0  0
 13  5  1  0  0  0  0
 14 13  2  0  0  0  0
 14 19  1  0  0  0  0
 15 14  1  0  0  0  0
 16 17  1  0  0  0  0
 16 15  2  0  0  0  0
 17 12  2  0  0  0  0
 20 16  1  0  0  0  0
 21 24  1  6  0  0  0
 21  2  1  0  0  0  0
 22 26  1  0  0  0  0
 22 23  1  0  0  0  0
 22 21  1  0  0  0  0
 23 21  1  0  0  0  0
 23 27  1  1  0  0  0
 25 22  1  0  0  0  0
 28 23  1  0  0  0  0
 28 30  1  0  0  0  0
 29 28  2  0  0  0  0
 30 31  2  0  0  0  0
 31 32  1  0  0  0  0
 31 33  1  0  0  0  0
 34 33  2  0  0  0  0
 35 30  1  0  0  0  0
 35 34  1  0  0  0  0
M  END
>  <minimizedAffinity>
-4.90339375

$$$$

 OpenBabel03242510243D

 35 38  0  0  1  0  0  0  0  0999 V2000
   37.8530   25.7500   39.9590 N   0  0  0  0  0  0  0  0  0  0  0  0
   36.6470   25.9570   39.2940 C   0  0  0  0  0  0  0  0  0  0  0  0
   35.8440   25.1360   38.7790 O   0  0  0  0  0  0  0  0  0  0  0  0
   38.5810   26.4630   39.6590 H   0  0  0  0  0  0  0  0  0  0  0  0
   38.1440   25.1090   42.3260 C   0  0  1  0  0  0  0  0  0  0  0  0
   36.8910   24.6160   41.9440 C   0  0  0  0  0  0  0  0  0  0  0  0
   38.0480   24.7070   40.9030 C   0  0  1  0  0  0  0  0  0  0  0  0
   38.8340   24.5550   43.0050 H   0  0  0  0  0  0  0  0  0  0  0  0
   36.6250   23.5490   42.2140 H   0  0  0  0  0  0  0  0  0  0  0  0
   35.9650   25.1680   41.6920 H   0  0  0  0  0  0  0  0  0  0  0  0
   38.3290   23.7170   40.4990 H   0  0  0  0  0  0  0  0  0  0  0  0
   39.5370   27.3000   42.5330 C   0  0  0  0  0  0  0  0  0  0  0  0
   38.2750   26.6170   42.5830 C   0  0  0  0  0  0  0  0  0  0  0  0
   37.1560   27.3650   42.8990 C   0  0  0  0  0  0  0  0  0  0  0  0
   37.2980   28.6850   43.1430 N   0  0  0  0  0  0  0  0  0  0  0  0
   38.5040   29.3200   43.0920 C   0  0  0  0  0  0  0  0  0  0  0  0
   39.6530   28.5920   42.7750 N   0  0  0  0  0  0  0  0  0  0  0  0
   40.3920   26.7140   42.2640 H   0  0  0  0  0  0  0  0  0  0  0  0
   36.1900   26.8810   42.9450 H   0  0  0  0  0  0  0  0  0  0  0  0
   38.4460   30.3720   43.3130 H   0  0  0  0  0  0  0  0  0  0  0  0
   36.1300   27.3730   39.1180 C   0  0  2  0  0  0  0  0  0  0  0  0
   36.6740   28.1690   37.8790 C   0  0  0  0  0  0  0  0  0  0  0  0
   37.0130   28.5330   39.2820 C   0  0  1  0  0  0  0  0  0  0  0  0
   35.0350   27.5270   39.1880 H   0  0  0  0  0  0  0  0  0  0  0  0
   35.9760   28.7520   37.2890 H   0  0  0  0  0  0  0  0  0  0  0  0
   37.4230   27.6160   37.2750 H   0  0  0  0  0  0  0  0  0  0  0  0
   38.0290   28.3140   39.7010 H   0  0  0  0  0  0  0  0  0  0  0  0
   36.4020   29.7930   39.8460 C   0  0  0  0  0  0  0  0  0  0  0  0
   35.2810   29.7850   40.3230 O   0  0  0  0  0  0  0  0  0  0  0  0
   37.2220   31.0660   39.8010 C   0  0  0  0  0  0  0  0  0  0  0  0
   36.9670   32.3470   39.9210 C   0  0  0  0  0  0  0  0  0  0  0  0
   35.9220   32.5550   40.0930 H   0  0  0  0  0  0  0  0  0  0  0  0
   37.9800   33.2540   39.8260 C   0  0  0  0  0  3  0  0  0  0  0  0
   39.3100   32.6570   39.5870 C   0  0  0  0  0  3  0  0  0  0  0  0
   38.8850   30.8090   39.5330 S   0  0  0  0  0  0  0  0  0  0  0  0
  1  7  1  0  0  0  0
  2  1  1  0  0  0  0
  3  2  2  0  0  0  0
  4  1  1  0  0  0  0
  5 13  1  0  0  0  0
  5  8  1  1  0  0  0
  6  9  1  0  0  0  0
  6  5  1  0  0  0  0
  7 11  1  6  0  0  0
  7  6  1  0  0  0  0
  7  5  1  0  0  0  0
 10  6  1  0  0  0  0
 12 13  2  0  0  0  0
 12 17  1  0  0  0  0
 13 14  1  0  0  0  0
 14 19  1  0  0  0  0
 14 15  2  0  0  0  0
 16 15  1  0  0  0  0
 16 20  1  0  0  0  0
 17 16  2  0  0  0  0
 18 12  1  0  0  0  0
 21 24  1  1  0  0  0
 21 23  1  0  0  0  0
 21  2  1  0  0  0  0
 22 21  1  0  0  0  0
 22 23  1  0  0  0  0
 23 27  1  1  0  0  0
 23 28  1  0  0  0  0
 25 22  1  0  0  0  0
 26 22  1  0  0  0  0
 28 29  2  0  0  0  0
 30 28  1  0  0  0  0
 30 31  2  0  0  0  0
 31 32  1  0  0  0  0
 33 31  1  0  0  0  0
 34 33  2  0  0  0  0
 35 34  1  0  0  0  0
 35 30  1  0  0  0  0
M  END
>  <minimizedAffinity>
-4.86508608

$$$$

 OpenBabel03242510243D

 35 38  0  0  1  0  0  0  0  0999 V2000
   37.8950   28.3040   41.1420 N   0  0  0  0  0  0  0  0  0  0  0  0
   36.6300   28.7620   40.7850 C   0  0  0  0  0  0  0  0  0  0  0  0
   35.5010   28.5300   41.2920 O   0  0  0  0  0  0  0  0  0  0  0  0
   38.4630   28.0440   40.2820 H   0  0  0  0  0  0  0  0  0  0  0  0
   38.6700   26.8500   42.9810 C   0  0  1  0  0  0  0  0  0  0  0  0
   39.7740   27.6270   42.6130 C   0  0  0  0  0  0  0  0  0  0  0  0
   38.3320   28.2050   42.4900 C   0  0  1  0  0  0  0  0  0  0  0  0
   38.4430   26.5780   44.0390 H   0  0  0  0  0  0  0  0  0  0  0  0
   40.3810   28.1270   43.4290 H   0  0  0  0  0  0  0  0  0  0  0  0
   40.3710   27.6050   41.6810 H   0  0  0  0  0  0  0  0  0  0  0  0
   38.1800   29.0960   43.1270 H   0  0  0  0  0  0  0  0  0  0  0  0
   39.1410   25.1780   41.0400 C   0  0  0  0  0  0  0  0  0  0  0  0
   38.2690   25.6890   42.0590 C   0  0  0  0  0  0  0  0  0  0  0  0
   37.0180   25.1120   42.1770 C   0  0  0  0  0  0  0  0  0  0  0  0
   36.6780   24.1080   41.3410 N   0  0  0  0  0  0  0  0  0  0  0  0
   37.5190   23.6340   40.3770 C   0  0  0  0  0  0  0  0  0  0  0  0
   38.7890   24.1950   40.2330 N   0  0  0  0  0  0  0  0  0  0  0  0
   40.1160   25.6180   40.9750 H   0  0  0  0  0  0  0  0  0  0  0  0
   36.3370   25.4730   42.9350 H   0  0  0  0  0  0  0  0  0  0  0  0
   37.0960   22.8330   39.7950 H   0  0  0  0  0  0  0  0  0  0  0  0
   36.4880   29.7080   39.6070 C   0  0  2  0  0  0  0  0  0  0  0  0
   36.3200   29.0460   38.1930 C   0  0  0  0  0  0  0  0  0  0  0  0
   37.5330   29.8160   38.5840 C   0  0  1  0  0  0  0  0  0  0  0  0
   35.7540   30.5340   39.7020 H   0  0  0  0  0  0  0  0  0  0  0  0
   35.5800   29.4530   37.5140 H   0  0  0  0  0  0  0  0  0  0  0  0
   36.3650   27.9380   38.2010 H   0  0  0  0  0  0  0  0  0  0  0  0
   38.4950   29.2880   38.8170 H   0  0  0  0  0  0  0  0  0  0  0  0
   37.7420   31.1670   37.9470 C   0  0  0  0  0  0  0  0  0  0  0  0
   37.5440   31.3350   36.7560 O   0  0  0  0  0  0  0  0  0  0  0  0
   38.2040   32.3090   38.8290 C   0  0  0  0  0  0  0  0  0  0  0  0
   37.6150   33.2760   39.4910 C   0  0  0  0  0  0  0  0  0  0  0  0
   36.5410   33.2640   39.3900 H   0  0  0  0  0  0  0  0  0  0  0  0
   38.3620   34.1610   40.2100 C   0  0  0  0  0  3  0  0  0  0  0  0
   39.8170   33.9140   40.1540 C   0  0  0  0  0  3  0  0  0  0  0  0
   39.8940   32.3870   39.0320 S   0  0  0  0  0  0  0  0  0  0  0  0
  1  7  1  0  0  0  0
  2  1  1  0  0  0  0
  2  3  2  0  0  0  0
  4  1  1  0  0  0  0
  5  8  1  1  0  0  0
  6  5  1  0  0  0  0
  6  9  1  0  0  0  0
  7  6  1  0  0  0  0
  7  5  1  0  0  0  0
  7 11  1  1  0  0  0
 10  6  1  0  0  0  0
 12 13  1  0  0  0  0
 13 14  2  0  0  0  0
 13  5  1  0  0  0  0
 14 19  1  0  0  0  0
 15 14  1  0  0  0  0
 16 15  2  0  0  0  0
 17 16  1  0  0  0  0
 17 12  2  0  0  0  0
 18 12  1  0  0  0  0
 20 16  1  0  0  0  0
 21 24  1  1  0  0  0
 21  2  1  0  0  0  0
 22 26  1  0  0  0  0
 22 23  1  0  0  0  0
 22 21  1  0  0  0  0
 23 27  1  1  0  0  0
 23 21  1  0  0  0  0
 25 22  1  0  0  0  0
 28 23  1  0  0  0  0
 28 30  1  0  0  0  0
 29 28  2  0  0  0  0
 30 35  1  0  0  0  0
 30 31  2  0  0  0  0
 31 33  1  0  0  0  0
 32 31  1  0  0  0  0
 34 33  2  0  0  0  0
 35 34  1  0  0  0  0
M  END
>  <minimizedAffinity>
-4.86507607

$$$$
