
 OpenBabel03252508493D

 25 27  0  0  0  0  0  0  0  0999 V2000
   45.9470   34.1210   41.0660 C   0  0  0  0  0  0  0  0  0  0  0  0
   46.5280   34.8000   42.1380 C   0  0  0  0  0  0  0  0  0  0  0  0
   47.8480   35.2080   41.9750 C   0  0  0  0  0  0  0  0  0  0  0  0
   48.4820   34.9250   40.7940 N   0  0  0  0  0  0  0  0  0  0  0  0
   47.8900   34.2750   39.7980 C   0  0  0  0  0  0  0  0  0  0  0  0
   46.6080   33.8650   39.9280 N   0  0  0  0  0  0  0  0  0  0  0  0
   48.3220   35.7390   42.7960 H   0  0  0  0  0  0  0  0  0  0  0  0
   48.4030   34.0580   38.8710 H   0  0  0  0  0  0  0  0  0  0  0  0
   45.7560   35.0410   43.3430 C   0  0  0  0  0  0  0  0  0  0  0  0
   45.0480   36.2160   43.5580 C   0  0  0  0  0  0  0  0  0  0  0  0
   44.4800   36.0040   44.8080 C   0  0  0  0  0  0  0  0  0  0  0  0
   44.8230   34.7850   45.3060 N   0  0  0  0  0  0  0  0  0  0  0  0
   45.5920   34.2260   44.4020 N   0  0  0  0  0  0  0  0  0  0  0  0
   44.9340   37.1010   42.9480 H   0  0  0  0  0  0  0  0  0  0  0  0
   43.8400   36.7120   45.3330 H   0  0  0  0  0  0  0  0  0  0  0  0
   44.5230   34.3910   46.2250 H   0  0  0  0  0  0  0  0  0  0  0  0
   44.6410   33.7000   41.1910 O   0  0  0  0  0  0  0  0  0  0  0  0
   43.5220   34.3080   40.6970 C   0  0  0  0  0  0  0  0  0  0  0  0
   43.3260   35.5600   40.5240 O   0  0  0  0  0  0  0  0  0  0  0  0
   42.2730   33.5460   40.2550 C   0  0  0  0  0  0  0  0  0  0  0  0
   41.4450   32.7700   40.9610 C   0  0  0  0  0  0  0  0  0  0  0  0
   41.6770   32.6470   42.0100 H   0  0  0  0  0  0  0  0  0  0  0  0
   40.3780   32.1780   40.3720 C   0  0  0  0  0  3  0  0  0  0  0  0
   40.2270   32.4550   38.9700 C   0  0  0  0  0  3  0  0  0  0  0  0
   41.6960   33.5840   38.6260 S   0  0  0  0  0  0  0  0  0  0  0  0
  1 17  1  0  0  0  0
  1  2  1  0  0  0  0
  2  9  1  0  0  0  0
  3  2  2  0  0  0  0
  3  7  1  0  0  0  0
  4  3  1  0  0  0  0
  5  6  1  0  0  0  0
  5  4  2  0  0  0  0
  6  1  2  0  0  0  0
  8  5  1  0  0  0  0
  9 10  1  0  0  0  0
  9 13  2  0  0  0  0
 10 11  2  0  0  0  0
 11 12  1  0  0  0  0
 11 15  1  0  0  0  0
 12 16  1  0  0  0  0
 13 12  1  0  0  0  0
 14 10  1  0  0  0  0
 18 17  1  0  0  0  0
 19 18  2  0  0  0  0
 20 18  1  0  0  0  0
 20 21  2  0  0  0  0
 21 22  1  0  0  0  0
 23 21  1  0  0  0  0
 24 23  2  0  0  0  0
 25 24  1  0  0  0  0
 25 20  1  0  0  0  0
M  END
>  <minimizedAffinity>
-4.96487665

>  <minimizedRMSD>
0.747830927

$$$$
