
 OpenBabel03252508493D

 25 27  0  0  0  0  0  0  0  0999 V2000
   45.9840   34.1980   41.0510 C   0  0  0  0  0  0  0  0  0  0  0  0
   46.5650   34.8240   42.1540 C   0  0  0  0  0  0  0  0  0  0  0  0
   47.9020   35.1890   42.0320 C   0  0  0  0  0  0  0  0  0  0  0  0
   48.5520   34.9170   40.8560 N   0  0  0  0  0  0  0  0  0  0  0  0
   47.9590   34.3170   39.8290 C   0  0  0  0  0  0  0  0  0  0  0  0
   46.6610   33.9510   39.9190 N   0  0  0  0  0  0  0  0  0  0  0  0
   48.3770   35.6780   42.8780 H   0  0  0  0  0  0  0  0  0  0  0  0
   48.4850   34.1090   38.9070 H   0  0  0  0  0  0  0  0  0  0  0  0
   45.7760   35.0590   43.3490 C   0  0  0  0  0  0  0  0  0  0  0  0
   45.0820   36.2410   43.5700 C   0  0  0  0  0  0  0  0  0  0  0  0
   44.4880   36.0180   44.8070 C   0  0  0  0  0  0  0  0  0  0  0  0
   44.8050   34.7870   45.2910 N   0  0  0  0  0  0  0  0  0  0  0  0
   45.5810   34.2300   44.3920 N   0  0  0  0  0  0  0  0  0  0  0  0
   44.9920   37.1370   42.9720 H   0  0  0  0  0  0  0  0  0  0  0  0
   43.8500   36.7280   45.3320 H   0  0  0  0  0  0  0  0  0  0  0  0
   44.4820   34.3840   46.1990 H   0  0  0  0  0  0  0  0  0  0  0  0
   44.6610   33.8220   41.1350 O   0  0  0  0  0  0  0  0  0  0  0  0
   43.5800   34.4630   40.6010 C   0  0  0  0  0  0  0  0  0  0  0  0
   43.3030   35.7100   40.6610 O   0  0  0  0  0  0  0  0  0  0  0  0
   42.4830   33.7510   39.8110 C   0  0  0  0  0  0  0  0  0  0  0  0
   42.0220   32.5020   39.9150 C   0  0  0  0  0  0  0  0  0  0  0  0
   42.4830   31.8780   40.6690 H   0  0  0  0  0  0  0  0  0  0  0  0
   41.0270   32.0590   39.1070 C   0  0  0  0  0  3  0  0  0  0  0  0
   40.5340   33.0250   38.1650 C   0  0  0  0  0  3  0  0  0  0  0  0
   41.5950   34.5340   38.5500 S   0  0  0  0  0  0  0  0  0  0  0  0
  1 17  1  0  0  0  0
  1  2  1  0  0  0  0
  2  9  1  0  0  0  0
  3  2  2  0  0  0  0
  3  7  1  0  0  0  0
  4  3  1  0  0  0  0
  5  6  1  0  0  0  0
  5  4  2  0  0  0  0
  6  1  2  0  0  0  0
  8  5  1  0  0  0  0
  9 10  1  0  0  0  0
  9 13  2  0  0  0  0
 10 11  2  0  0  0  0
 11 12  1  0  0  0  0
 11 15  1  0  0  0  0
 12 16  1  0  0  0  0
 13 12  1  0  0  0  0
 14 10  1  0  0  0  0
 18 19  2  0  0  0  0
 18 17  1  0  0  0  0
 20 21  2  0  0  0  0
 20 18  1  0  0  0  0
 21 22  1  0  0  0  0
 23 21  1  0  0  0  0
 24 25  1  0  0  0  0
 24 23  2  0  0  0  0
 25 20  1  0  0  0  0
M  END
>  <minimizedAffinity>
-5.03800726

>  <minimizedRMSD>
0.463653207

$$$$
