
 OpenBabel03252508493D

 25 27  0  0  0  0  0  0  0  0999 V2000
   45.9710   34.1910   41.0440 C   0  0  0  0  0  0  0  0  0  0  0  0
   46.5550   34.8180   42.1450 C   0  0  0  0  0  0  0  0  0  0  0  0
   47.8920   35.1820   42.0190 C   0  0  0  0  0  0  0  0  0  0  0  0
   48.5390   34.9080   40.8410 N   0  0  0  0  0  0  0  0  0  0  0  0
   47.9420   34.3070   39.8170 C   0  0  0  0  0  0  0  0  0  0  0  0
   46.6450   33.9420   39.9110 N   0  0  0  0  0  0  0  0  0  0  0  0
   48.3690   35.6720   42.8630 H   0  0  0  0  0  0  0  0  0  0  0  0
   48.4650   34.0980   38.8940 H   0  0  0  0  0  0  0  0  0  0  0  0
   45.7690   35.0540   43.3420 C   0  0  0  0  0  0  0  0  0  0  0  0
   45.0750   36.2370   43.5620 C   0  0  0  0  0  0  0  0  0  0  0  0
   44.4850   36.0160   44.8010 C   0  0  0  0  0  0  0  0  0  0  0  0
   44.8040   34.7860   45.2880 N   0  0  0  0  0  0  0  0  0  0  0  0
   45.5790   34.2280   44.3870 N   0  0  0  0  0  0  0  0  0  0  0  0
   44.9820   37.1310   42.9630 H   0  0  0  0  0  0  0  0  0  0  0  0
   43.8480   36.7270   45.3270 H   0  0  0  0  0  0  0  0  0  0  0  0
   44.4850   34.3850   46.1970 H   0  0  0  0  0  0  0  0  0  0  0  0
   44.6480   33.8150   41.1330 O   0  0  0  0  0  0  0  0  0  0  0  0
   43.5660   34.4550   40.6000 C   0  0  0  0  0  0  0  0  0  0  0  0
   43.3040   35.7070   40.6350 O   0  0  0  0  0  0  0  0  0  0  0  0
   42.4490   33.7370   39.8440 C   0  0  0  0  0  0  0  0  0  0  0  0
   42.4410   33.2180   38.6120 C   0  0  0  0  0  0  0  0  0  0  0  0
   43.3560   33.3100   38.0430 H   0  0  0  0  0  0  0  0  0  0  0  0
   41.3310   32.6110   38.1230 C   0  0  0  0  0  3  0  0  0  0  0  0
   40.2090   32.5810   39.0200 C   0  0  0  0  0  3  0  0  0  0  0  0
   40.8900   33.4640   40.5390 S   0  0  0  0  0  0  0  0  0  0  0  0
  1 17  1  0  0  0  0
  1  2  1  0  0  0  0
  2  9  1  0  0  0  0
  3  2  2  0  0  0  0
  3  7  1  0  0  0  0
  4  3  1  0  0  0  0
  5  6  1  0  0  0  0
  5  4  2  0  0  0  0
  6  1  2  0  0  0  0
  8  5  1  0  0  0  0
  9 10  1  0  0  0  0
  9 13  2  0  0  0  0
 10 11  2  0  0  0  0
 11 12  1  0  0  0  0
 11 15  1  0  0  0  0
 12 16  1  0  0  0  0
 13 12  1  0  0  0  0
 14 10  1  0  0  0  0
 18 19  2  0  0  0  0
 18 17  1  0  0  0  0
 20 25  1  0  0  0  0
 20 18  1  0  0  0  0
 21 20  2  0  0  0  0
 22 21  1  0  0  0  0
 23 21  1  0  0  0  0
 23 24  2  0  0  0  0
 24 25  1  0  0  0  0
M  END
>  <minimizedAffinity>
-5.05831623

>  <minimizedRMSD>
0.470000893

$$$$
