
 OpenBabel03252503313D

 38 40  0  0  1  0  0  0  0  0999 V2000
   45.6960   34.3500   42.3750 C   0  0  0  0  0  0  0  0  0  0  0  0
   46.7190   35.1700   41.8100 C   0  0  0  0  0  0  0  0  0  0  0  0
   48.0290   34.9120   42.2460 C   0  0  0  0  0  0  0  0  0  0  0  0
   48.2140   33.9310   43.1440 N   0  0  0  0  0  0  0  0  0  0  0  0
   47.2080   33.1790   43.6500 C   0  0  0  0  0  0  0  0  0  0  0  0
   45.9390   33.4010   43.2530 N   0  0  0  0  0  0  0  0  0  0  0  0
   44.0860   34.0440   40.6950 C   0  0  0  0  0  0  0  0  0  0  0  0
   45.0520   33.5250   40.0410 O   0  0  0  0  0  0  0  0  0  0  0  0
   44.3370   34.5600   41.9730 N   0  0  0  0  0  0  0  0  0  0  0  0
   42.8140   34.0580   40.0690 N   0  0  0  0  0  0  0  0  0  0  0  0
   42.7140   33.7950   38.6200 C   0  0  0  0  0  0  0  0  0  0  0  0
   41.5270   34.6170   38.2290 C   0  0  0  0  0  0  0  0  0  0  0  0
   40.9800   35.1960   39.5020 C   0  0  0  0  0  0  0  0  0  0  0  0
   41.4900   34.2690   40.5790 C   0  0  1  0  0  0  0  0  0  0  0  0
   46.4320   35.9130   41.1070 H   0  0  0  0  0  0  0  0  0  0  0  0
   47.4130   32.3970   44.3740 H   0  0  0  0  0  0  0  0  0  0  0  0
   43.5710   35.0130   42.4760 H   0  0  0  0  0  0  0  0  0  0  0  0
   43.6290   34.0490   38.0810 H   0  0  0  0  0  0  0  0  0  0  0  0
   42.4680   32.7140   38.5410 H   0  0  0  0  0  0  0  0  0  0  0  0
   40.7340   34.0230   37.6880 H   0  0  0  0  0  0  0  0  0  0  0  0
   41.8590   35.3860   37.5070 H   0  0  0  0  0  0  0  0  0  0  0  0
   40.0450   35.6480   39.5240 H   0  0  0  0  0  0  0  0  0  0  0  0
   41.6900   36.0840   39.6590 H   0  0  0  0  0  0  0  0  0  0  0  0
   41.3380   34.8310   41.4970 H   0  0  0  0  0  0  0  0  0  0  0  0
   39.3820   32.8490   40.9610 C   0  0  0  0  0  0  0  0  0  0  0  0
   38.8000   33.9430   40.8180 O   0  0  0  0  0  0  0  0  0  0  0  0
   40.7970   32.9920   40.6730 N   0  0  0  0  0  0  0  0  0  0  0  0
   41.4110   32.1320   40.5120 H   0  0  0  0  0  0  0  0  0  0  0  0
   39.0030   31.5750   41.3190 C   0  0  0  0  0  0  0  0  0  0  0  0
   37.6150   30.9920   41.0830 C   0  0  0  0  0  0  0  0  0  0  0  0
   36.8960   31.6260   40.6060 H   0  0  0  0  0  0  0  0  0  0  0  0
   37.4260   29.7180   41.5040 C   0  0  0  0  0  0  0  0  0  0  0  0
   38.4480   28.9550   42.1310 C   0  0  0  0  0  0  0  0  0  0  0  0
   39.8710   30.1140   42.1610 S   0  0  0  0  0  0  0  0  0  0  0  0
   49.0540   35.7620   41.6560 C   0  0  0  0  0  0  0  0  0  0  0  0
   50.3010   35.3000   42.0640 F   0  0  0  0  0  0  0  0  0  0  0  0
   48.9270   37.0250   42.2340 F   0  0  0  0  0  0  0  0  0  0  0  0
   49.0270   35.7970   40.2870 F   0  0  0  0  0  0  0  0  0  0  0  0
  1  6  1  0  0  0  0
  2  3  1  0  0  0  0
  2  1  2  0  0  0  0
  3  4  2  0  0  0  0
  4  5  1  0  0  0  0
  5 16  1  0  0  0  0
  6  5  2  0  0  0  0
  7  9  1  0  0  0  0
  8  7  2  0  0  0  0
  9  1  1  0  0  0  0
  9 17  1  0  0  0  0
 10 14  1  0  0  0  0
 10  7  1  0  0  0  0
 11 10  1  0  0  0  0
 12 11  1  0  0  0  0
 12 13  1  0  0  0  0
 13 22  1  0  0  0  0
 13 23  1  0  0  0  0
 13 14  1  0  0  0  0
 14 27  1  0  0  0  0
 14 24  1  1  0  0  0
 15  2  1  0  0  0  0
 18 11  1  0  0  0  0
 19 11  1  0  0  0  0
 20 12  1  0  0  0  0
 21 12  1  0  0  0  0
 25 29  1  0  0  0  0
 26 25  2  0  0  0  0
 27 25  1  0  0  0  0
 28 27  1  0  0  0  0
 29 34  1  0  0  0  0
 30 29  2  0  0  0  0
 30 32  1  0  0  0  0
 31 30  1  0  0  0  0
 32 33  2  0  0  0  0
 33 34  1  0  0  0  0
 35 36  1  0  0  0  0
 35 37  1  0  0  0  0
 35  3  1  0  0  0  0
 38 35  1  0  0  0  0
M  END
>  <minimizedAffinity>
-6.66999054

>  <minimizedRMSD>
0.870847821

$$$$
