
 OpenBabel03252508493D

 25 27  0  0  0  0  0  0  0  0999 V2000
   45.9890   34.1840   41.0500 C   0  0  0  0  0  0  0  0  0  0  0  0
   46.5650   34.8230   42.1480 C   0  0  0  0  0  0  0  0  0  0  0  0
   47.8980   35.2030   42.0210 C   0  0  0  0  0  0  0  0  0  0  0  0
   48.5480   34.9310   40.8450 N   0  0  0  0  0  0  0  0  0  0  0  0
   47.9600   34.3190   39.8230 C   0  0  0  0  0  0  0  0  0  0  0  0
   46.6660   33.9380   39.9180 N   0  0  0  0  0  0  0  0  0  0  0  0
   48.3680   35.7030   42.8630 H   0  0  0  0  0  0  0  0  0  0  0  0
   48.4860   34.1110   38.9010 H   0  0  0  0  0  0  0  0  0  0  0  0
   45.7760   35.0560   43.3430 C   0  0  0  0  0  0  0  0  0  0  0  0
   45.0730   36.2340   43.5610 C   0  0  0  0  0  0  0  0  0  0  0  0
   44.4830   36.0110   44.7990 C   0  0  0  0  0  0  0  0  0  0  0  0
   44.8090   34.7840   45.2880 N   0  0  0  0  0  0  0  0  0  0  0  0
   45.5890   34.2300   44.3890 N   0  0  0  0  0  0  0  0  0  0  0  0
   44.9750   37.1270   42.9600 H   0  0  0  0  0  0  0  0  0  0  0  0
   43.8400   36.7180   45.3230 H   0  0  0  0  0  0  0  0  0  0  0  0
   44.4910   34.3810   46.1970 H   0  0  0  0  0  0  0  0  0  0  0  0
   44.6710   33.7930   41.1390 O   0  0  0  0  0  0  0  0  0  0  0  0
   43.5810   34.4210   40.6070 C   0  0  0  0  0  0  0  0  0  0  0  0
   43.3300   35.6750   40.5970 O   0  0  0  0  0  0  0  0  0  0  0  0
   42.4390   33.6820   39.9090 C   0  0  0  0  0  0  0  0  0  0  0  0
   42.1600   33.5650   38.6070 C   0  0  0  0  0  0  0  0  0  0  0  0
   42.8330   34.0620   37.9230 H   0  0  0  0  0  0  0  0  0  0  0  0
   41.0840   32.8530   38.1910 C   0  0  0  0  0  3  0  0  0  0  0  0
   40.3040   32.2610   39.2410 C   0  0  0  0  0  3  0  0  0  0  0  0
   41.2320   32.8090   40.7850 S   0  0  0  0  0  0  0  0  0  0  0  0
  1 17  1  0  0  0  0
  1  2  1  0  0  0  0
  2  9  1  0  0  0  0
  3  2  2  0  0  0  0
  3  7  1  0  0  0  0
  4  3  1  0  0  0  0
  5  6  1  0  0  0  0
  5  4  2  0  0  0  0
  6  1  2  0  0  0  0
  8  5  1  0  0  0  0
  9 10  1  0  0  0  0
  9 13  2  0  0  0  0
 10 11  2  0  0  0  0
 11 12  1  0  0  0  0
 11 15  1  0  0  0  0
 12 16  1  0  0  0  0
 13 12  1  0  0  0  0
 14 10  1  0  0  0  0
 18 17  1  0  0  0  0
 19 18  2  0  0  0  0
 20 18  1  0  0  0  0
 20 25  1  0  0  0  0
 21 20  2  0  0  0  0
 22 21  1  0  0  0  0
 23 21  1  0  0  0  0
 23 24  2  0  0  0  0
 24 25  1  0  0  0  0
M  END
>  <minimizedAffinity>
-5.08009291

>  <minimizedRMSD>
0.484215468

$$$$
