
 OpenBabel03252508493D

 25 27  0  0  0  0  0  0  0  0999 V2000
   45.8590   34.2470   41.0440 C   0  0  0  0  0  0  0  0  0  0  0  0
   46.4850   34.8050   42.1590 C   0  0  0  0  0  0  0  0  0  0  0  0
   47.8450   35.0780   42.0390 C   0  0  0  0  0  0  0  0  0  0  0  0
   48.4700   34.7890   40.8540 N   0  0  0  0  0  0  0  0  0  0  0  0
   47.8340   34.2560   39.8170 C   0  0  0  0  0  0  0  0  0  0  0  0
   46.5140   33.9800   39.9040 N   0  0  0  0  0  0  0  0  0  0  0  0
   48.3550   35.5130   42.8940 H   0  0  0  0  0  0  0  0  0  0  0  0
   48.3410   34.0330   38.8880 H   0  0  0  0  0  0  0  0  0  0  0  0
   45.7180   35.0660   43.3620 C   0  0  0  0  0  0  0  0  0  0  0  0
   45.1230   36.2940   43.6210 C   0  0  0  0  0  0  0  0  0  0  0  0
   44.5130   36.0830   44.8520 C   0  0  0  0  0  0  0  0  0  0  0  0
   44.7280   34.8150   45.2980 N   0  0  0  0  0  0  0  0  0  0  0  0
   45.4560   34.2250   44.3800 N   0  0  0  0  0  0  0  0  0  0  0  0
   45.1060   37.2120   43.0510 H   0  0  0  0  0  0  0  0  0  0  0  0
   43.9350   36.8260   45.4000 H   0  0  0  0  0  0  0  0  0  0  0  0
   44.3730   34.4120   46.1940 H   0  0  0  0  0  0  0  0  0  0  0  0
   44.5130   33.9620   41.1250 O   0  0  0  0  0  0  0  0  0  0  0  0
   43.4740   34.7290   40.6810 C   0  0  0  0  0  0  0  0  0  0  0  0
   43.2050   35.9390   40.9960 O   0  0  0  0  0  0  0  0  0  0  0  0
   42.4220   34.2310   39.6900 C   0  0  0  0  0  0  0  0  0  0  0  0
   41.5350   34.9160   38.9630 C   0  0  0  0  0  0  0  0  0  0  0  0
   41.5410   35.9910   39.0790 H   0  0  0  0  0  0  0  0  0  0  0  0
   40.6780   34.2740   38.1310 C   0  0  0  0  0  0  0  0  0  0  0  0
   40.8120   32.8440   38.1040 C   0  0  0  0  0  0  0  0  0  0  0  0
   42.2130   32.5530   39.3310 S   0  0  0  0  0  0  0  0  0  0  0  0
  1 17  1  0  0  0  0
  1  2  1  0  0  0  0
  2  9  1  0  0  0  0
  3  2  2  0  0  0  0
  3  7  1  0  0  0  0
  4  3  1  0  0  0  0
  5  6  1  0  0  0  0
  5  4  2  0  0  0  0
  6  1  2  0  0  0  0
  8  5  1  0  0  0  0
  9 10  1  0  0  0  0
  9 13  2  0  0  0  0
 10 11  2  0  0  0  0
 11 12  1  0  0  0  0
 11 15  1  0  0  0  0
 12 16  1  0  0  0  0
 13 12  1  0  0  0  0
 14 10  1  0  0  0  0
 18 19  2  0  0  0  0
 18 17  1  0  0  0  0
 20 18  1  0  0  0  0
 21 22  1  0  0  0  0
 21 20  2  0  0  0  0
 23 21  1  0  0  0  0
 24 23  2  0  0  0  0
 24 25  1  0  0  0  0
 25 20  1  0  0  0  0
M  END
>  <minimizedAffinity>
-5.21708202

>  <minimizedRMSD>
0.775799692

$$$$
