
 OpenBabel03252508493D

 25 27  0  0  0  0  0  0  0  0999 V2000
   46.0580   34.1900   41.0180 C   0  0  0  0  0  0  0  0  0  0  0  0
   46.6100   34.8400   42.1220 C   0  0  0  0  0  0  0  0  0  0  0  0
   47.9370   35.2450   42.0080 C   0  0  0  0  0  0  0  0  0  0  0  0
   48.6040   34.9860   40.8390 N   0  0  0  0  0  0  0  0  0  0  0  0
   48.0380   34.3620   39.8120 C   0  0  0  0  0  0  0  0  0  0  0  0
   46.7510   33.9570   39.8940 N   0  0  0  0  0  0  0  0  0  0  0  0
   48.3900   35.7540   42.8540 H   0  0  0  0  0  0  0  0  0  0  0  0
   48.5770   34.1640   38.8950 H   0  0  0  0  0  0  0  0  0  0  0  0
   45.8050   35.0580   43.3090 C   0  0  0  0  0  0  0  0  0  0  0  0
   45.0620   36.2140   43.5110 C   0  0  0  0  0  0  0  0  0  0  0  0
   44.4700   35.9830   44.7470 C   0  0  0  0  0  0  0  0  0  0  0  0
   44.8330   34.7720   45.2490 N   0  0  0  0  0  0  0  0  0  0  0  0
   45.6370   34.2360   44.3620 N   0  0  0  0  0  0  0  0  0  0  0  0
   44.9400   37.0970   42.9000 H   0  0  0  0  0  0  0  0  0  0  0  0
   43.8000   36.6730   45.2590 H   0  0  0  0  0  0  0  0  0  0  0  0
   44.5220   34.3680   46.1600 H   0  0  0  0  0  0  0  0  0  0  0  0
   44.7470   33.7730   41.0940 O   0  0  0  0  0  0  0  0  0  0  0  0
   43.6660   34.3170   40.4620 C   0  0  0  0  0  0  0  0  0  0  0  0
   43.2160   35.5100   40.5690 O   0  0  0  0  0  0  0  0  0  0  0  0
   42.7840   33.5430   39.4830 C   0  0  0  0  0  0  0  0  0  0  0  0
   41.5430   33.7960   39.0580 C   0  0  0  0  0  0  0  0  0  0  0  0
   41.0680   34.6810   39.4580 H   0  0  0  0  0  0  0  0  0  0  0  0
   40.9300   32.9720   38.1720 C   0  0  0  0  0  3  0  0  0  0  0  0
   41.7150   31.8450   37.7500 C   0  0  0  0  0  3  0  0  0  0  0  0
   43.3180   32.0930   38.7080 S   0  0  0  0  0  0  0  0  0  0  0  0
  1 17  1  0  0  0  0
  1  2  1  0  0  0  0
  2  9  1  0  0  0  0
  3  2  2  0  0  0  0
  3  7  1  0  0  0  0
  4  3  1  0  0  0  0
  5  6  1  0  0  0  0
  5  4  2  0  0  0  0
  6  1  2  0  0  0  0
  8  5  1  0  0  0  0
  9 10  1  0  0  0  0
  9 13  2  0  0  0  0
 10 11  2  0  0  0  0
 11 12  1  0  0  0  0
 11 15  1  0  0  0  0
 12 16  1  0  0  0  0
 13 12  1  0  0  0  0
 14 10  1  0  0  0  0
 18 19  2  0  0  0  0
 18 17  1  0  0  0  0
 20 18  1  0  0  0  0
 21 22  1  0  0  0  0
 21 20  2  0  0  0  0
 23 21  1  0  0  0  0
 24 23  2  0  0  0  0
 24 25  1  0  0  0  0
 25 20  1  0  0  0  0
M  END
>  <minimizedAffinity>
-5.04127407

>  <minimizedRMSD>
0.260883451

$$$$
