
 OpenBabel03252508493D

 25 27  0  0  0  0  0  0  0  0999 V2000
   45.9590   34.2300   41.0300 C   0  0  0  0  0  0  0  0  0  0  0  0
   46.5530   34.8170   42.1470 C   0  0  0  0  0  0  0  0  0  0  0  0
   47.9040   35.1360   42.0390 C   0  0  0  0  0  0  0  0  0  0  0  0
   48.5510   34.8620   40.8620 N   0  0  0  0  0  0  0  0  0  0  0  0
   47.9430   34.3010   39.8220 C   0  0  0  0  0  0  0  0  0  0  0  0
   46.6330   33.9790   39.8990 N   0  0  0  0  0  0  0  0  0  0  0  0
   48.3900   35.5940   42.8960 H   0  0  0  0  0  0  0  0  0  0  0  0
   48.4670   34.0900   38.9000 H   0  0  0  0  0  0  0  0  0  0  0  0
   45.7660   35.0580   43.3420 C   0  0  0  0  0  0  0  0  0  0  0  0
   45.1110   36.2600   43.5780 C   0  0  0  0  0  0  0  0  0  0  0  0
   44.5020   36.0370   44.8080 C   0  0  0  0  0  0  0  0  0  0  0  0
   44.7740   34.7880   45.2740 N   0  0  0  0  0  0  0  0  0  0  0  0
   45.5370   34.2200   44.3700 N   0  0  0  0  0  0  0  0  0  0  0  0
   45.0550   37.1680   42.9950 H   0  0  0  0  0  0  0  0  0  0  0  0
   43.8850   36.7600   45.3410 H   0  0  0  0  0  0  0  0  0  0  0  0
   44.4330   34.3820   46.1730 H   0  0  0  0  0  0  0  0  0  0  0  0
   44.6220   33.8990   41.1000 O   0  0  0  0  0  0  0  0  0  0  0  0
   43.5660   34.6000   40.5940 C   0  0  0  0  0  0  0  0  0  0  0  0
   43.2560   35.8200   40.8230 O   0  0  0  0  0  0  0  0  0  0  0  0
   42.5420   34.0030   39.6290 C   0  0  0  0  0  0  0  0  0  0  0  0
   41.4920   34.5720   39.0290 C   0  0  0  0  0  0  0  0  0  0  0  0
   41.3220   35.6180   39.2440 H   0  0  0  0  0  0  0  0  0  0  0  0
   40.6990   33.8560   38.1960 C   0  0  0  0  0  3  0  0  0  0  0  0
   41.0780   32.4810   38.0260 C   0  0  0  0  0  3  0  0  0  0  0  0
   42.6010   32.3490   39.1280 S   0  0  0  0  0  0  0  0  0  0  0  0
  1 17  1  0  0  0  0
  1  2  1  0  0  0  0
  2  9  1  0  0  0  0
  3  2  2  0  0  0  0
  3  7  1  0  0  0  0
  4  3  1  0  0  0  0
  5  6  1  0  0  0  0
  5  4  2  0  0  0  0
  6  1  2  0  0  0  0
  8  5  1  0  0  0  0
  9 10  1  0  0  0  0
  9 13  2  0  0  0  0
 10 11  2  0  0  0  0
 11 12  1  0  0  0  0
 11 15  1  0  0  0  0
 12 16  1  0  0  0  0
 13 12  1  0  0  0  0
 14 10  1  0  0  0  0
 18 19  2  0  0  0  0
 18 17  1  0  0  0  0
 20 18  1  0  0  0  0
 21 22  1  0  0  0  0
 21 20  2  0  0  0  0
 23 21  1  0  0  0  0
 24 23  2  0  0  0  0
 24 25  1  0  0  0  0
 25 20  1  0  0  0  0
M  END
>  <minimizedAffinity>
-5.15403509

>  <minimizedRMSD>
0.556396842

$$$$
