
 OpenBabel03252503293D

 22 23  0  0  0  0  0  0  0  0999 V2000
   39.2850   28.0480   41.8870 C   0  0  0  0  0  0  0  0  0  0  0  0
   38.3670   27.0460   41.4770 C   0  0  0  0  0  0  0  0  0  0  0  0
   38.3370   25.8830   42.2700 C   0  0  0  0  0  0  0  0  0  0  0  0
   39.1610   25.8060   43.3310 N   0  0  0  0  0  0  0  0  0  0  0  0
   40.0160   26.7870   43.6800 C   0  0  0  0  0  0  0  0  0  0  0  0
   40.0710   27.9110   42.9460 N   0  0  0  0  0  0  0  0  0  0  0  0
   38.2890   30.1120   41.3970 C   0  0  0  0  0  0  0  0  0  0  0  0
   37.3890   29.7230   42.1940 O   0  0  0  0  0  0  0  0  0  0  0  0
   39.3930   29.2720   41.1460 N   0  0  0  0  0  0  0  0  0  0  0  0
   37.7520   27.2180   40.6030 H   0  0  0  0  0  0  0  0  0  0  0  0
   40.6520   26.6570   44.5480 H   0  0  0  0  0  0  0  0  0  0  0  0
   40.1150   29.6120   40.4970 H   0  0  0  0  0  0  0  0  0  0  0  0
   38.0930   31.4510   40.7840 C   0  0  0  0  0  0  0  0  0  0  0  0
   37.1040   31.9110   40.0120 C   0  0  0  0  0  0  0  0  0  0  0  0
   36.2910   31.2430   39.7640 H   0  0  0  0  0  0  0  0  0  0  0  0
   37.1520   33.2060   39.5640 C   0  0  0  0  0  3  0  0  0  0  0  0
   38.2620   33.9690   39.9590 C   0  0  0  0  0  3  0  0  0  0  0  0
   39.2200   32.7140   41.0030 S   0  0  0  0  0  0  0  0  0  0  0  0
   37.3850   24.8650   41.8300 C   0  0  0  0  0  0  0  0  0  0  0  0
   38.0460   23.6390   41.7440 F   0  0  0  0  0  0  0  0  0  0  0  0
   37.0330   25.1780   40.5170 F   0  0  0  0  0  0  0  0  0  0  0  0
   36.3170   24.7160   42.6500 F   0  0  0  0  0  0  0  0  0  0  0  0
  1  6  1  0  0  0  0
  2  1  2  0  0  0  0
  2  3  1  0  0  0  0
  3  4  2  0  0  0  0
  4  5  1  0  0  0  0
  5 11  1  0  0  0  0
  6  5  2  0  0  0  0
  7  8  2  0  0  0  0
  9  7  1  0  0  0  0
  9  1  1  0  0  0  0
 10  2  1  0  0  0  0
 12  9  1  0  0  0  0
 13 18  1  0  0  0  0
 13  7  1  0  0  0  0
 14 13  2  0  0  0  0
 15 14  1  0  0  0  0
 16 17  2  0  0  0  0
 16 14  1  0  0  0  0
 17 18  1  0  0  0  0
 19  3  1  0  0  0  0
 19 22  1  0  0  0  0
 20 19  1  0  0  0  0
 21 19  1  0  0  0  0
M  END
>  <minimizedAffinity>
-5.06597662

$$$$

 OpenBabel03252503293D

 22 23  0  0  0  0  0  0  0  0999 V2000
   36.4020   28.2130   39.9270 C   0  0  0  0  0  0  0  0  0  0  0  0
   36.8670   27.4590   41.0370 C   0  0  0  0  0  0  0  0  0  0  0  0
   36.9300   26.0660   40.8470 C   0  0  0  0  0  0  0  0  0  0  0  0
   36.5530   25.5610   39.6570 N   0  0  0  0  0  0  0  0  0  0  0  0
   36.1180   26.3200   38.6330 C   0  0  0  0  0  0  0  0  0  0  0  0
   36.0450   27.6530   38.7790 N   0  0  0  0  0  0  0  0  0  0  0  0
   37.5750   30.2420   39.9550 C   0  0  0  0  0  0  0  0  0  0  0  0
   38.5950   29.5070   39.8300 O   0  0  0  0  0  0  0  0  0  0  0  0
   36.3010   29.6410   40.0180 N   0  0  0  0  0  0  0  0  0  0  0  0
   37.1440   27.9750   41.9480 H   0  0  0  0  0  0  0  0  0  0  0  0
   35.8290   25.8450   37.7020 H   0  0  0  0  0  0  0  0  0  0  0  0
   35.4850   30.2600   40.1160 H   0  0  0  0  0  0  0  0  0  0  0  0
   37.8200   31.7050   40.0250 C   0  0  0  0  0  0  0  0  0  0  0  0
   37.1590   32.7190   39.4580 C   0  0  0  0  0  0  0  0  0  0  0  0
   36.3000   32.4940   38.8410 H   0  0  0  0  0  0  0  0  0  0  0  0
   37.5870   34.0030   39.6770 C   0  0  0  0  0  3  0  0  0  0  0  0
   38.7140   34.1600   40.4980 C   0  0  0  0  0  3  0  0  0  0  0  0
   39.1110   32.3590   40.9280 S   0  0  0  0  0  0  0  0  0  0  0  0
   37.4110   25.3110   42.0010 C   0  0  0  0  0  0  0  0  0  0  0  0
   37.9070   26.2070   42.9500 F   0  0  0  0  0  0  0  0  0  0  0  0
   38.5240   24.5840   41.5760 F   0  0  0  0  0  0  0  0  0  0  0  0
   36.4650   24.5440   42.5930 F   0  0  0  0  0  0  0  0  0  0  0  0
  1  9  1  0  0  0  0
  1  2  1  0  0  0  0
  2 10  1  0  0  0  0
  3  2  2  0  0  0  0
  3 19  1  0  0  0  0
  4  3  1  0  0  0  0
  5  6  1  0  0  0  0
  5  4  2  0  0  0  0
  6  1  2  0  0  0  0
  7  9  1  0  0  0  0
  7 13  1  0  0  0  0
  8  7  2  0  0  0  0
  9 12  1  0  0  0  0
 11  5  1  0  0  0  0
 13 18  1  0  0  0  0
 14 16  1  0  0  0  0
 14 13  2  0  0  0  0
 15 14  1  0  0  0  0
 16 17  2  0  0  0  0
 17 18  1  0  0  0  0
 19 22  1  0  0  0  0
 19 20  1  0  0  0  0
 21 19  1  0  0  0  0
M  END
>  <minimizedAffinity>
-4.78370714

$$$$

 OpenBabel03252503293D

 22 23  0  0  0  0  0  0  0  0999 V2000
   37.7410   30.7460   41.2880 C   0  0  0  0  0  0  0  0  0  0  0  0
   37.8720   29.6230   42.1450 C   0  0  0  0  0  0  0  0  0  0  0  0
   36.8660   28.6460   42.0320 C   0  0  0  0  0  0  0  0  0  0  0  0
   35.8750   28.8440   41.1430 N   0  0  0  0  0  0  0  0  0  0  0  0
   35.7940   29.9290   40.3500 C   0  0  0  0  0  0  0  0  0  0  0  0
   36.7380   30.8810   40.4300 N   0  0  0  0  0  0  0  0  0  0  0  0
   39.9130   31.3990   40.6980 C   0  0  0  0  0  0  0  0  0  0  0  0
   39.9900   30.2390   40.2030 O   0  0  0  0  0  0  0  0  0  0  0  0
   38.7160   31.7990   41.3250 N   0  0  0  0  0  0  0  0  0  0  0  0
   38.7150   29.5710   42.8240 H   0  0  0  0  0  0  0  0  0  0  0  0
   34.9670   30.0230   39.6560 H   0  0  0  0  0  0  0  0  0  0  0  0
   38.6750   32.7500   41.7160 H   0  0  0  0  0  0  0  0  0  0  0  0
   41.1220   32.2530   40.5680 C   0  0  0  0  0  0  0  0  0  0  0  0
   41.3430   33.3250   39.8020 C   0  0  0  0  0  0  0  0  0  0  0  0
   40.5480   33.6690   39.1550 H   0  0  0  0  0  0  0  0  0  0  0  0
   42.5610   33.9520   39.8630 C   0  0  0  0  0  3  0  0  0  0  0  0
   43.5070   33.4070   40.7440 C   0  0  0  0  0  3  0  0  0  0  0  0
   42.5380   31.9520   41.4710 S   0  0  0  0  0  0  0  0  0  0  0  0
   37.0210   27.4990   42.9240 C   0  0  0  0  0  0  0  0  0  0  0  0
   37.0450   26.3330   42.1560 F   0  0  0  0  0  0  0  0  0  0  0  0
   35.8520   27.4090   43.6790 F   0  0  0  0  0  0  0  0  0  0  0  0
   38.1450   27.5340   43.6790 F   0  0  0  0  0  0  0  0  0  0  0  0
  1  9  1  0  0  0  0
  1  2  1  0  0  0  0
  2 10  1  0  0  0  0
  3  2  2  0  0  0  0
  3 19  1  0  0  0  0
  4  3  1  0  0  0  0
  5  6  1  0  0  0  0
  5  4  2  0  0  0  0
  6  1  2  0  0  0  0
  7  9  1  0  0  0  0
  8  7  2  0  0  0  0
  9 12  1  0  0  0  0
 11  5  1  0  0  0  0
 13  7  1  0  0  0  0
 13 18  1  0  0  0  0
 14 16  1  0  0  0  0
 14 13  2  0  0  0  0
 15 14  1  0  0  0  0
 16 17  2  0  0  0  0
 17 18  1  0  0  0  0
 19 21  1  0  0  0  0
 19 22  1  0  0  0  0
 20 19  1  0  0  0  0
M  END
>  <minimizedAffinity>
-4.77025557

$$$$

 OpenBabel03252503293D

 22 23  0  0  0  0  0  0  0  0999 V2000
   36.4220   29.2410   39.6650 C   0  0  0  0  0  0  0  0  0  0  0  0
   36.4100   28.1590   40.5840 C   0  0  0  0  0  0  0  0  0  0  0  0
   36.9440   28.4310   41.8570 C   0  0  0  0  0  0  0  0  0  0  0  0
   37.4170   29.6660   42.1050 N   0  0  0  0  0  0  0  0  0  0  0  0
   37.4060   30.6620   41.1980 C   0  0  0  0  0  0  0  0  0  0  0  0
   36.9030   30.4380   39.9730 N   0  0  0  0  0  0  0  0  0  0  0  0
   34.4910   29.0300   38.3540 C   0  0  0  0  0  0  0  0  0  0  0  0
   33.8840   29.1500   39.4550 O   0  0  0  0  0  0  0  0  0  0  0  0
   35.9000   29.0670   38.3400 N   0  0  0  0  0  0  0  0  0  0  0  0
   36.0030   27.2050   40.2720 H   0  0  0  0  0  0  0  0  0  0  0  0
   37.8050   31.6340   41.4670 H   0  0  0  0  0  0  0  0  0  0  0  0
   36.3720   28.9710   37.4310 H   0  0  0  0  0  0  0  0  0  0  0  0
   33.6410   28.8580   37.1480 C   0  0  0  0  0  0  0  0  0  0  0  0
   32.3820   29.2410   36.9180 C   0  0  0  0  0  0  0  0  0  0  0  0
   31.8500   29.7630   37.7010 H   0  0  0  0  0  0  0  0  0  0  0  0
   31.8080   28.9610   35.7040 C   0  0  0  0  0  3  0  0  0  0  0  0
   32.6060   28.2780   34.7730 C   0  0  0  0  0  3  0  0  0  0  0  0
   34.2140   28.0680   35.7480 S   0  0  0  0  0  0  0  0  0  0  0  0
   36.9210   27.3040   42.7860 C   0  0  0  0  0  0  0  0  0  0  0  0
   38.1240   27.2810   43.4940 F   0  0  0  0  0  0  0  0  0  0  0  0
   36.9350   26.1410   42.0150 F   0  0  0  0  0  0  0  0  0  0  0  0
   35.9040   27.3420   43.6780 F   0  0  0  0  0  0  0  0  0  0  0  0
  1  6  2  0  0  0  0
  1  2  1  0  0  0  0
  2  3  2  0  0  0  0
  3  4  1  0  0  0  0
  3 19  1  0  0  0  0
  5 11  1  0  0  0  0
  5  4  2  0  0  0  0
  6  5  1  0  0  0  0
  7  8  2  0  0  0  0
  9  7  1  0  0  0  0
  9  1  1  0  0  0  0
 10  2  1  0  0  0  0
 12  9  1  0  0  0  0
 13  7  1  0  0  0  0
 14 13  2  0  0  0  0
 14 15  1  0  0  0  0
 16 14  1  0  0  0  0
 17 16  2  0  0  0  0
 17 18  1  0  0  0  0
 18 13  1  0  0  0  0
 19 20  1  0  0  0  0
 19 22  1  0  0  0  0
 21 19  1  0  0  0  0
M  END
>  <minimizedAffinity>
-4.69801664

$$$$

 OpenBabel03252503293D

 22 23  0  0  0  0  0  0  0  0999 V2000
   38.1540   29.7840   41.8140 C   0  0  0  0  0  0  0  0  0  0  0  0
   37.6940   30.7110   40.8420 C   0  0  0  0  0  0  0  0  0  0  0  0
   38.4240   31.9100   40.7460 C   0  0  0  0  0  0  0  0  0  0  0  0
   39.4780   32.0880   41.5640 N   0  0  0  0  0  0  0  0  0  0  0  0
   39.8760   31.1770   42.4720 C   0  0  0  0  0  0  0  0  0  0  0  0
   39.2020   30.0210   42.5910 N   0  0  0  0  0  0  0  0  0  0  0  0
   37.7750   27.6450   40.9360 C   0  0  0  0  0  0  0  0  0  0  0  0
   38.5520   28.0240   40.0160 O   0  0  0  0  0  0  0  0  0  0  0  0
   37.4780   28.5310   41.9920 N   0  0  0  0  0  0  0  0  0  0  0  0
   36.8310   30.4590   40.2380 H   0  0  0  0  0  0  0  0  0  0  0  0
   40.7350   31.3870   43.0990 H   0  0  0  0  0  0  0  0  0  0  0  0
   36.8460   28.1980   42.7320 H   0  0  0  0  0  0  0  0  0  0  0  0
   37.2340   26.2670   40.8160 C   0  0  0  0  0  0  0  0  0  0  0  0
   37.1520   25.2900   41.7250 C   0  0  0  0  0  0  0  0  0  0  0  0
   37.5240   25.4800   42.7210 H   0  0  0  0  0  0  0  0  0  0  0  0
   36.6020   24.0860   41.3650 C   0  0  0  0  0  3  0  0  0  0  0  0
   36.1560   23.9680   40.0400 C   0  0  0  0  0  3  0  0  0  0  0  0
   36.5760   25.6810   39.3550 S   0  0  0  0  0  0  0  0  0  0  0  0
   37.9340   32.8480   39.7390 C   0  0  0  0  0  0  0  0  0  0  0  0
   36.6650   32.4400   39.3250 F   0  0  0  0  0  0  0  0  0  0  0  0
   38.7450   32.6990   38.6140 F   0  0  0  0  0  0  0  0  0  0  0  0
   37.8480   34.1280   40.1720 F   0  0  0  0  0  0  0  0  0  0  0  0
  1  9  1  0  0  0  0
  1  6  1  0  0  0  0
  2  1  2  0  0  0  0
  3  2  1  0  0  0  0
  3  4  2  0  0  0  0
  4  5  1  0  0  0  0
  5  6  2  0  0  0  0
  5 11  1  0  0  0  0
  7  9  1  0  0  0  0
  8  7  2  0  0  0  0
  9 12  1  0  0  0  0
 10  2  1  0  0  0  0
 13  7  1  0  0  0  0
 13 14  2  0  0  0  0
 14 15  1  0  0  0  0
 16 14  1  0  0  0  0
 17 16  2  0  0  0  0
 18 17  1  0  0  0  0
 18 13  1  0  0  0  0
 19 22  1  0  0  0  0
 19  3  1  0  0  0  0
 20 19  1  0  0  0  0
 21 19  1  0  0  0  0
M  END
>  <minimizedAffinity>
-4.68272114

$$$$

 OpenBabel03252503293D

 22 23  0  0  0  0  0  0  0  0999 V2000
   37.7030   31.1690   37.6790 C   0  0  0  0  0  0  0  0  0  0  0  0
   37.1960   30.9270   38.9830 C   0  0  0  0  0  0  0  0  0  0  0  0
   36.1870   29.9500   39.0750 C   0  0  0  0  0  0  0  0  0  0  0  0
   35.7840   29.3340   37.9490 N   0  0  0  0  0  0  0  0  0  0  0  0
   36.2970   29.5990   36.7320 C   0  0  0  0  0  0  0  0  0  0  0  0
   37.2620   30.5250   36.6070 N   0  0  0  0  0  0  0  0  0  0  0  0
   39.9810   31.6620   37.9250 C   0  0  0  0  0  0  0  0  0  0  0  0
   40.0480   30.5010   38.4170 O   0  0  0  0  0  0  0  0  0  0  0  0
   38.7350   32.1460   37.4770 N   0  0  0  0  0  0  0  0  0  0  0  0
   37.5980   31.4860   39.8190 H   0  0  0  0  0  0  0  0  0  0  0  0
   35.9240   29.0630   35.8660 H   0  0  0  0  0  0  0  0  0  0  0  0
   38.7050   33.0930   37.0760 H   0  0  0  0  0  0  0  0  0  0  0  0
   41.2520   32.4270   37.8620 C   0  0  0  0  0  0  0  0  0  0  0  0
   41.5310   33.6720   38.2600 C   0  0  0  0  0  0  0  0  0  0  0  0
   40.7410   34.2600   38.7050 H   0  0  0  0  0  0  0  0  0  0  0  0
   42.8020   34.1600   38.0920 C   0  0  0  0  0  3  0  0  0  0  0  0
   43.7360   33.2960   37.5010 C   0  0  0  0  0  3  0  0  0  0  0  0
   42.6770   31.7540   37.2070 S   0  0  0  0  0  0  0  0  0  0  0  0
   35.6800   29.7170   40.4250 C   0  0  0  0  0  0  0  0  0  0  0  0
   36.3620   28.6330   40.9800 F   0  0  0  0  0  0  0  0  0  0  0  0
   34.3600   29.2850   40.2960 F   0  0  0  0  0  0  0  0  0  0  0  0
   35.8180   30.7760   41.2580 F   0  0  0  0  0  0  0  0  0  0  0  0
  1  2  1  0  0  0  0
  2  3  2  0  0  0  0
  2 10  1  0  0  0  0
  3 19  1  0  0  0  0
  4  3  1  0  0  0  0
  5  4  2  0  0  0  0
  6  5  1  0  0  0  0
  6  1  2  0  0  0  0
  7  8  2  0  0  0  0
  9  1  1  0  0  0  0
  9  7  1  0  0  0  0
 11  5  1  0  0  0  0
 12  9  1  0  0  0  0
 13  7  1  0  0  0  0
 13 14  2  0  0  0  0
 14 15  1  0  0  0  0
 16 14  1  0  0  0  0
 17 16  2  0  0  0  0
 18 17  1  0  0  0  0
 18 13  1  0  0  0  0
 19 20  1  0  0  0  0
 19 22  1  0  0  0  0
 21 19  1  0  0  0  0
M  END
>  <minimizedAffinity>
-4.652493

$$$$

 OpenBabel03252503293D

 22 23  0  0  0  0  0  0  0  0999 V2000
   37.4760   30.2960   40.1940 C   0  0  0  0  0  0  0  0  0  0  0  0
   37.8020   29.4190   41.2610 C   0  0  0  0  0  0  0  0  0  0  0  0
   36.7620   28.5800   41.7030 C   0  0  0  0  0  0  0  0  0  0  0  0
   35.5630   28.6690   41.0990 N   0  0  0  0  0  0  0  0  0  0  0  0
   35.3030   29.5190   40.0870 C   0  0  0  0  0  0  0  0  0  0  0  0
   36.2720   30.3340   39.6390 N   0  0  0  0  0  0  0  0  0  0  0  0
   39.4050   30.4980   38.8780 C   0  0  0  0  0  0  0  0  0  0  0  0
   39.2780   29.2510   38.7250 O   0  0  0  0  0  0  0  0  0  0  0  0
   38.4670   31.1920   39.6690 N   0  0  0  0  0  0  0  0  0  0  0  0
   38.8040   29.4350   41.6720 H   0  0  0  0  0  0  0  0  0  0  0  0
   34.3120   29.5370   39.6460 H   0  0  0  0  0  0  0  0  0  0  0  0
   38.5890   32.2080   39.7760 H   0  0  0  0  0  0  0  0  0  0  0  0
   40.5600   31.1320   38.1920 C   0  0  0  0  0  0  0  0  0  0  0  0
   41.4760   30.6030   37.3770 C   0  0  0  0  0  0  0  0  0  0  0  0
   41.4130   29.5490   37.1450 H   0  0  0  0  0  0  0  0  0  0  0  0
   42.4600   31.4080   36.8620 C   0  0  0  0  0  3  0  0  0  0  0  0
   42.4300   32.7590   37.2400 C   0  0  0  0  0  3  0  0  0  0  0  0
   40.9120   32.7930   38.3710 S   0  0  0  0  0  0  0  0  0  0  0  0
   37.1200   27.6860   42.8020 C   0  0  0  0  0  0  0  0  0  0  0  0
   35.9740   27.4150   43.5520 F   0  0  0  0  0  0  0  0  0  0  0  0
   37.9490   28.4090   43.6610 F   0  0  0  0  0  0  0  0  0  0  0  0
   37.6570   26.5090   42.4050 F   0  0  0  0  0  0  0  0  0  0  0  0
  1  2  1  0  0  0  0
  2 10  1  0  0  0  0
  2  3  2  0  0  0  0
  3 19  1  0  0  0  0
  4  3  1  0  0  0  0
  5  4  2  0  0  0  0
  6  5  1  0  0  0  0
  6  1  2  0  0  0  0
  7  9  1  0  0  0  0
  8  7  2  0  0  0  0
  9 12  1  0  0  0  0
  9  1  1  0  0  0  0
 11  5  1  0  0  0  0
 13 18  1  0  0  0  0
 13  7  1  0  0  0  0
 14 13  2  0  0  0  0
 15 14  1  0  0  0  0
 16 17  2  0  0  0  0
 16 14  1  0  0  0  0
 17 18  1  0  0  0  0
 19 20  1  0  0  0  0
 19 21  1  0  0  0  0
 22 19  1  0  0  0  0
M  END
>  <minimizedAffinity>
-4.60280609

$$$$

 OpenBabel03252503293D

 22 23  0  0  0  0  0  0  0  0999 V2000
   38.8260   28.6870   41.8970 C   0  0  0  0  0  0  0  0  0  0  0  0
   38.4830   27.4060   41.3920 C   0  0  0  0  0  0  0  0  0  0  0  0
   37.5210   26.6940   42.1330 C   0  0  0  0  0  0  0  0  0  0  0  0
   37.0100   27.2640   43.2390 N   0  0  0  0  0  0  0  0  0  0  0  0
   37.3690   28.4860   43.6790 C   0  0  0  0  0  0  0  0  0  0  0  0
   38.2840   29.1940   42.9960 N   0  0  0  0  0  0  0  0  0  0  0  0
   39.2540   30.0490   40.0390 C   0  0  0  0  0  0  0  0  0  0  0  0
   38.0540   29.7960   39.7370 O   0  0  0  0  0  0  0  0  0  0  0  0
   39.7970   29.4940   41.2150 N   0  0  0  0  0  0  0  0  0  0  0  0
   38.9610   27.0480   40.4890 H   0  0  0  0  0  0  0  0  0  0  0  0
   36.9160   28.8840   44.5800 H   0  0  0  0  0  0  0  0  0  0  0  0
   40.7750   29.7180   41.4420 H   0  0  0  0  0  0  0  0  0  0  0  0
   39.9980   30.9300   39.1020 C   0  0  0  0  0  0  0  0  0  0  0  0
   40.6360   30.6380   37.9650 C   0  0  0  0  0  0  0  0  0  0  0  0
   40.6420   29.6120   37.6260 H   0  0  0  0  0  0  0  0  0  0  0  0
   41.2570   31.6430   37.2690 C   0  0  0  0  0  3  0  0  0  0  0  0
   41.1750   32.9320   37.8160 C   0  0  0  0  0  3  0  0  0  0  0  0
   40.1580   32.6060   39.3790 S   0  0  0  0  0  0  0  0  0  0  0  0
   37.1830   25.3780   41.5950 C   0  0  0  0  0  0  0  0  0  0  0  0
   36.4390   24.6800   42.5480 F   0  0  0  0  0  0  0  0  0  0  0  0
   38.3770   24.6660   41.4790 F   0  0  0  0  0  0  0  0  0  0  0  0
   36.4700   25.4170   40.4440 F   0  0  0  0  0  0  0  0  0  0  0  0
  1  6  1  0  0  0  0
  2  1  2  0  0  0  0
  2  3  1  0  0  0  0
  3  4  2  0  0  0  0
  4  5  1  0  0  0  0
  5 11  1  0  0  0  0
  6  5  2  0  0  0  0
  7  9  1  0  0  0  0
  8  7  2  0  0  0  0
  9 12  1  0  0  0  0
  9  1  1  0  0  0  0
 10  2  1  0  0  0  0
 13 18  1  0  0  0  0
 13  7  1  0  0  0  0
 14 13  2  0  0  0  0
 15 14  1  0  0  0  0
 16 17  2  0  0  0  0
 16 14  1  0  0  0  0
 17 18  1  0  0  0  0
 19  3  1  0  0  0  0
 19 20  1  0  0  0  0
 21 19  1  0  0  0  0
 22 19  1  0  0  0  0
M  END
>  <minimizedAffinity>
-4.49511862

$$$$

 OpenBabel03252503293D

 22 23  0  0  0  0  0  0  0  0999 V2000
   40.9700   32.5540   37.7150 C   0  0  0  0  0  0  0  0  0  0  0  0
   41.7350   31.5390   37.0850 C   0  0  0  0  0  0  0  0  0  0  0  0
   43.0930   31.8420   36.8680 C   0  0  0  0  0  0  0  0  0  0  0  0
   43.5540   33.0430   37.2610 N   0  0  0  0  0  0  0  0  0  0  0  0
   42.7850   33.9760   37.8560 C   0  0  0  0  0  0  0  0  0  0  0  0
   41.4860   33.7200   38.0790 N   0  0  0  0  0  0  0  0  0  0  0  0
   39.3970   31.4670   39.0710 C   0  0  0  0  0  0  0  0  0  0  0  0
   40.4140   30.9980   39.6540 O   0  0  0  0  0  0  0  0  0  0  0  0
   39.5750   32.3440   37.9820 N   0  0  0  0  0  0  0  0  0  0  0  0
   41.2550   30.6070   36.8120 H   0  0  0  0  0  0  0  0  0  0  0  0
   43.2240   34.9240   38.1460 H   0  0  0  0  0  0  0  0  0  0  0  0
   38.7320   32.7170   37.5250 H   0  0  0  0  0  0  0  0  0  0  0  0
   38.0770   31.0410   39.6010 C   0  0  0  0  0  0  0  0  0  0  0  0
   37.4350   31.4050   40.7150 C   0  0  0  0  0  0  0  0  0  0  0  0
   37.9080   32.1230   41.3700 H   0  0  0  0  0  0  0  0  0  0  0  0
   36.2060   30.8620   40.9880 C   0  0  0  0  0  3  0  0  0  0  0  0
   35.7030   29.9410   40.0560 C   0  0  0  0  0  3  0  0  0  0  0  0
   37.0980   29.9110   38.7770 S   0  0  0  0  0  0  0  0  0  0  0  0
   43.8620   30.7820   36.2200 C   0  0  0  0  0  0  0  0  0  0  0  0
   43.0510   30.1540   35.2720 F   0  0  0  0  0  0  0  0  0  0  0  0
   44.1070   29.8070   37.1860 F   0  0  0  0  0  0  0  0  0  0  0  0
   44.9850   31.2150   35.5990 F   0  0  0  0  0  0  0  0  0  0  0  0
  1  9  1  0  0  0  0
  1  6  1  0  0  0  0
  2  1  2  0  0  0  0
  3  2  1  0  0  0  0
  3  4  2  0  0  0  0
  4  5  1  0  0  0  0
  5  6  2  0  0  0  0
  5 11  1  0  0  0  0
  7 13  1  0  0  0  0
  7  8  2  0  0  0  0
  9  7  1  0  0  0  0
 10  2  1  0  0  0  0
 12  9  1  0  0  0  0
 13 14  2  0  0  0  0
 14 16  1  0  0  0  0
 14 15  1  0  0  0  0
 17 16  2  0  0  0  0
 18 13  1  0  0  0  0
 18 17  1  0  0  0  0
 19  3  1  0  0  0  0
 19 21  1  0  0  0  0
 20 19  1  0  0  0  0
 22 19  1  0  0  0  0
M  END
>  <minimizedAffinity>
-4.47257423

$$$$
