
     RDKit          3D

 21 22  0  0  0  0  0  0  0  0999 V2000
   44.5352   36.0380   44.5689 C   0  0  0  0  0  0  0  0  0  0  0  0
   45.2463   36.0149   43.3567 C   0  0  0  0  0  0  0  0  0  0  0  0
   46.1439   34.9539   43.1400 C   0  0  0  0  0  0  0  0  0  0  0  0
   46.2756   34.0110   44.1104 N   0  0  0  0  0  0  0  0  0  0  0  0
   45.5675   34.0696   45.2720 C   0  0  0  0  0  0  0  0  0  0  0  0
   44.7117   35.0791   45.4814 N   0  0  0  0  0  0  0  0  0  0  0  0
   46.3778   34.1997   40.7989 C   0  0  0  0  0  0  0  0  0  0  0  0
   45.2199   33.7261   40.9349 O   0  0  0  0  0  0  0  0  0  0  0  0
   46.9061   34.8489   41.9427 N   0  0  0  0  0  0  0  0  0  0  0  0
   43.8612   36.8732   44.6825 H   0  0  0  0  0  0  0  0  0  0  0  0
   45.1672   36.7401   42.5718 H   0  0  0  0  0  0  0  0  0  0  0  0
   45.7268   33.2802   45.9989 H   0  0  0  0  0  0  0  0  0  0  0  0
   47.8890   35.2392   41.8354 H   0  0  0  0  0  0  0  0  0  0  0  0
   47.0868   34.0813   39.5790 C   0  0  0  0  0  0  0  0  0  0  0  0
   47.8345   34.8587   38.7658 C   0  0  0  0  0  0  0  0  0  0  0  0
   47.9198   35.8649   39.1546 H   0  0  0  0  0  0  0  0  0  0  0  0
   48.3892   34.4036   37.6213 C   0  0  0  0  0  0  0  0  0  0  0  0
   48.1219   33.0298   37.3370 C   0  0  0  0  0  0  0  0  0  0  0  0
   47.0919   32.4798   38.7304 S   0  0  0  0  0  0  0  0  0  0  0  0
   48.9864   35.0512   36.9858 H   0  0  0  0  0  0  0  0  0  0  0  0
   48.6116   32.6124   36.3183 H   0  0  0  0  0  0  0  0  0  0  0  0
  1  6  2  0
  2  1  1  0
  3  2  2  0
  3  4  1  0
  4  5  2  0
  5  6  1  0
  7  8  2  0
  7  9  1  0
  9  3  1  0
  1 10  1  0
  2 11  1  0
  5 12  1  0
  9 13  1  0
 14 15  2  0
 15 16  1  0
 15 17  1  0
 17 18  2  0
 18 19  1  0
 19 14  1  0
 17 20  1  0
 18 21  1  0
  7 14  1  0
M  ISO  4  10  14  11  14  12  14  16  15
M  END
>  <DihAtoms>  (1) 
7,6,13,14

>  <DihDeg>  (1) 
179.9997425972097

$$$$
