
 OpenBabel03252503343D

 19 20  0  0  0  0  0  0  0  0999 V2000
   46.8460   33.8570   40.7320 C   0  0  0  0  0  0  0  0  0  0  0  0
   45.7600   33.2380   40.8870 O   0  0  0  0  0  0  0  0  0  0  0  0
   47.2030   34.7280   41.7910 N   0  0  0  0  0  0  0  0  0  0  0  0
   48.1260   35.2420   41.6690 H   0  0  0  0  0  0  0  0  0  0  0  0
   44.6330   36.0020   44.1790 C   0  0  0  0  0  0  0  0  0  0  0  0
   45.4240   35.9280   43.0200 C   0  0  0  0  0  0  0  0  0  0  0  0
   46.3600   34.8820   42.9270 C   0  0  0  0  0  0  0  0  0  0  0  0
   46.4490   34.0010   43.9590 N   0  0  0  0  0  0  0  0  0  0  0  0
   45.6640   34.1090   45.0660 C   0  0  0  0  0  0  0  0  0  0  0  0
   44.7720   35.1040   45.1570 N   0  0  0  0  0  0  0  0  0  0  0  0
   43.9330   36.8230   44.1970 H   0  0  0  0  0  0  0  0  0  0  0  0
   45.3810   36.6030   42.1890 H   0  0  0  0  0  0  0  0  0  0  0  0
   45.7920   33.3680   45.8480 H   0  0  0  0  0  0  0  0  0  0  0  0
   47.6400   33.6780   39.5730 C   0  0  0  0  0  0  0  0  0  0  0  0
   47.9990   34.3810   38.4770 C   0  0  0  0  0  0  0  0  0  0  0  0
   47.5520   35.3670   38.4800 H   0  0  0  0  0  0  0  0  0  0  0  0
   48.8130   33.8850   37.5200 C   0  0  0  0  0  3  0  0  0  0  0  0
   49.2650   32.5510   37.7600 C   0  0  0  0  0  3  0  0  0  0  0  0
   48.4950   32.0970   39.3420 S   0  0  0  0  0  0  0  0  0  0  0  0
  1  2  2  0  0  0  0
  1  3  1  0  0  0  0
  3  7  1  0  0  0  0
  4  3  1  0  0  0  0
  5 11  1  0  0  0  0
  5 10  1  0  0  0  0
  6  5  2  0  0  0  0
  7  6  1  0  0  0  0
  7  8  2  0  0  0  0
  8  9  1  0  0  0  0
  9 10  2  0  0  0  0
  9 13  1  0  0  0  0
 12  6  1  0  0  0  0
 14  1  1  0  0  0  0
 15 16  1  0  0  0  0
 15 14  2  0  0  0  0
 17 18  2  0  0  0  0
 17 15  1  0  0  0  0
 18 19  1  0  0  0  0
 19 14  1  0  0  0  0
M  END
>  <minimizedAffinity>
-3.97411227

>  <minimizedRMSD>
0.612655997

$$$$
