
 OpenBabel03242523173D

 24 26  0  0  0  0  0  0  0  0999 V2000
   36.3510   27.8140   40.0100 C   0  0  0  0  0  0  0  0  0  0  0  0
   36.9870   27.4580   41.1710 C   0  0  0  0  0  0  0  0  0  0  0  0
   37.9820   26.5030   41.0310 C   0  0  0  0  0  0  0  0  0  0  0  0
   38.2420   26.0000   39.7560 N   0  0  0  0  0  0  0  0  0  0  0  0
   37.5840   26.3910   38.6790 C   0  0  0  0  0  0  0  0  0  0  0  0
   36.6070   27.3210   38.7730 N   0  0  0  0  0  0  0  0  0  0  0  0
   38.5460   26.1530   41.8820 H   0  0  0  0  0  0  0  0  0  0  0  0
   37.9040   25.9050   37.7670 H   0  0  0  0  0  0  0  0  0  0  0  0
   36.6590   27.9180   42.4750 C   0  0  0  0  0  0  0  0  0  0  0  0
   37.1900   27.5930   43.6800 C   0  0  0  0  0  0  0  0  0  0  0  0
   37.6310   28.9640   43.1730 C   0  0  0  0  0  0  0  0  0  0  0  0
   35.7320   28.6350   42.3690 H   0  0  0  0  0  0  0  0  0  0  0  0
   38.0770   26.9150   43.7810 H   0  0  0  0  0  0  0  0  0  0  0  0
   36.6380   27.6190   44.6670 H   0  0  0  0  0  0  0  0  0  0  0  0
   37.2170   29.8220   43.6740 H   0  0  0  0  0  0  0  0  0  0  0  0
   38.6030   29.0860   42.6790 H   0  0  0  0  0  0  0  0  0  0  0  0
   35.3590   28.8920   39.8750 C   0  0  0  0  0  0  0  0  0  0  0  0
   34.1640   29.2110   39.9010 O   0  0  0  0  0  0  0  0  0  0  0  0
   36.2470   30.1830   39.5650 C   0  0  0  0  0  0  0  0  0  0  0  0
   36.4570   31.0890   40.4490 C   0  0  0  0  0  0  0  0  0  0  0  0
   36.1430   31.2240   41.5030 H   0  0  0  0  0  0  0  0  0  0  0  0
   37.2230   32.1920   40.1650 C   0  0  0  0  0  3  0  0  0  0  0  0
   37.7410   32.2650   38.8950 C   0  0  0  0  0  3  0  0  0  0  0  0
   37.0680   30.6630   38.1390 S   0  0  0  0  0  0  0  0  0  0  0  0
  1  2  1  0  0  0  0
  2  9  1  0  0  0  0
  3  2  2  0  0  0  0
  3  7  1  0  0  0  0
  4  3  1  0  0  0  0
  5  6  1  0  0  0  0
  5  4  2  0  0  0  0
  6  1  2  0  0  0  0
  8  5  1  0  0  0  0
  9 11  1  0  0  0  0
  9 10  1  0  0  0  0
 10 13  1  0  0  0  0
 10 14  1  0  0  0  0
 11 15  1  0  0  0  0
 11 10  1  0  0  0  0
 12  9  1  0  0  0  0
 16 11  1  0  0  0  0
 17 18  2  0  0  0  0
 17  1  1  0  0  0  0
 19 17  1  0  0  0  0
 19 20  2  0  0  0  0
 20 21  1  0  0  0  0
 22 20  1  0  0  0  0
 23 22  2  0  0  0  0
 24 23  1  0  0  0  0
 24 19  1  0  0  0  0
M  END
>  <minimizedAffinity>
-4.37649107

$$$$

 OpenBabel03242523173D

 24 26  0  0  0  0  0  0  0  0999 V2000
   38.2070   28.3850   42.5670 C   0  0  0  0  0  0  0  0  0  0  0  0
   38.0750   29.5570   41.8690 C   0  0  0  0  0  0  0  0  0  0  0  0
   39.2670   30.1800   41.5280 C   0  0  0  0  0  0  0  0  0  0  0  0
   40.4630   29.5760   41.9160 N   0  0  0  0  0  0  0  0  0  0  0  0
   40.5120   28.4420   42.5920 C   0  0  0  0  0  0  0  0  0  0  0  0
   39.3730   27.8030   42.9430 N   0  0  0  0  0  0  0  0  0  0  0  0
   39.2760   31.1080   40.9760 H   0  0  0  0  0  0  0  0  0  0  0  0
   41.5160   28.1070   42.8160 H   0  0  0  0  0  0  0  0  0  0  0  0
   36.8510   30.2030   41.5500 C   0  0  0  0  0  0  0  0  0  0  0  0
   36.5850   31.1910   40.6580 C   0  0  0  0  0  0  0  0  0  0  0  0
   36.1230   29.8120   40.1920 C   0  0  0  0  0  0  0  0  0  0  0  0
   36.0310   29.7770   42.2780 H   0  0  0  0  0  0  0  0  0  0  0  0
   37.3640   31.5930   39.9590 H   0  0  0  0  0  0  0  0  0  0  0  0
   35.7540   31.9520   40.7520 H   0  0  0  0  0  0  0  0  0  0  0  0
   35.0610   29.6330   40.1900 H   0  0  0  0  0  0  0  0  0  0  0  0
   36.7360   29.2280   39.4950 H   0  0  0  0  0  0  0  0  0  0  0  0
   37.1070   27.4770   42.9260 C   0  0  0  0  0  0  0  0  0  0  0  0
   36.1510   27.2530   43.6790 O   0  0  0  0  0  0  0  0  0  0  0  0
   37.2410   26.2880   41.8690 C   0  0  0  0  0  0  0  0  0  0  0  0
   37.0400   25.0640   42.1980 C   0  0  0  0  0  0  0  0  0  0  0  0
   36.7640   24.5550   43.1430 H   0  0  0  0  0  0  0  0  0  0  0  0
   37.1600   24.0540   41.2760 C   0  0  0  0  0  3  0  0  0  0  0  0
   37.5020   24.4300   40.0000 C   0  0  0  0  0  3  0  0  0  0  0  0
   37.6410   26.3090   40.2020 S   0  0  0  0  0  0  0  0  0  0  0  0
  1 17  1  0  0  0  0
  1  6  1  0  0  0  0
  2  1  2  0  0  0  0
  3  2  1  0  0  0  0
  3  4  2  0  0  0  0
  4  5  1  0  0  0  0
  5  8  1  0  0  0  0
  5  6  2  0  0  0  0
  7  3  1  0  0  0  0
  9  2  1  0  0  0  0
  9 12  1  0  0  0  0
 10 14  1  0  0  0  0
 10  9  1  0  0  0  0
 11 10  1  0  0  0  0
 11  9  1  0  0  0  0
 13 10  1  0  0  0  0
 15 11  1  0  0  0  0
 16 11  1  0  0  0  0
 17 18  2  0  0  0  0
 19 20  2  0  0  0  0
 19 17  1  0  0  0  0
 20 21  1  0  0  0  0
 22 20  1  0  0  0  0
 23 24  1  0  0  0  0
 23 22  2  0  0  0  0
 24 19  1  0  0  0  0
M  END
>  <minimizedAffinity>
-4.30563927

$$$$

 OpenBabel03242523173D

 24 26  0  0  0  0  0  0  0  0999 V2000
   37.7350   29.2600   42.3440 C   0  0  0  0  0  0  0  0  0  0  0  0
   37.1160   29.7960   41.2450 C   0  0  0  0  0  0  0  0  0  0  0  0
   37.7330   30.9150   40.7060 C   0  0  0  0  0  0  0  0  0  0  0  0
   38.8970   31.3860   41.3130 N   0  0  0  0  0  0  0  0  0  0  0  0
   39.4370   30.8150   42.3760 C   0  0  0  0  0  0  0  0  0  0  0  0
   38.8670   29.7220   42.9310 N   0  0  0  0  0  0  0  0  0  0  0  0
   37.3280   31.4150   39.8380 H   0  0  0  0  0  0  0  0  0  0  0  0
   40.3380   31.3020   42.7260 H   0  0  0  0  0  0  0  0  0  0  0  0
   35.8870   29.3560   40.6840 C   0  0  0  0  0  0  0  0  0  0  0  0
   35.3510   29.5800   39.4580 C   0  0  0  0  0  0  0  0  0  0  0  0
   35.9220   28.1730   39.6240 C   0  0  0  0  0  0  0  0  0  0  0  0
   35.3070   28.7750   41.5260 H   0  0  0  0  0  0  0  0  0  0  0  0
   35.9050   30.1290   38.6530 H   0  0  0  0  0  0  0  0  0  0  0  0
   34.2450   29.6070   39.2210 H   0  0  0  0  0  0  0  0  0  0  0  0
   35.2110   27.3680   39.7010 H   0  0  0  0  0  0  0  0  0  0  0  0
   36.9200   27.9310   39.2400 H   0  0  0  0  0  0  0  0  0  0  0  0
   37.3550   28.0060   43.0110 C   0  0  0  0  0  0  0  0  0  0  0  0
   36.5050   27.4030   43.6790 O   0  0  0  0  0  0  0  0  0  0  0  0
   38.5920   27.0380   42.7280 C   0  0  0  0  0  0  0  0  0  0  0  0
   39.2420   26.4730   43.6800 C   0  0  0  0  0  0  0  0  0  0  0  0
   39.1560   26.4850   44.7840 H   0  0  0  0  0  0  0  0  0  0  0  0
   40.3050   25.6440   43.4180 C   0  0  0  0  0  3  0  0  0  0  0  0
   40.6240   25.4600   42.0950 C   0  0  0  0  0  3  0  0  0  0  0  0
   39.3150   26.5420   41.2550 S   0  0  0  0  0  0  0  0  0  0  0  0
  1  6  1  0  0  0  0
  1 17  1  0  0  0  0
  2  1  2  0  0  0  0
  3  2  1  0  0  0  0
  3  4  2  0  0  0  0
  4  5  1  0  0  0  0
  5  8  1  0  0  0  0
  5  6  2  0  0  0  0
  7  3  1  0  0  0  0
  9  2  1  0  0  0  0
  9 12  1  0  0  0  0
 10 11  1  0  0  0  0
 10  9  1  0  0  0  0
 11 15  1  0  0  0  0
 11  9  1  0  0  0  0
 13 10  1  0  0  0  0
 14 10  1  0  0  0  0
 16 11  1  0  0  0  0
 17 18  2  0  0  0  0
 19 17  1  0  0  0  0
 19 20  2  0  0  0  0
 20 21  1  0  0  0  0
 22 20  1  0  0  0  0
 23 22  2  0  0  0  0
 24 23  1  0  0  0  0
 24 19  1  0  0  0  0
M  END
>  <minimizedAffinity>
-4.27663374

$$$$

 OpenBabel03242523173D

 24 26  0  0  0  0  0  0  0  0999 V2000
   38.2170   29.4160   40.6430 C   0  0  0  0  0  0  0  0  0  0  0  0
   38.9160   28.6760   41.5610 C   0  0  0  0  0  0  0  0  0  0  0  0
   39.9060   27.8600   41.0320 C   0  0  0  0  0  0  0  0  0  0  0  0
   40.0970   27.8630   39.6510 N   0  0  0  0  0  0  0  0  0  0  0  0
   39.3810   28.6050   38.8250 C   0  0  0  0  0  0  0  0  0  0  0  0
   38.4070   29.4150   39.3000 N   0  0  0  0  0  0  0  0  0  0  0  0
   40.5160   27.2370   41.6680 H   0  0  0  0  0  0  0  0  0  0  0  0
   39.6530   28.4920   37.7840 H   0  0  0  0  0  0  0  0  0  0  0  0
   38.6580   28.6210   42.9570 C   0  0  0  0  0  0  0  0  0  0  0  0
   37.5560   28.2080   43.6300 C   0  0  0  0  0  0  0  0  0  0  0  0
   38.7060   27.2060   43.6780 C   0  0  0  0  0  0  0  0  0  0  0  0
   39.5890   29.0900   43.5030 H   0  0  0  0  0  0  0  0  0  0  0  0
   36.6710   27.7550   43.1110 H   0  0  0  0  0  0  0  0  0  0  0  0
   37.2270   28.5860   44.6450 H   0  0  0  0  0  0  0  0  0  0  0  0
   39.2220   27.1050   44.6180 H   0  0  0  0  0  0  0  0  0  0  0  0
   38.7210   26.3450   42.9980 H   0  0  0  0  0  0  0  0  0  0  0  0
   37.2170   30.4470   40.9610 C   0  0  0  0  0  0  0  0  0  0  0  0
   36.0630   30.6910   41.3350 O   0  0  0  0  0  0  0  0  0  0  0  0
   37.9910   31.8170   40.6970 C   0  0  0  0  0  0  0  0  0  0  0  0
   37.4320   32.8080   40.1040 C   0  0  0  0  0  0  0  0  0  0  0  0
   36.4250   32.9790   39.6730 H   0  0  0  0  0  0  0  0  0  0  0  0
   38.1130   33.9800   39.8850 C   0  0  0  0  0  3  0  0  0  0  0  0
   39.4110   34.0250   40.3330 C   0  0  0  0  0  3  0  0  0  0  0  0
   39.5920   32.2940   41.0840 S   0  0  0  0  0  0  0  0  0  0  0  0
  1 17  1  0  0  0  0
  1  2  1  0  0  0  0
  2  9  1  0  0  0  0
  3  2  2  0  0  0  0
  3  7  1  0  0  0  0
  4  3  1  0  0  0  0
  5  6  1  0  0  0  0
  5  4  2  0  0  0  0
  6  1  2  0  0  0  0
  8  5  1  0  0  0  0
  9 12  1  0  0  0  0
  9 10  1  0  0  0  0
  9 11  1  0  0  0  0
 10 11  1  0  0  0  0
 10 14  1  0  0  0  0
 11 15  1  0  0  0  0
 13 10  1  0  0  0  0
 16 11  1  0  0  0  0
 17 18  2  0  0  0  0
 19 17  1  0  0  0  0
 19 24  1  0  0  0  0
 20 19  2  0  0  0  0
 21 20  1  0  0  0  0
 22 20  1  0  0  0  0
 22 23  2  0  0  0  0
 23 24  1  0  0  0  0
M  END
>  <minimizedAffinity>
-4.25221348

$$$$

 OpenBabel03242523173D

 24 26  0  0  0  0  0  0  0  0999 V2000
   37.9210   30.2640   39.5870 C   0  0  0  0  0  0  0  0  0  0  0  0
   38.5080   31.5010   39.5260 C   0  0  0  0  0  0  0  0  0  0  0  0
   39.6510   31.5750   38.7440 C   0  0  0  0  0  0  0  0  0  0  0  0
   40.0930   30.4150   38.1070 N   0  0  0  0  0  0  0  0  0  0  0  0
   39.4730   29.2530   38.2150 C   0  0  0  0  0  0  0  0  0  0  0  0
   38.3550   29.1390   38.9670 N   0  0  0  0  0  0  0  0  0  0  0  0
   40.1900   32.5030   38.6260 H   0  0  0  0  0  0  0  0  0  0  0  0
   39.9430   28.4510   37.6610 H   0  0  0  0  0  0  0  0  0  0  0  0
   38.0950   32.6560   40.2430 C   0  0  0  0  0  0  0  0  0  0  0  0
   38.5260   33.9400   40.1640 C   0  0  0  0  0  0  0  0  0  0  0  0
   37.1690   33.7140   39.5010 C   0  0  0  0  0  0  0  0  0  0  0  0
   37.3010   32.3080   41.0390 H   0  0  0  0  0  0  0  0  0  0  0  0
   39.2770   34.2740   39.4020 H   0  0  0  0  0  0  0  0  0  0  0  0
   38.5090   34.6900   41.0110 H   0  0  0  0  0  0  0  0  0  0  0  0
   36.3090   34.1170   40.0090 H   0  0  0  0  0  0  0  0  0  0  0  0
   37.0990   33.5790   38.4150 H   0  0  0  0  0  0  0  0  0  0  0  0
   36.6370   29.9600   40.2370 C   0  0  0  0  0  0  0  0  0  0  0  0
   35.4060   30.0810   40.2080 O   0  0  0  0  0  0  0  0  0  0  0  0
   37.0570   29.1090   41.5210 C   0  0  0  0  0  0  0  0  0  0  0  0
   36.4280   28.0450   41.8640 C   0  0  0  0  0  0  0  0  0  0  0  0
   35.5590   27.4960   41.4490 H   0  0  0  0  0  0  0  0  0  0  0  0
   36.8030   27.3260   42.9720 C   0  0  0  0  0  3  0  0  0  0  0  0
   37.8770   27.8090   43.6790 C   0  0  0  0  0  3  0  0  0  0  0  0
   38.3130   29.3480   42.6630 S   0  0  0  0  0  0  0  0  0  0  0  0
  1 17  1  0  0  0  0
  2  1  1  0  0  0  0
  2  9  1  0  0  0  0
  3  2  2  0  0  0  0
  4  5  2  0  0  0  0
  4  3  1  0  0  0  0
  5  6  1  0  0  0  0
  6  1  2  0  0  0  0
  7  3  1  0  0  0  0
  8  5  1  0  0  0  0
  9 12  1  0  0  0  0
 10  9  1  0  0  0  0
 10 14  1  0  0  0  0
 11 15  1  0  0  0  0
 11 10  1  0  0  0  0
 11  9  1  0  0  0  0
 13 10  1  0  0  0  0
 16 11  1  0  0  0  0
 17 19  1  0  0  0  0
 18 17  2  0  0  0  0
 19 20  2  0  0  0  0
 19 24  1  0  0  0  0
 20 22  1  0  0  0  0
 21 20  1  0  0  0  0
 22 23  2  0  0  0  0
 24 23  1  0  0  0  0
M  END
>  <minimizedAffinity>
-4.2458272

$$$$

 OpenBabel03242523173D

 24 26  0  0  0  0  0  0  0  0999 V2000
   37.5560   30.0200   41.1300 C   0  0  0  0  0  0  0  0  0  0  0  0
   38.2550   29.3430   42.0950 C   0  0  0  0  0  0  0  0  0  0  0  0
   39.3340   30.0270   42.6340 C   0  0  0  0  0  0  0  0  0  0  0  0
   39.6080   31.3100   42.1600 N   0  0  0  0  0  0  0  0  0  0  0  0
   38.8880   31.9010   41.2220 C   0  0  0  0  0  0  0  0  0  0  0  0
   37.8280   31.2680   40.6710 N   0  0  0  0  0  0  0  0  0  0  0  0
   39.9510   29.5850   43.4020 H   0  0  0  0  0  0  0  0  0  0  0  0
   39.2310   32.8940   40.9650 H   0  0  0  0  0  0  0  0  0  0  0  0
   38.0160   28.0060   42.5120 C   0  0  0  0  0  0  0  0  0  0  0  0
   38.4350   27.3430   43.6190 C   0  0  0  0  0  0  0  0  0  0  0  0
   36.9660   27.7560   43.6800 C   0  0  0  0  0  0  0  0  0  0  0  0
   37.4040   27.4770   41.6570 H   0  0  0  0  0  0  0  0  0  0  0  0
   39.0120   27.8480   44.4370 H   0  0  0  0  0  0  0  0  0  0  0  0
   38.6060   26.2270   43.6890 H   0  0  0  0  0  0  0  0  0  0  0  0
   36.2380   26.9700   43.5810 H   0  0  0  0  0  0  0  0  0  0  0  0
   36.6670   28.6590   44.2270 H   0  0  0  0  0  0  0  0  0  0  0  0
   36.3050   29.5670   40.5050 C   0  0  0  0  0  0  0  0  0  0  0  0
   35.1050   29.3050   40.6580 O   0  0  0  0  0  0  0  0  0  0  0  0
   36.7130   29.3200   38.9810 C   0  0  0  0  0  0  0  0  0  0  0  0
   35.9880   29.7400   38.0090 C   0  0  0  0  0  0  0  0  0  0  0  0
   35.0330   30.2990   37.9460 H   0  0  0  0  0  0  0  0  0  0  0  0
   36.3540   29.5180   36.7050 C   0  0  0  0  0  3  0  0  0  0  0  0
   37.5260   28.8300   36.5080 C   0  0  0  0  0  3  0  0  0  0  0  0
   38.0680   28.5230   38.2980 S   0  0  0  0  0  0  0  0  0  0  0  0
  1  2  1  0  0  0  0
  2  9  1  0  0  0  0
  2  3  2  0  0  0  0
  3  7  1  0  0  0  0
  4  3  1  0  0  0  0
  5  4  2  0  0  0  0
  6  1  2  0  0  0  0
  6  5  1  0  0  0  0
  8  5  1  0  0  0  0
  9 10  1  0  0  0  0
  9 11  1  0  0  0  0
 10 11  1  0  0  0  0
 10 14  1  0  0  0  0
 10 13  1  0  0  0  0
 11 16  1  0  0  0  0
 12  9  1  0  0  0  0
 15 11  1  0  0  0  0
 17 18  2  0  0  0  0
 17  1  1  0  0  0  0
 19 17  1  0  0  0  0
 20 19  2  0  0  0  0
 21 20  1  0  0  0  0
 22 20  1  0  0  0  0
 23 22  2  0  0  0  0
 23 24  1  0  0  0  0
 24 19  1  0  0  0  0
M  END
>  <minimizedAffinity>
-4.19794559

$$$$

 OpenBabel03242523173D

 24 26  0  0  0  0  0  0  0  0999 V2000
   37.9370   29.3410   40.7230 C   0  0  0  0  0  0  0  0  0  0  0  0
   38.0540   28.0940   41.2820 C   0  0  0  0  0  0  0  0  0  0  0  0
   39.3310   27.5560   41.2630 C   0  0  0  0  0  0  0  0  0  0  0  0
   40.3580   28.3070   40.6910 N   0  0  0  0  0  0  0  0  0  0  0  0
   40.1690   29.5060   40.1680 C   0  0  0  0  0  0  0  0  0  0  0  0
   38.9380   30.0670   40.1680 N   0  0  0  0  0  0  0  0  0  0  0  0
   39.5340   26.5800   41.6780 H   0  0  0  0  0  0  0  0  0  0  0  0
   41.0660   29.9570   39.7650 H   0  0  0  0  0  0  0  0  0  0  0  0
   36.9860   27.3050   41.7880 C   0  0  0  0  0  0  0  0  0  0  0  0
   37.0080   26.2010   42.5760 C   0  0  0  0  0  0  0  0  0  0  0  0
   36.5870   27.4670   43.3180 C   0  0  0  0  0  0  0  0  0  0  0  0
   35.9890   27.7350   41.3350 H   0  0  0  0  0  0  0  0  0  0  0  0
   37.9570   25.7950   43.0130 H   0  0  0  0  0  0  0  0  0  0  0  0
   36.2270   25.3820   42.5770 H   0  0  0  0  0  0  0  0  0  0  0  0
   35.5490   27.5470   43.5910 H   0  0  0  0  0  0  0  0  0  0  0  0
   37.3140   28.0210   43.9250 H   0  0  0  0  0  0  0  0  0  0  0  0
   36.7240   30.1730   40.7390 C   0  0  0  0  0  0  0  0  0  0  0  0
   36.0800   31.0550   41.3210 O   0  0  0  0  0  0  0  0  0  0  0  0
   35.9320   29.7090   39.4340 C   0  0  0  0  0  0  0  0  0  0  0  0
   34.7740   29.1590   39.5030 C   0  0  0  0  0  0  0  0  0  0  0  0
   34.0990   28.8890   40.3400 H   0  0  0  0  0  0  0  0  0  0  0  0
   34.1070   28.7660   38.3700 C   0  0  0  0  0  3  0  0  0  0  0  0
   34.7460   28.9940   37.1750 C   0  0  0  0  0  3  0  0  0  0  0  0
   36.3510   29.8030   37.7740 S   0  0  0  0  0  0  0  0  0  0  0  0
  1 17  1  0  0  0  0
  1  2  1  0  0  0  0
  2  9  1  0  0  0  0
  3  2  2  0  0  0  0
  3  7  1  0  0  0  0
  4  3  1  0  0  0  0
  5  6  1  0  0  0  0
  5  4  2  0  0  0  0
  6  1  2  0  0  0  0
  8  5  1  0  0  0  0
  9 10  1  0  0  0  0
  9 11  1  0  0  0  0
 10 14  1  0  0  0  0
 10 13  1  0  0  0  0
 10 11  1  0  0  0  0
 11 15  1  0  0  0  0
 11 16  1  0  0  0  0
 12  9  1  0  0  0  0
 17 18  2  0  0  0  0
 19 20  2  0  0  0  0
 19 17  1  0  0  0  0
 20 21  1  0  0  0  0
 22 20  1  0  0  0  0
 23 24  1  0  0  0  0
 23 22  2  0  0  0  0
 24 19  1  0  0  0  0
M  END
>  <minimizedAffinity>
-4.1326623

$$$$

 OpenBabel03242523173D

 24 26  0  0  0  0  0  0  0  0999 V2000
   38.5150   31.8130   40.9210 C   0  0  0  0  0  0  0  0  0  0  0  0
   37.5640   30.8250   40.9260 C   0  0  0  0  0  0  0  0  0  0  0  0
   37.7750   29.8060   41.8430 C   0  0  0  0  0  0  0  0  0  0  0  0
   38.9060   29.8720   42.6570 N   0  0  0  0  0  0  0  0  0  0  0  0
   39.7830   30.8580   42.5940 C   0  0  0  0  0  0  0  0  0  0  0  0
   39.6130   31.8710   41.7150 N   0  0  0  0  0  0  0  0  0  0  0  0
   37.0860   28.9800   41.9300 H   0  0  0  0  0  0  0  0  0  0  0  0
   40.6040   30.7610   43.2910 H   0  0  0  0  0  0  0  0  0  0  0  0
   36.4600   30.7270   40.0370 C   0  0  0  0  0  0  0  0  0  0  0  0
   36.4280   30.5070   38.6980 C   0  0  0  0  0  0  0  0  0  0  0  0
   36.0300   29.2860   39.5240 C   0  0  0  0  0  0  0  0  0  0  0  0
   35.4880   30.9520   40.6600 H   0  0  0  0  0  0  0  0  0  0  0  0
   37.3530   30.2870   38.1040 H   0  0  0  0  0  0  0  0  0  0  0  0
   35.6220   30.8730   37.9940 H   0  0  0  0  0  0  0  0  0  0  0  0
   34.9880   29.0140   39.5150 H   0  0  0  0  0  0  0  0  0  0  0  0
   36.7590   28.4920   39.7250 H   0  0  0  0  0  0  0  0  0  0  0  0
   38.4490   33.0570   40.1410 C   0  0  0  0  0  0  0  0  0  0  0  0
   37.8550   34.1240   39.9380 O   0  0  0  0  0  0  0  0  0  0  0  0
   39.6900   32.9430   39.1440 C   0  0  0  0  0  0  0  0  0  0  0  0
   39.7220   32.0750   38.1990 C   0  0  0  0  0  0  0  0  0  0  0  0
   39.0250   31.2860   37.8540 H   0  0  0  0  0  0  0  0  0  0  0  0
   40.7990   31.9900   37.3510 C   0  0  0  0  0  3  0  0  0  0  0  0
   41.8230   32.8780   37.5730 C   0  0  0  0  0  3  0  0  0  0  0  0
   41.1510   33.8360   39.0630 S   0  0  0  0  0  0  0  0  0  0  0  0
  1  2  2  0  0  0  0
  1  6  1  0  0  0  0
  2  3  1  0  0  0  0
  3  7  1  0  0  0  0
  3  4  2  0  0  0  0
  5  4  1  0  0  0  0
  5  8  1  0  0  0  0
  6  5  2  0  0  0  0
  9 12  1  0  0  0  0
  9  2  1  0  0  0  0
 10 11  1  0  0  0  0
 10  9  1  0  0  0  0
 11 16  1  0  0  0  0
 11  9  1  0  0  0  0
 13 10  1  0  0  0  0
 14 10  1  0  0  0  0
 15 11  1  0  0  0  0
 17  1  1  0  0  0  0
 18 17  2  0  0  0  0
 19 17  1  0  0  0  0
 20 19  2  0  0  0  0
 21 20  1  0  0  0  0
 22 23  2  0  0  0  0
 22 20  1  0  0  0  0
 23 24  1  0  0  0  0
 24 19  1  0  0  0  0
M  END
>  <minimizedAffinity>
-4.1147418

$$$$

 OpenBabel03242523173D

 24 26  0  0  0  0  0  0  0  0999 V2000
   37.0080   26.5500   41.4040 C   0  0  0  0  0  0  0  0  0  0  0  0
   36.6090   27.0990   40.2130 C   0  0  0  0  0  0  0  0  0  0  0  0
   36.4190   26.1950   39.1790 C   0  0  0  0  0  0  0  0  0  0  0  0
   36.6460   24.8430   39.4320 N   0  0  0  0  0  0  0  0  0  0  0  0
   37.0330   24.3850   40.6100 C   0  0  0  0  0  0  0  0  0  0  0  0
   37.2280   25.2330   41.6450 N   0  0  0  0  0  0  0  0  0  0  0  0
   36.1040   26.5230   38.1990 H   0  0  0  0  0  0  0  0  0  0  0  0
   37.1660   23.3120   40.6430 H   0  0  0  0  0  0  0  0  0  0  0  0
   36.4590   28.4870   39.9450 C   0  0  0  0  0  0  0  0  0  0  0  0
   35.8030   29.1210   38.9410 C   0  0  0  0  0  0  0  0  0  0  0  0
   35.0630   29.1720   40.2750 C   0  0  0  0  0  0  0  0  0  0  0  0
   37.0950   29.0680   40.7460 H   0  0  0  0  0  0  0  0  0  0  0  0
   35.1910   28.5680   38.1810 H   0  0  0  0  0  0  0  0  0  0  0  0
   36.0740   30.1360   38.5210 H   0  0  0  0  0  0  0  0  0  0  0  0
   35.0440   30.1220   40.7820 H   0  0  0  0  0  0  0  0  0  0  0  0
   34.2460   28.4710   40.4830 H   0  0  0  0  0  0  0  0  0  0  0  0
   37.1460   27.2750   42.6760 C   0  0  0  0  0  0  0  0  0  0  0  0
   36.5790   27.7340   43.6750 O   0  0  0  0  0  0  0  0  0  0  0  0
   38.7100   27.5820   42.7650 C   0  0  0  0  0  0  0  0  0  0  0  0
   39.4680   26.9930   43.6170 C   0  0  0  0  0  0  0  0  0  0  0  0
   39.2970   26.2330   44.4040 H   0  0  0  0  0  0  0  0  0  0  0  0
   40.8120   27.2690   43.6800 C   0  0  0  0  0  3  0  0  0  0  0  0
   41.2860   28.2010   42.7890 C   0  0  0  0  0  3  0  0  0  0  0  0
   39.6970   28.6530   41.8600 S   0  0  0  0  0  0  0  0  0  0  0  0
  1  6  1  0  0  0  0
  1 17  1  0  0  0  0
  2  1  2  0  0  0  0
  3  4  2  0  0  0  0
  3  2  1  0  0  0  0
  4  5  1  0  0  0  0
  5  8  1  0  0  0  0
  5  6  2  0  0  0  0
  7  3  1  0  0  0  0
  9  2  1  0  0  0  0
  9 11  1  0  0  0  0
  9 12  1  0  0  0  0
 10  9  1  0  0  0  0
 10 11  1  0  0  0  0
 11 16  1  0  0  0  0
 11 15  1  0  0  0  0
 13 10  1  0  0  0  0
 14 10  1  0  0  0  0
 17 19  1  0  0  0  0
 17 18  2  0  0  0  0
 19 20  2  0  0  0  0
 20 22  1  0  0  0  0
 20 21  1  0  0  0  0
 23 22  2  0  0  0  0
 24 19  1  0  0  0  0
 24 23  1  0  0  0  0
M  END
>  <minimizedAffinity>
-4.11100435

$$$$
