
 OpenBabel03252503333D

 19 20  0  0  0  0  0  0  0  0999 V2000
   47.4900   32.2540   42.7350 C   0  0  0  0  0  0  0  0  0  0  0  0
   46.2930   31.9310   42.5150 O   0  0  0  0  0  0  0  0  0  0  0  0
   47.6720   33.4980   43.3880 N   0  0  0  0  0  0  0  0  0  0  0  0
   48.6810   33.7680   43.5870 H   0  0  0  0  0  0  0  0  0  0  0  0
   44.9490   36.0500   43.3070 C   0  0  0  0  0  0  0  0  0  0  0  0
   46.0550   35.2980   42.8750 C   0  0  0  0  0  0  0  0  0  0  0  0
   46.5560   34.3080   43.7410 C   0  0  0  0  0  0  0  0  0  0  0  0
   45.9470   34.1330   44.9430 N   0  0  0  0  0  0  0  0  0  0  0  0
   44.8770   34.8840   45.3240 C   0  0  0  0  0  0  0  0  0  0  0  0
   44.3970   35.8270   44.5020 N   0  0  0  0  0  0  0  0  0  0  0  0
   44.6070   36.7940   42.6040 H   0  0  0  0  0  0  0  0  0  0  0  0
   46.5590   35.4090   41.9360 H   0  0  0  0  0  0  0  0  0  0  0  0
   44.4440   34.6850   46.2990 H   0  0  0  0  0  0  0  0  0  0  0  0
   48.5650   31.4170   42.3480 C   0  0  0  0  0  0  0  0  0  0  0  0
   49.1650   30.2830   42.7710 C   0  0  0  0  0  0  0  0  0  0  0  0
   48.6910   29.8990   43.6650 H   0  0  0  0  0  0  0  0  0  0  0  0
   50.2210   29.7300   42.1350 C   0  0  0  0  0  3  0  0  0  0  0  0
   50.6530   30.4400   40.9750 C   0  0  0  0  0  3  0  0  0  0  0  0
   49.5190   31.8560   40.8710 S   0  0  0  0  0  0  0  0  0  0  0  0
  1  3  1  0  0  0  0
  2  1  2  0  0  0  0
  3  4  1  0  0  0  0
  3  7  1  0  0  0  0
  5 10  1  0  0  0  0
  6  5  2  0  0  0  0
  6  7  1  0  0  0  0
  7  8  2  0  0  0  0
  8  9  1  0  0  0  0
  9 13  1  0  0  0  0
 10  9  2  0  0  0  0
 11  5  1  0  0  0  0
 12  6  1  0  0  0  0
 14  1  1  0  0  0  0
 14 15  2  0  0  0  0
 15 16  1  0  0  0  0
 17 15  1  0  0  0  0
 18 17  2  0  0  0  0
 19 18  1  0  0  0  0
 19 14  1  0  0  0  0
M  END
>  <minimizedAffinity>
-3.31214786

>  <minimizedRMSD>
3.47630095

$$$$
