
 OpenBabel03252503333D

 19 20  0  0  0  0  0  0  0  0999 V2000
   46.7010   33.4330   43.4770 C   0  0  0  0  0  0  0  0  0  0  0  0
   45.4880   33.1050   43.4150 O   0  0  0  0  0  0  0  0  0  0  0  0
   47.3480   33.1360   44.7030 N   0  0  0  0  0  0  0  0  0  0  0  0
   48.3760   33.4010   44.7540 H   0  0  0  0  0  0  0  0  0  0  0  0
   45.2660   32.5970   47.7530 C   0  0  0  0  0  0  0  0  0  0  0  0
   45.9390   33.2850   46.7300 C   0  0  0  0  0  0  0  0  0  0  0  0
   46.6380   32.5250   45.7740 C   0  0  0  0  0  0  0  0  0  0  0  0
   46.6240   31.1710   45.8900 N   0  0  0  0  0  0  0  0  0  0  0  0
   45.9590   30.5420   46.8980 C   0  0  0  0  0  0  0  0  0  0  0  0
   45.2930   31.2630   47.8100 N   0  0  0  0  0  0  0  0  0  0  0  0
   44.7470   33.2280   48.4580 H   0  0  0  0  0  0  0  0  0  0  0  0
   45.9710   34.3490   46.6080 H   0  0  0  0  0  0  0  0  0  0  0  0
   45.9940   29.4570   46.9240 H   0  0  0  0  0  0  0  0  0  0  0  0
   47.3570   34.0540   42.3860 C   0  0  0  0  0  0  0  0  0  0  0  0
   48.2470   35.0470   42.1740 C   0  0  0  0  0  0  0  0  0  0  0  0
   48.5520   35.5040   43.1060 H   0  0  0  0  0  0  0  0  0  0  0  0
   48.6790   35.3960   40.9430 C   0  0  0  0  0  3  0  0  0  0  0  0
   48.1180   34.6290   39.8770 C   0  0  0  0  0  3  0  0  0  0  0  0
   47.0060   33.4570   40.7110 S   0  0  0  0  0  0  0  0  0  0  0  0
  1  3  1  0  0  0  0
  2  1  2  0  0  0  0
  3  4  1  0  0  0  0
  3  7  1  0  0  0  0
  5 10  1  0  0  0  0
  5 11  1  0  0  0  0
  6  5  2  0  0  0  0
  7  8  2  0  0  0  0
  7  6  1  0  0  0  0
  8  9  1  0  0  0  0
  9 13  1  0  0  0  0
  9 10  2  0  0  0  0
 12  6  1  0  0  0  0
 14  1  1  0  0  0  0
 15 14  2  0  0  0  0
 15 16  1  0  0  0  0
 17 15  1  0  0  0  0
 18 19  1  0  0  0  0
 18 17  2  0  0  0  0
 19 14  1  0  0  0  0
M  END
>  <minimizedAffinity>
-4.07162571

>  <minimizedRMSD>
3.60251474

$$$$
