
 OpenBabel03252503333D

 19 20  0  0  0  0  0  0  0  0999 V2000
   46.3580   33.9900   40.8990 C   0  0  0  0  0  0  0  0  0  0  0  0
   45.3310   33.3100   41.1570 O   0  0  0  0  0  0  0  0  0  0  0  0
   46.8060   34.8330   41.9470 N   0  0  0  0  0  0  0  0  0  0  0  0
   47.6800   35.4000   41.7370 H   0  0  0  0  0  0  0  0  0  0  0  0
   44.5170   35.8800   44.7030 C   0  0  0  0  0  0  0  0  0  0  0  0
   45.1590   35.8980   43.4530 C   0  0  0  0  0  0  0  0  0  0  0  0
   46.1070   34.8940   43.1850 C   0  0  0  0  0  0  0  0  0  0  0  0
   46.3510   33.9630   44.1450 N   0  0  0  0  0  0  0  0  0  0  0  0
   45.7070   33.9810   45.3450 C   0  0  0  0  0  0  0  0  0  0  0  0
   44.8030   34.9360   45.6030 N   0  0  0  0  0  0  0  0  0  0  0  0
   43.8000   36.6720   44.8540 H   0  0  0  0  0  0  0  0  0  0  0  0
   44.9910   36.6150   42.6740 H   0  0  0  0  0  0  0  0  0  0  0  0
   45.9550   33.2040   46.0610 H   0  0  0  0  0  0  0  0  0  0  0  0
   47.0070   33.9030   39.6440 C   0  0  0  0  0  0  0  0  0  0  0  0
   48.1310   34.3640   39.0540 C   0  0  0  0  0  0  0  0  0  0  0  0
   48.7070   34.9770   39.7340 H   0  0  0  0  0  0  0  0  0  0  0  0
   48.4620   34.0740   37.7760 C   0  0  0  0  0  3  0  0  0  0  0  0
   47.5240   33.2400   37.0950 C   0  0  0  0  0  3  0  0  0  0  0  0
   46.2290   32.9240   38.3310 S   0  0  0  0  0  0  0  0  0  0  0  0
  1  2  2  0  0  0  0
  1  3  1  0  0  0  0
  3  7  1  0  0  0  0
  4  3  1  0  0  0  0
  5 11  1  0  0  0  0
  5 10  1  0  0  0  0
  6  5  2  0  0  0  0
  7  6  1  0  0  0  0
  7  8  2  0  0  0  0
  8  9  1  0  0  0  0
  9 10  2  0  0  0  0
  9 13  1  0  0  0  0
 12  6  1  0  0  0  0
 14  1  1  0  0  0  0
 15 14  2  0  0  0  0
 15 16  1  0  0  0  0
 17 15  1  0  0  0  0
 18 17  2  0  0  0  0
 18 19  1  0  0  0  0
 19 14  1  0  0  0  0
M  END
>  <minimizedAffinity>
-4.28426647

>  <minimizedRMSD>
0.23357977

$$$$
