
 OpenBabel03252507453D

 34 36  0  0  0  0  0  0  0  0999 V2000
   47.3990   34.5390   40.8790 C   0  0  0  0  0  0  0  0  0  0  0  0
   47.6820   35.3470   40.1640 H   0  0  0  0  0  0  0  0  0  0  0  0
   46.7370   33.8510   40.3170 H   0  0  0  0  0  0  0  0  0  0  0  0
   48.6310   33.8690   41.3290 C   0  0  0  0  0  0  0  0  0  0  0  0
   48.7910   32.5430   40.9490 C   0  0  0  0  0  0  0  0  0  0  0  0
   49.9070   31.8090   41.3120 C   0  0  0  0  0  0  0  0  0  0  0  0
   50.8510   32.4690   42.0720 N   0  0  0  0  0  0  0  0  0  0  0  0
   50.6670   33.7610   42.4250 C   0  0  0  0  0  0  0  0  0  0  0  0
   49.5780   34.4320   42.0560 N   0  0  0  0  0  0  0  0  0  0  0  0
   50.0150   30.7750   41.0080 H   0  0  0  0  0  0  0  0  0  0  0  0
   51.4620   34.1860   43.0180 H   0  0  0  0  0  0  0  0  0  0  0  0
   47.5260   31.7220   39.9540 S   0  0  0  0  0  0  0  0  0  0  0  0
   46.1280   31.3120   40.8810 C   0  0  0  0  0  0  0  0  0  0  0  0
   44.8670   30.9380   40.5520 C   0  0  0  0  0  0  0  0  0  0  0  0
   44.6350   30.8670   39.5010 H   0  0  0  0  0  0  0  0  0  0  0  0
   43.9500   30.6710   41.5260 C   0  0  0  0  0  3  0  0  0  0  0  0
   44.3550   30.7950   42.8840 C   0  0  0  0  0  3  0  0  0  0  0  0
   46.1630   31.3290   42.7420 S   0  0  0  0  0  0  0  0  0  0  0  0
   46.5700   35.0670   42.0180 C   0  0  0  0  0  0  0  0  0  0  0  0
   46.8690   34.6610   43.0030 H   0  0  0  0  0  0  0  0  0  0  0  0
   46.8110   36.1670   42.0930 H   0  0  0  0  0  0  0  0  0  0  0  0
   45.1110   34.9880   41.8020 C   0  0  0  0  0  0  0  0  0  0  0  0
   44.2240   35.5170   42.7780 C   0  0  0  0  0  0  0  0  0  0  0  0
   42.5650   35.1820   42.0600 S   0  0  0  0  0  0  0  0  0  0  0  0
   43.3660   34.3690   40.5350 C   0  0  0  0  0  0  0  0  0  0  0  0
   44.4820   34.4690   40.7770 N   0  0  0  0  0  0  0  0  0  0  0  0
   44.4780   35.9970   43.7110 H   0  0  0  0  0  0  0  0  0  0  0  0
   42.6280   33.8390   39.4870 O   0  0  0  0  0  0  0  0  0  0  0  0
   40.6580   34.1610   37.7430 O   0  0  0  0  0  0  0  0  0  0  0  0
   41.7180   34.9160   38.5350 P   0  0  0  0  0  0  0  0  0  0  0  0
   40.9410   35.9890   39.5930 O   0  0  0  0  0  0  0  0  0  0  0  0
   40.1630   36.3990   39.1720 H   0  0  0  0  0  0  0  0  0  0  0  0
   42.7510   35.7870   37.5210 O   0  0  0  0  0  0  0  0  0  0  0  0
   42.9630   36.6430   37.9730 H   0  0  0  0  0  0  0  0  0  0  0  0
  1  4  1  0  0  0  0
  1 19  1  0  0  0  0
  2  1  1  0  0  0  0
  3  1  1  0  0  0  0
  4  9  1  0  0  0  0
  5  6  1  0  0  0  0
  5  4  2  0  0  0  0
  6  7  2  0  0  0  0
  7  8  1  0  0  0  0
  8 11  1  0  0  0  0
  9  8  2  0  0  0  0
 10  6  1  0  0  0  0
 12 13  1  0  0  0  0
 12  5  1  0  0  0  0
 13 18  1  0  0  0  0
 14 13  2  0  0  0  0
 14 16  1  0  0  0  0
 15 14  1  0  0  0  0
 16 17  2  0  0  0  0
 18 17  1  0  0  0  0
 19 21  1  0  0  0  0
 19 20  1  0  0  0  0
 22 19  1  0  0  0  0
 22 23  2  0  0  0  0
 23 27  1  0  0  0  0
 24 23  1  0  0  0  0
 25 26  2  0  0  0  0
 25 24  1  0  0  0  0
 26 22  1  0  0  0  0
 28 25  1  0  0  0  0
 29 30  2  0  0  0  0
 30 28  1  0  0  0  0
 30 31  1  0  0  0  0
 32 31  1  0  0  0  0
 33 34  1  0  0  0  0
 33 30  1  0  0  0  0
M  END
>  <minimizedAffinity>
-4.33025265

>  <minimizedRMSD>
0.960929036

$$$$
