
 OpenBabel03252508023D

 39 42  0  0  1  0  0  0  0  0999 V2000
   44.2220   34.3650   41.5340 C   0  0  0  0  0  0  0  0  0  0  0  0
   45.0960   34.2520   40.6160 O   0  0  0  0  0  0  0  0  0  0  0  0
   42.0170   33.2960   41.1100 C   0  0  0  0  0  0  0  0  0  0  0  0
   42.7750   34.4160   41.3070 C   0  0  0  0  0  0  0  0  0  0  0  0
   42.1250   35.6650   41.2880 C   0  0  0  0  0  0  0  0  0  0  0  0
   40.7800   35.8170   41.0840 C   0  0  0  0  0  0  0  0  0  0  0  0
   40.0210   34.6920   40.8870 C   0  0  0  0  0  0  0  0  0  0  0  0
   40.6410   33.4770   40.9040 C   0  0  0  0  0  0  0  0  0  0  0  0
   42.6470   36.6030   41.4250 H   0  0  0  0  0  0  0  0  0  0  0  0
   40.2810   36.7570   41.0660 H   0  0  0  0  0  0  0  0  0  0  0  0
   38.9550   34.6620   40.7150 H   0  0  0  0  0  0  0  0  0  0  0  0
   40.0780   32.5580   40.7530 H   0  0  0  0  0  0  0  0  0  0  0  0
   42.6980   31.7320   41.1880 S   0  0  0  0  0  0  0  0  0  0  0  0
   41.5490   30.9150   40.5090 O   0  0  0  0  0  0  0  0  0  0  0  0
   42.7960   31.2440   42.5880 O   0  0  0  0  0  0  0  0  0  0  0  0
   43.7440   31.0220   40.1670 C   0  0  0  0  0  0  0  0  0  0  0  0
   44.7960   30.0580   40.0080 C   0  0  0  0  0  0  0  0  0  0  0  0
   45.0350   29.5620   40.9320 H   0  0  0  0  0  0  0  0  0  0  0  0
   45.3850   29.8900   38.8350 C   0  0  0  0  0  3  0  0  0  0  0  0
   45.0210   30.6250   37.7330 C   0  0  0  0  0  3  0  0  0  0  0  0
   43.7310   31.6670   38.3470 S   0  0  0  0  0  0  0  0  0  0  0  0
   44.5720   34.4570   42.9260 C   0  0  0  0  0  0  0  0  0  0  0  0
   44.3000   35.7190   43.5570 C   0  0  0  0  0  0  0  0  0  0  0  0
   44.6290   35.8220   44.8970 C   0  0  0  0  0  0  0  0  0  0  0  0
   45.1770   34.7460   45.5220 N   0  0  0  0  0  0  0  0  0  0  0  0
   45.4160   33.5630   44.8710 C   0  0  0  0  0  0  0  0  0  0  0  0
   45.1140   33.4610   43.6260 N   0  0  0  0  0  0  0  0  0  0  0  0
   43.8820   36.5970   43.1460 H   0  0  0  0  0  0  0  0  0  0  0  0
   44.4650   36.7370   45.4770 H   0  0  0  0  0  0  0  0  0  0  0  0
   46.0090   32.4470   45.6290 C   0  0  1  0  0  0  0  0  0  0  0  0
   46.9660   32.7490   46.7590 C   0  0  0  0  0  0  0  0  0  0  0  0
   45.5440   32.3450   47.0390 C   0  0  1  0  0  0  0  0  0  0  0  0
   46.2350   31.5200   45.0850 H   0  0  0  0  0  0  0  0  0  0  0  0
   47.8010   32.0420   46.9400 H   0  0  0  0  0  0  0  0  0  0  0  0
   47.2800   33.8080   46.8570 H   0  0  0  0  0  0  0  0  0  0  0  0
   45.4140   31.3370   47.4970 H   0  0  0  0  0  0  0  0  0  0  0  0
   44.7650   33.4090   47.6290 N   0  0  0  0  0  0  0  0  0  0  0  0
   43.8640   33.5940   47.1750 H   0  0  0  0  0  0  0  0  0  0  0  0
   45.2990   34.2260   47.9390 H   0  0  0  0  0  0  0  0  0  0  0  0
  1 22  1  0  0  0  0
  2  1  2  0  0  0  0
  3 13  1  0  0  0  0
  3  4  1  0  0  0  0
  4  1  1  0  0  0  0
  5  4  2  0  0  0  0
  5  9  1  0  0  0  0
  6  5  1  0  0  0  0
  7  8  1  0  0  0  0
  7  6  2  0  0  0  0
  8  3  2  0  0  0  0
 10  6  1  0  0  0  0
 11  7  1  0  0  0  0
 12  8  1  0  0  0  0
 13 15  2  0  0  0  0
 14 13  2  0  0  0  0
 16 13  1  0  0  0  0
 17 16  2  0  0  0  0
 17 18  1  0  0  0  0
 19 17  1  0  0  0  0
 20 21  1  0  0  0  0
 20 19  2  0  0  0  0
 21 16  1  0  0  0  0
 22 23  2  0  0  0  0
 22 27  1  0  0  0  0
 23 24  1  0  0  0  0
 24 29  1  0  0  0  0
 24 25  2  0  0  0  0
 26 25  1  0  0  0  0
 26 30  1  0  0  0  0
 27 26  2  0  0  0  0
 28 23  1  0  0  0  0
 30 33  1  6  0  0  0
 30 31  1  0  0  0  0
 30 32  1  0  0  0  0
 31 35  1  0  0  0  0
 31 34  1  0  0  0  0
 31 32  1  0  0  0  0
 32 36  1  1  0  0  0
 32 37  1  0  0  0  0
 37 39  1  0  0  0  0
 38 37  1  0  0  0  0
M  END
>  <minimizedAffinity>
-5.75647926

>  <minimizedRMSD>
1.24288845

$$$$
