
 OpenBabel03252508023D

 39 42  0  0  1  0  0  0  0  0999 V2000
   44.2520   34.3830   41.5590 C   0  0  0  0  0  0  0  0  0  0  0  0
   45.1360   34.3060   40.6470 O   0  0  0  0  0  0  0  0  0  0  0  0
   42.0760   33.2530   41.1470 C   0  0  0  0  0  0  0  0  0  0  0  0
   42.8060   34.3950   41.3220 C   0  0  0  0  0  0  0  0  0  0  0  0
   42.1280   35.6280   41.2680 C   0  0  0  0  0  0  0  0  0  0  0  0
   40.7810   35.7440   41.0510 C   0  0  0  0  0  0  0  0  0  0  0  0
   40.0500   34.5970   40.8760 C   0  0  0  0  0  0  0  0  0  0  0  0
   40.6980   33.3970   40.9270 C   0  0  0  0  0  0  0  0  0  0  0  0
   42.6270   36.5800   41.3860 H   0  0  0  0  0  0  0  0  0  0  0  0
   40.2610   36.6710   41.0080 H   0  0  0  0  0  0  0  0  0  0  0  0
   38.9860   34.5380   40.6980 H   0  0  0  0  0  0  0  0  0  0  0  0
   40.1570   32.4620   40.7940 H   0  0  0  0  0  0  0  0  0  0  0  0
   42.7920   31.7080   41.2670 S   0  0  0  0  0  0  0  0  0  0  0  0
   41.7410   30.8720   40.4620 O   0  0  0  0  0  0  0  0  0  0  0  0
   42.7650   31.1960   42.6610 O   0  0  0  0  0  0  0  0  0  0  0  0
   43.9550   31.0470   40.3440 C   0  0  0  0  0  0  0  0  0  0  0  0
   44.3170   30.5430   39.0510 C   0  0  0  0  0  0  0  0  0  0  0  0
   43.5040   30.6060   38.3480 H   0  0  0  0  0  0  0  0  0  0  0  0
   45.5180   30.0330   38.8350 C   0  0  0  0  0  3  0  0  0  0  0  0
   46.4600   29.9640   39.8320 C   0  0  0  0  0  3  0  0  0  0  0  0
   45.6300   30.6680   41.2270 S   0  0  0  0  0  0  0  0  0  0  0  0
   44.5880   34.4690   42.9550 C   0  0  0  0  0  0  0  0  0  0  0  0
   44.3040   35.7250   43.5910 C   0  0  0  0  0  0  0  0  0  0  0  0
   44.6200   35.8230   44.9350 C   0  0  0  0  0  0  0  0  0  0  0  0
   45.1680   34.7460   45.5590 N   0  0  0  0  0  0  0  0  0  0  0  0
   45.4190   33.5680   44.9030 C   0  0  0  0  0  0  0  0  0  0  0  0
   45.1290   33.4720   43.6550 N   0  0  0  0  0  0  0  0  0  0  0  0
   43.8850   36.6040   43.1810 H   0  0  0  0  0  0  0  0  0  0  0  0
   44.4460   36.7330   45.5190 H   0  0  0  0  0  0  0  0  0  0  0  0
   46.0110   32.4510   45.6600 C   0  0  1  0  0  0  0  0  0  0  0  0
   46.9660   32.7510   46.7920 C   0  0  0  0  0  0  0  0  0  0  0  0
   45.5440   32.3460   47.0690 C   0  0  1  0  0  0  0  0  0  0  0  0
   46.2370   31.5240   45.1150 H   0  0  0  0  0  0  0  0  0  0  0  0
   47.8010   32.0440   46.9730 H   0  0  0  0  0  0  0  0  0  0  0  0
   47.2800   33.8100   46.8920 H   0  0  0  0  0  0  0  0  0  0  0  0
   45.4130   31.3380   47.5260 H   0  0  0  0  0  0  0  0  0  0  0  0
   44.7640   33.4090   47.6600 N   0  0  0  0  0  0  0  0  0  0  0  0
   43.8640   33.5960   47.2050 H   0  0  0  0  0  0  0  0  0  0  0  0
   45.2970   34.2270   47.9720 H   0  0  0  0  0  0  0  0  0  0  0  0
  1 22  1  0  0  0  0
  2  1  2  0  0  0  0
  3 13  1  0  0  0  0
  3  4  1  0  0  0  0
  4  1  1  0  0  0  0
  5  4  2  0  0  0  0
  5  9  1  0  0  0  0
  6  5  1  0  0  0  0
  7  8  1  0  0  0  0
  7  6  2  0  0  0  0
  8  3  2  0  0  0  0
 10  6  1  0  0  0  0
 11  7  1  0  0  0  0
 12  8  1  0  0  0  0
 13 15  2  0  0  0  0
 14 13  2  0  0  0  0
 16 21  1  0  0  0  0
 16 13  1  0  0  0  0
 17 16  2  0  0  0  0
 18 17  1  0  0  0  0
 19 17  1  0  0  0  0
 19 20  2  0  0  0  0
 20 21  1  0  0  0  0
 22 23  2  0  0  0  0
 22 27  1  0  0  0  0
 23 24  1  0  0  0  0
 24 29  1  0  0  0  0
 24 25  2  0  0  0  0
 26 25  1  0  0  0  0
 26 30  1  0  0  0  0
 27 26  2  0  0  0  0
 28 23  1  0  0  0  0
 30 33  1  6  0  0  0
 30 31  1  0  0  0  0
 30 32  1  0  0  0  0
 31 35  1  0  0  0  0
 31 34  1  0  0  0  0
 31 32  1  0  0  0  0
 32 36  1  1  0  0  0
 32 37  1  0  0  0  0
 37 39  1  0  0  0  0
 38 37  1  0  0  0  0
M  END
>  <minimizedAffinity>
-5.66981173

>  <minimizedRMSD>
1.0812254

$$$$
