
     RDKit          3D

 36 38  0  0  0  0  0  0  0  0999 V2000
   46.3171   34.9915   41.9147 C   0  0  0  0  0  0  0  0  0  0  0  0
   44.8573   34.9403   41.6991 C   0  0  0  0  0  0  0  0  0  0  0  0
   43.9780   35.4280   42.7036 C   0  0  0  0  0  0  0  0  0  0  0  0
   42.3130   35.1491   41.9742 S   0  0  0  0  0  0  0  0  0  0  0  0
   43.1017   34.4066   40.4058 C   0  0  0  0  0  0  0  0  0  0  0  0
   44.2199   34.4819   40.6504 N   0  0  0  0  0  0  0  0  0  0  0  0
   42.3558   33.9411   39.3338 O   0  0  0  0  0  0  0  0  0  0  0  0
   40.3989   34.3951   37.6049 O   0  0  0  0  0  0  0  0  0  0  0  0
   41.4920   35.0819   38.4144 P   0  0  0  0  0  0  0  0  0  0  0  0
   40.7636   36.1578   39.5027 O   0  0  0  0  0  0  0  0  0  0  0  0
   42.5602   35.9344   37.4208 O   0  0  0  0  0  0  0  0  0  0  0  0
   47.1323   34.3457   40.8269 C   0  0  0  0  0  0  0  0  0  0  0  0
   48.4657   33.9239   41.2836 C   0  0  0  0  0  0  0  0  0  0  0  0
   48.9358   32.7127   40.7951 C   0  0  0  0  0  0  0  0  0  0  0  0
   50.1758   32.2119   41.1533 C   0  0  0  0  0  0  0  0  0  0  0  0
   50.9183   32.9842   42.0233 N   0  0  0  0  0  0  0  0  0  0  0  0
   50.4328   34.1603   42.4820 C   0  0  0  0  0  0  0  0  0  0  0  0
   49.2350   34.6059   42.1126 N   0  0  0  0  0  0  0  0  0  0  0  0
   47.9266   31.7366   39.6570 S   0  0  0  0  0  0  0  0  0  0  0  0
   46.6008   34.6593   42.9312 H   0  0  0  0  0  0  0  0  0  0  0  0
   46.5922   36.0860   41.8998 H   0  0  0  0  0  0  0  0  0  0  0  0
   44.2386   35.8561   43.6591 H   0  0  0  0  0  0  0  0  0  0  0  0
   40.0035   36.6131   39.0954 H   0  0  0  0  0  0  0  0  0  0  0  0
   42.8102   36.7683   37.8960 H   0  0  0  0  0  0  0  0  0  0  0  0
   47.2615   35.0233   39.9504 H   0  0  0  0  0  0  0  0  0  0  0  0
   46.5289   33.4887   40.4660 H   0  0  0  0  0  0  0  0  0  0  0  0
   50.5262   31.2640   40.7618 H   0  0  0  0  0  0  0  0  0  0  0  0
   51.0895   34.6880   43.1563 H   0  0  0  0  0  0  0  0  0  0  0  0
   46.8972   30.6252   40.4847 C   0  0  0  0  0  0  0  0  0  0  0  0
   45.6350   30.7085   40.9716 C   0  0  0  0  0  0  0  0  0  0  0  0
   45.1192   31.6460   40.8406 H   0  0  0  0  0  0  0  0  0  0  0  0
   45.0639   29.6378   41.5965 C   0  0  0  0  0  0  0  0  0  0  0  0
   45.8286   28.4440   41.7191 C   0  0  0  0  0  0  0  0  0  0  0  0
   47.4637   28.8975   40.8834 S   0  0  0  0  0  0  0  0  0  0  0  0
   44.0678   29.6263   42.0089 H   0  0  0  0  0  0  0  0  0  0  0  0
   45.5222   27.5197   42.1821 H   0  0  0  0  0  0  0  0  0  0  0  0
  2  1  1  0
  2  3  2  0
  4  3  1  0
  5  6  2  0
  5  4  1  0
  6  2  1  0
  7  5  1  0
  8  9  2  0
  9  7  1  0
  9 10  1  0
 11  9  1  0
 12 13  1  0
 12  1  1  0
 13 18  2  0
 14 15  2  0
 14 13  1  0
 15 16  1  0
 16 17  2  0
 18 17  1  0
 19 14  1  0
  1 20  1  0
  1 21  1  0
  3 22  1  0
 10 23  1  0
 11 24  1  0
 12 25  1  0
 12 26  1  0
 15 27  1  0
 17 28  1  0
 29 30  2  0
 30 31  1  0
 30 32  1  0
 32 33  2  0
 33 34  1  0
 34 29  1  0
 32 35  1  0
 33 36  1  0
 19 29  1  0
M  ISO  8  20   8  21   8  22  14  23   3  24   3  25   8  26   8  27  14
M  ISO  2  28  14  31  15
M  END
>  <DihAtoms>  (1) 
13,18,28,29

>  <DihDeg>  (1) 
-179.9994265849224

$$$$
