
 OpenBabel03252508033D

 39 42  0  0  1  0  0  0  0  0999 V2000
   44.2510   34.3830   41.5590 C   0  0  0  0  0  0  0  0  0  0  0  0
   45.1350   34.3060   40.6470 O   0  0  0  0  0  0  0  0  0  0  0  0
   42.0760   33.2520   41.1470 C   0  0  0  0  0  0  0  0  0  0  0  0
   42.8050   34.3940   41.3220 C   0  0  0  0  0  0  0  0  0  0  0  0
   42.1260   35.6270   41.2690 C   0  0  0  0  0  0  0  0  0  0  0  0
   40.7790   35.7420   41.0520 C   0  0  0  0  0  0  0  0  0  0  0  0
   40.0480   34.5950   40.8770 C   0  0  0  0  0  0  0  0  0  0  0  0
   40.6970   33.3950   40.9280 C   0  0  0  0  0  0  0  0  0  0  0  0
   42.6250   36.5790   41.3860 H   0  0  0  0  0  0  0  0  0  0  0  0
   40.2590   36.6690   41.0080 H   0  0  0  0  0  0  0  0  0  0  0  0
   38.9850   34.5350   40.6990 H   0  0  0  0  0  0  0  0  0  0  0  0
   40.1570   32.4600   40.7950 H   0  0  0  0  0  0  0  0  0  0  0  0
   42.7920   31.7070   41.2670 S   0  0  0  0  0  0  0  0  0  0  0  0
   41.7420   30.8710   40.4620 O   0  0  0  0  0  0  0  0  0  0  0  0
   42.7650   31.1950   42.6620 O   0  0  0  0  0  0  0  0  0  0  0  0
   43.9560   31.0470   40.3440 C   0  0  0  0  0  0  0  0  0  0  0  0
   44.3170   30.5430   39.0500 C   0  0  0  0  0  0  0  0  0  0  0  0
   43.5050   30.6070   38.3480 H   0  0  0  0  0  0  0  0  0  0  0  0
   45.5190   30.0340   38.8360 C   0  0  0  0  0  3  0  0  0  0  0  0
   46.4610   29.9640   39.8340 C   0  0  0  0  0  3  0  0  0  0  0  0
   45.6300   30.6680   41.2270 S   0  0  0  0  0  0  0  0  0  0  0  0
   44.5880   34.4690   42.9550 C   0  0  0  0  0  0  0  0  0  0  0  0
   44.3030   35.7250   43.5910 C   0  0  0  0  0  0  0  0  0  0  0  0
   44.6200   35.8230   44.9350 C   0  0  0  0  0  0  0  0  0  0  0  0
   45.1680   34.7460   45.5590 N   0  0  0  0  0  0  0  0  0  0  0  0
   45.4190   33.5680   44.9030 C   0  0  0  0  0  0  0  0  0  0  0  0
   45.1280   33.4720   43.6550 N   0  0  0  0  0  0  0  0  0  0  0  0
   43.8840   36.6040   43.1810 H   0  0  0  0  0  0  0  0  0  0  0  0
   44.4450   36.7330   45.5190 H   0  0  0  0  0  0  0  0  0  0  0  0
   46.0110   32.4510   45.6600 C   0  0  1  0  0  0  0  0  0  0  0  0
   46.9660   32.7510   46.7920 C   0  0  0  0  0  0  0  0  0  0  0  0
   45.5450   32.3460   47.0690 C   0  0  1  0  0  0  0  0  0  0  0  0
   46.2370   31.5240   45.1150 H   0  0  0  0  0  0  0  0  0  0  0  0
   47.8010   32.0440   46.9720 H   0  0  0  0  0  0  0  0  0  0  0  0
   47.2810   33.8100   46.8920 H   0  0  0  0  0  0  0  0  0  0  0  0
   45.4140   31.3380   47.5260 H   0  0  0  0  0  0  0  0  0  0  0  0
   44.7650   33.4090   47.6600 N   0  0  0  0  0  0  0  0  0  0  0  0
   43.8640   33.5960   47.2050 H   0  0  0  0  0  0  0  0  0  0  0  0
   45.2980   34.2270   47.9720 H   0  0  0  0  0  0  0  0  0  0  0  0
  1 22  1  0  0  0  0
  2  1  2  0  0  0  0
  3 13  1  0  0  0  0
  3  4  1  0  0  0  0
  4  1  1  0  0  0  0
  5  4  2  0  0  0  0
  5  9  1  0  0  0  0
  6  5  1  0  0  0  0
  7  8  1  0  0  0  0
  7  6  2  0  0  0  0
  8  3  2  0  0  0  0
 10  6  1  0  0  0  0
 11  7  1  0  0  0  0
 12  8  1  0  0  0  0
 13 15  2  0  0  0  0
 14 13  2  0  0  0  0
 16 21  1  0  0  0  0
 16 13  1  0  0  0  0
 17 16  2  0  0  0  0
 18 17  1  0  0  0  0
 19 17  1  0  0  0  0
 19 20  2  0  0  0  0
 20 21  1  0  0  0  0
 22 23  2  0  0  0  0
 22 27  1  0  0  0  0
 23 24  1  0  0  0  0
 24 29  1  0  0  0  0
 24 25  2  0  0  0  0
 26 25  1  0  0  0  0
 26 30  1  0  0  0  0
 27 26  2  0  0  0  0
 28 23  1  0  0  0  0
 30 33  1  6  0  0  0
 30 31  1  0  0  0  0
 30 32  1  0  0  0  0
 31 35  1  0  0  0  0
 31 34  1  0  0  0  0
 31 32  1  0  0  0  0
 32 36  1  1  0  0  0
 32 37  1  0  0  0  0
 37 39  1  0  0  0  0
 38 37  1  0  0  0  0
M  END
>  <minimizedAffinity>
-5.66988134

>  <minimizedRMSD>
1.07820117

$$$$
