REMARK  Name = 
REMARK  6 active torsions:
REMARK  status: ('A' for Active; 'I' for Inactive)
REMARK    1  A    between atoms: C_1  and  C_11
REMARK    2  A    between atoms: C_5  and  C_7
REMARK    3  A    between atoms: C_9  and  N_10
REMARK    4  A    between atoms: C_11  and  C_14
REMARK    5  A    between atoms: C_13  and  S_19
REMARK    6  A    between atoms: S_19  and  C_34
REMARK                            x       y       z     vdW  Elec       q    Type
REMARK                         _______ _______ _______ _____ _____    ______ ____
ROOT
ATOM      1  C   UNL     1      44.245  34.305  41.548  0.00  0.00    +0.000 C 
ATOM      2  O   UNL     1      45.120  34.137  40.640  0.00  0.00    +0.000 OA
ENDROOT
BRANCH   1   4
ATOM      3  C   UNL     1      41.978  33.312  41.310  0.00  0.00    +0.000 A 
ATOM      4  C   UNL     1      42.802  34.402  41.310  0.00  0.00    +0.000 A 
ATOM      5  C   UNL     1      42.228  35.665  41.068  0.00  0.00    +0.000 A 
ATOM      6  C   UNL     1      40.893  35.859  40.834  0.00  0.00    +0.000 A 
ATOM      7  C   UNL     1      40.067  34.764  40.835  0.00  0.00    +0.000 A 
ATOM      8  C   UNL     1      40.614  33.536  41.069  0.00  0.00    +0.000 A 
ATOM      9  H   UNL     1      42.806  36.579  41.040  0.00  0.00    +0.000 HD
ATOM     10  H   UNL     1      40.451  36.809  40.649  0.00  0.00    +0.000 HD
ATOM     11  H   UNL     1      39.000  34.768  40.667  0.00  0.00    +0.000 HD
ATOM     12  H   UNL     1      39.996  32.640  41.080  0.00  0.00    +0.000 HD
BRANCH   3  13
ATOM     13  S   UNL     1      42.564  31.749  41.665  0.00  0.00    +0.000 S 
ATOM     14  O   UNL     1      42.384  31.079  40.262  0.00  0.00    +0.000 OA
ATOM     15  O   UNL     1      41.666  31.024  42.601  0.00  0.00    +0.000 OA
BRANCH  13  16
ATOM     16  C   UNL     1      44.098  31.211  41.673  0.00  0.00    +0.000 A 
ATOM     17  C   UNL     1      45.450  31.439  41.249  0.00  0.00    +0.000 A 
ATOM     18  H   UNL     1      45.548  32.343  40.674  0.00  0.00    +0.000 HD
ATOM     19  C   UNL     1      46.403  30.566  41.534  0.00  0.00    +0.000 A 
ATOM     20  C   UNL     1      46.141  29.417  42.238  0.00  0.00    +0.000 A 
ATOM     21  S   UNL     1      44.404  29.521  42.555  0.00  0.00    +0.000 S 
ENDBRANCH  13  16
ENDBRANCH   3  13
ENDBRANCH   1   4
BRANCH   1  22
ATOM     22  C   UNL     1      44.589  34.421  42.940  0.00  0.00    +0.000 A 
ATOM     23  C   UNL     1      44.308  35.691  43.550  0.00  0.00    +0.000 A 
ATOM     24  C   UNL     1      44.632  35.817  44.890  0.00  0.00    +0.000 A 
ATOM     25  N   UNL     1      45.183  34.754  45.534  0.00  0.00    +0.000 NA
ATOM     26  C   UNL     1      45.430  33.562  44.902  0.00  0.00    +0.000 A 
ATOM     27  N   UNL     1      45.133  33.439  43.658  0.00  0.00    +0.000 NA
ATOM     28  H   UNL     1      43.887  36.561  43.124  0.00  0.00    +0.000 HD
ATOM     29  H   UNL     1      44.461  36.740  45.455  0.00  0.00    +0.000 HD
BRANCH  26  30
ATOM     30  C   UNL     1      46.026  32.461  45.680  0.00  0.00    +0.000 C 
ATOM     31  C   UNL     1      46.965  32.786  46.818  0.00  0.00    +0.000 C 
ATOM     32  C   UNL     1      45.545  32.369  47.085  0.00  0.00    +0.000 C 
ATOM     33  H   UNL     1      46.268  31.530  45.149  0.00  0.00    +0.000 HD
ATOM     34  H   UNL     1      47.806  32.090  47.017  0.00  0.00    +0.000 HD
ATOM     35  H   UNL     1      47.267  33.849  46.908  0.00  0.00    +0.000 HD
ATOM     36  H   UNL     1      45.420  31.365  47.553  0.00  0.00    +0.000 HD
BRANCH  32  37
ATOM     37  N   UNL     1      44.747  33.431  47.654  0.00  0.00    +0.000 NA
ATOM     38  H   UNL     1      43.850  33.602  47.187  0.00  0.00    +0.000 HD
ATOM     39  H   UNL     1      45.268  34.258  47.961  0.00  0.00    +0.000 HD
ENDBRANCH  32  37
ENDBRANCH  26  30
ENDBRANCH   1  22
TORSDOF 6
