
 OpenBabel03242523303D

 19 20  0  0  0  0  0  0  0  0999 V2000
   45.8800   33.0500   46.2960 C   0  0  0  0  0  0  0  0  0  0  0  0
   46.3290   33.4350   47.2210 H   0  0  0  0  0  0  0  0  0  0  0  0
   44.9610   32.5050   46.5720 H   0  0  0  0  0  0  0  0  0  0  0  0
   44.5070   36.0280   44.5510 C   0  0  0  0  0  0  0  0  0  0  0  0
   45.1700   35.9540   43.3340 C   0  0  0  0  0  0  0  0  0  0  0  0
   46.0600   34.9120   43.1230 C   0  0  0  0  0  0  0  0  0  0  0  0
   46.2710   33.9830   44.1030 N   0  0  0  0  0  0  0  0  0  0  0  0
   45.6050   34.0900   45.2770 C   0  0  0  0  0  0  0  0  0  0  0  0
   44.7380   35.0970   45.4970 N   0  0  0  0  0  0  0  0  0  0  0  0
   43.8170   36.8250   44.7320 H   0  0  0  0  0  0  0  0  0  0  0  0
   45.0060   36.6860   42.5580 H   0  0  0  0  0  0  0  0  0  0  0  0
   46.6060   34.8010   42.1960 H   0  0  0  0  0  0  0  0  0  0  0  0
   46.9720   31.8180   45.4960 S   0  0  0  0  0  0  0  0  0  0  0  0
   46.7110   30.2900   46.3130 C   0  0  0  0  0  0  0  0  0  0  0  0
   47.5010   29.2530   46.6370 C   0  0  0  0  0  0  0  0  0  0  0  0
   48.5380   29.3660   46.3350 H   0  0  0  0  0  0  0  0  0  0  0  0
   47.0560   28.1540   47.2860 C   0  0  0  0  0  3  0  0  0  0  0  0
   45.6260   28.2230   47.5920 C   0  0  0  0  0  3  0  0  0  0  0  0
   45.0940   29.8140   46.9320 S   0  0  0  0  0  0  0  0  0  0  0  0
  1  3  1  0  0  0  0
  1  2  1  0  0  0  0
  4 10  1  0  0  0  0
  4  9  1  0  0  0  0
  5  4  2  0  0  0  0
  6  5  1  0  0  0  0
  6  7  2  0  0  0  0
  7  8  1  0  0  0  0
  8  9  2  0  0  0  0
  8  1  1  0  0  0  0
 11  5  1  0  0  0  0
 12  6  1  0  0  0  0
 13  1  1  0  0  0  0
 13 14  1  0  0  0  0
 14 15  2  0  0  0  0
 14 19  1  0  0  0  0
 15 17  1  0  0  0  0
 16 15  1  0  0  0  0
 17 18  2  0  0  0  0
 19 18  1  0  0  0  0
M  END
>  <minimizedAffinity>
-3.56586957

>  <minimizedRMSD>
0.768348217

$$$$
