
 OpenBabel03242523303D

 19 20  0  0  0  0  0  0  0  0999 V2000
   45.5280   33.1970   46.8690 C   0  0  0  0  0  0  0  0  0  0  0  0
   46.0940   33.6350   47.7030 H   0  0  0  0  0  0  0  0  0  0  0  0
   44.5290   32.9250   47.2510 H   0  0  0  0  0  0  0  0  0  0  0  0
   44.5760   35.9380   44.5500 C   0  0  0  0  0  0  0  0  0  0  0  0
   45.3240   35.6100   43.4280 C   0  0  0  0  0  0  0  0  0  0  0  0
   46.1290   34.4810   43.4700 C   0  0  0  0  0  0  0  0  0  0  0  0
   46.1750   33.7160   44.6020 N   0  0  0  0  0  0  0  0  0  0  0  0
   45.4310   34.0690   45.6770 C   0  0  0  0  0  0  0  0  0  0  0  0
   44.6450   35.1630   45.6500 N   0  0  0  0  0  0  0  0  0  0  0  0
   43.9500   36.8050   44.5350 H   0  0  0  0  0  0  0  0  0  0  0  0
   45.2900   36.2110   42.5320 H   0  0  0  0  0  0  0  0  0  0  0  0
   46.7340   34.1740   42.6280 H   0  0  0  0  0  0  0  0  0  0  0  0
   46.2920   31.6320   46.3060 S   0  0  0  0  0  0  0  0  0  0  0  0
   47.4790   31.1740   47.5110 C   0  0  0  0  0  0  0  0  0  0  0  0
   48.0550   31.8070   48.5480 C   0  0  0  0  0  0  0  0  0  0  0  0
   47.7240   32.8320   48.6890 H   0  0  0  0  0  0  0  0  0  0  0  0
   48.9690   31.2260   49.3550 C   0  0  0  0  0  3  0  0  0  0  0  0
   49.2580   29.8430   48.9760 C   0  0  0  0  0  3  0  0  0  0  0  0
   48.2130   29.5360   47.5390 S   0  0  0  0  0  0  0  0  0  0  0  0
  1  3  1  0  0  0  0
  1  2  1  0  0  0  0
  4  9  1  0  0  0  0
  5  6  1  0  0  0  0
  5  4  2  0  0  0  0
  6  7  2  0  0  0  0
  7  8  1  0  0  0  0
  8  1  1  0  0  0  0
  9  8  2  0  0  0  0
 10  4  1  0  0  0  0
 11  5  1  0  0  0  0
 12  6  1  0  0  0  0
 13  1  1  0  0  0  0
 13 14  1  0  0  0  0
 14 19  1  0  0  0  0
 14 15  2  0  0  0  0
 15 16  1  0  0  0  0
 15 17  1  0  0  0  0
 18 17  2  0  0  0  0
 19 18  1  0  0  0  0
M  END
>  <minimizedAffinity>
-3.97159648

>  <minimizedRMSD>
1.38116682

$$$$
