REMARK  Name = 
REMARK  3 active torsions:
REMARK  status: ('A' for Active; 'I' for Inactive)
REMARK    1  A    between atoms: C_5  and  C_7
REMARK    2  A    between atoms: C_7  and  S_8
REMARK    3  A    between atoms: S_8  and  C_14
REMARK                            x       y       z     vdW  Elec       q    Type
REMARK                         _______ _______ _______ _____ _____    ______ ____
ROOT
ATOM      1  C   UNL     1      45.840  33.101  46.427  0.00  0.00    +0.000 C 
ATOM      2  H   UNL     1      46.505  33.454  47.227  0.00  0.00    +0.000 HD
ATOM      3  H   UNL     1      44.897  32.775  46.897  0.00  0.00    +0.000 HD
ENDROOT
BRANCH   1   8
ATOM      4  C   UNL     1      44.522  36.006  44.524  0.00  0.00    +0.000 A 
ATOM      5  C   UNL     1      45.215  35.878  43.328  0.00  0.00    +0.000 A 
ATOM      6  C   UNL     1      46.106  34.825  43.183  0.00  0.00    +0.000 A 
ATOM      7  N   UNL     1      46.289  33.938  44.207  0.00  0.00    +0.000 NA
ATOM      8  C   UNL     1      45.595  34.097  45.359  0.00  0.00    +0.000 A 
ATOM      9  N   UNL     1      44.726  35.115  45.514  0.00  0.00    +0.000 NA
ATOM     10  H   UNL     1      43.831  36.812  44.653  0.00  0.00    +0.000 HD
ATOM     11  H   UNL     1      45.073  36.576  42.517  0.00  0.00    +0.000 HD
ATOM     12  H   UNL     1      46.674  34.673  42.276  0.00  0.00    +0.000 HD
ENDBRANCH   1   8
BRANCH   1  13
ATOM     13  S   UNL     1      46.529  31.619  45.604  0.00  0.00    +0.000 S 
BRANCH  13  14
ATOM     14  C   UNL     1      46.824  30.425  46.853  0.00  0.00    +0.000 A 
ATOM     15  C   UNL     1      46.120  29.977  47.907  0.00  0.00    +0.000 A 
ATOM     16  H   UNL     1      45.147  30.445  48.029  0.00  0.00    +0.000 HD
ATOM     17  C   UNL     1      46.572  29.024  48.750  0.00  0.00    +0.000 A 
ATOM     18  C   UNL     1      47.906  28.539  48.389  0.00  0.00    +0.000 A 
ATOM     19  S   UNL     1      48.350  29.482  46.917  0.00  0.00    +0.000 S 
ENDBRANCH  13  14
ENDBRANCH   1  13
TORSDOF 3
