
 OpenBabel03242523303D

 19 20  0  0  0  0  0  0  0  0999 V2000
   46.0740   32.9770   46.0080 C   0  0  0  0  0  0  0  0  0  0  0  0
   46.6490   33.3010   46.8860 H   0  0  0  0  0  0  0  0  0  0  0  0
   45.1760   32.4510   46.3740 H   0  0  0  0  0  0  0  0  0  0  0  0
   44.4980   35.9980   44.5300 C   0  0  0  0  0  0  0  0  0  0  0  0
   45.1300   36.0520   43.2950 C   0  0  0  0  0  0  0  0  0  0  0  0
   46.0680   35.0780   42.9830 C   0  0  0  0  0  0  0  0  0  0  0  0
   46.3540   34.0910   43.8850 N   0  0  0  0  0  0  0  0  0  0  0  0
   45.7170   34.0730   45.0790 C   0  0  0  0  0  0  0  0  0  0  0  0
   44.8040   35.0120   45.3960 N   0  0  0  0  0  0  0  0  0  0  0  0
   43.7720   36.7410   44.7870 H   0  0  0  0  0  0  0  0  0  0  0  0
   44.9060   36.8290   42.5810 H   0  0  0  0  0  0  0  0  0  0  0  0
   46.5920   35.0670   42.0380 H   0  0  0  0  0  0  0  0  0  0  0  0
   47.0080   31.7490   45.0250 S   0  0  0  0  0  0  0  0  0  0  0  0
   47.3240   30.3800   46.0730 C   0  0  0  0  0  0  0  0  0  0  0  0
   48.1780   30.1510   47.0850 C   0  0  0  0  0  0  0  0  0  0  0  0
   48.8270   30.9880   47.3230 H   0  0  0  0  0  0  0  0  0  0  0  0
   48.2340   28.9810   47.7570 C   0  0  0  0  0  3  0  0  0  0  0  0
   47.2660   28.0000   47.2640 C   0  0  0  0  0  3  0  0  0  0  0  0
   46.4060   28.8450   45.9230 S   0  0  0  0  0  0  0  0  0  0  0  0
  1  3  1  0  0  0  0
  1  2  1  0  0  0  0
  4 10  1  0  0  0  0
  4  9  1  0  0  0  0
  5  4  2  0  0  0  0
  6  5  1  0  0  0  0
  6  7  2  0  0  0  0
  7  8  1  0  0  0  0
  8  9  2  0  0  0  0
  8  1  1  0  0  0  0
 11  5  1  0  0  0  0
 12  6  1  0  0  0  0
 13  1  1  0  0  0  0
 13 14  1  0  0  0  0
 14 15  2  0  0  0  0
 15 16  1  0  0  0  0
 15 17  1  0  0  0  0
 18 17  2  0  0  0  0
 19 14  1  0  0  0  0
 19 18  1  0  0  0  0
M  END
>  <minimizedAffinity>
-3.4298985

>  <minimizedRMSD>
0.76385814

$$$$
