
 OpenBabel03242523303D

 19 20  0  0  0  0  0  0  0  0999 V2000
   45.7530   33.1690   46.5200 C   0  0  0  0  0  0  0  0  0  0  0  0
   46.1720   33.6150   47.4320 H   0  0  0  0  0  0  0  0  0  0  0  0
   44.8110   32.6670   46.7970 H   0  0  0  0  0  0  0  0  0  0  0  0
   44.5210   36.0270   44.4930 C   0  0  0  0  0  0  0  0  0  0  0  0
   45.2380   35.8490   43.3170 C   0  0  0  0  0  0  0  0  0  0  0  0
   46.1150   34.7790   43.2270 C   0  0  0  0  0  0  0  0  0  0  0  0
   46.2630   33.9240   44.2830 N   0  0  0  0  0  0  0  0  0  0  0  0
   45.5460   34.1320   45.4140 C   0  0  0  0  0  0  0  0  0  0  0  0
   44.6900   35.1670   45.5160 N   0  0  0  0  0  0  0  0  0  0  0  0
   43.8400   36.8470   44.5800 H   0  0  0  0  0  0  0  0  0  0  0  0
   45.1240   36.5220   42.4800 H   0  0  0  0  0  0  0  0  0  0  0  0
   46.7000   34.5880   42.3380 H   0  0  0  0  0  0  0  0  0  0  0  0
   46.8470   31.8560   45.8650 S   0  0  0  0  0  0  0  0  0  0  0  0
   46.3300   30.3450   46.5870 C   0  0  0  0  0  0  0  0  0  0  0  0
   45.2580   29.9670   47.3050 C   0  0  0  0  0  0  0  0  0  0  0  0
   44.5380   30.7600   47.4880 H   0  0  0  0  0  0  0  0  0  0  0  0
   45.0780   28.7100   47.7630 C   0  0  0  0  0  3  0  0  0  0  0  0
   46.1760   27.8130   47.3940 C   0  0  0  0  0  3  0  0  0  0  0  0
   47.3130   28.8490   46.4530 S   0  0  0  0  0  0  0  0  0  0  0  0
  1  3  1  0  0  0  0
  1  2  1  0  0  0  0
  4 10  1  0  0  0  0
  4  9  1  0  0  0  0
  5  4  2  0  0  0  0
  6  5  1  0  0  0  0
  6  7  2  0  0  0  0
  7  8  1  0  0  0  0
  8  9  2  0  0  0  0
  8  1  1  0  0  0  0
 11  5  1  0  0  0  0
 12  6  1  0  0  0  0
 13  1  1  0  0  0  0
 13 14  1  0  0  0  0
 14 15  2  0  0  0  0
 15 16  1  0  0  0  0
 15 17  1  0  0  0  0
 18 17  2  0  0  0  0
 19 14  1  0  0  0  0
 19 18  1  0  0  0  0
M  END
>  <minimizedAffinity>
-3.78559566

>  <minimizedRMSD>
0.928300381

$$$$
