
 OpenBabel03252509273D

 32 35  0  0  1  0  0  0  0  0999 V2000
   47.2590   35.2560   41.9200 C   0  0  1  0  0  0  0  0  0  0  0  0
   48.7850   35.2140   42.0080 C   0  0  0  0  0  0  0  0  0  0  0  0
   47.8990   34.3110   41.0930 C   0  0  2  0  0  0  0  0  0  0  0  0
   46.8930   36.2240   41.5870 H   0  0  0  0  0  0  0  0  0  0  0  0
   49.3590   35.9910   41.4490 H   0  0  0  0  0  0  0  0  0  0  0  0
   49.2690   34.7750   42.8740 H   0  0  0  0  0  0  0  0  0  0  0  0
   48.0400   33.2310   41.4230 H   0  0  0  0  0  0  0  0  0  0  0  0
   44.9180   34.8300   44.8120 C   0  0  0  0  0  0  0  0  0  0  0  0
   45.4850   35.3780   43.6290 C   0  0  0  0  0  0  0  0  0  0  0  0
   46.6310   34.7680   43.2050 C   0  0  0  0  0  0  0  0  0  0  0  0
   47.1840   33.7070   43.8860 N   0  0  0  0  0  0  0  0  0  0  0  0
   46.6150   33.2220   45.0000 C   0  0  0  0  0  0  0  0  0  0  0  0
   45.4720   33.7900   45.4680 N   0  0  0  0  0  0  0  0  0  0  0  0
   44.0070   35.2440   45.2180 H   0  0  0  0  0  0  0  0  0  0  0  0
   47.0650   32.3870   45.5260 H   0  0  0  0  0  0  0  0  0  0  0  0
   44.9120   36.4780   42.9670 N   0  0  0  0  0  0  0  0  0  0  0  0
   45.5810   37.2800   43.0570 H   0  0  0  0  0  0  0  0  0  0  0  0
   43.9660   36.4740   42.4720 H   0  0  0  0  0  0  0  0  0  0  0  0
   48.0460   34.4780   39.6030 C   0  0  0  0  0  0  0  0  0  0  0  0
   49.1040   34.2060   39.3320 H   0  0  0  0  0  0  0  0  0  0  0  0
   47.8890   35.5540   39.4410 H   0  0  0  0  0  0  0  0  0  0  0  0
   47.1650   33.5860   38.8490 C   0  0  0  0  0  0  0  0  0  0  0  0
   45.9680   33.2730   39.5100 C   0  0  0  0  0  0  0  0  0  0  0  0
   45.7440   33.5590   40.5310 H   0  0  0  0  0  0  0  0  0  0  0  0
   44.9710   32.5570   38.8570 C   0  0  0  0  0  3  0  0  0  0  0  0
   45.1000   32.1210   37.5540 C   0  0  0  0  0  3  0  0  0  0  0  0
   46.2570   32.4140   36.9060 C   0  0  0  0  0  0  0  0  0  0  0  0
   46.4610   31.9560   35.6060 C   0  0  0  0  0  3  0  0  0  0  0  0
   47.6720   32.2350   35.0040 C   0  0  0  0  0  3  0  0  0  0  0  0
   48.6610   32.9460   35.6550 C   0  0  0  0  0  3  0  0  0  0  0  0
   48.4310   33.3900   36.9400 C   0  0  0  0  0  3  0  0  0  0  0  0
   47.2110   33.1110   37.5570 C   0  0  0  0  0  0  0  0  0  0  0  0
  1  4  1  6  0  0  0
  1  2  1  0  0  0  0
  1 10  1  0  0  0  0
  2  6  1  0  0  0  0
  3  7  1  1  0  0  0
  3  1  1  0  0  0  0
  3  2  1  0  0  0  0
  5  2  1  0  0  0  0
  8 14  1  0  0  0  0
  8 13  1  0  0  0  0
  9  8  2  0  0  0  0
 10  9  1  0  0  0  0
 10 11  2  0  0  0  0
 11 12  1  0  0  0  0
 12 13  2  0  0  0  0
 12 15  1  0  0  0  0
 16 17  1  0  0  0  0
 16  9  1  0  0  0  0
 18 16  1  0  0  0  0
 19  3  1  0  0  0  0
 20 19  1  0  0  0  0
 21 19  1  0  0  0  0
 22 23  1  0  0  0  0
 22 19  1  0  0  0  0
 23 24  1  0  0  0  0
 25 23  2  0  0  0  0
 26 25  1  0  0  0  0
 27 26  2  0  0  0  0
 27 32  1  0  0  0  0
 28 27  1  0  0  0  0
 29 28  2  0  0  0  0
 29 30  1  0  0  0  0
 30 31  2  0  0  0  0
 31 32  1  0  0  0  0
 32 22  2  0  0  0  0
M  END
>  <minimizedAffinity>
-5.5716958

>  <minimizedRMSD>
1.67124891

$$$$
