
 OpenBabel03252508033D

 44 48  0  0  1  0  0  0  0  0999 V2000
   42.6870   33.2200   41.1250 C   0  0  0  0  0  0  0  0  0  0  0  0
   43.2840   34.4060   41.4280 C   0  0  0  0  0  0  0  0  0  0  0  0
   42.5240   35.5860   41.3510 C   0  0  0  0  0  0  0  0  0  0  0  0
   41.2030   35.6010   40.9840 C   0  0  0  0  0  0  0  0  0  0  0  0
   40.5970   34.4100   40.6790 C   0  0  0  0  0  0  0  0  0  0  0  0
   41.3370   33.2700   40.7540 C   0  0  0  0  0  0  0  0  0  0  0  0
   42.9260   36.5660   41.5660 H   0  0  0  0  0  0  0  0  0  0  0  0
   40.6270   36.4950   40.9260 H   0  0  0  0  0  0  0  0  0  0  0  0
   39.5650   34.3290   40.3810 H   0  0  0  0  0  0  0  0  0  0  0  0
   40.8450   32.3160   40.5070 H   0  0  0  0  0  0  0  0  0  0  0  0
   43.4470   31.7270   41.2970 S   0  0  0  0  0  0  0  0  0  0  0  0
   42.5010   30.8600   40.4000 O   0  0  0  0  0  0  0  0  0  0  0  0
   43.3270   31.1560   42.6480 O   0  0  0  0  0  0  0  0  0  0  0  0
   44.7310   31.0610   40.4160 C   0  0  0  0  0  0  0  0  0  0  0  0
   45.6500   30.0380   40.7620 C   0  0  0  0  0  0  0  0  0  0  0  0
   45.4030   29.6250   41.7680 H   0  0  0  0  0  0  0  0  0  0  0  0
   46.7630   29.5220   40.1230 C   0  0  0  0  0  3  0  0  0  0  0  0
   46.9400   30.1750   38.9540 C   0  0  0  0  0  3  0  0  0  0  0  0
   46.1510   31.1860   38.4680 C   0  0  0  0  0  0  0  0  0  0  0  0
   46.5580   31.6920   37.2310 C   0  0  0  0  0  3  0  0  0  0  0  0
   45.8360   32.7080   36.6510 C   0  0  0  0  0  3  0  0  0  0  0  0
   44.7320   33.1870   37.3190 C   0  0  0  0  0  3  0  0  0  0  0  0
   44.4060   32.6310   38.5310 C   0  0  0  0  0  3  0  0  0  0  0  0
   45.0680   31.6180   39.1860 C   0  0  0  0  0  0  0  0  0  0  0  0
   44.6890   34.4900   41.8250 C   0  0  0  0  0  0  0  0  0  0  0  0
   45.6600   34.5760   41.0160 O   0  0  0  0  0  0  0  0  0  0  0  0
   44.8780   34.4680   43.2500 C   0  0  0  0  0  0  0  0  0  0  0  0
   44.4160   35.6330   43.9600 C   0  0  0  0  0  0  0  0  0  0  0  0
   44.5730   35.6300   45.3370 C   0  0  0  0  0  0  0  0  0  0  0  0
   45.1430   34.5440   45.9220 N   0  0  0  0  0  0  0  0  0  0  0  0
   45.5640   33.4600   45.1950 C   0  0  0  0  0  0  0  0  0  0  0  0
   45.4230   33.4570   43.9170 N   0  0  0  0  0  0  0  0  0  0  0  0
   43.9650   36.5210   43.5810 H   0  0  0  0  0  0  0  0  0  0  0  0
   44.2720   36.4350   45.9800 H   0  0  0  0  0  0  0  0  0  0  0  0
   46.1620   32.3140   45.9200 C   0  0  1  0  0  0  0  0  0  0  0  0
   47.0410   32.5810   47.1210 C   0  0  0  0  0  0  0  0  0  0  0  0
   45.6360   32.0950   47.2860 C   0  0  1  0  0  0  0  0  0  0  0  0
   46.3580   31.4220   45.3070 H   0  0  0  0  0  0  0  0  0  0  0  0
   47.3190   33.6310   47.3360 H   0  0  0  0  0  0  0  0  0  0  0  0
   47.8190   31.8360   47.3670 H   0  0  0  0  0  0  0  0  0  0  0  0
   45.4380   31.0820   47.6880 H   0  0  0  0  0  0  0  0  0  0  0  0
   44.7800   33.1010   47.9050 N   0  0  0  0  0  0  0  0  0  0  0  0
   43.8020   32.8460   47.6000 H   0  0  0  0  0  0  0  0  0  0  0  0
   44.8460   32.9430   48.9300 H   0  0  0  0  0  0  0  0  0  0  0  0
  1 11  1  0  0  0  0
  1  2  1  0  0  0  0
  2 25  1  0  0  0  0
  3  2  2  0  0  0  0
  3  7  1  0  0  0  0
  4  3  1  0  0  0  0
  5  6  1  0  0  0  0
  5  4  2  0  0  0  0
  6  1  2  0  0  0  0
  8  4  1  0  0  0  0
  9  5  1  0  0  0  0
 10  6  1  0  0  0  0
 11 13  2  0  0  0  0
 12 11  2  0  0  0  0
 14 15  1  0  0  0  0
 14 11  1  0  0  0  0
 15 16  1  0  0  0  0
 17 15  2  0  0  0  0
 18 17  1  0  0  0  0
 19 18  2  0  0  0  0
 19 24  1  0  0  0  0
 20 19  1  0  0  0  0
 21 20  2  0  0  0  0
 21 22  1  0  0  0  0
 22 23  2  0  0  0  0
 23 24  1  0  0  0  0
 24 14  2  0  0  0  0
 25 27  1  0  0  0  0
 26 25  2  0  0  0  0
 27 32  2  0  0  0  0
 27 28  1  0  0  0  0
 28 29  2  0  0  0  0
 29 30  1  0  0  0  0
 29 34  1  0  0  0  0
 31 35  1  0  0  0  0
 31 30  2  0  0  0  0
 32 31  1  0  0  0  0
 33 28  1  0  0  0  0
 35 38  1  6  0  0  0
 35 36  1  0  0  0  0
 35 37  1  0  0  0  0
 36 37  1  0  0  0  0
 36 39  1  0  0  0  0
 36 40  1  0  0  0  0
 37 41  1  1  0  0  0
 37 42  1  0  0  0  0
 42 44  1  0  0  0  0
 43 42  1  0  0  0  0
M  END
>  <minimizedAffinity>
-6.15286827

>  <minimizedRMSD>
1.42936289

$$$$
