
 OpenBabel03252504583D

 39 42  0  0  1  0  0  0  0  0999 V2000
   48.0030   34.0860   42.0390 N   0  0  0  0  0  0  0  0  0  0  0  0
   48.0020   35.0270   40.9830 C   0  0  0  0  0  0  0  0  0  0  0  0
   49.1300   35.9140   41.3430 C   0  0  0  0  0  0  0  0  0  0  0  0
   49.7760   35.3850   42.6110 C   0  0  0  0  0  0  0  0  0  0  0  0
   49.2680   33.9360   42.6320 C   0  0  2  0  0  0  0  0  0  0  0  0
   47.4850   35.2680   40.0920 H   0  0  0  0  0  0  0  0  0  0  0  0
   49.5320   36.7830   40.8580 H   0  0  0  0  0  0  0  0  0  0  0  0
   49.4380   35.9240   43.4930 H   0  0  0  0  0  0  0  0  0  0  0  0
   50.8660   35.3690   42.4350 H   0  0  0  0  0  0  0  0  0  0  0  0
   49.2360   33.4980   43.6250 H   0  0  0  0  0  0  0  0  0  0  0  0
   46.8330   33.4640   42.3980 C   0  0  0  0  0  0  0  0  0  0  0  0
   47.0850   32.4080   42.6790 H   0  0  0  0  0  0  0  0  0  0  0  0
   46.1060   33.3070   41.5700 H   0  0  0  0  0  0  0  0  0  0  0  0
   44.6090   35.7800   44.4040 C   0  0  0  0  0  0  0  0  0  0  0  0
   45.3240   35.2640   43.2850 C   0  0  0  0  0  0  0  0  0  0  0  0
   46.0860   34.1100   43.4570 C   0  0  0  0  0  0  0  0  0  0  0  0
   46.0950   33.5540   44.6870 N   0  0  0  0  0  0  0  0  0  0  0  0
   45.3980   34.0650   45.7620 C   0  0  0  0  0  0  0  0  0  0  0  0
   44.6640   35.1670   45.6160 N   0  0  0  0  0  0  0  0  0  0  0  0
   44.0240   36.6580   44.2900 H   0  0  0  0  0  0  0  0  0  0  0  0
   45.2910   35.7350   42.3260 H   0  0  0  0  0  0  0  0  0  0  0  0
   45.4690   33.5450   46.7140 H   0  0  0  0  0  0  0  0  0  0  0  0
   50.0590   33.2340   41.7090 O   0  0  0  0  0  0  0  0  0  0  0  0
   49.3560   31.1350   43.1850 O   0  0  0  0  0  0  0  0  0  0  0  0
   50.0630   31.5910   41.9270 P   0  0  2  0  0  0  0  0  0  0  0  0
   51.6770   31.0790   42.0520 O   0  0  0  0  0  0  0  0  0  0  0  0
   52.0610   31.1300   41.1280 H   0  0  0  0  0  0  0  0  0  0  0  0
   49.4300   30.7830   40.5550 O   0  0  0  0  0  0  0  0  0  0  0  0
   49.1660   31.3650   39.3460 C   0  0  0  0  0  0  0  0  0  0  0  0
   50.0090   31.8600   38.4020 C   0  0  0  0  0  0  0  0  0  0  0  0
   51.0570   31.7750   38.6550 H   0  0  0  0  0  0  0  0  0  0  0  0
   49.5800   32.4230   37.2220 C   0  0  0  0  0  3  0  0  0  0  0  0
   48.2250   32.5080   36.9430 C   0  0  0  0  0  3  0  0  0  0  0  0
   47.3460   32.0100   37.8920 C   0  0  0  0  0  0  0  0  0  0  0  0
   46.0110   32.1270   37.5510 C   0  0  0  0  0  3  0  0  0  0  0  0
   45.0700   31.6620   38.4280 C   0  0  0  0  0  3  0  0  0  0  0  0
   45.4740   31.1020   39.6000 C   0  0  0  0  0  3  0  0  0  0  0  0
   46.8050   30.9820   39.9470 C   0  0  0  0  0  3  0  0  0  0  0  0
   47.7940   31.4440   39.0800 C   0  0  0  0  0  0  0  0  0  0  0  0
  1 11  1  0  0  0  0
  1  5  1  0  0  0  0
  2  3  2  0  0  0  0
  2  1  1  0  0  0  0
  3  4  1  0  0  0  0
  4  5  1  0  0  0  0
  4  8  1  0  0  0  0
  5 10  1  1  0  0  0
  6  2  1  0  0  0  0
  7  3  1  0  0  0  0
  9  4  1  0  0  0  0
 11 12  1  0  0  0  0
 11 16  1  0  0  0  0
 13 11  1  0  0  0  0
 14 19  1  0  0  0  0
 15 16  1  0  0  0  0
 15 14  2  0  0  0  0
 16 17  2  0  0  0  0
 17 18  1  0  0  0  0
 18 22  1  0  0  0  0
 19 18  2  0  0  0  0
 20 14  1  0  0  0  0
 21 15  1  0  0  0  0
 23 25  1  0  0  0  0
 23  5  1  0  0  0  0
 25 26  1  0  0  0  0
 25 24  2  1  0  0  0
 27 26  1  0  0  0  0
 28 25  1  0  0  0  0
 29 28  1  0  0  0  0
 30 31  1  0  0  0  0
 30 29  2  0  0  0  0
 32 30  1  0  0  0  0
 33 32  2  0  0  0  0
 33 34  1  0  0  0  0
 34 39  1  0  0  0  0
 35 34  2  0  0  0  0
 35 36  1  0  0  0  0
 36 37  2  0  0  0  0
 37 38  1  0  0  0  0
 39 29  1  0  0  0  0
 39 38  2  0  0  0  0
M  END
>  <minimizedAffinity>
-5.16008282

>  <minimizedRMSD>
3.02474594

$$$$
