
 OpenBabel03242516523D

 47 51  0  0  1  0  0  0  0  0999 V2000
   47.7960   32.7590   41.6160 C   0  0  1  0  0  0  0  0  0  0  0  0
   47.4240   32.1590   40.3320 C   0  0  0  0  0  0  0  0  0  0  0  0
   48.4380   32.6630   39.3080 C   0  0  0  0  0  0  0  0  0  0  0  0
   48.1490   34.1380   39.1050 C   0  0  0  0  0  0  0  0  0  0  0  0
   48.1390   34.9340   40.3800 C   0  0  0  0  0  0  0  0  0  0  0  0
   47.6460   34.2830   41.5990 C   0  0  1  0  0  0  0  0  0  0  0  0
   48.9120   32.6300   41.7630 H   0  0  0  0  0  0  0  0  0  0  0  0
   47.5540   31.0560   40.3940 H   0  0  0  0  0  0  0  0  0  0  0  0
   46.4160   32.4120   39.9660 H   0  0  0  0  0  0  0  0  0  0  0  0
   48.3170   32.1740   38.3380 H   0  0  0  0  0  0  0  0  0  0  0  0
   49.4550   32.5580   39.7440 H   0  0  0  0  0  0  0  0  0  0  0  0
   47.1310   34.2310   38.6530 H   0  0  0  0  0  0  0  0  0  0  0  0
   48.9200   34.5340   38.4180 H   0  0  0  0  0  0  0  0  0  0  0  0
   49.1860   35.3170   40.5200 H   0  0  0  0  0  0  0  0  0  0  0  0
   47.5250   35.8510   40.1780 H   0  0  0  0  0  0  0  0  0  0  0  0
   48.2750   34.6350   42.4700 H   0  0  0  0  0  0  0  0  0  0  0  0
   45.3130   30.8900   43.7760 C   0  0  0  0  0  0  0  0  0  0  0  0
   45.9920   31.4380   42.6840 C   0  0  0  0  0  0  0  0  0  0  0  0
   47.1480   32.2160   42.7920 C   0  0  0  0  0  0  0  0  0  0  0  0
   47.5930   32.4210   44.0400 N   0  0  0  0  0  0  0  0  0  0  0  0
   46.9430   31.8940   45.1140 C   0  0  0  0  0  0  0  0  0  0  0  0
   45.8440   31.1560   45.0000 N   0  0  0  0  0  0  0  0  0  0  0  0
   44.4330   30.3060   43.5820 H   0  0  0  0  0  0  0  0  0  0  0  0
   45.6180   31.2620   41.6840 H   0  0  0  0  0  0  0  0  0  0  0  0
   47.2830   32.0470   46.1300 H   0  0  0  0  0  0  0  0  0  0  0  0
   46.2860   34.6970   41.9490 C   0  0  0  0  0  0  0  0  0  0  0  0
   45.8870   35.2960   43.1440 C   0  0  0  0  0  0  0  0  0  0  0  0
   44.5360   35.6210   43.2490 C   0  0  0  0  0  0  0  0  0  0  0  0
   43.7130   35.3290   42.1820 C   0  0  0  0  0  0  0  0  0  0  0  0
   44.1260   34.7330   41.0000 C   0  0  0  0  0  0  0  0  0  0  0  0
   45.4440   34.4230   40.9150 N   0  0  0  0  0  0  0  0  0  0  0  0
   46.6390   35.4530   43.8660 H   0  0  0  0  0  0  0  0  0  0  0  0
   44.2160   36.0770   44.1520 H   0  0  0  0  0  0  0  0  0  0  0  0
   42.6620   35.5880   42.2800 H   0  0  0  0  0  0  0  0  0  0  0  0
   43.1710   34.4650   39.9330 C   0  0  0  0  0  0  0  0  0  0  0  0
   42.5030   35.4150   39.4760 O   0  0  0  0  0  0  0  0  0  0  0  0
   42.7820   33.2610   39.2210 C   0  0  0  0  0  0  0  0  0  0  0  0
   41.6560   32.5260   39.5160 C   0  0  0  0  0  0  0  0  0  0  0  0
   40.9980   32.8450   40.2960 H   0  0  0  0  0  0  0  0  0  0  0  0
   41.2690   31.3580   38.8930 C   0  0  0  0  0  3  0  0  0  0  0  0
   42.0740   30.8740   37.8840 C   0  0  0  0  0  3  0  0  0  0  0  0
   43.2190   31.5580   37.5330 C   0  0  0  0  0  0  0  0  0  0  0  0
   43.9680   31.0340   36.5230 C   0  0  0  0  0  3  0  0  0  0  0  0
   45.1230   31.6680   36.1110 C   0  0  0  0  0  3  0  0  0  0  0  0
   45.4910   32.8510   36.7570 C   0  0  0  0  0  3  0  0  0  0  0  0
   44.6920   33.3260   37.7670 C   0  0  0  0  0  3  0  0  0  0  0  0
   43.5360   32.7180   38.2030 C   0  0  0  0  0  0  0  0  0  0  0  0
  1  7  1  1  0  0  0
  1 19  1  0  0  0  0
  2  8  1  0  0  0  0
  2  1  1  0  0  0  0
  3 11  1  0  0  0  0
  3  2  1  0  0  0  0
  4  3  1  0  0  0  0
  4  5  1  0  0  0  0
  5 14  1  0  0  0  0
  5  6  1  0  0  0  0
  6  1  1  0  0  0  0
  6 26  1  0  0  0  0
  6 16  1  1  0  0  0
  9  2  1  0  0  0  0
 10  3  1  0  0  0  0
 12  4  1  0  0  0  0
 13  4  1  0  0  0  0
 15  5  1  0  0  0  0
 17 22  1  0  0  0  0
 18 19  1  0  0  0  0
 18 17  2  0  0  0  0
 19 20  2  0  0  0  0
 20 21  1  0  0  0  0
 21 25  1  0  0  0  0
 22 21  2  0  0  0  0
 23 17  1  0  0  0  0
 24 18  1  0  0  0  0
 26 27  1  0  0  0  0
 27 28  2  0  0  0  0
 27 32  1  0  0  0  0
 28 33  1  0  0  0  0
 29 34  1  0  0  0  0
 29 28  1  0  0  0  0
 30 29  2  0  0  0  0
 31 30  1  0  0  0  0
 31 26  2  0  0  0  0
 35 30  1  0  0  0  0
 36 35  2  0  0  0  0
 37 38  1  0  0  0  0
 37 35  1  0  0  0  0
 38 39  1  0  0  0  0
 40 38  2  0  0  0  0
 41 40  1  0  0  0  0
 42 41  2  0  0  0  0
 42 47  1  0  0  0  0
 43 42  1  0  0  0  0
 44 43  2  0  0  0  0
 44 45  1  0  0  0  0
 45 46  2  0  0  0  0
 46 47  1  0  0  0  0
 47 37  2  0  0  0  0
M  END
>  <minimizedAffinity>
-5.92213011

>  <minimizedRMSD>
0.592471778

$$$$
