
 OpenBabel03242518563D

 44 47  0  0  1  0  0  0  0  0999 V2000
   36.2230   30.0230   37.8710 C   0  0  2  0  0  0  0  0  0  0  0  0
   37.5470   30.4190   37.3150 C   0  0  0  0  0  0  0  0  0  0  0  0
   37.9880   31.6480   38.0170 C   0  0  0  0  0  0  0  0  0  0  0  0
   37.0110   32.2160   38.9880 C   0  0  0  0  0  0  0  0  0  0  0  0
   36.5810   31.1850   40.0020 C   0  0  0  0  0  0  0  0  0  0  0  0
   36.3340   29.8910   39.3770 C   0  0  2  0  0  0  0  0  0  0  0  0
   35.5160   30.8690   37.7390 H   0  0  0  0  0  0  0  0  0  0  0  0
   38.2910   29.6060   37.2780 H   0  0  0  0  0  0  0  0  0  0  0  0
   37.3510   30.6300   36.2330 H   0  0  0  0  0  0  0  0  0  0  0  0
   38.1250   32.4730   37.2520 H   0  0  0  0  0  0  0  0  0  0  0  0
   39.0030   31.6090   38.4800 H   0  0  0  0  0  0  0  0  0  0  0  0
   37.5380   33.0450   39.5290 H   0  0  0  0  0  0  0  0  0  0  0  0
   36.1480   32.7190   38.4970 H   0  0  0  0  0  0  0  0  0  0  0  0
   37.2910   31.2240   40.8520 H   0  0  0  0  0  0  0  0  0  0  0  0
   35.6260   31.6080   40.4390 H   0  0  0  0  0  0  0  0  0  0  0  0
   35.3510   29.5230   39.6970 H   0  0  0  0  0  0  0  0  0  0  0  0
   37.4900   29.0280   39.7250 C   0  0  0  0  0  0  0  0  0  0  0  0
   38.4130   29.6260   39.7870 H   0  0  0  0  0  0  0  0  0  0  0  0
   37.7060   28.3190   38.8660 H   0  0  0  0  0  0  0  0  0  0  0  0
   37.3900   28.2860   41.0020 C   0  0  0  0  0  0  0  0  0  0  0  0
   37.5080   28.9540   42.2290 C   0  0  0  0  0  0  0  0  0  0  0  0
   37.6880   30.0250   42.2860 H   0  0  0  0  0  0  0  0  0  0  0  0
   37.4200   28.3510   43.4530 C   0  0  0  0  0  3  0  0  0  0  0  0
   37.2020   27.0010   43.5270 C   0  0  0  0  0  3  0  0  0  0  0  0
   37.0790   26.3040   42.3580 C   0  0  0  0  0  0  0  0  0  0  0  0
   36.8640   24.9330   42.4360 C   0  0  0  0  0  3  0  0  0  0  0  0
   36.7470   24.2230   41.2590 C   0  0  0  0  0  3  0  0  0  0  0  0
   36.8360   24.8230   40.0090 C   0  0  0  0  0  3  0  0  0  0  0  0
   37.0500   26.1850   39.9610 C   0  0  0  0  0  3  0  0  0  0  0  0
   37.1710   26.9300   41.1140 C   0  0  0  0  0  0  0  0  0  0  0  0
   35.6110   28.8390   37.2280 C   0  0  0  0  0  0  0  0  0  0  0  0
   36.1980   27.7400   37.1290 O   0  0  0  0  0  0  0  0  0  0  0  0
   32.7970   28.9610   34.9030 C   0  0  0  0  0  0  0  0  0  0  0  0
   31.6910   29.3470   35.7080 C   0  0  0  0  0  0  0  0  0  0  0  0
   31.9550   29.5520   37.0510 C   0  0  0  0  0  0  0  0  0  0  0  0
   33.2210   29.3600   37.4280 N   0  0  0  0  0  0  0  0  0  0  0  0
   34.2480   29.0040   36.6890 C   0  0  0  0  0  0  0  0  0  0  0  0
   34.0230   28.7980   35.3810 N   0  0  0  0  0  0  0  0  0  0  0  0
   32.6400   28.7870   33.8260 H   0  0  0  0  0  0  0  0  0  0  0  0
   30.7590   29.4450   35.2040 H   0  0  0  0  0  0  0  0  0  0  0  0
   30.8300   29.9550   37.8930 C   0  0  0  0  0  0  0  0  0  0  0  0
   30.5280   31.2870   37.6690 F   0  0  0  0  0  0  0  0  0  0  0  0
   31.2300   29.7950   39.1810 F   0  0  0  0  0  0  0  0  0  0  0  0
   29.6770   29.2420   37.5900 F   0  0  0  0  0  0  0  0  0  0  0  0
  1  7  1  6  0  0  0
  1  6  1  0  0  0  0
  2  1  1  0  0  0  0
  2  3  1  0  0  0  0
  3 11  1  0  0  0  0
  3  4  1  0  0  0  0
  4 12  1  0  0  0  0
  4  5  1  0  0  0  0
  5 15  1  0  0  0  0
  5 14  1  0  0  0  0
  6 16  1  1  0  0  0
  6 17  1  0  0  0  0
  6  5  1  0  0  0  0
  8  2  1  0  0  0  0
  9  2  1  0  0  0  0
 10  3  1  0  0  0  0
 13  4  1  0  0  0  0
 17 18  1  0  0  0  0
 17 20  1  0  0  0  0
 19 17  1  0  0  0  0
 20 30  2  0  0  0  0
 20 21  1  0  0  0  0
 21 22  1  0  0  0  0
 21 23  2  0  0  0  0
 23 24  1  0  0  0  0
 25 26  1  0  0  0  0
 25 24  2  0  0  0  0
 27 26  2  0  0  0  0
 28 27  1  0  0  0  0
 29 28  2  0  0  0  0
 29 30  1  0  0  0  0
 30 25  1  0  0  0  0
 31  1  1  0  0  0  0
 32 31  2  0  0  0  0
 33 38  2  0  0  0  0
 33 34  1  0  0  0  0
 34 35  2  0  0  0  0
 35 36  1  0  0  0  0
 35 41  1  0  0  0  0
 37 31  1  0  0  0  0
 37 36  2  0  0  0  0
 38 37  1  0  0  0  0
 39 33  1  0  0  0  0
 40 34  1  0  0  0  0
 41 43  1  0  0  0  0
 42 41  1  0  0  0  0
 44 41  1  0  0  0  0
M  END
>  <minimizedAffinity>
-6.89695215

$$$$

 OpenBabel03242518563D

 44 47  0  0  1  0  0  0  0  0999 V2000
   36.8110   29.8710   39.1960 C   0  0  2  0  0  0  0  0  0  0  0  0
   35.5100   29.5260   38.5580 C   0  0  0  0  0  0  0  0  0  0  0  0
   35.7820   28.5810   37.4480 C   0  0  0  0  0  0  0  0  0  0  0  0
   37.2220   28.2950   37.1900 C   0  0  0  0  0  0  0  0  0  0  0  0
   37.9190   27.8170   38.4400 C   0  0  0  0  0  0  0  0  0  0  0  0
   37.5190   28.5940   39.6070 C   0  0  2  0  0  0  0  0  0  0  0  0
   37.4830   30.3000   38.4230 H   0  0  0  0  0  0  0  0  0  0  0  0
   34.7230   29.2100   39.2620 H   0  0  0  0  0  0  0  0  0  0  0  0
   35.1200   30.4980   38.1630 H   0  0  0  0  0  0  0  0  0  0  0  0
   35.4170   29.0440   36.4800 H   0  0  0  0  0  0  0  0  0  0  0  0
   35.2030   27.6270   37.4660 H   0  0  0  0  0  0  0  0  0  0  0  0
   37.2560   27.4710   36.4300 H   0  0  0  0  0  0  0  0  0  0  0  0
   37.7540   29.1390   36.6980 H   0  0  0  0  0  0  0  0  0  0  0  0
   37.8160   26.7150   38.4900 H   0  0  0  0  0  0  0  0  0  0  0  0
   39.0190   27.9660   38.2170 H   0  0  0  0  0  0  0  0  0  0  0  0
   38.4190   28.9330   40.1340 H   0  0  0  0  0  0  0  0  0  0  0  0
   36.5980   27.7330   40.3890 C   0  0  0  0  0  0  0  0  0  0  0  0
   35.6650   27.5580   39.8300 H   0  0  0  0  0  0  0  0  0  0  0  0
   36.2390   28.2970   41.3060 H   0  0  0  0  0  0  0  0  0  0  0  0
   37.1130   26.3980   40.7650 C   0  0  0  0  0  0  0  0  0  0  0  0
   36.6460   25.2430   40.1230 C   0  0  0  0  0  0  0  0  0  0  0  0
   35.8890   25.2850   39.3430 H   0  0  0  0  0  0  0  0  0  0  0  0
   37.0720   23.9740   40.4000 C   0  0  0  0  0  3  0  0  0  0  0  0
   38.0220   23.7760   41.3670 C   0  0  0  0  0  3  0  0  0  0  0  0
   38.5100   24.8710   42.0240 C   0  0  0  0  0  0  0  0  0  0  0  0
   39.4680   24.6660   43.0090 C   0  0  0  0  0  3  0  0  0  0  0  0
   39.9590   25.7670   43.6800 C   0  0  0  0  0  3  0  0  0  0  0  0
   39.5340   27.0620   43.4090 C   0  0  0  0  0  3  0  0  0  0  0  0
   38.5820   27.2360   42.4260 C   0  0  0  0  0  3  0  0  0  0  0  0
   38.0670   26.1620   41.7330 C   0  0  0  0  0  0  0  0  0  0  0  0
   36.7200   30.8610   40.2930 C   0  0  0  0  0  0  0  0  0  0  0  0
   35.8520   30.8030   41.1910 O   0  0  0  0  0  0  0  0  0  0  0  0
   38.2370   34.1610   39.9090 C   0  0  0  0  0  0  0  0  0  0  0  0
   39.5980   33.9660   40.2660 C   0  0  0  0  0  0  0  0  0  0  0  0
   39.9550   32.6820   40.6390 C   0  0  0  0  0  0  0  0  0  0  0  0
   38.9720   31.7790   40.6180 N   0  0  0  0  0  0  0  0  0  0  0  0
   37.7110   31.9520   40.2890 C   0  0  0  0  0  0  0  0  0  0  0  0
   37.3350   33.1890   39.9220 N   0  0  0  0  0  0  0  0  0  0  0  0
   37.9020   35.1650   39.6040 H   0  0  0  0  0  0  0  0  0  0  0  0
   40.2220   34.8260   40.2140 H   0  0  0  0  0  0  0  0  0  0  0  0
   41.3530   32.4620   41.0050 C   0  0  0  0  0  0  0  0  0  0  0  0
   41.4220   31.7410   42.1840 F   0  0  0  0  0  0  0  0  0  0  0  0
   41.9050   33.6880   41.1930 F   0  0  0  0  0  0  0  0  0  0  0  0
   42.0230   31.7040   40.0520 F   0  0  0  0  0  0  0  0  0  0  0  0
  1  7  1  6  0  0  0
  1  6  1  0  0  0  0
  1 31  1  0  0  0  0
  2  1  1  0  0  0  0
  2  8  1  0  0  0  0
  3 11  1  0  0  0  0
  3  2  1  0  0  0  0
  4  3  1  0  0  0  0
  4  5  1  0  0  0  0
  5 14  1  0  0  0  0
  5  6  1  0  0  0  0
  6 16  1  1  0  0  0
  6 17  1  0  0  0  0
  9  2  1  0  0  0  0
 10  3  1  0  0  0  0
 12  4  1  0  0  0  0
 13  4  1  0  0  0  0
 15  5  1  0  0  0  0
 17 20  1  0  0  0  0
 17 19  1  0  0  0  0
 18 17  1  0  0  0  0
 20 30  1  0  0  0  0
 21 23  1  0  0  0  0
 21 20  2  0  0  0  0
 22 21  1  0  0  0  0
 23 24  2  0  0  0  0
 24 25  1  0  0  0  0
 25 26  1  0  0  0  0
 26 27  2  0  0  0  0
 28 27  1  0  0  0  0
 29 28  2  0  0  0  0
 30 25  2  0  0  0  0
 30 29  1  0  0  0  0
 31 32  2  0  0  0  0
 33 38  2  0  0  0  0
 33 34  1  0  0  0  0
 34 35  2  0  0  0  0
 35 41  1  0  0  0  0
 36 35  1  0  0  0  0
 37 31  1  0  0  0  0
 37 36  2  0  0  0  0
 38 37  1  0  0  0  0
 39 33  1  0  0  0  0
 40 34  1  0  0  0  0
 41 43  1  0  0  0  0
 41 42  1  0  0  0  0
 44 41  1  0  0  0  0
M  END
>  <minimizedAffinity>
-6.56194353

$$$$

 OpenBabel03242518563D

 44 47  0  0  1  0  0  0  0  0999 V2000
   37.7220   28.4750   37.0230 C   0  0  2  0  0  0  0  0  0  0  0  0
   36.7800   29.6270   36.9450 C   0  0  0  0  0  0  0  0  0  0  0  0
   35.6690   29.2480   36.0410 C   0  0  0  0  0  0  0  0  0  0  0  0
   35.8030   27.9150   35.3860 C   0  0  0  0  0  0  0  0  0  0  0  0
   36.0180   26.8230   36.4040 C   0  0  0  0  0  0  0  0  0  0  0  0
   36.9570   27.2330   37.4410 C   0  0  2  0  0  0  0  0  0  0  0  0
   38.0690   28.2300   35.9970 H   0  0  0  0  0  0  0  0  0  0  0  0
   36.4730   30.0350   37.9220 H   0  0  0  0  0  0  0  0  0  0  0  0
   37.3840   30.4590   36.5030 H   0  0  0  0  0  0  0  0  0  0  0  0
   35.6420   29.9770   35.1730 H   0  0  0  0  0  0  0  0  0  0  0  0
   34.6400   29.3640   36.4560 H   0  0  0  0  0  0  0  0  0  0  0  0
   34.8350   27.7180   34.8550 H   0  0  0  0  0  0  0  0  0  0  0  0
   36.5640   27.9010   34.5750 H   0  0  0  0  0  0  0  0  0  0  0  0
   35.0240   26.4510   36.7230 H   0  0  0  0  0  0  0  0  0  0  0  0
   36.4380   25.9610   35.8010 H   0  0  0  0  0  0  0  0  0  0  0  0
   37.7260   26.4590   37.5520 H   0  0  0  0  0  0  0  0  0  0  0  0
   36.1490   27.5200   38.6520 C   0  0  0  0  0  0  0  0  0  0  0  0
   35.0850   27.3070   38.4640 H   0  0  0  0  0  0  0  0  0  0  0  0
   36.1510   28.6370   38.8530 H   0  0  0  0  0  0  0  0  0  0  0  0
   36.5150   26.7680   39.8730 C   0  0  0  0  0  0  0  0  0  0  0  0
   36.5090   25.3670   39.8800 C   0  0  0  0  0  0  0  0  0  0  0  0
   36.2270   24.7890   39.0030 H   0  0  0  0  0  0  0  0  0  0  0  0
   36.8400   24.5950   40.9580 C   0  0  0  0  0  3  0  0  0  0  0  0
   37.2100   25.1950   42.1330 C   0  0  0  0  0  3  0  0  0  0  0  0
   37.2320   26.5610   42.1770 C   0  0  0  0  0  0  0  0  0  0  0  0
   37.6010   27.1680   43.3720 C   0  0  0  0  0  3  0  0  0  0  0  0
   37.6180   28.5460   43.4250 C   0  0  0  0  0  3  0  0  0  0  0  0
   37.2820   29.3440   42.3370 C   0  0  0  0  0  3  0  0  0  0  0  0
   36.9200   28.7150   41.1640 C   0  0  0  0  0  3  0  0  0  0  0  0
   36.8910   27.3400   41.0700 C   0  0  0  0  0  0  0  0  0  0  0  0
   38.9280   28.7160   37.8460 C   0  0  0  0  0  0  0  0  0  0  0  0
   39.6690   27.7950   38.2530 O   0  0  0  0  0  0  0  0  0  0  0  0
   40.6400   31.9350   38.0560 C   0  0  0  0  0  0  0  0  0  0  0  0
   39.7870   32.7360   38.8610 C   0  0  0  0  0  0  0  0  0  0  0  0
   38.6260   32.1320   39.3100 C   0  0  0  0  0  0  0  0  0  0  0  0
   38.4490   30.8650   38.9300 N   0  0  0  0  0  0  0  0  0  0  0  0
   39.2330   30.1180   38.1850 C   0  0  0  0  0  0  0  0  0  0  0  0
   40.3690   30.6770   37.7340 N   0  0  0  0  0  0  0  0  0  0  0  0
   41.5780   32.3690   37.6730 H   0  0  0  0  0  0  0  0  0  0  0  0
   40.1190   33.7300   39.0470 H   0  0  0  0  0  0  0  0  0  0  0  0
   37.7380   32.9400   40.1450 C   0  0  0  0  0  0  0  0  0  0  0  0
   37.0330   33.8310   39.3550 F   0  0  0  0  0  0  0  0  0  0  0  0
   38.5310   33.6290   41.0050 F   0  0  0  0  0  0  0  0  0  0  0  0
   36.7860   32.1610   40.7890 F   0  0  0  0  0  0  0  0  0  0  0  0
  1  7  1  6  0  0  0
  1  6  1  0  0  0  0
  1 31  1  0  0  0  0
  2  1  1  0  0  0  0
  2  8  1  0  0  0  0
  3 11  1  0  0  0  0
  3  2  1  0  0  0  0
  4  3  1  0  0  0  0
  4  5  1  0  0  0  0
  5 14  1  0  0  0  0
  5  6  1  0  0  0  0
  6 16  1  1  0  0  0
  6 17  1  0  0  0  0
  9  2  1  0  0  0  0
 10  3  1  0  0  0  0
 12  4  1  0  0  0  0
 13  4  1  0  0  0  0
 15  5  1  0  0  0  0
 17 19  1  0  0  0  0
 17 20  1  0  0  0  0
 18 17  1  0  0  0  0
 20 21  2  0  0  0  0
 20 30  1  0  0  0  0
 21 23  1  0  0  0  0
 22 21  1  0  0  0  0
 23 24  2  0  0  0  0
 24 25  1  0  0  0  0
 25 26  1  0  0  0  0
 26 27  2  0  0  0  0
 28 27  1  0  0  0  0
 29 28  2  0  0  0  0
 30 29  1  0  0  0  0
 30 25  2  0  0  0  0
 31 37  1  0  0  0  0
 31 32  2  0  0  0  0
 33 34  1  0  0  0  0
 34 40  1  0  0  0  0
 34 35  2  0  0  0  0
 35 41  1  0  0  0  0
 36 35  1  0  0  0  0
 37 36  2  0  0  0  0
 38 33  2  0  0  0  0
 38 37  1  0  0  0  0
 39 33  1  0  0  0  0
 41 44  1  0  0  0  0
 41 43  1  0  0  0  0
 42 41  1  0  0  0  0
M  END
>  <minimizedAffinity>
-6.50236464

$$$$

 OpenBabel03242518563D

 44 47  0  0  1  0  0  0  0  0999 V2000
   39.6390   32.2660   40.6380 C   0  0  2  0  0  0  0  0  0  0  0  0
   40.6410   31.9250   39.5900 C   0  0  0  0  0  0  0  0  0  0  0  0
   41.9400   31.6830   40.2620 C   0  0  0  0  0  0  0  0  0  0  0  0
   41.9540   31.9220   41.7330 C   0  0  0  0  0  0  0  0  0  0  0  0
   40.8740   31.1290   42.4280 C   0  0  0  0  0  0  0  0  0  0  0  0
   39.6200   31.1680   41.6850 C   0  0  2  0  0  0  0  0  0  0  0  0
   40.0010   33.1520   41.2010 H   0  0  0  0  0  0  0  0  0  0  0  0
   40.3210   31.1370   38.8880 H   0  0  0  0  0  0  0  0  0  0  0  0
   40.6950   32.8350   38.9400 H   0  0  0  0  0  0  0  0  0  0  0  0
   42.7000   32.4210   39.8580 H   0  0  0  0  0  0  0  0  0  0  0  0
   42.4360   30.7110   40.0310 H   0  0  0  0  0  0  0  0  0  0  0  0
   42.9490   31.5660   42.1090 H   0  0  0  0  0  0  0  0  0  0  0  0
   41.9330   33.0010   42.0020 H   0  0  0  0  0  0  0  0  0  0  0  0
   41.2910   30.1370   42.6890 H   0  0  0  0  0  0  0  0  0  0  0  0
   40.7610   31.6380   43.4330 H   0  0  0  0  0  0  0  0  0  0  0  0
   38.8100   31.4520   42.3690 H   0  0  0  0  0  0  0  0  0  0  0  0
   39.4780   29.8450   41.0290 C   0  0  0  0  0  0  0  0  0  0  0  0
   40.4590   29.3560   40.9310 H   0  0  0  0  0  0  0  0  0  0  0  0
   39.1590   29.9900   39.9500 H   0  0  0  0  0  0  0  0  0  0  0  0
   38.5940   28.8710   41.7090 C   0  0  0  0  0  0  0  0  0  0  0  0
   38.0790   29.1410   42.9840 C   0  0  0  0  0  0  0  0  0  0  0  0
   38.3160   30.0580   43.5180 H   0  0  0  0  0  0  0  0  0  0  0  0
   37.2510   28.3040   43.6800 C   0  0  0  0  0  3  0  0  0  0  0  0
   36.8770   27.1090   43.1260 C   0  0  0  0  0  3  0  0  0  0  0  0
   37.3530   26.7990   41.8820 C   0  0  0  0  0  0  0  0  0  0  0  0
   36.9760   25.5830   41.3250 C   0  0  0  0  0  3  0  0  0  0  0  0
   37.4600   25.2620   40.0730 C   0  0  0  0  0  3  0  0  0  0  0  0
   38.3030   26.1020   39.3560 C   0  0  0  0  0  3  0  0  0  0  0  0
   38.6600   27.3020   39.9330 C   0  0  0  0  0  3  0  0  0  0  0  0
   38.1980   27.6610   41.1810 C   0  0  0  0  0  0  0  0  0  0  0  0
   38.2920   32.5980   40.1220 C   0  0  0  0  0  0  0  0  0  0  0  0
   37.7140   33.6770   40.3750 O   0  0  0  0  0  0  0  0  0  0  0  0
   37.3540   30.5730   37.2310 C   0  0  0  0  0  0  0  0  0  0  0  0
   36.3610   29.6880   37.7280 C   0  0  0  0  0  0  0  0  0  0  0  0
   36.0420   29.8160   39.0680 C   0  0  0  0  0  0  0  0  0  0  0  0
   36.7130   30.7600   39.7340 N   0  0  0  0  0  0  0  0  0  0  0  0
   37.6330   31.5820   39.2810 C   0  0  0  0  0  0  0  0  0  0  0  0
   37.9620   31.4810   37.9820 N   0  0  0  0  0  0  0  0  0  0  0  0
   37.6430   30.5120   36.1690 H   0  0  0  0  0  0  0  0  0  0  0  0
   35.9490   29.0060   37.0230 H   0  0  0  0  0  0  0  0  0  0  0  0
   35.0180   28.9170   39.5960 C   0  0  0  0  0  0  0  0  0  0  0  0
   35.0400   28.9400   40.9800 F   0  0  0  0  0  0  0  0  0  0  0  0
   35.3310   27.6700   39.1610 F   0  0  0  0  0  0  0  0  0  0  0  0
   33.7400   29.3170   39.2260 F   0  0  0  0  0  0  0  0  0  0  0  0
  1  7  1  1  0  0  0
  1  6  1  0  0  0  0
  2  3  1  0  0  0  0
  2  1  1  0  0  0  0
  3  4  1  0  0  0  0
  4 13  1  0  0  0  0
  4 12  1  0  0  0  0
  4  5  1  0  0  0  0
  5 14  1  0  0  0  0
  5 15  1  0  0  0  0
  6 16  1  1  0  0  0
  6  5  1  0  0  0  0
  8  2  1  0  0  0  0
  9  2  1  0  0  0  0
 10  3  1  0  0  0  0
 11  3  1  0  0  0  0
 17  6  1  0  0  0  0
 17 20  1  0  0  0  0
 18 17  1  0  0  0  0
 19 17  1  0  0  0  0
 20 21  1  0  0  0  0
 21 22  1  0  0  0  0
 21 23  2  0  0  0  0
 24 23  1  0  0  0  0
 25 24  2  0  0  0  0
 26 25  1  0  0  0  0
 27 26  2  0  0  0  0
 28 29  2  0  0  0  0
 28 27  1  0  0  0  0
 29 30  1  0  0  0  0
 30 20  2  0  0  0  0
 30 25  1  0  0  0  0
 31 32  2  0  0  0  0
 31  1  1  0  0  0  0
 33 34  2  0  0  0  0
 33 38  1  0  0  0  0
 34 35  1  0  0  0  0
 35 41  1  0  0  0  0
 35 36  2  0  0  0  0
 37 36  1  0  0  0  0
 37 31  1  0  0  0  0
 38 37  2  0  0  0  0
 39 33  1  0  0  0  0
 40 34  1  0  0  0  0
 41 42  1  0  0  0  0
 43 41  1  0  0  0  0
 44 41  1  0  0  0  0
M  END
>  <minimizedAffinity>
-6.47344494

$$$$

 OpenBabel03242518563D

 44 47  0  0  1  0  0  0  0  0999 V2000
   37.9480   30.3430   37.6450 C   0  0  2  0  0  0  0  0  0  0  0  0
   36.7080   30.2580   36.8230 C   0  0  0  0  0  0  0  0  0  0  0  0
   36.8060   29.0490   35.9710 C   0  0  0  0  0  0  0  0  0  0  0  0
   38.0940   28.3040   36.0640 C   0  0  0  0  0  0  0  0  0  0  0  0
   38.4150   27.9400   37.4930 C   0  0  0  0  0  0  0  0  0  0  0  0
   38.1340   29.0430   38.4030 C   0  0  2  0  0  0  0  0  0  0  0  0
   38.8240   30.3700   36.9620 H   0  0  0  0  0  0  0  0  0  0  0  0
   35.7710   30.3540   37.3970 H   0  0  0  0  0  0  0  0  0  0  0  0
   36.7160   31.1860   36.1970 H   0  0  0  0  0  0  0  0  0  0  0  0
   36.7520   29.3660   34.8840 H   0  0  0  0  0  0  0  0  0  0  0  0
   35.9500   28.3360   36.0340 H   0  0  0  0  0  0  0  0  0  0  0  0
   37.9610   27.3560   35.4790 H   0  0  0  0  0  0  0  0  0  0  0  0
   38.9360   28.8210   35.5540 H   0  0  0  0  0  0  0  0  0  0  0  0
   37.9510   26.9570   37.7090 H   0  0  0  0  0  0  0  0  0  0  0  0
   39.5230   27.7070   37.4760 H   0  0  0  0  0  0  0  0  0  0  0  0
   39.0130   29.2150   39.0370 H   0  0  0  0  0  0  0  0  0  0  0  0
   36.8820   28.6910   39.1170 C   0  0  0  0  0  0  0  0  0  0  0  0
   36.2950   27.9660   38.5320 H   0  0  0  0  0  0  0  0  0  0  0  0
   36.1990   29.5960   39.1550 H   0  0  0  0  0  0  0  0  0  0  0  0
   37.0440   28.1010   40.4660 C   0  0  0  0  0  0  0  0  0  0  0  0
   37.3360   28.9120   41.5710 C   0  0  0  0  0  0  0  0  0  0  0  0
   37.4660   29.9880   41.4770 H   0  0  0  0  0  0  0  0  0  0  0  0
   37.4930   28.4540   42.8490 C   0  0  0  0  0  3  0  0  0  0  0  0
   37.3630   27.1160   43.1100 C   0  0  0  0  0  3  0  0  0  0  0  0
   37.0770   26.2820   42.0640 C   0  0  0  0  0  0  0  0  0  0  0  0
   36.9510   24.9240   42.3300 C   0  0  0  0  0  3  0  0  0  0  0  0
   36.6700   24.0770   41.2780 C   0  0  0  0  0  3  0  0  0  0  0  0
   36.5100   24.5290   39.9730 C   0  0  0  0  0  3  0  0  0  0  0  0
   36.6400   25.8820   39.7390 C   0  0  0  0  0  3  0  0  0  0  0  0
   36.9190   26.7610   40.7620 C   0  0  0  0  0  0  0  0  0  0  0  0
   38.0350   31.5380   38.5130 C   0  0  0  0  0  0  0  0  0  0  0  0
   37.1070   32.3690   38.6220 O   0  0  0  0  0  0  0  0  0  0  0  0
   41.4640   32.4780   39.3510 C   0  0  0  0  0  0  0  0  0  0  0  0
   41.6330   32.0350   40.6900 C   0  0  0  0  0  0  0  0  0  0  0  0
   40.5390   31.4190   41.2740 C   0  0  0  0  0  0  0  0  0  0  0  0
   39.4530   31.3180   40.5030 N   0  0  0  0  0  0  0  0  0  0  0  0
   39.2900   31.7250   39.2650 C   0  0  0  0  0  0  0  0  0  0  0  0
   40.3350   32.3260   38.6710 N   0  0  0  0  0  0  0  0  0  0  0  0
   42.3050   32.9740   38.8410 H   0  0  0  0  0  0  0  0  0  0  0  0
   42.5870   32.2150   41.1240 H   0  0  0  0  0  0  0  0  0  0  0  0
   40.6970   30.9520   42.6490 C   0  0  0  0  0  0  0  0  0  0  0  0
   40.8780   29.5800   42.6620 F   0  0  0  0  0  0  0  0  0  0  0  0
   39.5470   31.2600   43.3010 F   0  0  0  0  0  0  0  0  0  0  0  0
   41.8250   31.4940   43.2530 F   0  0  0  0  0  0  0  0  0  0  0  0
  1  7  1  6  0  0  0
  1  6  1  0  0  0  0
  1 31  1  0  0  0  0
  2  8  1  0  0  0  0
  2  1  1  0  0  0  0
  3 11  1  0  0  0  0
  3  4  1  0  0  0  0
  3  2  1  0  0  0  0
  4  5  1  0  0  0  0
  5 14  1  0  0  0  0
  5  6  1  0  0  0  0
  6 16  1  1  0  0  0
  6 17  1  0  0  0  0
  9  2  1  0  0  0  0
 10  3  1  0  0  0  0
 12  4  1  0  0  0  0
 13  4  1  0  0  0  0
 15  5  1  0  0  0  0
 17 19  1  0  0  0  0
 17 20  1  0  0  0  0
 18 17  1  0  0  0  0
 20 30  2  0  0  0  0
 20 21  1  0  0  0  0
 21 23  2  0  0  0  0
 22 21  1  0  0  0  0
 23 24  1  0  0  0  0
 25 26  1  0  0  0  0
 25 24  2  0  0  0  0
 27 26  2  0  0  0  0
 28 27  1  0  0  0  0
 29 28  2  0  0  0  0
 29 30  1  0  0  0  0
 30 25  1  0  0  0  0
 31 32  2  0  0  0  0
 31 37  1  0  0  0  0
 33 34  1  0  0  0  0
 34 40  1  0  0  0  0
 34 35  2  0  0  0  0
 35 41  1  0  0  0  0
 36 35  1  0  0  0  0
 37 36  2  0  0  0  0
 38 37  1  0  0  0  0
 38 33  2  0  0  0  0
 39 33  1  0  0  0  0
 41 42  1  0  0  0  0
 41 44  1  0  0  0  0
 41 43  1  0  0  0  0
M  END
>  <minimizedAffinity>
-6.41072083

$$$$

 OpenBabel03242518563D

 44 47  0  0  1  0  0  0  0  0999 V2000
   40.1790   30.9040   39.8380 C   0  0  2  0  0  0  0  0  0  0  0  0
   40.4380   32.2580   39.2740 C   0  0  0  0  0  0  0  0  0  0  0  0
   41.0220   32.0850   37.9220 C   0  0  0  0  0  0  0  0  0  0  0  0
   41.2860   30.6760   37.5140 C   0  0  0  0  0  0  0  0  0  0  0  0
   40.0440   29.8280   37.6370 C   0  0  0  0  0  0  0  0  0  0  0  0
   39.3190   30.1160   38.8680 C   0  0  2  0  0  0  0  0  0  0  0  0
   41.1340   30.3370   39.8530 H   0  0  0  0  0  0  0  0  0  0  0  0
   39.5820   32.9510   39.3310 H   0  0  0  0  0  0  0  0  0  0  0  0
   41.1830   32.7190   39.9710 H   0  0  0  0  0  0  0  0  0  0  0  0
   42.0460   32.5710   37.9050 H   0  0  0  0  0  0  0  0  0  0  0  0
   40.5090   32.6300   37.0950 H   0  0  0  0  0  0  0  0  0  0  0  0
   41.5890   30.7040   36.4340 H   0  0  0  0  0  0  0  0  0  0  0  0
   42.1640   30.2280   38.0300 H   0  0  0  0  0  0  0  0  0  0  0  0
   39.4890   29.8920   36.6800 H   0  0  0  0  0  0  0  0  0  0  0  0
   40.4350   28.7650   37.6420 H   0  0  0  0  0  0  0  0  0  0  0  0
   39.1090   29.1730   39.3870 H   0  0  0  0  0  0  0  0  0  0  0  0
   38.1320   30.9170   38.4790 C   0  0  0  0  0  0  0  0  0  0  0  0
   38.2350   31.2820   37.4450 H   0  0  0  0  0  0  0  0  0  0  0  0
   38.1070   31.8770   39.0840 H   0  0  0  0  0  0  0  0  0  0  0  0
   36.8260   30.2240   38.5470 C   0  0  0  0  0  0  0  0  0  0  0  0
   36.1910   30.0120   39.7780 C   0  0  0  0  0  0  0  0  0  0  0  0
   36.6340   30.3340   40.7170 H   0  0  0  0  0  0  0  0  0  0  0  0
   34.9830   29.3900   39.9310 C   0  0  0  0  0  3  0  0  0  0  0  0
   34.3150   28.9270   38.8280 C   0  0  0  0  0  3  0  0  0  0  0  0
   34.8930   29.1100   37.6030 C   0  0  0  0  0  0  0  0  0  0  0  0
   34.2160   28.6350   36.4860 C   0  0  0  0  0  3  0  0  0  0  0  0
   34.7980   28.8100   35.2480 C   0  0  0  0  0  3  0  0  0  0  0  0
   36.0260   29.4390   35.0780 C   0  0  0  0  0  3  0  0  0  0  0  0
   36.6750   29.9010   36.2030 C   0  0  0  0  0  3  0  0  0  0  0  0
   36.1270   29.7470   37.4580 C   0  0  0  0  0  0  0  0  0  0  0  0
   39.6470   30.9000   41.2190 C   0  0  0  0  0  0  0  0  0  0  0  0
   39.2860   31.9390   41.8120 O   0  0  0  0  0  0  0  0  0  0  0  0
   40.5490   27.9180   43.1250 C   0  0  0  0  0  0  0  0  0  0  0  0
   39.3680   27.1290   43.1250 C   0  0  0  0  0  0  0  0  0  0  0  0
   38.2770   27.6610   42.4600 C   0  0  0  0  0  0  0  0  0  0  0  0
   38.4690   28.8570   41.8980 N   0  0  0  0  0  0  0  0  0  0  0  0
   39.5590   29.5920   41.8940 C   0  0  0  0  0  0  0  0  0  0  0  0
   40.6350   29.1010   42.5320 N   0  0  0  0  0  0  0  0  0  0  0  0
   41.4470   27.5380   43.6400 H   0  0  0  0  0  0  0  0  0  0  0  0
   39.4290   26.1980   43.6360 H   0  0  0  0  0  0  0  0  0  0  0  0
   37.0550   26.8610   42.4450 C   0  0  0  0  0  0  0  0  0  0  0  0
   37.3400   25.5590   42.8200 F   0  0  0  0  0  0  0  0  0  0  0  0
   36.5970   26.8710   41.1670 F   0  0  0  0  0  0  0  0  0  0  0  0
   36.1200   27.3280   43.3600 F   0  0  0  0  0  0  0  0  0  0  0  0
  1  7  1  1  0  0  0
  1 31  1  0  0  0  0
  2  8  1  0  0  0  0
  2  1  1  0  0  0  0
  2  9  1  0  0  0  0
  3  2  1  0  0  0  0
  4  5  1  0  0  0  0
  4  3  1  0  0  0  0
  4 13  1  0  0  0  0
  5 15  1  0  0  0  0
  5  6  1  0  0  0  0
  6 16  1  1  0  0  0
  6  1  1  0  0  0  0
 10  3  1  0  0  0  0
 11  3  1  0  0  0  0
 12  4  1  0  0  0  0
 14  5  1  0  0  0  0
 17 20  1  0  0  0  0
 17  6  1  0  0  0  0
 17 19  1  0  0  0  0
 18 17  1  0  0  0  0
 20 21  1  0  0  0  0
 21 23  2  0  0  0  0
 21 22  1  0  0  0  0
 24 23  1  0  0  0  0
 25 24  2  0  0  0  0
 26 25  1  0  0  0  0
 27 26  2  0  0  0  0
 28 27  1  0  0  0  0
 28 29  2  0  0  0  0
 29 30  1  0  0  0  0
 30 25  1  0  0  0  0
 30 20  2  0  0  0  0
 31 32  2  0  0  0  0
 31 37  1  0  0  0  0
 33 34  1  0  0  0  0
 33 39  1  0  0  0  0
 34 40  1  0  0  0  0
 35 34  2  0  0  0  0
 36 35  1  0  0  0  0
 37 36  2  0  0  0  0
 37 38  1  0  0  0  0
 38 33  2  0  0  0  0
 41 35  1  0  0  0  0
 41 42  1  0  0  0  0
 41 44  1  0  0  0  0
 43 41  1  0  0  0  0
M  END
>  <minimizedAffinity>
-6.37568283

$$$$

 OpenBabel03242518563D

 44 47  0  0  1  0  0  0  0  0999 V2000
   42.0210   28.6850   41.1720 C   0  0  2  0  0  0  0  0  0  0  0  0
   42.8300   27.4350   41.2280 C   0  0  0  0  0  0  0  0  0  0  0  0
   43.9400   27.6520   42.1850 C   0  0  0  0  0  0  0  0  0  0  0  0
   44.0330   29.0250   42.7580 C   0  0  0  0  0  0  0  0  0  0  0  0
   42.7310   29.4420   43.3950 C   0  0  0  0  0  0  0  0  0  0  0  0
   41.5870   29.0600   42.5770 C   0  0  2  0  0  0  0  0  0  0  0  0
   42.6850   29.5240   40.8760 H   0  0  0  0  0  0  0  0  0  0  0  0
   42.2430   26.5150   41.3890 H   0  0  0  0  0  0  0  0  0  0  0  0
   43.2240   27.3040   40.1880 H   0  0  0  0  0  0  0  0  0  0  0  0
   44.9240   27.5170   41.6370 H   0  0  0  0  0  0  0  0  0  0  0  0
   44.0390   26.8950   42.9990 H   0  0  0  0  0  0  0  0  0  0  0  0
   44.8210   28.9900   43.5550 H   0  0  0  0  0  0  0  0  0  0  0  0
   44.4160   29.7760   42.0320 H   0  0  0  0  0  0  0  0  0  0  0  0
   42.7460   29.1130   44.4530 H   0  0  0  0  0  0  0  0  0  0  0  0
   42.8100   30.5700   43.4720 H   0  0  0  0  0  0  0  0  0  0  0  0
   40.9370   29.9330   42.4420 H   0  0  0  0  0  0  0  0  0  0  0  0
   40.9650   27.8890   43.2440 C   0  0  0  0  0  0  0  0  0  0  0  0
   41.1350   27.9300   44.3310 H   0  0  0  0  0  0  0  0  0  0  0  0
   41.5120   26.9440   42.9380 H   0  0  0  0  0  0  0  0  0  0  0  0
   39.5050   27.7320   43.0570 C   0  0  0  0  0  0  0  0  0  0  0  0
   38.6390   28.8210   43.2320 C   0  0  0  0  0  0  0  0  0  0  0  0
   39.0030   29.8040   43.5190 H   0  0  0  0  0  0  0  0  0  0  0  0
   37.2830   28.7670   43.0720 C   0  0  0  0  0  3  0  0  0  0  0  0
   36.6890   27.5840   42.7170 C   0  0  0  0  0  3  0  0  0  0  0  0
   37.4910   26.4920   42.5340 C   0  0  0  0  0  0  0  0  0  0  0  0
   36.8860   25.2920   42.1800 C   0  0  0  0  0  3  0  0  0  0  0  0
   37.6890   24.1850   42.0010 C   0  0  0  0  0  3  0  0  0  0  0  0
   39.0690   24.2250   42.1620 C   0  0  0  0  0  3  0  0  0  0  0  0
   39.6430   25.4290   42.5140 C   0  0  0  0  0  3  0  0  0  0  0  0
   38.8750   26.5580   42.7000 C   0  0  0  0  0  0  0  0  0  0  0  0
   40.8990   28.6540   40.2080 C   0  0  0  0  0  0  0  0  0  0  0  0
   40.4630   27.5960   39.7050 O   0  0  0  0  0  0  0  0  0  0  0  0
   40.5360   32.1140   39.0970 C   0  0  0  0  0  0  0  0  0  0  0  0
   39.1430   32.3730   39.1990 C   0  0  0  0  0  0  0  0  0  0  0  0
   38.3590   31.3270   39.6520 C   0  0  0  0  0  0  0  0  0  0  0  0
   39.0100   30.1960   39.9370 N   0  0  0  0  0  0  0  0  0  0  0  0
   40.2980   29.9500   39.8450 C   0  0  0  0  0  0  0  0  0  0  0  0
   41.0850   30.9480   39.4090 N   0  0  0  0  0  0  0  0  0  0  0  0
   41.2050   32.9150   38.7420 H   0  0  0  0  0  0  0  0  0  0  0  0
   38.8290   33.3500   38.9200 H   0  0  0  0  0  0  0  0  0  0  0  0
   36.9230   31.5770   39.7690 C   0  0  0  0  0  0  0  0  0  0  0  0
   36.2250   30.6810   38.9770 F   0  0  0  0  0  0  0  0  0  0  0  0
   36.7090   32.8390   39.3180 F   0  0  0  0  0  0  0  0  0  0  0  0
   36.4690   31.3790   41.0660 F   0  0  0  0  0  0  0  0  0  0  0  0
  1  7  1  6  0  0  0
  1  2  1  0  0  0  0
  1  6  1  0  0  0  0
  2  8  1  0  0  0  0
  2  3  1  0  0  0  0
  3  4  1  0  0  0  0
  3 11  1  0  0  0  0
  4  5  1  0  0  0  0
  4 12  1  0  0  0  0
  5 15  1  0  0  0  0
  5 14  1  0  0  0  0
  6 16  1  6  0  0  0
  6 17  1  0  0  0  0
  6  5  1  0  0  0  0
  9  2  1  0  0  0  0
 10  3  1  0  0  0  0
 13  4  1  0  0  0  0
 17 18  1  0  0  0  0
 19 17  1  0  0  0  0
 20 21  1  0  0  0  0
 20 17  1  0  0  0  0
 21 22  1  0  0  0  0
 23 21  2  0  0  0  0
 24 23  1  0  0  0  0
 25 30  1  0  0  0  0
 25 24  2  0  0  0  0
 26 25  1  0  0  0  0
 27 28  1  0  0  0  0
 27 26  2  0  0  0  0
 28 29  2  0  0  0  0
 29 30  1  0  0  0  0
 30 20  2  0  0  0  0
 31  1  1  0  0  0  0
 32 31  2  0  0  0  0
 33 34  2  0  0  0  0
 33 38  1  0  0  0  0
 34 35  1  0  0  0  0
 35 41  1  0  0  0  0
 35 36  2  0  0  0  0
 37 36  1  0  0  0  0
 37 31  1  0  0  0  0
 38 37  2  0  0  0  0
 39 33  1  0  0  0  0
 40 34  1  0  0  0  0
 41 44  1  0  0  0  0
 42 41  1  0  0  0  0
 43 41  1  0  0  0  0
M  END
>  <minimizedAffinity>
-6.32295609

$$$$

 OpenBabel03242518563D

 44 47  0  0  1  0  0  0  0  0999 V2000
   35.5820   29.2930   38.3760 C   0  0  2  0  0  0  0  0  0  0  0  0
   36.7660   30.1990   38.3660 C   0  0  0  0  0  0  0  0  0  0  0  0
   36.8970   30.7930   39.7180 C   0  0  0  0  0  0  0  0  0  0  0  0
   35.8170   30.4380   40.6810 C   0  0  0  0  0  0  0  0  0  0  0  0
   35.6600   28.9420   40.8030 C   0  0  0  0  0  0  0  0  0  0  0  0
   35.7330   28.2880   39.5020 C   0  0  2  0  0  0  0  0  0  0  0  0
   34.6890   29.8810   38.6750 H   0  0  0  0  0  0  0  0  0  0  0  0
   37.6860   29.7470   37.9600 H   0  0  0  0  0  0  0  0  0  0  0  0
   36.5160   30.9850   37.6100 H   0  0  0  0  0  0  0  0  0  0  0  0
   36.8220   31.9210   39.6270 H   0  0  0  0  0  0  0  0  0  0  0  0
   37.8930   30.6800   40.2070 H   0  0  0  0  0  0  0  0  0  0  0  0
   36.1280   30.8430   41.6800 H   0  0  0  0  0  0  0  0  0  0  0  0
   34.8540   30.9540   40.4690 H   0  0  0  0  0  0  0  0  0  0  0  0
   36.3440   28.5900   41.6010 H   0  0  0  0  0  0  0  0  0  0  0  0
   34.6330   28.8080   41.2620 H   0  0  0  0  0  0  0  0  0  0  0  0
   34.8730   27.6170   39.3920 H   0  0  0  0  0  0  0  0  0  0  0  0
   37.0680   27.6440   39.4300 C   0  0  0  0  0  0  0  0  0  0  0  0
   37.8340   28.2920   39.8830 H   0  0  0  0  0  0  0  0  0  0  0  0
   37.4000   27.5800   38.3470 H   0  0  0  0  0  0  0  0  0  0  0  0
   37.1940   26.3270   40.0940 C   0  0  0  0  0  0  0  0  0  0  0  0
   36.4320   25.2320   39.6610 C   0  0  0  0  0  0  0  0  0  0  0  0
   35.7220   25.3130   38.8420 H   0  0  0  0  0  0  0  0  0  0  0  0
   36.4910   23.9810   40.2090 C   0  0  0  0  0  3  0  0  0  0  0  0
   37.3410   23.7400   41.2560 C   0  0  0  0  0  3  0  0  0  0  0  0
   38.1060   24.7760   41.7150 C   0  0  0  0  0  0  0  0  0  0  0  0
   38.9640   24.5300   42.7800 C   0  0  0  0  0  3  0  0  0  0  0  0
   39.7330   25.5740   43.2520 C   0  0  0  0  0  3  0  0  0  0  0  0
   39.6820   26.8510   42.7050 C   0  0  0  0  0  3  0  0  0  0  0  0
   38.8230   27.0660   41.6490 C   0  0  0  0  0  3  0  0  0  0  0  0
   38.0380   26.0490   41.1480 C   0  0  0  0  0  0  0  0  0  0  0  0
   35.2750   28.6620   37.0740 C   0  0  0  0  0  0  0  0  0  0  0  0
   36.1600   28.2570   36.2890 O   0  0  0  0  0  0  0  0  0  0  0  0
   32.1690   27.3880   35.6340 C   0  0  0  0  0  0  0  0  0  0  0  0
   31.1800   28.3170   36.0530 C   0  0  0  0  0  0  0  0  0  0  0  0
   31.6220   29.3700   36.8350 C   0  0  0  0  0  0  0  0  0  0  0  0
   32.9300   29.3820   37.1030 N   0  0  0  0  0  0  0  0  0  0  0  0
   33.8500   28.5260   36.7200 C   0  0  0  0  0  0  0  0  0  0  0  0
   33.4510   27.4940   35.9580 N   0  0  0  0  0  0  0  0  0  0  0  0
   31.8700   26.5320   35.0080 H   0  0  0  0  0  0  0  0  0  0  0  0
   30.1870   28.1200   35.7250 H   0  0  0  0  0  0  0  0  0  0  0  0
   30.6180   30.3390   37.2710 C   0  0  0  0  0  0  0  0  0  0  0  0
   30.6680   30.4800   38.6470 F   0  0  0  0  0  0  0  0  0  0  0  0
   29.4090   29.8360   36.9130 F   0  0  0  0  0  0  0  0  0  0  0  0
   30.8580   31.6020   36.7460 F   0  0  0  0  0  0  0  0  0  0  0  0
  1  7  1  1  0  0  0
  1  6  1  0  0  0  0
  2  1  1  0  0  0  0
  2  3  1  0  0  0  0
  3 11  1  0  0  0  0
  3  4  1  0  0  0  0
  4  5  1  0  0  0  0
  4 12  1  0  0  0  0
  5 15  1  0  0  0  0
  5 14  1  0  0  0  0
  6 16  1  6  0  0  0
  6  5  1  0  0  0  0
  8  2  1  0  0  0  0
  9  2  1  0  0  0  0
 10  3  1  0  0  0  0
 13  4  1  0  0  0  0
 17  6  1  0  0  0  0
 17 18  1  0  0  0  0
 17 20  1  0  0  0  0
 19 17  1  0  0  0  0
 20 30  1  0  0  0  0
 21 20  2  0  0  0  0
 21 23  1  0  0  0  0
 22 21  1  0  0  0  0
 23 24  2  0  0  0  0
 24 25  1  0  0  0  0
 25 26  1  0  0  0  0
 26 27  2  0  0  0  0
 28 27  1  0  0  0  0
 29 28  2  0  0  0  0
 30 29  1  0  0  0  0
 30 25  2  0  0  0  0
 31  1  1  0  0  0  0
 32 31  2  0  0  0  0
 33 38  2  0  0  0  0
 33 34  1  0  0  0  0
 34 35  2  0  0  0  0
 35 36  1  0  0  0  0
 35 41  1  0  0  0  0
 37 31  1  0  0  0  0
 37 36  2  0  0  0  0
 38 37  1  0  0  0  0
 39 33  1  0  0  0  0
 40 34  1  0  0  0  0
 41 42  1  0  0  0  0
 43 41  1  0  0  0  0
 44 41  1  0  0  0  0
M  END
>  <minimizedAffinity>
-6.31517029

$$$$

 OpenBabel03242518563D

 44 47  0  0  1  0  0  0  0  0999 V2000
   39.4530   28.5840   42.9360 C   0  0  2  0  0  0  0  0  0  0  0  0
   40.1150   29.3060   41.8130 C   0  0  0  0  0  0  0  0  0  0  0  0
   41.5780   29.2730   42.0480 C   0  0  0  0  0  0  0  0  0  0  0  0
   42.0070   28.6450   43.3300 C   0  0  0  0  0  0  0  0  0  0  0  0
   41.4430   27.2530   43.4750 C   0  0  0  0  0  0  0  0  0  0  0  0
   40.0480   27.1930   43.0540 C   0  0  2  0  0  0  0  0  0  0  0  0
   39.7450   29.0700   43.8910 H   0  0  0  0  0  0  0  0  0  0  0  0
   39.7920   28.9850   40.8080 H   0  0  0  0  0  0  0  0  0  0  0  0
   39.7270   30.3530   41.8800 H   0  0  0  0  0  0  0  0  0  0  0  0
   41.9570   30.3380   42.1240 H   0  0  0  0  0  0  0  0  0  0  0  0
   42.1990   28.8800   41.2070 H   0  0  0  0  0  0  0  0  0  0  0  0
   43.1250   28.5710   43.2950 H   0  0  0  0  0  0  0  0  0  0  0  0
   41.8050   29.2840   44.2180 H   0  0  0  0  0  0  0  0  0  0  0  0
   42.1560   26.5440   43.0100 H   0  0  0  0  0  0  0  0  0  0  0  0
   41.5380   27.0300   44.5810 H   0  0  0  0  0  0  0  0  0  0  0  0
   39.4600   26.7060   43.8400 H   0  0  0  0  0  0  0  0  0  0  0  0
   40.0370   26.5240   41.7300 C   0  0  0  0  0  0  0  0  0  0  0  0
   40.8540   25.7890   41.6620 H   0  0  0  0  0  0  0  0  0  0  0  0
   40.3050   27.2750   40.9230 H   0  0  0  0  0  0  0  0  0  0  0  0
   38.7960   25.7990   41.3760 C   0  0  0  0  0  0  0  0  0  0  0  0
   38.2860   24.8000   42.2170 C   0  0  0  0  0  0  0  0  0  0  0  0
   38.7840   24.5170   43.1410 H   0  0  0  0  0  0  0  0  0  0  0  0
   37.1440   24.0890   41.9730 C   0  0  0  0  0  3  0  0  0  0  0  0
   36.4200   24.3390   40.8380 C   0  0  0  0  0  3  0  0  0  0  0  0
   36.8760   25.3050   39.9840 C   0  0  0  0  0  0  0  0  0  0  0  0
   36.1430   25.5530   38.8300 C   0  0  0  0  0  3  0  0  0  0  0  0
   36.6020   26.5210   37.9620 C   0  0  0  0  0  3  0  0  0  0  0  0
   37.7610   27.2520   38.1960 C   0  0  0  0  0  3  0  0  0  0  0  0
   38.4690   26.9840   39.3500 C   0  0  0  0  0  3  0  0  0  0  0  0
   38.0430   26.0260   40.2430 C   0  0  0  0  0  0  0  0  0  0  0  0
   37.9740   28.5780   42.8830 C   0  0  0  0  0  0  0  0  0  0  0  0
   37.2680   27.9220   43.6790 O   0  0  0  0  0  0  0  0  0  0  0  0
   35.6710   29.6810   40.2720 C   0  0  0  0  0  0  0  0  0  0  0  0
   36.2030   30.9240   39.8350 C   0  0  0  0  0  0  0  0  0  0  0  0
   37.3570   31.3520   40.4680 C   0  0  0  0  0  0  0  0  0  0  0  0
   37.8300   30.5410   41.4180 N   0  0  0  0  0  0  0  0  0  0  0  0
   37.3430   29.3910   41.8270 C   0  0  0  0  0  0  0  0  0  0  0  0
   36.2240   28.9490   41.2300 N   0  0  0  0  0  0  0  0  0  0  0  0
   34.7540   29.2950   39.7980 H   0  0  0  0  0  0  0  0  0  0  0  0
   35.6660   31.4130   39.0580 H   0  0  0  0  0  0  0  0  0  0  0  0
   37.9210   32.6260   40.0280 C   0  0  0  0  0  0  0  0  0  0  0  0
   39.0010   32.3980   39.1930 F   0  0  0  0  0  0  0  0  0  0  0  0
   38.3440   33.2720   41.1450 F   0  0  0  0  0  0  0  0  0  0  0  0
   37.0100   33.3650   39.2840 F   0  0  0  0  0  0  0  0  0  0  0  0
  1  6  1  0  0  0  0
  1  7  1  1  0  0  0
  2  9  1  0  0  0  0
  2  3  1  0  0  0  0
  2  1  1  0  0  0  0
  3 10  1  0  0  0  0
  3  4  1  0  0  0  0
  4  5  1  0  0  0  0
  4 13  1  0  0  0  0
  5 15  1  0  0  0  0
  6  5  1  0  0  0  0
  6 16  1  1  0  0  0
  8  2  1  0  0  0  0
 11  3  1  0  0  0  0
 12  4  1  0  0  0  0
 14  5  1  0  0  0  0
 17  6  1  0  0  0  0
 18 17  1  0  0  0  0
 19 17  1  0  0  0  0
 20 17  1  0  0  0  0
 20 21  1  0  0  0  0
 21 22  1  0  0  0  0
 23 21  2  0  0  0  0
 24 23  1  0  0  0  0
 25 30  1  0  0  0  0
 25 24  2  0  0  0  0
 26 25  1  0  0  0  0
 27 28  1  0  0  0  0
 27 26  2  0  0  0  0
 28 29  2  0  0  0  0
 29 30  1  0  0  0  0
 30 20  2  0  0  0  0
 31  1  1  0  0  0  0
 31 32  2  0  0  0  0
 33 38  1  0  0  0  0
 34 33  2  0  0  0  0
 34 35  1  0  0  0  0
 35 36  2  0  0  0  0
 36 37  1  0  0  0  0
 37 31  1  0  0  0  0
 38 37  2  0  0  0  0
 39 33  1  0  0  0  0
 40 34  1  0  0  0  0
 41 35  1  0  0  0  0
 41 43  1  0  0  0  0
 42 41  1  0  0  0  0
 44 41  1  0  0  0  0
M  END
>  <minimizedAffinity>
-6.31470251

$$$$
