
 OpenBabel03252503593D

 36 40  0  0  0  0  0  0  0  0999 V2000
   47.3980   34.8600   42.6350 C   0  0  0  0  0  0  0  0  0  0  0  0
   46.3180   35.5710   42.1320 C   0  0  0  0  0  0  0  0  0  0  0  0
   45.0860   35.3720   42.7310 C   0  0  0  0  0  0  0  0  0  0  0  0
   44.9950   34.5040   43.7680 N   0  0  0  0  0  0  0  0  0  0  0  0
   46.0850   33.8220   44.2330 C   0  0  0  0  0  0  0  0  0  0  0  0
   47.2830   34.0040   43.6630 N   0  0  0  0  0  0  0  0  0  0  0  0
   46.3430   36.2690   41.3130 H   0  0  0  0  0  0  0  0  0  0  0  0
   44.2040   35.8990   42.3830 H   0  0  0  0  0  0  0  0  0  0  0  0
   46.1110   31.5380   45.0640 C   0  0  0  0  0  0  0  0  0  0  0  0
   45.9560   32.8940   45.3500 C   0  0  0  0  0  0  0  0  0  0  0  0
   45.6950   33.2820   46.6390 C   0  0  0  0  0  0  0  0  0  0  0  0
   45.5910   32.3290   47.6230 C   0  0  0  0  0  0  0  0  0  0  0  0
   45.3470   32.4140   48.9470 N   0  0  0  0  0  0  0  0  0  0  0  0
   45.3400   31.1980   49.5060 C   0  0  0  0  0  0  0  0  0  0  0  0
   45.5870   30.2690   48.5320 C   0  0  0  0  0  0  0  0  0  0  0  0
   45.7450   30.9770   47.3470 C   0  0  0  0  0  0  0  0  0  0  0  0
   46.0080   30.5790   46.0510 C   0  0  0  0  0  0  0  0  0  0  0  0
   46.3210   31.1250   44.0710 H   0  0  0  0  0  0  0  0  0  0  0  0
   45.5770   34.3370   46.8440 H   0  0  0  0  0  0  0  0  0  0  0  0
   45.1840   33.3060   49.4800 H   0  0  0  0  0  0  0  0  0  0  0  0
   45.1690   30.9700   50.5600 H   0  0  0  0  0  0  0  0  0  0  0  0
   45.6580   29.1760   48.6030 H   0  0  0  0  0  0  0  0  0  0  0  0
   46.1230   29.5180   45.8640 H   0  0  0  0  0  0  0  0  0  0  0  0
   48.6710   35.1050   41.9660 C   0  0  0  0  0  0  0  0  0  0  0  0
   49.1770   36.2770   41.8180 O   0  0  0  0  0  0  0  0  0  0  0  0
   49.2410   33.8380   41.5150 C   0  0  0  0  0  0  0  0  0  0  0  0
   50.1610   33.1330   42.2980 C   0  0  0  0  0  0  0  0  0  0  0  0
   50.4630   33.5490   43.2710 H   0  0  0  0  0  0  0  0  0  0  0  0
   50.7370   31.9330   41.9430 C   0  0  0  0  0  3  0  0  0  0  0  0
   50.3900   31.3730   40.7350 C   0  0  0  0  0  3  0  0  0  0  0  0
   49.4880   32.0200   39.9190 C   0  0  0  0  0  0  0  0  0  0  0  0
   49.1610   31.4370   38.7130 C   0  0  0  0  0  3  0  0  0  0  0  0
   48.2630   32.0390   37.8530 C   0  0  0  0  0  3  0  0  0  0  0  0
   47.7270   33.2380   38.2690 C   0  0  0  0  0  3  0  0  0  0  0  0
   48.0550   33.8200   39.4770 C   0  0  0  0  0  3  0  0  0  0  0  0
   48.9500   33.2200   40.3340 C   0  0  0  0  0  0  0  0  0  0  0  0
  1  6  1  0  0  0  0
  2  1  2  0  0  0  0
  2  3  1  0  0  0  0
  3  4  2  0  0  0  0
  4  5  1  0  0  0  0
  5 10  1  0  0  0  0
  6  5  2  0  0  0  0
  7  2  1  0  0  0  0
  8  3  1  0  0  0  0
  9 10  2  0  0  0  0
  9 17  1  0  0  0  0
 10 11  1  0  0  0  0
 11 19  1  0  0  0  0
 11 12  2  0  0  0  0
 12 13  1  0  0  0  0
 13 20  1  0  0  0  0
 13 14  1  0  0  0  0
 14 21  1  0  0  0  0
 15 22  1  0  0  0  0
 15 14  2  0  0  0  0
 16 12  1  0  0  0  0
 16 15  1  0  0  0  0
 17 16  2  0  0  0  0
 18  9  1  0  0  0  0
 23 17  1  0  0  0  0
 24  1  1  0  0  0  0
 25 24  2  0  0  0  0
 26 24  1  0  0  0  0
 26 27  1  0  0  0  0
 27 28  1  0  0  0  0
 29 27  2  0  0  0  0
 30 29  1  0  0  0  0
 31 36  1  0  0  0  0
 31 30  2  0  0  0  0
 32 31  1  0  0  0  0
 33 34  1  0  0  0  0
 33 32  2  0  0  0  0
 34 35  2  0  0  0  0
 35 36  1  0  0  0  0
 36 26  2  0  0  0  0
M  END
>  <minimizedAffinity>
-6.85814333

>  <minimizedRMSD>
1.95711446

$$$$
