
 OpenBabel03252508003D

 31 34  0  0  1  0  0  0  0  0999 V2000
   46.1830   34.7460   43.3530 C   0  0  0  0  0  0  0  0  0  0  0  0
   45.2430   35.7410   43.7580 C   0  0  0  0  0  0  0  0  0  0  0  0
   44.6330   35.5330   44.9920 C   0  0  0  0  0  0  0  0  0  0  0  0
   44.9580   34.4350   45.7120 N   0  0  0  0  0  0  0  0  0  0  0  0
   45.8740   33.5160   45.2570 C   0  0  0  0  0  0  0  0  0  0  0  0
   46.4870   33.6550   44.0980 N   0  0  0  0  0  0  0  0  0  0  0  0
   45.0490   36.5860   43.1130 H   0  0  0  0  0  0  0  0  0  0  0  0
   43.9130   36.2610   45.3410 H   0  0  0  0  0  0  0  0  0  0  0  0
   46.1850   32.3400   46.1220 C   0  0  1  0  0  0  0  0  0  0  0  0
   47.0650   32.5340   47.3360 C   0  0  0  0  0  0  0  0  0  0  0  0
   45.5720   32.3930   47.4660 C   0  0  1  0  0  0  0  0  0  0  0  0
   46.2300   31.3620   45.6080 H   0  0  0  0  0  0  0  0  0  0  0  0
   47.5450   33.5200   47.3920 H   0  0  0  0  0  0  0  0  0  0  0  0
   47.6590   31.6430   47.6140 H   0  0  0  0  0  0  0  0  0  0  0  0
   45.2060   31.4730   47.9830 H   0  0  0  0  0  0  0  0  0  0  0  0
   44.9440   33.6090   47.9300 N   0  0  0  0  0  0  0  0  0  0  0  0
   43.9440   33.6900   47.8120 H   0  0  0  0  0  0  0  0  0  0  0  0
   45.5330   34.4230   48.0370 H   0  0  0  0  0  0  0  0  0  0  0  0
   46.8170   34.9820   42.0720 C   0  0  0  0  0  0  0  0  0  0  0  0
   47.9100   35.6370   41.9460 O   0  0  0  0  0  0  0  0  0  0  0  0
   46.0180   34.3670   41.0170 C   0  0  0  0  0  0  0  0  0  0  0  0
   44.6400   34.4930   40.9560 C   0  0  0  0  0  0  0  0  0  0  0  0
   44.1360   35.0790   41.7240 H   0  0  0  0  0  0  0  0  0  0  0  0
   43.8400   33.9280   39.9860 C   0  0  0  0  0  3  0  0  0  0  0  0
   44.4260   33.1830   39.0000 C   0  0  0  0  0  3  0  0  0  0  0  0
   45.7960   33.0140   38.9970 C   0  0  0  0  0  0  0  0  0  0  0  0
   46.4220   32.2590   38.0020 C   0  0  0  0  0  3  0  0  0  0  0  0
   47.7790   32.0780   37.9760 C   0  0  0  0  0  3  0  0  0  0  0  0
   48.5620   32.6630   38.9730 C   0  0  0  0  0  3  0  0  0  0  0  0
   47.9020   33.4020   39.9380 C   0  0  0  0  0  3  0  0  0  0  0  0
   46.5410   33.6050   39.9950 C   0  0  0  0  0  0  0  0  0  0  0  0
  1  2  2  0  0  0  0
  1  6  1  0  0  0  0
  2  3  1  0  0  0  0
  3  8  1  0  0  0  0
  3  4  2  0  0  0  0
  5  4  1  0  0  0  0
  5  9  1  0  0  0  0
  6  5  2  0  0  0  0
  7  2  1  0  0  0  0
  9 12  1  6  0  0  0
  9 10  1  0  0  0  0
  9 11  1  0  0  0  0
 10 13  1  0  0  0  0
 10 11  1  0  0  0  0
 10 14  1  0  0  0  0
 11 16  1  0  0  0  0
 11 15  1  1  0  0  0
 16 18  1  0  0  0  0
 17 16  1  0  0  0  0
 19  1  1  0  0  0  0
 20 19  2  0  0  0  0
 21 19  1  0  0  0  0
 22 21  1  0  0  0  0
 22 23  1  0  0  0  0
 24 22  2  0  0  0  0
 25 24  1  0  0  0  0
 26 25  2  0  0  0  0
 26 31  1  0  0  0  0
 27 26  1  0  0  0  0
 28 27  2  0  0  0  0
 28 29  1  0  0  0  0
 29 30  2  0  0  0  0
 30 31  1  0  0  0  0
 31 21  2  0  0  0  0
M  END
>  <minimizedAffinity>
-6.26807642

>  <minimizedRMSD>
0.197487682

$$$$
