REMARK  Name = 
REMARK  7 active torsions:
REMARK  status: ('A' for Active; 'I' for Inactive)
REMARK    1  A    between atoms: C_3  and  C_8
REMARK    2  A    between atoms: C_7  and  O_15
REMARK    3  A    between atoms: C_8  and  C_13
REMARK    4  A    between atoms: O_15  and  P_17
REMARK    5  A    between atoms: P_17  and  O_18
REMARK    6  A    between atoms: P_17  and  O_19
REMARK    7  A    between atoms: O_19  and  C_29
REMARK                            x       y       z     vdW  Elec       q    Type
REMARK                         _______ _______ _______ _____ _____    ______ ____
ROOT
ATOM      1 BR   UNL     1      45.744  29.891  44.869  0.00  0.00    +0.000 Br
ATOM      2  C   UNL     1      45.697  30.595  46.657  0.00  0.00    +0.000 A 
ATOM      3  C   UNL     1      46.318  31.797  46.842  0.00  0.00    +0.000 A 
ATOM      4  C   UNL     1      46.270  32.288  48.148  0.00  0.00    +0.000 A 
ATOM      5  C   UNL     1      45.648  31.628  49.188  0.00  0.00    +0.000 A 
ATOM      6  C   UNL     1      45.044  30.423  48.923  0.00  0.00    +0.000 A 
ATOM      7  C   UNL     1      45.058  29.887  47.657  0.00  0.00    +0.000 A 
ATOM      8  H   UNL     1      46.743  33.243  48.381  0.00  0.00    +0.000 HD
ATOM      9  H   UNL     1      45.625  32.029  50.189  0.00  0.00    +0.000 HD
ATOM     10  H   UNL     1      44.535  29.841  49.684  0.00  0.00    +0.000 HD
ENDROOT
BRANCH   3  11
ATOM     11  C   UNL     1      47.012  32.604  45.844  0.00  0.00    +0.000 C 
ATOM     12  H   UNL     1      47.386  31.928  45.035  0.00  0.00    +0.000 HD
ATOM     13  H   UNL     1      47.938  33.035  46.312  0.00  0.00    +0.000 HD
BRANCH  11  18
ATOM     14  C   UNL     1      44.517  35.331  45.394  0.00  0.00    +0.000 A 
ATOM     15  C   UNL     1      44.737  35.716  44.061  0.00  0.00    +0.000 A 
ATOM     16  C   UNL     1      45.734  35.031  43.355  0.00  0.00    +0.000 A 
ATOM     17  N   UNL     1      46.430  34.054  43.955  0.00  0.00    +0.000 NA
ATOM     18  C   UNL     1      46.199  33.692  45.261  0.00  0.00    +0.000 A 
ATOM     19  N   UNL     1      45.243  34.355  45.925  0.00  0.00    +0.000 NA
ATOM     20  H   UNL     1      43.777  35.782  46.043  0.00  0.00    +0.000 HD
ATOM     21  H   UNL     1      44.118  36.516  43.678  0.00  0.00    +0.000 HD
ATOM     22  H   UNL     1      45.893  35.331  42.346  0.00  0.00    +0.000 HD
ENDBRANCH  11  18
ENDBRANCH   3  11
BRANCH   7  23
ATOM     23  O   UNL     1      44.445  28.667  47.393  0.00  0.00    +0.000 OA
BRANCH  23  25
ATOM     24  O   UNL     1      44.524  26.106  47.022  0.00  0.00    +0.000 OA
ATOM     25  P   UNL     1      45.044  27.183  47.975  0.00  0.00    +0.000 P 
BRANCH  25  26
ATOM     26  O   UNL     1      44.428  26.947  49.515  0.00  0.00    +0.000 OA
ATOM     27  H   UNL     1      43.837  26.162  49.544  0.00  0.00    +0.000 HD
ENDBRANCH  25  26
BRANCH  25  28
ATOM     28  O   UNL     1      46.726  27.143  47.953  0.00  0.00    +0.000 OA
BRANCH  28  29
ATOM     29  C   UNL     1      47.456  25.965  48.068  0.00  0.00    +0.000 A 
ATOM     30  C   UNL     1      48.832  25.872  48.056  0.00  0.00    +0.000 A 
ATOM     31  H   UNL     1      49.389  26.782  47.950  0.00  0.00    +0.000 HD
ATOM     32  C   UNL     1      49.471  24.649  48.177  0.00  0.00    +0.000 A 
ATOM     33  C   UNL     1      48.682  23.519  48.311  0.00  0.00    +0.000 A 
ATOM     34  C   UNL     1      47.286  23.568  48.328  0.00  0.00    +0.000 A 
ATOM     35  C   UNL     1      46.554  22.400  48.464  0.00  0.00    +0.000 A 
ATOM     36  C   UNL     1      45.163  22.474  48.478  0.00  0.00    +0.000 A 
ATOM     37  C   UNL     1      44.540  23.711  48.355  0.00  0.00    +0.000 A 
ATOM     38  C   UNL     1      45.327  24.836  48.222  0.00  0.00    +0.000 A 
ATOM     39  C   UNL     1      46.693  24.817  48.203  0.00  0.00    +0.000 A 
ENDBRANCH  28  29
ENDBRANCH  25  28
ENDBRANCH  23  25
ENDBRANCH   7  23
TORSDOF 7
