
 OpenBabel03242519413D

 31 33  0  0  0  0  0  0  0  0999 V2000
   47.9710   32.8750   41.8230 O   0  0  0  0  0  0  0  0  0  0  0  0
   47.0970   34.0510   41.3110 P   0  0  2  0  0  0  0  0  0  0  0  0
   45.5080   33.8630   41.9350 O   0  0  0  0  0  0  0  0  0  0  0  0
   44.3970   35.9390   44.7140 C   0  0  0  0  0  0  0  0  0  0  0  0
   44.6530   35.5030   43.3930 C   0  0  0  0  0  0  0  0  0  0  0  0
   45.2710   34.2540   43.2350 C   0  0  0  0  0  0  0  0  0  0  0  0
   45.5840   33.5440   44.3360 N   0  0  0  0  0  0  0  0  0  0  0  0
   45.3260   33.9870   45.5860 C   0  0  0  0  0  0  0  0  0  0  0  0
   44.7360   35.1770   45.7850 N   0  0  0  0  0  0  0  0  0  0  0  0
   43.9210   36.9010   44.8440 H   0  0  0  0  0  0  0  0  0  0  0  0
   44.3630   36.1450   42.5840 H   0  0  0  0  0  0  0  0  0  0  0  0
   45.6110   33.3510   46.4320 H   0  0  0  0  0  0  0  0  0  0  0  0
   47.0290   33.9940   39.6550 O   0  0  0  0  0  0  0  0  0  0  0  0
   46.5100   33.0470   38.8310 C   0  0  0  0  0  0  0  0  0  0  0  0
   45.2040   33.1680   38.4870 O   0  0  0  0  0  0  0  0  0  0  0  0
   46.7910   31.8150   38.0580 C   0  0  0  0  0  0  0  0  0  0  0  0
   46.4360   30.5490   38.5750 C   0  0  0  0  0  0  0  0  0  0  0  0
   45.8200   30.6040   39.5040 H   0  0  0  0  0  0  0  0  0  0  0  0
   46.7090   29.2760   38.1480 C   0  0  0  0  0  3  0  0  0  0  0  0
   47.4700   29.3030   37.0060 C   0  0  0  0  0  3  0  0  0  0  0  0
   47.8590   30.4870   36.4300 C   0  0  0  0  0  0  0  0  0  0  0  0
   48.5870   30.4840   35.2610 C   0  0  0  0  0  3  0  0  0  0  0  0
   49.0180   31.5800   34.5420 C   0  0  0  0  0  3  0  0  0  0  0  0
   48.6510   32.8130   35.1000 C   0  0  0  0  0  3  0  0  0  0  0  0
   47.9270   32.8460   36.2650 C   0  0  0  0  0  3  0  0  0  0  0  0
   47.5230   31.7350   36.9490 C   0  0  0  0  0  0  0  0  0  0  0  0
   47.7520   35.4410   41.9320 O   0  0  0  0  0  0  0  0  0  0  0  0
   49.0030   35.7230   41.4000 C   0  0  0  0  0  0  0  0  0  0  0  0
   49.4480   36.9880   41.7380 F   0  0  0  0  0  0  0  0  0  0  0  0
   49.8900   34.7450   41.7180 F   0  0  0  0  0  0  0  0  0  0  0  0
   48.8420   35.7250   40.0160 F   0  0  0  0  0  0  0  0  0  0  0  0
  2  1  2  1  0  0  0
  2 27  1  0  0  0  0
  2  3  1  0  0  0  0
  3  6  1  0  0  0  0
  4 10  1  0  0  0  0
  4  9  1  0  0  0  0
  5  4  2  0  0  0  0
  6  5  1  0  0  0  0
  6  7  2  0  0  0  0
  7  8  1  0  0  0  0
  8  9  2  0  0  0  0
  8 12  1  0  0  0  0
 11  5  1  0  0  0  0
 13  2  1  0  0  0  0
 14 13  1  0  0  0  0
 15 14  2  0  0  0  0
 16 17  1  0  0  0  0
 16 14  1  0  0  0  0
 17 18  1  0  0  0  0
 19 17  2  0  0  0  0
 20 19  1  0  0  0  0
 21 26  1  0  0  0  0
 21 20  2  0  0  0  0
 22 21  1  0  0  0  0
 23 24  1  0  0  0  0
 23 22  2  0  0  0  0
 24 25  2  0  0  0  0
 25 26  1  0  0  0  0
 26 16  2  0  0  0  0
 28 30  1  0  0  0  0
 28 29  1  0  0  0  0
 28 27  1  0  0  0  0
 31 28  1  0  0  0  0
M  END
>  <minimizedAffinity>
-5.45448875

>  <minimizedRMSD>
1.34766662

$$$$
