REMARK  Name = 
REMARK  4 active torsions:
REMARK  status: ('A' for Active; 'I' for Inactive)
REMARK    1  A    between atoms: C_1  and  C_11
REMARK    2  A    between atoms: C_5  and  C_7
REMARK    3  A    between atoms: C_9  and  N_10
REMARK    4  A    between atoms: C_11  and  C_21
REMARK                            x       y       z     vdW  Elec       q    Type
REMARK                         _______ _______ _______ _____ _____    ______ ____
ROOT
ATOM      1  C   UNL     1      46.262  34.752  43.242  0.00  0.00    +0.000 A 
ATOM      2  C   UNL     1      45.298  35.746  43.590  0.00  0.00    +0.000 A 
ATOM      3  C   UNL     1      44.656  35.567  44.811  0.00  0.00    +0.000 A 
ATOM      4  N   UNL     1      44.973  34.495  45.574  0.00  0.00    +0.000 NA
ATOM      5  C   UNL     1      45.914  33.576  45.173  0.00  0.00    +0.000 A 
ATOM      6  N   UNL     1      46.558  33.688  44.028  0.00  0.00    +0.000 NA
ATOM      7  H   UNL     1      45.112  36.568  42.914  0.00  0.00    +0.000 HD
ATOM      8  H   UNL     1      43.917  36.295  45.117  0.00  0.00    +0.000 HD
ENDROOT
BRANCH   5   9
ATOM      9  C   UNL     1      46.215  32.431  46.082  0.00  0.00    +0.000 C 
ATOM     10  C   UNL     1      47.037  32.678  47.326  0.00  0.00    +0.000 C 
ATOM     11  C   UNL     1      45.544  32.504  47.397  0.00  0.00    +0.000 C 
ATOM     12  H   UNL     1      46.304  31.441  45.597  0.00  0.00    +0.000 HD
ATOM     13  H   UNL     1      47.491  33.676  47.376  0.00  0.00    +0.000 HD
ATOM     14  H   UNL     1      47.639  31.809  47.653  0.00  0.00    +0.000 HD
ATOM     15  H   UNL     1      45.177  31.589  47.923  0.00  0.00    +0.000 HD
BRANCH  11  16
ATOM     16  N   UNL     1      44.868  33.716  47.801  0.00  0.00    +0.000 NA
ATOM     17  H   UNL     1      43.873  33.770  47.639  0.00  0.00    +0.000 HD
ATOM     18  H   UNL     1      45.433  34.547  47.911  0.00  0.00    +0.000 HD
ENDBRANCH  11  16
ENDBRANCH   5   9
BRANCH   1  19
ATOM     19  C   UNL     1      46.930  34.958  41.973  0.00  0.00    +0.000 C 
ATOM     20  O   UNL     1      48.081  35.510  41.873  0.00  0.00    +0.000 OA
BRANCH  19  21
ATOM     21  C   UNL     1      46.089  34.446  40.896  0.00  0.00    +0.000 A 
ATOM     22  C   UNL     1      45.606  35.253  39.879  0.00  0.00    +0.000 A 
ATOM     23  H   UNL     1      45.870  36.310  39.884  0.00  0.00    +0.000 HD
ATOM     24  C   UNL     1      44.805  34.820  38.844  0.00  0.00    +0.000 A 
ATOM     25  C   UNL     1      44.446  33.501  38.794  0.00  0.00    +0.000 A 
ATOM     26  C   UNL     1      44.891  32.638  39.775  0.00  0.00    +0.000 A 
ATOM     27  C   UNL     1      44.543  31.285  39.749  0.00  0.00    +0.000 A 
ATOM     28  C   UNL     1      44.972  30.407  40.709  0.00  0.00    +0.000 A 
ATOM     29  C   UNL     1      45.782  30.876  41.744  0.00  0.00    +0.000 A 
ATOM     30  C   UNL     1      46.104  32.222  41.732  0.00  0.00    +0.000 A 
ATOM     31  C   UNL     1      45.690  33.131  40.784  0.00  0.00    +0.000 A 
ENDBRANCH  19  21
ENDBRANCH   1  19
TORSDOF 4
