
 OpenBabel03252504583D

 39 42  0  0  1  0  0  0  0  0999 V2000
   48.0130   34.0930   42.0690 N   0  0  0  0  0  0  0  0  0  0  0  0
   47.9840   35.0660   41.0420 C   0  0  0  0  0  0  0  0  0  0  0  0
   49.1110   35.9530   41.4090 C   0  0  0  0  0  0  0  0  0  0  0  0
   49.7850   35.3910   42.6480 C   0  0  0  0  0  0  0  0  0  0  0  0
   49.2910   33.9370   42.6330 C   0  0  2  0  0  0  0  0  0  0  0  0
   47.4490   35.3290   40.1690 H   0  0  0  0  0  0  0  0  0  0  0  0
   49.4960   36.8390   40.9450 H   0  0  0  0  0  0  0  0  0  0  0  0
   49.4590   35.8990   43.5530 H   0  0  0  0  0  0  0  0  0  0  0  0
   50.8720   35.3900   42.4520 H   0  0  0  0  0  0  0  0  0  0  0  0
   49.2810   33.4680   43.6130 H   0  0  0  0  0  0  0  0  0  0  0  0
   46.8560   33.4500   42.4290 C   0  0  0  0  0  0  0  0  0  0  0  0
   47.1230   32.3900   42.6800 H   0  0  0  0  0  0  0  0  0  0  0  0
   46.1180   33.3060   41.6090 H   0  0  0  0  0  0  0  0  0  0  0  0
   44.6430   35.6920   44.5290 C   0  0  0  0  0  0  0  0  0  0  0  0
   45.3460   35.2130   43.3870 C   0  0  0  0  0  0  0  0  0  0  0  0
   46.1190   34.0600   43.5160 C   0  0  0  0  0  0  0  0  0  0  0  0
   46.1470   33.4700   44.7300 N   0  0  0  0  0  0  0  0  0  0  0  0
   45.4620   33.9450   45.8270 C   0  0  0  0  0  0  0  0  0  0  0  0
   44.7180   35.0460   45.7230 N   0  0  0  0  0  0  0  0  0  0  0  0
   44.0500   36.5690   44.4480 H   0  0  0  0  0  0  0  0  0  0  0  0
   45.2970   35.7100   42.4410 H   0  0  0  0  0  0  0  0  0  0  0  0
   45.5490   33.3990   46.7640 H   0  0  0  0  0  0  0  0  0  0  0  0
   50.0710   33.2710   41.6760 O   0  0  0  0  0  0  0  0  0  0  0  0
   49.4550   31.1260   43.1230 O   0  0  0  0  0  0  0  0  0  0  0  0
   50.1010   31.6230   41.8480 P   0  0  2  0  0  0  0  0  0  0  0  0
   51.7240   31.1270   41.8880 O   0  0  0  0  0  0  0  0  0  0  0  0
   52.0670   31.2070   40.9510 H   0  0  0  0  0  0  0  0  0  0  0  0
   49.4160   30.8450   40.4840 O   0  0  0  0  0  0  0  0  0  0  0  0
   48.1130   30.9490   40.0860 C   0  0  0  0  0  0  0  0  0  0  0  0
   47.0030   30.2950   40.5210 C   0  0  0  0  0  0  0  0  0  0  0  0
   47.1910   29.5780   41.3080 H   0  0  0  0  0  0  0  0  0  0  0  0
   45.7430   30.5160   40.0100 C   0  0  0  0  0  3  0  0  0  0  0  0
   45.5550   31.4460   39.0010 C   0  0  0  0  0  3  0  0  0  0  0  0
   46.6720   32.1260   38.5440 C   0  0  0  0  0  0  0  0  0  0  0  0
   46.4140   33.0390   37.5370 C   0  0  0  0  0  3  0  0  0  0  0  0
   47.4580   33.7570   37.0210 C   0  0  0  0  0  3  0  0  0  0  0  0
   48.7100   33.5530   37.5130 C   0  0  0  0  0  3  0  0  0  0  0  0
   48.9750   32.6440   38.5170 C   0  0  0  0  0  3  0  0  0  0  0  0
   47.9390   31.8920   39.0680 C   0  0  0  0  0  0  0  0  0  0  0  0
  1 11  1  0  0  0  0
  1  5  1  0  0  0  0
  2  3  2  0  0  0  0
  2  1  1  0  0  0  0
  3  4  1  0  0  0  0
  4  8  1  0  0  0  0
  5  4  1  0  0  0  0
  5 10  1  1  0  0  0
  6  2  1  0  0  0  0
  7  3  1  0  0  0  0
  9  4  1  0  0  0  0
 11 12  1  0  0  0  0
 11 16  1  0  0  0  0
 13 11  1  0  0  0  0
 14 19  1  0  0  0  0
 15 16  1  0  0  0  0
 15 14  2  0  0  0  0
 16 17  2  0  0  0  0
 17 18  1  0  0  0  0
 18 22  1  0  0  0  0
 19 18  2  0  0  0  0
 20 14  1  0  0  0  0
 21 15  1  0  0  0  0
 23 25  1  0  0  0  0
 23  5  1  0  0  0  0
 25 26  1  0  0  0  0
 25 24  2  1  0  0  0
 27 26  1  0  0  0  0
 28 25  1  0  0  0  0
 29 28  1  0  0  0  0
 29 30  1  0  0  0  0
 30 31  1  0  0  0  0
 32 30  2  0  0  0  0
 33 32  1  0  0  0  0
 34 33  2  0  0  0  0
 34 39  1  0  0  0  0
 35 34  1  0  0  0  0
 36 37  1  0  0  0  0
 36 35  2  0  0  0  0
 37 38  2  0  0  0  0
 38 39  1  0  0  0  0
 39 29  2  0  0  0  0
M  END
>  <minimizedAffinity>
-5.23432398

>  <minimizedRMSD>
1.46045995

$$$$
