
 OpenBabel03252504583D

 39 42  0  0  1  0  0  0  0  0999 V2000
   48.0090   34.0970   42.0660 N   0  0  0  0  0  0  0  0  0  0  0  0
   47.9820   35.0700   41.0410 C   0  0  0  0  0  0  0  0  0  0  0  0
   49.1090   35.9550   41.4090 C   0  0  0  0  0  0  0  0  0  0  0  0
   49.7820   35.3910   42.6480 C   0  0  0  0  0  0  0  0  0  0  0  0
   49.2860   33.9380   42.6320 C   0  0  2  0  0  0  0  0  0  0  0  0
   47.4480   35.3350   40.1670 H   0  0  0  0  0  0  0  0  0  0  0  0
   49.4970   36.8410   40.9450 H   0  0  0  0  0  0  0  0  0  0  0  0
   49.4560   35.8990   43.5530 H   0  0  0  0  0  0  0  0  0  0  0  0
   50.8690   35.3890   42.4530 H   0  0  0  0  0  0  0  0  0  0  0  0
   49.2740   33.4680   43.6110 H   0  0  0  0  0  0  0  0  0  0  0  0
   46.8500   33.4550   42.4260 C   0  0  0  0  0  0  0  0  0  0  0  0
   47.1150   32.3930   42.6730 H   0  0  0  0  0  0  0  0  0  0  0  0
   46.1110   33.3140   41.6050 H   0  0  0  0  0  0  0  0  0  0  0  0
   44.6410   35.6940   44.5320 C   0  0  0  0  0  0  0  0  0  0  0  0
   45.3420   35.2160   43.3880 C   0  0  0  0  0  0  0  0  0  0  0  0
   46.1150   34.0630   43.5140 C   0  0  0  0  0  0  0  0  0  0  0  0
   46.1450   33.4720   44.7270 N   0  0  0  0  0  0  0  0  0  0  0  0
   45.4610   33.9460   45.8270 C   0  0  0  0  0  0  0  0  0  0  0  0
   44.7180   35.0460   45.7240 N   0  0  0  0  0  0  0  0  0  0  0  0
   44.0480   36.5710   44.4520 H   0  0  0  0  0  0  0  0  0  0  0  0
   45.2910   35.7150   42.4430 H   0  0  0  0  0  0  0  0  0  0  0  0
   45.5500   33.3990   46.7620 H   0  0  0  0  0  0  0  0  0  0  0  0
   50.0650   33.2710   41.6740 O   0  0  0  0  0  0  0  0  0  0  0  0
   49.4510   31.1280   43.1240 O   0  0  0  0  0  0  0  0  0  0  0  0
   50.0960   31.6240   41.8480 P   0  0  2  0  0  0  0  0  0  0  0  0
   51.7200   31.1280   41.8880 O   0  0  0  0  0  0  0  0  0  0  0  0
   52.0620   31.2070   40.9510 H   0  0  0  0  0  0  0  0  0  0  0  0
   49.4110   30.8440   40.4850 O   0  0  0  0  0  0  0  0  0  0  0  0
   48.1080   30.9490   40.0860 C   0  0  0  0  0  0  0  0  0  0  0  0
   46.9970   30.2960   40.5190 C   0  0  0  0  0  0  0  0  0  0  0  0
   47.1840   29.5780   41.3060 H   0  0  0  0  0  0  0  0  0  0  0  0
   45.7380   30.5190   40.0080 C   0  0  0  0  0  3  0  0  0  0  0  0
   45.5520   31.4500   38.9990 C   0  0  0  0  0  3  0  0  0  0  0  0
   46.6710   32.1280   38.5410 C   0  0  0  0  0  0  0  0  0  0  0  0
   46.4140   33.0410   37.5360 C   0  0  0  0  0  3  0  0  0  0  0  0
   47.4600   33.7590   37.0210 C   0  0  0  0  0  3  0  0  0  0  0  0
   48.7110   33.5530   37.5130 C   0  0  0  0  0  3  0  0  0  0  0  0
   48.9740   32.6440   38.5170 C   0  0  0  0  0  3  0  0  0  0  0  0
   47.9370   31.8920   39.0680 C   0  0  0  0  0  0  0  0  0  0  0  0
  1 11  1  0  0  0  0
  1  5  1  0  0  0  0
  2  3  2  0  0  0  0
  2  1  1  0  0  0  0
  3  4  1  0  0  0  0
  4  8  1  0  0  0  0
  5  4  1  0  0  0  0
  5 10  1  1  0  0  0
  6  2  1  0  0  0  0
  7  3  1  0  0  0  0
  9  4  1  0  0  0  0
 11 12  1  0  0  0  0
 11 16  1  0  0  0  0
 13 11  1  0  0  0  0
 14 19  1  0  0  0  0
 15 16  1  0  0  0  0
 15 14  2  0  0  0  0
 16 17  2  0  0  0  0
 17 18  1  0  0  0  0
 18 22  1  0  0  0  0
 19 18  2  0  0  0  0
 20 14  1  0  0  0  0
 21 15  1  0  0  0  0
 23 25  1  0  0  0  0
 23  5  1  0  0  0  0
 25 26  1  0  0  0  0
 25 24  2  1  0  0  0
 27 26  1  0  0  0  0
 28 25  1  0  0  0  0
 29 28  1  0  0  0  0
 29 30  1  0  0  0  0
 30 31  1  0  0  0  0
 32 30  2  0  0  0  0
 33 32  1  0  0  0  0
 34 33  2  0  0  0  0
 34 39  1  0  0  0  0
 35 34  1  0  0  0  0
 36 37  1  0  0  0  0
 36 35  2  0  0  0  0
 37 38  2  0  0  0  0
 38 39  1  0  0  0  0
 39 29  2  0  0  0  0
M  END
>  <minimizedAffinity>
-5.23473215

>  <minimizedRMSD>
1.48487639

$$$$
