
     RDKit          3D

 44 47  0  0  0  0  0  0  0  0999 V2000
   45.1392   33.4984   41.1583 F   0  0  0  0  0  0  0  0  0  0  0  0
   46.3327   34.0856   41.0494 C   0  0  0  0  0  0  0  0  0  0  0  0
   46.8410   34.8061   42.1198 C   0  0  0  0  0  0  0  0  0  0  0  0
   48.0756   35.4407   42.0824 C   0  0  0  0  0  0  0  0  0  0  0  0
   48.8523   35.3610   40.9280 C   0  0  0  0  0  0  0  0  0  0  0  0
   48.3126   34.6345   39.8833 C   0  0  0  0  0  0  0  0  0  0  0  0
   47.1072   34.0071   39.8989 C   0  0  0  0  0  0  0  0  0  0  0  0
   45.4469   34.0227   45.4254 C   0  0  0  0  0  0  0  0  0  0  0  0
   44.6010   35.1297   45.6519 C   0  0  0  0  0  0  0  0  0  0  0  0
   44.5145   36.1399   44.6666 C   0  0  0  0  0  0  0  0  0  0  0  0
   45.2707   35.9713   43.5411 N   0  0  0  0  0  0  0  0  0  0  0  0
   46.0602   34.9137   43.3572 C   0  0  0  0  0  0  0  0  0  0  0  0
   46.1467   33.9498   44.2903 N   0  0  0  0  0  0  0  0  0  0  0  0
   45.5299   33.0104   46.4154 N   0  0  0  0  0  0  0  0  0  0  0  0
   46.6705   33.3150   38.8017 O   0  0  0  0  0  0  0  0  0  0  0  0
   48.0818   34.6544   36.9973 O   0  0  0  0  0  0  0  0  0  0  0  0
   47.3377   33.3856   37.2562 P   0  0  2  0  0  0  0  0  0  0  0  0
   46.0646   33.2045   36.1232 O   0  0  0  0  0  0  0  0  0  0  0  0
   48.3559   32.0716   36.9318 O   0  0  0  0  0  0  0  0  0  0  0  0
   48.4044   35.9902   42.9709 H   0  0  0  0  0  0  0  0  0  0  0  0
   49.7868   35.8687   40.9647 H   0  0  0  0  0  0  0  0  0  0  0  0
   49.0191   34.6477   39.0594 H   0  0  0  0  0  0  0  0  0  0  0  0
   44.0182   35.2243   46.5592 H   0  0  0  0  0  0  0  0  0  0  0  0
   43.8744   36.9989   44.8142 H   0  0  0  0  0  0  0  0  0  0  0  0
   46.2901   33.2317   47.0918 H   0  0  0  0  0  0  0  0  0  0  0  0
   44.9855   32.1337   46.5658 H   0  0  0  0  0  0  0  0  0  0  0  0
   45.8772   34.1194   35.7814 H   0  0  0  0  0  0  0  0  0  0  0  0
   48.7750   31.6555   35.6994 C   0  0  0  0  0  0  0  0  0  0  0  0
   49.3595   30.4139   35.4385 C   0  0  0  0  0  0  0  0  0  0  0  0
   49.4883   29.7440   36.2540 H   0  0  0  0  0  0  0  0  0  0  0  0
   49.7713   30.0289   34.1751 C   0  0  0  0  0  0  0  0  0  0  0  0
   49.5986   30.9063   33.1275 C   0  0  0  0  0  0  0  0  0  0  0  0
   49.0293   32.1326   33.3448 C   0  0  0  0  0  0  0  0  0  0  0  0
   48.8895   32.9582   32.2424 C   0  0  0  0  0  0  0  0  0  0  0  0
   48.3183   34.2185   32.3948 C   0  0  0  0  0  0  0  0  0  0  0  0
   47.9053   34.6093   33.6508 C   0  0  0  0  0  0  0  0  0  0  0  0
   48.0481   33.7823   34.7408 C   0  0  0  0  0  0  0  0  0  0  0  0
   48.6118   32.5261   34.6184 C   0  0  0  0  0  0  0  0  0  0  0  0
   50.2196   29.0510   34.0319 H   0  0  0  0  0  0  0  0  0  0  0  0
   49.9229   30.6053   32.1280 H   0  0  0  0  0  0  0  0  0  0  0  0
   49.2021   32.6839   31.2443 H   0  0  0  0  0  0  0  0  0  0  0  0
   48.1932   34.8876   31.5614 H   0  0  0  0  0  0  0  0  0  0  0  0
   47.4456   35.5824   33.8633 H   0  0  0  0  0  0  0  0  0  0  0  0
   47.7285   34.0660   35.7544 H   0  0  0  0  0  0  0  0  0  0  0  0
  2  1  1  0
  2  3  2  0
  3 12  1  0
  4  3  1  0
  5  4  2  0
  6  7  2  0
  6  5  1  0
  7  2  1  0
  8  9  2  0
  8 14  1  0
 10  9  1  0
 11 10  2  0
 12 11  1  0
 12 13  2  0
 13  8  1  0
 15  7  1  0
 16 17  2  0
 17 15  1  1
 18 17  1  0
 19 17  1  0
  4 20  1  0
  5 21  1  0
  6 22  1  0
  9 23  1  0
 10 24  1  0
 14 25  1  0
 14 26  1  0
 18 27  1  0
 28 29  2  0
 29 30  1  0
 29 31  1  0
 31 32  2  0
 32 33  1  0
 33 34  2  0
 34 35  1  0
 35 36  2  0
 36 37  1  0
 37 38  2  0
 38 28  1  0
 38 33  1  0
 31 39  1  0
 32 40  1  0
 34 41  1  0
 35 42  1  0
 36 43  1  0
 37 44  1  0
 19 28  1  0
M  ISO  7  20  14  21  14  22  14  23  14  24  14  27   3  30  15
M  END
>  <DihAtoms>  (1) 
16,18,27,28

>  <DihDeg>  (1) 
0.0008926324254530953

$$$$
