REMARK  Name = 
REMARK  5 active torsions:
REMARK  status: ('A' for Active; 'I' for Inactive)
REMARK    1  A    between atoms: C_1  and  C_7
REMARK    2  A    between atoms: C_2  and  C_14
REMARK    3  A    between atoms: C_13  and  O_18
REMARK    4  A    between atoms: C_17  and  O_19
REMARK    5  A    between atoms: O_19  and  C_39
REMARK                            x       y       z     vdW  Elec       q    Type
REMARK                         _______ _______ _______ _____ _____    ______ ____
ROOT
ATOM      1  C   UNL     1      46.083  33.842  43.134  0.00  0.00    +0.000 C 
ATOM      2  C   UNL     1      45.347  34.959  42.483  0.00  0.00    +0.000 C 
ATOM      3  C   UNL     1      45.185  36.141  43.366  0.00  0.00    +0.000 C 
ATOM      4  C   UNL     1      44.612  35.837  44.723  0.00  0.00    +0.000 C 
ATOM      5  C   UNL     1      45.040  34.503  45.285  0.00  0.00    +0.000 C 
ATOM      6  C   UNL     1      46.302  34.000  44.614  0.00  0.00    +0.000 C 
ATOM      7  H   UNL     1      45.484  32.892  42.990  0.00  0.00    +0.000 HD
ATOM      8  H   UNL     1      45.926  35.290  41.598  0.00  0.00    +0.000 HD
ATOM      9  H   UNL     1      44.507  36.878  42.892  0.00  0.00    +0.000 HD
ATOM     10  H   UNL     1      46.178  36.635  43.511  0.00  0.00    +0.000 HD
ATOM     11  H   UNL     1      45.000  36.607  45.437  0.00  0.00    +0.000 HD
ATOM     12  H   UNL     1      43.500  35.944  44.721  0.00  0.00    +0.000 HD
ATOM     13  H   UNL     1      45.213  34.565  46.370  0.00  0.00    +0.000 HD
ATOM     14  H   UNL     1      44.257  33.739  45.096  0.00  0.00    +0.000 HD
ATOM     15  H   UNL     1      46.477  32.974  45.023  0.00  0.00    +0.000 HD
ATOM     16  H   UNL     1      47.102  34.658  44.923  0.00  0.00    +0.000 HD
ENDROOT
BRANCH   2  18
ATOM     17  C   UNL     1      43.263  35.467  41.150  0.00  0.00    +0.000 C 
ATOM     18  C   UNL     1      44.005  34.471  41.980  0.00  0.00    +0.000 C 
ATOM     19  O   UNL     1      44.220  33.324  41.223  0.00  0.00    +0.000 OA
ATOM     20  C   UNL     1      44.071  33.659  39.880  0.00  0.00    +0.000 C 
ATOM     21  C   UNL     1      42.872  34.596  39.942  0.00  0.00    +0.000 C 
ATOM     22  H   UNL     1      43.908  36.289  40.843  0.00  0.00    +0.000 HD
ATOM     23  H   UNL     1      43.343  34.169  42.819  0.00  0.00    +0.000 HD
ATOM     24  H   UNL     1      43.764  32.726  39.356  0.00  0.00    +0.000 HD
ATOM     25  H   UNL     1      44.950  34.128  39.430  0.00  0.00    +0.000 HD
ATOM     26  H   UNL     1      41.972  34.017  40.151  0.00  0.00    +0.000 HD
BRANCH  17  27
ATOM     27  O   UNL     1      42.098  35.916  41.745  0.00  0.00    +0.000 OA
ATOM     28  H   UNL     1      42.123  35.897  42.736  0.00  0.00    +0.000 HD
ENDBRANCH  17  27
BRANCH  21  29
ATOM     29  O   UNL     1      42.763  35.368  38.815  0.00  0.00    +0.000 OA
BRANCH  29  30
ATOM     30  C   UNL     1      41.624  35.390  38.046  0.00  0.00    +0.000 A 
ATOM     31  C   UNL     1      41.400  35.597  36.703  0.00  0.00    +0.000 A 
ATOM     32  H   UNL     1      42.305  35.779  36.148  0.00  0.00    +0.000 HD
ATOM     33  C   UNL     1      40.148  35.574  36.133  0.00  0.00    +0.000 A 
ATOM     34  C   UNL     1      39.044  35.337  36.901  0.00  0.00    +0.000 A 
ATOM     35  C   UNL     1      39.218  35.122  38.256  0.00  0.00    +0.000 A 
ATOM     36  C   UNL     1      38.054  34.892  38.951  0.00  0.00    +0.000 A 
ATOM     37  C   UNL     1      38.141  34.668  40.309  0.00  0.00    +0.000 A 
ATOM     38  C   UNL     1      39.370  34.680  40.934  0.00  0.00    +0.000 A 
ATOM     39  C   UNL     1      40.504  34.916  40.190  0.00  0.00    +0.000 A 
ATOM     40  C   UNL     1      40.492  35.147  38.832  0.00  0.00    +0.000 A 
ENDBRANCH  29  30
ENDBRANCH  21  29
ENDBRANCH   2  18
BRANCH   1  41
ATOM     41  C   UNL     1      47.387  33.576  42.495  0.00  0.00    +0.000 A 
ATOM     42  C   UNL     1      48.432  34.389  42.933  0.00  0.00    +0.000 A 
ATOM     43  C   UNL     1      49.724  34.232  42.407  0.00  0.00    +0.000 A 
ATOM     44  N   UNL     1      49.861  33.234  41.448  0.00  0.00    +0.000 NA
ATOM     45  C   UNL     1      48.817  32.468  41.050  0.00  0.00    +0.000 A 
ATOM     46  N   UNL     1      47.579  32.634  41.571  0.00  0.00    +0.000 NA
ATOM     47  H   UNL     1      48.475  35.195  43.649  0.00  0.00    +0.000 HD
ATOM     48  H   UNL     1      50.605  34.797  42.666  0.00  0.00    +0.000 HD
ATOM     49  H   UNL     1      49.034  31.715  40.293  0.00  0.00    +0.000 HD
ENDBRANCH   1  41
TORSDOF 5
