
     RDKit          3D

 38 41  0  0  0  0  0  0  0  0999 V2000
   44.6735   35.3748   45.1409 C   0  0  0  0  0  0  0  0  0  0  0  0
   45.1350   35.6964   43.8354 C   0  0  0  0  0  0  0  0  0  0  0  0
   46.0869   34.8517   43.3393 C   0  0  0  0  0  0  0  0  0  0  0  0
   46.5551   33.7785   44.0628 N   0  0  0  0  0  0  0  0  0  0  0  0
   46.0914   33.5133   45.2927 C   0  0  0  0  0  0  0  0  0  0  0  0
   45.1407   34.3198   45.8368 N   0  0  0  0  0  0  0  0  0  0  0  0
   46.5837   35.0942   41.9322 C   0  0  1  0  0  0  0  0  0  0  0  0
   48.0990   35.2967   41.9160 C   0  0  0  0  0  0  0  0  0  0  0  0
   47.3348   34.0768   41.3090 C   0  0  2  0  0  0  0  0  0  0  0  0
   47.4015   33.8920   39.8159 C   0  0  0  0  0  0  0  0  0  0  0  0
   44.6564   36.8129   43.1280 N   0  0  0  0  0  0  0  0  0  0  0  0
   43.9146   35.9833   45.6120 H   0  0  0  0  0  0  0  0  0  0  0  0
   46.4725   32.6652   45.8510 H   0  0  0  0  0  0  0  0  0  0  0  0
   46.0569   35.8873   41.4057 H   0  0  0  0  0  0  0  0  0  0  0  0
   48.5224   35.9867   41.1465 H   0  0  0  0  0  0  0  0  0  0  0  0
   48.6771   35.1598   42.8226 H   0  0  0  0  0  0  0  0  0  0  0  0
   47.6574   33.1441   41.8763 H   0  0  0  0  0  0  0  0  0  0  0  0
   47.9818   32.9485   39.6138 H   0  0  0  0  0  0  0  0  0  0  0  0
   47.9762   34.7608   39.4661 H   0  0  0  0  0  0  0  0  0  0  0  0
   45.4536   37.4856   43.0297 H   0  0  0  0  0  0  0  0  0  0  0  0
   43.6576   36.9319   42.7680 H   0  0  0  0  0  0  0  0  0  0  0  0
   46.0780   33.7200   39.2137 C   0  0  0  0  0  0  0  0  0  0  0  0
   45.0242   33.7322   40.1388 C   0  0  0  0  0  0  0  0  0  0  0  0
   45.1582   33.7499   41.2146 H   0  0  0  0  0  0  0  0  0  0  0  0
   43.7049   33.7272   39.7006 C   0  0  0  0  0  0  0  0  0  0  0  0
   43.3642   33.7082   38.3633 C   0  0  0  0  0  0  0  0  0  0  0  0
   44.3770   33.6906   37.4593 C   0  0  0  0  0  0  0  0  0  0  0  0
   44.0920   33.6214   36.0974 C   0  0  0  0  0  0  0  0  0  0  0  0
   45.1524   33.5559   35.2164 C   0  0  0  0  0  0  0  0  0  0  0  0
   46.4626   33.5604   35.6542 C   0  0  0  0  0  0  0  0  0  0  0  0
   46.7162   33.6330   37.0075 C   0  0  0  0  0  0  0  0  0  0  0  0
   45.6497   33.6978   37.9048 C   0  0  0  0  0  0  0  0  0  0  0  0
   42.8613   33.7456   40.3930 H   0  0  0  0  0  0  0  0  0  0  0  0
   42.3555   33.7082   37.9742 H   0  0  0  0  0  0  0  0  0  0  0  0
   43.0503   33.6179   35.7518 H   0  0  0  0  0  0  0  0  0  0  0  0
   44.8407   33.4990   34.1641 H   0  0  0  0  0  0  0  0  0  0  0  0
   47.2231   33.5026   34.8822 H   0  0  0  0  0  0  0  0  0  0  0  0
   47.7449   33.6274   37.2579 H   0  0  0  0  0  0  0  0  0  0  0  0
  1  6  2  0
  2  1  1  0
  3  2  2  0
  3  4  1  0
  4  5  2  0
  5  6  1  0
  7  3  1  0
  8  7  1  0
  9  8  1  0
  9  7  1  0
 10  9  1  0
 11  2  1  0
  1 12  1  0
  5 13  1  0
  7 14  1  6
  8 15  1  0
  8 16  1  0
  9 17  1  1
 10 18  1  0
 10 19  1  0
 11 20  1  0
 11 21  1  0
 22 23  2  0
 23 24  1  0
 23 25  1  0
 25 26  2  0
 26 27  1  0
 27 28  2  0
 28 29  1  0
 29 30  2  0
 30 31  1  0
 31 32  2  0
 32 22  1  0
 32 27  1  0
 25 33  1  0
 26 34  1  0
 28 35  1  0
 29 36  1  0
 30 37  1  0
 31 38  1  0
 10 22  1  0
M  ISO  8  12  14  13  14  14  13  15  13  16  13  17  13  18   8  19   8
M  ISO  1  24  15
M  END
>  <DihAtoms>  (1) 
8,9,21,22

>  <DihDeg>  (1) 
-46.29226912365502

$$$$
