
 OpenBabel03252503593D

 36 40  0  0  0  0  0  0  0  0999 V2000
   47.4060   34.7360   42.6280 C   0  0  0  0  0  0  0  0  0  0  0  0
   46.3550   35.5130   42.1650 C   0  0  0  0  0  0  0  0  0  0  0  0
   45.1340   35.3860   42.8060 C   0  0  0  0  0  0  0  0  0  0  0  0
   45.0270   34.5200   43.8430 N   0  0  0  0  0  0  0  0  0  0  0  0
   46.0900   33.7720   44.2680 C   0  0  0  0  0  0  0  0  0  0  0  0
   47.2760   33.8830   43.6570 N   0  0  0  0  0  0  0  0  0  0  0  0
   46.3940   36.2120   41.3470 H   0  0  0  0  0  0  0  0  0  0  0  0
   44.2740   35.9670   42.4910 H   0  0  0  0  0  0  0  0  0  0  0  0
   46.0820   31.4900   45.1040 C   0  0  0  0  0  0  0  0  0  0  0  0
   45.9440   32.8470   45.3870 C   0  0  0  0  0  0  0  0  0  0  0  0
   45.6830   33.2420   46.6740 C   0  0  0  0  0  0  0  0  0  0  0  0
   45.5630   32.2930   47.6600 C   0  0  0  0  0  0  0  0  0  0  0  0
   45.3140   32.3840   48.9830 N   0  0  0  0  0  0  0  0  0  0  0  0
   45.2890   31.1690   49.5440 C   0  0  0  0  0  0  0  0  0  0  0  0
   45.5260   30.2350   48.5730 C   0  0  0  0  0  0  0  0  0  0  0  0
   45.6990   30.9380   47.3870 C   0  0  0  0  0  0  0  0  0  0  0  0
   45.9610   30.5340   46.0930 C   0  0  0  0  0  0  0  0  0  0  0  0
   46.2900   31.0710   44.1130 H   0  0  0  0  0  0  0  0  0  0  0  0
   45.5780   34.2990   46.8760 H   0  0  0  0  0  0  0  0  0  0  0  0
   45.1610   33.2800   49.5130 H   0  0  0  0  0  0  0  0  0  0  0  0
   45.1100   30.9460   50.5980 H   0  0  0  0  0  0  0  0  0  0  0  0
   45.5830   29.1420   48.6460 H   0  0  0  0  0  0  0  0  0  0  0  0
   46.0630   29.4710   45.9090 H   0  0  0  0  0  0  0  0  0  0  0  0
   48.6680   34.9060   41.9160 C   0  0  0  0  0  0  0  0  0  0  0  0
   49.3240   36.0110   41.8950 O   0  0  0  0  0  0  0  0  0  0  0  0
   49.0350   33.6550   41.2590 C   0  0  0  0  0  0  0  0  0  0  0  0
   49.7190   32.6450   41.9450 C   0  0  0  0  0  0  0  0  0  0  0  0
   49.9870   32.8040   42.9990 H   0  0  0  0  0  0  0  0  0  0  0  0
   50.0930   31.4380   41.3950 C   0  0  0  0  0  3  0  0  0  0  0  0
   49.7800   31.1930   40.0790 C   0  0  0  0  0  3  0  0  0  0  0  0
   49.1070   32.1500   39.3500 C   0  0  0  0  0  0  0  0  0  0  0  0
   48.8070   31.8780   38.0320 C   0  0  0  0  0  3  0  0  0  0  0  0
   48.1340   32.7980   37.2510 C   0  0  0  0  0  3  0  0  0  0  0  0
   47.7900   33.9830   37.8630 C   0  0  0  0  0  3  0  0  0  0  0  0
   48.0910   34.2540   39.1820 C   0  0  0  0  0  3  0  0  0  0  0  0
   48.7610   33.3370   39.9610 C   0  0  0  0  0  0  0  0  0  0  0  0
  1  6  1  0  0  0  0
  2  1  2  0  0  0  0
  2  3  1  0  0  0  0
  3  4  2  0  0  0  0
  4  5  1  0  0  0  0
  5 10  1  0  0  0  0
  6  5  2  0  0  0  0
  7  2  1  0  0  0  0
  8  3  1  0  0  0  0
  9 10  2  0  0  0  0
  9 17  1  0  0  0  0
 10 11  1  0  0  0  0
 11 19  1  0  0  0  0
 11 12  2  0  0  0  0
 12 13  1  0  0  0  0
 13 20  1  0  0  0  0
 13 14  1  0  0  0  0
 14 21  1  0  0  0  0
 15 22  1  0  0  0  0
 15 14  2  0  0  0  0
 16 12  1  0  0  0  0
 16 15  1  0  0  0  0
 17 16  2  0  0  0  0
 18  9  1  0  0  0  0
 23 17  1  0  0  0  0
 24  1  1  0  0  0  0
 25 24  2  0  0  0  0
 26 24  1  0  0  0  0
 26 27  1  0  0  0  0
 27 28  1  0  0  0  0
 29 27  2  0  0  0  0
 30 29  1  0  0  0  0
 31 36  1  0  0  0  0
 31 30  2  0  0  0  0
 32 31  1  0  0  0  0
 33 34  1  0  0  0  0
 33 32  2  0  0  0  0
 34 35  2  0  0  0  0
 35 36  1  0  0  0  0
 36 26  2  0  0  0  0
M  END
>  <minimizedAffinity>
-6.86390829

>  <minimizedRMSD>
1.26726675

$$$$
