
 OpenBabel03252508003D

 31 34  0  0  1  0  0  0  0  0999 V2000
   47.5170   34.3370   43.1100 C   0  0  0  0  0  0  0  0  0  0  0  0
   46.3580   35.0740   42.7210 C   0  0  0  0  0  0  0  0  0  0  0  0
   45.1920   34.7840   43.4210 C   0  0  0  0  0  0  0  0  0  0  0  0
   45.2230   33.8500   44.4000 N   0  0  0  0  0  0  0  0  0  0  0  0
   46.3790   33.1780   44.7210 C   0  0  0  0  0  0  0  0  0  0  0  0
   47.5170   33.4060   44.0960 N   0  0  0  0  0  0  0  0  0  0  0  0
   46.4320   35.8010   41.9260 H   0  0  0  0  0  0  0  0  0  0  0  0
   44.2880   35.3180   43.1610 H   0  0  0  0  0  0  0  0  0  0  0  0
   46.3290   32.1740   45.8240 C   0  0  1  0  0  0  0  0  0  0  0  0
   46.9910   32.4990   47.1430 C   0  0  0  0  0  0  0  0  0  0  0  0
   45.4980   32.5770   46.9780 C   0  0  1  0  0  0  0  0  0  0  0  0
   46.3050   31.1130   45.5100 H   0  0  0  0  0  0  0  0  0  0  0  0
   47.6080   33.4070   47.1260 H   0  0  0  0  0  0  0  0  0  0  0  0
   47.3700   31.6160   47.6920 H   0  0  0  0  0  0  0  0  0  0  0  0
   44.8970   31.8360   47.5590 H   0  0  0  0  0  0  0  0  0  0  0  0
   45.0040   33.9320   47.0790 N   0  0  0  0  0  0  0  0  0  0  0  0
   44.0700   34.1130   46.7410 H   0  0  0  0  0  0  0  0  0  0  0  0
   45.6890   34.6700   47.1640 H   0  0  0  0  0  0  0  0  0  0  0  0
   48.7270   34.6570   42.3800 C   0  0  0  0  0  0  0  0  0  0  0  0
   49.6530   35.4020   42.8580 O   0  0  0  0  0  0  0  0  0  0  0  0
   48.6880   34.0080   41.0740 C   0  0  0  0  0  0  0  0  0  0  0  0
   48.0860   34.5880   39.9700 C   0  0  0  0  0  0  0  0  0  0  0  0
   47.6260   35.5700   40.0840 H   0  0  0  0  0  0  0  0  0  0  0  0
   48.0170   34.0150   38.7170 C   0  0  0  0  0  3  0  0  0  0  0  0
   48.5800   32.7830   38.5250 C   0  0  0  0  0  3  0  0  0  0  0  0
   49.1980   32.1450   39.5800 C   0  0  0  0  0  0  0  0  0  0  0  0
   49.7810   30.8870   39.4140 C   0  0  0  0  0  3  0  0  0  0  0  0
   50.4030   30.2320   40.4440 C   0  0  0  0  0  3  0  0  0  0  0  0
   50.4560   30.8400   41.6990 C   0  0  0  0  0  3  0  0  0  0  0  0
   49.8650   32.0850   41.8220 C   0  0  0  0  0  3  0  0  0  0  0  0
   49.2330   32.7700   40.8090 C   0  0  0  0  0  0  0  0  0  0  0  0
  1  6  1  0  0  0  0
  2  1  2  0  0  0  0
  2  3  1  0  0  0  0
  3  4  2  0  0  0  0
  4  5  1  0  0  0  0
  5  9  1  0  0  0  0
  6  5  2  0  0  0  0
  7  2  1  0  0  0  0
  8  3  1  0  0  0  0
  9 12  1  6  0  0  0
  9 11  1  0  0  0  0
  9 10  1  0  0  0  0
 10 14  1  0  0  0  0
 11 16  1  0  0  0  0
 11 10  1  0  0  0  0
 11 15  1  1  0  0  0
 13 10  1  0  0  0  0
 16 18  1  0  0  0  0
 17 16  1  0  0  0  0
 19 20  2  0  0  0  0
 19  1  1  0  0  0  0
 21 19  1  0  0  0  0
 22 23  1  0  0  0  0
 22 21  2  0  0  0  0
 24 22  1  0  0  0  0
 25 24  2  0  0  0  0
 25 26  1  0  0  0  0
 26 31  1  0  0  0  0
 27 26  2  0  0  0  0
 27 28  1  0  0  0  0
 28 29  2  0  0  0  0
 29 30  1  0  0  0  0
 31 21  1  0  0  0  0
 31 30  2  0  0  0  0
M  END
>  <minimizedAffinity>
-5.71003819

>  <minimizedRMSD>
3.58142519

$$$$
