
     RDKit          3D

 45 48  0  0  0  0  0  0  0  0999 V2000
   45.7444   29.8914   44.8692 Br  0  0  0  0  0  0  0  0  0  0  0  0
   45.6967   30.5953   46.6565 C   0  0  0  0  0  0  0  0  0  0  0  0
   46.3184   31.7971   46.8423 C   0  0  0  0  0  0  0  0  0  0  0  0
   46.2705   32.2882   48.1482 C   0  0  0  0  0  0  0  0  0  0  0  0
   45.6485   31.6279   49.1882 C   0  0  0  0  0  0  0  0  0  0  0  0
   45.0442   30.4227   48.9234 C   0  0  0  0  0  0  0  0  0  0  0  0
   45.0577   29.8869   47.6565 C   0  0  0  0  0  0  0  0  0  0  0  0
   47.0116   32.6042   45.8443 C   0  0  0  0  0  0  0  0  0  0  0  0
   44.5165   35.3307   45.3943 C   0  0  0  0  0  0  0  0  0  0  0  0
   44.7370   35.7162   44.0608 C   0  0  0  0  0  0  0  0  0  0  0  0
   45.7338   35.0311   43.3547 C   0  0  0  0  0  0  0  0  0  0  0  0
   46.4298   34.0541   43.9547 N   0  0  0  0  0  0  0  0  0  0  0  0
   46.1989   33.6917   45.2605 C   0  0  0  0  0  0  0  0  0  0  0  0
   45.2427   34.3549   45.9246 N   0  0  0  0  0  0  0  0  0  0  0  0
   44.4449   28.6667   47.3928 O   0  0  0  0  0  0  0  0  0  0  0  0
   44.5237   26.1061   47.0217 O   0  0  0  0  0  0  0  0  0  0  0  0
   45.0440   27.1832   47.9754 P   0  0  2  0  0  0  0  0  0  0  0  0
   44.4279   26.9472   49.5154 O   0  0  0  0  0  0  0  0  0  0  0  0
   46.7256   27.1426   47.9534 O   0  0  0  0  0  0  0  0  0  0  0  0
   46.7435   33.2428   48.3809 H   0  0  0  0  0  0  0  0  0  0  0  0
   45.6252   32.0285   50.1893 H   0  0  0  0  0  0  0  0  0  0  0  0
   44.5345   29.8413   49.6845 H   0  0  0  0  0  0  0  0  0  0  0  0
   47.3864   31.9282   45.0353 H   0  0  0  0  0  0  0  0  0  0  0  0
   47.9375   33.0349   46.3119 H   0  0  0  0  0  0  0  0  0  0  0  0
   43.7772   35.7819   46.0427 H   0  0  0  0  0  0  0  0  0  0  0  0
   44.1183   36.5159   43.6784 H   0  0  0  0  0  0  0  0  0  0  0  0
   45.8928   35.3307   42.3458 H   0  0  0  0  0  0  0  0  0  0  0  0
   43.8365   26.1618   49.5437 H   0  0  0  0  0  0  0  0  0  0  0  0
   47.4558   25.9653   48.0680 C   0  0  0  0  0  0  0  0  0  0  0  0
   48.7952   25.8208   47.7700 C   0  0  0  0  0  0  0  0  0  0  0  0
   49.3205   26.6881   47.4201 H   0  0  0  0  0  0  0  0  0  0  0  0
   49.4373   24.6032   47.9169 C   0  0  0  0  0  0  0  0  0  0  0  0
   48.6904   23.5306   48.3739 C   0  0  0  0  0  0  0  0  0  0  0  0
   47.3327   23.6321   48.6873 C   0  0  0  0  0  0  0  0  0  0  0  0
   46.6420   22.5200   49.1403 C   0  0  0  0  0  0  0  0  0  0  0  0
   45.2885   22.6456   49.4466 C   0  0  0  0  0  0  0  0  0  0  0  0
   44.6611   23.8774   49.2925 C   0  0  0  0  0  0  0  0  0  0  0  0
   45.4062   24.9454   48.8371 C   0  0  0  0  0  0  0  0  0  0  0  0
   46.7343   24.8744   48.5233 C   0  0  0  0  0  0  0  0  0  0  0  0
   50.4795   24.4847   47.6865 H   0  0  0  0  0  0  0  0  0  0  0  0
   49.1403   22.5347   48.5128 H   0  0  0  0  0  0  0  0  0  0  0  0
   47.1512   21.5676   49.2534 H   0  0  0  0  0  0  0  0  0  0  0  0
   44.7125   21.8006   49.8035 H   0  0  0  0  0  0  0  0  0  0  0  0
   43.6087   24.0296   49.5168 H   0  0  0  0  0  0  0  0  0  0  0  0
   44.9014   25.9034   48.7215 H   0  0  0  0  0  0  0  0  0  0  0  0
  1  2  1  0
  2  3  2  0
  2  7  1  0
  3  4  1  0
  4  5  2  0
  6  5  1  0
  7  6  2  0
  8  3  1  0
  9 14  2  0
 10  9  1  0
 11 12  1  0
 11 10  2  0
 12 13  2  0
 13  8  1  0
 13 14  1  0
 15  7  1  0
 17 15  1  6
 16 17  2  0
 17 18  1  0
 19 17  1  0
  4 20  1  0
  5 21  1  0
  6 22  1  0
  8 23  1  0
  8 24  1  0
  9 25  1  0
 10 26  1  0
 11 27  1  0
 18 28  1  0
 29 30  2  0
 30 31  1  0
 30 32  1  0
 32 33  2  0
 33 34  1  0
 34 35  2  0
 35 36  1  0
 36 37  2  0
 37 38  1  0
 38 39  2  0
 39 29  1  0
 39 34  1  0
 32 40  1  0
 33 41  1  0
 35 42  1  0
 36 43  1  0
 37 44  1  0
 38 45  1  0
 19 29  1  0
M  ISO  8  20  14  21  14  22  14  23   8  24   8  25  14  26  14  27  14
M  ISO  2  28   3  31  15
M  END
>  <DihAtoms>  (1) 
16,18,28,29

>  <DihDeg>  (1) 
-0.0047924637663360895

$$$$
