
 OpenBabel03252507463D

 39 42  0  0  0  0  0  0  0  0999 V2000
   48.4450   33.8360   41.4120 C   0  0  0  0  0  0  0  0  0  0  0  0
   49.0480   32.6660   40.9830 C   0  0  0  0  0  0  0  0  0  0  0  0
   50.3460   32.3550   41.3650 C   0  0  0  0  0  0  0  0  0  0  0  0
   50.9840   33.2660   42.1840 N   0  0  0  0  0  0  0  0  0  0  0  0
   50.3610   34.3940   42.5800 C   0  0  0  0  0  0  0  0  0  0  0  0
   49.1200   34.6680   42.2010 N   0  0  0  0  0  0  0  0  0  0  0  0
   50.8270   31.4440   41.0360 H   0  0  0  0  0  0  0  0  0  0  0  0
   50.9650   35.0340   43.2230 H   0  0  0  0  0  0  0  0  0  0  0  0
   47.0650   34.0780   40.9510 C   0  0  0  0  0  0  0  0  0  0  0  0
   47.0750   34.5000   39.9060 H   0  0  0  0  0  0  0  0  0  0  0  0
   46.4860   33.1460   40.8760 H   0  0  0  0  0  0  0  0  0  0  0  0
   46.2900   34.9990   41.8390 C   0  0  0  0  0  0  0  0  0  0  0  0
   46.6200   36.0260   41.6780 H   0  0  0  0  0  0  0  0  0  0  0  0
   46.5130   34.7570   42.9180 H   0  0  0  0  0  0  0  0  0  0  0  0
   44.8210   34.9250   41.6420 C   0  0  0  0  0  0  0  0  0  0  0  0
   43.9440   35.3720   42.6900 C   0  0  0  0  0  0  0  0  0  0  0  0
   42.2770   35.0770   41.9660 S   0  0  0  0  0  0  0  0  0  0  0  0
   43.0510   34.4010   40.3710 C   0  0  0  0  0  0  0  0  0  0  0  0
   44.1640   34.4920   40.6030 N   0  0  0  0  0  0  0  0  0  0  0  0
   44.2360   35.7750   43.6520 H   0  0  0  0  0  0  0  0  0  0  0  0
   42.2890   33.9550   39.3000 O   0  0  0  0  0  0  0  0  0  0  0  0
   40.3500   34.4680   37.5580 O   0  0  0  0  0  0  0  0  0  0  0  0
   41.4510   35.1360   38.3880 P   0  0  0  0  0  0  0  0  0  0  0  0
   40.7400   36.2210   39.4810 O   0  0  0  0  0  0  0  0  0  0  0  0
   39.8420   35.8810   39.6980 H   0  0  0  0  0  0  0  0  0  0  0  0
   42.5390   35.9720   37.4020 O   0  0  0  0  0  0  0  0  0  0  0  0
   42.6590   36.9090   37.6700 H   0  0  0  0  0  0  0  0  0  0  0  0
   48.1630   31.5230   39.9220 S   0  0  0  0  0  0  0  0  0  0  0  0
   48.3830   31.8850   38.2110 C   0  0  0  0  0  0  0  0  0  0  0  0
   47.5590   32.7510   37.5220 C   0  0  0  0  0  0  0  0  0  0  0  0
   46.7450   33.2260   38.0580 H   0  0  0  0  0  0  0  0  0  0  0  0
   47.7740   32.9950   36.2000 C   0  0  0  0  0  3  0  0  0  0  0  0
   48.8240   32.3790   35.5190 C   0  0  0  0  0  3  0  0  0  0  0  0
   49.6450   31.5070   36.2310 C   0  0  0  0  0  0  0  0  0  0  0  0
   50.6930   30.8890   35.5610 C   0  0  0  0  0  3  0  0  0  0  0  0
   51.5340   30.0190   36.2190 C   0  0  0  0  0  3  0  0  0  0  0  0
   51.3350   29.7510   37.5770 C   0  0  0  0  0  3  0  0  0  0  0  0
   50.2790   30.3800   38.2340 C   0  0  0  0  0  3  0  0  0  0  0  0
   49.4360   31.2480   37.5870 C   0  0  0  0  0  0  0  0  0  0  0  0
  1  6  1  0  0  0  0
  2  3  1  0  0  0  0
  2  1  2  0  0  0  0
  3  4  2  0  0  0  0
  4  5  1  0  0  0  0
  5  8  1  0  0  0  0
  6  5  2  0  0  0  0
  7  3  1  0  0  0  0
  9  1  1  0  0  0  0
  9 12  1  0  0  0  0
 10  9  1  0  0  0  0
 11  9  1  0  0  0  0
 12 14  1  0  0  0  0
 13 12  1  0  0  0  0
 15 12  1  0  0  0  0
 15 16  2  0  0  0  0
 16 20  1  0  0  0  0
 17 16  1  0  0  0  0
 18 19  2  0  0  0  0
 18 17  1  0  0  0  0
 19 15  1  0  0  0  0
 21 18  1  0  0  0  0
 22 23  2  0  0  0  0
 23 21  1  0  0  0  0
 23 24  1  0  0  0  0
 24 25  1  0  0  0  0
 26 27  1  0  0  0  0
 26 23  1  0  0  0  0
 28  2  1  0  0  0  0
 29 28  1  0  0  0  0
 30 31  1  0  0  0  0
 30 29  2  0  0  0  0
 32 30  1  0  0  0  0
 33 32  2  0  0  0  0
 33 34  1  0  0  0  0
 34 39  1  0  0  0  0
 35 36  1  0  0  0  0
 35 34  2  0  0  0  0
 36 37  2  0  0  0  0
 37 38  1  0  0  0  0
 39 29  1  0  0  0  0
 39 38  2  0  0  0  0
M  END
>  <minimizedAffinity>
-5.13969183

>  <minimizedRMSD>
0.342448682

$$$$
