
 OpenBabel03252503593D

 36 40  0  0  1  0  0  0  0  0999 V2000
   47.3560   34.8970   42.6120 C   0  0  0  0  0  0  0  0  0  0  0  0
   46.2620   35.6170   42.1550 C   0  0  0  0  0  0  0  0  0  0  0  0
   45.0520   35.4210   42.8000 C   0  0  0  0  0  0  0  0  0  0  0  0
   44.9960   34.5470   43.8330 N   0  0  0  0  0  0  0  0  0  0  0  0
   46.0990   33.8560   44.2520 C   0  0  0  0  0  0  0  0  0  0  0  0
   47.2760   34.0350   43.6380 N   0  0  0  0  0  0  0  0  0  0  0  0
   46.2600   36.3210   41.3400 H   0  0  0  0  0  0  0  0  0  0  0  0
   44.1600   35.9560   42.4890 H   0  0  0  0  0  0  0  0  0  0  0  0
   46.3140   31.5880   45.0990 C   0  0  0  0  0  0  0  0  0  0  0  0
   46.0080   32.9210   45.3680 C   0  0  0  0  0  0  0  0  0  0  0  0
   45.6420   33.2830   46.6380 C   0  0  0  0  0  0  0  0  0  0  0  0
   45.5850   32.3250   47.6230 C   0  0  0  0  0  0  0  0  0  0  0  0
   45.2650   32.3870   48.9320 N   0  0  0  0  0  0  0  0  0  0  0  0
   45.3530   31.1770   49.4980 C   0  0  0  0  0  0  0  0  0  0  0  0
   45.7430   30.2770   48.5440 C   0  0  0  0  0  0  0  0  0  0  0  0
   45.8890   30.9950   47.3640 C   0  0  0  0  0  0  0  0  0  0  0  0
   46.2580   30.6250   46.0860 C   0  0  0  0  0  0  0  0  0  0  0  0
   46.6160   31.1970   44.1210 H   0  0  0  0  0  0  0  0  0  0  0  0
   45.4070   34.3200   46.8300 H   0  0  0  0  0  0  0  0  0  0  0  0
   44.9840   33.2590   49.4500 H   0  0  0  0  0  0  0  0  0  0  0  0
   45.1510   30.9350   50.5430 H   0  0  0  0  0  0  0  0  0  0  0  0
   45.9210   29.1970   48.6260 H   0  0  0  0  0  0  0  0  0  0  0  0
   46.4900   29.5800   45.9120 H   0  0  0  0  0  0  0  0  0  0  0  0
   48.6040   35.1390   41.8970 C   0  0  2  0  0  3  0  0  0  0  0  0
   49.1310   36.3050   41.7690 O   0  0  0  0  0  1  0  0  0  0  0  0
   49.1240   33.8790   41.3750 C   0  0  0  0  0  0  0  0  0  0  0  0
   50.0360   33.1080   42.1030 C   0  0  0  0  0  0  0  0  0  0  0  0
   50.3690   33.4670   43.0880 H   0  0  0  0  0  0  0  0  0  0  0  0
   50.5640   31.9080   41.6800 C   0  0  0  0  0  3  0  0  0  0  0  0
   50.1770   31.4180   40.4550 C   0  0  0  0  0  3  0  0  0  0  0  0
   49.2800   32.1330   39.6890 C   0  0  0  0  0  0  0  0  0  0  0  0
   48.9100   31.6190   38.4640 C   0  0  0  0  0  3  0  0  0  0  0  0
   48.0160   32.2900   37.6520 C   0  0  0  0  0  3  0  0  0  0  0  0
   47.5270   33.4830   38.1370 C   0  0  0  0  0  3  0  0  0  0  0  0
   47.8980   33.9950   39.3630 C   0  0  0  0  0  3  0  0  0  0  0  0
   48.7890   33.3270   40.1730 C   0  0  0  0  0  0  0  0  0  0  0  0
  1  6  1  0  0  0  0
  2  1  2  0  0  0  0
  2  3  1  0  0  0  0
  3  4  2  0  0  0  0
  4  5  1  0  0  0  0
  5 10  1  0  0  0  0
  6  5  2  0  0  0  0
  7  2  1  0  0  0  0
  8  3  1  0  0  0  0
  9 10  2  0  0  0  0
  9 17  1  0  0  0  0
 10 11  1  0  0  0  0
 11 19  1  0  0  0  0
 11 12  2  0  0  0  0
 12 13  1  0  0  0  0
 13 20  1  0  0  0  0
 13 14  1  0  0  0  0
 14 21  1  0  0  0  0
 15 22  1  0  0  0  0
 15 14  2  0  0  0  0
 16 12  1  0  0  0  0
 16 15  1  0  0  0  0
 17 16  2  0  0  0  0
 18  9  1  0  0  0  0
 23 17  1  0  0  0  0
 24 25  1  6  0  0  0
 24  1  1  0  0  0  0
 26 24  1  0  0  0  0
 26 27  1  0  0  0  0
 27 28  1  0  0  0  0
 29 27  2  0  0  0  0
 30 29  1  0  0  0  0
 31 36  1  0  0  0  0
 31 30  2  0  0  0  0
 32 31  1  0  0  0  0
 33 34  1  0  0  0  0
 33 32  2  0  0  0  0
 34 35  2  0  0  0  0
 35 36  1  0  0  0  0
 36 26  2  0  0  0  0
M  END
>  <minimizedAffinity>
-6.85519981

>  <minimizedRMSD>
2.09447575

$$$$
