
 OpenBabel03252508003D

 31 34  0  0  1  0  0  0  0  0999 V2000
   48.8770   31.2410   40.3470 C   0  0  0  0  0  0  0  0  0  0  0  0
   50.0850   30.5480   40.0300 C   0  0  0  0  0  0  0  0  0  0  0  0
   50.2930   30.2770   38.6820 C   0  0  0  0  0  0  0  0  0  0  0  0
   49.3670   30.6730   37.7770 N   0  0  0  0  0  0  0  0  0  0  0  0
   48.2250   31.3370   38.1560 C   0  0  0  0  0  0  0  0  0  0  0  0
   47.9680   31.6250   39.4170 N   0  0  0  0  0  0  0  0  0  0  0  0
   50.7650   30.2720   40.8230 H   0  0  0  0  0  0  0  0  0  0  0  0
   51.1940   29.7530   38.3940 H   0  0  0  0  0  0  0  0  0  0  0  0
   47.2630   31.7520   37.0930 C   0  0  1  0  0  0  0  0  0  0  0  0
   46.8670   33.2070   36.9890 C   0  0  0  0  0  0  0  0  0  0  0  0
   47.8540   32.5940   36.0320 C   0  0  1  0  0  0  0  0  0  0  0  0
   46.5130   30.9940   36.7990 H   0  0  0  0  0  0  0  0  0  0  0  0
   47.2060   33.8280   37.8270 H   0  0  0  0  0  0  0  0  0  0  0  0
   45.8490   33.3730   36.5890 H   0  0  0  0  0  0  0  0  0  0  0  0
   47.5270   32.5160   34.9660 H   0  0  0  0  0  0  0  0  0  0  0  0
   49.1840   33.1370   36.1920 N   0  0  0  0  0  0  0  0  0  0  0  0
   49.9490   32.6240   35.7790 H   0  0  0  0  0  0  0  0  0  0  0  0
   49.3310   33.7860   36.9530 H   0  0  0  0  0  0  0  0  0  0  0  0
   48.6810   31.5260   41.7530 C   0  0  0  0  0  0  0  0  0  0  0  0
   48.6860   30.6180   42.6560 O   0  0  0  0  0  0  0  0  0  0  0  0
   48.4860   32.9610   41.9320 C   0  0  0  0  0  0  0  0  0  0  0  0
   49.5170   33.8760   41.7940 C   0  0  0  0  0  0  0  0  0  0  0  0
   50.5100   33.5070   41.5380 H   0  0  0  0  0  0  0  0  0  0  0  0
   49.3870   35.2390   41.9580 C   0  0  0  0  0  3  0  0  0  0  0  0
   48.1600   35.7510   42.2790 C   0  0  0  0  0  3  0  0  0  0  0  0
   47.0870   34.8980   42.4320 C   0  0  0  0  0  0  0  0  0  0  0  0
   45.8210   35.3910   42.7600 C   0  0  0  0  0  3  0  0  0  0  0  0
   44.7380   34.5680   42.9160 C   0  0  0  0  0  3  0  0  0  0  0  0
   44.9020   33.1920   42.7440 C   0  0  0  0  0  3  0  0  0  0  0  0
   46.1720   32.7450   42.4200 C   0  0  0  0  0  3  0  0  0  0  0  0
   47.2800   33.5450   42.2550 C   0  0  0  0  0  0  0  0  0  0  0  0
  1 19  1  0  0  0  0
  2  1  1  0  0  0  0
  2  7  1  0  0  0  0
  3  2  2  0  0  0  0
  4  5  2  0  0  0  0
  4  3  1  0  0  0  0
  5  6  1  0  0  0  0
  6  1  2  0  0  0  0
  8  3  1  0  0  0  0
  9 12  1  6  0  0  0
  9  5  1  0  0  0  0
 10  9  1  0  0  0  0
 10 13  1  0  0  0  0
 11 15  1  6  0  0  0
 11 16  1  0  0  0  0
 11 10  1  0  0  0  0
 11  9  1  0  0  0  0
 14 10  1  0  0  0  0
 16 18  1  0  0  0  0
 17 16  1  0  0  0  0
 19 21  1  0  0  0  0
 19 20  2  0  0  0  0
 21 31  1  0  0  0  0
 22 21  2  0  0  0  0
 22 24  1  0  0  0  0
 23 22  1  0  0  0  0
 24 25  2  0  0  0  0
 25 26  1  0  0  0  0
 26 27  1  0  0  0  0
 27 28  2  0  0  0  0
 29 28  1  0  0  0  0
 30 29  2  0  0  0  0
 31 30  1  0  0  0  0
 31 26  2  0  0  0  0
M  END
>  <minimizedAffinity>
-4.341856

>  <minimizedRMSD>
6.85003948

$$$$
