
 OpenBabel03242516533D

 47 51  0  0  1  0  0  0  0  0999 V2000
   47.7960   32.7580   41.6170 C   0  0  1  0  0  0  0  0  0  0  0  0
   47.4240   32.1590   40.3320 C   0  0  0  0  0  0  0  0  0  0  0  0
   48.4370   32.6630   39.3080 C   0  0  0  0  0  0  0  0  0  0  0  0
   48.1490   34.1380   39.1060 C   0  0  0  0  0  0  0  0  0  0  0  0
   48.1390   34.9340   40.3810 C   0  0  0  0  0  0  0  0  0  0  0  0
   47.6460   34.2830   41.6000 C   0  0  1  0  0  0  0  0  0  0  0  0
   48.9110   32.6300   41.7630 H   0  0  0  0  0  0  0  0  0  0  0  0
   47.5530   31.0550   40.3940 H   0  0  0  0  0  0  0  0  0  0  0  0
   46.4160   32.4120   39.9660 H   0  0  0  0  0  0  0  0  0  0  0  0
   48.3170   32.1750   38.3380 H   0  0  0  0  0  0  0  0  0  0  0  0
   49.4540   32.5570   39.7450 H   0  0  0  0  0  0  0  0  0  0  0  0
   47.1320   34.2320   38.6540 H   0  0  0  0  0  0  0  0  0  0  0  0
   48.9200   34.5340   38.4190 H   0  0  0  0  0  0  0  0  0  0  0  0
   49.1870   35.3160   40.5220 H   0  0  0  0  0  0  0  0  0  0  0  0
   47.5250   35.8510   40.1790 H   0  0  0  0  0  0  0  0  0  0  0  0
   48.2750   34.6340   42.4710 H   0  0  0  0  0  0  0  0  0  0  0  0
   45.3120   30.8890   43.7750 C   0  0  0  0  0  0  0  0  0  0  0  0
   45.9910   31.4370   42.6840 C   0  0  0  0  0  0  0  0  0  0  0  0
   47.1480   32.2150   42.7920 C   0  0  0  0  0  0  0  0  0  0  0  0
   47.5920   32.4200   44.0400 N   0  0  0  0  0  0  0  0  0  0  0  0
   46.9420   31.8930   45.1140 C   0  0  0  0  0  0  0  0  0  0  0  0
   45.8430   31.1540   44.9990 N   0  0  0  0  0  0  0  0  0  0  0  0
   44.4320   30.3050   43.5810 H   0  0  0  0  0  0  0  0  0  0  0  0
   45.6180   31.2620   41.6830 H   0  0  0  0  0  0  0  0  0  0  0  0
   47.2820   32.0450   46.1300 H   0  0  0  0  0  0  0  0  0  0  0  0
   46.2860   34.6960   41.9490 C   0  0  0  0  0  0  0  0  0  0  0  0
   45.8860   35.2950   43.1450 C   0  0  0  0  0  0  0  0  0  0  0  0
   44.5360   35.6200   43.2500 C   0  0  0  0  0  0  0  0  0  0  0  0
   43.7120   35.3290   42.1830 C   0  0  0  0  0  0  0  0  0  0  0  0
   44.1260   34.7330   41.0010 C   0  0  0  0  0  0  0  0  0  0  0  0
   45.4440   34.4230   40.9150 N   0  0  0  0  0  0  0  0  0  0  0  0
   46.6380   35.4520   43.8670 H   0  0  0  0  0  0  0  0  0  0  0  0
   44.2150   36.0760   44.1520 H   0  0  0  0  0  0  0  0  0  0  0  0
   42.6620   35.5880   42.2800 H   0  0  0  0  0  0  0  0  0  0  0  0
   43.1710   34.4650   39.9330 C   0  0  0  0  0  0  0  0  0  0  0  0
   42.5030   35.4150   39.4760 O   0  0  0  0  0  0  0  0  0  0  0  0
   42.7810   33.2620   39.2210 C   0  0  0  0  0  0  0  0  0  0  0  0
   41.6550   32.5270   39.5170 C   0  0  0  0  0  0  0  0  0  0  0  0
   40.9980   32.8460   40.2960 H   0  0  0  0  0  0  0  0  0  0  0  0
   41.2680   31.3590   38.8940 C   0  0  0  0  0  3  0  0  0  0  0  0
   42.0730   30.8740   37.8830 C   0  0  0  0  0  3  0  0  0  0  0  0
   43.2180   31.5580   37.5330 C   0  0  0  0  0  0  0  0  0  0  0  0
   43.9680   31.0340   36.5230 C   0  0  0  0  0  3  0  0  0  0  0  0
   45.1230   31.6690   36.1120 C   0  0  0  0  0  3  0  0  0  0  0  0
   45.4920   32.8510   36.7570 C   0  0  0  0  0  3  0  0  0  0  0  0
   44.6920   33.3260   37.7680 C   0  0  0  0  0  3  0  0  0  0  0  0
   43.5360   32.7190   38.2030 C   0  0  0  0  0  0  0  0  0  0  0  0
  1  7  1  1  0  0  0
  1 19  1  0  0  0  0
  2  8  1  0  0  0  0
  2  1  1  0  0  0  0
  3 11  1  0  0  0  0
  3  2  1  0  0  0  0
  4  3  1  0  0  0  0
  4  5  1  0  0  0  0
  5 14  1  0  0  0  0
  5  6  1  0  0  0  0
  6  1  1  0  0  0  0
  6 26  1  0  0  0  0
  6 16  1  1  0  0  0
  9  2  1  0  0  0  0
 10  3  1  0  0  0  0
 12  4  1  0  0  0  0
 13  4  1  0  0  0  0
 15  5  1  0  0  0  0
 17 22  1  0  0  0  0
 18 19  1  0  0  0  0
 18 17  2  0  0  0  0
 19 20  2  0  0  0  0
 20 21  1  0  0  0  0
 21 25  1  0  0  0  0
 22 21  2  0  0  0  0
 23 17  1  0  0  0  0
 24 18  1  0  0  0  0
 26 27  1  0  0  0  0
 27 28  2  0  0  0  0
 27 32  1  0  0  0  0
 28 33  1  0  0  0  0
 29 34  1  0  0  0  0
 29 28  1  0  0  0  0
 30 29  2  0  0  0  0
 31 30  1  0  0  0  0
 31 26  2  0  0  0  0
 35 30  1  0  0  0  0
 36 35  2  0  0  0  0
 37 38  1  0  0  0  0
 37 35  1  0  0  0  0
 38 39  1  0  0  0  0
 40 38  2  0  0  0  0
 41 40  1  0  0  0  0
 42 41  2  0  0  0  0
 42 47  1  0  0  0  0
 43 42  1  0  0  0  0
 44 43  2  0  0  0  0
 44 45  1  0  0  0  0
 45 46  2  0  0  0  0
 46 47  1  0  0  0  0
 47 37  2  0  0  0  0
M  END
>  <minimizedAffinity>
-5.91926193

>  <minimizedRMSD>
0.797436893

$$$$
