
     RDKit          3D

 32 34  0  0  0  0  0  0  0  0999 V2000
   45.1906   35.2116   44.0642 C   0  0  0  0  0  0  0  0  0  0  0  0
   46.2131   34.5904   43.3604 C   0  0  0  0  0  0  0  0  0  0  0  0
   46.8923   33.5661   44.0544 C   0  0  0  0  0  0  0  0  0  0  0  0
   46.5243   33.2518   45.3289 N   0  0  0  0  0  0  0  0  0  0  0  0
   45.5118   33.9094   45.9447 C   0  0  0  0  0  0  0  0  0  0  0  0
   44.8442   34.8935   45.3057 N   0  0  0  0  0  0  0  0  0  0  0  0
   46.5613   34.9575   42.0061 C   0  0  1  0  0  0  0  0  0  0  0  0
   48.0585   35.2057   41.9415 C   0  0  0  0  0  0  0  0  0  0  0  0
   44.5989   36.0121   43.6434 H   0  0  0  0  0  0  0  0  0  0  0  0
   47.7119   33.0175   43.5832 H   0  0  0  0  0  0  0  0  0  0  0  0
   45.3909   33.4970   46.9515 H   0  0  0  0  0  0  0  0  0  0  0  0
   46.1270   35.9620   41.7837 H   0  0  0  0  0  0  0  0  0  0  0  0
   48.6378   34.4647   42.5032 H   0  0  0  0  0  0  0  0  0  0  0  0
   48.2881   36.2100   42.4017 H   0  0  0  0  0  0  0  0  0  0  0  0
   48.3872   35.2931   40.8812 H   0  0  0  0  0  0  0  0  0  0  0  0
   46.2205   33.9693   40.9599 C   0  0  0  0  0  0  0  0  0  0  0  0
   46.7146   34.1897   39.6654 C   0  0  0  0  0  0  0  0  0  0  0  0
   47.3164   35.0840   39.4708 H   0  0  0  0  0  0  0  0  0  0  0  0
   46.5101   33.3673   38.5880 C   0  0  0  0  0  0  0  0  0  0  0  0
   45.7588   32.2274   38.7802 C   0  0  0  0  0  0  0  0  0  0  0  0
   45.2442   31.9532   40.0275 C   0  0  0  0  0  0  0  0  0  0  0  0
   44.4919   30.8336   40.2379 C   0  0  0  0  0  0  0  0  0  0  0  0
   43.9773   30.5762   41.4918 C   0  0  0  0  0  0  0  0  0  0  0  0
   44.2065   31.4313   42.5493 C   0  0  0  0  0  0  0  0  0  0  0  0
   44.9685   32.5558   42.3157 C   0  0  0  0  0  0  0  0  0  0  0  0
   45.4797   32.8131   41.0757 C   0  0  0  0  0  0  0  0  0  0  0  0
   46.9262   33.6083   37.6200 H   0  0  0  0  0  0  0  0  0  0  0  0
   45.5731   31.5480   37.9522 H   0  0  0  0  0  0  0  0  0  0  0  0
   44.3266   30.1825   39.3995 H   0  0  0  0  0  0  0  0  0  0  0  0
   43.4000   29.6881   41.5879 H   0  0  0  0  0  0  0  0  0  0  0  0
   43.7702   31.1594   43.4921 H   0  0  0  0  0  0  0  0  0  0  0  0
   45.1330   33.2076   43.1321 H   0  0  0  0  0  0  0  0  0  0  0  0
  1  6  2  0
  2  1  1  0
  2  3  2  0
  3  4  1  0
  4  5  2  0
  6  5  1  0
  7  2  1  0
  8  7  1  0
  1  9  1  0
  3 10  1  0
  5 11  1  0
  7 12  1  6
  8 13  1  0
  8 14  1  0
  8 15  1  0
 16 17  2  0
 17 18  1  0
 17 19  1  0
 19 20  2  0
 20 21  1  0
 21 22  2  0
 22 23  1  0
 23 24  2  0
 24 25  1  0
 25 26  2  0
 26 16  1  0
 26 21  1  0
 19 27  1  0
 20 28  1  0
 22 29  1  0
 23 30  1  0
 24 31  1  0
 25 32  1  0
  7 16  1  0
M  ISO  8   9  14  10  14  11  14  12   8  13   8  14   8  15   8  18  15
M  END
>  <DihAtoms>  (1) 
1,6,15,16

>  <DihDeg>  (1) 
-95.70095803197756

$$$$
