
 OpenBabel03252508033D

 44 48  0  0  1  0  0  0  0  0999 V2000
   41.9950   33.3220   41.2290 C   0  0  0  0  0  0  0  0  0  0  0  0
   42.7740   34.4350   41.3290 C   0  0  0  0  0  0  0  0  0  0  0  0
   42.1700   35.6980   41.2000 C   0  0  0  0  0  0  0  0  0  0  0  0
   40.8280   35.8650   40.9760 C   0  0  0  0  0  0  0  0  0  0  0  0
   40.0400   34.7480   40.8740 C   0  0  0  0  0  0  0  0  0  0  0  0
   40.6280   33.5280   41.0000 C   0  0  0  0  0  0  0  0  0  0  0  0
   42.7200   36.6260   41.2570 H   0  0  0  0  0  0  0  0  0  0  0  0
   40.3710   36.8210   40.8780 H   0  0  0  0  0  0  0  0  0  0  0  0
   38.9780   34.7870   40.7000 H   0  0  0  0  0  0  0  0  0  0  0  0
   39.9890   32.6340   40.9170 H   0  0  0  0  0  0  0  0  0  0  0  0
   42.5680   31.7600   41.4880 S   0  0  0  0  0  0  0  0  0  0  0  0
   41.9670   31.0590   40.2240 O   0  0  0  0  0  0  0  0  0  0  0  0
   41.9440   31.0850   42.6370 O   0  0  0  0  0  0  0  0  0  0  0  0
   44.0490   31.0670   41.0470 C   0  0  0  0  0  0  0  0  0  0  0  0
   44.7140   31.0420   39.7940 C   0  0  0  0  0  0  0  0  0  0  0  0
   44.1340   31.6230   39.0400 H   0  0  0  0  0  0  0  0  0  0  0  0
   45.8710   30.4200   39.3590 C   0  0  0  0  0  3  0  0  0  0  0  0
   46.4060   29.7220   40.3840 C   0  0  0  0  0  3  0  0  0  0  0  0
   45.8960   29.6360   41.6550 C   0  0  0  0  0  0  0  0  0  0  0  0
   46.6470   28.8430   42.5260 C   0  0  0  0  0  3  0  0  0  0  0  0
   46.2260   28.6910   43.8260 C   0  0  0  0  0  3  0  0  0  0  0  0
   45.0720   29.3320   44.2170 C   0  0  0  0  0  3  0  0  0  0  0  0
   44.3980   30.0910   43.2940 C   0  0  0  0  0  3  0  0  0  0  0  0
   44.7420   30.2980   41.9770 C   0  0  0  0  0  0  0  0  0  0  0  0
   44.2150   34.3550   41.5620 C   0  0  0  0  0  0  0  0  0  0  0  0
   45.0840   34.2180   40.6500 O   0  0  0  0  0  0  0  0  0  0  0  0
   44.5720   34.4530   42.9510 C   0  0  0  0  0  0  0  0  0  0  0  0
   44.2680   35.7080   43.5890 C   0  0  0  0  0  0  0  0  0  0  0  0
   44.5870   35.8220   44.9320 C   0  0  0  0  0  0  0  0  0  0  0  0
   45.1570   34.7580   45.5560 N   0  0  0  0  0  0  0  0  0  0  0  0
   45.4230   33.5830   44.8980 C   0  0  0  0  0  0  0  0  0  0  0  0
   45.1310   33.4720   43.6510 N   0  0  0  0  0  0  0  0  0  0  0  0
   43.8280   36.5870   43.1760 H   0  0  0  0  0  0  0  0  0  0  0  0
   44.4130   36.7030   45.5210 H   0  0  0  0  0  0  0  0  0  0  0  0
   46.0330   32.4700   45.6620 C   0  0  1  0  0  0  0  0  0  0  0  0
   46.9720   32.7890   46.8040 C   0  0  0  0  0  0  0  0  0  0  0  0
   45.5680   32.3420   47.0610 C   0  0  1  0  0  0  0  0  0  0  0  0
   46.1860   31.5400   45.0950 H   0  0  0  0  0  0  0  0  0  0  0  0
   47.2780   33.8450   46.9430 H   0  0  0  0  0  0  0  0  0  0  0  0
   47.7480   32.0440   47.0590 H   0  0  0  0  0  0  0  0  0  0  0  0
   45.3710   31.3590   47.5320 H   0  0  0  0  0  0  0  0  0  0  0  0
   44.7600   33.4000   47.6570 N   0  0  0  0  0  0  0  0  0  0  0  0
   43.7640   33.1480   47.4130 H   0  0  0  0  0  0  0  0  0  0  0  0
   44.8700   33.3020   48.6860 H   0  0  0  0  0  0  0  0  0  0  0  0
  1  2  1  0  0  0  0
  1 11  1  0  0  0  0
  2 25  1  0  0  0  0
  3  7  1  0  0  0  0
  3  2  2  0  0  0  0
  4  3  1  0  0  0  0
  5  4  2  0  0  0  0
  5  6  1  0  0  0  0
  6  1  2  0  0  0  0
  8  4  1  0  0  0  0
  9  5  1  0  0  0  0
 10  6  1  0  0  0  0
 11 13  2  0  0  0  0
 12 11  2  0  0  0  0
 14 11  1  0  0  0  0
 14 24  1  0  0  0  0
 15 14  2  0  0  0  0
 16 15  1  0  0  0  0
 17 15  1  0  0  0  0
 17 18  2  0  0  0  0
 18 19  1  0  0  0  0
 19 24  2  0  0  0  0
 19 20  1  0  0  0  0
 20 21  2  0  0  0  0
 21 22  1  0  0  0  0
 23 22  2  0  0  0  0
 24 23  1  0  0  0  0
 25 27  1  0  0  0  0
 26 25  2  0  0  0  0
 27 28  2  0  0  0  0
 27 32  1  0  0  0  0
 28 29  1  0  0  0  0
 29 34  1  0  0  0  0
 29 30  2  0  0  0  0
 31 30  1  0  0  0  0
 31 35  1  0  0  0  0
 32 31  2  0  0  0  0
 33 28  1  0  0  0  0
 35 38  1  6  0  0  0
 35 36  1  0  0  0  0
 35 37  1  0  0  0  0
 36 39  1  0  0  0  0
 36 40  1  0  0  0  0
 36 37  1  0  0  0  0
 37 41  1  1  0  0  0
 37 42  1  0  0  0  0
 42 44  1  0  0  0  0
 43 42  1  0  0  0  0
M  END
>  <minimizedAffinity>
-5.96771526

>  <minimizedRMSD>
0.774439991

$$$$
