
     RDKit          3D

 37 40  0  0  0  0  0  0  0  0999 V2000
   46.2620   34.7518   43.2420 C   0  0  0  0  0  0  0  0  0  0  0  0
   45.2976   35.7458   43.5900 C   0  0  0  0  0  0  0  0  0  0  0  0
   44.6557   35.5672   44.8108 C   0  0  0  0  0  0  0  0  0  0  0  0
   44.9726   34.4955   45.5740 N   0  0  0  0  0  0  0  0  0  0  0  0
   45.9141   33.5762   45.1730 C   0  0  0  0  0  0  0  0  0  0  0  0
   46.5577   33.6876   44.0281 N   0  0  0  0  0  0  0  0  0  0  0  0
   46.2155   32.4305   46.0819 C   0  0  1  0  0  0  0  0  0  0  0  0
   47.0366   32.6777   47.3257 C   0  0  0  0  0  0  0  0  0  0  0  0
   45.5435   32.5039   47.3966 C   0  0  1  0  0  0  0  0  0  0  0  0
   44.8685   33.7164   47.8006 N   0  0  0  0  0  0  0  0  0  0  0  0
   46.9302   34.9576   41.9729 C   0  0  0  0  0  0  0  0  0  0  0  0
   48.0812   35.5099   41.8725 O   0  0  0  0  0  0  0  0  0  0  0  0
   45.1121   36.5680   42.9137 H   0  0  0  0  0  0  0  0  0  0  0  0
   43.9169   36.2946   45.1174 H   0  0  0  0  0  0  0  0  0  0  0  0
   46.3044   31.4414   45.5966 H   0  0  0  0  0  0  0  0  0  0  0  0
   47.4907   33.6763   47.3761 H   0  0  0  0  0  0  0  0  0  0  0  0
   47.6394   31.8090   47.6526 H   0  0  0  0  0  0  0  0  0  0  0  0
   45.1768   31.5889   47.9231 H   0  0  0  0  0  0  0  0  0  0  0  0
   43.8730   33.7695   47.6394 H   0  0  0  0  0  0  0  0  0  0  0  0
   45.4332   34.5465   47.9112 H   0  0  0  0  0  0  0  0  0  0  0  0
   46.0894   34.4455   40.8964 C   0  0  0  0  0  0  0  0  0  0  0  0
   46.2954   34.7774   39.5670 C   0  0  0  0  0  0  0  0  0  0  0  0
   47.1213   35.4436   39.3186 H   0  0  0  0  0  0  0  0  0  0  0  0
   45.5274   34.3260   38.5144 C   0  0  0  0  0  0  0  0  0  0  0  0
   44.4788   33.4874   38.7751 C   0  0  0  0  0  0  0  0  0  0  0  0
   44.2140   33.1138   40.0771 C   0  0  0  0  0  0  0  0  0  0  0  0
   43.1511   32.2578   40.3739 C   0  0  0  0  0  0  0  0  0  0  0  0
   42.8668   31.8701   41.6565 C   0  0  0  0  0  0  0  0  0  0  0  0
   43.6636   32.3444   42.7004 C   0  0  0  0  0  0  0  0  0  0  0  0
   44.7056   33.1897   42.3633 C   0  0  0  0  0  0  0  0  0  0  0  0
   45.0183   33.5987   41.0862 C   0  0  0  0  0  0  0  0  0  0  0  0
   45.7649   34.6400   37.5081 H   0  0  0  0  0  0  0  0  0  0  0  0
   43.8605   33.1179   37.9754 H   0  0  0  0  0  0  0  0  0  0  0  0
   42.5354   31.8919   39.5618 H   0  0  0  0  0  0  0  0  0  0  0  0
   42.0446   31.2069   41.8945 H   0  0  0  0  0  0  0  0  0  0  0  0
   43.4474   32.0458   43.7036 H   0  0  0  0  0  0  0  0  0  0  0  0
   45.2805   33.5170   43.2134 H   0  0  0  0  0  0  0  0  0  0  0  0
  1  2  2  0
  1  6  1  0
  2  3  1  0
  3  4  2  0
  5  4  1  0
  5  7  1  0
  6  5  2  0
  7  8  1  0
  7  9  1  0
  8  9  1  0
  9 10  1  0
 11  1  1  0
 12 11  2  0
  2 13  1  0
  3 14  1  0
  7 15  1  6
  8 16  1  0
  8 17  1  0
  9 18  1  1
 10 19  1  0
 10 20  1  0
 21 22  2  0
 22 23  1  0
 22 24  1  0
 24 25  2  0
 25 26  1  0
 26 27  2  0
 27 28  1  0
 28 29  2  0
 29 30  1  0
 30 31  2  0
 31 21  1  0
 31 26  1  0
 24 32  1  0
 25 33  1  0
 27 34  1  0
 28 35  1  0
 29 36  1  0
 30 37  1  0
 11 21  1  0
M  ISO  8  13  14  14  14  15  13  16  13  17  13  18  13  19   5  20   5
M  ISO  1  23  15
M  END
>  <DihAtoms>  (1) 
0,10,20,21

>  <DihDeg>  (1) 
-45.9037506189624

$$$$
