REMARK  Name = 
REMARK  3 active torsions:
REMARK  status: ('A' for Active; 'I' for Inactive)
REMARK    1  A    between atoms: C_2  and  C_14
REMARK    2  A    between atoms: C_10  and  C_16
REMARK    3  A    between atoms: C_16  and  C_26
REMARK                            x       y       z     vdW  Elec       q    Type
REMARK                         _______ _______ _______ _____ _____    ______ ____
ROOT
ATOM      1  C   UNL     1      46.882  34.927  42.624  0.00  0.00    +0.000 A 
ATOM      2  C   UNL     1      45.962  35.962  42.549  0.00  0.00    +0.000 A 
ATOM      3  C   UNL     1      44.964  36.002  43.508  0.00  0.00    +0.000 A 
ATOM      4  N   UNL     1      44.935  35.040  44.462  0.00  0.00    +0.000 NA
ATOM      5  C   UNL     1      45.862  34.036  44.500  0.00  0.00    +0.000 A 
ATOM      6  N   UNL     1      46.833  33.984  43.579  0.00  0.00    +0.000 NA
ATOM      7  H   UNL     1      45.946  36.746  41.811  0.00  0.00    +0.000 HD
ATOM      8  H   UNL     1      44.215  36.787  43.503  0.00  0.00    +0.000 HD
ENDROOT
BRANCH   5  10
ATOM      9  C   UNL     1      46.050  31.700  45.144  0.00  0.00    +0.000 A 
ATOM     10  C   UNL     1      45.805  33.014  45.539  0.00  0.00    +0.000 A 
ATOM     11  C   UNL     1      45.527  33.279  46.855  0.00  0.00    +0.000 A 
ATOM     12  C   UNL     1      45.496  32.245  47.760  0.00  0.00    +0.000 A 
ATOM     13  N   UNL     1      45.256  32.207  49.087  0.00  0.00    +0.000 N 
ATOM     14  C   UNL     1      45.336  30.952  49.546  0.00  0.00    +0.000 A 
ATOM     15  C   UNL     1      45.638  30.123  48.500  0.00  0.00    +0.000 A 
ATOM     16  C   UNL     1      45.739  30.933  47.375  0.00  0.00    +0.000 A 
ATOM     17  C   UNL     1      46.019  30.660  46.051  0.00  0.00    +0.000 A 
ATOM     18  H   UNL     1      46.280  31.383  44.121  0.00  0.00    +0.000 HD
ATOM     19  H   UNL     1      45.339  34.303  47.145  0.00  0.00    +0.000 HD
ATOM     20  H   UNL     1      45.036  33.040  49.690  0.00  0.00    +0.000 HD
ATOM     21  H   UNL     1      45.188  30.629  50.578  0.00  0.00    +0.000 HD
ATOM     22  H   UNL     1      45.784  29.036  48.482  0.00  0.00    +0.000 HD
ATOM     23  H   UNL     1      46.205  29.627  45.779  0.00  0.00    +0.000 HD
ENDBRANCH   5  10
BRANCH   1  24
ATOM     24  C   UNL     1      47.910  34.931  41.589  0.00  0.00    +0.000 C 
ATOM     25  O   UNL     1      48.828  35.827  41.508  0.00  0.00    +0.000 OA
BRANCH  24  26
ATOM     26  C   UNL     1      47.718  33.788  40.701  0.00  0.00    +0.000 A 
ATOM     27  C   UNL     1      48.583  33.544  39.629  0.00  0.00    +0.000 A 
ATOM     28  H   UNL     1      49.421  34.233  39.452  0.00  0.00    +0.000 HD
ATOM     29  C   UNL     1      48.469  32.485  38.755  0.00  0.00    +0.000 A 
ATOM     30  C   UNL     1      47.437  31.595  38.935  0.00  0.00    +0.000 A 
ATOM     31  C   UNL     1      46.551  31.782  39.975  0.00  0.00    +0.000 A 
ATOM     32  C   UNL     1      45.524  30.874  40.131  0.00  0.00    +0.000 A 
ATOM     33  C   UNL     1      44.605  31.011  41.154  0.00  0.00    +0.000 A 
ATOM     34  C   UNL     1      44.778  32.091  41.991  0.00  0.00    +0.000 A 
ATOM     35  C   UNL     1      45.805  32.998  41.832  0.00  0.00    +0.000 A 
ATOM     36  C   UNL     1      46.722  32.863  40.814  0.00  0.00    +0.000 A 
ENDBRANCH  24  26
ENDBRANCH   1  24
TORSDOF 3
