
 OpenBabel03252503593D

 36 40  0  0  1  0  0  0  0  0999 V2000
   47.0340   35.0850   42.6320 C   0  0  0  0  0  0  0  0  0  0  0  0
   45.9720   35.9430   42.3890 C   0  0  0  0  0  0  0  0  0  0  0  0
   44.8520   35.8200   43.1940 C   0  0  0  0  0  0  0  0  0  0  0  0
   44.8470   34.8780   44.1680 N   0  0  0  0  0  0  0  0  0  0  0  0
   45.9160   34.0510   44.3740 C   0  0  0  0  0  0  0  0  0  0  0  0
   47.0060   34.1580   43.6040 N   0  0  0  0  0  0  0  0  0  0  0  0
   45.9310   36.7050   41.6280 H   0  0  0  0  0  0  0  0  0  0  0  0
   43.9890   36.4630   43.0530 H   0  0  0  0  0  0  0  0  0  0  0  0
   46.2020   31.7390   45.0680 C   0  0  0  0  0  0  0  0  0  0  0  0
   45.8820   33.0460   45.4310 C   0  0  0  0  0  0  0  0  0  0  0  0
   45.5560   33.3210   46.7340 C   0  0  0  0  0  0  0  0  0  0  0  0
   45.5520   32.3030   47.6580 C   0  0  0  0  0  0  0  0  0  0  0  0
   45.2790   32.2760   48.9790 N   0  0  0  0  0  0  0  0  0  0  0  0
   45.4090   31.0350   49.4630 C   0  0  0  0  0  0  0  0  0  0  0  0
   45.7790   30.2040   48.4420 C   0  0  0  0  0  0  0  0  0  0  0  0
   45.8700   30.9980   47.3040 C   0  0  0  0  0  0  0  0  0  0  0  0
   46.1980   30.7150   45.9930 C   0  0  0  0  0  0  0  0  0  0  0  0
   46.4740   31.4160   44.0570 H   0  0  0  0  0  0  0  0  0  0  0  0
   45.3100   34.3390   46.9990 H   0  0  0  0  0  0  0  0  0  0  0  0
   45.0020   33.1080   49.5600 H   0  0  0  0  0  0  0  0  0  0  0  0
   45.2490   30.7240   50.4970 H   0  0  0  0  0  0  0  0  0  0  0  0
   45.9790   29.1250   48.4480 H   0  0  0  0  0  0  0  0  0  0  0  0
   46.4420   29.6880   45.7460 H   0  0  0  0  0  0  0  0  0  0  0  0
   48.1870   35.2560   41.7550 C   0  0  2  0  0  3  0  0  0  0  0  0
   48.9740   36.2710   41.8130 O   0  0  0  0  0  1  0  0  0  0  0  0
   48.2820   34.1220   40.8410 C   0  0  0  0  0  0  0  0  0  0  0  0
   47.4090   33.9830   39.7580 C   0  0  0  0  0  0  0  0  0  0  0  0
   46.6330   34.7440   39.5970 H   0  0  0  0  0  0  0  0  0  0  0  0
   47.4420   32.9440   38.8520 C   0  0  0  0  0  3  0  0  0  0  0  0
   48.3960   31.9660   39.0110 C   0  0  0  0  0  3  0  0  0  0  0  0
   49.2860   32.0490   40.0610 C   0  0  0  0  0  0  0  0  0  0  0  0
   50.2310   31.0530   40.1970 C   0  0  0  0  0  3  0  0  0  0  0  0
   51.1490   31.0810   41.2300 C   0  0  0  0  0  3  0  0  0  0  0  0
   51.0580   32.1470   42.0990 C   0  0  0  0  0  3  0  0  0  0  0  0
   50.1120   33.1400   41.9610 C   0  0  0  0  0  3  0  0  0  0  0  0
   49.1980   33.1140   40.9320 C   0  0  0  0  0  0  0  0  0  0  0  0
  1  6  1  0  0  0  0
  2  1  2  0  0  0  0
  2  3  1  0  0  0  0
  3  4  2  0  0  0  0
  4  5  1  0  0  0  0
  5 10  1  0  0  0  0
  6  5  2  0  0  0  0
  7  2  1  0  0  0  0
  8  3  1  0  0  0  0
  9 10  2  0  0  0  0
  9 17  1  0  0  0  0
 10 11  1  0  0  0  0
 11 19  1  0  0  0  0
 11 12  2  0  0  0  0
 12 13  1  0  0  0  0
 13 14  1  0  0  0  0
 13 20  1  0  0  0  0
 14 21  1  0  0  0  0
 15 22  1  0  0  0  0
 15 14  2  0  0  0  0
 16 12  1  0  0  0  0
 16 15  1  0  0  0  0
 17 16  2  0  0  0  0
 18  9  1  0  0  0  0
 23 17  1  0  0  0  0
 24 25  1  6  0  0  0
 24  1  1  0  0  0  0
 26 36  1  0  0  0  0
 26 24  1  0  0  0  0
 27 26  2  0  0  0  0
 28 27  1  0  0  0  0
 29 30  2  0  0  0  0
 29 27  1  0  0  0  0
 30 31  1  0  0  0  0
 31 32  2  0  0  0  0
 31 36  1  0  0  0  0
 32 33  1  0  0  0  0
 33 34  2  0  0  0  0
 35 34  1  0  0  0  0
 36 35  2  0  0  0  0
M  END
>  <minimizedAffinity>
-6.82731771

>  <minimizedRMSD>
0.672444105

$$$$
