
 OpenBabel03242517513D

 21 23  0  0  0  0  0  0  0  0999 V2000
   37.9180   27.3360   42.7760 C   0  0  0  0  0  0  0  0  0  0  0  0
   36.9510   26.4760   42.3540 C   0  0  0  0  0  0  0  0  0  0  0  0
   35.9880   26.9390   42.1960 H   0  0  0  0  0  0  0  0  0  0  0  0
   37.1340   25.1390   42.1370 C   0  0  0  0  0  3  0  0  0  0  0  0
   38.3750   24.5760   42.3490 C   0  0  0  0  0  3  0  0  0  0  0  0
   39.3930   25.4140   42.7790 C   0  0  0  0  0  0  0  0  0  0  0  0
   40.6100   24.7940   42.9730 C   0  0  0  0  0  3  0  0  0  0  0  0
   41.6710   25.5330   43.3950 C   0  0  0  0  0  3  0  0  0  0  0  0
   41.5060   26.8710   43.6160 C   0  0  0  0  0  3  0  0  0  0  0  0
   40.2870   27.4850   43.4210 C   0  0  0  0  0  3  0  0  0  0  0  0
   39.1800   26.7810   42.9940 C   0  0  0  0  0  0  0  0  0  0  0  0
   37.8970   28.6700   43.0350 O   0  0  0  0  0  0  0  0  0  0  0  0
   38.6730   31.5180   41.0780 C   0  0  0  0  0  0  0  0  0  0  0  0
   37.4570   31.8510   40.4680 C   0  0  0  0  0  0  0  0  0  0  0  0
   36.3480   31.0510   40.7570 C   0  0  0  0  0  0  0  0  0  0  0  0
   36.5110   30.0140   41.6000 N   0  0  0  0  0  0  0  0  0  0  0  0
   37.6800   29.7140   42.1720 C   0  0  0  0  0  0  0  0  0  0  0  0
   38.7350   30.4740   41.8970 N   0  0  0  0  0  0  0  0  0  0  0  0
   39.5050   32.1570   40.8320 H   0  0  0  0  0  0  0  0  0  0  0  0
   37.4090   32.7110   39.7940 H   0  0  0  0  0  0  0  0  0  0  0  0
   35.4010   31.2810   40.3050 H   0  0  0  0  0  0  0  0  0  0  0  0
  1 11  1  0  0  0  0
  1 12  1  0  0  0  0
  2  1  2  0  0  0  0
  3  2  1  0  0  0  0
  4  5  2  0  0  0  0
  4  2  1  0  0  0  0
  5  6  1  0  0  0  0
  6  7  2  0  0  0  0
  6 11  1  0  0  0  0
  7  8  1  0  0  0  0
  8  9  2  0  0  0  0
 10  9  1  0  0  0  0
 11 10  2  0  0  0  0
 13 18  1  0  0  0  0
 14 15  1  0  0  0  0
 14 13  2  0  0  0  0
 15 16  2  0  0  0  0
 16 17  1  0  0  0  0
 17 12  1  0  0  0  0
 18 17  2  0  0  0  0
 19 13  1  0  0  0  0
 20 14  1  0  0  0  0
 21 15  1  0  0  0  0
M  END
>  <minimizedAffinity>
-5.29182243

$$$$

 OpenBabel03242517513D

 21 23  0  0  0  0  0  0  0  0999 V2000
   39.1180   27.9430   43.0280 C   0  0  0  0  0  0  0  0  0  0  0  0
   40.4570   28.0110   43.2640 C   0  0  0  0  0  0  0  0  0  0  0  0
   40.8110   29.0020   43.5060 H   0  0  0  0  0  0  0  0  0  0  0  0
   41.3160   26.9490   43.2100 C   0  0  0  0  0  3  0  0  0  0  0  0
   40.8330   25.6960   42.8960 C   0  0  0  0  0  3  0  0  0  0  0  0
   39.4740   25.5770   42.6470 C   0  0  0  0  0  0  0  0  0  0  0  0
   39.0510   24.3000   42.3400 C   0  0  0  0  0  3  0  0  0  0  0  0
   37.7340   24.0820   42.0800 C   0  0  0  0  0  3  0  0  0  0  0  0
   36.8610   25.1320   42.1300 C   0  0  0  0  0  3  0  0  0  0  0  0
   37.2900   26.4060   42.4380 C   0  0  0  0  0  3  0  0  0  0  0  0
   38.6140   26.6800   42.7090 C   0  0  0  0  0  0  0  0  0  0  0  0
   38.1430   28.8900   43.0410 O   0  0  0  0  0  0  0  0  0  0  0  0
   36.3170   30.9360   40.7990 C   0  0  0  0  0  0  0  0  0  0  0  0
   37.2570   31.8750   40.3570 C   0  0  0  0  0  0  0  0  0  0  0  0
   38.5560   31.7790   40.8640 C   0  0  0  0  0  0  0  0  0  0  0  0
   38.8280   30.7960   41.7420 N   0  0  0  0  0  0  0  0  0  0  0  0
   37.9170   29.9080   42.1500 C   0  0  0  0  0  0  0  0  0  0  0  0
   36.6820   29.9990   41.6680 N   0  0  0  0  0  0  0  0  0  0  0  0
   35.3280   31.0410   40.3870 H   0  0  0  0  0  0  0  0  0  0  0  0
   36.9540   32.6450   39.6410 H   0  0  0  0  0  0  0  0  0  0  0  0
   39.3000   32.4860   40.5430 H   0  0  0  0  0  0  0  0  0  0  0  0
  1 12  1  0  0  0  0
  1  2  1  0  0  0  0
  2  3  1  0  0  0  0
  4  2  2  0  0  0  0
  5  4  1  0  0  0  0
  6 11  1  0  0  0  0
  6  5  2  0  0  0  0
  7  6  1  0  0  0  0
  8  9  1  0  0  0  0
  8  7  2  0  0  0  0
  9 10  2  0  0  0  0
 10 11  1  0  0  0  0
 11  1  2  0  0  0  0
 13 18  1  0  0  0  0
 14 13  2  0  0  0  0
 14 15  1  0  0  0  0
 15 16  2  0  0  0  0
 16 17  1  0  0  0  0
 17 12  1  0  0  0  0
 18 17  2  0  0  0  0
 19 13  1  0  0  0  0
 20 14  1  0  0  0  0
 21 15  1  0  0  0  0
M  END
>  <minimizedAffinity>
-5.22852373

$$$$

 OpenBabel03242517513D

 21 23  0  0  0  0  0  0  0  0999 V2000
   37.0380   29.1560   41.9290 C   0  0  0  0  0  0  0  0  0  0  0  0
   37.5310   28.8750   43.1660 C   0  0  0  0  0  0  0  0  0  0  0  0
   37.6650   29.7430   43.7940 H   0  0  0  0  0  0  0  0  0  0  0  0
   37.8430   27.6230   43.6180 C   0  0  0  0  0  3  0  0  0  0  0  0
   37.6620   26.5340   42.7910 C   0  0  0  0  0  3  0  0  0  0  0  0
   37.1620   26.7710   41.5200 C   0  0  0  0  0  0  0  0  0  0  0  0
   37.0020   25.6440   40.7410 C   0  0  0  0  0  3  0  0  0  0  0  0
   36.5160   25.7740   39.4770 C   0  0  0  0  0  3  0  0  0  0  0  0
   36.1990   27.0180   39.0090 C   0  0  0  0  0  3  0  0  0  0  0  0
   36.3610   28.1410   39.7930 C   0  0  0  0  0  3  0  0  0  0  0  0
   36.8490   28.0640   41.0800 C   0  0  0  0  0  0  0  0  0  0  0  0
   36.6830   30.3270   41.3370 O   0  0  0  0  0  0  0  0  0  0  0  0
   37.5540   33.3270   39.6680 C   0  0  0  0  0  0  0  0  0  0  0  0
   38.9080   33.5060   39.9790 C   0  0  0  0  0  0  0  0  0  0  0  0
   39.5170   32.5480   40.7930 C   0  0  0  0  0  0  0  0  0  0  0  0
   38.7730   31.5140   41.2280 N   0  0  0  0  0  0  0  0  0  0  0  0
   37.4830   31.3600   40.9190 C   0  0  0  0  0  0  0  0  0  0  0  0
   36.9030   32.2720   40.1450 N   0  0  0  0  0  0  0  0  0  0  0  0
   37.1180   34.0850   39.0390 H   0  0  0  0  0  0  0  0  0  0  0  0
   39.4400   34.3760   39.5840 H   0  0  0  0  0  0  0  0  0  0  0  0
   40.5550   32.6570   41.0490 H   0  0  0  0  0  0  0  0  0  0  0  0
  1  2  1  0  0  0  0
  2  4  2  0  0  0  0
  2  3  1  0  0  0  0
  5  4  1  0  0  0  0
  6  5  2  0  0  0  0
  7  6  1  0  0  0  0
  8  7  2  0  0  0  0
  9  8  1  0  0  0  0
  9 10  2  0  0  0  0
 10 11  1  0  0  0  0
 11  6  1  0  0  0  0
 11  1  2  0  0  0  0
 12  1  1  0  0  0  0
 13 14  2  0  0  0  0
 13 18  1  0  0  0  0
 14 15  1  0  0  0  0
 15 21  1  0  0  0  0
 15 16  2  0  0  0  0
 17 16  1  0  0  0  0
 17 12  1  0  0  0  0
 18 17  2  0  0  0  0
 19 13  1  0  0  0  0
 20 14  1  0  0  0  0
M  END
>  <minimizedAffinity>
-5.21618652

$$$$

 OpenBabel03242517513D

 21 23  0  0  0  0  0  0  0  0999 V2000
   37.0150   28.6770   42.1280 C   0  0  0  0  0  0  0  0  0  0  0  0
   35.8950   28.5540   41.3650 C   0  0  0  0  0  0  0  0  0  0  0  0
   35.3130   27.6700   41.5770 H   0  0  0  0  0  0  0  0  0  0  0  0
   35.5010   29.4440   40.4050 C   0  0  0  0  0  3  0  0  0  0  0  0
   36.2650   30.5640   40.1560 C   0  0  0  0  0  3  0  0  0  0  0  0
   37.4170   30.7330   40.9100 C   0  0  0  0  0  0  0  0  0  0  0  0
   38.1390   31.8710   40.6160 C   0  0  0  0  0  3  0  0  0  0  0  0
   39.2860   32.1250   41.3030 C   0  0  0  0  0  3  0  0  0  0  0  0
   39.6940   31.2470   42.2670 C   0  0  0  0  0  3  0  0  0  0  0  0
   38.9680   30.1110   42.5550 C   0  0  0  0  0  3  0  0  0  0  0  0
   37.8000   29.8070   41.8880 C   0  0  0  0  0  0  0  0  0  0  0  0
   37.5380   27.8940   43.1070 O   0  0  0  0  0  0  0  0  0  0  0  0
   40.0990   25.5100   43.6640 C   0  0  0  0  0  0  0  0  0  0  0  0
   39.7010   24.4040   42.9030 C   0  0  0  0  0  0  0  0  0  0  0  0
   38.5070   24.5080   42.1840 C   0  0  0  0  0  0  0  0  0  0  0  0
   37.8120   25.6580   42.2630 N   0  0  0  0  0  0  0  0  0  0  0  0
   38.2090   26.7030   42.9940 C   0  0  0  0  0  0  0  0  0  0  0  0
   39.3440   26.6050   43.6780 N   0  0  0  0  0  0  0  0  0  0  0  0
   41.0230   25.3940   44.2040 H   0  0  0  0  0  0  0  0  0  0  0  0
   40.3240   23.5050   42.8940 H   0  0  0  0  0  0  0  0  0  0  0  0
   38.1760   23.6760   41.5910 H   0  0  0  0  0  0  0  0  0  0  0  0
  1 12  1  0  0  0  0
  2  3  1  0  0  0  0
  2  1  2  0  0  0  0
  4  2  1  0  0  0  0
  5  4  2  0  0  0  0
  5  6  1  0  0  0  0
  6 11  1  0  0  0  0
  7  6  2  0  0  0  0
  7  8  1  0  0  0  0
  8  9  2  0  0  0  0
  9 10  1  0  0  0  0
 11  1  1  0  0  0  0
 11 10  2  0  0  0  0
 13 18  1  0  0  0  0
 13 19  1  0  0  0  0
 14 13  2  0  0  0  0
 15 16  2  0  0  0  0
 15 14  1  0  0  0  0
 16 17  1  0  0  0  0
 17 12  1  0  0  0  0
 17 18  2  0  0  0  0
 20 14  1  0  0  0  0
 21 15  1  0  0  0  0
M  END
>  <minimizedAffinity>
-5.20710135

$$$$

 OpenBabel03242517513D

 21 23  0  0  0  0  0  0  0  0999 V2000
   37.6760   30.7770   41.1880 C   0  0  0  0  0  0  0  0  0  0  0  0
   36.5470   30.8970   40.4370 C   0  0  0  0  0  0  0  0  0  0  0  0
   36.4630   31.8400   39.9170 H   0  0  0  0  0  0  0  0  0  0  0  0
   35.5790   29.9400   40.3200 C   0  0  0  0  0  3  0  0  0  0  0  0
   35.7150   28.7460   40.9970 C   0  0  0  0  0  3  0  0  0  0  0  0
   36.8490   28.5770   41.7760 C   0  0  0  0  0  0  0  0  0  0  0  0
   36.9280   27.3630   42.4280 C   0  0  0  0  0  3  0  0  0  0  0  0
   38.0060   27.1030   43.2160 C   0  0  0  0  0  3  0  0  0  0  0  0
   38.9830   28.0500   43.3440 C   0  0  0  0  0  3  0  0  0  0  0  0
   38.8980   29.2600   42.6900 C   0  0  0  0  0  3  0  0  0  0  0  0
   37.8280   29.5740   41.8790 C   0  0  0  0  0  0  0  0  0  0  0  0
   38.7170   31.6230   41.4050 O   0  0  0  0  0  0  0  0  0  0  0  0
   40.7810   32.0140   38.5530 C   0  0  0  0  0  0  0  0  0  0  0  0
   41.1140   33.3750   38.5610 C   0  0  0  0  0  0  0  0  0  0  0  0
   40.5970   34.1610   39.5940 C   0  0  0  0  0  0  0  0  0  0  0  0
   39.8140   33.5700   40.5160 N   0  0  0  0  0  0  0  0  0  0  0  0
   39.5090   32.2700   40.4910 C   0  0  0  0  0  0  0  0  0  0  0  0
   40.0000   31.5220   39.5090 N   0  0  0  0  0  0  0  0  0  0  0  0
   41.1970   31.4400   37.7430 H   0  0  0  0  0  0  0  0  0  0  0  0
   41.7560   33.7760   37.7730 H   0  0  0  0  0  0  0  0  0  0  0  0
   40.8350   35.2080   39.6280 H   0  0  0  0  0  0  0  0  0  0  0  0
  1 12  1  0  0  0  0
  1 11  1  0  0  0  0
  2  1  2  0  0  0  0
  3  2  1  0  0  0  0
  4  2  1  0  0  0  0
  4  5  2  0  0  0  0
  5  6  1  0  0  0  0
  6 11  2  0  0  0  0
  6  7  1  0  0  0  0
  7  8  2  0  0  0  0
  8  9  1  0  0  0  0
 10  9  2  0  0  0  0
 11 10  1  0  0  0  0
 13 14  2  0  0  0  0
 13 18  1  0  0  0  0
 14 15  1  0  0  0  0
 15 21  1  0  0  0  0
 15 16  2  0  0  0  0
 17 16  1  0  0  0  0
 17 12  1  0  0  0  0
 18 17  2  0  0  0  0
 19 13  1  0  0  0  0
 20 14  1  0  0  0  0
M  END
>  <minimizedAffinity>
-5.11661339

$$$$

 OpenBabel03242517513D

 21 23  0  0  0  0  0  0  0  0999 V2000
   36.8030   28.6370   41.3070 C   0  0  0  0  0  0  0  0  0  0  0  0
   37.2530   29.2220   42.4500 C   0  0  0  0  0  0  0  0  0  0  0  0
   37.1310   30.2950   42.4740 H   0  0  0  0  0  0  0  0  0  0  0  0
   37.8170   28.5540   43.5010 C   0  0  0  0  0  3  0  0  0  0  0  0
   37.9610   27.1840   43.4410 C   0  0  0  0  0  3  0  0  0  0  0  0
   37.5160   26.5420   42.2940 C   0  0  0  0  0  0  0  0  0  0  0  0
   37.6860   25.1740   42.2930 C   0  0  0  0  0  3  0  0  0  0  0  0
   37.2800   24.4550   41.2120 C   0  0  0  0  0  3  0  0  0  0  0  0
   36.7140   25.1070   40.1520 C   0  0  0  0  0  3  0  0  0  0  0  0
   36.5470   26.4760   40.1600 C   0  0  0  0  0  3  0  0  0  0  0  0
   36.9410   27.2500   41.2310 C   0  0  0  0  0  0  0  0  0  0  0  0
   36.2270   29.1520   40.1880 O   0  0  0  0  0  0  0  0  0  0  0  0
   37.6610   30.3980   37.1990 C   0  0  0  0  0  0  0  0  0  0  0  0
   37.7540   31.7780   37.4180 C   0  0  0  0  0  0  0  0  0  0  0  0
   37.3000   32.2700   38.6450 C   0  0  0  0  0  0  0  0  0  0  0  0
   36.8030   31.3960   39.5390 N   0  0  0  0  0  0  0  0  0  0  0  0
   36.7240   30.0820   39.3110 C   0  0  0  0  0  0  0  0  0  0  0  0
   37.1550   29.6130   38.1450 N   0  0  0  0  0  0  0  0  0  0  0  0
   38.0200   30.0550   36.2430 H   0  0  0  0  0  0  0  0  0  0  0  0
   38.1710   32.4210   36.6370 H   0  0  0  0  0  0  0  0  0  0  0  0
   37.3590   33.3240   38.8430 H   0  0  0  0  0  0  0  0  0  0  0  0
  1  2  1  0  0  0  0
  2  3  1  0  0  0  0
  2  4  2  0  0  0  0
  5  4  1  0  0  0  0
  6  5  2  0  0  0  0
  7  6  1  0  0  0  0
  8  7  2  0  0  0  0
  9 10  2  0  0  0  0
  9  8  1  0  0  0  0
 10 11  1  0  0  0  0
 11  1  2  0  0  0  0
 11  6  1  0  0  0  0
 12  1  1  0  0  0  0
 13 14  2  0  0  0  0
 13 18  1  0  0  0  0
 14 15  1  0  0  0  0
 15 21  1  0  0  0  0
 15 16  2  0  0  0  0
 17 16  1  0  0  0  0
 17 12  1  0  0  0  0
 18 17  2  0  0  0  0
 19 13  1  0  0  0  0
 20 14  1  0  0  0  0
M  END
>  <minimizedAffinity>
-4.99657679

$$$$

 OpenBabel03242517513D

 21 23  0  0  0  0  0  0  0  0999 V2000
   37.5510   29.0140   41.3280 C   0  0  0  0  0  0  0  0  0  0  0  0
   37.6490   29.3350   42.6470 C   0  0  0  0  0  0  0  0  0  0  0  0
   37.8370   30.3820   42.8320 H   0  0  0  0  0  0  0  0  0  0  0  0
   37.5270   28.4470   43.6790 C   0  0  0  0  0  3  0  0  0  0  0  0
   37.2870   27.1160   43.4110 C   0  0  0  0  0  3  0  0  0  0  0  0
   37.1800   26.7410   42.0800 C   0  0  0  0  0  0  0  0  0  0  0  0
   36.9390   25.3980   41.8750 C   0  0  0  0  0  3  0  0  0  0  0  0
   36.8170   24.9320   40.6030 C   0  0  0  0  0  3  0  0  0  0  0  0
   36.9360   25.8060   39.5580 C   0  0  0  0  0  3  0  0  0  0  0  0
   37.1770   27.1470   39.7700 C   0  0  0  0  0  3  0  0  0  0  0  0
   37.3080   27.6690   41.0400 C   0  0  0  0  0  0  0  0  0  0  0  0
   37.6470   29.7660   40.2000 O   0  0  0  0  0  0  0  0  0  0  0  0
   39.8770   32.4540   39.6140 C   0  0  0  0  0  0  0  0  0  0  0  0
   39.0740   33.5940   39.7450 C   0  0  0  0  0  0  0  0  0  0  0  0
   37.7230   33.4020   40.0450 C   0  0  0  0  0  0  0  0  0  0  0  0
   37.2730   32.1420   40.1900 N   0  0  0  0  0  0  0  0  0  0  0  0
   38.0560   31.0680   40.0620 C   0  0  0  0  0  0  0  0  0  0  0  0
   39.3410   31.2490   39.7770 N   0  0  0  0  0  0  0  0  0  0  0  0
   40.9130   32.6400   39.3830 H   0  0  0  0  0  0  0  0  0  0  0  0
   39.5190   34.5840   39.6100 H   0  0  0  0  0  0  0  0  0  0  0  0
   37.0810   34.2580   40.1520 H   0  0  0  0  0  0  0  0  0  0  0  0
  1  2  1  0  0  0  0
  2  3  1  0  0  0  0
  2  4  2  0  0  0  0
  5  4  1  0  0  0  0
  6  5  2  0  0  0  0
  7  6  1  0  0  0  0
  8  7  2  0  0  0  0
  9 10  2  0  0  0  0
  9  8  1  0  0  0  0
 10 11  1  0  0  0  0
 11  1  2  0  0  0  0
 11  6  1  0  0  0  0
 12  1  1  0  0  0  0
 13 14  2  0  0  0  0
 13 18  1  0  0  0  0
 14 15  1  0  0  0  0
 15 21  1  0  0  0  0
 15 16  2  0  0  0  0
 17 16  1  0  0  0  0
 17 12  1  0  0  0  0
 18 17  2  0  0  0  0
 19 13  1  0  0  0  0
 20 14  1  0  0  0  0
M  END
>  <minimizedAffinity>
-4.98139381

$$$$

 OpenBabel03242517513D

 21 23  0  0  0  0  0  0  0  0999 V2000
   38.6250   29.4190   42.5750 C   0  0  0  0  0  0  0  0  0  0  0  0
   37.2930   29.2020   42.4020 C   0  0  0  0  0  0  0  0  0  0  0  0
   36.7370   30.0830   42.1190 H   0  0  0  0  0  0  0  0  0  0  0  0
   36.6690   27.9960   42.5600 C   0  0  0  0  0  3  0  0  0  0  0  0
   37.4060   26.8890   42.9230 C   0  0  0  0  0  3  0  0  0  0  0  0
   38.7690   27.0600   43.1110 C   0  0  0  0  0  0  0  0  0  0  0  0
   39.4520   25.9170   43.4720 C   0  0  0  0  0  3  0  0  0  0  0  0
   40.7950   25.9840   43.6800 C   0  0  0  0  0  3  0  0  0  0  0  0
   41.4350   27.1820   43.5260 C   0  0  0  0  0  3  0  0  0  0  0  0
   40.7460   28.3200   43.1650 C   0  0  0  0  0  3  0  0  0  0  0  0
   39.3850   28.3060   42.9430 C   0  0  0  0  0  0  0  0  0  0  0  0
   39.3870   30.5380   42.4590 O   0  0  0  0  0  0  0  0  0  0  0  0
   40.5820   31.7020   39.3350 C   0  0  0  0  0  0  0  0  0  0  0  0
   39.9290   32.9290   39.1590 C   0  0  0  0  0  0  0  0  0  0  0  0
   39.0530   33.3450   40.1650 C   0  0  0  0  0  0  0  0  0  0  0  0
   38.8880   32.5500   41.2380 N   0  0  0  0  0  0  0  0  0  0  0  0
   39.5210   31.3840   41.3870 C   0  0  0  0  0  0  0  0  0  0  0  0
   40.3540   30.9870   40.4310 N   0  0  0  0  0  0  0  0  0  0  0  0
   41.2490   31.4140   38.5400 H   0  0  0  0  0  0  0  0  0  0  0  0
   40.1190   33.5160   38.2560 H   0  0  0  0  0  0  0  0  0  0  0  0
   38.5380   34.2830   40.0590 H   0  0  0  0  0  0  0  0  0  0  0  0
  1 11  1  0  0  0  0
  2  4  1  0  0  0  0
  2  1  2  0  0  0  0
  3  2  1  0  0  0  0
  4  5  2  0  0  0  0
  5  6  1  0  0  0  0
  6  7  1  0  0  0  0
  7  8  2  0  0  0  0
  9  8  1  0  0  0  0
 10  9  2  0  0  0  0
 11  6  2  0  0  0  0
 11 10  1  0  0  0  0
 12  1  1  0  0  0  0
 13 18  1  0  0  0  0
 14 13  2  0  0  0  0
 14 15  1  0  0  0  0
 15 16  2  0  0  0  0
 16 17  1  0  0  0  0
 17 12  1  0  0  0  0
 18 17  2  0  0  0  0
 19 13  1  0  0  0  0
 20 14  1  0  0  0  0
 21 15  1  0  0  0  0
M  END
>  <minimizedAffinity>
-4.92969751

$$$$

 OpenBabel03242517513D

 21 23  0  0  0  0  0  0  0  0999 V2000
   36.9510   26.4910   41.2230 C   0  0  0  0  0  0  0  0  0  0  0  0
   36.6040   25.4280   40.4470 C   0  0  0  0  0  0  0  0  0  0  0  0
   35.7360   25.6000   39.8270 H   0  0  0  0  0  0  0  0  0  0  0  0
   37.2630   24.2310   40.4190 C   0  0  0  0  0  3  0  0  0  0  0  0
   38.3680   24.0410   41.2230 C   0  0  0  0  0  3  0  0  0  0  0  0
   38.7600   25.0970   42.0320 C   0  0  0  0  0  0  0  0  0  0  0  0
   39.8710   24.8470   42.8120 C   0  0  0  0  0  3  0  0  0  0  0  0
   40.3330   25.8230   43.6400 C   0  0  0  0  0  3  0  0  0  0  0  0
   39.6850   27.0260   43.6800 C   0  0  0  0  0  3  0  0  0  0  0  0
   38.5760   27.2680   42.8980 C   0  0  0  0  0  3  0  0  0  0  0  0
   38.0680   26.3140   42.0420 C   0  0  0  0  0  0  0  0  0  0  0  0
   36.4080   27.7290   41.3640 O   0  0  0  0  0  0  0  0  0  0  0  0
   36.6250   31.1740   40.5710 C   0  0  0  0  0  0  0  0  0  0  0  0
   36.9000   31.1880   39.1980 C   0  0  0  0  0  0  0  0  0  0  0  0
   37.0100   29.9560   38.5480 C   0  0  0  0  0  0  0  0  0  0  0  0
   36.8460   28.8340   39.2730 N   0  0  0  0  0  0  0  0  0  0  0  0
   36.5830   28.8420   40.5820 C   0  0  0  0  0  0  0  0  0  0  0  0
   36.4790   30.0130   41.2010 N   0  0  0  0  0  0  0  0  0  0  0  0
   36.5480   32.1410   41.0390 H   0  0  0  0  0  0  0  0  0  0  0  0
   37.0200   32.1450   38.6830 H   0  0  0  0  0  0  0  0  0  0  0  0
   37.2200   29.9340   37.4940 H   0  0  0  0  0  0  0  0  0  0  0  0
  1 12  1  0  0  0  0
  1 11  1  0  0  0  0
  2  1  2  0  0  0  0
  3  2  1  0  0  0  0
  4  2  1  0  0  0  0
  4  5  2  0  0  0  0
  5  6  1  0  0  0  0
  6 11  2  0  0  0  0
  6  7  1  0  0  0  0
  7  8  2  0  0  0  0
  8  9  1  0  0  0  0
 10  9  2  0  0  0  0
 11 10  1  0  0  0  0
 13 19  1  0  0  0  0
 13 18  1  0  0  0  0
 14 13  2  0  0  0  0
 15 14  1  0  0  0  0
 15 16  2  0  0  0  0
 16 17  1  0  0  0  0
 17 18  2  0  0  0  0
 17 12  1  0  0  0  0
 20 14  1  0  0  0  0
 21 15  1  0  0  0  0
M  END
>  <minimizedAffinity>
-4.82856226

$$$$
