
 OpenBabel03252505113D

 46 50  0  0  1  0  0  0  0  0999 V2000
   44.6080   35.5220   44.6030 C   0  0  0  0  0  0  0  0  0  0  0  0
   45.2910   35.5250   43.3710 C   0  0  0  0  0  0  0  0  0  0  0  0
   46.3930   34.6170   43.2210 C   0  0  0  0  0  0  0  0  0  0  0  0
   46.7120   33.8150   44.2550 N   0  0  0  0  0  0  0  0  0  0  0  0
   46.0400   33.8390   45.4140 C   0  0  0  0  0  0  0  0  0  0  0  0
   44.9780   34.6950   45.5990 N   0  0  0  0  0  0  0  0  0  0  0  0
   43.7710   36.1990   44.7440 H   0  0  0  0  0  0  0  0  0  0  0  0
   44.9990   36.1850   42.5720 H   0  0  0  0  0  0  0  0  0  0  0  0
   46.4380   32.9370   46.5210 C   0  0  2  0  0  0  0  0  0  0  0  0
   46.9730   31.6960   45.8420 C   0  0  0  0  0  0  0  0  0  0  0  0
   46.0980   30.5120   45.8550 C   0  0  0  0  0  0  0  0  0  0  0  0
   45.7890   30.2710   47.3350 C   0  0  0  0  0  0  0  0  0  0  0  0
   44.9970   31.3410   47.9280 C   0  0  0  0  0  0  0  0  0  0  0  0
   45.3840   32.7050   47.4620 C   0  0  0  0  0  0  0  0  0  0  0  0
   47.2860   33.4680   47.0290 H   0  0  0  0  0  0  0  0  0  0  0  0
   47.2780   31.8750   44.7860 H   0  0  0  0  0  0  0  0  0  0  0  0
   47.9180   31.4190   46.3580 H   0  0  0  0  0  0  0  0  0  0  0  0
   46.7060   29.6430   45.5480 H   0  0  0  0  0  0  0  0  0  0  0  0
   45.1810   30.5500   45.2660 H   0  0  0  0  0  0  0  0  0  0  0  0
   45.1200   29.3730   47.3220 H   0  0  0  0  0  0  0  0  0  0  0  0
   46.7010   29.9810   47.8740 H   0  0  0  0  0  0  0  0  0  0  0  0
   44.2060   31.3350   48.6180 H   0  0  0  0  0  0  0  0  0  0  0  0
   44.6890   33.8580   47.9540 N   0  0  0  0  0  0  0  0  0  0  0  0
   43.7010   34.2340   47.8440 H   0  0  0  0  0  0  0  0  0  0  0  0
   45.1250   34.5890   48.5800 H   0  0  0  0  0  0  0  0  0  0  0  0
   47.1140   34.5950   41.9570 C   0  0  0  0  0  0  0  0  0  0  0  0
   48.0830   35.5130   41.7510 C   0  0  0  0  0  0  0  0  0  0  0  0
   48.7500   35.4510   40.5170 C   0  0  0  0  0  0  0  0  0  0  0  0
   48.3510   34.4700   39.6510 C   0  0  0  0  0  0  0  0  0  0  0  0
   47.3670   33.5260   39.8440 C   0  0  0  0  0  0  0  0  0  0  0  0
   46.7650   33.6560   41.0730 N   0  0  0  0  0  0  0  0  0  0  0  0
   48.3090   36.2410   42.5150 H   0  0  0  0  0  0  0  0  0  0  0  0
   49.5200   36.1590   40.3180 H   0  0  0  0  0  0  0  0  0  0  0  0
   48.9000   34.4880   38.7190 H   0  0  0  0  0  0  0  0  0  0  0  0
   47.0010   32.5620   38.9380 O   0  0  0  0  0  0  0  0  0  0  0  0
   47.7550   32.3230   37.8160 C   0  0  0  0  0  0  0  0  0  0  0  0
   47.1510   32.8340   36.6610 C   0  0  0  0  0  0  0  0  0  0  0  0
   46.1990   33.3590   36.6320 H   0  0  0  0  0  0  0  0  0  0  0  0
   47.7640   32.6920   35.4140 C   0  0  0  0  0  3  0  0  0  0  0  0
   48.9790   32.0510   35.2620 C   0  0  0  0  0  3  0  0  0  0  0  0
   49.5510   31.5570   36.4160 C   0  0  0  0  0  0  0  0  0  0  0  0
   50.7550   30.8840   36.3830 C   0  0  0  0  0  3  0  0  0  0  0  0
   51.3080   30.3800   37.5550 C   0  0  0  0  0  3  0  0  0  0  0  0
   50.6990   30.5200   38.7860 C   0  0  0  0  0  3  0  0  0  0  0  0
   49.4950   31.1910   38.8260 C   0  0  0  0  0  3  0  0  0  0  0  0
   48.9660   31.6840   37.6570 C   0  0  0  0  0  0  0  0  0  0  0  0
  1  7  1  0  0  0  0
  1  6  1  0  0  0  0
  2  1  2  0  0  0  0
  3  2  1  0  0  0  0
  3  4  2  0  0  0  0
  4  5  1  0  0  0  0
  5  6  2  0  0  0  0
  5  9  1  0  0  0  0
  8  2  1  0  0  0  0
  9 15  1  1  0  0  0
  9 14  1  0  0  0  0
 10 11  1  0  0  0  0
 10 17  1  0  0  0  0
 10  9  1  0  0  0  0
 11 12  1  0  0  0  0
 12 21  1  0  0  0  0
 12 13  1  0  0  0  0
 13 22  1  0  0  0  0
 14 13  2  0  0  0  0
 14 23  1  0  0  0  0
 16 10  1  0  0  0  0
 18 11  1  0  0  0  0
 19 11  1  0  0  0  0
 20 12  1  0  0  0  0
 23 25  1  0  0  0  0
 24 23  1  0  0  0  0
 26  3  1  0  0  0  0
 27 26  1  0  0  0  0
 27 32  1  0  0  0  0
 28 27  2  0  0  0  0
 29 30  2  0  0  0  0
 29 28  1  0  0  0  0
 30 31  1  0  0  0  0
 31 26  2  0  0  0  0
 33 28  1  0  0  0  0
 34 29  1  0  0  0  0
 35 30  1  0  0  0  0
 36 35  1  0  0  0  0
 37 36  2  0  0  0  0
 38 37  1  0  0  0  0
 39 37  1  0  0  0  0
 40 39  2  0  0  0  0
 40 41  1  0  0  0  0
 41 46  1  0  0  0  0
 42 41  2  0  0  0  0
 42 43  1  0  0  0  0
 43 44  2  0  0  0  0
 44 45  1  0  0  0  0
 46 36  1  0  0  0  0
 46 45  2  0  0  0  0
M  END
>  <minimizedAffinity>
-7.3521595

>  <minimizedRMSD>
0.821193099

$$$$
