
 OpenBabel03252507463D

 39 42  0  0  0  0  0  0  0  0999 V2000
   48.4930   33.9600   41.3560 C   0  0  0  0  0  0  0  0  0  0  0  0
   48.8420   32.6890   40.9320 C   0  0  0  0  0  0  0  0  0  0  0  0
   50.0650   32.1330   41.2860 C   0  0  0  0  0  0  0  0  0  0  0  0
   50.8920   32.9110   42.0720 N   0  0  0  0  0  0  0  0  0  0  0  0
   50.5140   34.1440   42.4650 C   0  0  0  0  0  0  0  0  0  0  0  0
   49.3410   34.6510   42.1130 N   0  0  0  0  0  0  0  0  0  0  0  0
   50.3470   31.1410   40.9600 H   0  0  0  0  0  0  0  0  0  0  0  0
   51.2510   34.6600   43.0810 H   0  0  0  0  0  0  0  0  0  0  0  0
   47.1750   34.4630   40.9270 C   0  0  0  0  0  0  0  0  0  0  0  0
   47.3040   35.2750   40.1550 H   0  0  0  0  0  0  0  0  0  0  0  0
   46.5810   33.6860   40.4250 H   0  0  0  0  0  0  0  0  0  0  0  0
   46.3400   34.9890   42.0510 C   0  0  0  0  0  0  0  0  0  0  0  0
   46.6320   36.0160   42.2730 H   0  0  0  0  0  0  0  0  0  0  0  0
   46.5450   34.3890   42.9830 H   0  0  0  0  0  0  0  0  0  0  0  0
   44.8810   34.9460   41.7830 C   0  0  0  0  0  0  0  0  0  0  0  0
   43.9680   35.4780   42.7580 C   0  0  0  0  0  0  0  0  0  0  0  0
   42.3310   35.1910   41.9670 S   0  0  0  0  0  0  0  0  0  0  0  0
   43.1610   34.4020   40.4540 C   0  0  0  0  0  0  0  0  0  0  0  0
   44.2630   34.4740   40.7370 N   0  0  0  0  0  0  0  0  0  0  0  0
   44.2250   35.9270   43.7100 H   0  0  0  0  0  0  0  0  0  0  0  0
   42.4390   33.9180   39.3710 O   0  0  0  0  0  0  0  0  0  0  0  0
   40.4720   34.3290   37.6340 O   0  0  0  0  0  0  0  0  0  0  0  0
   41.5450   35.0520   38.4540 P   0  0  0  0  0  0  0  0  0  0  0  0
   40.7900   36.1130   39.5410 O   0  0  0  0  0  0  0  0  0  0  0  0
   39.9080   35.7340   39.7650 H   0  0  0  0  0  0  0  0  0  0  0  0
   42.5900   35.9290   37.4570 O   0  0  0  0  0  0  0  0  0  0  0  0
   42.6690   36.8720   37.7170 H   0  0  0  0  0  0  0  0  0  0  0  0
   47.7200   31.7300   39.9150 S   0  0  0  0  0  0  0  0  0  0  0  0
   47.8820   32.1020   38.1990 C   0  0  0  0  0  0  0  0  0  0  0  0
   48.6600   33.1420   37.7340 C   0  0  0  0  0  0  0  0  0  0  0  0
   49.1920   33.7520   38.4570 H   0  0  0  0  0  0  0  0  0  0  0  0
   48.7500   33.3860   36.3980 C   0  0  0  0  0  3  0  0  0  0  0  0
   48.0630   32.5950   35.4770 C   0  0  0  0  0  3  0  0  0  0  0  0
   47.2820   31.5510   35.9650 C   0  0  0  0  0  0  0  0  0  0  0  0
   46.5930   30.7580   35.0570 C   0  0  0  0  0  3  0  0  0  0  0  0
   45.8070   29.7120   35.4860 C   0  0  0  0  0  3  0  0  0  0  0  0
   45.6980   29.4400   36.8540 C   0  0  0  0  0  3  0  0  0  0  0  0
   46.3950   30.2450   37.7520 C   0  0  0  0  0  3  0  0  0  0  0  0
   47.1810   31.2890   37.3330 C   0  0  0  0  0  0  0  0  0  0  0  0
  1  6  1  0  0  0  0
  2  3  1  0  0  0  0
  2  1  2  0  0  0  0
  3  4  2  0  0  0  0
  4  5  1  0  0  0  0
  5  8  1  0  0  0  0
  6  5  2  0  0  0  0
  7  3  1  0  0  0  0
  9  1  1  0  0  0  0
  9 12  1  0  0  0  0
 10  9  1  0  0  0  0
 11  9  1  0  0  0  0
 12 13  1  0  0  0  0
 12 14  1  0  0  0  0
 15 12  1  0  0  0  0
 15 16  2  0  0  0  0
 16 20  1  0  0  0  0
 17 16  1  0  0  0  0
 18 19  2  0  0  0  0
 18 17  1  0  0  0  0
 19 15  1  0  0  0  0
 21 18  1  0  0  0  0
 22 23  2  0  0  0  0
 23 21  1  0  0  0  0
 23 24  1  0  0  0  0
 24 25  1  0  0  0  0
 26 27  1  0  0  0  0
 26 23  1  0  0  0  0
 28  2  1  0  0  0  0
 29 28  1  0  0  0  0
 30 29  1  0  0  0  0
 30 31  1  0  0  0  0
 32 30  2  0  0  0  0
 33 34  2  0  0  0  0
 33 32  1  0  0  0  0
 34 39  1  0  0  0  0
 35 36  2  0  0  0  0
 35 34  1  0  0  0  0
 36 37  1  0  0  0  0
 37 38  2  0  0  0  0
 39 38  1  0  0  0  0
 39 29  2  0  0  0  0
M  END
>  <minimizedAffinity>
-5.23359919

>  <minimizedRMSD>
1.00551856

$$$$
