
 OpenBabel03252509273D

 32 35  0  0  1  0  0  0  0  0999 V2000
   47.2280   35.2810   41.8750 C   0  0  1  0  0  0  0  0  0  0  0  0
   48.7520   35.3450   41.9680 C   0  0  0  0  0  0  0  0  0  0  0  0
   47.9330   34.3630   41.0710 C   0  0  2  0  0  0  0  0  0  0  0  0
   46.7980   36.2150   41.5190 H   0  0  0  0  0  0  0  0  0  0  0  0
   49.2740   36.1460   41.3920 H   0  0  0  0  0  0  0  0  0  0  0  0
   49.2610   34.9600   42.8440 H   0  0  0  0  0  0  0  0  0  0  0  0
   48.1450   33.3030   41.4270 H   0  0  0  0  0  0  0  0  0  0  0  0
   44.9460   34.8190   44.8090 C   0  0  0  0  0  0  0  0  0  0  0  0
   45.4850   35.3780   43.6170 C   0  0  0  0  0  0  0  0  0  0  0  0
   46.6290   34.7810   43.1690 C   0  0  0  0  0  0  0  0  0  0  0  0
   47.2050   33.7240   43.8350 N   0  0  0  0  0  0  0  0  0  0  0  0
   46.6630   33.2280   44.9580 C   0  0  0  0  0  0  0  0  0  0  0  0
   45.5220   33.7830   45.4490 N   0  0  0  0  0  0  0  0  0  0  0  0
   44.0380   35.2220   45.2330 H   0  0  0  0  0  0  0  0  0  0  0  0
   47.1310   32.3960   45.4720 H   0  0  0  0  0  0  0  0  0  0  0  0
   44.8870   36.4740   42.9710 N   0  0  0  0  0  0  0  0  0  0  0  0
   45.5500   37.2830   43.0510 H   0  0  0  0  0  0  0  0  0  0  0  0
   43.9320   36.4620   42.4940 H   0  0  0  0  0  0  0  0  0  0  0  0
   48.0750   34.5060   39.5790 C   0  0  0  0  0  0  0  0  0  0  0  0
   49.1330   34.2330   39.3090 H   0  0  0  0  0  0  0  0  0  0  0  0
   47.9130   35.5780   39.3980 H   0  0  0  0  0  0  0  0  0  0  0  0
   47.1950   33.5970   38.8430 C   0  0  0  0  0  0  0  0  0  0  0  0
   46.0100   33.2750   39.5210 C   0  0  0  0  0  0  0  0  0  0  0  0
   45.7950   33.5670   40.5430 H   0  0  0  0  0  0  0  0  0  0  0  0
   45.0140   32.5430   38.8860 C   0  0  0  0  0  3  0  0  0  0  0  0
   45.1310   32.0980   37.5850 C   0  0  0  0  0  3  0  0  0  0  0  0
   46.2760   32.3990   36.9210 C   0  0  0  0  0  0  0  0  0  0  0  0
   46.4700   31.9330   35.6220 C   0  0  0  0  0  3  0  0  0  0  0  0
   47.6700   32.2210   35.0030 C   0  0  0  0  0  3  0  0  0  0  0  0
   48.6580   32.9490   35.6360 C   0  0  0  0  0  3  0  0  0  0  0  0
   48.4390   33.4000   36.9200 C   0  0  0  0  0  3  0  0  0  0  0  0
   47.2290   33.1120   37.5540 C   0  0  0  0  0  0  0  0  0  0  0  0
  1  4  1  6  0  0  0
  1  2  1  0  0  0  0
  1 10  1  0  0  0  0
  2  6  1  0  0  0  0
  3  7  1  1  0  0  0
  3  1  1  0  0  0  0
  3  2  1  0  0  0  0
  5  2  1  0  0  0  0
  8 14  1  0  0  0  0
  8 13  1  0  0  0  0
  9  8  2  0  0  0  0
 10  9  1  0  0  0  0
 10 11  2  0  0  0  0
 11 12  1  0  0  0  0
 12 13  2  0  0  0  0
 12 15  1  0  0  0  0
 16 17  1  0  0  0  0
 16  9  1  0  0  0  0
 18 16  1  0  0  0  0
 19  3  1  0  0  0  0
 20 19  1  0  0  0  0
 21 19  1  0  0  0  0
 22 23  1  0  0  0  0
 22 19  1  0  0  0  0
 23 24  1  0  0  0  0
 25 23  2  0  0  0  0
 26 25  1  0  0  0  0
 27 32  1  0  0  0  0
 27 26  2  0  0  0  0
 28 27  1  0  0  0  0
 29 28  2  0  0  0  0
 29 30  1  0  0  0  0
 30 31  2  0  0  0  0
 31 32  1  0  0  0  0
 32 22  2  0  0  0  0
M  END
>  <minimizedAffinity>
-5.59677505

>  <minimizedRMSD>
1.55295956

$$$$
