REMARK  Name = 
REMARK  7 active torsions:
REMARK  status: ('A' for Active; 'I' for Inactive)
REMARK    1  A    between atoms: N_1  and  C_6
REMARK    2  A    between atoms: C_5  and  O_13
REMARK    3  A    between atoms: C_6  and  C_9
REMARK    4  A    between atoms: O_13  and  P_15
REMARK    5  A    between atoms: P_15  and  O_16
REMARK    6  A    between atoms: P_15  and  O_17
REMARK    7  A    between atoms: O_17  and  C_29
REMARK                            x       y       z     vdW  Elec       q    Type
REMARK                         _______ _______ _______ _____ _____    ______ ____
ROOT
ATOM      1  N   UNL     1      47.835  33.994  42.006  0.00  0.00    +0.000 N 
ATOM      2  C   UNL     1      47.870  34.886  40.909  0.00  0.00    +0.000 C 
ATOM      3  C   UNL     1      49.044  35.731  41.221  0.00  0.00    +0.000 C 
ATOM      4  C   UNL     1      49.676  35.227  42.506  0.00  0.00    +0.000 C 
ATOM      5  C   UNL     1      49.097  33.807  42.595  0.00  0.00    +0.000 C 
ATOM      6  H   UNL     1      47.357  35.113  40.012  0.00  0.00    +0.000 HD
ATOM      7  H   UNL     1      49.484  36.556  40.695  0.00  0.00    +0.000 HD
ATOM      8  H   UNL     1      49.374  35.820  43.366  0.00  0.00    +0.000 HD
ATOM      9  H   UNL     1      50.762  35.148  42.323  0.00  0.00    +0.000 HD
ATOM     10  H   UNL     1      49.053  33.415  43.607  0.00  0.00    +0.000 HD
ENDROOT
BRANCH   1  11
ATOM     11  C   UNL     1      46.639  33.448  42.401  0.00  0.00    +0.000 C 
ATOM     12  H   UNL     1      46.836  32.385  42.699  0.00  0.00    +0.000 HD
ATOM     13  H   UNL     1      45.887  33.317  41.591  0.00  0.00    +0.000 HD
BRANCH  11  16
ATOM     14  C   UNL     1      44.624  35.946  44.409  0.00  0.00    +0.000 A 
ATOM     15  C   UNL     1      45.288  35.369  43.289  0.00  0.00    +0.000 A 
ATOM     16  C   UNL     1      45.953  34.156  43.461  0.00  0.00    +0.000 A 
ATOM     17  N   UNL     1      45.921  33.605  44.693  0.00  0.00    +0.000 NA
ATOM     18  C   UNL     1      45.274  34.175  45.769  0.00  0.00    +0.000 A 
ATOM     19  N   UNL     1      44.633  35.334  45.623  0.00  0.00    +0.000 NA
ATOM     20  H   UNL     1      44.113  36.869  44.295  0.00  0.00    +0.000 HD
ATOM     21  H   UNL     1      45.290  35.838  42.328  0.00  0.00    +0.000 HD
ATOM     22  H   UNL     1      45.306  33.654  46.723  0.00  0.00    +0.000 HD
ENDBRANCH  11  16
ENDBRANCH   1  11
BRANCH   5  23
ATOM     23  O   UNL     1      49.843  33.026  41.699  0.00  0.00    +0.000 OA
BRANCH  23  25
ATOM     24  O   UNL     1      49.135  31.000  43.270  0.00  0.00    +0.000 OA
ATOM     25  P   UNL     1      50.101  31.469  42.204  0.00  0.00    +0.000 P 
BRANCH  25  26
ATOM     26  O   UNL     1      51.659  31.383  42.874  0.00  0.00    +0.000 OA
ATOM     27  H   UNL     1      52.299  31.422  42.105  0.00  0.00    +0.000 HD
ENDBRANCH  25  26
BRANCH  25  28
ATOM     28  O   UNL     1      50.110  30.382  40.880  0.00  0.00    +0.000 OA
BRANCH  28  29
ATOM     29  C   UNL     1      49.025  29.692  40.416  0.00  0.00    +0.000 A 
ATOM     30  C   UNL     1      48.386  28.606  40.926  0.00  0.00    +0.000 A 
ATOM     31  H   UNL     1      48.812  28.233  41.848  0.00  0.00    +0.000 HD
ATOM     32  C   UNL     1      47.291  28.020  40.331  0.00  0.00    +0.000 A 
ATOM     33  C   UNL     1      46.783  28.536  39.150  0.00  0.00    +0.000 A 
ATOM     34  C   UNL     1      47.419  29.644  38.611  0.00  0.00    +0.000 A 
ATOM     35  C   UNL     1      46.861  30.106  37.434  0.00  0.00    +0.000 A 
ATOM     36  C   UNL     1      47.423  31.198  36.828  0.00  0.00    +0.000 A 
ATOM     37  C   UNL     1      48.505  31.790  37.401  0.00  0.00    +0.000 A 
ATOM     38  C   UNL     1      49.066  31.334  38.576  0.00  0.00    +0.000 A 
ATOM     39  C   UNL     1      48.524  30.224  39.224  0.00  0.00    +0.000 A 
ENDBRANCH  28  29
ENDBRANCH  25  28
ENDBRANCH  23  25
ENDBRANCH   5  23
TORSDOF 7
