
 OpenBabel03242519363D

 26 28  0  0  0  0  0  0  0  0999 V2000
   40.2930   33.4940   40.5010 O   0  0  0  0  0  0  0  0  0  0  0  0
   38.9060   32.9510   40.2350 P   0  0  1  0  0  0  0  0  0  0  0  0
   37.7420   34.1600   40.3140 O   0  0  0  0  0  0  0  0  0  0  0  0
   38.1080   34.9210   40.8330 H   0  0  0  0  0  0  0  0  0  0  0  0
   38.8660   32.2920   38.6420 O   0  0  0  0  0  0  0  0  0  0  0  0
   41.3390   29.6900   37.9900 C   0  0  0  0  0  0  0  0  0  0  0  0
   40.1860   30.3320   38.4900 C   0  0  0  0  0  0  0  0  0  0  0  0
   39.9980   31.6740   38.1460 C   0  0  0  0  0  0  0  0  0  0  0  0
   40.9210   32.2830   37.3580 N   0  0  0  0  0  0  0  0  0  0  0  0
   42.0060   31.6360   36.9010 C   0  0  0  0  0  0  0  0  0  0  0  0
   42.2240   30.3370   37.2130 N   0  0  0  0  0  0  0  0  0  0  0  0
   41.4250   28.6410   38.2980 H   0  0  0  0  0  0  0  0  0  0  0  0
   39.4800   29.8080   39.1140 H   0  0  0  0  0  0  0  0  0  0  0  0
   42.7370   32.1530   36.2650 H   0  0  0  0  0  0  0  0  0  0  0  0
   38.5830   31.6880   41.3070 O   0  0  0  0  0  0  0  0  0  0  0  0
   37.6160   30.7250   41.1780 C   0  0  0  0  0  0  0  0  0  0  0  0
   36.4530   30.8560   40.4470 C   0  0  0  0  0  0  0  0  0  0  0  0
   36.2780   31.7890   39.9290 H   0  0  0  0  0  0  0  0  0  0  0  0
   35.4870   29.8780   40.3250 C   0  0  0  0  0  3  0  0  0  0  0  0
   35.6870   28.6600   40.9840 C   0  0  0  0  0  3  0  0  0  0  0  0
   36.8610   28.5310   41.7200 C   0  0  0  0  0  0  0  0  0  0  0  0
   36.9900   27.2990   42.3440 C   0  0  0  0  0  3  0  0  0  0  0  0
   38.1140   27.0240   43.1170 C   0  0  0  0  0  3  0  0  0  0  0  0
   39.0640   28.0250   43.2200 C   0  0  0  0  0  3  0  0  0  0  0  0
   38.9360   29.2550   42.5980 C   0  0  0  0  0  3  0  0  0  0  0  0
   37.8120   29.5190   41.8300 C   0  0  0  0  0  0  0  0  0  0  0  0
  2  3  1  0  0  0  0
  2  1  2  1  0  0  0
  2 15  1  0  0  0  0
  3  4  1  0  0  0  0
  5  2  1  0  0  0  0
  6 12  1  0  0  0  0
  6  7  1  0  0  0  0
  7 13  1  0  0  0  0
  8  7  2  0  0  0  0
  8  5  1  0  0  0  0
  9  8  1  0  0  0  0
 10 11  1  0  0  0  0
 10  9  2  0  0  0  0
 11  6  2  0  0  0  0
 14 10  1  0  0  0  0
 16 15  1  0  0  0  0
 16 26  1  0  0  0  0
 17 16  2  0  0  0  0
 18 17  1  0  0  0  0
 19 17  1  0  0  0  0
 19 20  2  0  0  0  0
 20 21  1  0  0  0  0
 21 26  2  0  0  0  0
 21 22  1  0  0  0  0
 22 23  2  0  0  0  0
 23 24  1  0  0  0  0
 25 24  2  0  0  0  0
 26 25  1  0  0  0  0
M  END
>  <minimizedAffinity>
-5.55638266

$$$$

 OpenBabel03242519363D

 26 28  0  0  0  0  0  0  0  0999 V2000
   36.1310   30.9480   40.9460 O   0  0  0  0  0  0  0  0  0  0  0  0
   35.8310   29.4980   40.6310 P   0  0  1  0  0  0  0  0  0  0  0  0
   34.2170   29.2760   40.2160 O   0  0  0  0  0  0  0  0  0  0  0  0
   33.6910   30.0400   40.5660 H   0  0  0  0  0  0  0  0  0  0  0  0
   36.7870   29.0170   39.2790 O   0  0  0  0  0  0  0  0  0  0  0  0
   39.8000   30.8950   38.4380 C   0  0  0  0  0  0  0  0  0  0  0  0
   38.9530   29.9460   39.0480 C   0  0  0  0  0  0  0  0  0  0  0  0
   37.6060   29.9510   38.6740 C   0  0  0  0  0  0  0  0  0  0  0  0
   37.1860   30.8570   37.7530 N   0  0  0  0  0  0  0  0  0  0  0  0
   38.0250   31.7450   37.1940 C   0  0  0  0  0  0  0  0  0  0  0  0
   39.3360   31.7720   37.5310 N   0  0  0  0  0  0  0  0  0  0  0  0
   40.8410   30.8360   38.7770 H   0  0  0  0  0  0  0  0  0  0  0  0
   39.3310   29.2450   39.7760 H   0  0  0  0  0  0  0  0  0  0  0  0
   37.6600   32.4670   36.4520 H   0  0  0  0  0  0  0  0  0  0  0  0
   36.2890   28.5330   41.9370 O   0  0  0  0  0  0  0  0  0  0  0  0
   37.5650   28.1930   42.3030 C   0  0  0  0  0  0  0  0  0  0  0  0
   38.5610   29.0870   42.6400 C   0  0  0  0  0  0  0  0  0  0  0  0
   38.3290   30.1430   42.6180 H   0  0  0  0  0  0  0  0  0  0  0  0
   39.8430   28.7320   43.0070 C   0  0  0  0  0  3  0  0  0  0  0  0
   40.1730   27.3730   43.0450 C   0  0  0  0  0  3  0  0  0  0  0  0
   39.1660   26.4750   42.7040 C   0  0  0  0  0  0  0  0  0  0  0  0
   39.5650   25.1480   42.7640 C   0  0  0  0  0  3  0  0  0  0  0  0
   38.6640   24.1350   42.4500 C   0  0  0  0  0  3  0  0  0  0  0  0
   37.3870   24.5230   42.0850 C   0  0  0  0  0  3  0  0  0  0  0  0
   36.9870   25.8460   42.0250 C   0  0  0  0  0  3  0  0  0  0  0  0
   37.8930   26.8490   42.3400 C   0  0  0  0  0  0  0  0  0  0  0  0
  2  1  2  1  0  0  0
  2 15  1  0  0  0  0
  3  4  1  0  0  0  0
  3  2  1  0  0  0  0
  5  2  1  0  0  0  0
  6 12  1  0  0  0  0
  6  7  1  0  0  0  0
  7 13  1  0  0  0  0
  8  7  2  0  0  0  0
  8  5  1  0  0  0  0
  9  8  1  0  0  0  0
 10 11  1  0  0  0  0
 10  9  2  0  0  0  0
 11  6  2  0  0  0  0
 14 10  1  0  0  0  0
 15 16  1  0  0  0  0
 16 26  2  0  0  0  0
 16 17  1  0  0  0  0
 17 19  2  0  0  0  0
 18 17  1  0  0  0  0
 19 20  1  0  0  0  0
 21 22  1  0  0  0  0
 21 20  2  0  0  0  0
 23 22  2  0  0  0  0
 24 23  1  0  0  0  0
 25 24  2  0  0  0  0
 25 26  1  0  0  0  0
 26 21  1  0  0  0  0
M  END
>  <minimizedAffinity>
-5.50007582

$$$$

 OpenBabel03242519363D

 26 28  0  0  0  0  0  0  0  0999 V2000
   35.5910   29.2860   38.0900 O   0  0  0  0  0  0  0  0  0  0  0  0
   36.4780   29.5250   39.2930 P   0  0  1  0  0  0  0  0  0  0  0  0
   38.1050   29.3760   38.9000 O   0  0  0  0  0  0  0  0  0  0  0  0
   38.1840   28.8460   38.0660 H   0  0  0  0  0  0  0  0  0  0  0  0
   36.2230   31.1340   39.8570 O   0  0  0  0  0  0  0  0  0  0  0  0
   38.4110   34.0480   40.0230 C   0  0  0  0  0  0  0  0  0  0  0  0
   37.2970   33.2390   39.7160 C   0  0  0  0  0  0  0  0  0  0  0  0
   37.3200   31.9160   40.1640 C   0  0  0  0  0  0  0  0  0  0  0  0
   38.4010   31.4800   40.8630 N   0  0  0  0  0  0  0  0  0  0  0  0
   39.4430   32.2820   41.1350 C   0  0  0  0  0  0  0  0  0  0  0  0
   39.4580   33.5710   40.7180 N   0  0  0  0  0  0  0  0  0  0  0  0
   38.3280   35.0730   39.6430 H   0  0  0  0  0  0  0  0  0  0  0  0
   36.4600   33.6290   39.1570 H   0  0  0  0  0  0  0  0  0  0  0  0
   40.3040   31.9050   41.7030 H   0  0  0  0  0  0  0  0  0  0  0  0
   36.0270   28.4790   40.5380 O   0  0  0  0  0  0  0  0  0  0  0  0
   36.8380   27.9650   41.5170 C   0  0  0  0  0  0  0  0  0  0  0  0
   37.3360   28.6730   42.5910 C   0  0  0  0  0  0  0  0  0  0  0  0
   37.0730   29.7180   42.6810 H   0  0  0  0  0  0  0  0  0  0  0  0
   38.1520   28.1440   43.5700 C   0  0  0  0  0  3  0  0  0  0  0  0
   38.5100   26.7940   43.4810 C   0  0  0  0  0  3  0  0  0  0  0  0
   38.0050   26.0840   42.3950 C   0  0  0  0  0  0  0  0  0  0  0  0
   38.4010   24.7540   42.3730 C   0  0  0  0  0  3  0  0  0  0  0  0
   37.9750   23.9180   41.3460 C   0  0  0  0  0  3  0  0  0  0  0  0
   37.1580   24.4790   40.3790 C   0  0  0  0  0  3  0  0  0  0  0  0
   36.7630   25.8050   40.4010 C   0  0  0  0  0  3  0  0  0  0  0  0
   37.1930   26.6300   41.4290 C   0  0  0  0  0  0  0  0  0  0  0  0
  2  1  2  6  0  0  0
  2  5  1  0  0  0  0
  2 15  1  0  0  0  0
  3  2  1  0  0  0  0
  4  3  1  0  0  0  0
  5  8  1  0  0  0  0
  6 11  1  0  0  0  0
  7  6  2  0  0  0  0
  7  8  1  0  0  0  0
  8  9  2  0  0  0  0
  9 10  1  0  0  0  0
 10 14  1  0  0  0  0
 11 10  2  0  0  0  0
 12  6  1  0  0  0  0
 13  7  1  0  0  0  0
 15 16  1  0  0  0  0
 16 17  1  0  0  0  0
 17 18  1  0  0  0  0
 17 19  2  0  0  0  0
 20 19  1  0  0  0  0
 21 20  2  0  0  0  0
 22 21  1  0  0  0  0
 23 22  2  0  0  0  0
 24 25  2  0  0  0  0
 24 23  1  0  0  0  0
 25 26  1  0  0  0  0
 26 16  2  0  0  0  0
 26 21  1  0  0  0  0
M  END
>  <minimizedAffinity>
-5.49170876

$$$$

 OpenBabel03242519363D

 26 28  0  0  0  0  0  0  0  0999 V2000
   38.2090   31.3580   41.4910 O   0  0  0  0  0  0  0  0  0  0  0  0
   37.1970   30.2540   41.2720 P   0  0  1  0  0  0  0  0  0  0  0  0
   35.6290   30.8550   41.2090 O   0  0  0  0  0  0  0  0  0  0  0  0
   35.6120   31.7440   41.6470 H   0  0  0  0  0  0  0  0  0  0  0  0
   37.5260   29.4950   39.7590 O   0  0  0  0  0  0  0  0  0  0  0  0
   35.6290   26.8450   38.1200 C   0  0  0  0  0  0  0  0  0  0  0  0
   36.6740   27.5050   38.8010 C   0  0  0  0  0  0  0  0  0  0  0  0
   36.4960   28.8600   39.0920 C   0  0  0  0  0  0  0  0  0  0  0  0
   35.3420   29.4660   38.7100 N   0  0  0  0  0  0  0  0  0  0  0  0
   34.3700   28.8030   38.0620 C   0  0  0  0  0  0  0  0  0  0  0  0
   34.5050   27.4890   37.7620 N   0  0  0  0  0  0  0  0  0  0  0  0
   35.8330   25.7860   37.9230 H   0  0  0  0  0  0  0  0  0  0  0  0
   37.5740   26.9830   39.0850 H   0  0  0  0  0  0  0  0  0  0  0  0
   33.4460   29.3160   37.7650 H   0  0  0  0  0  0  0  0  0  0  0  0
   37.3800   29.0800   42.4710 O   0  0  0  0  0  0  0  0  0  0  0  0
   38.4580   28.2560   42.6600 C   0  0  0  0  0  0  0  0  0  0  0  0
   39.7340   28.6740   42.9780 C   0  0  0  0  0  0  0  0  0  0  0  0
   39.9110   29.7350   43.0920 H   0  0  0  0  0  0  0  0  0  0  0  0
   40.8120   27.8330   43.1660 C   0  0  0  0  0  3  0  0  0  0  0  0
   40.6140   26.4550   43.0260 C   0  0  0  0  0  3  0  0  0  0  0  0
   39.3250   26.0380   42.7050 C   0  0  0  0  0  0  0  0  0  0  0  0
   39.2050   24.6610   42.5830 C   0  0  0  0  0  3  0  0  0  0  0  0
   37.9740   24.0960   42.2640 C   0  0  0  0  0  3  0  0  0  0  0  0
   36.9130   24.9650   42.0810 C   0  0  0  0  0  3  0  0  0  0  0  0
   37.0320   26.3380   42.2030 C   0  0  0  0  0  3  0  0  0  0  0  0
   38.2630   26.8920   42.5210 C   0  0  0  0  0  0  0  0  0  0  0  0
  2  1  2  1  0  0  0
  2 15  1  0  0  0  0
  3  2  1  0  0  0  0
  3  4  1  0  0  0  0
  5  2  1  0  0  0  0
  6  7  1  0  0  0  0
  7 13  1  0  0  0  0
  7  8  2  0  0  0  0
  8  5  1  0  0  0  0
  9  8  1  0  0  0  0
 10  9  2  0  0  0  0
 11 10  1  0  0  0  0
 11  6  2  0  0  0  0
 12  6  1  0  0  0  0
 14 10  1  0  0  0  0
 15 16  1  0  0  0  0
 16 17  1  0  0  0  0
 17 18  1  0  0  0  0
 17 19  2  0  0  0  0
 20 19  1  0  0  0  0
 21 20  2  0  0  0  0
 22 21  1  0  0  0  0
 23 22  2  0  0  0  0
 24 25  2  0  0  0  0
 24 23  1  0  0  0  0
 25 26  1  0  0  0  0
 26 16  2  0  0  0  0
 26 21  1  0  0  0  0
M  END
>  <minimizedAffinity>
-5.48668242

$$$$

 OpenBabel03242519363D

 26 28  0  0  0  0  0  0  0  0999 V2000
   38.9160   30.9780   40.2350 O   0  0  0  0  0  0  0  0  0  0  0  0
   37.4710   31.2330   39.8640 P   0  0  1  0  0  0  0  0  0  0  0  0
   36.9310   32.7090   40.4600 O   0  0  0  0  0  0  0  0  0  0  0  0
   37.5220   32.9860   41.2060 H   0  0  0  0  0  0  0  0  0  0  0  0
   37.3420   31.2860   38.1460 O   0  0  0  0  0  0  0  0  0  0  0  0
   36.4550   28.4760   35.9950 C   0  0  0  0  0  0  0  0  0  0  0  0
   36.3390   29.6750   36.7300 C   0  0  0  0  0  0  0  0  0  0  0  0
   37.4670   30.1110   37.4300 C   0  0  0  0  0  0  0  0  0  0  0  0
   38.6040   29.3680   37.3680 N   0  0  0  0  0  0  0  0  0  0  0  0
   38.6730   28.2320   36.6560 C   0  0  0  0  0  0  0  0  0  0  0  0
   37.6020   27.7760   35.9650 N   0  0  0  0  0  0  0  0  0  0  0  0
   35.5340   28.1920   35.4700 H   0  0  0  0  0  0  0  0  0  0  0  0
   35.4160   30.2320   36.7500 H   0  0  0  0  0  0  0  0  0  0  0  0
   39.6040   27.6510   36.6230 H   0  0  0  0  0  0  0  0  0  0  0  0
   36.5190   29.9460   40.3990 O   0  0  0  0  0  0  0  0  0  0  0  0
   36.8700   28.9860   41.3120 C   0  0  0  0  0  0  0  0  0  0  0  0
   37.2630   29.2290   42.6120 C   0  0  0  0  0  0  0  0  0  0  0  0
   37.3020   30.2550   42.9510 H   0  0  0  0  0  0  0  0  0  0  0  0
   37.6140   28.2530   43.5220 C   0  0  0  0  0  3  0  0  0  0  0  0
   37.5730   26.9150   43.1130 C   0  0  0  0  0  3  0  0  0  0  0  0
   37.1750   26.6740   41.8010 C   0  0  0  0  0  0  0  0  0  0  0  0
   37.1580   25.3280   41.4680 C   0  0  0  0  0  3  0  0  0  0  0  0
   36.7820   24.9330   40.1880 C   0  0  0  0  0  3  0  0  0  0  0  0
   36.4360   25.9350   39.2980 C   0  0  0  0  0  3  0  0  0  0  0  0
   36.4530   27.2780   39.6300 C   0  0  0  0  0  3  0  0  0  0  0  0
   36.8300   27.6620   40.9080 C   0  0  0  0  0  0  0  0  0  0  0  0
  2  1  2  1  0  0  0
  2 15  1  0  0  0  0
  2  3  1  0  0  0  0
  3  4  1  0  0  0  0
  5  2  1  0  0  0  0
  6  7  1  0  0  0  0
  7 13  1  0  0  0  0
  7  8  2  0  0  0  0
  8  5  1  0  0  0  0
  9  8  1  0  0  0  0
 10  9  2  0  0  0  0
 11  6  2  0  0  0  0
 11 10  1  0  0  0  0
 12  6  1  0  0  0  0
 14 10  1  0  0  0  0
 15 16  1  0  0  0  0
 16 17  1  0  0  0  0
 17 18  1  0  0  0  0
 17 19  2  0  0  0  0
 20 19  1  0  0  0  0
 21 20  2  0  0  0  0
 22 21  1  0  0  0  0
 23 22  2  0  0  0  0
 24 25  2  0  0  0  0
 24 23  1  0  0  0  0
 25 26  1  0  0  0  0
 26 16  2  0  0  0  0
 26 21  1  0  0  0  0
M  END
>  <minimizedAffinity>
-5.43913555

$$$$

 OpenBabel03242519363D

 26 28  0  0  0  0  0  0  0  0999 V2000
   39.5090   30.5180   42.9210 O   0  0  0  0  0  0  0  0  0  0  0  0
   38.3330   29.7340   42.3800 P   0  0  1  0  0  0  0  0  0  0  0  0
   37.2610   29.3050   43.6010 O   0  0  0  0  0  0  0  0  0  0  0  0
   37.7360   29.3440   44.4690 H   0  0  0  0  0  0  0  0  0  0  0  0
   37.4760   30.7260   41.2590 O   0  0  0  0  0  0  0  0  0  0  0  0
   34.7670   29.0030   39.5270 C   0  0  0  0  0  0  0  0  0  0  0  0
   35.5020   29.6220   40.5600 C   0  0  0  0  0  0  0  0  0  0  0  0
   36.7660   30.1220   40.2390 C   0  0  0  0  0  0  0  0  0  0  0  0
   37.2190   29.9890   38.9650 N   0  0  0  0  0  0  0  0  0  0  0  0
   36.4880   29.3930   38.0090 C   0  0  0  0  0  0  0  0  0  0  0  0
   35.2580   28.8950   38.2800 N   0  0  0  0  0  0  0  0  0  0  0  0
   33.7850   28.6330   39.8470 H   0  0  0  0  0  0  0  0  0  0  0  0
   35.1020   29.7050   41.5590 H   0  0  0  0  0  0  0  0  0  0  0  0
   36.8770   29.2990   36.9860 H   0  0  0  0  0  0  0  0  0  0  0  0
   38.8980   28.3900   41.5300 O   0  0  0  0  0  0  0  0  0  0  0  0
   39.0250   27.1100   42.0030 C   0  0  0  0  0  0  0  0  0  0  0  0
   39.8870   26.7140   43.0040 C   0  0  0  0  0  0  0  0  0  0  0  0
   40.5200   27.4620   43.4610 H   0  0  0  0  0  0  0  0  0  0  0  0
   40.0060   25.4200   43.4720 C   0  0  0  0  0  3  0  0  0  0  0  0
   39.2010   24.4290   42.9000 C   0  0  0  0  0  3  0  0  0  0  0  0
   38.3320   24.8340   41.8910 C   0  0  0  0  0  0  0  0  0  0  0  0
   37.5670   23.7990   41.3730 C   0  0  0  0  0  3  0  0  0  0  0  0
   36.6520   24.0510   40.3550 C   0  0  0  0  0  3  0  0  0  0  0  0
   36.5570   25.3570   39.9080 C   0  0  0  0  0  3  0  0  0  0  0  0
   37.3190   26.3900   40.4240 C   0  0  0  0  0  3  0  0  0  0  0  0
   38.2290   26.1290   41.4380 C   0  0  0  0  0  0  0  0  0  0  0  0
  2  1  2  1  0  0  0
  2  3  1  0  0  0  0
  3  4  1  0  0  0  0
  5  2  1  0  0  0  0
  6 12  1  0  0  0  0
  6  7  1  0  0  0  0
  7 13  1  0  0  0  0
  8  7  2  0  0  0  0
  8  5  1  0  0  0  0
  9  8  1  0  0  0  0
 10 11  1  0  0  0  0
 10  9  2  0  0  0  0
 11  6  2  0  0  0  0
 14 10  1  0  0  0  0
 15 16  1  0  0  0  0
 15  2  1  0  0  0  0
 16 17  1  0  0  0  0
 17 18  1  0  0  0  0
 17 19  2  0  0  0  0
 20 19  1  0  0  0  0
 21 20  2  0  0  0  0
 22 21  1  0  0  0  0
 23 22  2  0  0  0  0
 24 23  1  0  0  0  0
 24 25  2  0  0  0  0
 25 26  1  0  0  0  0
 26 21  1  0  0  0  0
 26 16  2  0  0  0  0
M  END
>  <minimizedAffinity>
-5.41923141

$$$$

 OpenBabel03242519363D

 26 28  0  0  0  0  0  0  0  0999 V2000
   37.0840   28.3320   39.9990 O   0  0  0  0  0  0  0  0  0  0  0  0
   36.2250   28.8680   41.1240 P   0  0  1  0  0  0  0  0  0  0  0  0
   34.6540   29.1750   40.6100 O   0  0  0  0  0  0  0  0  0  0  0  0
   34.6550   29.2710   39.6240 H   0  0  0  0  0  0  0  0  0  0  0  0
   36.1420   27.6790   42.3700 O   0  0  0  0  0  0  0  0  0  0  0  0
   39.3870   26.6370   43.6720 C   0  0  0  0  0  0  0  0  0  0  0  0
   38.2520   27.4350   43.4170 C   0  0  0  0  0  0  0  0  0  0  0  0
   37.2480   26.8880   42.6130 C   0  0  0  0  0  0  0  0  0  0  0  0
   37.4140   25.6310   42.1240 N   0  0  0  0  0  0  0  0  0  0  0  0
   38.5100   24.9020   42.3910 C   0  0  0  0  0  0  0  0  0  0  0  0
   39.5040   25.3970   43.1650 N   0  0  0  0  0  0  0  0  0  0  0  0
   40.1340   27.1260   44.3090 H   0  0  0  0  0  0  0  0  0  0  0  0
   38.1630   28.4290   43.8270 H   0  0  0  0  0  0  0  0  0  0  0  0
   38.6180   23.8880   41.9830 H   0  0  0  0  0  0  0  0  0  0  0  0
   36.9560   30.2370   41.7850 O   0  0  0  0  0  0  0  0  0  0  0  0
   37.6160   31.2280   41.1060 C   0  0  0  0  0  0  0  0  0  0  0  0
   37.0410   32.0850   40.1900 C   0  0  0  0  0  0  0  0  0  0  0  0
   35.9860   31.9770   39.9820 H   0  0  0  0  0  0  0  0  0  0  0  0
   37.7180   33.0790   39.5120 C   0  0  0  0  0  3  0  0  0  0  0  0
   39.0850   33.2420   39.7600 C   0  0  0  0  0  3  0  0  0  0  0  0
   39.6610   32.3760   40.6850 C   0  0  0  0  0  0  0  0  0  0  0  0
   41.0160   32.5970   40.8790 C   0  0  0  0  0  3  0  0  0  0  0  0
   41.7290   31.8070   41.7760 C   0  0  0  0  0  3  0  0  0  0  0  0
   41.0230   30.8190   42.4390 C   0  0  0  0  0  3  0  0  0  0  0  0
   39.6710   30.5970   42.2460 C   0  0  0  0  0  3  0  0  0  0  0  0
   38.9690   31.3900   41.3500 C   0  0  0  0  0  0  0  0  0  0  0  0
  2  1  2  6  0  0  0
  2 15  1  0  0  0  0
  2  5  1  0  0  0  0
  3  2  1  0  0  0  0
  4  3  1  0  0  0  0
  5  8  1  0  0  0  0
  6 12  1  0  0  0  0
  7  6  1  0  0  0  0
  7 13  1  0  0  0  0
  8  7  2  0  0  0  0
  9 10  2  0  0  0  0
  9  8  1  0  0  0  0
 10 11  1  0  0  0  0
 11  6  2  0  0  0  0
 14 10  1  0  0  0  0
 16 26  1  0  0  0  0
 16 15  1  0  0  0  0
 17 16  2  0  0  0  0
 18 17  1  0  0  0  0
 19 20  2  0  0  0  0
 19 17  1  0  0  0  0
 20 21  1  0  0  0  0
 21 22  2  0  0  0  0
 21 26  1  0  0  0  0
 22 23  1  0  0  0  0
 23 24  2  0  0  0  0
 25 24  1  0  0  0  0
 26 25  2  0  0  0  0
M  END
>  <minimizedAffinity>
-5.3934617

$$$$

 OpenBabel03242519363D

 26 28  0  0  0  0  0  0  0  0999 V2000
   36.1420   28.8120   38.1640 O   0  0  0  0  0  0  0  0  0  0  0  0
   37.4220   29.5920   38.3710 P   0  0  1  0  0  0  0  0  0  0  0  0
   38.2560   29.8080   36.9280 O   0  0  0  0  0  0  0  0  0  0  0  0
   37.9490   29.1240   36.2790 H   0  0  0  0  0  0  0  0  0  0  0  0
   37.0250   31.1550   38.9820 O   0  0  0  0  0  0  0  0  0  0  0  0
   38.8240   33.8630   40.6360 C   0  0  0  0  0  0  0  0  0  0  0  0
   37.7880   32.9650   40.3040 C   0  0  0  0  0  0  0  0  0  0  0  0
   38.0470   32.0290   39.2990 C   0  0  0  0  0  0  0  0  0  0  0  0
   39.2670   32.0300   38.7010 N   0  0  0  0  0  0  0  0  0  0  0  0
   40.2280   32.9020   39.0470 C   0  0  0  0  0  0  0  0  0  0  0  0
   40.0160   33.8250   40.0150 N   0  0  0  0  0  0  0  0  0  0  0  0
   38.5540   34.5690   41.4310 H   0  0  0  0  0  0  0  0  0  0  0  0
   36.8340   33.0010   40.8050 H   0  0  0  0  0  0  0  0  0  0  0  0
   41.2060   32.8820   38.5480 H   0  0  0  0  0  0  0  0  0  0  0  0
   38.3660   28.8230   39.5400 O   0  0  0  0  0  0  0  0  0  0  0  0
   37.9750   28.4520   40.8010 C   0  0  0  0  0  0  0  0  0  0  0  0
   37.8830   29.2980   41.8870 C   0  0  0  0  0  0  0  0  0  0  0  0
   38.1360   30.3400   41.7460 H   0  0  0  0  0  0  0  0  0  0  0  0
   37.4880   28.9120   43.1520 C   0  0  0  0  0  3  0  0  0  0  0  0
   37.1540   27.5700   43.3640 C   0  0  0  0  0  3  0  0  0  0  0  0
   37.2490   26.7200   42.2660 C   0  0  0  0  0  0  0  0  0  0  0  0
   36.9020   25.4080   42.5520 C   0  0  0  0  0  3  0  0  0  0  0  0
   36.9490   24.4420   41.5510 C   0  0  0  0  0  3  0  0  0  0  0  0
   37.3490   24.8600   40.2940 C   0  0  0  0  0  3  0  0  0  0  0  0
   37.6940   26.1690   40.0080 C   0  0  0  0  0  3  0  0  0  0  0  0
   37.6450   27.1240   41.0120 C   0  0  0  0  0  0  0  0  0  0  0  0
  2  1  2  6  0  0  0
  2  5  1  0  0  0  0
  2 15  1  0  0  0  0
  3  2  1  0  0  0  0
  4  3  1  0  0  0  0
  5  8  1  0  0  0  0
  6 12  1  0  0  0  0
  7  6  1  0  0  0  0
  7 13  1  0  0  0  0
  8  7  2  0  0  0  0
  9 10  2  0  0  0  0
  9  8  1  0  0  0  0
 10 11  1  0  0  0  0
 11  6  2  0  0  0  0
 14 10  1  0  0  0  0
 15 16  1  0  0  0  0
 16 26  2  0  0  0  0
 16 17  1  0  0  0  0
 17 19  2  0  0  0  0
 18 17  1  0  0  0  0
 19 20  1  0  0  0  0
 21 22  1  0  0  0  0
 21 20  2  0  0  0  0
 23 22  2  0  0  0  0
 24 23  1  0  0  0  0
 25 24  2  0  0  0  0
 25 26  1  0  0  0  0
 26 21  1  0  0  0  0
M  END
>  <minimizedAffinity>
-5.33524513

$$$$

 OpenBabel03242519363D

 26 28  0  0  0  0  0  0  0  0999 V2000
   39.1040   32.4770   39.1860 O   0  0  0  0  0  0  0  0  0  0  0  0
   37.6540   32.3560   39.6050 P   0  0  1  0  0  0  0  0  0  0  0  0
   36.9200   33.8620   39.7360 O   0  0  0  0  0  0  0  0  0  0  0  0
   37.6240   34.5510   39.8430 H   0  0  0  0  0  0  0  0  0  0  0  0
   36.8040   31.4640   38.4000 O   0  0  0  0  0  0  0  0  0  0  0  0
   35.5470   28.0510   38.6910 C   0  0  0  0  0  0  0  0  0  0  0  0
   35.5620   29.4600   38.6210 C   0  0  0  0  0  0  0  0  0  0  0  0
   36.8020   30.0840   38.4660 C   0  0  0  0  0  0  0  0  0  0  0  0
   37.9180   29.3120   38.3890 N   0  0  0  0  0  0  0  0  0  0  0  0
   37.8620   27.9720   38.4590 C   0  0  0  0  0  0  0  0  0  0  0  0
   36.6790   27.3300   38.6100 N   0  0  0  0  0  0  0  0  0  0  0  0
   34.5430   27.6270   38.8130 H   0  0  0  0  0  0  0  0  0  0  0  0
   34.6500   30.0330   38.6870 H   0  0  0  0  0  0  0  0  0  0  0  0
   38.7790   27.3710   38.3940 H   0  0  0  0  0  0  0  0  0  0  0  0
   37.5570   31.4760   41.0420 O   0  0  0  0  0  0  0  0  0  0  0  0
   38.5500   30.7280   41.6190 C   0  0  0  0  0  0  0  0  0  0  0  0
   39.8610   31.1300   41.7740 C   0  0  0  0  0  0  0  0  0  0  0  0
   40.1410   32.1110   41.4170 H   0  0  0  0  0  0  0  0  0  0  0  0
   40.8520   30.3660   42.3570 C   0  0  0  0  0  3  0  0  0  0  0  0
   40.5210   29.0920   42.8290 C   0  0  0  0  0  3  0  0  0  0  0  0
   39.1970   28.6910   42.6710 C   0  0  0  0  0  0  0  0  0  0  0  0
   38.9430   27.4190   43.1620 C   0  0  0  0  0  3  0  0  0  0  0  0
   37.6630   26.8810   43.0730 C   0  0  0  0  0  3  0  0  0  0  0  0
   36.6910   27.6700   42.4830 C   0  0  0  0  0  3  0  0  0  0  0  0
   36.9440   28.9390   41.9930 C   0  0  0  0  0  3  0  0  0  0  0  0
   38.2230   29.4660   42.0860 C   0  0  0  0  0  0  0  0  0  0  0  0
  2  1  2  6  0  0  0
  2  3  1  0  0  0  0
  2 15  1  0  0  0  0
  3  4  1  0  0  0  0
  5  8  1  0  0  0  0
  5  2  1  0  0  0  0
  6 12  1  0  0  0  0
  7 13  1  0  0  0  0
  7  6  1  0  0  0  0
  8  7  2  0  0  0  0
  9 10  2  0  0  0  0
  9  8  1  0  0  0  0
 10 11  1  0  0  0  0
 11  6  2  0  0  0  0
 14 10  1  0  0  0  0
 15 16  1  0  0  0  0
 16 17  2  0  0  0  0
 16 26  1  0  0  0  0
 17 19  1  0  0  0  0
 18 17  1  0  0  0  0
 19 20  2  0  0  0  0
 21 20  1  0  0  0  0
 21 22  1  0  0  0  0
 23 22  2  0  0  0  0
 24 23  1  0  0  0  0
 25 26  1  0  0  0  0
 25 24  2  0  0  0  0
 26 21  2  0  0  0  0
M  END
>  <minimizedAffinity>
-5.32965374

$$$$
