
 OpenBabel03242519413D

 31 33  0  0  0  0  0  0  0  0999 V2000
   47.9610   32.8510   41.6500 O   0  0  0  0  0  0  0  0  0  0  0  0
   47.0960   34.0790   41.2620 P   0  0  2  0  0  0  0  0  0  0  0  0
   45.5180   33.8600   41.9010 O   0  0  0  0  0  0  0  0  0  0  0  0
   44.4050   35.9140   44.6960 C   0  0  0  0  0  0  0  0  0  0  0  0
   44.6560   35.4860   43.3710 C   0  0  0  0  0  0  0  0  0  0  0  0
   45.2870   34.2450   43.2040 C   0  0  0  0  0  0  0  0  0  0  0  0
   45.6150   33.5330   44.3000 N   0  0  0  0  0  0  0  0  0  0  0  0
   45.3620   33.9690   45.5540 C   0  0  0  0  0  0  0  0  0  0  0  0
   44.7610   35.1520   45.7620 N   0  0  0  0  0  0  0  0  0  0  0  0
   43.9190   36.8700   44.8330 H   0  0  0  0  0  0  0  0  0  0  0  0
   44.3530   36.1280   42.5680 H   0  0  0  0  0  0  0  0  0  0  0  0
   45.6600   33.3330   46.3950 H   0  0  0  0  0  0  0  0  0  0  0  0
   46.9940   34.1700   39.6090 O   0  0  0  0  0  0  0  0  0  0  0  0
   46.7590   33.1960   38.6910 C   0  0  0  0  0  0  0  0  0  0  0  0
   45.9180   32.1940   39.0470 O   0  0  0  0  0  0  0  0  0  0  0  0
   47.0510   32.7150   37.3210 C   0  0  0  0  0  0  0  0  0  0  0  0
   46.0260   32.6620   36.3480 C   0  0  0  0  0  0  0  0  0  0  0  0
   45.0740   33.1400   36.6780 H   0  0  0  0  0  0  0  0  0  0  0  0
   45.9900   32.1310   35.0860 C   0  0  0  0  0  3  0  0  0  0  0  0
   47.1980   31.5640   34.7650 C   0  0  0  0  0  3  0  0  0  0  0  0
   48.2500   31.5700   35.6470 C   0  0  0  0  0  0  0  0  0  0  0  0
   49.4650   31.0300   35.2830 C   0  0  0  0  0  3  0  0  0  0  0  0
   50.6220   30.9940   36.0330 C   0  0  0  0  0  3  0  0  0  0  0  0
   50.5050   31.5860   37.2980 C   0  0  0  0  0  3  0  0  0  0  0  0
   49.3070   32.1310   37.6880 C   0  0  0  0  0  3  0  0  0  0  0  0
   48.1810   32.1420   36.9150 C   0  0  0  0  0  0  0  0  0  0  0  0
   47.7870   35.4000   41.9880 O   0  0  0  0  0  0  0  0  0  0  0  0
   49.0230   35.7200   41.4450 C   0  0  0  0  0  0  0  0  0  0  0  0
   49.4260   37.0030   41.7660 F   0  0  0  0  0  0  0  0  0  0  0  0
   49.9460   34.7770   41.7660 F   0  0  0  0  0  0  0  0  0  0  0  0
   48.8530   35.7020   40.0620 F   0  0  0  0  0  0  0  0  0  0  0  0
  2  1  2  1  0  0  0
  2  3  1  0  0  0  0
  2 27  1  0  0  0  0
  3  6  1  0  0  0  0
  4 10  1  0  0  0  0
  4  9  1  0  0  0  0
  5  4  2  0  0  0  0
  6  5  1  0  0  0  0
  6  7  2  0  0  0  0
  7  8  1  0  0  0  0
  8  9  2  0  0  0  0
  8 12  1  0  0  0  0
 11  5  1  0  0  0  0
 13  2  1  0  0  0  0
 14 15  2  0  0  0  0
 14 13  1  0  0  0  0
 16 14  1  0  0  0  0
 17 18  1  0  0  0  0
 17 16  2  0  0  0  0
 19 17  1  0  0  0  0
 20 19  2  0  0  0  0
 20 21  1  0  0  0  0
 21 26  1  0  0  0  0
 22 21  2  0  0  0  0
 22 23  1  0  0  0  0
 23 24  2  0  0  0  0
 24 25  1  0  0  0  0
 26 16  1  0  0  0  0
 26 25  2  0  0  0  0
 28 29  1  0  0  0  0
 28 30  1  0  0  0  0
 28 27  1  0  0  0  0
 31 28  1  0  0  0  0
M  END
>  <minimizedAffinity>
-5.7196393

>  <minimizedRMSD>
2.26527071

$$$$
