
 OpenBabel03252506353D

 35 38  0  0  1  0  0  0  0  0999 V2000
   42.3150   33.8090   38.7250 C   0  0  0  0  0  0  0  0  0  0  0  0
   42.9000   33.6490   39.9930 C   0  0  0  0  0  0  0  0  0  0  0  0
   42.2810   32.8570   40.9120 C   0  0  0  0  0  0  0  0  0  0  0  0
   41.1220   32.2690   40.5320 N   0  0  0  0  0  0  0  0  0  0  0  0
   40.5710   32.4210   39.3340 C   0  0  0  0  0  0  0  0  0  0  0  0
   41.1560   33.1950   38.4040 N   0  0  0  0  0  0  0  0  0  0  0  0
   39.3540   31.7480   39.0660 N   0  0  0  0  0  0  0  0  0  0  0  0
   38.7820   31.5870   37.7240 C   0  0  0  0  0  0  0  0  0  0  0  0
   37.3010   31.7410   38.0000 C   0  0  0  0  0  0  0  0  0  0  0  0
   37.1250   31.6780   39.4920 C   0  0  0  0  0  0  0  0  0  0  0  0
   38.4370   31.1000   39.9500 C   0  0  1  0  0  0  0  0  0  0  0  0
   42.7520   34.4220   37.9500 H   0  0  0  0  0  0  0  0  0  0  0  0
   42.7340   32.7360   41.8850 H   0  0  0  0  0  0  0  0  0  0  0  0
   39.1670   32.4060   37.0750 H   0  0  0  0  0  0  0  0  0  0  0  0
   39.0370   30.5840   37.3140 H   0  0  0  0  0  0  0  0  0  0  0  0
   37.0170   32.7760   37.6700 H   0  0  0  0  0  0  0  0  0  0  0  0
   36.6670   31.0420   37.4510 H   0  0  0  0  0  0  0  0  0  0  0  0
   37.0420   32.7110   39.9310 H   0  0  0  0  0  0  0  0  0  0  0  0
   36.2770   31.0750   39.8300 H   0  0  0  0  0  0  0  0  0  0  0  0
   38.6850   31.3910   40.9920 H   0  0  0  0  0  0  0  0  0  0  0  0
   44.1310   34.3490   40.2210 N   0  0  0  0  0  0  0  0  0  0  0  0
   44.8570   33.6400   39.9700 H   0  0  0  0  0  0  0  0  0  0  0  0
   44.2670   35.3110   40.5500 H   0  0  0  0  0  0  0  0  0  0  0  0
   38.4130   29.3040   39.7250 S   0  0  0  0  0  0  0  0  0  0  0  0
   37.9230   28.4950   41.2260 C   0  0  0  0  0  0  0  0  0  0  0  0
   37.9140   29.2850   42.3800 C   0  0  0  0  0  0  0  0  0  0  0  0
   38.1780   30.3460   42.4450 H   0  0  0  0  0  0  0  0  0  0  0  0
   37.5370   28.7040   43.5900 C   0  0  0  0  0  3  0  0  0  0  0  0
   37.1760   27.3810   43.6780 C   0  0  0  0  0  3  0  0  0  0  0  0
   37.1930   26.6140   42.5160 C   0  0  0  0  0  0  0  0  0  0  0  0
   36.8290   25.2720   42.5900 C   0  0  0  0  0  3  0  0  0  0  0  0
   36.8680   24.5690   41.3990 C   0  0  0  0  0  3  0  0  0  0  0  0
   37.2330   25.0910   40.1700 C   0  0  0  0  0  3  0  0  0  0  0  0
   37.5750   26.4190   40.1880 C   0  0  0  0  0  3  0  0  0  0  0  0
   37.5600   27.1680   41.3200 C   0  0  0  0  0  0  0  0  0  0  0  0
  1  2  1  0  0  0  0
  2 21  1  0  0  0  0
  2  3  2  0  0  0  0
  3 13  1  0  0  0  0
  4  3  1  0  0  0  0
  5  4  2  0  0  0  0
  6  1  2  0  0  0  0
  6  5  1  0  0  0  0
  7  5  1  0  0  0  0
  7 11  1  0  0  0  0
  8  9  1  0  0  0  0
  8  7  1  0  0  0  0
  9 10  1  0  0  0  0
 10 19  1  0  0  0  0
 10 18  1  0  0  0  0
 10 11  1  0  0  0  0
 11 20  1  1  0  0  0
 12  1  1  0  0  0  0
 14  8  1  0  0  0  0
 15  8  1  0  0  0  0
 16  9  1  0  0  0  0
 17  9  1  0  0  0  0
 21 23  1  0  0  0  0
 22 21  1  0  0  0  0
 24 11  1  0  0  0  0
 24 25  1  0  0  0  0
 25 35  2  0  0  0  0
 25 26  1  0  0  0  0
 26 27  1  0  0  0  0
 26 28  2  0  0  0  0
 28 29  1  0  0  0  0
 30 31  1  0  0  0  0
 30 29  2  0  0  0  0
 32 31  2  0  0  0  0
 33 34  2  0  0  0  0
 33 32  1  0  0  0  0
 34 35  1  0  0  0  0
 35 30  1  0  0  0  0
M  END
>  <minimizedAffinity>
-6.36267376

$$$$

 OpenBabel03252506353D

 35 38  0  0  1  0  0  0  0  0999 V2000
   39.1200   33.5770   40.5480 C   0  0  0  0  0  0  0  0  0  0  0  0
   37.9690   33.0130   39.9730 C   0  0  0  0  0  0  0  0  0  0  0  0
   37.8780   31.6580   39.8650 C   0  0  0  0  0  0  0  0  0  0  0  0
   38.9250   30.9360   40.3280 N   0  0  0  0  0  0  0  0  0  0  0  0
   40.0120   31.4690   40.8720 C   0  0  0  0  0  0  0  0  0  0  0  0
   40.1330   32.8030   40.9940 N   0  0  0  0  0  0  0  0  0  0  0  0
   41.0350   30.5970   41.3170 N   0  0  0  0  0  0  0  0  0  0  0  0
   42.1470   31.0090   42.1820 C   0  0  0  0  0  0  0  0  0  0  0  0
   43.2960   30.2030   41.6130 C   0  0  0  0  0  0  0  0  0  0  0  0
   42.6980   29.1890   40.6780 C   0  0  0  0  0  0  0  0  0  0  0  0
   41.2440   29.2060   41.0660 C   0  0  1  0  0  0  0  0  0  0  0  0
   39.2570   34.6420   40.6650 H   0  0  0  0  0  0  0  0  0  0  0  0
   36.9910   31.2290   39.4220 H   0  0  0  0  0  0  0  0  0  0  0  0
   42.3080   32.1030   42.0540 H   0  0  0  0  0  0  0  0  0  0  0  0
   41.9270   30.7480   43.2420 H   0  0  0  0  0  0  0  0  0  0  0  0
   43.9100   30.9110   40.9930 H   0  0  0  0  0  0  0  0  0  0  0  0
   43.9590   29.7730   42.3650 H   0  0  0  0  0  0  0  0  0  0  0  0
   42.7640   29.5380   39.6100 H   0  0  0  0  0  0  0  0  0  0  0  0
   43.1260   28.1850   40.7550 H   0  0  0  0  0  0  0  0  0  0  0  0
   40.5800   28.8930   40.2330 H   0  0  0  0  0  0  0  0  0  0  0  0
   36.9580   33.9320   39.5360 N   0  0  0  0  0  0  0  0  0  0  0  0
   36.3220   33.9970   40.3630 H   0  0  0  0  0  0  0  0  0  0  0  0
   36.8780   34.4110   38.6320 H   0  0  0  0  0  0  0  0  0  0  0  0
   41.0070   28.1950   42.5490 S   0  0  0  0  0  0  0  0  0  0  0  0
   39.2990   27.7540   42.7360 C   0  0  0  0  0  0  0  0  0  0  0  0
   38.4570   28.7450   43.2510 C   0  0  0  0  0  0  0  0  0  0  0  0
   38.7490   29.7580   43.5480 H   0  0  0  0  0  0  0  0  0  0  0  0
   37.1030   28.4570   43.4190 C   0  0  0  0  0  3  0  0  0  0  0  0
   36.5770   27.2290   43.0950 C   0  0  0  0  0  3  0  0  0  0  0  0
   37.4340   26.2590   42.5830 C   0  0  0  0  0  0  0  0  0  0  0  0
   36.9150   25.0110   42.2490 C   0  0  0  0  0  3  0  0  0  0  0  0
   37.8220   24.0940   41.7470 C   0  0  0  0  0  3  0  0  0  0  0  0
   39.1740   24.3230   41.5580 C   0  0  0  0  0  3  0  0  0  0  0  0
   39.6000   25.5770   41.9130 C   0  0  0  0  0  3  0  0  0  0  0  0
   38.7650   26.5240   42.4110 C   0  0  0  0  0  0  0  0  0  0  0  0
  1 12  1  0  0  0  0
  1  6  1  0  0  0  0
  2  1  2  0  0  0  0
  3  2  1  0  0  0  0
  3  4  2  0  0  0  0
  4  5  1  0  0  0  0
  5  6  2  0  0  0  0
  5  7  1  0  0  0  0
  7  8  1  0  0  0  0
  8 15  1  0  0  0  0
  9  8  1  0  0  0  0
  9 17  1  0  0  0  0
 10 19  1  0  0  0  0
 10 11  1  0  0  0  0
 10  9  1  0  0  0  0
 11 20  1  6  0  0  0
 11  7  1  0  0  0  0
 11 24  1  0  0  0  0
 13  3  1  0  0  0  0
 14  8  1  0  0  0  0
 16  9  1  0  0  0  0
 18 10  1  0  0  0  0
 21  2  1  0  0  0  0
 21 22  1  0  0  0  0
 23 21  1  0  0  0  0
 24 25  1  0  0  0  0
 25 26  1  0  0  0  0
 26 28  2  0  0  0  0
 26 27  1  0  0  0  0
 29 28  1  0  0  0  0
 30 29  2  0  0  0  0
 31 30  1  0  0  0  0
 32 31  2  0  0  0  0
 33 32  1  0  0  0  0
 33 34  2  0  0  0  0
 34 35  1  0  0  0  0
 35 30  1  0  0  0  0
 35 25  2  0  0  0  0
M  END
>  <minimizedAffinity>
-6.2575469

$$$$

 OpenBabel03252506353D

 35 38  0  0  1  0  0  0  0  0999 V2000
   39.9950   30.7960   37.5930 C   0  0  0  0  0  0  0  0  0  0  0  0
   40.1290   32.1240   38.0320 C   0  0  0  0  0  0  0  0  0  0  0  0
   39.4850   32.5130   39.1680 C   0  0  0  0  0  0  0  0  0  0  0  0
   38.7480   31.5740   39.8060 N   0  0  0  0  0  0  0  0  0  0  0  0
   38.6230   30.3200   39.3910 C   0  0  0  0  0  0  0  0  0  0  0  0
   39.2440   29.9030   38.2740 N   0  0  0  0  0  0  0  0  0  0  0  0
   37.8190   29.4380   40.1540 N   0  0  0  0  0  0  0  0  0  0  0  0
   37.8130   27.9790   39.9880 C   0  0  0  0  0  0  0  0  0  0  0  0
   36.3500   27.6510   40.1960 C   0  0  0  0  0  0  0  0  0  0  0  0
   35.6980   28.8870   40.7500 C   0  0  0  0  0  0  0  0  0  0  0  0
   36.8790   29.7050   41.1970 C   0  0  1  0  0  0  0  0  0  0  0  0
   40.4770   30.4200   36.7020 H   0  0  0  0  0  0  0  0  0  0  0  0
   39.5910   33.5350   39.5030 H   0  0  0  0  0  0  0  0  0  0  0  0
   38.1470   27.7400   38.9540 H   0  0  0  0  0  0  0  0  0  0  0  0
   38.4700   27.5040   40.7520 H   0  0  0  0  0  0  0  0  0  0  0  0
   35.9130   27.4670   39.1780 H   0  0  0  0  0  0  0  0  0  0  0  0
   36.1710   26.7540   40.7910 H   0  0  0  0  0  0  0  0  0  0  0  0
   35.1770   29.4660   39.9370 H   0  0  0  0  0  0  0  0  0  0  0  0
   34.9950   28.7090   41.5700 H   0  0  0  0  0  0  0  0  0  0  0  0
   36.6600   30.7940   41.2050 H   0  0  0  0  0  0  0  0  0  0  0  0
   40.9520   32.9820   37.2300 N   0  0  0  0  0  0  0  0  0  0  0  0
   41.8900   32.9030   37.6840 H   0  0  0  0  0  0  0  0  0  0  0  0
   40.6840   33.5370   36.4100 H   0  0  0  0  0  0  0  0  0  0  0  0
   37.4490   29.1080   42.8080 S   0  0  0  0  0  0  0  0  0  0  0  0
   39.2200   29.1550   42.8990 C   0  0  0  0  0  0  0  0  0  0  0  0
   39.8160   30.4050   42.7090 C   0  0  0  0  0  0  0  0  0  0  0  0
   39.2980   31.3500   42.5100 H   0  0  0  0  0  0  0  0  0  0  0  0
   41.2050   30.5060   42.7710 C   0  0  0  0  0  3  0  0  0  0  0  0
   42.0010   29.4110   43.0120 C   0  0  0  0  0  3  0  0  0  0  0  0
   41.3850   28.1760   43.1990 C   0  0  0  0  0  0  0  0  0  0  0  0
   42.1790   27.0590   43.4450 C   0  0  0  0  0  3  0  0  0  0  0  0
   41.5020   25.8650   43.6200 C   0  0  0  0  0  3  0  0  0  0  0  0
   40.1290   25.7050   43.5700 C   0  0  0  0  0  3  0  0  0  0  0  0
   39.4250   26.8560   43.3240 C   0  0  0  0  0  3  0  0  0  0  0  0
   40.0230   28.0600   43.1420 C   0  0  0  0  0  0  0  0  0  0  0  0
  1  2  2  0  0  0  0
  1  6  1  0  0  0  0
  2  3  1  0  0  0  0
  3 13  1  0  0  0  0
  3  4  2  0  0  0  0
  5  4  1  0  0  0  0
  5  7  1  0  0  0  0
  6  5  2  0  0  0  0
  7 11  1  0  0  0  0
  8  7  1  0  0  0  0
  8  9  1  0  0  0  0
  8 15  1  0  0  0  0
  9 10  1  0  0  0  0
  9 17  1  0  0  0  0
 10 11  1  0  0  0  0
 10 19  1  0  0  0  0
 11 20  1  1  0  0  0
 11 24  1  0  0  0  0
 12  1  1  0  0  0  0
 14  8  1  0  0  0  0
 16  9  1  0  0  0  0
 18 10  1  0  0  0  0
 21 22  1  0  0  0  0
 21  2  1  0  0  0  0
 23 21  1  0  0  0  0
 24 25  1  0  0  0  0
 25 35  1  0  0  0  0
 26 28  1  0  0  0  0
 26 25  2  0  0  0  0
 27 26  1  0  0  0  0
 28 29  2  0  0  0  0
 29 30  1  0  0  0  0
 30 31  1  0  0  0  0
 31 32  2  0  0  0  0
 33 32  1  0  0  0  0
 34 33  2  0  0  0  0
 35 30  2  0  0  0  0
 35 34  1  0  0  0  0
M  END
>  <minimizedAffinity>
-6.13391018

$$$$

 OpenBabel03252506353D

 35 38  0  0  1  0  0  0  0  0999 V2000
   40.9970   31.4180   39.8670 C   0  0  0  0  0  0  0  0  0  0  0  0
   40.6260   32.3790   40.8220 C   0  0  0  0  0  0  0  0  0  0  0  0
   39.3190   32.4740   41.1920 C   0  0  0  0  0  0  0  0  0  0  0  0
   38.4510   31.6190   40.6010 N   0  0  0  0  0  0  0  0  0  0  0  0
   38.8030   30.7120   39.6990 C   0  0  0  0  0  0  0  0  0  0  0  0
   40.0850   30.5910   39.3120 N   0  0  0  0  0  0  0  0  0  0  0  0
   37.7940   29.8780   39.1580 N   0  0  0  0  0  0  0  0  0  0  0  0
   38.0610   28.6610   38.3830 C   0  0  0  0  0  0  0  0  0  0  0  0
   36.9660   28.7150   37.3370 C   0  0  0  0  0  0  0  0  0  0  0  0
   35.9970   29.7780   37.7730 C   0  0  0  0  0  0  0  0  0  0  0  0
   36.3700   29.9870   39.2160 C   0  0  1  0  0  0  0  0  0  0  0  0
   42.0150   31.2880   39.5290 H   0  0  0  0  0  0  0  0  0  0  0  0
   39.0370   33.2140   41.9280 H   0  0  0  0  0  0  0  0  0  0  0  0
   39.0720   28.7480   37.9250 H   0  0  0  0  0  0  0  0  0  0  0  0
   37.9820   27.7630   39.0360 H   0  0  0  0  0  0  0  0  0  0  0  0
   37.4470   29.0670   36.3860 H   0  0  0  0  0  0  0  0  0  0  0  0
   36.4990   27.7520   37.1260 H   0  0  0  0  0  0  0  0  0  0  0  0
   36.1930   30.7460   37.2330 H   0  0  0  0  0  0  0  0  0  0  0  0
   34.9420   29.5120   37.6620 H   0  0  0  0  0  0  0  0  0  0  0  0
   36.1070   31.0030   39.5780 H   0  0  0  0  0  0  0  0  0  0  0  0
   41.6800   33.2010   41.3430 N   0  0  0  0  0  0  0  0  0  0  0  0
   41.9770   32.6880   42.2040 H   0  0  0  0  0  0  0  0  0  0  0  0
   42.0520   34.0780   40.9630 H   0  0  0  0  0  0  0  0  0  0  0  0
   35.6190   28.6840   40.2240 S   0  0  0  0  0  0  0  0  0  0  0  0
   36.7450   28.1430   41.4840 C   0  0  0  0  0  0  0  0  0  0  0  0
   37.0810   29.0870   42.4600 C   0  0  0  0  0  0  0  0  0  0  0  0
   36.7180   30.1190   42.5200 H   0  0  0  0  0  0  0  0  0  0  0  0
   37.9620   28.7200   43.4760 C   0  0  0  0  0  3  0  0  0  0  0  0
   38.5070   27.4600   43.5440 C   0  0  0  0  0  3  0  0  0  0  0  0
   38.1580   26.5370   42.5610 C   0  0  0  0  0  0  0  0  0  0  0  0
   38.7020   25.2570   42.6170 C   0  0  0  0  0  3  0  0  0  0  0  0
   38.3120   24.3910   41.6100 C   0  0  0  0  0  3  0  0  0  0  0  0
   37.4440   24.6980   40.5770 C   0  0  0  0  0  3  0  0  0  0  0  0
   36.9550   25.9790   40.5990 C   0  0  0  0  0  3  0  0  0  0  0  0
   37.2950   26.8800   41.5570 C   0  0  0  0  0  0  0  0  0  0  0  0
  1  2  1  0  0  0  0
  2  3  2  0  0  0  0
  2 21  1  0  0  0  0
  3 13  1  0  0  0  0
  4  3  1  0  0  0  0
  5  4  2  0  0  0  0
  6  5  1  0  0  0  0
  6  1  2  0  0  0  0
  7 11  1  0  0  0  0
  7  5  1  0  0  0  0
  8 15  1  0  0  0  0
  8  7  1  0  0  0  0
  9 10  1  0  0  0  0
  9  8  1  0  0  0  0
 10 11  1  0  0  0  0
 11 20  1  1  0  0  0
 11 24  1  0  0  0  0
 12  1  1  0  0  0  0
 14  8  1  0  0  0  0
 16  9  1  0  0  0  0
 17  9  1  0  0  0  0
 18 10  1  0  0  0  0
 19 10  1  0  0  0  0
 21 22  1  0  0  0  0
 23 21  1  0  0  0  0
 24 25  1  0  0  0  0
 25 35  2  0  0  0  0
 25 26  1  0  0  0  0
 26 27  1  0  0  0  0
 26 28  2  0  0  0  0
 28 29  1  0  0  0  0
 30 31  1  0  0  0  0
 30 29  2  0  0  0  0
 32 31  2  0  0  0  0
 33 34  2  0  0  0  0
 33 32  1  0  0  0  0
 34 35  1  0  0  0  0
 35 30  1  0  0  0  0
M  END
>  <minimizedAffinity>
-6.06307793

$$$$

 OpenBabel03252506353D

 35 38  0  0  1  0  0  0  0  0999 V2000
   41.7730   33.4560   39.0660 C   0  0  0  0  0  0  0  0  0  0  0  0
   41.7160   33.1670   37.6920 C   0  0  0  0  0  0  0  0  0  0  0  0
   41.0680   32.0430   37.2790 C   0  0  0  0  0  0  0  0  0  0  0  0
   40.5140   31.2670   38.2410 N   0  0  0  0  0  0  0  0  0  0  0  0
   40.5690   31.5410   39.5380 C   0  0  0  0  0  0  0  0  0  0  0  0
   41.2000   32.6430   39.9790 N   0  0  0  0  0  0  0  0  0  0  0  0
   39.9460   30.6430   40.4390 N   0  0  0  0  0  0  0  0  0  0  0  0
   39.6760   30.9500   41.8500 C   0  0  0  0  0  0  0  0  0  0  0  0
   39.9500   29.6160   42.5120 C   0  0  0  0  0  0  0  0  0  0  0  0
   40.0600   28.5950   41.4140 C   0  0  0  0  0  0  0  0  0  0  0  0
   39.4560   29.3160   40.2390 C   0  0  1  0  0  0  0  0  0  0  0  0
   42.2700   34.3300   39.4620 H   0  0  0  0  0  0  0  0  0  0  0  0
   41.0250   31.8240   36.2220 H   0  0  0  0  0  0  0  0  0  0  0  0
   40.3950   31.7310   42.1850 H   0  0  0  0  0  0  0  0  0  0  0  0
   38.6210   31.2800   41.9760 H   0  0  0  0  0  0  0  0  0  0  0  0
   40.9590   29.6980   42.9980 H   0  0  0  0  0  0  0  0  0  0  0  0
   39.2360   29.3480   43.2930 H   0  0  0  0  0  0  0  0  0  0  0  0
   41.1380   28.3900   41.1630 H   0  0  0  0  0  0  0  0  0  0  0  0
   39.5510   27.6480   41.6130 H   0  0  0  0  0  0  0  0  0  0  0  0
   39.8430   28.9400   39.2680 H   0  0  0  0  0  0  0  0  0  0  0  0
   42.3590   34.1030   36.8160 N   0  0  0  0  0  0  0  0  0  0  0  0
   41.5840   34.7520   36.5510 H   0  0  0  0  0  0  0  0  0  0  0  0
   43.3410   34.1290   36.5200 H   0  0  0  0  0  0  0  0  0  0  0  0
   37.6510   29.2240   40.3410 S   0  0  0  0  0  0  0  0  0  0  0  0
   37.0550   27.7580   39.5390 C   0  0  0  0  0  0  0  0  0  0  0  0
   36.7110   27.8870   38.1900 C   0  0  0  0  0  0  0  0  0  0  0  0
   36.7740   28.7990   37.5860 H   0  0  0  0  0  0  0  0  0  0  0  0
   36.2380   26.7690   37.5060 C   0  0  0  0  0  3  0  0  0  0  0  0
   36.1000   25.5470   38.1210 C   0  0  0  0  0  3  0  0  0  0  0  0
   36.4490   25.4420   39.4650 C   0  0  0  0  0  0  0  0  0  0  0  0
   36.3160   24.2110   40.1010 C   0  0  0  0  0  3  0  0  0  0  0  0
   36.6800   24.1780   41.4350 C   0  0  0  0  0  3  0  0  0  0  0  0
   37.1560   25.2530   42.1650 C   0  0  0  0  0  3  0  0  0  0  0  0
   37.2560   26.4260   41.4610 C   0  0  0  0  0  3  0  0  0  0  0  0
   36.9160   26.5300   40.1510 C   0  0  0  0  0  0  0  0  0  0  0  0
  1 12  1  0  0  0  0
  1  6  1  0  0  0  0
  2  1  2  0  0  0  0
  3  2  1  0  0  0  0
  3  4  2  0  0  0  0
  4  5  1  0  0  0  0
  5  6  2  0  0  0  0
  5  7  1  0  0  0  0
  7  8  1  0  0  0  0
  8 15  1  0  0  0  0
  8 14  1  0  0  0  0
  8  9  1  0  0  0  0
  9 16  1  0  0  0  0
  9 17  1  0  0  0  0
 10 19  1  0  0  0  0
 10  9  1  0  0  0  0
 11 20  1  6  0  0  0
 11 24  1  0  0  0  0
 11  7  1  0  0  0  0
 11 10  1  0  0  0  0
 13  3  1  0  0  0  0
 18 10  1  0  0  0  0
 21  2  1  0  0  0  0
 22 21  1  0  0  0  0
 23 21  1  0  0  0  0
 25 35  1  0  0  0  0
 25 24  1  0  0  0  0
 26 25  2  0  0  0  0
 27 26  1  0  0  0  0
 28 29  2  0  0  0  0
 28 26  1  0  0  0  0
 29 30  1  0  0  0  0
 30 31  2  0  0  0  0
 30 35  1  0  0  0  0
 31 32  1  0  0  0  0
 32 33  2  0  0  0  0
 34 33  1  0  0  0  0
 35 34  2  0  0  0  0
M  END
>  <minimizedAffinity>
-6.02974272

$$$$

 OpenBabel03252506353D

 35 38  0  0  1  0  0  0  0  0999 V2000
   37.3130   29.9000   36.8600 C   0  0  0  0  0  0  0  0  0  0  0  0
   38.0050   28.6820   36.7400 C   0  0  0  0  0  0  0  0  0  0  0  0
   38.9410   28.3590   37.6750 C   0  0  0  0  0  0  0  0  0  0  0  0
   39.1440   29.2510   38.6740 N   0  0  0  0  0  0  0  0  0  0  0  0
   38.4900   30.4000   38.7850 C   0  0  0  0  0  0  0  0  0  0  0  0
   37.5590   30.7500   37.8800 N   0  0  0  0  0  0  0  0  0  0  0  0
   38.7990   31.2430   39.8800 N   0  0  0  0  0  0  0  0  0  0  0  0
   37.9780   32.3880   40.2940 C   0  0  0  0  0  0  0  0  0  0  0  0
   39.0340   33.3920   40.7060 C   0  0  0  0  0  0  0  0  0  0  0  0
   40.3400   32.6490   40.7780 C   0  0  0  0  0  0  0  0  0  0  0  0
   39.8960   31.2120   40.7960 C   0  0  1  0  0  0  0  0  0  0  0  0
   36.5590   30.2180   36.1560 H   0  0  0  0  0  0  0  0  0  0  0  0
   39.4710   27.4220   37.5800 H   0  0  0  0  0  0  0  0  0  0  0  0
   37.3950   32.7410   39.4140 H   0  0  0  0  0  0  0  0  0  0  0  0
   37.3130   32.0980   41.1390 H   0  0  0  0  0  0  0  0  0  0  0  0
   39.1150   34.1360   39.8690 H   0  0  0  0  0  0  0  0  0  0  0  0
   38.7940   33.9500   41.6120 H   0  0  0  0  0  0  0  0  0  0  0  0
   40.9410   32.8030   39.8390 H   0  0  0  0  0  0  0  0  0  0  0  0
   40.9600   32.8930   41.6460 H   0  0  0  0  0  0  0  0  0  0  0  0
   40.6710   30.5250   40.3960 H   0  0  0  0  0  0  0  0  0  0  0  0
   37.6600   27.8600   35.6170 N   0  0  0  0  0  0  0  0  0  0  0  0
   36.9260   27.2240   36.0050 H   0  0  0  0  0  0  0  0  0  0  0  0
   38.0400   27.8890   34.6650 H   0  0  0  0  0  0  0  0  0  0  0  0
   39.3810   30.7630   42.4730 S   0  0  0  0  0  0  0  0  0  0  0  0
   38.6200   29.1610   42.4840 C   0  0  0  0  0  0  0  0  0  0  0  0
   37.2670   29.1160   42.1320 C   0  0  0  0  0  0  0  0  0  0  0  0
   36.6390   29.9690   41.8530 H   0  0  0  0  0  0  0  0  0  0  0  0
   36.6150   27.8840   42.1210 C   0  0  0  0  0  3  0  0  0  0  0  0
   37.2640   26.7170   42.4470 C   0  0  0  0  0  3  0  0  0  0  0  0
   38.6110   26.7860   42.7930 C   0  0  0  0  0  0  0  0  0  0  0  0
   39.2810   25.6110   43.1250 C   0  0  0  0  0  3  0  0  0  0  0  0
   40.6160   25.7520   43.4600 C   0  0  0  0  0  3  0  0  0  0  0  0
   41.3160   26.9460   43.4880 C   0  0  0  0  0  3  0  0  0  0  0  0
   40.5800   28.0520   43.1470 C   0  0  0  0  0  3  0  0  0  0  0  0
   39.2660   27.9860   42.8090 C   0  0  0  0  0  0  0  0  0  0  0  0
  1  6  1  0  0  0  0
  2  1  2  0  0  0  0
  2  3  1  0  0  0  0
  3  4  2  0  0  0  0
  4  5  1  0  0  0  0
  5  7  1  0  0  0  0
  6  5  2  0  0  0  0
  7  8  1  0  0  0  0
  7 11  1  0  0  0  0
  8  9  1  0  0  0  0
  8 15  1  0  0  0  0
  9 10  1  0  0  0  0
  9 17  1  0  0  0  0
 10 11  1  0  0  0  0
 10 19  1  0  0  0  0
 11 20  1  6  0  0  0
 11 24  1  0  0  0  0
 12  1  1  0  0  0  0
 13  3  1  0  0  0  0
 14  8  1  0  0  0  0
 16  9  1  0  0  0  0
 18 10  1  0  0  0  0
 21 22  1  0  0  0  0
 21  2  1  0  0  0  0
 23 21  1  0  0  0  0
 24 25  1  0  0  0  0
 25 35  1  0  0  0  0
 26 25  2  0  0  0  0
 27 26  1  0  0  0  0
 28 26  1  0  0  0  0
 28 29  2  0  0  0  0
 29 30  1  0  0  0  0
 30 35  2  0  0  0  0
 30 31  1  0  0  0  0
 31 32  2  0  0  0  0
 32 33  1  0  0  0  0
 34 33  2  0  0  0  0
 35 34  1  0  0  0  0
M  END
>  <minimizedAffinity>
-5.98164415

$$$$

 OpenBabel03252506353D

 35 38  0  0  1  0  0  0  0  0999 V2000
   39.7000   32.3070   39.8080 C   0  0  0  0  0  0  0  0  0  0  0  0
   38.6170   32.7420   40.5900 C   0  0  0  0  0  0  0  0  0  0  0  0
   37.4980   31.9690   40.6600 C   0  0  0  0  0  0  0  0  0  0  0  0
   37.5090   30.8120   39.9570 N   0  0  0  0  0  0  0  0  0  0  0  0
   38.5320   30.4020   39.2180 C   0  0  0  0  0  0  0  0  0  0  0  0
   39.6510   31.1420   39.1280 N   0  0  0  0  0  0  0  0  0  0  0  0
   38.4110   29.1690   38.5310 N   0  0  0  0  0  0  0  0  0  0  0  0
   39.5390   28.4560   37.9190 C   0  0  0  0  0  0  0  0  0  0  0  0
   38.9060   27.9010   36.6600 C   0  0  0  0  0  0  0  0  0  0  0  0
   37.4200   28.0850   36.8000 C   0  0  0  0  0  0  0  0  0  0  0  0
   37.2630   28.3600   38.2710 C   0  0  1  0  0  0  0  0  0  0  0  0
   40.6170   32.8700   39.7080 H   0  0  0  0  0  0  0  0  0  0  0  0
   36.6680   32.3060   41.2630 H   0  0  0  0  0  0  0  0  0  0  0  0
   40.3400   29.1930   37.6870 H   0  0  0  0  0  0  0  0  0  0  0  0
   39.9030   27.6550   38.6020 H   0  0  0  0  0  0  0  0  0  0  0  0
   39.2480   28.5540   35.8130 H   0  0  0  0  0  0  0  0  0  0  0  0
   39.2030   26.8790   36.4210 H   0  0  0  0  0  0  0  0  0  0  0  0
   37.0750   29.0040   36.2490 H   0  0  0  0  0  0  0  0  0  0  0  0
   36.8190   27.2280   36.4810 H   0  0  0  0  0  0  0  0  0  0  0  0
   36.3530   28.9550   38.4950 H   0  0  0  0  0  0  0  0  0  0  0  0
   38.7820   33.9950   41.2680 N   0  0  0  0  0  0  0  0  0  0  0  0
   39.1440   33.7120   42.2070 H   0  0  0  0  0  0  0  0  0  0  0  0
   38.5930   34.9410   40.9170 H   0  0  0  0  0  0  0  0  0  0  0  0
   37.3020   26.7950   39.1810 S   0  0  0  0  0  0  0  0  0  0  0  0
   37.5960   27.0850   40.9060 C   0  0  0  0  0  0  0  0  0  0  0  0
   36.6730   27.9060   41.5620 C   0  0  0  0  0  0  0  0  0  0  0  0
   35.7930   28.3820   41.1160 H   0  0  0  0  0  0  0  0  0  0  0  0
   36.8510   28.1690   42.9190 C   0  0  0  0  0  3  0  0  0  0  0  0
   37.9070   27.6460   43.6270 C   0  0  0  0  0  3  0  0  0  0  0  0
   38.8130   26.8310   42.9530 C   0  0  0  0  0  0  0  0  0  0  0  0
   39.8870   26.2940   43.6570 C   0  0  0  0  0  3  0  0  0  0  0  0
   40.7490   25.4950   42.9270 C   0  0  0  0  0  3  0  0  0  0  0  0
   40.6230   25.1990   41.5810 C   0  0  0  0  0  3  0  0  0  0  0  0
   39.5380   25.7680   40.9660 C   0  0  0  0  0  3  0  0  0  0  0  0
   38.6530   26.5620   41.6220 C   0  0  0  0  0  0  0  0  0  0  0  0
  1  2  1  0  0  0  0
  2  3  2  0  0  0  0
  2 21  1  0  0  0  0
  3 13  1  0  0  0  0
  4  3  1  0  0  0  0
  5  4  2  0  0  0  0
  6  5  1  0  0  0  0
  6  1  2  0  0  0  0
  7  5  1  0  0  0  0
  8  7  1  0  0  0  0
  8 15  1  0  0  0  0
  9 10  1  0  0  0  0
  9  8  1  0  0  0  0
 10 11  1  0  0  0  0
 11 20  1  1  0  0  0
 11  7  1  0  0  0  0
 11 24  1  0  0  0  0
 12  1  1  0  0  0  0
 14  8  1  0  0  0  0
 16  9  1  0  0  0  0
 17  9  1  0  0  0  0
 18 10  1  0  0  0  0
 19 10  1  0  0  0  0
 21 22  1  0  0  0  0
 23 21  1  0  0  0  0
 24 25  1  0  0  0  0
 25 26  2  0  0  0  0
 25 35  1  0  0  0  0
 26 28  1  0  0  0  0
 27 26  1  0  0  0  0
 28 29  2  0  0  0  0
 30 29  1  0  0  0  0
 30 31  1  0  0  0  0
 32 31  2  0  0  0  0
 33 32  1  0  0  0  0
 34 33  2  0  0  0  0
 34 35  1  0  0  0  0
 35 30  2  0  0  0  0
M  END
>  <minimizedAffinity>
-5.9298625

$$$$

 OpenBabel03252506353D

 35 38  0  0  1  0  0  0  0  0999 V2000
   39.2160   33.9560   40.2620 C   0  0  0  0  0  0  0  0  0  0  0  0
   38.0680   33.2260   39.9110 C   0  0  0  0  0  0  0  0  0  0  0  0
   38.0800   31.8700   40.0410 C   0  0  0  0  0  0  0  0  0  0  0  0
   39.2210   31.3100   40.5090 N   0  0  0  0  0  0  0  0  0  0  0  0
   40.3040   32.0010   40.8390 C   0  0  0  0  0  0  0  0  0  0  0  0
   40.3260   33.3400   40.7230 N   0  0  0  0  0  0  0  0  0  0  0  0
   41.4330   31.2890   41.3160 N   0  0  0  0  0  0  0  0  0  0  0  0
   42.5810   31.9180   41.9800 C   0  0  0  0  0  0  0  0  0  0  0  0
   43.7360   31.1030   41.4380 C   0  0  0  0  0  0  0  0  0  0  0  0
   43.1410   29.9030   40.7530 C   0  0  0  0  0  0  0  0  0  0  0  0
   41.7320   29.8920   41.2820 C   0  0  1  0  0  0  0  0  0  0  0  0
   39.2750   35.0310   40.1840 H   0  0  0  0  0  0  0  0  0  0  0  0
   37.1950   31.3120   39.7710 H   0  0  0  0  0  0  0  0  0  0  0  0
   42.6380   32.9810   41.6550 H   0  0  0  0  0  0  0  0  0  0  0  0
   42.4800   31.8320   43.0860 H   0  0  0  0  0  0  0  0  0  0  0  0
   44.2300   31.7300   40.6490 H   0  0  0  0  0  0  0  0  0  0  0  0
   44.4980   30.8550   42.1790 H   0  0  0  0  0  0  0  0  0  0  0  0
   43.0810   30.0640   39.6410 H   0  0  0  0  0  0  0  0  0  0  0  0
   43.6560   28.9590   40.9520 H   0  0  0  0  0  0  0  0  0  0  0  0
   41.0240   29.3960   40.5860 H   0  0  0  0  0  0  0  0  0  0  0  0
   36.9490   33.9860   39.4340 N   0  0  0  0  0  0  0  0  0  0  0  0
   36.3880   34.1520   40.3000 H   0  0  0  0  0  0  0  0  0  0  0  0
   36.7490   34.2930   38.4750 H   0  0  0  0  0  0  0  0  0  0  0  0
   41.7150   29.1430   42.9290 S   0  0  0  0  0  0  0  0  0  0  0  0
   40.7400   27.6600   42.9290 C   0  0  0  0  0  0  0  0  0  0  0  0
   41.4490   26.4540   42.9290 C   0  0  0  0  0  0  0  0  0  0  0  0
   42.5390   26.3390   42.9300 H   0  0  0  0  0  0  0  0  0  0  0  0
   40.7370   25.2560   42.9300 C   0  0  0  0  0  3  0  0  0  0  0  0
   39.3630   25.2280   42.9300 C   0  0  0  0  0  3  0  0  0  0  0  0
   38.6790   26.4410   42.9300 C   0  0  0  0  0  0  0  0  0  0  0  0
   37.2870   26.4280   42.9300 C   0  0  0  0  0  3  0  0  0  0  0  0
   36.6720   27.6680   42.9300 C   0  0  0  0  0  3  0  0  0  0  0  0
   37.3240   28.8880   42.9290 C   0  0  0  0  0  3  0  0  0  0  0  0
   38.6930   28.8080   42.9290 C   0  0  0  0  0  3  0  0  0  0  0  0
   39.3620   27.6260   42.9290 C   0  0  0  0  0  0  0  0  0  0  0  0
  1  6  1  0  0  0  0
  2  3  1  0  0  0  0
  2  1  2  0  0  0  0
  3  4  2  0  0  0  0
  4  5  1  0  0  0  0
  5  7  1  0  0  0  0
  6  5  2  0  0  0  0
  7  8  1  0  0  0  0
  8 15  1  0  0  0  0
  9  8  1  0  0  0  0
  9 17  1  0  0  0  0
 10 19  1  0  0  0  0
 10 11  1  0  0  0  0
 10  9  1  0  0  0  0
 11 20  1  6  0  0  0
 11  7  1  0  0  0  0
 11 24  1  0  0  0  0
 12  1  1  0  0  0  0
 13  3  1  0  0  0  0
 14  8  1  0  0  0  0
 16  9  1  0  0  0  0
 18 10  1  0  0  0  0
 21  2  1  0  0  0  0
 21 22  1  0  0  0  0
 23 21  1  0  0  0  0
 24 25  1  0  0  0  0
 25 26  1  0  0  0  0
 26 27  1  0  0  0  0
 26 28  2  0  0  0  0
 29 28  1  0  0  0  0
 30 29  2  0  0  0  0
 31 30  1  0  0  0  0
 32 31  2  0  0  0  0
 33 32  1  0  0  0  0
 34 33  2  0  0  0  0
 35 25  2  0  0  0  0
 35 34  1  0  0  0  0
 35 30  1  0  0  0  0
M  END
>  <minimizedAffinity>
-5.90828657

$$$$

 OpenBabel03252506353D

 35 38  0  0  1  0  0  0  0  0999 V2000
   41.2300   29.5610   37.4530 C   0  0  0  0  0  0  0  0  0  0  0  0
   41.9510   28.9190   38.4740 C   0  0  0  0  0  0  0  0  0  0  0  0
   41.5060   29.0130   39.7580 C   0  0  0  0  0  0  0  0  0  0  0  0
   40.3780   29.7340   39.9640 N   0  0  0  0  0  0  0  0  0  0  0  0
   39.6990   30.3400   38.9980 C   0  0  0  0  0  0  0  0  0  0  0  0
   40.1100   30.2660   37.7200 N   0  0  0  0  0  0  0  0  0  0  0  0
   38.5330   31.0620   39.3510 N   0  0  0  0  0  0  0  0  0  0  0  0
   37.5340   31.5350   38.3840 C   0  0  0  0  0  0  0  0  0  0  0  0
   37.1510   32.8780   38.9700 C   0  0  0  0  0  0  0  0  0  0  0  0
   37.7270   32.9320   40.3570 C   0  0  0  0  0  0  0  0  0  0  0  0
   38.0560   31.4890   40.6290 C   0  0  1  0  0  0  0  0  0  0  0  0
   41.5260   29.5270   36.4150 H   0  0  0  0  0  0  0  0  0  0  0  0
   42.0620   28.5180   40.5410 H   0  0  0  0  0  0  0  0  0  0  0  0
   38.0270   31.6440   37.3920 H   0  0  0  0  0  0  0  0  0  0  0  0
   36.6760   30.8280   38.3410 H   0  0  0  0  0  0  0  0  0  0  0  0
   37.6750   33.6590   38.3560 H   0  0  0  0  0  0  0  0  0  0  0  0
   36.0830   33.0980   38.9270 H   0  0  0  0  0  0  0  0  0  0  0  0
   38.6960   33.5040   40.3680 H   0  0  0  0  0  0  0  0  0  0  0  0
   37.0580   33.3450   41.1180 H   0  0  0  0  0  0  0  0  0  0  0  0
   38.8760   31.3740   41.3690 H   0  0  0  0  0  0  0  0  0  0  0  0
   43.1240   28.1990   38.0720 N   0  0  0  0  0  0  0  0  0  0  0  0
   42.7680   27.2270   37.9270 H   0  0  0  0  0  0  0  0  0  0  0  0
   44.0810   28.5520   37.9540 H   0  0  0  0  0  0  0  0  0  0  0  0
   36.5520   30.6150   41.1300 S   0  0  0  0  0  0  0  0  0  0  0  0
   36.9420   28.9820   41.7050 C   0  0  0  0  0  0  0  0  0  0  0  0
   37.4200   28.8850   43.0150 C   0  0  0  0  0  0  0  0  0  0  0  0
   37.5760   29.7150   43.7150 H   0  0  0  0  0  0  0  0  0  0  0  0
   37.7430   27.6280   43.5230 C   0  0  0  0  0  3  0  0  0  0  0  0
   37.6040   26.4850   42.7720 C   0  0  0  0  0  3  0  0  0  0  0  0
   37.1260   26.6060   41.4700 C   0  0  0  0  0  0  0  0  0  0  0  0
   36.9800   25.4570   40.6980 C   0  0  0  0  0  3  0  0  0  0  0  0
   36.5000   25.6490   39.4140 C   0  0  0  0  0  3  0  0  0  0  0  0
   36.1640   26.8700   38.8570 C   0  0  0  0  0  3  0  0  0  0  0  0
   36.3380   27.9480   39.6860 C   0  0  0  0  0  3  0  0  0  0  0  0
   36.8040   27.8320   40.9560 C   0  0  0  0  0  0  0  0  0  0  0  0
  1  6  2  0  0  0  0
  1  2  1  0  0  0  0
  2  3  2  0  0  0  0
  3  4  1  0  0  0  0
  3 13  1  0  0  0  0
  5  7  1  0  0  0  0
  5  4  2  0  0  0  0
  6  5  1  0  0  0  0
  7 11  1  0  0  0  0
  8  9  1  0  0  0  0
  8  7  1  0  0  0  0
  9 10  1  0  0  0  0
 10 18  1  0  0  0  0
 10 11  1  0  0  0  0
 10 19  1  0  0  0  0
 11 24  1  0  0  0  0
 11 20  1  1  0  0  0
 12  1  1  0  0  0  0
 14  8  1  0  0  0  0
 15  8  1  0  0  0  0
 16  9  1  0  0  0  0
 17  9  1  0  0  0  0
 21  2  1  0  0  0  0
 22 21  1  0  0  0  0
 23 21  1  0  0  0  0
 24 25  1  0  0  0  0
 25 26  1  0  0  0  0
 26 28  2  0  0  0  0
 26 27  1  0  0  0  0
 29 28  1  0  0  0  0
 30 29  2  0  0  0  0
 31 30  1  0  0  0  0
 32 31  2  0  0  0  0
 33 32  1  0  0  0  0
 33 34  2  0  0  0  0
 34 35  1  0  0  0  0
 35 30  1  0  0  0  0
 35 25  2  0  0  0  0
M  END
>  <minimizedAffinity>
-5.88729095

$$$$
