
 OpenBabel03252504303D

 35 37  0  0  0  0  0  0  0  0999 V2000
   45.2770   35.9060   43.0690 C   0  0  0  0  0  0  0  0  0  0  0  0
   46.0130   35.2800   42.5550 H   0  0  0  0  0  0  0  0  0  0  0  0
   45.5890   36.9580   43.1920 H   0  0  0  0  0  0  0  0  0  0  0  0
   43.8930   35.1220   41.0950 C   0  0  0  0  0  3  0  0  0  0  0  0
   44.0300   35.8460   42.2120 C   0  0  0  0  0  3  0  0  0  0  0  0
   42.6680   35.1870   40.4460 O   0  0  0  0  0  0  0  0  0  0  0  0
   41.4690   35.6390   40.9420 C   0  0  0  0  0  0  0  0  0  0  0  0
   41.5790   35.6270   42.0760 H   0  0  0  0  0  0  0  0  0  0  0  0
   41.1810   36.6690   40.6880 H   0  0  0  0  0  0  0  0  0  0  0  0
   40.3940   33.5580   41.5320 C   0  0  0  0  0  0  0  0  0  0  0  0
   40.3420   34.6980   40.7110 C   0  0  0  0  0  0  0  0  0  0  0  0
   39.3040   34.8240   39.8390 C   0  0  0  0  0  0  0  0  0  0  0  0
   38.3930   33.8290   39.8320 N   0  0  0  0  0  0  0  0  0  0  0  0
   38.4310   32.7500   40.6010 C   0  0  0  0  0  0  0  0  0  0  0  0
   39.4630   32.5660   41.5080 N   0  0  0  0  0  0  0  0  0  0  0  0
   41.1670   33.3460   42.2630 H   0  0  0  0  0  0  0  0  0  0  0  0
   39.3220   35.7040   39.2480 H   0  0  0  0  0  0  0  0  0  0  0  0
   37.6630   31.9900   40.5420 H   0  0  0  0  0  0  0  0  0  0  0  0
   44.9750   35.3260   44.2740 O   0  0  0  0  0  0  0  0  0  0  0  0
   45.1070   32.7590   43.5960 O   0  0  0  0  0  0  0  0  0  0  0  0
   45.7410   33.8020   44.4600 P   0  0  1  0  0  0  0  0  0  0  0  0
   47.3800   33.9770   43.9950 O   0  0  0  0  0  0  0  0  0  0  0  0
   47.7360   34.7420   44.5320 H   0  0  0  0  0  0  0  0  0  0  0  0
   45.7300   33.3960   46.0660 O   0  0  0  0  0  0  0  0  0  0  0  0
   46.0480   32.4050   46.8430 C   0  0  0  0  0  0  0  0  0  0  0  0
   45.3850   32.6770   48.0650 C   0  0  0  0  0  0  0  0  0  0  0  0
   44.7330   33.5080   48.3760 H   0  0  0  0  0  0  0  0  0  0  0  0
   45.4600   31.8510   49.1870 C   0  0  0  0  0  3  0  0  0  0  0  0
   46.2370   30.7000   49.0720 C   0  0  0  0  0  3  0  0  0  0  0  0
   46.9110   30.3680   47.9200 C   0  0  0  0  0  0  0  0  0  0  0  0
   47.6960   29.2520   47.7300 C   0  0  0  0  0  3  0  0  0  0  0  0
   48.3420   28.9880   46.5370 C   0  0  0  0  0  3  0  0  0  0  0  0
   48.1800   29.9040   45.4900 C   0  0  0  0  0  3  0  0  0  0  0  0
   47.3950   31.0100   45.6990 C   0  0  0  0  0  3  0  0  0  0  0  0
   46.7660   31.2440   46.8940 C   0  0  0  0  0  0  0  0  0  0  0  0
  1  3  1  0  0  0  0
  1 19  1  0  0  0  0
  2  1  1  0  0  0  0
  4  5  2  0  0  0  0
  5  1  1  0  0  0  0
  6  7  1  0  0  0  0
  6  4  1  0  0  0  0
  7  8  1  0  0  0  0
  9  7  1  0  0  0  0
 10 16  1  0  0  0  0
 11  7  1  0  0  0  0
 11 10  2  0  0  0  0
 12 11  1  0  0  0  0
 13 12  2  0  0  0  0
 13 14  1  0  0  0  0
 14 15  2  0  0  0  0
 15 10  1  0  0  0  0
 17 12  1  0  0  0  0
 18 14  1  0  0  0  0
 19 21  1  0  0  0  0
 21 20  2  6  0  0  0
 21 24  1  0  0  0  0
 22 21  1  0  0  0  0
 22 23  1  0  0  0  0
 24 25  1  0  0  0  0
 25 35  2  0  0  0  0
 25 26  1  0  0  0  0
 26 27  1  0  0  0  0
 26 28  2  0  0  0  0
 29 28  1  0  0  0  0
 30 29  2  0  0  0  0
 31 30  1  0  0  0  0
 32 31  2  0  0  0  0
 33 34  2  0  0  0  0
 33 32  1  0  0  0  0
 34 35  1  0  0  0  0
 35 30  1  0  0  0  0
M  END
>  <minimizedAffinity>
-5.9867425

>  <minimizedRMSD>
1.47553921

$$$$
