
 OpenBabel03242513543D

 21 23  0  0  0  0  0  0  0  0999 V2000
   46.5440   33.4860   44.7030 C   0  0  0  0  0  0  0  0  0  0  0  0
   45.3960   34.1810   44.9670 C   0  0  0  0  0  0  0  0  0  0  0  0
   44.8830   33.8600   45.8710 H   0  0  0  0  0  0  0  0  0  0  0  0
   44.9600   35.1910   44.1360 C   0  0  0  0  0  0  0  0  0  0  0  0
   45.6620   35.5360   43.0160 C   0  0  0  0  0  0  0  0  0  0  0  0
   46.8210   34.8500   42.7300 C   0  0  0  0  0  0  0  0  0  0  0  0
   47.4840   35.2510   41.5790 C   0  0  0  0  0  0  0  0  0  0  0  0
   48.6500   34.5860   41.2610 C   0  0  0  0  0  0  0  0  0  0  0  0
   49.1370   33.5670   42.0520 C   0  0  0  0  0  0  0  0  0  0  0  0
   48.4340   33.2130   43.1850 C   0  0  0  0  0  0  0  0  0  0  0  0
   47.2600   33.8380   43.5610 C   0  0  0  0  0  0  0  0  0  0  0  0
   47.1190   32.4560   45.4230 O   0  0  0  0  0  0  0  0  0  0  0  0
   46.9750   32.3860   47.8580 C   0  0  0  0  0  0  0  0  0  0  0  0
   46.6260   31.9160   46.5860 C   0  0  0  0  0  0  0  0  0  0  0  0
   45.7300   30.8470   46.5600 C   0  0  0  0  0  0  0  0  0  0  0  0
   45.2600   30.3370   47.7180 N   0  0  0  0  0  0  0  0  0  0  0  0
   45.6280   30.8250   48.9320 C   0  0  0  0  0  0  0  0  0  0  0  0
   46.4920   31.8570   48.9970 N   0  0  0  0  0  0  0  0  0  0  0  0
   47.6670   33.2150   47.9410 H   0  0  0  0  0  0  0  0  0  0  0  0
   45.4380   30.4580   45.5920 H   0  0  0  0  0  0  0  0  0  0  0  0
   45.1230   30.2550   49.6990 H   0  0  0  0  0  0  0  0  0  0  0  0
  1  2  1  0  0  0  0
  1 12  1  0  0  0  0
  2  3  1  0  0  0  0
  4  2  2  0  0  0  0
  5  4  1  0  0  0  0
  6  5  2  0  0  0  0
  6 11  1  0  0  0  0
  7  6  1  0  0  0  0
  8  7  2  0  0  0  0
  8  9  1  0  0  0  0
  9 10  2  0  0  0  0
 10 11  1  0  0  0  0
 11  1  2  0  0  0  0
 12 14  1  0  0  0  0
 13 19  1  0  0  0  0
 13 18  1  0  0  0  0
 14 13  2  0  0  0  0
 15 14  1  0  0  0  0
 15 16  2  0  0  0  0
 16 17  1  0  0  0  0
 17 18  2  0  0  0  0
 17 21  1  0  0  0  0
 20 15  1  0  0  0  0
M  END
>  <minimizedAffinity>
-5.44198465

>  <minimizedRMSD>
4.88904953

$$$$
