
     RDKit          3D

 37 40  0  0  0  0  0  0  0  0999 V2000
   46.2620   34.7518   43.2420 C   0  0  0  0  0  0  0  0  0  0  0  0
   45.2976   35.7458   43.5900 C   0  0  0  0  0  0  0  0  0  0  0  0
   44.6557   35.5672   44.8108 C   0  0  0  0  0  0  0  0  0  0  0  0
   44.9726   34.4955   45.5740 N   0  0  0  0  0  0  0  0  0  0  0  0
   45.9141   33.5762   45.1730 C   0  0  0  0  0  0  0  0  0  0  0  0
   46.5577   33.6876   44.0281 N   0  0  0  0  0  0  0  0  0  0  0  0
   46.2155   32.4305   46.0819 C   0  0  1  0  0  0  0  0  0  0  0  0
   47.0366   32.6777   47.3257 C   0  0  0  0  0  0  0  0  0  0  0  0
   45.5435   32.5039   47.3966 C   0  0  1  0  0  0  0  0  0  0  0  0
   44.8685   33.7164   47.8006 N   0  0  0  0  0  0  0  0  0  0  0  0
   46.9302   34.9576   41.9729 C   0  0  0  0  0  0  0  0  0  0  0  0
   48.0812   35.5099   41.8725 O   0  0  0  0  0  0  0  0  0  0  0  0
   45.1121   36.5680   42.9137 H   0  0  0  0  0  0  0  0  0  0  0  0
   43.9169   36.2946   45.1174 H   0  0  0  0  0  0  0  0  0  0  0  0
   46.3044   31.4414   45.5966 H   0  0  0  0  0  0  0  0  0  0  0  0
   47.4907   33.6763   47.3761 H   0  0  0  0  0  0  0  0  0  0  0  0
   47.6394   31.8090   47.6526 H   0  0  0  0  0  0  0  0  0  0  0  0
   45.1768   31.5889   47.9231 H   0  0  0  0  0  0  0  0  0  0  0  0
   43.8730   33.7695   47.6394 H   0  0  0  0  0  0  0  0  0  0  0  0
   45.4332   34.5465   47.9112 H   0  0  0  0  0  0  0  0  0  0  0  0
   46.0894   34.4455   40.8964 C   0  0  0  0  0  0  0  0  0  0  0  0
   44.8612   33.8479   41.1294 C   0  0  0  0  0  0  0  0  0  0  0  0
   44.5103   33.7626   42.1576 H   0  0  0  0  0  0  0  0  0  0  0  0
   44.0323   33.3433   40.1496 C   0  0  0  0  0  0  0  0  0  0  0  0
   44.4287   33.4267   38.8432 C   0  0  0  0  0  0  0  0  0  0  0  0
   45.6412   34.0100   38.5360 C   0  0  0  0  0  0  0  0  0  0  0  0
   46.0719   34.1105   37.2112 C   0  0  0  0  0  0  0  0  0  0  0  0
   47.2696   34.6856   36.8783 C   0  0  0  0  0  0  0  0  0  0  0  0
   48.0861   35.1874   37.8937 C   0  0  0  0  0  0  0  0  0  0  0  0
   47.6224   35.0678   39.1917 C   0  0  0  0  0  0  0  0  0  0  0  0
   46.4254   34.4960   39.5604 C   0  0  0  0  0  0  0  0  0  0  0  0
   43.0901   32.8936   40.4281 H   0  0  0  0  0  0  0  0  0  0  0  0
   43.8043   33.0421   38.0553 H   0  0  0  0  0  0  0  0  0  0  0  0
   45.4360   33.7203   36.4265 H   0  0  0  0  0  0  0  0  0  0  0  0
   47.6104   34.7671   35.8537 H   0  0  0  0  0  0  0  0  0  0  0  0
   49.0221   35.6374   37.6409 H   0  0  0  0  0  0  0  0  0  0  0  0
   48.2983   35.4755   39.9246 H   0  0  0  0  0  0  0  0  0  0  0  0
  1  2  2  0
  1  6  1  0
  2  3  1  0
  3  4  2  0
  5  4  1  0
  5  7  1  0
  6  5  2  0
  7  8  1  0
  7  9  1  0
  8  9  1  0
  9 10  1  0
 11  1  1  0
 12 11  2  0
  2 13  1  0
  3 14  1  0
  7 15  1  6
  8 16  1  0
  8 17  1  0
  9 18  1  1
 10 19  1  0
 10 20  1  0
 21 22  2  0
 22 23  1  0
 22 24  1  0
 24 25  2  0
 25 26  1  0
 26 27  2  0
 27 28  1  0
 28 29  2  0
 29 30  1  0
 30 31  2  0
 31 21  1  0
 31 26  1  0
 24 32  1  0
 25 33  1  0
 27 34  1  0
 28 35  1  0
 29 36  1  0
 30 37  1  0
 11 21  1  0
M  ISO  8  13  14  14  14  15  13  16  13  17  13  18  13  19   5  20   5
M  ISO  1  23  15
M  END
>  <DihAtoms>  (1) 
0,10,20,21

>  <DihDeg>  (1) 
-45.9037506189624

$$$$
