REMARK  Name = 
REMARK  4 active torsions:
REMARK  status: ('A' for Active; 'I' for Inactive)
REMARK    1  A    between atoms: C_1  and  C_9
REMARK    2  A    between atoms: C_6  and  C_13
REMARK    3  A    between atoms: C_17  and  C_19
REMARK    4  A    between atoms: C_19  and  C_37
REMARK                            x       y       z     vdW  Elec       q    Type
REMARK                         _______ _______ _______ _____ _____    ______ ____
ROOT
ATOM      1  C   UNL     1      47.877  32.926  41.826  0.00  0.00    +0.000 C 
ATOM      2  C   UNL     1      47.572  32.184  40.599  0.00  0.00    +0.000 C 
ATOM      3  C   UNL     1      48.592  32.633  39.556  0.00  0.00    +0.000 C 
ATOM      4  C   UNL     1      48.242  34.065  39.199  0.00  0.00    +0.000 C 
ATOM      5  C   UNL     1      48.157  34.982  40.387  0.00  0.00    +0.000 C 
ATOM      6  C   UNL     1      47.657  34.432  41.652  0.00  0.00    +0.000 C 
ATOM      7  H   UNL     1      48.992  32.867  42.013  0.00  0.00    +0.000 HD
ATOM      8  H   UNL     1      47.750  31.100  40.775  0.00  0.00    +0.000 HD
ATOM      9  H   UNL     1      46.565  32.350  40.184  0.00  0.00    +0.000 HD
ATOM     10  H   UNL     1      48.524  32.045  38.637  0.00  0.00    +0.000 HD
ATOM     11  H   UNL     1      49.599  32.621  40.027  0.00  0.00    +0.000 HD
ATOM     12  H   UNL     1      47.236  34.063  38.714  0.00  0.00    +0.000 HD
ATOM     13  H   UNL     1      49.015  34.428  38.496  0.00  0.00    +0.000 HD
ATOM     14  H   UNL     1      49.181  35.427  40.515  0.00  0.00    +0.000 HD
ATOM     15  H   UNL     1      47.508  35.843  40.078  0.00  0.00    +0.000 HD
ATOM     16  H   UNL     1      48.243  34.898  42.499  0.00  0.00    +0.000 HD
ENDROOT
BRANCH   1  19
ATOM     17  C   UNL     1      45.471  31.093  44.101  0.00  0.00    +0.000 A 
ATOM     18  C   UNL     1      46.154  31.567  42.978  0.00  0.00    +0.000 A 
ATOM     19  C   UNL     1      47.219  32.471  43.033  0.00  0.00    +0.000 A 
ATOM     20  N   UNL     1      47.567  32.880  44.261  0.00  0.00    +0.000 NA
ATOM     21  C   UNL     1      46.911  32.428  45.366  0.00  0.00    +0.000 A 
ATOM     22  N   UNL     1      45.900  31.568  45.301  0.00  0.00    +0.000 NA
ATOM     23  H   UNL     1      44.666  30.399  43.947  0.00  0.00    +0.000 HD
ATOM     24  H   UNL     1      45.859  31.226  41.994  0.00  0.00    +0.000 HD
ATOM     25  H   UNL     1      47.175  32.744  46.367  0.00  0.00    +0.000 HD
ENDBRANCH   1  19
BRANCH   6  26
ATOM     26  C   UNL     1      46.270  34.811  41.923  0.00  0.00    +0.000 A 
ATOM     27  C   UNL     1      45.805  35.494  43.048  0.00  0.00    +0.000 A 
ATOM     28  C   UNL     1      44.439  35.764  43.084  0.00  0.00    +0.000 A 
ATOM     29  C   UNL     1      43.665  35.342  42.023  0.00  0.00    +0.000 A 
ATOM     30  C   UNL     1      44.143  34.664  40.912  0.00  0.00    +0.000 A 
ATOM     31  N   UNL     1      45.476  34.409  40.893  0.00  0.00    +0.000 NA
ATOM     32  H   UNL     1      46.525  35.748  43.775  0.00  0.00    +0.000 HD
ATOM     33  H   UNL     1      44.069  36.282  43.932  0.00  0.00    +0.000 HD
ATOM     34  H   UNL     1      42.602  35.560  42.066  0.00  0.00    +0.000 HD
BRANCH  30  35
ATOM     35  C   UNL     1      43.237  34.260  39.845  0.00  0.00    +0.000 C 
ATOM     36  O   UNL     1      42.374  35.072  39.453  0.00  0.00    +0.000 OA
BRANCH  35  37
ATOM     37  C   UNL     1      43.088  33.041  39.070  0.00  0.00    +0.000 A 
ATOM     38  C   UNL     1      43.973  31.987  39.123  0.00  0.00    +0.000 A 
ATOM     39  H   UNL     1      44.816  32.028  39.778  0.00  0.00    +0.000 HD
ATOM     40  C   UNL     1      43.892  30.829  38.377  0.00  0.00    +0.000 A 
ATOM     41  C   UNL     1      42.837  30.706  37.497  0.00  0.00    +0.000 A 
ATOM     42  C   UNL     1      41.912  31.723  37.391  0.00  0.00    +0.000 A 
ATOM     43  C   UNL     1      40.889  31.540  36.510  0.00  0.00    +0.000 A 
ATOM     44  C   UNL     1      39.920  32.510  36.356  0.00  0.00    +0.000 A 
ATOM     45  C   UNL     1      40.023  33.673  37.125  0.00  0.00    +0.000 A 
ATOM     46  C   UNL     1      41.080  33.796  37.994  0.00  0.00    +0.000 A 
ATOM     47  C   UNL     1      42.062  32.849  38.170  0.00  0.00    +0.000 A 
ENDBRANCH  35  37
ENDBRANCH  30  35
ENDBRANCH   6  26
TORSDOF 4
