REMARK  Name = 
REMARK  7 active torsions:
REMARK  status: ('A' for Active; 'I' for Inactive)
REMARK    1  A    between atoms: C_3  and  C_12
REMARK    2  A    between atoms: C_7  and  O_15
REMARK    3  A    between atoms: C_8  and  N_14
REMARK    4  A    between atoms: O_15  and  P_17
REMARK    5  A    between atoms: P_17  and  O_18
REMARK    6  A    between atoms: P_17  and  O_19
REMARK    7  A    between atoms: O_19  and  C_28
REMARK                            x       y       z     vdW  Elec       q    Type
REMARK                         _______ _______ _______ _____ _____    ______ ____
ROOT
ATOM      1  F   UNL     1      45.139  33.498  41.158  0.00  0.00    +0.000 F 
ATOM      2  C   UNL     1      46.333  34.086  41.049  0.00  0.00    +0.000 A 
ATOM      3  C   UNL     1      46.841  34.806  42.120  0.00  0.00    +0.000 A 
ATOM      4  C   UNL     1      48.076  35.441  42.082  0.00  0.00    +0.000 A 
ATOM      5  C   UNL     1      48.852  35.361  40.928  0.00  0.00    +0.000 A 
ATOM      6  C   UNL     1      48.313  34.635  39.883  0.00  0.00    +0.000 A 
ATOM      7  C   UNL     1      47.107  34.007  39.899  0.00  0.00    +0.000 A 
ATOM      8  H   UNL     1      48.404  35.990  42.971  0.00  0.00    +0.000 HD
ATOM      9  H   UNL     1      49.787  35.869  40.965  0.00  0.00    +0.000 HD
ATOM     10  H   UNL     1      49.019  34.648  39.059  0.00  0.00    +0.000 HD
ENDROOT
BRANCH   3  15
ATOM     11  C   UNL     1      45.447  34.023  45.425  0.00  0.00    +0.000 A 
ATOM     12  C   UNL     1      44.601  35.130  45.652  0.00  0.00    +0.000 A 
ATOM     13  C   UNL     1      44.514  36.140  44.667  0.00  0.00    +0.000 A 
ATOM     14  N   UNL     1      45.271  35.971  43.541  0.00  0.00    +0.000 NA
ATOM     15  C   UNL     1      46.060  34.914  43.357  0.00  0.00    +0.000 A 
ATOM     16  N   UNL     1      46.147  33.950  44.290  0.00  0.00    +0.000 NA
ATOM     17  H   UNL     1      44.018  35.224  46.559  0.00  0.00    +0.000 HD
ATOM     18  H   UNL     1      43.874  36.999  44.814  0.00  0.00    +0.000 HD
BRANCH  11  19
ATOM     19  N   UNL     1      45.530  33.010  46.415  0.00  0.00    +0.000 N 
ATOM     20  H   UNL     1      46.290  33.232  47.092  0.00  0.00    +0.000 HD
ATOM     21  H   UNL     1      44.986  32.134  46.566  0.00  0.00    +0.000 HD
ENDBRANCH  11  19
ENDBRANCH   3  15
BRANCH   7  22
ATOM     22  O   UNL     1      46.670  33.315  38.802  0.00  0.00    +0.000 OA
BRANCH  22  24
ATOM     23  O   UNL     1      48.082  34.654  36.997  0.00  0.00    +0.000 OA
ATOM     24  P   UNL     1      47.338  33.386  37.256  0.00  0.00    +0.000 P 
BRANCH  24  25
ATOM     25  O   UNL     1      46.065  33.205  36.123  0.00  0.00    +0.000 OA
ATOM     26  H   UNL     1      45.877  34.119  35.781  0.00  0.00    +0.000 HD
ENDBRANCH  24  25
BRANCH  24  27
ATOM     27  O   UNL     1      48.356  32.072  36.932  0.00  0.00    +0.000 OA
BRANCH  27  28
ATOM     28  C   UNL     1      48.775  31.655  35.699  0.00  0.00    +0.000 A 
ATOM     29  C   UNL     1      49.359  30.414  35.438  0.00  0.00    +0.000 A 
ATOM     30  H   UNL     1      49.488  29.744  36.254  0.00  0.00    +0.000 HD
ATOM     31  C   UNL     1      49.771  30.029  34.175  0.00  0.00    +0.000 A 
ATOM     32  C   UNL     1      49.599  30.906  33.127  0.00  0.00    +0.000 A 
ATOM     33  C   UNL     1      49.029  32.133  33.345  0.00  0.00    +0.000 A 
ATOM     34  C   UNL     1      48.889  32.958  32.242  0.00  0.00    +0.000 A 
ATOM     35  C   UNL     1      48.318  34.218  32.395  0.00  0.00    +0.000 A 
ATOM     36  C   UNL     1      47.905  34.609  33.651  0.00  0.00    +0.000 A 
ATOM     37  C   UNL     1      48.048  33.782  34.741  0.00  0.00    +0.000 A 
ATOM     38  C   UNL     1      48.612  32.526  34.618  0.00  0.00    +0.000 A 
ENDBRANCH  27  28
ENDBRANCH  24  27
ENDBRANCH  22  24
ENDBRANCH   7  22
TORSDOF 7
