
 OpenBabel03252503323D

 43 46  0  0  1  0  0  0  0  0999 V2000
   45.2610   33.7290   41.7990 C   0  0  0  0  0  0  0  0  0  0  0  0
   46.2820   34.6720   41.4480 C   0  0  0  0  0  0  0  0  0  0  0  0
   47.6020   34.2570   41.7050 C   0  0  0  0  0  0  0  0  0  0  0  0
   47.7960   33.0340   42.2470 N   0  0  0  0  0  0  0  0  0  0  0  0
   46.7890   32.1900   42.5570 C   0  0  0  0  0  0  0  0  0  0  0  0
   45.5160   32.5560   42.3230 N   0  0  0  0  0  0  0  0  0  0  0  0
   43.5430   33.9960   40.2140 C   0  0  0  0  0  0  0  0  0  0  0  0
   44.4540   33.6920   39.3740 O   0  0  0  0  0  0  0  0  0  0  0  0
   43.8900   34.0680   41.5720 N   0  0  0  0  0  0  0  0  0  0  0  0
   42.2460   34.2380   39.7130 N   0  0  0  0  0  0  0  0  0  0  0  0
   42.0560   34.4530   38.2650 C   0  0  0  0  0  0  0  0  0  0  0  0
   40.8780   35.3760   38.2310 C   0  0  0  0  0  0  0  0  0  0  0  0
   40.4350   35.5390   39.6570 C   0  0  0  0  0  0  0  0  0  0  0  0
   40.9620   34.3030   40.3460 C   0  0  1  0  0  0  0  0  0  0  0  0
   46.0070   35.6320   41.0150 H   0  0  0  0  0  0  0  0  0  0  0  0
   47.0190   31.2240   42.9900 H   0  0  0  0  0  0  0  0  0  0  0  0
   43.1620   34.3450   42.2490 H   0  0  0  0  0  0  0  0  0  0  0  0
   42.9220   34.9760   37.8170 H   0  0  0  0  0  0  0  0  0  0  0  0
   41.8920   33.4980   37.7360 H   0  0  0  0  0  0  0  0  0  0  0  0
   40.0590   34.8160   37.7070 H   0  0  0  0  0  0  0  0  0  0  0  0
   41.0670   36.3250   37.6960 H   0  0  0  0  0  0  0  0  0  0  0  0
   39.5270   35.9880   39.8870 H   0  0  0  0  0  0  0  0  0  0  0  0
   41.1970   36.3090   40.0340 H   0  0  0  0  0  0  0  0  0  0  0  0
   40.9430   34.4720   41.4280 H   0  0  0  0  0  0  0  0  0  0  0  0
   38.7710   32.9760   40.1170 C   0  0  0  0  0  0  0  0  0  0  0  0
   38.2610   34.1190   40.1390 O   0  0  0  0  0  0  0  0  0  0  0  0
   40.2190   33.0830   40.0710 N   0  0  0  0  0  0  0  0  0  0  0  0
   40.8090   32.2270   39.8250 H   0  0  0  0  0  0  0  0  0  0  0  0
   38.2930   31.5780   40.1240 C   0  0  0  0  0  0  0  0  0  0  0  0
   37.8500   31.0960   41.3380 C   0  0  0  0  0  0  0  0  0  0  0  0
   37.8460   31.7030   42.2350 H   0  0  0  0  0  0  0  0  0  0  0  0
   37.4040   29.7680   41.3460 C   0  0  0  0  0  0  0  0  0  0  0  0
   37.4130   28.9910   40.1830 C   0  0  0  0  0  0  0  0  0  0  0  0
   37.8810   29.5810   39.0130 C   0  0  0  0  0  0  0  0  0  0  0  0
   37.8730   28.7720   37.8900 C   0  0  0  0  0  0  0  0  0  0  0  0
   38.3270   29.2820   36.6700 C   0  0  0  0  0  0  0  0  0  0  0  0
   38.7640   30.5800   36.6580 C   0  0  0  0  0  0  0  0  0  0  0  0
   38.7950   31.4340   37.7590 C   0  0  0  0  0  0  0  0  0  0  0  0
   38.3330   30.8780   38.9440 C   0  0  0  0  0  0  0  0  0  0  0  0
   48.6260   35.2360   41.3380 C   0  0  0  0  0  0  0  0  0  0  0  0
   49.8680   34.7490   41.7580 F   0  0  0  0  0  0  0  0  0  0  0  0
   48.4070   36.3700   42.1080 F   0  0  0  0  0  0  0  0  0  0  0  0
   48.6980   35.4820   40.0010 F   0  0  0  0  0  0  0  0  0  0  0  0
  1  6  1  0  0  0  0
  2  3  1  0  0  0  0
  2  1  2  0  0  0  0
  3  4  2  0  0  0  0
  4  5  1  0  0  0  0
  5 16  1  0  0  0  0
  6  5  2  0  0  0  0
  7  9  1  0  0  0  0
  8  7  2  0  0  0  0
  9  1  1  0  0  0  0
  9 17  1  0  0  0  0
 10  7  1  0  0  0  0
 10 14  1  0  0  0  0
 11 10  1  0  0  0  0
 12 11  1  0  0  0  0
 12 13  1  0  0  0  0
 13 22  1  0  0  0  0
 13 23  1  0  0  0  0
 13 14  1  0  0  0  0
 14 24  1  1  0  0  0
 15  2  1  0  0  0  0
 18 11  1  0  0  0  0
 19 11  1  0  0  0  0
 20 12  1  0  0  0  0
 21 12  1  0  0  0  0
 25 29  1  0  0  0  0
 25 26  2  0  0  0  0
 27 25  1  0  0  0  0
 27 14  1  0  0  0  0
 28 27  1  0  0  0  0
 29 30  1  0  0  0  0
 30 32  2  0  0  0  0
 30 31  1  0  0  0  0
 33 32  1  0  0  0  0
 34 33  2  0  0  0  0
 35 34  1  0  0  0  0
 36 35  2  0  0  0  0
 37 36  1  0  0  0  0
 37 38  2  0  0  0  0
 38 39  1  0  0  0  0
 39 34  1  0  0  0  0
 39 29  2  0  0  0  0
 40  3  1  0  0  0  0
 40 41  1  0  0  0  0
 40 42  1  0  0  0  0
 43 40  1  0  0  0  0
M  END
>  <minimizedAffinity>
-7.85249853

>  <minimizedRMSD>
1.83902597

$$$$
