
     RDKit          3D

 53 56  0  0  0  0  0  0  0  0999 V2000
   47.1675   34.1536   43.0839 N   0  0  0  0  0  0  0  0  0  0  0  0
   46.6704   35.3626   42.5335 C   0  0  0  0  0  0  0  0  0  0  0  0
   45.1892   35.5977   42.7419 C   0  0  0  0  0  0  0  0  0  0  0  0
   44.6465   35.0454   44.0381 C   0  0  0  0  0  0  0  0  0  0  0  0
   45.7454   34.4669   44.8972 C   0  0  0  0  0  0  0  0  0  0  0  0
   46.4108   33.3945   43.9594 C   0  0  2  0  0  0  0  0  0  0  0  0
   48.1442   33.4991   42.2657 C   0  0  0  0  0  0  0  0  0  0  0  0
   47.4451   32.6506   41.2572 C   0  0  0  0  0  0  0  0  0  0  0  0
   49.3291   32.2920   38.0280 C   0  0  0  0  0  0  0  0  0  0  0  0
   48.8103   32.0176   39.3073 C   0  0  0  0  0  0  0  0  0  0  0  0
   47.9909   32.9443   39.9062 C   0  0  0  0  0  0  0  0  0  0  0  0
   47.7264   34.0734   39.2319 N   0  0  0  0  0  0  0  0  0  0  0  0
   48.2340   34.3174   38.0055 C   0  0  0  0  0  0  0  0  0  0  0  0
   49.0362   33.4323   37.3961 N   0  0  0  0  0  0  0  0  0  0  0  0
   47.2044   32.6953   44.8562 O   0  0  0  0  0  0  0  0  0  0  0  0
   45.9965   30.5429   43.8651 O   0  0  0  0  0  0  0  0  0  0  0  0
   46.6664   31.1217   45.1139 P   0  0  2  0  0  0  0  0  0  0  0  0
   45.4019   31.2379   46.2639 O   0  0  0  0  0  0  0  0  0  0  0  0
   47.8407   30.1428   45.7460 O   0  0  0  0  0  0  0  0  0  0  0  0
   47.1728   36.1980   43.0838 H   0  0  0  0  0  0  0  0  0  0  0  0
   46.8913   35.5320   41.4796 H   0  0  0  0  0  0  0  0  0  0  0  0
   44.6484   35.2332   41.8400 H   0  0  0  0  0  0  0  0  0  0  0  0
   44.9972   36.6946   42.7616 H   0  0  0  0  0  0  0  0  0  0  0  0
   44.0120   35.7757   44.5913 H   0  0  0  0  0  0  0  0  0  0  0  0
   43.9800   34.1947   43.7746 H   0  0  0  0  0  0  0  0  0  0  0  0
   46.5252   35.1749   45.1713 H   0  0  0  0  0  0  0  0  0  0  0  0
   45.2672   33.9179   45.7152 H   0  0  0  0  0  0  0  0  0  0  0  0
   45.5796   32.7823   43.5256 H   0  0  0  0  0  0  0  0  0  0  0  0
   48.7878   32.8161   42.8861 H   0  0  0  0  0  0  0  0  0  0  0  0
   48.7608   34.2746   41.7869 H   0  0  0  0  0  0  0  0  0  0  0  0
   47.4713   31.5693   41.4480 H   0  0  0  0  0  0  0  0  0  0  0  0
   46.3620   32.9187   41.2020 H   0  0  0  0  0  0  0  0  0  0  0  0
   49.9639   31.4785   37.6640 H   0  0  0  0  0  0  0  0  0  0  0  0
   49.0301   31.0966   39.8497 H   0  0  0  0  0  0  0  0  0  0  0  0
   48.0130   35.2393   37.4646 H   0  0  0  0  0  0  0  0  0  0  0  0
   45.7985   31.7318   47.0172 H   0  0  0  0  0  0  0  0  0  0  0  0
   47.9081   28.7814   45.7715 C   0  0  0  0  0  0  0  0  0  0  0  0
   47.9241   27.9097   44.6921 C   0  0  0  0  0  0  0  0  0  0  0  0
   47.8759   28.4083   43.7352 H   0  0  0  0  0  0  0  0  0  0  0  0
   47.9968   26.5435   44.9231 C   0  0  0  0  0  0  0  0  0  0  0  0
   48.0525   26.0526   46.1951 C   0  0  0  0  0  0  0  0  0  0  0  0
   48.0387   26.8831   47.2797 C   0  0  0  0  0  0  0  0  0  0  0  0
   48.0966   26.3405   48.5389 C   0  0  0  0  0  0  0  0  0  0  0  0
   48.0839   27.1592   49.6448 C   0  0  0  0  0  0  0  0  0  0  0  0
   48.0125   28.5261   49.4704 C   0  0  0  0  0  0  0  0  0  0  0  0
   47.9563   29.0320   48.2073 C   0  0  0  0  0  0  0  0  0  0  0  0
   47.9658   28.2560   47.0556 C   0  0  0  0  0  0  0  0  0  0  0  0
   48.0061   25.9128   44.0498 H   0  0  0  0  0  0  0  0  0  0  0  0
   48.1091   24.9768   46.3469 H   0  0  0  0  0  0  0  0  0  0  0  0
   48.1536   25.2913   48.7617 H   0  0  0  0  0  0  0  0  0  0  0  0
   48.1260   26.8254   50.6811 H   0  0  0  0  0  0  0  0  0  0  0  0
   47.9988   29.2266   50.2995 H   0  0  0  0  0  0  0  0  0  0  0  0
   47.8995   30.1227   48.0745 H   0  0  0  0  0  0  0  0  0  0  0  0
  1  6  1  0
  2  3  1  0
  2  1  1  0
  3  4  1  0
  4  5  1  0
  6 15  1  0
  6  5  1  0
  7  1  1  0
  8  7  1  0
  9 10  2  0
 10 11  1  0
 11  8  1  0
 12 11  2  0
 13 12  1  0
 14 13  2  0
 14  9  1  0
 17 15  1  6
 16 17  2  0
 17 19  1  0
 17 18  1  0
  2 20  1  0
  2 21  1  0
  3 22  1  0
  3 23  1  0
  4 24  1  0
  4 25  1  0
  5 26  1  0
  5 27  1  0
  6 28  1  6
  7 29  1  0
  7 30  1  0
  8 31  1  0
  8 32  1  0
  9 33  1  0
 10 34  1  0
 13 35  1  0
 18 36  1  0
 37 38  2  0
 38 39  1  0
 38 40  1  0
 40 41  2  0
 41 42  1  0
 42 43  2  0
 43 44  1  0
 44 45  2  0
 45 46  1  0
 46 47  2  0
 47 37  1  0
 47 42  1  0
 40 48  1  0
 41 49  1  0
 43 50  1  0
 44 51  1  0
 45 52  1  0
 46 53  1  0
 19 37  1  0
M  ISO  8  20  13  21  13  22  13  23  13  24  13  25  13  26  13  27  13
M  ISO  8  28  13  29   8  30   8  31   8  32   8  33  14  34  14  35  14
M  ISO  2  36   3  39  15
M  END
>  <DihAtoms>  (1) 
16,18,36,37

>  <DihDeg>  (1) 
-0.00205193307354112

$$$$
