
 OpenBabel03252508003D

 31 34  0  0  1  0  0  0  0  0999 V2000
   46.6540   34.7940   43.1370 C   0  0  0  0  0  0  0  0  0  0  0  0
   45.6010   35.7520   43.2450 C   0  0  0  0  0  0  0  0  0  0  0  0
   44.7310   35.5790   44.3160 C   0  0  0  0  0  0  0  0  0  0  0  0
   44.9270   34.5450   45.1670 N   0  0  0  0  0  0  0  0  0  0  0  0
   45.9650   33.6590   45.0000 C   0  0  0  0  0  0  0  0  0  0  0  0
   46.8250   33.7670   44.0060 N   0  0  0  0  0  0  0  0  0  0  0  0
   45.5260   36.5450   42.5150 H   0  0  0  0  0  0  0  0  0  0  0  0
   43.9170   36.2810   44.4380 H   0  0  0  0  0  0  0  0  0  0  0  0
   46.1180   32.5550   45.9930 C   0  0  1  0  0  0  0  0  0  0  0  0
   46.8380   32.8320   47.2920 C   0  0  0  0  0  0  0  0  0  0  0  0
   45.3370   32.7390   47.2340 C   0  0  1  0  0  0  0  0  0  0  0  0
   46.1950   31.5350   45.5720 H   0  0  0  0  0  0  0  0  0  0  0  0
   47.3410   33.8070   47.3310 H   0  0  0  0  0  0  0  0  0  0  0  0
   47.3580   31.9540   47.7200 H   0  0  0  0  0  0  0  0  0  0  0  0
   44.8740   31.8770   47.7720 H   0  0  0  0  0  0  0  0  0  0  0  0
   44.6970   34.0060   47.5080 N   0  0  0  0  0  0  0  0  0  0  0  0
   43.7250   34.1010   47.2520 H   0  0  0  0  0  0  0  0  0  0  0  0
   45.2960   34.8120   47.6250 H   0  0  0  0  0  0  0  0  0  0  0  0
   47.5590   34.9940   42.0230 C   0  0  0  0  0  0  0  0  0  0  0  0
   48.3880   35.9680   41.9650 O   0  0  0  0  0  0  0  0  0  0  0  0
   47.3550   33.9350   41.0400 C   0  0  0  0  0  0  0  0  0  0  0  0
   46.1880   33.8150   40.3040 C   0  0  0  0  0  0  0  0  0  0  0  0
   45.3950   34.5440   40.4650 H   0  0  0  0  0  0  0  0  0  0  0  0
   45.9450   32.8320   39.3690 C   0  0  0  0  0  3  0  0  0  0  0  0
   46.9110   31.8930   39.1310 C   0  0  0  0  0  3  0  0  0  0  0  0
   48.1000   31.9500   39.8290 C   0  0  0  0  0  0  0  0  0  0  0  0
   49.1070   31.0070   39.6060 C   0  0  0  0  0  3  0  0  0  0  0  0
   50.2970   31.0420   40.2830 C   0  0  0  0  0  3  0  0  0  0  0  0
   50.5130   32.0500   41.2230 C   0  0  0  0  0  3  0  0  0  0  0  0
   49.4920   32.9650   41.4130 C   0  0  0  0  0  3  0  0  0  0  0  0
   48.2850   32.9580   40.7500 C   0  0  0  0  0  0  0  0  0  0  0  0
  1  2  2  0  0  0  0
  1  6  1  0  0  0  0
  2  3  1  0  0  0  0
  3  8  1  0  0  0  0
  3  4  2  0  0  0  0
  5  4  1  0  0  0  0
  5  9  1  0  0  0  0
  6  5  2  0  0  0  0
  7  2  1  0  0  0  0
  9 12  1  6  0  0  0
  9 11  1  0  0  0  0
  9 10  1  0  0  0  0
 10 13  1  0  0  0  0
 10 14  1  0  0  0  0
 11 10  1  0  0  0  0
 11 16  1  0  0  0  0
 11 15  1  1  0  0  0
 16 18  1  0  0  0  0
 17 16  1  0  0  0  0
 19  1  1  0  0  0  0
 20 19  2  0  0  0  0
 21 19  1  0  0  0  0
 22 23  1  0  0  0  0
 22 21  2  0  0  0  0
 24 22  1  0  0  0  0
 25 24  2  0  0  0  0
 25 26  1  0  0  0  0
 26 31  1  0  0  0  0
 27 26  2  0  0  0  0
 27 28  1  0  0  0  0
 28 29  2  0  0  0  0
 29 30  1  0  0  0  0
 31 21  1  0  0  0  0
 31 30  2  0  0  0  0
M  END
>  <minimizedAffinity>
-5.793262

>  <minimizedRMSD>
2.37783575

$$$$
