
 OpenBabel03242519413D

 31 33  0  0  0  0  0  0  0  0999 V2000
   47.9730   32.8650   41.6500 O   0  0  0  0  0  0  0  0  0  0  0  0
   47.1090   34.0880   41.2420 P   0  0  2  0  0  0  0  0  0  0  0  0
   45.5260   33.8740   41.8720 O   0  0  0  0  0  0  0  0  0  0  0  0
   44.3990   35.9130   44.6720 C   0  0  0  0  0  0  0  0  0  0  0  0
   44.6550   35.4910   43.3460 C   0  0  0  0  0  0  0  0  0  0  0  0
   45.2900   34.2520   43.1760 C   0  0  0  0  0  0  0  0  0  0  0  0
   45.6170   33.5380   44.2700 N   0  0  0  0  0  0  0  0  0  0  0  0
   45.3600   33.9670   45.5250 C   0  0  0  0  0  0  0  0  0  0  0  0
   44.7540   35.1480   45.7350 N   0  0  0  0  0  0  0  0  0  0  0  0
   43.9110   36.8670   44.8110 H   0  0  0  0  0  0  0  0  0  0  0  0
   44.3530   36.1350   42.5440 H   0  0  0  0  0  0  0  0  0  0  0  0
   45.6570   33.3290   46.3640 H   0  0  0  0  0  0  0  0  0  0  0  0
   47.0200   34.1590   39.5870 O   0  0  0  0  0  0  0  0  0  0  0  0
   47.0410   33.1620   38.6650 C   0  0  0  0  0  0  0  0  0  0  0  0
   46.6140   33.4610   37.4140 O   0  0  0  0  0  0  0  0  0  0  0  0
   47.3760   31.7410   38.4120 C   0  0  0  0  0  0  0  0  0  0  0  0
   46.3530   30.8000   38.1590 C   0  0  0  0  0  0  0  0  0  0  0  0
   45.3450   31.2600   38.0320 H   0  0  0  0  0  0  0  0  0  0  0  0
   46.3730   29.4350   38.0450 C   0  0  0  0  0  3  0  0  0  0  0  0
   47.6470   28.9540   38.2180 C   0  0  0  0  0  3  0  0  0  0  0  0
   48.7040   29.7960   38.4640 C   0  0  0  0  0  0  0  0  0  0  0  0
   49.9800   29.2900   38.5920 C   0  0  0  0  0  3  0  0  0  0  0  0
   51.1440   30.0020   38.8000 C   0  0  0  0  0  3  0  0  0  0  0  0
   50.9620   31.3890   38.8830 C   0  0  0  0  0  3  0  0  0  0  0  0
   49.7020   31.9200   38.7610 C   0  0  0  0  0  3  0  0  0  0  0  0
   48.5730   31.1790   38.5600 C   0  0  0  0  0  0  0  0  0  0  0  0
   47.7930   35.4170   41.9590 O   0  0  0  0  0  0  0  0  0  0  0  0
   49.0360   35.7290   41.4260 C   0  0  0  0  0  0  0  0  0  0  0  0
   49.4510   37.0040   41.7620 F   0  0  0  0  0  0  0  0  0  0  0  0
   49.9460   34.7730   41.7450 F   0  0  0  0  0  0  0  0  0  0  0  0
   48.8750   35.7240   40.0420 F   0  0  0  0  0  0  0  0  0  0  0  0
  2  1  2  1  0  0  0
  2  3  1  0  0  0  0
  2 27  1  0  0  0  0
  3  6  1  0  0  0  0
  4 10  1  0  0  0  0
  4  9  1  0  0  0  0
  5  4  2  0  0  0  0
  6  5  1  0  0  0  0
  6  7  2  0  0  0  0
  7  8  1  0  0  0  0
  8  9  2  0  0  0  0
  8 12  1  0  0  0  0
 11  5  1  0  0  0  0
 13  2  1  0  0  0  0
 14 13  1  0  0  0  0
 15 14  2  0  0  0  0
 16 26  1  0  0  0  0
 16 14  1  0  0  0  0
 17 16  2  0  0  0  0
 18 17  1  0  0  0  0
 19 17  1  0  0  0  0
 19 20  2  0  0  0  0
 20 21  1  0  0  0  0
 21 26  2  0  0  0  0
 21 22  1  0  0  0  0
 22 23  2  0  0  0  0
 23 24  1  0  0  0  0
 25 24  2  0  0  0  0
 26 25  1  0  0  0  0
 28 30  1  0  0  0  0
 28 29  1  0  0  0  0
 28 27  1  0  0  0  0
 31 28  1  0  0  0  0
M  END
>  <minimizedAffinity>
-5.14889717

>  <minimizedRMSD>
1.63950586

$$$$
