
 OpenBabel03242510223D

 40 44  0  0  1  0  0  0  0  0999 V2000
   48.0720   33.1100   43.2410 N   0  0  0  0  0  0  0  0  0  0  0  0
   49.2080   33.1120   42.4470 C   0  0  0  0  0  0  0  0  0  0  0  0
   50.3300   32.5590   42.6110 O   0  0  0  0  0  0  0  0  0  0  0  0
   47.6340   34.0620   43.2830 H   0  0  0  0  0  0  0  0  0  0  0  0
   46.1840   31.9950   44.3710 C   0  0  1  0  0  0  0  0  0  0  0  0
   46.3690   31.3110   43.1650 C   0  0  0  0  0  0  0  0  0  0  0  0
   47.5840   31.9550   43.9040 C   0  0  1  0  0  0  0  0  0  0  0  0
   45.9170   31.4870   45.3250 H   0  0  0  0  0  0  0  0  0  0  0  0
   46.3980   30.1780   43.1940 H   0  0  0  0  0  0  0  0  0  0  0  0
   46.2040   31.6380   42.1250 H   0  0  0  0  0  0  0  0  0  0  0  0
   48.2750   31.2030   44.3150 H   0  0  0  0  0  0  0  0  0  0  0  0
   45.0060   33.9390   43.0970 C   0  0  0  0  0  0  0  0  0  0  0  0
   45.4970   33.3720   44.3110 C   0  0  0  0  0  0  0  0  0  0  0  0
   45.3630   34.1260   45.4600 C   0  0  0  0  0  0  0  0  0  0  0  0
   44.7890   35.3370   45.3980 N   0  0  0  0  0  0  0  0  0  0  0  0
   44.3260   35.8660   44.2290 C   0  0  0  0  0  0  0  0  0  0  0  0
   44.4440   35.1340   43.0500 N   0  0  0  0  0  0  0  0  0  0  0  0
   45.0990   33.3380   42.2390 H   0  0  0  0  0  0  0  0  0  0  0  0
   45.7420   33.6730   46.3630 H   0  0  0  0  0  0  0  0  0  0  0  0
   43.9110   36.8370   44.4130 H   0  0  0  0  0  0  0  0  0  0  0  0
   49.1970   33.8800   41.1350 C   0  0  2  0  0  0  0  0  0  0  0  0
   48.6000   35.3380   41.1910 C   0  0  0  0  0  0  0  0  0  0  0  0
   47.9370   34.2110   40.4570 C   0  0  1  0  0  0  0  0  0  0  0  0
   50.1340   33.8990   40.5450 H   0  0  0  0  0  0  0  0  0  0  0  0
   48.2240   35.6170   42.2030 H   0  0  0  0  0  0  0  0  0  0  0  0
   49.1470   36.1280   40.6820 H   0  0  0  0  0  0  0  0  0  0  0  0
   47.0060   33.7930   40.8940 H   0  0  0  0  0  0  0  0  0  0  0  0
   47.9420   34.2600   38.9470 C   0  0  0  0  0  0  0  0  0  0  0  0
   48.7620   34.9900   38.3760 O   0  0  0  0  0  0  0  0  0  0  0  0
   46.9610   33.4280   38.2360 C   0  0  0  0  0  0  0  0  0  0  0  0
   45.7560   33.0830   38.7590 C   0  0  0  0  0  0  0  0  0  0  0  0
   45.4280   33.3970   39.7320 H   0  0  0  0  0  0  0  0  0  0  0  0
   44.7870   32.3030   38.1640 C   0  0  0  0  0  0  0  0  0  0  0  0
   45.0350   31.7970   36.8870 C   0  0  0  0  0  0  0  0  0  0  0  0
   46.2290   32.1100   36.3100 C   0  0  0  0  0  0  0  0  0  0  0  0
   46.4600   31.6030   35.0490 C   0  0  0  0  0  0  0  0  0  0  0  0
   47.6550   31.8750   34.3880 C   0  0  0  0  0  0  0  0  0  0  0  0
   48.6020   32.6670   35.0300 C   0  0  0  0  0  0  0  0  0  0  0  0
   48.2950   33.1350   36.2890 C   0  0  0  0  0  0  0  0  0  0  0  0
   47.1380   32.8960   36.9800 C   0  0  0  0  0  0  0  0  0  0  0  0
  1  4  1  0  0  0  0
  1  7  1  0  0  0  0
  2  3  2  0  0  0  0
  2  1  1  0  0  0  0
  5  8  1  1  0  0  0
  6  9  1  0  0  0  0
  6  7  1  0  0  0  0
  6  5  1  0  0  0  0
  7 11  1  1  0  0  0
  7  5  1  0  0  0  0
 10  6  1  0  0  0  0
 12 13  1  0  0  0  0
 13  5  1  0  0  0  0
 13 14  2  0  0  0  0
 14 19  1  0  0  0  0
 15 14  1  0  0  0  0
 16 20  1  0  0  0  0
 16 15  2  0  0  0  0
 17 12  2  0  0  0  0
 17 16  1  0  0  0  0
 18 12  1  0  0  0  0
 21 24  1  6  0  0  0
 21 22  1  0  0  0  0
 21  2  1  0  0  0  0
 22 25  1  0  0  0  0
 23 27  1  1  0  0  0
 23 21  1  0  0  0  0
 23 22  1  0  0  0  0
 26 22  1  0  0  0  0
 28 23  1  0  0  0  0
 29 28  2  0  0  0  0
 30 31  1  0  0  0  0
 30 28  1  0  0  0  0
 31 32  1  0  0  0  0
 33 31  2  0  0  0  0
 34 33  1  0  0  0  0
 35 34  2  0  0  0  0
 35 40  1  0  0  0  0
 36 35  1  0  0  0  0
 37 38  1  0  0  0  0
 37 36  2  0  0  0  0
 38 39  2  0  0  0  0
 39 40  1  0  0  0  0
 40 30  2  0  0  0  0
M  END
>  <minimizedAffinity>
-5.55966949

>  <minimizedRMSD>
0.506282985

$$$$
