
 OpenBabel03242519413D

 31 33  0  0  0  0  0  0  0  0999 V2000
   48.0910   32.7150   41.6560 O   0  0  0  0  0  0  0  0  0  0  0  0
   47.0900   33.8520   41.3160 P   0  0  2  0  0  0  0  0  0  0  0  0
   45.5810   33.4910   42.0510 O   0  0  0  0  0  0  0  0  0  0  0  0
   44.3510   35.8810   44.5080 C   0  0  0  0  0  0  0  0  0  0  0  0
   44.6440   35.2800   43.2620 C   0  0  0  0  0  0  0  0  0  0  0  0
   45.3100   34.0460   43.2830 C   0  0  0  0  0  0  0  0  0  0  0  0
   45.6310   33.5050   44.4740 N   0  0  0  0  0  0  0  0  0  0  0  0
   45.3380   34.1040   45.6490 C   0  0  0  0  0  0  0  0  0  0  0  0
   44.7020   35.2860   45.6770 N   0  0  0  0  0  0  0  0  0  0  0  0
   43.8380   36.8330   44.5010 H   0  0  0  0  0  0  0  0  0  0  0  0
   44.3430   35.7940   42.3700 H   0  0  0  0  0  0  0  0  0  0  0  0
   45.6330   33.6010   46.5770 H   0  0  0  0  0  0  0  0  0  0  0  0
   46.8810   33.9150   39.6720 O   0  0  0  0  0  0  0  0  0  0  0  0
   45.9480   33.3200   38.8840 C   0  0  0  0  0  0  0  0  0  0  0  0
   46.2770   33.0970   37.5880 O   0  0  0  0  0  0  0  0  0  0  0  0
   44.5860   32.7400   38.8320 C   0  0  0  0  0  0  0  0  0  0  0  0
   44.3730   31.4650   38.2610 C   0  0  0  0  0  0  0  0  0  0  0  0
   45.3180   30.9240   38.0140 H   0  0  0  0  0  0  0  0  0  0  0  0
   43.2290   30.7760   37.9570 C   0  0  0  0  0  3  0  0  0  0  0  0
   42.1200   31.5140   38.2900 C   0  0  0  0  0  3  0  0  0  0  0  0
   42.2300   32.7610   38.8520 C   0  0  0  0  0  0  0  0  0  0  0  0
   41.1000   33.4630   39.2160 C   0  0  0  0  0  3  0  0  0  0  0  0
   41.0430   34.7000   39.8220 C   0  0  0  0  0  3  0  0  0  0  0  0
   42.2970   35.2710   40.0790 C   0  0  0  0  0  3  0  0  0  0  0  0
   43.4390   34.5970   39.7270 C   0  0  0  0  0  3  0  0  0  0  0  0
   43.4520   33.3730   39.1230 C   0  0  0  0  0  0  0  0  0  0  0  0
   47.6940   35.2400   41.9930 O   0  0  0  0  0  0  0  0  0  0  0  0
   48.9200   35.6050   41.4550 C   0  0  0  0  0  0  0  0  0  0  0  0
   49.2920   36.8890   41.8070 F   0  0  0  0  0  0  0  0  0  0  0  0
   49.8680   34.6780   41.7490 F   0  0  0  0  0  0  0  0  0  0  0  0
   48.7460   35.6170   40.0720 F   0  0  0  0  0  0  0  0  0  0  0  0
  2  1  2  1  0  0  0
  2 27  1  0  0  0  0
  2  3  1  0  0  0  0
  3  6  1  0  0  0  0
  4  9  1  0  0  0  0
  5  6  1  0  0  0  0
  5  4  2  0  0  0  0
  6  7  2  0  0  0  0
  7  8  1  0  0  0  0
  8  9  2  0  0  0  0
  8 12  1  0  0  0  0
 10  4  1  0  0  0  0
 11  5  1  0  0  0  0
 13  2  1  0  0  0  0
 14 13  1  0  0  0  0
 15 14  2  0  0  0  0
 16 14  1  0  0  0  0
 16 26  1  0  0  0  0
 17 16  2  0  0  0  0
 18 17  1  0  0  0  0
 19 17  1  0  0  0  0
 19 20  2  0  0  0  0
 20 21  1  0  0  0  0
 21 26  2  0  0  0  0
 21 22  1  0  0  0  0
 22 23  2  0  0  0  0
 23 24  1  0  0  0  0
 25 24  2  0  0  0  0
 26 25  1  0  0  0  0
 28 30  1  0  0  0  0
 28 29  1  0  0  0  0
 28 27  1  0  0  0  0
 31 28  1  0  0  0  0
M  END
>  <minimizedAffinity>
-5.83422518

>  <minimizedRMSD>
2.62919569

$$$$
