
 OpenBabel03252508033D

 44 48  0  0  1  0  0  0  0  0999 V2000
   42.0560   33.2640   41.1260 C   0  0  0  0  0  0  0  0  0  0  0  0
   42.7840   34.3990   41.3140 C   0  0  0  0  0  0  0  0  0  0  0  0
   42.1240   35.6390   41.2850 C   0  0  0  0  0  0  0  0  0  0  0  0
   40.7740   35.7630   41.0760 C   0  0  0  0  0  0  0  0  0  0  0  0
   40.0370   34.6230   40.8870 C   0  0  0  0  0  0  0  0  0  0  0  0
   40.6800   33.4240   40.9150 C   0  0  0  0  0  0  0  0  0  0  0  0
   42.6310   36.5840   41.4160 H   0  0  0  0  0  0  0  0  0  0  0  0
   40.2740   36.7020   41.0550 H   0  0  0  0  0  0  0  0  0  0  0  0
   38.9730   34.6270   40.7160 H   0  0  0  0  0  0  0  0  0  0  0  0
   40.0820   32.5120   40.7610 H   0  0  0  0  0  0  0  0  0  0  0  0
   42.7000   31.7130   41.2600 S   0  0  0  0  0  0  0  0  0  0  0  0
   41.5660   30.9070   40.5420 O   0  0  0  0  0  0  0  0  0  0  0  0
   42.7230   31.2010   42.6380 O   0  0  0  0  0  0  0  0  0  0  0  0
   43.7850   30.9040   40.2410 C   0  0  0  0  0  0  0  0  0  0  0  0
   44.1960   31.2000   38.9170 C   0  0  0  0  0  0  0  0  0  0  0  0
   43.7240   32.1480   38.5710 H   0  0  0  0  0  0  0  0  0  0  0  0
   45.0020   30.5300   38.0130 C   0  0  0  0  0  3  0  0  0  0  0  0
   45.4390   29.3840   38.5800 C   0  0  0  0  0  3  0  0  0  0  0  0
   45.1390   28.9440   39.8450 C   0  0  0  0  0  0  0  0  0  0  0  0
   45.7200   27.7210   40.1840 C   0  0  0  0  0  3  0  0  0  0  0  0
   45.4860   27.1880   41.4290 C   0  0  0  0  0  3  0  0  0  0  0  0
   44.6810   27.8910   42.2980 C   0  0  0  0  0  3  0  0  0  0  0  0
   44.1520   29.0860   41.8810 C   0  0  0  0  0  3  0  0  0  0  0  0
   44.3290   29.6920   40.6580 C   0  0  0  0  0  0  0  0  0  0  0  0
   44.2280   34.3670   41.5390 C   0  0  0  0  0  0  0  0  0  0  0  0
   45.0970   34.2760   40.6200 O   0  0  0  0  0  0  0  0  0  0  0  0
   44.5880   34.4530   42.9280 C   0  0  0  0  0  0  0  0  0  0  0  0
   44.3080   35.7110   43.5700 C   0  0  0  0  0  0  0  0  0  0  0  0
   44.6310   35.8140   44.9130 C   0  0  0  0  0  0  0  0  0  0  0  0
   45.1820   34.7370   45.5320 N   0  0  0  0  0  0  0  0  0  0  0  0
   45.4260   33.5600   44.8700 C   0  0  0  0  0  0  0  0  0  0  0  0
   45.1300   33.4590   43.6230 N   0  0  0  0  0  0  0  0  0  0  0  0
   43.8840   36.5990   43.1610 H   0  0  0  0  0  0  0  0  0  0  0  0
   44.4740   36.6950   45.5060 H   0  0  0  0  0  0  0  0  0  0  0  0
   46.0170   32.4340   45.6300 C   0  0  1  0  0  0  0  0  0  0  0  0
   46.9680   32.7310   46.7670 C   0  0  0  0  0  0  0  0  0  0  0  0
   45.5570   32.3140   47.0310 C   0  0  1  0  0  0  0  0  0  0  0  0
   46.1470   31.5010   45.0600 H   0  0  0  0  0  0  0  0  0  0  0  0
   47.2960   33.7800   46.9060 H   0  0  0  0  0  0  0  0  0  0  0  0
   47.7290   31.9700   47.0170 H   0  0  0  0  0  0  0  0  0  0  0  0
   45.3410   31.3340   47.5010 H   0  0  0  0  0  0  0  0  0  0  0  0
   44.7730   33.3870   47.6330 N   0  0  0  0  0  0  0  0  0  0  0  0
   43.7710   33.1560   47.3930 H   0  0  0  0  0  0  0  0  0  0  0  0
   44.8870   33.2850   48.6610 H   0  0  0  0  0  0  0  0  0  0  0  0
  1 11  1  0  0  0  0
  1  2  1  0  0  0  0
  2 25  1  0  0  0  0
  3  2  2  0  0  0  0
  3  7  1  0  0  0  0
  4  3  1  0  0  0  0
  5  6  1  0  0  0  0
  5  4  2  0  0  0  0
  6  1  2  0  0  0  0
  8  4  1  0  0  0  0
  9  5  1  0  0  0  0
 10  6  1  0  0  0  0
 11 13  2  0  0  0  0
 12 11  2  0  0  0  0
 14 24  1  0  0  0  0
 14 11  1  0  0  0  0
 15 14  2  0  0  0  0
 16 15  1  0  0  0  0
 17 18  2  0  0  0  0
 17 15  1  0  0  0  0
 18 19  1  0  0  0  0
 19 20  2  0  0  0  0
 19 24  1  0  0  0  0
 20 21  1  0  0  0  0
 21 22  2  0  0  0  0
 23 22  1  0  0  0  0
 24 23  2  0  0  0  0
 25 27  1  0  0  0  0
 26 25  2  0  0  0  0
 27 28  2  0  0  0  0
 27 32  1  0  0  0  0
 28 29  1  0  0  0  0
 29 34  1  0  0  0  0
 29 30  2  0  0  0  0
 31 30  1  0  0  0  0
 31 35  1  0  0  0  0
 32 31  2  0  0  0  0
 33 28  1  0  0  0  0
 35 38  1  6  0  0  0
 35 36  1  0  0  0  0
 35 37  1  0  0  0  0
 36 39  1  0  0  0  0
 36 40  1  0  0  0  0
 36 37  1  0  0  0  0
 37 41  1  1  0  0  0
 37 42  1  0  0  0  0
 42 44  1  0  0  0  0
 43 42  1  0  0  0  0
M  END
>  <minimizedAffinity>
-5.75402498

>  <minimizedRMSD>
1.37784195

$$$$
