
 OpenBabel03242510443D

 44 48  0  0  0  0  0  0  0  0999 V2000
   45.7230   31.1470   46.5040 C   0  0  0  0  0  0  0  0  0  0  0  0
   46.7310   30.9920   45.5370 C   0  0  0  0  0  0  0  0  0  0  0  0
   47.0380   29.6490   45.2240 C   0  0  0  0  0  0  0  0  0  0  0  0
   46.3520   28.6630   45.8650 N   0  0  0  0  0  0  0  0  0  0  0  0
   45.3880   28.8890   46.7890 C   0  0  0  0  0  0  0  0  0  0  0  0
   45.0700   30.1550   47.1110 N   0  0  0  0  0  0  0  0  0  0  0  0
   45.3570   32.0740   46.8830 H   0  0  0  0  0  0  0  0  0  0  0  0
   43.4120   27.5460   45.0730 Cl  0  0  0  0  0  0  0  0  0  0  0  0
   43.7680   27.0610   46.7420 C   0  0  0  0  0  0  0  0  0  0  0  0
   44.7140   27.7800   47.4220 C   0  0  0  0  0  0  0  0  0  0  0  0
   44.9850   27.4060   48.7040 C   0  0  0  0  0  0  0  0  0  0  0  0
   44.2850   26.3110   49.2520 C   0  0  0  0  0  0  0  0  0  0  0  0
   43.3420   25.6100   48.5460 C   0  0  0  0  0  0  0  0  0  0  0  0
   43.0590   25.9900   47.2310 C   0  0  0  0  0  0  0  0  0  0  0  0
   45.7310   27.9480   49.2860 H   0  0  0  0  0  0  0  0  0  0  0  0
   44.5410   26.0550   50.2810 H   0  0  0  0  0  0  0  0  0  0  0  0
   42.8100   24.7760   48.9690 H   0  0  0  0  0  0  0  0  0  0  0  0
   43.9340   23.8740   45.7320 F   0  0  0  0  0  0  0  0  0  0  0  0
   42.6370   24.2330   45.6990 C   0  0  0  0  0  0  0  0  0  0  0  0
   42.0660   25.2910   46.4150 C   0  0  0  0  0  0  0  0  0  0  0  0
   40.7250   25.5620   46.2990 C   0  0  0  0  0  0  0  0  0  0  0  0
   39.9550   24.7840   45.4740 C   0  0  0  0  0  0  0  0  0  0  0  0
   40.4770   23.7330   44.7510 C   0  0  0  0  0  0  0  0  0  0  0  0
   41.8410   23.4500   44.8630 C   0  0  0  0  0  0  0  0  0  0  0  0
   40.4240   26.3940   46.9000 H   0  0  0  0  0  0  0  0  0  0  0  0
   38.9090   25.0590   45.4370 H   0  0  0  0  0  0  0  0  0  0  0  0
   39.8100   23.1770   44.1320 H   0  0  0  0  0  0  0  0  0  0  0  0
   42.2400   22.6270   44.2930 H   0  0  0  0  0  0  0  0  0  0  0  0
   48.0800   29.4640   44.2140 C   0  0  0  0  0  0  0  0  0  0  0  0
   48.5280   28.1570   44.2400 F   0  0  0  0  0  0  0  0  0  0  0  0
   49.1490   30.2320   44.6210 F   0  0  0  0  0  0  0  0  0  0  0  0
   47.6280   29.7210   42.9360 F   0  0  0  0  0  0  0  0  0  0  0  0
   47.3810   32.0180   44.9300 O   0  0  0  0  0  0  0  0  0  0  0  0
   47.2330   32.7910   43.8930 C   0  0  0  0  0  0  0  0  0  0  0  0
   47.7500   32.8150   42.6230 C   0  0  0  0  0  0  0  0  0  0  0  0
   48.4530   32.0770   42.3240 H   0  0  0  0  0  0  0  0  0  0  0  0
   47.5070   33.7010   41.6010 C   0  0  0  0  0  0  0  0  0  0  0  0
   46.6150   34.7020   41.9120 C   0  0  0  0  0  0  0  0  0  0  0  0
   46.0240   34.7950   43.1510 C   0  0  0  0  0  0  0  0  0  0  0  0
   45.1510   35.8440   43.3090 C   0  0  0  0  0  0  0  0  0  0  0  0
   44.5200   35.9900   44.5180 C   0  0  0  0  0  0  0  0  0  0  0  0
   44.7700   35.0980   45.5310 C   0  0  0  0  0  0  0  0  0  0  0  0
   45.6580   34.0810   45.2770 C   0  0  0  0  0  0  0  0  0  0  0  0
   46.3400   33.8500   44.1040 C   0  0  0  0  0  0  0  0  0  0  0  0
  1  7  1  0  0  0  0
  1  6  1  0  0  0  0
  2  1  2  0  0  0  0
  3  2  1  0  0  0  0
  3  4  2  0  0  0  0
  4  5  1  0  0  0  0
  5  6  2  0  0  0  0
  5 10  1  0  0  0  0
  8  9  1  0  0  0  0
  9 14  2  0  0  0  0
  9 10  1  0  0  0  0
 10 11  2  0  0  0  0
 11 12  1  0  0  0  0
 11 15  1  0  0  0  0
 12 16  1  0  0  0  0
 13 17  1  0  0  0  0
 13 12  2  0  0  0  0
 14 13  1  0  0  0  0
 19 18  1  0  0  0  0
 19 20  1  0  0  0  0
 20 14  1  0  0  0  0
 21 20  2  0  0  0  0
 21 25  1  0  0  0  0
 22 21  1  0  0  0  0
 23 24  1  0  0  0  0
 23 22  2  0  0  0  0
 24 19  2  0  0  0  0
 26 22  1  0  0  0  0
 27 23  1  0  0  0  0
 28 24  1  0  0  0  0
 29 30  1  0  0  0  0
 29 31  1  0  0  0  0
 29  3  1  0  0  0  0
 32 29  1  0  0  0  0
 33  2  1  0  0  0  0
 34 44  1  0  0  0  0
 34 33  1  0  0  0  0
 35 34  2  0  0  0  0
 36 35  1  0  0  0  0
 37 38  2  0  0  0  0
 37 35  1  0  0  0  0
 38 39  1  0  0  0  0
 39 40  2  0  0  0  0
 39 44  1  0  0  0  0
 40 41  1  0  0  0  0
 41 42  2  0  0  0  0
 43 42  1  0  0  0  0
 44 43  2  0  0  0  0
M  END
>  <minimizedAffinity>
-6.73690939

>  <minimizedRMSD>
6.56206036

$$$$
