REMARK  Name = 
REMARK  4 active torsions:
REMARK  status: ('A' for Active; 'I' for Inactive)
REMARK    1  A    between atoms: C_1  and  C_4
REMARK    2  A    between atoms: C_1  and  C_11
REMARK    3  A    between atoms: C_12  and  C_17
REMARK    4  A    between atoms: C_17  and  C_35
REMARK                            x       y       z     vdW  Elec       q    Type
REMARK                         _______ _______ _______ _____ _____    ______ ____
ROOT
ATOM      1  C   UNL     1      46.133  35.795  42.788  0.00  0.00    +0.000 A 
ATOM      2  C   UNL     1      47.012  34.714  42.795  0.00  0.00    +0.000 A 
ATOM      3  C   UNL     1      46.887  33.792  43.830  0.00  0.00    +0.000 A 
ATOM      4  N   UNL     1      45.928  33.967  44.788  0.00  0.00    +0.000 NA
ATOM      5  C   UNL     1      45.112  35.028  44.726  0.00  0.00    +0.000 A 
ATOM      6  N   UNL     1      45.200  35.927  43.757  0.00  0.00    +0.000 NA
ATOM      7  N   UNL     1      44.091  35.268  45.682  0.00  0.00    +0.000 N 
ATOM      8  H   UNL     1      46.248  36.497  41.976  0.00  0.00    +0.000 HD
ATOM      9  H   UNL     1      43.118  35.123  45.303  0.00  0.00    +0.000 HD
ATOM     10  H   UNL     1      44.621  35.531  46.524  0.00  0.00    +0.000 HD
ENDROOT
BRANCH   2  11
ATOM     11  C   UNL     1      48.061  34.555  41.738  0.00  0.00    +0.000 C 
ATOM     12  C   UNL     1      48.819  35.834  41.371  0.00  0.00    +0.000 C 
ATOM     13  C   UNL     1      49.451  34.707  42.057  0.00  0.00    +0.000 C 
ATOM     14  H   UNL     1      49.085  36.026  40.317  0.00  0.00    +0.000 HD
ATOM     15  H   UNL     1      48.471  36.756  41.883  0.00  0.00    +0.000 HD
ATOM     16  H   UNL     1      49.955  35.084  42.950  0.00  0.00    +0.000 HD
ATOM     17  H   UNL     1      50.173  34.095  41.436  0.00  0.00    +0.000 HD
BRANCH  11  18
ATOM     18  C   UNL     1      47.670  33.760  40.538  0.00  0.00    +0.000 C 
ATOM     19  C   UNL     1      48.138  34.326  39.209  0.00  0.00    +0.000 C 
ATOM     20  C   UNL     1      47.742  33.275  38.163  0.00  0.00    +0.000 C 
ATOM     21  O   UNL     1      46.362  33.432  37.978  0.00  0.00    +0.000 OA
ATOM     22  C   UNL     1      45.822  32.859  39.155  0.00  0.00    +0.000 C 
ATOM     23  C   UNL     1      46.147  33.712  40.358  0.00  0.00    +0.000 C 
ATOM     24  H   UNL     1      48.009  32.712  40.571  0.00  0.00    +0.000 HD
ATOM     25  H   UNL     1      47.677  35.297  38.991  0.00  0.00    +0.000 HD
ATOM     26  H   UNL     1      49.265  34.342  39.176  0.00  0.00    +0.000 HD
ATOM     27  H   UNL     1      48.297  33.446  37.223  0.00  0.00    +0.000 HD
ATOM     28  H   UNL     1      47.905  32.265  38.540  0.00  0.00    +0.000 HD
ATOM     29  H   UNL     1      46.064  31.806  39.266  0.00  0.00    +0.000 HD
ATOM     30  H   UNL     1      44.711  32.979  39.004  0.00  0.00    +0.000 HD
ATOM     31  H   UNL     1      45.707  34.712  40.207  0.00  0.00    +0.000 HD
ATOM     32  H   UNL     1      45.754  33.180  41.238  0.00  0.00    +0.000 HD
ENDBRANCH  11  18
ENDBRANCH   2  11
BRANCH   3  33
ATOM     33  C   UNL     1      47.775  32.667  43.999  0.00  0.00    +0.000 C 
ATOM     34  O   UNL     1      47.459  31.466  44.352  0.00  0.00    +0.000 OA
BRANCH  33  35
ATOM     35  C   UNL     1      49.182  32.307  43.910  0.00  0.00    +0.000 A 
ATOM     36  C   UNL     1      49.785  31.824  45.062  0.00  0.00    +0.000 A 
ATOM     37  H   UNL     1      49.189  31.791  45.986  0.00  0.00    +0.000 HD
ATOM     38  C   UNL     1      51.077  31.362  45.208  0.00  0.00    +0.000 A 
ATOM     39  C   UNL     1      51.815  31.402  44.064  0.00  0.00    +0.000 A 
ATOM     40  C   UNL     1      51.316  31.862  42.867  0.00  0.00    +0.000 A 
ATOM     41  C   UNL     1      52.030  31.921  41.682  0.00  0.00    +0.000 A 
ATOM     42  C   UNL     1      51.459  32.398  40.515  0.00  0.00    +0.000 A 
ATOM     43  C   UNL     1      50.151  32.839  40.475  0.00  0.00    +0.000 A 
ATOM     44  C   UNL     1      49.429  32.788  41.639  0.00  0.00    +0.000 A 
ATOM     45  C   UNL     1      49.989  32.314  42.804  0.00  0.00    +0.000 A 
ENDBRANCH  33  35
ENDBRANCH   3  33
TORSDOF 4
