
 OpenBabel03252504003D

 36 40  0  0  1  0  0  0  0  0999 V2000
   47.0610   35.0930   42.6070 C   0  0  0  0  0  0  0  0  0  0  0  0
   45.9870   35.9310   42.3430 C   0  0  0  0  0  0  0  0  0  0  0  0
   44.8570   35.7900   43.1300 C   0  0  0  0  0  0  0  0  0  0  0  0
   44.8540   34.8520   44.1090 N   0  0  0  0  0  0  0  0  0  0  0  0
   45.9350   34.0460   44.3360 C   0  0  0  0  0  0  0  0  0  0  0  0
   47.0350   34.1710   43.5830 N   0  0  0  0  0  0  0  0  0  0  0  0
   45.9450   36.6880   41.5790 H   0  0  0  0  0  0  0  0  0  0  0  0
   43.9850   36.4160   42.9730 H   0  0  0  0  0  0  0  0  0  0  0  0
   46.2290   31.7380   45.0390 C   0  0  0  0  0  0  0  0  0  0  0  0
   45.9020   33.0450   45.3960 C   0  0  0  0  0  0  0  0  0  0  0  0
   45.5720   33.3230   46.6980 C   0  0  0  0  0  0  0  0  0  0  0  0
   45.5700   32.3090   47.6250 C   0  0  0  0  0  0  0  0  0  0  0  0
   45.2930   32.2870   48.9450 N   0  0  0  0  0  0  0  0  0  0  0  0
   45.4270   31.0480   49.4350 C   0  0  0  0  0  0  0  0  0  0  0  0
   45.8040   30.2140   48.4180 C   0  0  0  0  0  0  0  0  0  0  0  0
   45.8940   31.0040   47.2780 C   0  0  0  0  0  0  0  0  0  0  0  0
   46.2270   30.7180   45.9690 C   0  0  0  0  0  0  0  0  0  0  0  0
   46.5060   31.4120   44.0310 H   0  0  0  0  0  0  0  0  0  0  0  0
   45.3200   34.3410   46.9580 H   0  0  0  0  0  0  0  0  0  0  0  0
   45.0110   33.1190   49.5220 H   0  0  0  0  0  0  0  0  0  0  0  0
   45.2670   30.7400   50.4700 H   0  0  0  0  0  0  0  0  0  0  0  0
   46.0090   29.1370   48.4290 H   0  0  0  0  0  0  0  0  0  0  0  0
   46.4770   29.6910   45.7260 H   0  0  0  0  0  0  0  0  0  0  0  0
   48.2250   35.2820   41.7480 C   0  0  2  0  0  3  0  0  0  0  0  0
   49.0080   36.2980   41.8330 O   0  0  0  0  0  1  0  0  0  0  0  0
   48.3340   34.1640   40.8160 C   0  0  0  0  0  0  0  0  0  0  0  0
   47.4920   34.0550   39.7060 C   0  0  0  0  0  0  0  0  0  0  0  0
   46.7290   34.8280   39.5360 H   0  0  0  0  0  0  0  0  0  0  0  0
   47.5400   33.0330   38.7810 C   0  0  0  0  0  3  0  0  0  0  0  0
   48.4770   32.0420   38.9500 C   0  0  0  0  0  3  0  0  0  0  0  0
   49.3370   32.0930   40.0270 C   0  0  0  0  0  0  0  0  0  0  0  0
   50.2670   31.0850   40.1720 C   0  0  0  0  0  3  0  0  0  0  0  0
   51.1540   31.0830   41.2320 C   0  0  0  0  0  3  0  0  0  0  0  0
   51.0500   32.1330   42.1170 C   0  0  0  0  0  3  0  0  0  0  0  0
   50.1200   33.1400   41.9700 C   0  0  0  0  0  3  0  0  0  0  0  0
   49.2350   33.1440   40.9140 C   0  0  0  0  0  0  0  0  0  0  0  0
  1  6  1  0  0  0  0
  2  1  2  0  0  0  0
  2  3  1  0  0  0  0
  3  4  2  0  0  0  0
  4  5  1  0  0  0  0
  5 10  1  0  0  0  0
  6  5  2  0  0  0  0
  7  2  1  0  0  0  0
  8  3  1  0  0  0  0
  9 10  2  0  0  0  0
  9 17  1  0  0  0  0
 10 11  1  0  0  0  0
 11 19  1  0  0  0  0
 11 12  2  0  0  0  0
 12 13  1  0  0  0  0
 13 14  1  0  0  0  0
 13 20  1  0  0  0  0
 14 21  1  0  0  0  0
 15 22  1  0  0  0  0
 15 14  2  0  0  0  0
 16 12  1  0  0  0  0
 16 15  1  0  0  0  0
 17 16  2  0  0  0  0
 18  9  1  0  0  0  0
 23 17  1  0  0  0  0
 24 25  1  6  0  0  0
 24  1  1  0  0  0  0
 26 36  1  0  0  0  0
 26 24  1  0  0  0  0
 27 26  2  0  0  0  0
 28 27  1  0  0  0  0
 29 30  2  0  0  0  0
 29 27  1  0  0  0  0
 30 31  1  0  0  0  0
 31 32  2  0  0  0  0
 31 36  1  0  0  0  0
 32 33  1  0  0  0  0
 33 34  2  0  0  0  0
 35 34  1  0  0  0  0
 36 35  2  0  0  0  0
M  END
>  <minimizedAffinity>
-6.84420061

>  <minimizedRMSD>
1.09167564

$$$$
