
 OpenBabel03252503593D

 36 40  0  0  1  0  0  0  0  0999 V2000
   46.7270   34.8160   42.5670 C   0  0  0  0  0  0  0  0  0  0  0  0
   45.8840   35.9170   42.5620 C   0  0  0  0  0  0  0  0  0  0  0  0
   44.9770   36.0340   43.6020 C   0  0  0  0  0  0  0  0  0  0  0  0
   44.9580   35.0790   44.5630 N   0  0  0  0  0  0  0  0  0  0  0  0
   45.8070   34.0080   44.5310 C   0  0  0  0  0  0  0  0  0  0  0  0
   46.6900   33.8820   43.5310 N   0  0  0  0  0  0  0  0  0  0  0  0
   45.8630   36.6990   41.8210 H   0  0  0  0  0  0  0  0  0  0  0  0
   44.2910   36.8730   43.6540 H   0  0  0  0  0  0  0  0  0  0  0  0
   46.0120   31.6790   45.1950 C   0  0  0  0  0  0  0  0  0  0  0  0
   45.7630   32.9960   45.5800 C   0  0  0  0  0  0  0  0  0  0  0  0
   45.4940   33.2720   46.8950 C   0  0  0  0  0  0  0  0  0  0  0  0
   45.4750   32.2460   47.8100 C   0  0  0  0  0  0  0  0  0  0  0  0
   45.2450   32.2190   49.1390 N   0  0  0  0  0  0  0  0  0  0  0  0
   45.3350   30.9690   49.6090 C   0  0  0  0  0  0  0  0  0  0  0  0
   45.6330   30.1320   48.5680 C   0  0  0  0  0  0  0  0  0  0  0  0
   45.7220   30.9320   47.4350 C   0  0  0  0  0  0  0  0  0  0  0  0
   45.9930   30.6480   46.1120 C   0  0  0  0  0  0  0  0  0  0  0  0
   46.2360   31.3540   44.1730 H   0  0  0  0  0  0  0  0  0  0  0  0
   45.3030   34.2970   47.1770 H   0  0  0  0  0  0  0  0  0  0  0  0
   45.0260   33.0560   49.7360 H   0  0  0  0  0  0  0  0  0  0  0  0
   45.1960   30.6550   50.6450 H   0  0  0  0  0  0  0  0  0  0  0  0
   45.7850   29.0450   48.5590 H   0  0  0  0  0  0  0  0  0  0  0  0
   46.1820   29.6130   45.8480 H   0  0  0  0  0  0  0  0  0  0  0  0
   47.6600   34.7410   41.4490 C   0  0  2  0  0  3  0  0  0  0  0  0
   48.6360   35.5620   41.2860 O   0  0  0  0  0  1  0  0  0  0  0  0
   47.3040   33.6190   40.5860 C   0  0  0  0  0  0  0  0  0  0  0  0
   46.6010   32.5140   41.0790 C   0  0  0  0  0  0  0  0  0  0  0  0
   46.3170   32.4940   42.1400 H   0  0  0  0  0  0  0  0  0  0  0  0
   46.2260   31.4230   40.3250 C   0  0  0  0  0  3  0  0  0  0  0  0
   46.5590   31.4030   38.9910 C   0  0  0  0  0  3  0  0  0  0  0  0
   47.2530   32.4630   38.4460 C   0  0  0  0  0  0  0  0  0  0  0  0
   47.5740   32.4150   37.1060 C   0  0  0  0  0  3  0  0  0  0  0  0
   48.2690   33.4480   36.5050 C   0  0  0  0  0  3  0  0  0  0  0  0
   48.6130   34.5070   37.3160 C   0  0  0  0  0  3  0  0  0  0  0  0
   48.2900   34.5520   38.6570 C   0  0  0  0  0  3  0  0  0  0  0  0
   47.5980   33.5240   39.2570 C   0  0  0  0  0  0  0  0  0  0  0  0
  1  6  1  0  0  0  0
  2  1  2  0  0  0  0
  2  3  1  0  0  0  0
  3  8  1  0  0  0  0
  3  4  2  0  0  0  0
  5  4  1  0  0  0  0
  5 10  1  0  0  0  0
  6  5  2  0  0  0  0
  7  2  1  0  0  0  0
  9 10  2  0  0  0  0
  9 17  1  0  0  0  0
 10 11  1  0  0  0  0
 11 19  1  0  0  0  0
 11 12  2  0  0  0  0
 12 13  1  0  0  0  0
 13 14  1  0  0  0  0
 13 20  1  0  0  0  0
 14 21  1  0  0  0  0
 15 14  2  0  0  0  0
 16 12  1  0  0  0  0
 16 15  1  0  0  0  0
 17 16  2  0  0  0  0
 18  9  1  0  0  0  0
 22 15  1  0  0  0  0
 23 17  1  0  0  0  0
 24 25  1  6  0  0  0
 24  1  1  0  0  0  0
 26 27  1  0  0  0  0
 26 24  1  0  0  0  0
 27 28  1  0  0  0  0
 29 27  2  0  0  0  0
 30 29  1  0  0  0  0
 31 30  2  0  0  0  0
 31 36  1  0  0  0  0
 32 31  1  0  0  0  0
 33 32  2  0  0  0  0
 33 34  1  0  0  0  0
 34 35  2  0  0  0  0
 35 36  1  0  0  0  0
 36 26  2  0  0  0  0
M  END
>  <minimizedAffinity>
-6.82385635

>  <minimizedRMSD>
0.572815835

$$$$
