
     RDKit          3D

 38 41  0  0  0  0  0  0  0  0999 V2000
   44.6735   35.3748   45.1409 C   0  0  0  0  0  0  0  0  0  0  0  0
   45.1350   35.6964   43.8354 C   0  0  0  0  0  0  0  0  0  0  0  0
   46.0869   34.8517   43.3393 C   0  0  0  0  0  0  0  0  0  0  0  0
   46.5551   33.7785   44.0628 N   0  0  0  0  0  0  0  0  0  0  0  0
   46.0914   33.5133   45.2927 C   0  0  0  0  0  0  0  0  0  0  0  0
   45.1407   34.3198   45.8368 N   0  0  0  0  0  0  0  0  0  0  0  0
   46.5837   35.0942   41.9322 C   0  0  1  0  0  0  0  0  0  0  0  0
   48.0990   35.2967   41.9160 C   0  0  0  0  0  0  0  0  0  0  0  0
   47.3348   34.0768   41.3090 C   0  0  2  0  0  0  0  0  0  0  0  0
   47.4015   33.8920   39.8159 C   0  0  0  0  0  0  0  0  0  0  0  0
   44.6564   36.8129   43.1280 N   0  0  0  0  0  0  0  0  0  0  0  0
   43.9146   35.9833   45.6120 H   0  0  0  0  0  0  0  0  0  0  0  0
   46.4725   32.6652   45.8510 H   0  0  0  0  0  0  0  0  0  0  0  0
   46.0569   35.8873   41.4057 H   0  0  0  0  0  0  0  0  0  0  0  0
   48.5224   35.9867   41.1465 H   0  0  0  0  0  0  0  0  0  0  0  0
   48.6771   35.1598   42.8226 H   0  0  0  0  0  0  0  0  0  0  0  0
   47.6574   33.1441   41.8763 H   0  0  0  0  0  0  0  0  0  0  0  0
   47.9818   32.9485   39.6138 H   0  0  0  0  0  0  0  0  0  0  0  0
   47.9762   34.7608   39.4661 H   0  0  0  0  0  0  0  0  0  0  0  0
   45.4536   37.4856   43.0297 H   0  0  0  0  0  0  0  0  0  0  0  0
   43.6576   36.9319   42.7680 H   0  0  0  0  0  0  0  0  0  0  0  0
   46.0780   33.7200   39.2137 C   0  0  0  0  0  0  0  0  0  0  0  0
   45.0445   34.3564   39.9160 C   0  0  0  0  0  0  0  0  0  0  0  0
   45.1695   34.8393   40.8788 H   0  0  0  0  0  0  0  0  0  0  0  0
   43.7603   34.4038   39.3856 C   0  0  0  0  0  0  0  0  0  0  0  0
   43.4357   33.8394   38.1687 C   0  0  0  0  0  0  0  0  0  0  0  0
   44.4279   33.2159   37.4830 C   0  0  0  0  0  0  0  0  0  0  0  0
   44.1468   32.5860   36.2727 C   0  0  0  0  0  0  0  0  0  0  0  0
   45.1747   31.9223   35.6340 C   0  0  0  0  0  0  0  0  0  0  0  0
   46.4498   31.8761   36.1633 C   0  0  0  0  0  0  0  0  0  0  0  0
   46.7012   32.5110   37.3612 C   0  0  0  0  0  0  0  0  0  0  0  0
   45.6670   33.1827   38.0139 C   0  0  0  0  0  0  0  0  0  0  0  0
   42.9353   34.8985   39.9012 H   0  0  0  0  0  0  0  0  0  0  0  0
   42.4552   33.8541   37.7134 H   0  0  0  0  0  0  0  0  0  0  0  0
   43.1330   32.6239   35.8540 H   0  0  0  0  0  0  0  0  0  0  0  0
   44.8676   31.4502   34.6903 H   0  0  0  0  0  0  0  0  0  0  0  0
   47.1859   31.3264   35.5855 H   0  0  0  0  0  0  0  0  0  0  0  0
   47.7011   32.4240   37.6977 H   0  0  0  0  0  0  0  0  0  0  0  0
  1  6  2  0
  2  1  1  0
  3  2  2  0
  3  4  1  0
  4  5  2  0
  5  6  1  0
  7  3  1  0
  8  7  1  0
  9  8  1  0
  9  7  1  0
 10  9  1  0
 11  2  1  0
  1 12  1  0
  5 13  1  0
  7 14  1  6
  8 15  1  0
  8 16  1  0
  9 17  1  1
 10 18  1  0
 10 19  1  0
 11 20  1  0
 11 21  1  0
 22 23  2  0
 23 24  1  0
 23 25  1  0
 25 26  2  0
 26 27  1  0
 27 28  2  0
 28 29  1  0
 29 30  2  0
 30 31  1  0
 31 32  2  0
 32 22  1  0
 32 27  1  0
 25 33  1  0
 26 34  1  0
 28 35  1  0
 29 36  1  0
 30 37  1  0
 31 38  1  0
 10 22  1  0
M  ISO  8  12  14  13  14  14  13  15  13  16  13  17  13  18   8  19   8
M  ISO  1  24  15
M  END
>  <DihAtoms>  (1) 
8,9,21,22

>  <DihDeg>  (1) 
-46.29226912365502

$$$$
