REMARK  Name = 
REMARK  7 active torsions:
REMARK  status: ('A' for Active; 'I' for Inactive)
REMARK    1  A    between atoms: C_1  and  C_8
REMARK    2  A    between atoms: C_4  and  C_12
REMARK    3  A    between atoms: C_14  and  O_15
REMARK    4  A    between atoms: O_15  and  P_17
REMARK    5  A    between atoms: P_17  and  O_18
REMARK    6  A    between atoms: P_17  and  O_19
REMARK    7  A    between atoms: O_19  and  C_36
REMARK                            x       y       z     vdW  Elec       q    Type
REMARK                         _______ _______ _______ _____ _____    ______ ____
ROOT
ATOM      1  C   UNL     1      49.128  32.208  40.569  0.00  0.00    +0.000 C 
ATOM      2  C   UNL     1      49.769  31.618  41.736  0.00  0.00    +0.000 C 
ATOM      3  C   UNL     1      50.551  31.883  40.489  0.00  0.00    +0.000 C 
ATOM      4  H   UNL     1      48.433  31.572  39.990  0.00  0.00    +0.000 HD
ATOM      5  H   UNL     1      50.061  32.290  42.581  0.00  0.00    +0.000 HD
ATOM      6  H   UNL     1      49.654  30.558  42.043  0.00  0.00    +0.000 HD
ATOM      7  H   UNL     1      51.212  32.737  40.324  0.00  0.00    +0.000 HD
ENDROOT
BRANCH   1  11
ATOM      8  C   UNL     1      47.066  34.816  41.956  0.00  0.00    +0.000 C 
ATOM      9  C   UNL     1      46.300  34.184  40.790  0.00  0.00    +0.000 C 
ATOM     10  C   UNL     1      47.499  34.000  39.834  0.00  0.00    +0.000 C 
ATOM     11  C   UNL     1      48.646  33.632  40.726  0.00  0.00    +0.000 C 
ATOM     12  C   UNL     1      48.141  33.780  42.130  0.00  0.00    +0.000 C 
ATOM     13  H   UNL     1      47.515  35.770  41.642  0.00  0.00    +0.000 HD
ATOM     14  H   UNL     1      45.940  33.212  41.140  0.00  0.00    +0.000 HD
ATOM     15  H   UNL     1      45.553  34.850  40.357  0.00  0.00    +0.000 HD
ATOM     16  H   UNL     1      47.255  33.218  39.091  0.00  0.00    +0.000 HD
ATOM     17  H   UNL     1      47.719  34.966  39.349  0.00  0.00    +0.000 HD
ATOM     18  H   UNL     1      49.523  34.311  40.598  0.00  0.00    +0.000 HD
ATOM     19  H   UNL     1      47.696  32.830  42.485  0.00  0.00    +0.000 HD
ATOM     20  H   UNL     1      48.927  34.073  42.857  0.00  0.00    +0.000 HD
BRANCH   8  23
ATOM     21  C   UNL     1      44.529  35.972  44.485  0.00  0.00    +0.000 A 
ATOM     22  C   UNL     1      45.263  35.958  43.306  0.00  0.00    +0.000 A 
ATOM     23  C   UNL     1      46.197  34.933  43.159  0.00  0.00    +0.000 A 
ATOM     24  N   UNL     1      46.366  33.978  44.169  0.00  0.00    +0.000 NA
ATOM     25  C   UNL     1      45.616  34.048  45.300  0.00  0.00    +0.000 A 
ATOM     26  N   UNL     1      44.702  35.042  45.454  0.00  0.00    +0.000 NA
ATOM     27  H   UNL     1      43.799  36.761  44.615  0.00  0.00    +0.000 HD
ATOM     28  H   UNL     1      45.154  36.681  42.512  0.00  0.00    +0.000 HD
ATOM     29  H   UNL     1      45.829  33.262  46.011  0.00  0.00    +0.000 HD
ENDBRANCH   8  23
ENDBRANCH   1  11
BRANCH   3  30
ATOM     30  O   UNL     1      50.917  30.761  39.703  0.00  0.00    +0.000 OA
BRANCH  30  32
ATOM     31  O   UNL     1      52.023  30.212  37.405  0.00  0.00    +0.000 OA
ATOM     32  P   UNL     1      51.874  31.305  38.433  0.00  0.00    +0.000 P 
BRANCH  32  33
ATOM     33  O   UNL     1      51.124  32.642  37.664  0.00  0.00    +0.000 OA
ATOM     34  H   UNL     1      50.587  32.327  36.903  0.00  0.00    +0.000 HD
ENDBRANCH  32  33
BRANCH  32  35
ATOM     35  O   UNL     1      53.392  31.807  38.892  0.00  0.00    +0.000 OA
BRANCH  35  36
ATOM     36  C   UNL     1      54.230  32.383  37.949  0.00  0.00    +0.000 A 
ATOM     37  C   UNL     1      54.327  33.721  37.634  0.00  0.00    +0.000 A 
ATOM     38  H   UNL     1      53.678  34.384  38.185  0.00  0.00    +0.000 HD
ATOM     39  C   UNL     1      55.202  34.178  36.673  0.00  0.00    +0.000 A 
ATOM     40  C   UNL     1      56.030  33.294  35.977  0.00  0.00    +0.000 A 
ATOM     41  C   UNL     1      55.946  31.951  36.279  0.00  0.00    +0.000 A 
ATOM     42  C   UNL     1      56.761  31.054  35.599  0.00  0.00    +0.000 A 
ATOM     43  C   UNL     1      56.706  29.688  35.875  0.00  0.00    +0.000 A 
ATOM     44  C   UNL     1      55.820  29.233  36.847  0.00  0.00    +0.000 A 
ATOM     45  C   UNL     1      55.041  30.162  37.486  0.00  0.00    +0.000 A 
ATOM     46  C   UNL     1      55.058  31.519  37.250  0.00  0.00    +0.000 A 
ENDBRANCH  35  36
ENDBRANCH  32  35
ENDBRANCH  30  32
ENDBRANCH   3  30
TORSDOF 7
