
 OpenBabel03252501333D

 26 28  0  0  0  0  0  0  0  0999 V2000
   38.6280   31.3100   39.7490 C   0  0  0  0  0  0  0  0  0  0  0  0
   38.5960   32.5840   39.8670 O   0  0  0  0  0  0  0  0  0  0  0  0
   39.8860   30.8390   39.2650 N   0  0  0  0  0  0  0  0  0  0  0  0
   40.0700   29.8300   39.0770 H   0  0  0  0  0  0  0  0  0  0  0  0
   37.5430   30.3810   40.0560 C   0  0  0  0  0  0  0  0  0  0  0  0
   36.5250   30.3390   39.1020 C   0  0  0  0  0  0  0  0  0  0  0  0
   36.5090   30.9370   38.1920 H   0  0  0  0  0  0  0  0  0  0  0  0
   35.4420   29.4800   39.3070 C   0  0  0  0  0  3  0  0  0  0  0  0
   35.4140   28.6960   40.4490 C   0  0  0  0  0  3  0  0  0  0  0  0
   36.4230   28.7350   41.4000 C   0  0  0  0  0  0  0  0  0  0  0  0
   36.4230   27.9640   42.5500 C   0  0  0  0  0  3  0  0  0  0  0  0
   37.4650   28.0560   43.4530 C   0  0  0  0  0  3  0  0  0  0  0  0
   38.5260   28.9100   43.2350 C   0  0  0  0  0  3  0  0  0  0  0  0
   38.5470   29.6980   42.0790 C   0  0  0  0  0  3  0  0  0  0  0  0
   37.4980   29.5950   41.1890 C   0  0  0  0  0  0  0  0  0  0  0  0
   40.7720   31.9670   39.1040 C   0  0  0  0  0  0  0  0  0  0  0  0
   40.8910   32.7560   37.9680 C   0  0  0  0  0  0  0  0  0  0  0  0
   41.7970   33.7970   37.9970 C   0  0  0  0  0  0  0  0  0  0  0  0
   42.5040   33.9730   39.1320 N   0  0  0  0  0  0  0  0  0  0  0  0
   42.3770   33.2010   40.2240 C   0  0  0  0  0  0  0  0  0  0  0  0
   41.4990   32.1730   40.2300 N   0  0  0  0  0  0  0  0  0  0  0  0
   41.8580   34.3750   37.1130 H   0  0  0  0  0  0  0  0  0  0  0  0
   42.9990   33.4500   41.0760 H   0  0  0  0  0  0  0  0  0  0  0  0
   40.0520   32.4050   36.8680 N   0  0  0  0  0  0  0  0  0  0  0  0
   40.7980   31.8660   36.3600 H   0  0  0  0  0  0  0  0  0  0  0  0
   39.0700   32.6000   36.6380 H   0  0  0  0  0  0  0  0  0  0  0  0
  1  2  2  0  0  0  0
  1  5  1  0  0  0  0
  3  1  1  0  0  0  0
  4  3  1  0  0  0  0
  5 15  1  0  0  0  0
  6  8  1  0  0  0  0
  6  5  2  0  0  0  0
  7  6  1  0  0  0  0
  8  9  2  0  0  0  0
  9 10  1  0  0  0  0
 10 11  1  0  0  0  0
 11 12  2  0  0  0  0
 13 12  1  0  0  0  0
 14 13  2  0  0  0  0
 15 10  2  0  0  0  0
 15 14  1  0  0  0  0
 16  3  1  0  0  0  0
 16 21  1  0  0  0  0
 17 18  1  0  0  0  0
 17 16  2  0  0  0  0
 18 19  2  0  0  0  0
 19 20  1  0  0  0  0
 20 21  2  0  0  0  0
 20 23  1  0  0  0  0
 22 18  1  0  0  0  0
 24 17  1  0  0  0  0
 25 24  1  0  0  0  0
 26 24  1  0  0  0  0
M  END
>  <minimizedAffinity>
-5.96450043

$$$$

 OpenBabel03252501333D

 26 28  0  0  0  0  0  0  0  0999 V2000
   38.5080   28.9930   41.7110 C   0  0  0  0  0  0  0  0  0  0  0  0
   37.5810   29.7470   42.1710 O   0  0  0  0  0  0  0  0  0  0  0  0
   39.1950   29.5850   40.6090 N   0  0  0  0  0  0  0  0  0  0  0  0
   39.9540   29.0900   40.0940 H   0  0  0  0  0  0  0  0  0  0  0  0
   38.8760   27.6690   42.2060 C   0  0  0  0  0  0  0  0  0  0  0  0
   39.9080   27.6650   43.1470 C   0  0  0  0  0  0  0  0  0  0  0  0
   40.4190   28.5580   43.5040 H   0  0  0  0  0  0  0  0  0  0  0  0
   40.3320   26.4450   43.6800 C   0  0  0  0  0  3  0  0  0  0  0  0
   39.7150   25.2780   43.2580 C   0  0  0  0  0  3  0  0  0  0  0  0
   38.6900   25.2770   42.3240 C   0  0  0  0  0  0  0  0  0  0  0  0
   38.0540   24.1280   41.8850 C   0  0  0  0  0  3  0  0  0  0  0  0
   37.0380   24.2050   40.9510 C   0  0  0  0  0  3  0  0  0  0  0  0
   36.6320   25.4190   40.4350 C   0  0  0  0  0  3  0  0  0  0  0  0
   37.2610   26.5920   40.8660 C   0  0  0  0  0  3  0  0  0  0  0  0
   38.2730   26.4970   41.7970 C   0  0  0  0  0  0  0  0  0  0  0  0
   38.6560   30.9040   40.3810 C   0  0  0  0  0  0  0  0  0  0  0  0
   39.0390   32.0670   41.0360 C   0  0  0  0  0  0  0  0  0  0  0  0
   38.4100   33.2440   40.6840 C   0  0  0  0  0  0  0  0  0  0  0  0
   37.4630   33.1780   39.7260 N   0  0  0  0  0  0  0  0  0  0  0  0
   37.1030   32.0450   39.1010 C   0  0  0  0  0  0  0  0  0  0  0  0
   37.6990   30.8740   39.4200 N   0  0  0  0  0  0  0  0  0  0  0  0
   38.7300   34.1070   41.2050 H   0  0  0  0  0  0  0  0  0  0  0  0
   36.3330   32.1260   38.3430 H   0  0  0  0  0  0  0  0  0  0  0  0
   40.0620   31.9250   42.0220 N   0  0  0  0  0  0  0  0  0  0  0  0
   39.3940   31.8950   42.8330 H   0  0  0  0  0  0  0  0  0  0  0  0
   41.0870   31.8700   41.9740 H   0  0  0  0  0  0  0  0  0  0  0  0
  1  2  2  0  0  0  0
  1  5  1  0  0  0  0
  3  1  1  0  0  0  0
  4  3  1  0  0  0  0
  5  6  1  0  0  0  0
  6  7  1  0  0  0  0
  6  8  2  0  0  0  0
  9  8  1  0  0  0  0
 10  9  2  0  0  0  0
 11 10  1  0  0  0  0
 12 11  2  0  0  0  0
 13 14  2  0  0  0  0
 13 12  1  0  0  0  0
 14 15  1  0  0  0  0
 15  5  2  0  0  0  0
 15 10  1  0  0  0  0
 16  3  1  0  0  0  0
 16 17  1  0  0  0  0
 17 24  1  0  0  0  0
 18 17  2  0  0  0  0
 18 22  1  0  0  0  0
 19 18  1  0  0  0  0
 20 21  1  0  0  0  0
 20 19  2  0  0  0  0
 21 16  2  0  0  0  0
 23 20  1  0  0  0  0
 24 25  1  0  0  0  0
 26 24  1  0  0  0  0
M  END
>  <minimizedAffinity>
-5.76913881

$$$$

 OpenBabel03252501333D

 26 28  0  0  0  0  0  0  0  0999 V2000
   38.1040   30.7990   39.0740 C   0  0  0  0  0  0  0  0  0  0  0  0
   39.2340   30.2130   39.2140 O   0  0  0  0  0  0  0  0  0  0  0  0
   38.2270   32.2210   39.0580 N   0  0  0  0  0  0  0  0  0  0  0  0
   37.4000   32.8520   38.9880 H   0  0  0  0  0  0  0  0  0  0  0  0
   36.8010   30.1540   38.9390 C   0  0  0  0  0  0  0  0  0  0  0  0
   36.1480   29.9010   40.1480 C   0  0  0  0  0  0  0  0  0  0  0  0
   36.5500   30.1510   41.1290 H   0  0  0  0  0  0  0  0  0  0  0  0
   34.8940   29.2860   40.1220 C   0  0  0  0  0  3  0  0  0  0  0  0
   34.3370   28.9470   38.8990 C   0  0  0  0  0  3  0  0  0  0  0  0
   34.9820   29.1950   37.6970 C   0  0  0  0  0  0  0  0  0  0  0  0
   34.4510   28.8690   36.4600 C   0  0  0  0  0  3  0  0  0  0  0  0
   35.1520   29.1480   35.3030 C   0  0  0  0  0  3  0  0  0  0  0  0
   36.3900   29.7570   35.3470 C   0  0  0  0  0  3  0  0  0  0  0  0
   36.9450   30.0960   36.5850 C   0  0  0  0  0  3  0  0  0  0  0  0
   36.2320   29.8080   37.7310 C   0  0  0  0  0  0  0  0  0  0  0  0
   39.6250   32.5670   39.1540 C   0  0  0  0  0  0  0  0  0  0  0  0
   40.5240   32.6350   38.0980 C   0  0  0  0  0  0  0  0  0  0  0  0
   41.8280   32.9840   38.3810 C   0  0  0  0  0  0  0  0  0  0  0  0
   42.1380   33.2340   39.6710 N   0  0  0  0  0  0  0  0  0  0  0  0
   41.2570   33.1640   40.6820 C   0  0  0  0  0  0  0  0  0  0  0  0
   39.9700   32.8250   40.4410 N   0  0  0  0  0  0  0  0  0  0  0  0
   42.4820   33.0260   37.5510 H   0  0  0  0  0  0  0  0  0  0  0  0
   41.6290   33.3950   41.6730 H   0  0  0  0  0  0  0  0  0  0  0  0
   39.9980   32.3330   36.8060 N   0  0  0  0  0  0  0  0  0  0  0  0
   40.3400   31.3390   36.8050 H   0  0  0  0  0  0  0  0  0  0  0  0
   39.4720   32.8790   36.1120 H   0  0  0  0  0  0  0  0  0  0  0  0
  1  2  2  0  0  0  0
  3  1  1  0  0  0  0
  3 16  1  0  0  0  0
  4  3  1  0  0  0  0
  5  1  1  0  0  0  0
  5  6  1  0  0  0  0
  6  7  1  0  0  0  0
  8  6  2  0  0  0  0
  9  8  1  0  0  0  0
 10 15  1  0  0  0  0
 10  9  2  0  0  0  0
 11 10  1  0  0  0  0
 12 13  1  0  0  0  0
 12 11  2  0  0  0  0
 13 14  2  0  0  0  0
 14 15  1  0  0  0  0
 15  5  2  0  0  0  0
 16 21  1  0  0  0  0
 17 18  1  0  0  0  0
 17 16  2  0  0  0  0
 18 19  2  0  0  0  0
 19 20  1  0  0  0  0
 20 23  1  0  0  0  0
 21 20  2  0  0  0  0
 22 18  1  0  0  0  0
 24 17  1  0  0  0  0
 25 24  1  0  0  0  0
 26 24  1  0  0  0  0
M  END
>  <minimizedAffinity>
-5.67838192

$$$$

 OpenBabel03252501333D

 26 28  0  0  0  0  0  0  0  0999 V2000
   39.8390   31.3520   40.1920 C   0  0  0  0  0  0  0  0  0  0  0  0
   39.9970   32.6180   40.2980 O   0  0  0  0  0  0  0  0  0  0  0  0
   40.7130   30.7730   39.2220 N   0  0  0  0  0  0  0  0  0  0  0  0
   40.6900   29.7590   38.9850 H   0  0  0  0  0  0  0  0  0  0  0  0
   38.8940   30.5280   40.9410 C   0  0  0  0  0  0  0  0  0  0  0  0
   39.3060   30.1990   42.2340 C   0  0  0  0  0  0  0  0  0  0  0  0
   40.2490   30.5150   42.6790 H   0  0  0  0  0  0  0  0  0  0  0  0
   38.4690   29.4130   43.0310 C   0  0  0  0  0  3  0  0  0  0  0  0
   37.2580   28.9850   42.5130 C   0  0  0  0  0  3  0  0  0  0  0  0
   36.8450   29.3090   41.2290 C   0  0  0  0  0  0  0  0  0  0  0  0
   35.6400   28.8960   40.6840 C   0  0  0  0  0  3  0  0  0  0  0  0
   35.2950   29.2590   39.3960 C   0  0  0  0  0  3  0  0  0  0  0  0
   36.1330   30.0370   38.6240 C   0  0  0  0  0  3  0  0  0  0  0  0
   37.3550   30.4640   39.1540 C   0  0  0  0  0  3  0  0  0  0  0  0
   37.6850   30.0920   40.4410 C   0  0  0  0  0  0  0  0  0  0  0  0
   41.5620   31.8100   38.6870 C   0  0  0  0  0  0  0  0  0  0  0  0
   41.2820   32.6080   37.5860 C   0  0  0  0  0  0  0  0  0  0  0  0
   42.2190   33.5530   37.2180 C   0  0  0  0  0  0  0  0  0  0  0  0
   43.3440   33.6320   37.9580 N   0  0  0  0  0  0  0  0  0  0  0  0
   43.6010   32.8520   39.0210 C   0  0  0  0  0  0  0  0  0  0  0  0
   42.7060   31.9170   39.4100 N   0  0  0  0  0  0  0  0  0  0  0  0
   41.9680   34.1410   36.3750 H   0  0  0  0  0  0  0  0  0  0  0  0
   44.5400   33.0190   39.5360 H   0  0  0  0  0  0  0  0  0  0  0  0
   40.0340   32.3670   36.9370 N   0  0  0  0  0  0  0  0  0  0  0  0
   40.4470   31.7680   36.1790 H   0  0  0  0  0  0  0  0  0  0  0  0
   39.0700   32.6650   37.1280 H   0  0  0  0  0  0  0  0  0  0  0  0
  1  2  2  0  0  0  0
  1  5  1  0  0  0  0
  3  1  1  0  0  0  0
  4  3  1  0  0  0  0
  5  6  1  0  0  0  0
  6  7  1  0  0  0  0
  6  8  2  0  0  0  0
  9  8  1  0  0  0  0
 10  9  2  0  0  0  0
 11 10  1  0  0  0  0
 12 11  2  0  0  0  0
 13 14  2  0  0  0  0
 13 12  1  0  0  0  0
 14 15  1  0  0  0  0
 15  5  2  0  0  0  0
 15 10  1  0  0  0  0
 16  3  1  0  0  0  0
 16 21  1  0  0  0  0
 17 16  2  0  0  0  0
 18 17  1  0  0  0  0
 18 19  2  0  0  0  0
 19 20  1  0  0  0  0
 20 21  2  0  0  0  0
 20 23  1  0  0  0  0
 22 18  1  0  0  0  0
 24 26  1  0  0  0  0
 24 17  1  0  0  0  0
 25 24  1  0  0  0  0
M  END
>  <minimizedAffinity>
-5.61143208

$$$$

 OpenBabel03252501333D

 26 28  0  0  0  0  0  0  0  0999 V2000
   37.1100   27.9500   40.0420 C   0  0  0  0  0  0  0  0  0  0  0  0
   38.2230   28.5820   40.0350 O   0  0  0  0  0  0  0  0  0  0  0  0
   36.0170   28.7680   39.6260 N   0  0  0  0  0  0  0  0  0  0  0  0
   35.0340   28.4200   39.6080 H   0  0  0  0  0  0  0  0  0  0  0  0
   36.9060   26.5540   40.4180 C   0  0  0  0  0  0  0  0  0  0  0  0
   37.1850   26.2640   41.7550 C   0  0  0  0  0  0  0  0  0  0  0  0
   37.5290   26.9950   42.4850 H   0  0  0  0  0  0  0  0  0  0  0  0
   37.0190   24.9530   42.2110 C   0  0  0  0  0  3  0  0  0  0  0  0
   36.5830   23.9840   41.3220 C   0  0  0  0  0  3  0  0  0  0  0  0
   36.3060   24.2670   39.9930 C   0  0  0  0  0  0  0  0  0  0  0  0
   35.8680   23.3190   39.0830 C   0  0  0  0  0  3  0  0  0  0  0  0
   35.6100   23.6760   37.7730 C   0  0  0  0  0  3  0  0  0  0  0  0
   35.7790   24.9760   37.3400 C   0  0  0  0  0  3  0  0  0  0  0  0
   36.2200   25.9490   38.2430 C   0  0  0  0  0  3  0  0  0  0  0  0
   36.4740   25.5750   39.5460 C   0  0  0  0  0  0  0  0  0  0  0  0
   36.5230   30.0710   39.2670 C   0  0  0  0  0  0  0  0  0  0  0  0
   36.4910   31.2080   40.0640 C   0  0  0  0  0  0  0  0  0  0  0  0
   37.0260   32.3720   39.5510 C   0  0  0  0  0  0  0  0  0  0  0  0
   37.5420   32.3210   38.3060 N   0  0  0  0  0  0  0  0  0  0  0  0
   37.5660   31.2140   37.5460 C   0  0  0  0  0  0  0  0  0  0  0  0
   37.0510   30.0560   38.0170 N   0  0  0  0  0  0  0  0  0  0  0  0
   36.9830   33.2150   40.1880 H   0  0  0  0  0  0  0  0  0  0  0  0
   38.0150   31.3020   36.5640 H   0  0  0  0  0  0  0  0  0  0  0  0
   35.9000   31.0540   41.3540 N   0  0  0  0  0  0  0  0  0  0  0  0
   34.9660   31.4410   41.0670 H   0  0  0  0  0  0  0  0  0  0  0  0
   36.2480   30.6960   42.2520 H   0  0  0  0  0  0  0  0  0  0  0  0
  1  5  1  0  0  0  0
  2  1  2  0  0  0  0
  3  1  1  0  0  0  0
  4  3  1  0  0  0  0
  5  6  1  0  0  0  0
  6  8  2  0  0  0  0
  6  7  1  0  0  0  0
  9  8  1  0  0  0  0
 10  9  2  0  0  0  0
 11 10  1  0  0  0  0
 12 11  2  0  0  0  0
 13 12  1  0  0  0  0
 13 14  2  0  0  0  0
 14 15  1  0  0  0  0
 15 10  1  0  0  0  0
 15  5  2  0  0  0  0
 16  3  1  0  0  0  0
 16 17  1  0  0  0  0
 17 24  1  0  0  0  0
 18 17  2  0  0  0  0
 18 22  1  0  0  0  0
 19 18  1  0  0  0  0
 20 21  1  0  0  0  0
 20 19  2  0  0  0  0
 21 16  2  0  0  0  0
 23 20  1  0  0  0  0
 24 26  1  0  0  0  0
 25 24  1  0  0  0  0
M  END
>  <minimizedAffinity>
-5.60801983

$$$$

 OpenBabel03252501333D

 26 28  0  0  0  0  0  0  0  0999 V2000
   36.8040   28.2480   39.0740 C   0  0  0  0  0  0  0  0  0  0  0  0
   37.9860   28.7140   39.2360 O   0  0  0  0  0  0  0  0  0  0  0  0
   35.8180   29.2780   39.0070 N   0  0  0  0  0  0  0  0  0  0  0  0
   34.8000   29.0720   38.9130 H   0  0  0  0  0  0  0  0  0  0  0  0
   36.4330   26.8410   38.9610 C   0  0  0  0  0  0  0  0  0  0  0  0
   35.8340   26.4920   37.7480 C   0  0  0  0  0  0  0  0  0  0  0  0
   35.6450   27.1880   36.9320 H   0  0  0  0  0  0  0  0  0  0  0  0
   35.4430   25.1660   37.5440 C   0  0  0  0  0  3  0  0  0  0  0  0
   35.6610   24.2400   38.5520 C   0  0  0  0  0  3  0  0  0  0  0  0
   36.2540   24.5820   39.7580 C   0  0  0  0  0  0  0  0  0  0  0  0
   36.4850   23.6780   40.7820 C   0  0  0  0  0  3  0  0  0  0  0  0
   37.0830   24.0930   41.9570 C   0  0  0  0  0  3  0  0  0  0  0  0
   37.4640   25.4060   42.1410 C   0  0  0  0  0  3  0  0  0  0  0  0
   37.2400   26.3350   41.1190 C   0  0  0  0  0  3  0  0  0  0  0  0
   36.6410   25.9050   39.9530 C   0  0  0  0  0  0  0  0  0  0  0  0
   36.4780   30.5590   39.0920 C   0  0  0  0  0  0  0  0  0  0  0  0
   36.5270   31.3800   40.2110 C   0  0  0  0  0  0  0  0  0  0  0  0
   37.2090   32.5750   40.1060 C   0  0  0  0  0  0  0  0  0  0  0  0
   37.7790   32.8610   38.9170 N   0  0  0  0  0  0  0  0  0  0  0  0
   37.7240   32.0560   37.8430 C   0  0  0  0  0  0  0  0  0  0  0  0
   37.0650   30.8780   37.9110 N   0  0  0  0  0  0  0  0  0  0  0  0
   37.2240   33.1720   40.9790 H   0  0  0  0  0  0  0  0  0  0  0  0
   38.2290   32.3980   36.9480 H   0  0  0  0  0  0  0  0  0  0  0  0
   35.8580   30.8960   41.3750 N   0  0  0  0  0  0  0  0  0  0  0  0
   34.9870   31.4610   41.2140 H   0  0  0  0  0  0  0  0  0  0  0  0
   36.1190   30.2330   42.1160 H   0  0  0  0  0  0  0  0  0  0  0  0
  1  2  2  0  0  0  0
  3  1  1  0  0  0  0
  3 16  1  0  0  0  0
  4  3  1  0  0  0  0
  5  1  1  0  0  0  0
  5 15  1  0  0  0  0
  6  5  2  0  0  0  0
  7  6  1  0  0  0  0
  8  6  1  0  0  0  0
  8  9  2  0  0  0  0
  9 10  1  0  0  0  0
 10 15  2  0  0  0  0
 10 11  1  0  0  0  0
 11 12  2  0  0  0  0
 12 13  1  0  0  0  0
 14 13  2  0  0  0  0
 15 14  1  0  0  0  0
 16 17  1  0  0  0  0
 17 24  1  0  0  0  0
 18 17  2  0  0  0  0
 18 22  1  0  0  0  0
 19 18  1  0  0  0  0
 20 21  1  0  0  0  0
 20 19  2  0  0  0  0
 21 16  2  0  0  0  0
 23 20  1  0  0  0  0
 24 26  1  0  0  0  0
 25 24  1  0  0  0  0
M  END
>  <minimizedAffinity>
-5.51460838

$$$$

 OpenBabel03252501333D

 26 28  0  0  0  0  0  0  0  0999 V2000
   38.9910   30.1890   41.0170 C   0  0  0  0  0  0  0  0  0  0  0  0
   40.2300   30.4780   41.1530 O   0  0  0  0  0  0  0  0  0  0  0  0
   38.3130   31.0960   40.1470 N   0  0  0  0  0  0  0  0  0  0  0  0
   37.2910   31.0270   39.9550 H   0  0  0  0  0  0  0  0  0  0  0  0
   38.2830   29.0780   41.6460 C   0  0  0  0  0  0  0  0  0  0  0  0
   37.9590   29.2800   42.9900 C   0  0  0  0  0  0  0  0  0  0  0  0
   38.2000   30.1800   43.5530 H   0  0  0  0  0  0  0  0  0  0  0  0
   37.2790   28.2720   43.6800 C   0  0  0  0  0  3  0  0  0  0  0  0
   36.9490   27.1060   43.0090 C   0  0  0  0  0  3  0  0  0  0  0  0
   37.2690   26.9010   41.6750 C   0  0  0  0  0  0  0  0  0  0  0  0
   36.9510   25.7460   40.9790 C   0  0  0  0  0  3  0  0  0  0  0  0
   37.3020   25.6130   39.6490 C   0  0  0  0  0  3  0  0  0  0  0  0
   37.9730   26.6190   38.9830 C   0  0  0  0  0  3  0  0  0  0  0  0
   38.3030   27.7940   39.6670 C   0  0  0  0  0  3  0  0  0  0  0  0
   37.9460   27.9100   40.9950 C   0  0  0  0  0  0  0  0  0  0  0  0
   39.2690   32.0490   39.6350 C   0  0  0  0  0  0  0  0  0  0  0  0
   39.5970   33.2680   40.2140 C   0  0  0  0  0  0  0  0  0  0  0  0
   40.5380   34.0520   39.5780 C   0  0  0  0  0  0  0  0  0  0  0  0
   41.0730   33.5750   38.4350 N   0  0  0  0  0  0  0  0  0  0  0  0
   40.7450   32.3930   37.8880 C   0  0  0  0  0  0  0  0  0  0  0  0
   39.8270   31.6000   38.4830 N   0  0  0  0  0  0  0  0  0  0  0  0
   40.7610   34.9720   40.0500 H   0  0  0  0  0  0  0  0  0  0  0  0
   41.2520   32.1210   36.9690 H   0  0  0  0  0  0  0  0  0  0  0  0
   38.9170   33.5910   41.4260 N   0  0  0  0  0  0  0  0  0  0  0  0
   38.2000   34.2020   40.9620 H   0  0  0  0  0  0  0  0  0  0  0  0
   39.0630   33.3290   42.4090 H   0  0  0  0  0  0  0  0  0  0  0  0
  1  2  2  0  0  0  0
  1  5  1  0  0  0  0
  3  1  1  0  0  0  0
  4  3  1  0  0  0  0
  5  6  1  0  0  0  0
  6  7  1  0  0  0  0
  6  8  2  0  0  0  0
  9  8  1  0  0  0  0
 10  9  2  0  0  0  0
 11 10  1  0  0  0  0
 12 11  2  0  0  0  0
 13 12  1  0  0  0  0
 13 14  2  0  0  0  0
 14 15  1  0  0  0  0
 15  5  2  0  0  0  0
 15 10  1  0  0  0  0
 16  3  1  0  0  0  0
 16 17  1  0  0  0  0
 17 24  1  0  0  0  0
 18 22  1  0  0  0  0
 18 17  2  0  0  0  0
 19 18  1  0  0  0  0
 20 19  2  0  0  0  0
 20 21  1  0  0  0  0
 21 16  2  0  0  0  0
 23 20  1  0  0  0  0
 24 26  1  0  0  0  0
 25 24  1  0  0  0  0
M  END
>  <minimizedAffinity>
-5.48269796

$$$$

 OpenBabel03252501333D

 26 28  0  0  0  0  0  0  0  0999 V2000
   38.3830   29.0870   40.8370 C   0  0  0  0  0  0  0  0  0  0  0  0
   39.1020   29.5900   39.9050 O   0  0  0  0  0  0  0  0  0  0  0  0
   37.6990   30.0850   41.5950 N   0  0  0  0  0  0  0  0  0  0  0  0
   37.0980   29.8500   42.4140 H   0  0  0  0  0  0  0  0  0  0  0  0
   38.2300   27.6680   41.1480 C   0  0  0  0  0  0  0  0  0  0  0  0
   37.1510   27.0460   40.5160 C   0  0  0  0  0  0  0  0  0  0  0  0
   36.4590   27.5490   39.8420 H   0  0  0  0  0  0  0  0  0  0  0  0
   36.9220   25.6880   40.7510 C   0  0  0  0  0  3  0  0  0  0  0  0
   37.7730   25.0010   41.6020 C   0  0  0  0  0  3  0  0  0  0  0  0
   38.8460   25.6150   42.2320 C   0  0  0  0  0  0  0  0  0  0  0  0
   39.7130   24.9550   43.0860 C   0  0  0  0  0  3  0  0  0  0  0  0
   40.7630   25.6330   43.6780 C   0  0  0  0  0  3  0  0  0  0  0  0
   40.9740   26.9750   43.4340 C   0  0  0  0  0  3  0  0  0  0  0  0
   40.1100   27.6610   42.5730 C   0  0  0  0  0  3  0  0  0  0  0  0
   39.0670   26.9690   41.9930 C   0  0  0  0  0  0  0  0  0  0  0  0
   37.9940   31.3800   41.0300 C   0  0  0  0  0  0  0  0  0  0  0  0
   39.0940   32.1710   41.3320 C   0  0  0  0  0  0  0  0  0  0  0  0
   39.2120   33.3870   40.6890 C   0  0  0  0  0  0  0  0  0  0  0  0
   38.2440   33.7200   39.8110 N   0  0  0  0  0  0  0  0  0  0  0  0
   37.1850   32.9430   39.5280 C   0  0  0  0  0  0  0  0  0  0  0  0
   37.0380   31.7460   40.1390 N   0  0  0  0  0  0  0  0  0  0  0  0
   40.0630   33.9590   40.9460 H   0  0  0  0  0  0  0  0  0  0  0  0
   36.4800   33.3220   38.7980 H   0  0  0  0  0  0  0  0  0  0  0  0
   40.0070   31.6380   42.2910 N   0  0  0  0  0  0  0  0  0  0  0  0
   39.6110   32.1840   43.0980 H   0  0  0  0  0  0  0  0  0  0  0  0
   40.7790   30.9630   42.2330 H   0  0  0  0  0  0  0  0  0  0  0  0
  1  5  1  0  0  0  0
  1  3  1  0  0  0  0
  2  1  2  0  0  0  0
  3  4  1  0  0  0  0
  5 15  1  0  0  0  0
  6  8  1  0  0  0  0
  6  5  2  0  0  0  0
  7  6  1  0  0  0  0
  8  9  2  0  0  0  0
  9 10  1  0  0  0  0
 10 11  1  0  0  0  0
 11 12  2  0  0  0  0
 13 12  1  0  0  0  0
 14 13  2  0  0  0  0
 15 10  2  0  0  0  0
 15 14  1  0  0  0  0
 16 17  1  0  0  0  0
 16  3  1  0  0  0  0
 17 24  1  0  0  0  0
 18 22  1  0  0  0  0
 18 17  2  0  0  0  0
 19 18  1  0  0  0  0
 20 19  2  0  0  0  0
 20 21  1  0  0  0  0
 21 16  2  0  0  0  0
 23 20  1  0  0  0  0
 24 25  1  0  0  0  0
 26 24  1  0  0  0  0
M  END
>  <minimizedAffinity>
-5.38912344

$$$$

 OpenBabel03252501333D

 26 28  0  0  0  0  0  0  0  0999 V2000
   37.7560   28.3010   40.4460 C   0  0  0  0  0  0  0  0  0  0  0  0
   37.3930   28.7680   39.3110 O   0  0  0  0  0  0  0  0  0  0  0  0
   38.2530   29.3160   41.3190 N   0  0  0  0  0  0  0  0  0  0  0  0
   38.6240   29.1030   42.2690 H   0  0  0  0  0  0  0  0  0  0  0  0
   37.6980   26.9050   40.8710 C   0  0  0  0  0  0  0  0  0  0  0  0
   36.9020   26.6710   41.9940 C   0  0  0  0  0  0  0  0  0  0  0  0
   36.3550   27.4430   42.5340 H   0  0  0  0  0  0  0  0  0  0  0  0
   36.7830   25.3650   42.4780 C   0  0  0  0  0  3  0  0  0  0  0  0
   37.4580   24.3450   41.8270 C   0  0  0  0  0  3  0  0  0  0  0  0
   38.2500   24.5730   40.7120 C   0  0  0  0  0  0  0  0  0  0  0  0
   38.9360   23.5740   40.0410 C   0  0  0  0  0  3  0  0  0  0  0  0
   39.7070   23.8770   38.9350 C   0  0  0  0  0  3  0  0  0  0  0  0
   39.8130   25.1730   38.4710 C   0  0  0  0  0  3  0  0  0  0  0  0
   39.1280   26.1970   39.1340 C   0  0  0  0  0  3  0  0  0  0  0  0
   38.3640   25.8770   40.2370 C   0  0  0  0  0  0  0  0  0  0  0  0
   38.1410   30.5930   40.6550 C   0  0  0  0  0  0  0  0  0  0  0  0
   37.0070   31.3940   40.6120 C   0  0  0  0  0  0  0  0  0  0  0  0
   37.0860   32.5890   39.9260 C   0  0  0  0  0  0  0  0  0  0  0  0
   38.2640   32.8940   39.3440 N   0  0  0  0  0  0  0  0  0  0  0  0
   39.3530   32.1080   39.3950 C   0  0  0  0  0  0  0  0  0  0  0  0
   39.3110   30.9310   40.0580 N   0  0  0  0  0  0  0  0  0  0  0  0
   36.2020   33.1700   39.9170 H   0  0  0  0  0  0  0  0  0  0  0  0
   40.2420   32.4700   38.8920 H   0  0  0  0  0  0  0  0  0  0  0  0
   35.8570   30.8920   41.2920 N   0  0  0  0  0  0  0  0  0  0  0  0
   35.4060   30.5070   40.4250 H   0  0  0  0  0  0  0  0  0  0  0  0
   35.5600   30.8970   42.2760 H   0  0  0  0  0  0  0  0  0  0  0  0
  1  5  1  0  0  0  0
  1  3  1  0  0  0  0
  2  1  2  0  0  0  0
  3  4  1  0  0  0  0
  5  6  1  0  0  0  0
  6  8  2  0  0  0  0
  6  7  1  0  0  0  0
  9  8  1  0  0  0  0
 10  9  2  0  0  0  0
 11 10  1  0  0  0  0
 12 11  2  0  0  0  0
 13 12  1  0  0  0  0
 13 14  2  0  0  0  0
 14 15  1  0  0  0  0
 15 10  1  0  0  0  0
 15  5  2  0  0  0  0
 16  3  1  0  0  0  0
 17 16  1  0  0  0  0
 17 24  1  0  0  0  0
 18 17  2  0  0  0  0
 19 20  2  0  0  0  0
 19 18  1  0  0  0  0
 20 21  1  0  0  0  0
 21 16  2  0  0  0  0
 22 18  1  0  0  0  0
 23 20  1  0  0  0  0
 24 26  1  0  0  0  0
 25 24  1  0  0  0  0
M  END
>  <minimizedAffinity>
-5.18732166

$$$$
