
 OpenBabel03242516343D

 46 50  0  0  1  0  0  0  0  0999 V2000
   49.1570   32.9840   38.0310 C   0  0  1  0  0  0  0  0  0  0  0  0
   48.3500   33.8650   39.1060 C   0  0  1  0  0  0  0  0  0  0  0  0
   47.2250   34.0380   38.3930 O   0  0  0  0  0  0  0  0  0  0  0  0
   46.8320   32.6920   38.2100 C   0  0  0  0  0  0  0  0  0  0  0  0
   48.0440   32.1330   37.4640 C   0  0  1  0  0  0  0  0  0  0  0  0
   49.9530   32.4580   38.5300 H   0  0  0  0  0  0  0  0  0  0  0  0
   49.0970   34.6280   39.3120 H   0  0  0  0  0  0  0  0  0  0  0  0
   46.6620   32.1750   39.1520 H   0  0  0  0  0  0  0  0  0  0  0  0
   45.9320   32.7000   37.5810 H   0  0  0  0  0  0  0  0  0  0  0  0
   48.1380   31.0880   37.8400 H   0  0  0  0  0  0  0  0  0  0  0  0
   49.5330   33.8850   37.0370 O   0  0  0  0  0  0  0  0  0  0  0  0
   49.1280   34.7740   37.1490 H   0  0  0  0  0  0  0  0  0  0  0  0
   48.1100   32.9630   40.1440 O   0  0  0  0  0  0  0  0  0  0  0  0
   48.2520   34.2860   42.1000 C   0  0  2  0  0  0  0  0  0  0  0  0
   47.0040   33.4990   42.5750 C   0  0  1  0  0  0  0  0  0  0  0  0
   47.6270   32.4530   43.1910 O   0  0  0  0  0  0  0  0  0  0  0  0
   48.5530   31.9920   42.2340 C   0  0  0  0  0  0  0  0  0  0  0  0
   48.8440   33.1680   41.2760 C   0  0  1  0  0  0  0  0  0  0  0  0
   47.9650   35.1690   41.5260 H   0  0  0  0  0  0  0  0  0  0  0  0
   46.4760   33.1280   41.6560 H   0  0  0  0  0  0  0  0  0  0  0  0
   49.4990   31.7910   42.7580 H   0  0  0  0  0  0  0  0  0  0  0  0
   48.1650   31.1430   41.6530 H   0  0  0  0  0  0  0  0  0  0  0  0
   49.9220   33.3220   41.1040 H   0  0  0  0  0  0  0  0  0  0  0  0
   44.7150   36.1000   44.1390 C   0  0  0  0  0  0  0  0  0  0  0  0
   45.5080   35.5060   43.1640 C   0  0  0  0  0  0  0  0  0  0  0  0
   46.1520   34.3210   43.4370 C   0  0  0  0  0  0  0  0  0  0  0  0
   45.9700   33.7840   44.6800 N   0  0  0  0  0  0  0  0  0  0  0  0
   45.1990   34.3700   45.6140 C   0  0  0  0  0  0  0  0  0  0  0  0
   44.5730   35.5230   45.3470 N   0  0  0  0  0  0  0  0  0  0  0  0
   44.2390   37.0310   43.8560 H   0  0  0  0  0  0  0  0  0  0  0  0
   45.6940   35.8740   42.1710 H   0  0  0  0  0  0  0  0  0  0  0  0
   45.0500   33.9550   46.5950 H   0  0  0  0  0  0  0  0  0  0  0  0
   49.1140   34.4990   43.1460 O   0  0  0  0  0  0  0  0  0  0  0  0
   49.0380   33.7320   43.7640 H   0  0  0  0  0  0  0  0  0  0  0  0
   47.8900   32.2900   36.1390 O   0  0  0  0  0  0  0  0  0  0  0  0
   47.8280   31.7480   34.9980 C   0  0  0  0  0  0  0  0  0  0  0  0
   47.0620   30.5720   35.1920 C   0  0  0  0  0  0  0  0  0  0  0  0
   46.5870   30.1420   36.0870 H   0  0  0  0  0  0  0  0  0  0  0  0
   46.7500   29.6640   34.1630 C   0  0  0  0  0  0  0  0  0  0  0  0
   47.2330   29.9620   32.9000 C   0  0  0  0  0  0  0  0  0  0  0  0
   47.9850   31.0790   32.6140 C   0  0  0  0  0  0  0  0  0  0  0  0
   48.4900   31.4260   31.3780 C   0  0  0  0  0  0  0  0  0  0  0  0
   49.2380   32.5730   31.1860 C   0  0  0  0  0  0  0  0  0  0  0  0
   49.4760   33.3930   32.2950 C   0  0  0  0  0  0  0  0  0  0  0  0
   48.9620   33.0250   33.5140 C   0  0  0  0  0  0  0  0  0  0  0  0
   48.2220   31.8880   33.7000 C   0  0  0  0  0  0  0  0  0  0  0  0
  1  6  1  1  0  0  0
  1  2  1  0  0  0  0
  2  7  1  1  0  0  0
  2 13  1  0  0  0  0
  3  2  1  0  0  0  0
  4  3  1  0  0  0  0
  4  8  1  0  0  0  0
  5 10  1  1  0  0  0
  5  1  1  0  0  0  0
  5  4  1  0  0  0  0
  9  4  1  0  0  0  0
 11 12  1  0  0  0  0
 11  1  1  0  0  0  0
 13 18  1  0  0  0  0
 14 19  1  6  0  0  0
 14 15  1  0  0  0  0
 14 33  1  0  0  0  0
 15 20  1  6  0  0  0
 15 16  1  0  0  0  0
 15 26  1  0  0  0  0
 17 21  1  0  0  0  0
 17 16  1  0  0  0  0
 18 23  1  6  0  0  0
 18 14  1  0  0  0  0
 18 17  1  0  0  0  0
 22 17  1  0  0  0  0
 24 29  1  0  0  0  0
 25 26  1  0  0  0  0
 25 24  2  0  0  0  0
 26 27  2  0  0  0  0
 27 28  1  0  0  0  0
 28 32  1  0  0  0  0
 29 28  2  0  0  0  0
 30 24  1  0  0  0  0
 31 25  1  0  0  0  0
 33 34  1  0  0  0  0
 35  5  1  0  0  0  0
 36 37  1  0  0  0  0
 36 35  1  0  0  0  0
 37 38  1  0  0  0  0
 39 37  2  0  0  0  0
 40 39  1  0  0  0  0
 41 40  2  0  0  0  0
 41 46  1  0  0  0  0
 42 41  1  0  0  0  0
 43 42  2  0  0  0  0
 43 44  1  0  0  0  0
 44 45  2  0  0  0  0
 45 46  1  0  0  0  0
 46 36  2  0  0  0  0
M  END
>  <minimizedAffinity>
-6.81477261

>  <minimizedRMSD>
2.34649158

$$$$
