
 OpenBabel03252504583D

 39 42  0  0  1  0  0  0  0  0999 V2000
   48.0130   34.0940   42.0680 N   0  0  0  0  0  0  0  0  0  0  0  0
   47.9850   35.0670   41.0410 C   0  0  0  0  0  0  0  0  0  0  0  0
   49.1110   35.9530   41.4090 C   0  0  0  0  0  0  0  0  0  0  0  0
   49.7850   35.3920   42.6480 C   0  0  0  0  0  0  0  0  0  0  0  0
   49.2900   33.9380   42.6330 C   0  0  2  0  0  0  0  0  0  0  0  0
   47.4500   35.3300   40.1670 H   0  0  0  0  0  0  0  0  0  0  0  0
   49.4970   36.8400   40.9440 H   0  0  0  0  0  0  0  0  0  0  0  0
   49.4580   35.9000   43.5530 H   0  0  0  0  0  0  0  0  0  0  0  0
   50.8710   35.3910   42.4530 H   0  0  0  0  0  0  0  0  0  0  0  0
   49.2790   33.4690   43.6130 H   0  0  0  0  0  0  0  0  0  0  0  0
   46.8550   33.4510   42.4280 C   0  0  0  0  0  0  0  0  0  0  0  0
   47.1220   32.3910   42.6770 H   0  0  0  0  0  0  0  0  0  0  0  0
   46.1170   33.3080   41.6070 H   0  0  0  0  0  0  0  0  0  0  0  0
   44.6430   35.6930   44.5290 C   0  0  0  0  0  0  0  0  0  0  0  0
   45.3450   35.2140   43.3870 C   0  0  0  0  0  0  0  0  0  0  0  0
   46.1180   34.0610   43.5150 C   0  0  0  0  0  0  0  0  0  0  0  0
   46.1470   33.4700   44.7290 N   0  0  0  0  0  0  0  0  0  0  0  0
   45.4620   33.9450   45.8270 C   0  0  0  0  0  0  0  0  0  0  0  0
   44.7180   35.0460   45.7220 N   0  0  0  0  0  0  0  0  0  0  0  0
   44.0500   36.5690   44.4480 H   0  0  0  0  0  0  0  0  0  0  0  0
   45.2960   35.7110   42.4410 H   0  0  0  0  0  0  0  0  0  0  0  0
   45.5490   33.3990   46.7630 H   0  0  0  0  0  0  0  0  0  0  0  0
   50.0700   33.2710   41.6760 O   0  0  0  0  0  0  0  0  0  0  0  0
   49.4540   31.1270   43.1240 O   0  0  0  0  0  0  0  0  0  0  0  0
   50.1000   31.6240   41.8490 P   0  0  2  0  0  0  0  0  0  0  0  0
   51.7230   31.1270   41.8900 O   0  0  0  0  0  0  0  0  0  0  0  0
   52.0660   31.2070   40.9520 H   0  0  0  0  0  0  0  0  0  0  0  0
   49.4150   30.8460   40.4850 O   0  0  0  0  0  0  0  0  0  0  0  0
   48.1120   30.9490   40.0870 C   0  0  0  0  0  0  0  0  0  0  0  0
   47.0020   30.2950   40.5200 C   0  0  0  0  0  0  0  0  0  0  0  0
   47.1890   29.5790   41.3090 H   0  0  0  0  0  0  0  0  0  0  0  0
   45.7420   30.5160   40.0110 C   0  0  0  0  0  3  0  0  0  0  0  0
   45.5540   31.4470   39.0010 C   0  0  0  0  0  3  0  0  0  0  0  0
   46.6720   32.1260   38.5440 C   0  0  0  0  0  0  0  0  0  0  0  0
   46.4140   33.0380   37.5370 C   0  0  0  0  0  3  0  0  0  0  0  0
   47.4580   33.7570   37.0210 C   0  0  0  0  0  3  0  0  0  0  0  0
   48.7100   33.5520   37.5130 C   0  0  0  0  0  3  0  0  0  0  0  0
   48.9750   32.6440   38.5170 C   0  0  0  0  0  3  0  0  0  0  0  0
   47.9380   31.8920   39.0690 C   0  0  0  0  0  0  0  0  0  0  0  0
  1 11  1  0  0  0  0
  1  5  1  0  0  0  0
  2  3  2  0  0  0  0
  2  1  1  0  0  0  0
  3  4  1  0  0  0  0
  4  8  1  0  0  0  0
  5  4  1  0  0  0  0
  5 10  1  1  0  0  0
  6  2  1  0  0  0  0
  7  3  1  0  0  0  0
  9  4  1  0  0  0  0
 11 12  1  0  0  0  0
 11 16  1  0  0  0  0
 13 11  1  0  0  0  0
 14 19  1  0  0  0  0
 15 16  1  0  0  0  0
 15 14  2  0  0  0  0
 16 17  2  0  0  0  0
 17 18  1  0  0  0  0
 18 22  1  0  0  0  0
 19 18  2  0  0  0  0
 20 14  1  0  0  0  0
 21 15  1  0  0  0  0
 23 25  1  0  0  0  0
 23  5  1  0  0  0  0
 25 26  1  0  0  0  0
 25 24  2  1  0  0  0
 27 26  1  0  0  0  0
 28 25  1  0  0  0  0
 29 28  1  0  0  0  0
 29 30  1  0  0  0  0
 30 31  1  0  0  0  0
 32 30  2  0  0  0  0
 33 32  1  0  0  0  0
 34 33  2  0  0  0  0
 34 39  1  0  0  0  0
 35 34  1  0  0  0  0
 36 37  1  0  0  0  0
 36 35  2  0  0  0  0
 37 38  2  0  0  0  0
 38 39  1  0  0  0  0
 39 29  2  0  0  0  0
M  END
>  <minimizedAffinity>
-5.23121405

>  <minimizedRMSD>
1.65409553

$$$$
