REMARK  Name = 
REMARK  6 active torsions:
REMARK  status: ('A' for Active; 'I' for Inactive)
REMARK    1  A    between atoms: C_1  and  O_19
REMARK    2  A    between atoms: C_2  and  C_15
REMARK    3  A    between atoms: C_5  and  C_9
REMARK    4  A    between atoms: C_13  and  C_14
REMARK    5  A    between atoms: C_14  and  C_30
REMARK    6  A    between atoms: O_19  and  C_20
REMARK                            x       y       z     vdW  Elec       q    Type
REMARK                         _______ _______ _______ _____ _____    ______ ____
ROOT
ATOM      1  F   UNL     1      47.676  29.933  44.824  0.00  0.00    +0.000 F 
ATOM      2  C   UNL     1      47.595  30.658  45.986  0.00  0.00    +0.000 A 
ATOM      3  C   UNL     1      47.029  31.918  45.973  0.00  0.00    +0.000 A 
ATOM      4  C   UNL     1      46.992  32.573  47.193  0.00  0.00    +0.000 A 
ATOM      5  C   UNL     1      47.492  31.997  48.337  0.00  0.00    +0.000 A 
ATOM      6  C   UNL     1      48.047  30.733  48.283  0.00  0.00    +0.000 A 
ATOM      7  C   UNL     1      48.112  30.025  47.092  0.00  0.00    +0.000 A 
ATOM      8  H   UNL     1      46.548  33.559  47.179  0.00  0.00    +0.000 HD
ATOM      9  H   UNL     1      47.437  32.555  49.268  0.00  0.00    +0.000 HD
ATOM     10  H   UNL     1      48.444  30.259  49.165  0.00  0.00    +0.000 HD
ENDROOT
BRANCH   3  15
ATOM     11  C   UNL     1      46.813  34.117  43.058  0.00  0.00    +0.000 A 
ATOM     12  C   UNL     1      45.635  33.711  42.428  0.00  0.00    +0.000 A 
ATOM     13  C   UNL     1      44.918  32.661  43.029  0.00  0.00    +0.000 A 
ATOM     14  N   UNL     1      45.377  32.097  44.161  0.00  0.00    +0.000 NA
ATOM     15  C   UNL     1      46.510  32.515  44.735  0.00  0.00    +0.000 A 
ATOM     16  N   UNL     1      47.234  33.522  44.193  0.00  0.00    +0.000 NA
ATOM     17  H   UNL     1      44.020  32.371  42.523  0.00  0.00    +0.000 HD
BRANCH  12  18
ATOM     18  C   UNL     1      45.203  34.380  41.195  0.00  0.00    +0.000 C 
ATOM     19  F   UNL     1      44.907  35.710  41.449  0.00  0.00    +0.000 F 
ATOM     20  F   UNL     1      46.271  34.371  40.310  0.00  0.00    +0.000 F 
ATOM     21  F   UNL     1      44.136  33.822  40.579  0.00  0.00    +0.000 F 
ENDBRANCH  12  18
BRANCH  11  22
ATOM     22  O   UNL     1      47.510  35.123  42.486  0.00  0.00    +0.000 OA
BRANCH  22  23
ATOM     23  C   UNL     1      48.815  35.057  41.956  0.00  0.00    +0.000 C 
ATOM     24  F   UNL     1      49.693  35.286  42.996  0.00  0.00    +0.000 F 
ATOM     25  F   UNL     1      49.003  33.838  41.352  0.00  0.00    +0.000 F 
ATOM     26  F   UNL     1      49.006  36.103  41.082  0.00  0.00    +0.000 F 
ENDBRANCH  22  23
ENDBRANCH  11  22
ENDBRANCH   3  15
BRANCH   7  27
ATOM     27  C   UNL     1      48.699  28.648  47.022  0.00  0.00    +0.000 C 
ATOM     28  H   UNL     1      48.741  28.174  47.999  0.00  0.00    +0.000 HD
ATOM     29  H   UNL     1      47.962  28.086  46.374  0.00  0.00    +0.000 HD
BRANCH  27  30
ATOM     30  C   UNL     1      50.010  28.677  46.306  0.00  0.00    +0.000 A 
ATOM     31  C   UNL     1      50.016  29.109  44.997  0.00  0.00    +0.000 A 
ATOM     32  H   UNL     1      49.102  29.458  44.511  0.00  0.00    +0.000 HD
ATOM     33  C   UNL     1      51.205  29.088  44.314  0.00  0.00    +0.000 A 
ATOM     34  C   UNL     1      52.406  28.666  44.839  0.00  0.00    +0.000 A 
ATOM     35  C   UNL     1      52.367  28.238  46.162  0.00  0.00    +0.000 A 
ATOM     36  C   UNL     1      53.536  27.811  46.754  0.00  0.00    +0.000 A 
ATOM     37  C   UNL     1      53.599  27.371  48.082  0.00  0.00    +0.000 A 
ATOM     38  C   UNL     1      52.371  27.419  48.711  0.00  0.00    +0.000 A 
ATOM     39  C   UNL     1      51.161  27.825  48.205  0.00  0.00    +0.000 A 
ATOM     40  C   UNL     1      51.191  28.243  46.883  0.00  0.00    +0.000 A 
ENDBRANCH  27  30
ENDBRANCH   7  27
TORSDOF 6
