
 OpenBabel03252504583D

 39 42  0  0  1  0  0  0  0  0999 V2000
   47.9240   34.0700   41.9740 N   0  0  0  0  0  0  0  0  0  0  0  0
   47.9820   34.9320   40.8540 C   0  0  0  0  0  0  0  0  0  0  0  0
   49.1020   35.8340   41.2020 C   0  0  0  0  0  0  0  0  0  0  0  0
   49.6840   35.3930   42.5330 C   0  0  0  0  0  0  0  0  0  0  0  0
   49.1590   33.9530   42.6340 C   0  0  2  0  0  0  0  0  0  0  0  0
   47.5090   35.1130   39.9250 H   0  0  0  0  0  0  0  0  0  0  0  0
   49.5360   36.6620   40.6760 H   0  0  0  0  0  0  0  0  0  0  0  0
   49.3120   35.9960   43.3580 H   0  0  0  0  0  0  0  0  0  0  0  0
   50.7800   35.3540   42.4100 H   0  0  0  0  0  0  0  0  0  0  0  0
   49.0760   33.5870   43.6530 H   0  0  0  0  0  0  0  0  0  0  0  0
   46.7310   33.4860   42.3210 C   0  0  0  0  0  0  0  0  0  0  0  0
   46.9410   32.4110   42.5630 H   0  0  0  0  0  0  0  0  0  0  0  0
   45.9920   33.3890   41.4950 H   0  0  0  0  0  0  0  0  0  0  0  0
   44.5890   35.7980   44.4180 C   0  0  0  0  0  0  0  0  0  0  0  0
   45.2680   35.2900   43.2740 C   0  0  0  0  0  0  0  0  0  0  0  0
   46.0200   34.1240   43.4090 C   0  0  0  0  0  0  0  0  0  0  0  0
   46.0540   33.5500   44.6300 N   0  0  0  0  0  0  0  0  0  0  0  0
   45.3920   34.0530   45.7300 C   0  0  0  0  0  0  0  0  0  0  0  0
   44.6680   35.1660   45.6200 N   0  0  0  0  0  0  0  0  0  0  0  0
   44.0120   36.6840   44.3330 H   0  0  0  0  0  0  0  0  0  0  0  0
   45.2150   35.7750   42.3230 H   0  0  0  0  0  0  0  0  0  0  0  0
   45.4820   33.5190   46.6730 H   0  0  0  0  0  0  0  0  0  0  0  0
   49.9830   33.1790   41.8020 O   0  0  0  0  0  0  0  0  0  0  0  0
   49.1210   31.1880   43.3400 O   0  0  0  0  0  0  0  0  0  0  0  0
   50.0570   31.5760   42.2170 P   0  0  2  0  0  0  0  0  0  0  0  0
   51.6350   31.2410   42.7480 O   0  0  0  0  0  0  0  0  0  0  0  0
   52.2120   31.2330   41.9290 H   0  0  0  0  0  0  0  0  0  0  0  0
   49.8080   30.5710   40.8520 O   0  0  0  0  0  0  0  0  0  0  0  0
   49.4840   31.0070   39.5980 C   0  0  0  0  0  0  0  0  0  0  0  0
   48.3560   31.6110   39.1380 C   0  0  0  0  0  0  0  0  0  0  0  0
   47.5980   31.7680   39.8930 H   0  0  0  0  0  0  0  0  0  0  0  0
   48.1800   31.9940   37.8280 C   0  0  0  0  0  3  0  0  0  0  0  0
   49.1830   31.7700   36.8980 C   0  0  0  0  0  3  0  0  0  0  0  0
   50.3410   31.1560   37.3430 C   0  0  0  0  0  0  0  0  0  0  0  0
   51.2990   30.9640   36.3650 C   0  0  0  0  0  3  0  0  0  0  0  0
   52.4780   30.3630   36.7130 C   0  0  0  0  0  3  0  0  0  0  0  0
   52.6710   29.9780   38.0030 C   0  0  0  0  0  3  0  0  0  0  0  0
   51.7200   30.1670   38.9850 C   0  0  0  0  0  3  0  0  0  0  0  0
   50.5050   30.7750   38.6710 C   0  0  0  0  0  0  0  0  0  0  0  0
  1 11  1  0  0  0  0
  1  5  1  0  0  0  0
  2  3  2  0  0  0  0
  2  1  1  0  0  0  0
  3  4  1  0  0  0  0
  4  5  1  0  0  0  0
  4  8  1  0  0  0  0
  5 10  1  1  0  0  0
  6  2  1  0  0  0  0
  7  3  1  0  0  0  0
  9  4  1  0  0  0  0
 11 12  1  0  0  0  0
 11 16  1  0  0  0  0
 13 11  1  0  0  0  0
 14 19  1  0  0  0  0
 15 16  1  0  0  0  0
 15 14  2  0  0  0  0
 16 17  2  0  0  0  0
 17 18  1  0  0  0  0
 18 22  1  0  0  0  0
 19 18  2  0  0  0  0
 20 14  1  0  0  0  0
 21 15  1  0  0  0  0
 23 25  1  0  0  0  0
 23  5  1  0  0  0  0
 25 26  1  0  0  0  0
 25 24  2  1  0  0  0
 27 26  1  0  0  0  0
 28 25  1  0  0  0  0
 29 28  1  0  0  0  0
 30 29  1  0  0  0  0
 30 31  1  0  0  0  0
 32 30  2  0  0  0  0
 33 34  2  0  0  0  0
 33 32  1  0  0  0  0
 34 39  1  0  0  0  0
 35 36  2  0  0  0  0
 35 34  1  0  0  0  0
 36 37  1  0  0  0  0
 37 38  2  0  0  0  0
 39 38  1  0  0  0  0
 39 29  2  0  0  0  0
M  END
>  <minimizedAffinity>
-5.22664356

>  <minimizedRMSD>
2.12491322

$$$$
