
 OpenBabel03252505003D

 39 42  0  0  1  0  0  0  0  0999 V2000
   39.4770   32.7510   39.7250 N   0  0  0  0  0  0  0  0  0  0  0  0
   38.9660   33.9990   40.1490 C   0  0  0  0  0  0  0  0  0  0  0  0
   37.5500   33.9260   39.7260 C   0  0  0  0  0  0  0  0  0  0  0  0
   37.3010   32.5650   39.1010 C   0  0  0  0  0  0  0  0  0  0  0  0
   38.4880   31.7560   39.6470 C   0  0  2  0  0  0  0  0  0  0  0  0
   39.2630   34.8910   40.6350 H   0  0  0  0  0  0  0  0  0  0  0  0
   36.7450   34.6290   39.8180 H   0  0  0  0  0  0  0  0  0  0  0  0
   37.3310   32.6060   38.0150 H   0  0  0  0  0  0  0  0  0  0  0  0
   36.3740   32.1680   39.5500 H   0  0  0  0  0  0  0  0  0  0  0  0
   38.7650   30.9110   39.0230 H   0  0  0  0  0  0  0  0  0  0  0  0
   40.8080   32.6320   39.4100 C   0  0  0  0  0  0  0  0  0  0  0  0
   41.0490   33.4290   38.6600 H   0  0  0  0  0  0  0  0  0  0  0  0
   41.0830   31.7090   38.8510 H   0  0  0  0  0  0  0  0  0  0  0  0
   43.4560   33.6840   41.9030 C   0  0  0  0  0  0  0  0  0  0  0  0
   42.6370   33.7250   40.7390 C   0  0  0  0  0  0  0  0  0  0  0  0
   41.7200   32.6950   40.5330 C   0  0  0  0  0  0  0  0  0  0  0  0
   41.6710   31.7180   41.4630 N   0  0  0  0  0  0  0  0  0  0  0  0
   42.4710   31.6910   42.5860 C   0  0  0  0  0  0  0  0  0  0  0  0
   43.3530   32.6670   42.7990 N   0  0  0  0  0  0  0  0  0  0  0  0
   44.1590   34.4600   42.0750 H   0  0  0  0  0  0  0  0  0  0  0  0
   42.7070   34.5180   40.0240 H   0  0  0  0  0  0  0  0  0  0  0  0
   42.3580   30.8600   43.2780 H   0  0  0  0  0  0  0  0  0  0  0  0
   38.1540   31.4210   40.9680 O   0  0  0  0  0  0  0  0  0  0  0  0
   36.9050   29.3570   39.8490 O   0  0  0  0  0  0  0  0  0  0  0  0
   37.0500   30.1930   41.1020 P   0  0  2  0  0  0  0  0  0  0  0  0
   35.5310   30.8810   41.4170 O   0  0  0  0  0  0  0  0  0  0  0  0
   35.5550   31.1940   42.3680 H   0  0  0  0  0  0  0  0  0  0  0  0
   37.3930   29.1970   42.4530 O   0  0  0  0  0  0  0  0  0  0  0  0
   38.5440   28.4840   42.6380 C   0  0  0  0  0  0  0  0  0  0  0  0
   39.8090   28.9030   42.9100 C   0  0  0  0  0  0  0  0  0  0  0  0
   39.9110   29.9770   42.9910 H   0  0  0  0  0  0  0  0  0  0  0  0
   40.8750   28.0480   43.0700 C   0  0  0  0  0  3  0  0  0  0  0  0
   40.6910   26.6790   42.9560 C   0  0  0  0  0  3  0  0  0  0  0  0
   39.4100   26.2280   42.6790 C   0  0  0  0  0  0  0  0  0  0  0  0
   39.2980   24.8540   42.5790 C   0  0  0  0  0  3  0  0  0  0  0  0
   38.0690   24.3150   42.3080 C   0  0  0  0  0  3  0  0  0  0  0  0
   37.0030   25.1450   42.1460 C   0  0  0  0  0  3  0  0  0  0  0  0
   37.1080   26.5170   42.2440 C   0  0  0  0  0  3  0  0  0  0  0  0
   38.3430   27.1040   42.5200 C   0  0  0  0  0  0  0  0  0  0  0  0
  1  2  1  0  0  0  0
  2  6  1  0  0  0  0
  3  7  1  0  0  0  0
  3  2  2  0  0  0  0
  4  9  1  0  0  0  0
  4  5  1  0  0  0  0
  4  3  1  0  0  0  0
  5 10  1  6  0  0  0
  5  1  1  0  0  0  0
  5 23  1  0  0  0  0
  8  4  1  0  0  0  0
 11  1  1  0  0  0  0
 11 16  1  0  0  0  0
 12 11  1  0  0  0  0
 13 11  1  0  0  0  0
 14 20  1  0  0  0  0
 14 19  1  0  0  0  0
 15 14  2  0  0  0  0
 16 15  1  0  0  0  0
 16 17  2  0  0  0  0
 17 18  1  0  0  0  0
 18 19  2  0  0  0  0
 18 22  1  0  0  0  0
 21 15  1  0  0  0  0
 23 25  1  0  0  0  0
 25 24  2  6  0  0  0
 25 26  1  0  0  0  0
 25 28  1  0  0  0  0
 26 27  1  0  0  0  0
 28 29  1  0  0  0  0
 29 30  1  0  0  0  0
 30 31  1  0  0  0  0
 30 32  2  0  0  0  0
 33 32  1  0  0  0  0
 34 33  2  0  0  0  0
 35 34  1  0  0  0  0
 36 35  2  0  0  0  0
 37 38  2  0  0  0  0
 37 36  1  0  0  0  0
 38 39  1  0  0  0  0
 39 29  2  0  0  0  0
 39 34  1  0  0  0  0
M  END
>  <minimizedAffinity>
-6.67400885

$$$$

 OpenBabel03252505003D

 39 42  0  0  1  0  0  0  0  0999 V2000
   39.4990   32.8990   39.7740 N   0  0  0  0  0  0  0  0  0  0  0  0
   38.9910   34.1610   40.1610 C   0  0  0  0  0  0  0  0  0  0  0  0
   37.5880   34.0970   39.6950 C   0  0  0  0  0  0  0  0  0  0  0  0
   37.3410   32.7280   39.0870 C   0  0  0  0  0  0  0  0  0  0  0  0
   38.5000   31.9150   39.6840 C   0  0  2  0  0  0  0  0  0  0  0  0
   39.2830   35.0580   40.6390 H   0  0  0  0  0  0  0  0  0  0  0  0
   36.7880   34.8100   39.7510 H   0  0  0  0  0  0  0  0  0  0  0  0
   37.4040   32.7490   38.0020 H   0  0  0  0  0  0  0  0  0  0  0  0
   36.3960   32.3490   39.5150 H   0  0  0  0  0  0  0  0  0  0  0  0
   38.7860   31.0560   39.0840 H   0  0  0  0  0  0  0  0  0  0  0  0
   40.8380   32.7590   39.5020 C   0  0  0  0  0  0  0  0  0  0  0  0
   41.1350   33.6050   38.8290 H   0  0  0  0  0  0  0  0  0  0  0  0
   41.1050   31.8750   38.8810 H   0  0  0  0  0  0  0  0  0  0  0  0
   42.6140   31.7170   42.6780 C   0  0  0  0  0  0  0  0  0  0  0  0
   41.6850   31.6710   41.6000 C   0  0  0  0  0  0  0  0  0  0  0  0
   41.7040   32.7000   40.6600 C   0  0  0  0  0  0  0  0  0  0  0  0
   42.6140   33.6820   40.8390 N   0  0  0  0  0  0  0  0  0  0  0  0
   43.5080   33.7130   41.8890 C   0  0  0  0  0  0  0  0  0  0  0  0
   43.5040   32.7380   42.7960 N   0  0  0  0  0  0  0  0  0  0  0  0
   42.6130   30.9410   43.4020 H   0  0  0  0  0  0  0  0  0  0  0  0
   40.9790   30.8750   41.4940 H   0  0  0  0  0  0  0  0  0  0  0  0
   44.2020   34.5480   41.9470 H   0  0  0  0  0  0  0  0  0  0  0  0
   38.1230   31.6080   41.0000 O   0  0  0  0  0  0  0  0  0  0  0  0
   37.0370   29.4530   39.8820 O   0  0  0  0  0  0  0  0  0  0  0  0
   37.1100   30.3030   41.1310 P   0  0  2  0  0  0  0  0  0  0  0  0
   35.5420   30.8810   41.4300 O   0  0  0  0  0  0  0  0  0  0  0  0
   35.5350   31.2000   42.3790 H   0  0  0  0  0  0  0  0  0  0  0  0
   37.5120   29.3420   42.4910 O   0  0  0  0  0  0  0  0  0  0  0  0
   37.7140   27.9900   42.4720 C   0  0  0  0  0  0  0  0  0  0  0  0
   36.8420   26.9690   42.2570 C   0  0  0  0  0  0  0  0  0  0  0  0
   35.8250   27.2880   42.0720 H   0  0  0  0  0  0  0  0  0  0  0  0
   37.2070   25.6430   42.2710 C   0  0  0  0  0  3  0  0  0  0  0  0
   38.5240   25.2860   42.5130 C   0  0  0  0  0  3  0  0  0  0  0  0
   39.4310   26.3100   42.7350 C   0  0  0  0  0  0  0  0  0  0  0  0
   40.7260   25.8850   42.9690 C   0  0  0  0  0  3  0  0  0  0  0  0
   41.6930   26.8270   43.1980 C   0  0  0  0  0  3  0  0  0  0  0  0
   41.3510   28.1440   43.1890 C   0  0  0  0  0  3  0  0  0  0  0  0
   40.0610   28.5740   42.9560 C   0  0  0  0  0  3  0  0  0  0  0  0
   39.0480   27.6460   42.7180 C   0  0  0  0  0  0  0  0  0  0  0  0
  1  2  1  0  0  0  0
  2  6  1  0  0  0  0
  3  7  1  0  0  0  0
  3  2  2  0  0  0  0
  4  9  1  0  0  0  0
  4  5  1  0  0  0  0
  4  3  1  0  0  0  0
  5 10  1  6  0  0  0
  5  1  1  0  0  0  0
  5 23  1  0  0  0  0
  8  4  1  0  0  0  0
 11  1  1  0  0  0  0
 11 16  1  0  0  0  0
 12 11  1  0  0  0  0
 13 11  1  0  0  0  0
 14 19  1  0  0  0  0
 14 20  1  0  0  0  0
 15 14  2  0  0  0  0
 16 17  2  0  0  0  0
 16 15  1  0  0  0  0
 17 18  1  0  0  0  0
 18 22  1  0  0  0  0
 18 19  2  0  0  0  0
 21 15  1  0  0  0  0
 23 25  1  0  0  0  0
 25 24  2  6  0  0  0
 25 26  1  0  0  0  0
 25 28  1  0  0  0  0
 26 27  1  0  0  0  0
 29 28  1  0  0  0  0
 29 39  1  0  0  0  0
 30 32  1  0  0  0  0
 30 29  2  0  0  0  0
 31 30  1  0  0  0  0
 32 33  2  0  0  0  0
 33 34  1  0  0  0  0
 34 35  1  0  0  0  0
 35 36  2  0  0  0  0
 37 36  1  0  0  0  0
 38 37  2  0  0  0  0
 39 34  2  0  0  0  0
 39 38  1  0  0  0  0
M  END
>  <minimizedAffinity>
-6.44386625

$$$$

 OpenBabel03252505003D

 39 42  0  0  1  0  0  0  0  0999 V2000
   39.3370   32.9960   40.1570 N   0  0  0  0  0  0  0  0  0  0  0  0
   38.5550   34.1610   40.3340 C   0  0  0  0  0  0  0  0  0  0  0  0
   37.3310   33.8430   39.5660 C   0  0  0  0  0  0  0  0  0  0  0  0
   37.4590   32.4370   39.0090 C   0  0  0  0  0  0  0  0  0  0  0  0
   38.5600   31.8520   39.9060 C   0  0  2  0  0  0  0  0  0  0  0  0
   38.5770   35.1070   40.8070 H   0  0  0  0  0  0  0  0  0  0  0  0
   36.4370   34.4100   39.3910 H   0  0  0  0  0  0  0  0  0  0  0  0
   37.7720   32.4410   37.9680 H   0  0  0  0  0  0  0  0  0  0  0  0
   36.5130   31.9130   39.2340 H   0  0  0  0  0  0  0  0  0  0  0  0
   39.1150   31.0400   39.4440 H   0  0  0  0  0  0  0  0  0  0  0  0
   40.7070   33.0810   40.2070 C   0  0  0  0  0  0  0  0  0  0  0  0
   41.0230   32.8090   41.2480 H   0  0  0  0  0  0  0  0  0  0  0  0
   41.1210   34.1090   40.1090 H   0  0  0  0  0  0  0  0  0  0  0  0
   42.7450   30.3990   38.4810 C   0  0  0  0  0  0  0  0  0  0  0  0
   42.1170   31.1140   39.5400 C   0  0  0  0  0  0  0  0  0  0  0  0
   41.4150   32.2790   39.2330 C   0  0  0  0  0  0  0  0  0  0  0  0
   41.3790   32.6530   37.9360 N   0  0  0  0  0  0  0  0  0  0  0  0
   41.9920   31.9500   36.9200 C   0  0  0  0  0  0  0  0  0  0  0  0
   42.6670   30.8350   37.1950 N   0  0  0  0  0  0  0  0  0  0  0  0
   43.2830   29.5100   38.6970 H   0  0  0  0  0  0  0  0  0  0  0  0
   42.1690   30.7840   40.5560 H   0  0  0  0  0  0  0  0  0  0  0  0
   41.9070   32.3340   35.9060 H   0  0  0  0  0  0  0  0  0  0  0  0
   37.9380   31.5190   41.1180 O   0  0  0  0  0  0  0  0  0  0  0  0
   37.2720   29.3040   39.8050 O   0  0  0  0  0  0  0  0  0  0  0  0
   37.0820   30.1000   41.0770 P   0  0  2  0  0  0  0  0  0  0  0  0
   35.4300   30.4780   41.1840 O   0  0  0  0  0  0  0  0  0  0  0  0
   35.2630   30.7520   42.1320 H   0  0  0  0  0  0  0  0  0  0  0  0
   37.4200   29.1330   42.4500 O   0  0  0  0  0  0  0  0  0  0  0  0
   38.5670   28.4150   42.6480 C   0  0  0  0  0  0  0  0  0  0  0  0
   39.8300   28.8300   42.9350 C   0  0  0  0  0  0  0  0  0  0  0  0
   39.9350   29.9020   43.0190 H   0  0  0  0  0  0  0  0  0  0  0  0
   40.8900   27.9700   43.1070 C   0  0  0  0  0  3  0  0  0  0  0  0
   40.7030   26.6020   42.9890 C   0  0  0  0  0  3  0  0  0  0  0  0
   39.4230   26.1560   42.6970 C   0  0  0  0  0  0  0  0  0  0  0  0
   39.3070   24.7820   42.5940 C   0  0  0  0  0  3  0  0  0  0  0  0
   38.0800   24.2490   42.3080 C   0  0  0  0  0  3  0  0  0  0  0  0
   37.0190   25.0830   42.1340 C   0  0  0  0  0  3  0  0  0  0  0  0
   37.1280   26.4540   42.2350 C   0  0  0  0  0  3  0  0  0  0  0  0
   38.3620   27.0370   42.5260 C   0  0  0  0  0  0  0  0  0  0  0  0
  1 11  1  0  0  0  0
  1  2  1  0  0  0  0
  2  6  1  0  0  0  0
  3  2  2  0  0  0  0
  4  9  1  0  0  0  0
  4  3  1  0  0  0  0
  4  5  1  0  0  0  0
  5 10  1  6  0  0  0
  5  1  1  0  0  0  0
  5 23  1  0  0  0  0
  7  3  1  0  0  0  0
  8  4  1  0  0  0  0
 11 12  1  0  0  0  0
 13 11  1  0  0  0  0
 14 20  1  0  0  0  0
 14 15  1  0  0  0  0
 15 21  1  0  0  0  0
 16 15  2  0  0  0  0
 16 11  1  0  0  0  0
 17 16  1  0  0  0  0
 18 19  1  0  0  0  0
 18 17  2  0  0  0  0
 19 14  2  0  0  0  0
 22 18  1  0  0  0  0
 25 24  2  6  0  0  0
 25 23  1  0  0  0  0
 25 26  1  0  0  0  0
 25 28  1  0  0  0  0
 26 27  1  0  0  0  0
 28 29  1  0  0  0  0
 29 30  1  0  0  0  0
 30 31  1  0  0  0  0
 30 32  2  0  0  0  0
 33 32  1  0  0  0  0
 34 33  2  0  0  0  0
 35 34  1  0  0  0  0
 36 35  2  0  0  0  0
 37 38  2  0  0  0  0
 37 36  1  0  0  0  0
 38 39  1  0  0  0  0
 39 29  2  0  0  0  0
 39 34  1  0  0  0  0
M  END
>  <minimizedAffinity>
-6.38927269

$$$$

 OpenBabel03252505003D

 39 42  0  0  1  0  0  0  0  0999 V2000
   38.4580   31.8960   38.5040 N   0  0  0  0  0  0  0  0  0  0  0  0
   39.8030   32.2720   38.7260 C   0  0  0  0  0  0  0  0  0  0  0  0
   39.6950   33.1670   39.9000 C   0  0  0  0  0  0  0  0  0  0  0  0
   38.2420   33.2190   40.3370 C   0  0  0  0  0  0  0  0  0  0  0  0
   37.6770   31.9570   39.6700 C   0  0  2  0  0  0  0  0  0  0  0  0
   40.7780   32.1210   38.3430 H   0  0  0  0  0  0  0  0  0  0  0  0
   40.4400   33.7090   40.4490 H   0  0  0  0  0  0  0  0  0  0  0  0
   37.7390   34.1090   39.9650 H   0  0  0  0  0  0  0  0  0  0  0  0
   38.2280   33.0700   41.4310 H   0  0  0  0  0  0  0  0  0  0  0  0
   36.6090   32.0040   39.4780 H   0  0  0  0  0  0  0  0  0  0  0  0
   38.0470   31.5580   37.2380 C   0  0  0  0  0  0  0  0  0  0  0  0
   38.8760   31.8270   36.5320 H   0  0  0  0  0  0  0  0  0  0  0  0
   37.2050   32.1650   36.8360 H   0  0  0  0  0  0  0  0  0  0  0  0
   36.1650   28.3800   36.4070 C   0  0  0  0  0  0  0  0  0  0  0  0
   36.4150   29.7740   36.5630 C   0  0  0  0  0  0  0  0  0  0  0  0
   37.6530   30.1770   37.0610 C   0  0  0  0  0  0  0  0  0  0  0  0
   38.5410   29.2060   37.3630 N   0  0  0  0  0  0  0  0  0  0  0  0
   38.2860   27.8600   37.2070 C   0  0  0  0  0  0  0  0  0  0  0  0
   37.1080   27.4570   36.7330 N   0  0  0  0  0  0  0  0  0  0  0  0
   35.2280   28.0570   36.0290 H   0  0  0  0  0  0  0  0  0  0  0  0
   35.6840   30.5120   36.3110 H   0  0  0  0  0  0  0  0  0  0  0  0
   39.0660   27.1540   37.4810 H   0  0  0  0  0  0  0  0  0  0  0  0
   38.0770   30.8790   40.4740 O   0  0  0  0  0  0  0  0  0  0  0  0
   36.2670   28.9890   40.0000 O   0  0  0  0  0  0  0  0  0  0  0  0
   36.8270   29.9440   41.0310 P   0  0  2  0  0  0  0  0  0  0  0  0
   35.5600   30.9760   41.4910 O   0  0  0  0  0  0  0  0  0  0  0  0
   35.8450   31.4080   42.3480 H   0  0  0  0  0  0  0  0  0  0  0  0
   37.2710   29.1000   42.4540 O   0  0  0  0  0  0  0  0  0  0  0  0
   38.4440   28.4220   42.6380 C   0  0  0  0  0  0  0  0  0  0  0  0
   39.6980   28.8790   42.8970 C   0  0  0  0  0  0  0  0  0  0  0  0
   39.7700   29.9550   42.9690 H   0  0  0  0  0  0  0  0  0  0  0  0
   40.7880   28.0550   43.0580 C   0  0  0  0  0  3  0  0  0  0  0  0
   40.6430   26.6810   42.9560 C   0  0  0  0  0  3  0  0  0  0  0  0
   39.3730   26.1920   42.6920 C   0  0  0  0  0  0  0  0  0  0  0  0
   39.2990   24.8140   42.6040 C   0  0  0  0  0  3  0  0  0  0  0  0
   38.0840   24.2390   42.3450 C   0  0  0  0  0  3  0  0  0  0  0  0
   36.9940   25.0360   42.1840 C   0  0  0  0  0  3  0  0  0  0  0  0
   37.0610   26.4120   42.2700 C   0  0  0  0  0  3  0  0  0  0  0  0
   38.2810   27.0360   42.5320 C   0  0  0  0  0  0  0  0  0  0  0  0
  1  2  1  0  0  0  0
  1  5  1  0  0  0  0
  2  3  2  0  0  0  0
  3  4  1  0  0  0  0
  3  7  1  0  0  0  0
  4  9  1  0  0  0  0
  5 10  1  6  0  0  0
  5  4  1  0  0  0  0
  5 23  1  0  0  0  0
  6  2  1  0  0  0  0
  8  4  1  0  0  0  0
 11  1  1  0  0  0  0
 12 11  1  0  0  0  0
 13 11  1  0  0  0  0
 14 15  2  0  0  0  0
 14 19  1  0  0  0  0
 15 16  1  0  0  0  0
 16 11  1  0  0  0  0
 16 17  2  0  0  0  0
 18 17  1  0  0  0  0
 18 22  1  0  0  0  0
 19 18  2  0  0  0  0
 20 14  1  0  0  0  0
 21 15  1  0  0  0  0
 23 25  1  0  0  0  0
 25 24  2  6  0  0  0
 25 26  1  0  0  0  0
 25 28  1  0  0  0  0
 26 27  1  0  0  0  0
 28 29  1  0  0  0  0
 29 30  1  0  0  0  0
 30 31  1  0  0  0  0
 30 32  2  0  0  0  0
 33 32  1  0  0  0  0
 34 33  2  0  0  0  0
 35 34  1  0  0  0  0
 36 35  2  0  0  0  0
 37 38  2  0  0  0  0
 37 36  1  0  0  0  0
 38 39  1  0  0  0  0
 39 29  2  0  0  0  0
 39 34  1  0  0  0  0
M  END
>  <minimizedAffinity>
-6.2290554

$$$$

 OpenBabel03252505003D

 39 42  0  0  1  0  0  0  0  0999 V2000
   39.1430   32.3630   40.3630 N   0  0  0  0  0  0  0  0  0  0  0  0
   38.4920   33.6180   40.3790 C   0  0  0  0  0  0  0  0  0  0  0  0
   37.3150   33.3800   39.5150 C   0  0  0  0  0  0  0  0  0  0  0  0
   37.3260   31.9280   39.0710 C   0  0  0  0  0  0  0  0  0  0  0  0
   38.2620   31.2970   40.1130 C   0  0  2  0  0  0  0  0  0  0  0  0
   38.5830   34.5910   40.7860 H   0  0  0  0  0  0  0  0  0  0  0  0
   36.5150   34.0270   39.2120 H   0  0  0  0  0  0  0  0  0  0  0  0
   37.7320   31.8130   38.0700 H   0  0  0  0  0  0  0  0  0  0  0  0
   36.3080   31.5320   39.2350 H   0  0  0  0  0  0  0  0  0  0  0  0
   38.7560   30.3940   39.7670 H   0  0  0  0  0  0  0  0  0  0  0  0
   40.5020   32.2990   40.5460 C   0  0  0  0  0  0  0  0  0  0  0  0
   40.7060   31.4670   41.2700 H   0  0  0  0  0  0  0  0  0  0  0  0
   40.9510   33.1700   41.0730 H   0  0  0  0  0  0  0  0  0  0  0  0
   42.6580   30.9010   37.7650 C   0  0  0  0  0  0  0  0  0  0  0  0
   41.9490   30.9500   39.0000 C   0  0  0  0  0  0  0  0  0  0  0  0
   41.2830   32.1260   39.3390 C   0  0  0  0  0  0  0  0  0  0  0  0
   41.3570   33.1510   38.4630 N   0  0  0  0  0  0  0  0  0  0  0  0
   42.0470   33.0900   37.2710 C   0  0  0  0  0  0  0  0  0  0  0  0
   42.6890   31.9730   36.9300 N   0  0  0  0  0  0  0  0  0  0  0  0
   43.1700   30.0130   37.4920 H   0  0  0  0  0  0  0  0  0  0  0  0
   41.9150   30.1150   39.6670 H   0  0  0  0  0  0  0  0  0  0  0  0
   42.0480   33.9700   36.6320 H   0  0  0  0  0  0  0  0  0  0  0  0
   37.4950   31.1330   41.2770 O   0  0  0  0  0  0  0  0  0  0  0  0
   35.4730   29.4490   40.8900 O   0  0  0  0  0  0  0  0  0  0  0  0
   36.8620   29.6130   41.4670 P   0  0  2  0  0  0  0  0  0  0  0  0
   36.7490   29.2940   43.1310 O   0  0  0  0  0  0  0  0  0  0  0  0
   37.6840   29.1310   43.4510 H   0  0  0  0  0  0  0  0  0  0  0  0
   37.9190   28.4200   40.8410 O   0  0  0  0  0  0  0  0  0  0  0  0
   37.8170   27.0760   41.0680 C   0  0  0  0  0  0  0  0  0  0  0  0
   36.9290   26.1640   40.5900 C   0  0  0  0  0  0  0  0  0  0  0  0
   36.1860   26.5780   39.9220 H   0  0  0  0  0  0  0  0  0  0  0  0
   36.9610   24.8280   40.9190 C   0  0  0  0  0  3  0  0  0  0  0  0
   37.9330   24.3470   41.7800 C   0  0  0  0  0  3  0  0  0  0  0  0
   38.8500   25.2580   42.2800 C   0  0  0  0  0  0  0  0  0  0  0  0
   39.7920   24.7120   43.1330 C   0  0  0  0  0  3  0  0  0  0  0  0
   40.7390   25.5370   43.6760 C   0  0  0  0  0  3  0  0  0  0  0  0
   40.7250   26.8600   43.3630 C   0  0  0  0  0  3  0  0  0  0  0  0
   39.7870   27.4120   42.5140 C   0  0  0  0  0  3  0  0  0  0  0  0
   38.8050   26.6050   41.9390 C   0  0  0  0  0  0  0  0  0  0  0  0
  1  2  1  0  0  0  0
  1 11  1  0  0  0  0
  2  6  1  0  0  0  0
  3  2  2  0  0  0  0
  4  9  1  0  0  0  0
  4  3  1  0  0  0  0
  4  5  1  0  0  0  0
  5 10  1  6  0  0  0
  5  1  1  0  0  0  0
  5 23  1  0  0  0  0
  7  3  1  0  0  0  0
  8  4  1  0  0  0  0
 11 13  1  0  0  0  0
 11 12  1  0  0  0  0
 14 15  1  0  0  0  0
 15 16  2  0  0  0  0
 15 21  1  0  0  0  0
 16 11  1  0  0  0  0
 17 16  1  0  0  0  0
 18 17  2  0  0  0  0
 19 18  1  0  0  0  0
 19 14  2  0  0  0  0
 20 14  1  0  0  0  0
 22 18  1  0  0  0  0
 23 25  1  0  0  0  0
 25 24  2  6  0  0  0
 25 26  1  0  0  0  0
 26 27  1  0  0  0  0
 28 29  1  0  0  0  0
 28 25  1  0  0  0  0
 29 39  1  0  0  0  0
 30 32  1  0  0  0  0
 30 29  2  0  0  0  0
 31 30  1  0  0  0  0
 32 33  2  0  0  0  0
 33 34  1  0  0  0  0
 34 35  1  0  0  0  0
 35 36  2  0  0  0  0
 37 36  1  0  0  0  0
 38 37  2  0  0  0  0
 39 34  2  0  0  0  0
 39 38  1  0  0  0  0
M  END
>  <minimizedAffinity>
-6.1881938

$$$$

 OpenBabel03252505003D

 39 42  0  0  1  0  0  0  0  0999 V2000
   39.6480   32.2380   39.5340 N   0  0  0  0  0  0  0  0  0  0  0  0
   40.1660   33.3140   40.2910 C   0  0  0  0  0  0  0  0  0  0  0  0
   38.9710   34.1600   40.5040 C   0  0  0  0  0  0  0  0  0  0  0  0
   37.7720   33.4720   39.8760 C   0  0  0  0  0  0  0  0  0  0  0  0
   38.2770   32.0260   39.7580 C   0  0  2  0  0  0  0  0  0  0  0  0
   41.0690   33.6680   40.7140 H   0  0  0  0  0  0  0  0  0  0  0  0
   38.8440   35.0930   41.0190 H   0  0  0  0  0  0  0  0  0  0  0  0
   37.5380   33.8790   38.8950 H   0  0  0  0  0  0  0  0  0  0  0  0
   36.9580   33.4960   40.6220 H   0  0  0  0  0  0  0  0  0  0  0  0
   37.7890   31.4550   38.9730 H   0  0  0  0  0  0  0  0  0  0  0  0
   40.4690   31.5550   38.6710 C   0  0  0  0  0  0  0  0  0  0  0  0
   41.5250   31.7190   39.0110 H   0  0  0  0  0  0  0  0  0  0  0  0
   40.5040   31.9560   37.6340 H   0  0  0  0  0  0  0  0  0  0  0  0
   39.3550   28.1620   37.4150 C   0  0  0  0  0  0  0  0  0  0  0  0
   39.5390   29.5740   37.4410 C   0  0  0  0  0  0  0  0  0  0  0  0
   40.1900   30.1420   38.5350 C   0  0  0  0  0  0  0  0  0  0  0  0
   40.6050   29.3030   39.5080 N   0  0  0  0  0  0  0  0  0  0  0  0
   40.4200   27.9370   39.4710 C   0  0  0  0  0  0  0  0  0  0  0  0
   39.8010   27.3770   38.4320 N   0  0  0  0  0  0  0  0  0  0  0  0
   38.8620   27.7140   36.5890 H   0  0  0  0  0  0  0  0  0  0  0  0
   39.1950   30.2050   36.6490 H   0  0  0  0  0  0  0  0  0  0  0  0
   40.7900   27.3450   40.3040 H   0  0  0  0  0  0  0  0  0  0  0  0
   38.1640   31.4690   41.0410 O   0  0  0  0  0  0  0  0  0  0  0  0
   36.9640   29.3890   39.8970 O   0  0  0  0  0  0  0  0  0  0  0  0
   37.0690   30.2290   41.1510 P   0  0  2  0  0  0  0  0  0  0  0  0
   35.5350   30.9030   41.4280 O   0  0  0  0  0  0  0  0  0  0  0  0
   35.5330   31.2180   42.3780 H   0  0  0  0  0  0  0  0  0  0  0  0
   37.3890   29.2400   42.5130 O   0  0  0  0  0  0  0  0  0  0  0  0
   38.5310   28.5150   42.7130 C   0  0  0  0  0  0  0  0  0  0  0  0
   39.7930   28.9200   43.0120 C   0  0  0  0  0  0  0  0  0  0  0  0
   39.9040   29.9910   43.1070 H   0  0  0  0  0  0  0  0  0  0  0  0
   40.8480   28.0530   43.1850 C   0  0  0  0  0  3  0  0  0  0  0  0
   40.6550   26.6870   43.0530 C   0  0  0  0  0  3  0  0  0  0  0  0
   39.3750   26.2510   42.7470 C   0  0  0  0  0  0  0  0  0  0  0  0
   39.2520   24.8790   42.6310 C   0  0  0  0  0  3  0  0  0  0  0  0
   38.0240   24.3550   42.3310 C   0  0  0  0  0  3  0  0  0  0  0  0
   36.9690   25.1950   42.1570 C   0  0  0  0  0  3  0  0  0  0  0  0
   37.0850   26.5660   42.2720 C   0  0  0  0  0  3  0  0  0  0  0  0
   38.3190   27.1390   42.5770 C   0  0  0  0  0  0  0  0  0  0  0  0
  1  5  1  0  0  0  0
  1  2  1  0  0  0  0
  2  3  2  0  0  0  0
  2  6  1  0  0  0  0
  3  7  1  0  0  0  0
  4  3  1  0  0  0  0
  4  9  1  0  0  0  0
  5 10  1  6  0  0  0
  5  4  1  0  0  0  0
  5 23  1  0  0  0  0
  8  4  1  0  0  0  0
 11 12  1  0  0  0  0
 11  1  1  0  0  0  0
 13 11  1  0  0  0  0
 14 15  2  0  0  0  0
 14 19  1  0  0  0  0
 15 16  1  0  0  0  0
 16 11  1  0  0  0  0
 16 17  2  0  0  0  0
 18 17  1  0  0  0  0
 18 22  1  0  0  0  0
 19 18  2  0  0  0  0
 20 14  1  0  0  0  0
 21 15  1  0  0  0  0
 23 25  1  0  0  0  0
 25 24  2  6  0  0  0
 25 26  1  0  0  0  0
 25 28  1  0  0  0  0
 26 27  1  0  0  0  0
 28 29  1  0  0  0  0
 29 30  1  0  0  0  0
 30 31  1  0  0  0  0
 30 32  2  0  0  0  0
 33 32  1  0  0  0  0
 34 33  2  0  0  0  0
 35 34  1  0  0  0  0
 36 35  2  0  0  0  0
 37 38  2  0  0  0  0
 37 36  1  0  0  0  0
 38 39  1  0  0  0  0
 39 29  2  0  0  0  0
 39 34  1  0  0  0  0
M  END
>  <minimizedAffinity>
-6.139709

$$$$

 OpenBabel03252505003D

 39 42  0  0  1  0  0  0  0  0999 V2000
   37.7440   29.8380   37.6430 N   0  0  0  0  0  0  0  0  0  0  0  0
   37.9270   28.8370   36.6600 C   0  0  0  0  0  0  0  0  0  0  0  0
   38.5480   27.7400   37.4340 C   0  0  0  0  0  0  0  0  0  0  0  0
   38.6460   28.1660   38.8880 C   0  0  0  0  0  0  0  0  0  0  0  0
   37.6240   29.3110   38.9400 C   0  0  2  0  0  0  0  0  0  0  0  0
   37.7690   28.6510   35.6310 H   0  0  0  0  0  0  0  0  0  0  0  0
   38.8810   26.7630   37.1380 H   0  0  0  0  0  0  0  0  0  0  0  0
   39.6410   28.5270   39.1380 H   0  0  0  0  0  0  0  0  0  0  0  0
   38.2620   27.3300   39.4970 H   0  0  0  0  0  0  0  0  0  0  0  0
   37.8180   30.0360   39.7260 H   0  0  0  0  0  0  0  0  0  0  0  0
   37.7360   31.1600   37.2740 C   0  0  0  0  0  0  0  0  0  0  0  0
   36.6890   31.4170   36.9640 H   0  0  0  0  0  0  0  0  0  0  0  0
   38.3070   31.3980   36.3490 H   0  0  0  0  0  0  0  0  0  0  0  0
   39.8960   33.2470   39.5790 C   0  0  0  0  0  0  0  0  0  0  0  0
   39.5580   32.2770   38.5920 C   0  0  0  0  0  0  0  0  0  0  0  0
   38.2130   32.0880   38.2770 C   0  0  0  0  0  0  0  0  0  0  0  0
   37.3130   32.8470   38.9380 N   0  0  0  0  0  0  0  0  0  0  0  0
   37.6550   33.7830   39.8920 C   0  0  0  0  0  0  0  0  0  0  0  0
   38.9360   33.9770   40.2050 N   0  0  0  0  0  0  0  0  0  0  0  0
   40.9150   33.4030   39.8300 H   0  0  0  0  0  0  0  0  0  0  0  0
   40.3020   31.6950   38.0910 H   0  0  0  0  0  0  0  0  0  0  0  0
   36.8560   34.3450   40.3700 H   0  0  0  0  0  0  0  0  0  0  0  0
   36.3610   28.7020   39.0070 O   0  0  0  0  0  0  0  0  0  0  0  0
   33.9440   29.0870   40.0480 O   0  0  0  0  0  0  0  0  0  0  0  0
   35.4340   29.1950   40.2890 P   0  0  2  0  0  0  0  0  0  0  0  0
   35.7720   30.8320   40.5860 O   0  0  0  0  0  0  0  0  0  0  0  0
   36.6790   30.8610   41.0090 H   0  0  0  0  0  0  0  0  0  0  0  0
   35.8730   28.3680   41.7240 O   0  0  0  0  0  0  0  0  0  0  0  0
   37.1440   28.2540   42.2140 C   0  0  0  0  0  0  0  0  0  0  0  0
   38.0120   29.2050   42.6490 C   0  0  0  0  0  0  0  0  0  0  0  0
   37.6260   30.2140   42.5970 H   0  0  0  0  0  0  0  0  0  0  0  0
   39.2750   28.9230   43.1190 C   0  0  0  0  0  3  0  0  0  0  0  0
   39.7230   27.6130   43.1650 C   0  0  0  0  0  3  0  0  0  0  0  0
   38.8550   26.6260   42.7260 C   0  0  0  0  0  0  0  0  0  0  0  0
   39.3650   25.3430   42.8010 C   0  0  0  0  0  3  0  0  0  0  0  0
   38.5790   24.3010   42.3890 C   0  0  0  0  0  3  0  0  0  0  0  0
   37.3270   24.5590   41.9210 C   0  0  0  0  0  3  0  0  0  0  0  0
   36.8130   25.8370   41.8440 C   0  0  0  0  0  3  0  0  0  0  0  0
   37.5830   26.9260   42.2550 C   0  0  0  0  0  0  0  0  0  0  0  0
  1  5  1  0  0  0  0
  2  3  2  0  0  0  0
  2  1  1  0  0  0  0
  3  4  1  0  0  0  0
  4  5  1  0  0  0  0
  4  8  1  0  0  0  0
  4  9  1  0  0  0  0
  5 23  1  0  0  0  0
  5 10  1  1  0  0  0
  6  2  1  0  0  0  0
  7  3  1  0  0  0  0
 11  1  1  0  0  0  0
 11 16  1  0  0  0  0
 12 11  1  0  0  0  0
 13 11  1  0  0  0  0
 14 20  1  0  0  0  0
 14 19  1  0  0  0  0
 15 14  2  0  0  0  0
 16 15  1  0  0  0  0
 16 17  2  0  0  0  0
 17 18  1  0  0  0  0
 18 19  2  0  0  0  0
 18 22  1  0  0  0  0
 21 15  1  0  0  0  0
 23 25  1  0  0  0  0
 25 24  2  6  0  0  0
 25 26  1  0  0  0  0
 25 28  1  0  0  0  0
 26 27  1  0  0  0  0
 28 29  1  0  0  0  0
 29 39  2  0  0  0  0
 29 30  1  0  0  0  0
 30 32  2  0  0  0  0
 31 30  1  0  0  0  0
 32 33  1  0  0  0  0
 34 35  1  0  0  0  0
 34 33  2  0  0  0  0
 36 35  2  0  0  0  0
 37 36  1  0  0  0  0
 38 37  2  0  0  0  0
 38 39  1  0  0  0  0
 39 34  1  0  0  0  0
M  END
>  <minimizedAffinity>
-6.0432415

$$$$

 OpenBabel03252505003D

 39 42  0  0  1  0  0  0  0  0999 V2000
   36.1900   29.0070   39.4540 N   0  0  0  0  0  0  0  0  0  0  0  0
   36.1030   30.2550   40.1140 C   0  0  0  0  0  0  0  0  0  0  0  0
   36.7860   31.1660   39.1690 C   0  0  0  0  0  0  0  0  0  0  0  0
   37.2020   30.3700   37.9440 C   0  0  0  0  0  0  0  0  0  0  0  0
   36.2940   29.1370   38.0580 C   0  0  2  0  0  0  0  0  0  0  0  0
   35.7300   30.6970   41.0000 H   0  0  0  0  0  0  0  0  0  0  0  0
   36.9830   32.2190   39.2160 H   0  0  0  0  0  0  0  0  0  0  0  0
   38.2500   30.0820   37.9850 H   0  0  0  0  0  0  0  0  0  0  0  0
   36.8880   30.9510   37.0590 H   0  0  0  0  0  0  0  0  0  0  0  0
   36.6910   28.2540   37.5660 H   0  0  0  0  0  0  0  0  0  0  0  0
   36.2020   27.8480   40.1890 C   0  0  0  0  0  0  0  0  0  0  0  0
   36.4490   27.0080   39.4890 H   0  0  0  0  0  0  0  0  0  0  0  0
   35.2120   27.5270   40.5830 H   0  0  0  0  0  0  0  0  0  0  0  0
   37.6630   27.7200   43.6790 C   0  0  0  0  0  0  0  0  0  0  0  0
   36.6770   27.7460   42.6520 C   0  0  0  0  0  0  0  0  0  0  0  0
   37.0970   27.8440   41.3270 C   0  0  0  0  0  0  0  0  0  0  0  0
   38.4270   27.9080   41.1050 N   0  0  0  0  0  0  0  0  0  0  0  0
   39.3720   27.8820   42.1100 C   0  0  0  0  0  0  0  0  0  0  0  0
   38.9880   27.7880   43.3820 N   0  0  0  0  0  0  0  0  0  0  0  0
   37.3600   27.6450   44.6930 H   0  0  0  0  0  0  0  0  0  0  0  0
   35.6310   27.6920   42.8700 H   0  0  0  0  0  0  0  0  0  0  0  0
   40.4210   27.9400   41.8300 H   0  0  0  0  0  0  0  0  0  0  0  0
   35.0300   29.5410   37.6010 O   0  0  0  0  0  0  0  0  0  0  0  0
   33.9330   27.1330   37.3250 O   0  0  0  0  0  0  0  0  0  0  0  0
   34.2720   28.4340   36.6290 P   0  0  2  0  0  0  0  0  0  0  0  0
   35.3190   28.0520   35.3470 O   0  0  0  0  0  0  0  0  0  0  0  0
   35.3180   28.8450   34.7370 H   0  0  0  0  0  0  0  0  0  0  0  0
   32.8770   29.1050   35.8960 O   0  0  0  0  0  0  0  0  0  0  0  0
   31.8870   29.7820   36.5530 C   0  0  0  0  0  0  0  0  0  0  0  0
   31.4400   29.6720   37.8320 C   0  0  0  0  0  0  0  0  0  0  0  0
   31.9580   28.9260   38.4190 H   0  0  0  0  0  0  0  0  0  0  0  0
   30.4200   30.4370   38.3500 C   0  0  0  0  0  3  0  0  0  0  0  0
   29.7880   31.3810   37.5560 C   0  0  0  0  0  3  0  0  0  0  0  0
   30.2260   31.5110   36.2470 C   0  0  0  0  0  0  0  0  0  0  0  0
   29.5530   32.4690   35.5120 C   0  0  0  0  0  3  0  0  0  0  0  0
   29.9170   32.6690   34.2080 C   0  0  0  0  0  3  0  0  0  0  0  0
   30.9240   31.9230   33.6790 C   0  0  0  0  0  3  0  0  0  0  0  0
   31.5990   30.9640   34.4070 C   0  0  0  0  0  3  0  0  0  0  0  0
   31.2580   30.7310   35.7390 C   0  0  0  0  0  0  0  0  0  0  0  0
  1  2  1  0  0  0  0
  1 11  1  0  0  0  0
  2  6  1  0  0  0  0
  3  7  1  0  0  0  0
  3  2  2  0  0  0  0
  4  8  1  0  0  0  0
  4  5  1  0  0  0  0
  4  3  1  0  0  0  0
  5 10  1  6  0  0  0
  5  1  1  0  0  0  0
  9  4  1  0  0  0  0
 11 13  1  0  0  0  0
 11 16  1  0  0  0  0
 12 11  1  0  0  0  0
 14 20  1  0  0  0  0
 15 21  1  0  0  0  0
 15 14  2  0  0  0  0
 16 15  1  0  0  0  0
 17 16  2  0  0  0  0
 17 18  1  0  0  0  0
 18 19  2  0  0  0  0
 19 14  1  0  0  0  0
 22 18  1  0  0  0  0
 23  5  1  0  0  0  0
 25 24  2  1  0  0  0
 25 23  1  0  0  0  0
 26 25  1  0  0  0  0
 27 26  1  0  0  0  0
 28 29  1  0  0  0  0
 28 25  1  0  0  0  0
 29 30  1  0  0  0  0
 30 32  2  0  0  0  0
 30 31  1  0  0  0  0
 33 32  1  0  0  0  0
 34 33  2  0  0  0  0
 35 34  1  0  0  0  0
 36 35  2  0  0  0  0
 37 36  1  0  0  0  0
 37 38  2  0  0  0  0
 38 39  1  0  0  0  0
 39 34  1  0  0  0  0
 39 29  2  0  0  0  0
M  END
>  <minimizedAffinity>
-5.87158537

$$$$

 OpenBabel03252505003D

 39 42  0  0  1  0  0  0  0  0999 V2000
   39.0470   32.4770   38.8520 N   0  0  0  0  0  0  0  0  0  0  0  0
   39.7000   33.2480   39.8420 C   0  0  0  0  0  0  0  0  0  0  0  0
   38.6280   34.1610   40.2950 C   0  0  0  0  0  0  0  0  0  0  0  0
   37.3520   33.8190   39.5470 C   0  0  0  0  0  0  0  0  0  0  0  0
   37.6590   32.3980   39.0530 C   0  0  2  0  0  0  0  0  0  0  0  0
   40.6390   33.3600   40.3160 H   0  0  0  0  0  0  0  0  0  0  0  0
   38.6240   34.9400   41.0330 H   0  0  0  0  0  0  0  0  0  0  0  0
   37.1820   34.4900   38.7080 H   0  0  0  0  0  0  0  0  0  0  0  0
   36.5440   33.7590   40.2970 H   0  0  0  0  0  0  0  0  0  0  0  0
   37.1040   32.1150   38.1630 H   0  0  0  0  0  0  0  0  0  0  0  0
   39.7750   31.9350   37.8220 C   0  0  0  0  0  0  0  0  0  0  0  0
   40.3260   32.7740   37.3210 H   0  0  0  0  0  0  0  0  0  0  0  0
   39.1730   31.5280   36.9790 H   0  0  0  0  0  0  0  0  0  0  0  0
   42.6320   29.4540   37.9350 C   0  0  0  0  0  0  0  0  0  0  0  0
   41.7920   30.4900   37.4370 C   0  0  0  0  0  0  0  0  0  0  0  0
   40.6890   30.8770   38.1970 C   0  0  0  0  0  0  0  0  0  0  0  0
   40.4920   30.2360   39.3680 N   0  0  0  0  0  0  0  0  0  0  0  0
   41.3150   29.2340   39.8390 C   0  0  0  0  0  0  0  0  0  0  0  0
   42.3730   28.8510   39.1260 N   0  0  0  0  0  0  0  0  0  0  0  0
   43.4760   29.1480   37.3690 H   0  0  0  0  0  0  0  0  0  0  0  0
   41.9820   30.9740   36.5020 H   0  0  0  0  0  0  0  0  0  0  0  0
   41.0720   28.7760   40.7950 H   0  0  0  0  0  0  0  0  0  0  0  0
   37.4630   31.5520   40.1550 O   0  0  0  0  0  0  0  0  0  0  0  0
   35.8550   30.2380   38.4930 O   0  0  0  0  0  0  0  0  0  0  0  0
   36.5800   30.1900   39.8210 P   0  0  2  0  0  0  0  0  0  0  0  0
   35.3960   30.0200   41.0260 O   0  0  0  0  0  0  0  0  0  0  0  0
   35.8760   29.7150   41.8510 H   0  0  0  0  0  0  0  0  0  0  0  0
   37.5490   28.7820   39.9270 O   0  0  0  0  0  0  0  0  0  0  0  0
   37.8540   28.1170   41.0820 C   0  0  0  0  0  0  0  0  0  0  0  0
   38.4730   28.5480   42.2130 C   0  0  0  0  0  0  0  0  0  0  0  0
   38.7700   29.5870   42.1860 H   0  0  0  0  0  0  0  0  0  0  0  0
   38.7080   27.7430   43.3040 C   0  0  0  0  0  3  0  0  0  0  0  0
   38.3090   26.4160   43.2890 C   0  0  0  0  0  3  0  0  0  0  0  0
   37.6750   25.9540   42.1460 C   0  0  0  0  0  0  0  0  0  0  0  0
   37.3030   24.6240   42.1980 C   0  0  0  0  0  3  0  0  0  0  0  0
   36.6700   24.0780   41.1140 C   0  0  0  0  0  3  0  0  0  0  0  0
   36.4280   24.8580   40.0250 C   0  0  0  0  0  3  0  0  0  0  0  0
   36.7970   26.1860   39.9670 C   0  0  0  0  0  3  0  0  0  0  0  0
   37.4440   26.7790   41.0520 C   0  0  0  0  0  0  0  0  0  0  0  0
  1  5  1  0  0  0  0
  1  2  1  0  0  0  0
  2  3  2  0  0  0  0
  2  6  1  0  0  0  0
  3  7  1  0  0  0  0
  4  3  1  0  0  0  0
  4  9  1  0  0  0  0
  5 10  1  6  0  0  0
  5  4  1  0  0  0  0
  5 23  1  0  0  0  0
  8  4  1  0  0  0  0
 11 16  1  0  0  0  0
 11  1  1  0  0  0  0
 12 11  1  0  0  0  0
 13 11  1  0  0  0  0
 14 19  1  0  0  0  0
 15 14  2  0  0  0  0
 15 16  1  0  0  0  0
 16 17  2  0  0  0  0
 17 18  1  0  0  0  0
 18 22  1  0  0  0  0
 19 18  2  0  0  0  0
 20 14  1  0  0  0  0
 21 15  1  0  0  0  0
 25 24  2  6  0  0  0
 25 28  1  0  0  0  0
 25 23  1  0  0  0  0
 25 26  1  0  0  0  0
 26 27  1  0  0  0  0
 28 29  1  0  0  0  0
 29 30  1  0  0  0  0
 30 32  2  0  0  0  0
 31 30  1  0  0  0  0
 33 32  1  0  0  0  0
 34 35  1  0  0  0  0
 34 33  2  0  0  0  0
 36 35  2  0  0  0  0
 37 36  1  0  0  0  0
 38 37  2  0  0  0  0
 38 39  1  0  0  0  0
 39 29  2  0  0  0  0
 39 34  1  0  0  0  0
M  END
>  <minimizedAffinity>
-5.84718704

$$$$
