
     RDKit          3D

 43 45  0  0  0  0  0  0  0  0999 V2000
   42.5418   35.2812   40.8769 O   0  0  0  0  0  0  0  0  0  0  0  0
   41.2765   35.7320   41.1640 C   0  0  0  0  0  0  0  0  0  0  0  0
   40.2810   33.5767   41.6124 C   0  0  0  0  0  0  0  0  0  0  0  0
   40.2099   34.7489   40.8379 C   0  0  0  0  0  0  0  0  0  0  0  0
   39.2100   34.8628   39.9218 C   0  0  0  0  0  0  0  0  0  0  0  0
   38.3520   33.8269   39.8275 N   0  0  0  0  0  0  0  0  0  0  0  0
   38.4085   32.7171   40.5523 C   0  0  0  0  0  0  0  0  0  0  0  0
   39.4035   32.5441   41.4996 N   0  0  0  0  0  0  0  0  0  0  0  0
   43.7397   35.6609   41.4662 C   0  0  0  0  0  0  0  0  0  0  0  0
   43.9449   35.2781   42.7319 C   0  0  0  0  0  0  0  0  0  0  0  0
   45.1826   35.5819   43.5493 C   0  0  0  0  0  0  0  0  0  0  0  0
   45.0491   34.9365   44.7505 O   0  0  0  0  0  0  0  0  0  0  0  0
   45.5390   32.3436   44.4233 O   0  0  0  0  0  0  0  0  0  0  0  0
   46.1465   33.6255   44.8986 P   0  0  1  0  0  0  0  0  0  0  0  0
   47.5172   33.9746   43.9322 O   0  0  0  0  0  0  0  0  0  0  0  0
   46.6658   33.5444   46.4697 O   0  0  0  0  0  0  0  0  0  0  0  0
   41.2212   35.7967   42.2998 H   0  0  0  0  0  0  0  0  0  0  0  0
   41.0105   36.7362   40.8013 H   0  0  0  0  0  0  0  0  0  0  0  0
   41.0291   33.3708   42.3705 H   0  0  0  0  0  0  0  0  0  0  0  0
   39.2111   35.7692   39.3697 H   0  0  0  0  0  0  0  0  0  0  0  0
   37.6830   31.9235   40.4227 H   0  0  0  0  0  0  0  0  0  0  0  0
   44.5262   36.2309   41.0190 H   0  0  0  0  0  0  0  0  0  0  0  0
   43.1120   34.6941   43.1563 H   0  0  0  0  0  0  0  0  0  0  0  0
   46.0133   35.1281   42.9986 H   0  0  0  0  0  0  0  0  0  0  0  0
   45.2772   36.6738   43.6832 H   0  0  0  0  0  0  0  0  0  0  0  0
   47.8332   34.8778   44.2238 H   0  0  0  0  0  0  0  0  0  0  0  0
   47.4859   32.8622   47.2113 C   0  0  0  0  0  0  0  0  0  0  0  0
   47.3535   33.4225   48.5056 C   0  0  0  0  0  0  0  0  0  0  0  0
   46.7283   34.2443   48.8882 H   0  0  0  0  0  0  0  0  0  0  0  0
   48.0672   32.9775   49.6190 C   0  0  0  0  0  0  0  0  0  0  0  0
   48.9539   31.9211   49.4188 C   0  0  0  0  0  0  0  0  0  0  0  0
   49.1380   31.3246   48.1929 C   0  0  0  0  0  0  0  0  0  0  0  0
   49.9918   30.2804   47.9162 C   0  0  0  0  0  0  0  0  0  0  0  0
   50.1200   29.7350   46.6530 C   0  0  0  0  0  0  0  0  0  0  0  0
   49.3410   30.2798   45.6244 C   0  0  0  0  0  0  0  0  0  0  0  0
   48.4966   31.3196   45.9202 C   0  0  0  0  0  0  0  0  0  0  0  0
   48.3911   31.8394   47.1827 C   0  0  0  0  0  0  0  0  0  0  0  0
   48.0674   33.2995   50.6306 H   0  0  0  0  0  0  0  0  0  0  0  0
   49.5635   31.4911   50.2122 H   0  0  0  0  0  0  0  0  0  0  0  0
   50.5667   29.9060   48.7623 H   0  0  0  0  0  0  0  0  0  0  0  0
   50.8218   28.9190   46.5586 H   0  0  0  0  0  0  0  0  0  0  0  0
   49.4642   29.8282   44.6392 H   0  0  0  0  0  0  0  0  0  0  0  0
   47.9555   31.6562   45.0740 H   0  0  0  0  0  0  0  0  0  0  0  0
  1  2  1  0
  1  9  1  0
  4  2  1  0
  4  3  2  0
  5  4  1  0
  6  5  2  0
  6  7  1  0
  7  8  2  0
  8  3  1  0
  9 10  2  0
 10 11  1  0
 11 12  1  0
 14 12  1  1
 13 14  2  0
 14 16  1  0
 15 14  1  0
  2 17  1  0
  2 18  1  0
  3 19  1  0
  5 20  1  0
  7 21  1  0
  9 22  1  0
 10 23  1  0
 11 24  1  0
 11 25  1  0
 15 26  1  0
 27 28  2  0
 28 29  1  0
 28 30  1  0
 30 31  2  0
 31 32  1  0
 32 33  2  0
 33 34  1  0
 34 35  2  0
 35 36  1  0
 36 37  2  0
 37 27  1  0
 37 32  1  0
 30 38  1  0
 31 39  1  0
 33 40  1  0
 34 41  1  0
 35 42  1  0
 36 43  1  0
 16 27  1  0
M  ISO  8  17   8  18   8  19  14  20  14  21  14  24   8  25   8  26   3
M  ISO  1  29  15
M  END
>  <DihAtoms>  (1) 
13,15,26,27

>  <DihDeg>  (1) 
-179.99011713610423

$$$$
