
 OpenBabel03252509273D

 32 35  0  0  1  0  0  0  0  0999 V2000
   47.0260   35.1940   42.0880 C   0  0  1  0  0  0  0  0  0  0  0  0
   48.5230   34.8930   42.1630 C   0  0  0  0  0  0  0  0  0  0  0  0
   47.4780   34.1150   41.3010 C   0  0  2  0  0  0  0  0  0  0  0  0
   46.8270   36.1950   41.7120 H   0  0  0  0  0  0  0  0  0  0  0  0
   49.2120   35.5320   41.5610 H   0  0  0  0  0  0  0  0  0  0  0  0
   48.9400   34.4170   43.0440 H   0  0  0  0  0  0  0  0  0  0  0  0
   47.4360   33.0430   41.6830 H   0  0  0  0  0  0  0  0  0  0  0  0
   44.6580   35.2710   44.9880 C   0  0  0  0  0  0  0  0  0  0  0  0
   45.2840   35.6570   43.7710 C   0  0  0  0  0  0  0  0  0  0  0  0
   46.3460   34.8820   43.4010 C   0  0  0  0  0  0  0  0  0  0  0  0
   46.7670   33.8150   44.1620 N   0  0  0  0  0  0  0  0  0  0  0  0
   46.1470   33.4870   45.3050 C   0  0  0  0  0  0  0  0  0  0  0  0
   45.0820   34.2230   45.7220 N   0  0  0  0  0  0  0  0  0  0  0  0
   43.8050   35.8220   45.3570 H   0  0  0  0  0  0  0  0  0  0  0  0
   46.4920   32.6450   45.8940 H   0  0  0  0  0  0  0  0  0  0  0  0
   44.8470   36.7670   43.0270 N   0  0  0  0  0  0  0  0  0  0  0  0
   45.6100   37.4850   43.0610 H   0  0  0  0  0  0  0  0  0  0  0  0
   43.9070   36.8410   42.5270 H   0  0  0  0  0  0  0  0  0  0  0  0
   47.6250   34.1860   39.8040 C   0  0  0  0  0  0  0  0  0  0  0  0
   48.5870   33.6680   39.5310 H   0  0  0  0  0  0  0  0  0  0  0  0
   47.7140   35.2610   39.5970 H   0  0  0  0  0  0  0  0  0  0  0  0
   46.5470   33.4890   39.1020 C   0  0  0  0  0  0  0  0  0  0  0  0
   45.3470   33.4180   39.8250 C   0  0  0  0  0  0  0  0  0  0  0  0
   45.2370   33.7390   40.8550 H   0  0  0  0  0  0  0  0  0  0  0  0
   44.1960   32.9170   39.2270 C   0  0  0  0  0  3  0  0  0  0  0  0
   44.1680   32.4700   37.9230 C   0  0  0  0  0  3  0  0  0  0  0  0
   45.3260   32.5280   37.2150 C   0  0  0  0  0  0  0  0  0  0  0  0
   45.3680   32.0440   35.9100 C   0  0  0  0  0  3  0  0  0  0  0  0
   46.5770   32.0790   35.2440 C   0  0  0  0  0  3  0  0  0  0  0  0
   47.7200   32.5780   35.8400 C   0  0  0  0  0  3  0  0  0  0  0  0
   47.6490   33.0530   37.1320 C   0  0  0  0  0  3  0  0  0  0  0  0
   46.4300   33.0200   37.8120 C   0  0  0  0  0  0  0  0  0  0  0  0
  1  4  1  6  0  0  0
  1  2  1  0  0  0  0
  1 10  1  0  0  0  0
  2  6  1  0  0  0  0
  3  7  1  1  0  0  0
  3  1  1  0  0  0  0
  3  2  1  0  0  0  0
  5  2  1  0  0  0  0
  8 14  1  0  0  0  0
  8 13  1  0  0  0  0
  9  8  2  0  0  0  0
 10  9  1  0  0  0  0
 10 11  2  0  0  0  0
 11 12  1  0  0  0  0
 12 13  2  0  0  0  0
 12 15  1  0  0  0  0
 16 17  1  0  0  0  0
 16  9  1  0  0  0  0
 18 16  1  0  0  0  0
 19  3  1  0  0  0  0
 20 19  1  0  0  0  0
 21 19  1  0  0  0  0
 22 19  1  0  0  0  0
 22 23  1  0  0  0  0
 23 24  1  0  0  0  0
 25 23  2  0  0  0  0
 26 25  1  0  0  0  0
 27 32  1  0  0  0  0
 27 26  2  0  0  0  0
 28 27  1  0  0  0  0
 29 30  1  0  0  0  0
 29 28  2  0  0  0  0
 30 31  2  0  0  0  0
 31 32  1  0  0  0  0
 32 22  2  0  0  0  0
M  END
>  <minimizedAffinity>
-5.34274769

>  <minimizedRMSD>
1.56856966

$$$$
