
 OpenBabel03242512163D

 23 25  0  0  0  0  0  0  0  0999 V2000
   37.8320   28.6700   43.5380 C   0  0  0  0  0  0  0  0  0  0  0  0
   36.9320   28.7430   44.2130 H   0  0  0  0  0  0  0  0  0  0  0  0
   38.7650   28.9030   44.0890 H   0  0  0  0  0  0  0  0  0  0  0  0
   37.9030   27.2700   43.0590 C   0  0  0  0  0  0  0  0  0  0  0  0
   36.8490   26.5270   42.5710 C   0  0  0  0  0  0  0  0  0  0  0  0
   35.8760   27.0240   42.5390 H   0  0  0  0  0  0  0  0  0  0  0  0
   37.0650   25.2290   42.1590 C   0  0  0  0  0  3  0  0  0  0  0  0
   38.3110   24.6330   42.2170 C   0  0  0  0  0  3  0  0  0  0  0  0
   39.3780   25.3880   42.7110 C   0  0  0  0  0  0  0  0  0  0  0  0
   40.6220   24.7800   42.7630 C   0  0  0  0  0  3  0  0  0  0  0  0
   41.6990   25.5190   43.2550 C   0  0  0  0  0  3  0  0  0  0  0  0
   41.5300   26.8250   43.6800 C   0  0  0  0  0  3  0  0  0  0  0  0
   40.2750   27.3780   43.6050 C   0  0  0  0  0  3  0  0  0  0  0  0
   39.1620   26.7050   43.1300 C   0  0  0  0  0  0  0  0  0  0  0  0
   37.7290   29.6460   42.4190 C   0  0  0  0  0  0  0  0  0  0  0  0
   38.8920   30.3280   42.0240 C   0  0  0  0  0  0  0  0  0  0  0  0
   38.8170   31.2480   40.9740 C   0  0  0  0  0  0  0  0  0  0  0  0
   37.6140   31.4410   40.3810 N   0  0  0  0  0  0  0  0  0  0  0  0
   36.5050   30.7630   40.7890 C   0  0  0  0  0  0  0  0  0  0  0  0
   36.5620   29.8770   41.7950 N   0  0  0  0  0  0  0  0  0  0  0  0
   39.8170   30.1210   42.5450 H   0  0  0  0  0  0  0  0  0  0  0  0
   39.7150   31.7590   40.6870 H   0  0  0  0  0  0  0  0  0  0  0  0
   35.5860   30.9910   40.2470 H   0  0  0  0  0  0  0  0  0  0  0  0
  1  3  1  0  0  0  0
  1  2  1  0  0  0  0
  4 14  1  0  0  0  0
  4  1  1  0  0  0  0
  5  4  2  0  0  0  0
  6  5  1  0  0  0  0
  7  8  2  0  0  0  0
  7  5  1  0  0  0  0
  8  9  1  0  0  0  0
  9 10  2  0  0  0  0
  9 14  1  0  0  0  0
 10 11  1  0  0  0  0
 11 12  2  0  0  0  0
 13 12  1  0  0  0  0
 14 13  2  0  0  0  0
 15  1  1  0  0  0  0
 16 15  1  0  0  0  0
 16 21  1  0  0  0  0
 17 16  2  0  0  0  0
 18 19  2  0  0  0  0
 18 17  1  0  0  0  0
 19 20  1  0  0  0  0
 20 15  2  0  0  0  0
 22 17  1  0  0  0  0
 23 19  1  0  0  0  0
M  END
>  <minimizedAffinity>
-5.45628262

$$$$

 OpenBabel03242512163D

 23 25  0  0  0  0  0  0  0  0999 V2000
   36.8090   27.5290   43.1750 C   0  0  0  0  0  0  0  0  0  0  0  0
   35.9300   26.8380   43.0350 H   0  0  0  0  0  0  0  0  0  0  0  0
   36.7860   28.0060   44.1760 H   0  0  0  0  0  0  0  0  0  0  0  0
   38.0340   26.7010   43.0750 C   0  0  0  0  0  0  0  0  0  0  0  0
   39.2440   26.9710   43.6800 C   0  0  0  0  0  0  0  0  0  0  0  0
   39.2950   27.8790   44.2850 H   0  0  0  0  0  0  0  0  0  0  0  0
   40.3020   26.1070   43.4970 C   0  0  0  0  0  3  0  0  0  0  0  0
   40.2000   24.9660   42.7220 C   0  0  0  0  0  3  0  0  0  0  0  0
   38.9730   24.6950   42.1110 C   0  0  0  0  0  0  0  0  0  0  0  0
   38.8830   23.5490   41.3380 C   0  0  0  0  0  3  0  0  0  0  0  0
   37.6650   23.2630   40.7200 C   0  0  0  0  0  3  0  0  0  0  0  0
   36.5750   24.1000   40.8740 C   0  0  0  0  0  3  0  0  0  0  0  0
   36.7200   25.2220   41.6520 C   0  0  0  0  0  3  0  0  0  0  0  0
   37.8970   25.5700   42.2950 C   0  0  0  0  0  0  0  0  0  0  0  0
   36.7830   28.6230   42.1670 C   0  0  0  0  0  0  0  0  0  0  0  0
   37.8000   29.5920   42.2130 C   0  0  0  0  0  0  0  0  0  0  0  0
   37.7940   30.6280   41.2750 C   0  0  0  0  0  0  0  0  0  0  0  0
   36.7980   30.6500   40.3550 N   0  0  0  0  0  0  0  0  0  0  0  0
   35.8280   29.6940   40.3390 C   0  0  0  0  0  0  0  0  0  0  0  0
   35.8200   28.6940   41.2340 N   0  0  0  0  0  0  0  0  0  0  0  0
   38.5620   29.5100   42.9760 H   0  0  0  0  0  0  0  0  0  0  0  0
   38.5780   31.3580   41.3250 H   0  0  0  0  0  0  0  0  0  0  0  0
   35.0720   29.8020   39.5590 H   0  0  0  0  0  0  0  0  0  0  0  0
  1  3  1  0  0  0  0
  2  1  1  0  0  0  0
  4  1  1  0  0  0  0
  4  5  1  0  0  0  0
  5  6  1  0  0  0  0
  7  5  2  0  0  0  0
  8  7  1  0  0  0  0
  9 14  1  0  0  0  0
  9  8  2  0  0  0  0
 10  9  1  0  0  0  0
 11 12  1  0  0  0  0
 11 10  2  0  0  0  0
 12 13  2  0  0  0  0
 13 14  1  0  0  0  0
 14  4  2  0  0  0  0
 15 16  1  0  0  0  0
 15  1  1  0  0  0  0
 16 21  1  0  0  0  0
 17 22  1  0  0  0  0
 17 16  2  0  0  0  0
 18 17  1  0  0  0  0
 19 18  2  0  0  0  0
 19 20  1  0  0  0  0
 20 15  2  0  0  0  0
 23 19  1  0  0  0  0
M  END
>  <minimizedAffinity>
-5.40375185

$$$$

 OpenBabel03242512163D

 23 25  0  0  0  0  0  0  0  0999 V2000
   36.6380   29.5360   40.0030 C   0  0  0  0  0  0  0  0  0  0  0  0
   36.7380   28.7990   39.1570 H   0  0  0  0  0  0  0  0  0  0  0  0
   35.6030   29.9270   40.0730 H   0  0  0  0  0  0  0  0  0  0  0  0
   36.9520   28.8060   41.2540 C   0  0  0  0  0  0  0  0  0  0  0  0
   37.2690   29.3810   42.4670 C   0  0  0  0  0  0  0  0  0  0  0  0
   37.2870   30.4720   42.5000 H   0  0  0  0  0  0  0  0  0  0  0  0
   37.5400   28.5730   43.5510 C   0  0  0  0  0  3  0  0  0  0  0  0
   37.5070   27.1930   43.4710 C   0  0  0  0  0  3  0  0  0  0  0  0
   37.1860   26.6130   42.2410 C   0  0  0  0  0  0  0  0  0  0  0  0
   37.1560   25.2300   42.1740 C   0  0  0  0  0  3  0  0  0  0  0  0
   36.8370   24.6350   40.9520 C   0  0  0  0  0  3  0  0  0  0  0  0
   36.5590   25.4040   39.8370 C   0  0  0  0  0  3  0  0  0  0  0  0
   36.6020   26.7710   39.9610 C   0  0  0  0  0  3  0  0  0  0  0  0
   36.9110   27.4310   41.1390 C   0  0  0  0  0  0  0  0  0  0  0  0
   37.5350   30.7050   39.7910 C   0  0  0  0  0  0  0  0  0  0  0  0
   36.9960   31.9930   39.9500 C   0  0  0  0  0  0  0  0  0  0  0  0
   37.8220   33.1040   39.7550 C   0  0  0  0  0  0  0  0  0  0  0  0
   39.1160   32.8840   39.4180 N   0  0  0  0  0  0  0  0  0  0  0  0
   39.6060   31.6220   39.2720 C   0  0  0  0  0  0  0  0  0  0  0  0
   38.8260   30.5460   39.4550 N   0  0  0  0  0  0  0  0  0  0  0  0
   35.9530   32.0900   40.2200 H   0  0  0  0  0  0  0  0  0  0  0  0
   37.3930   34.0780   39.8810 H   0  0  0  0  0  0  0  0  0  0  0  0
   40.6610   31.5540   38.9990 H   0  0  0  0  0  0  0  0  0  0  0  0
  1  3  1  0  0  0  0
  1  4  1  0  0  0  0
  2  1  1  0  0  0  0
  4  5  1  0  0  0  0
  5  6  1  0  0  0  0
  5  7  2  0  0  0  0
  8  7  1  0  0  0  0
  9  8  2  0  0  0  0
 10  9  1  0  0  0  0
 11 10  2  0  0  0  0
 12 13  2  0  0  0  0
 12 11  1  0  0  0  0
 13 14  1  0  0  0  0
 14  4  2  0  0  0  0
 14  9  1  0  0  0  0
 15 16  1  0  0  0  0
 15  1  1  0  0  0  0
 16 21  1  0  0  0  0
 17 22  1  0  0  0  0
 17 16  2  0  0  0  0
 18 17  1  0  0  0  0
 19 18  2  0  0  0  0
 19 20  1  0  0  0  0
 20 15  2  0  0  0  0
 23 19  1  0  0  0  0
M  END
>  <minimizedAffinity>
-5.29547215

$$$$

 OpenBabel03242512163D

 23 25  0  0  0  0  0  0  0  0999 V2000
   37.9570   28.1150   43.6790 C   0  0  0  0  0  0  0  0  0  0  0  0
   38.2500   28.4130   44.7260 H   0  0  0  0  0  0  0  0  0  0  0  0
   36.8690   27.9130   43.6100 H   0  0  0  0  0  0  0  0  0  0  0  0
   38.2820   29.2580   42.7940 C   0  0  0  0  0  0  0  0  0  0  0  0
   39.3840   30.0800   42.9060 C   0  0  0  0  0  0  0  0  0  0  0  0
   40.0740   29.8610   43.7230 H   0  0  0  0  0  0  0  0  0  0  0  0
   39.5570   31.1100   42.0060 C   0  0  0  0  0  3  0  0  0  0  0  0
   38.6600   31.3570   40.9830 C   0  0  0  0  0  3  0  0  0  0  0  0
   37.5440   30.5230   40.8720 C   0  0  0  0  0  0  0  0  0  0  0  0
   36.6540   30.7800   39.8430 C   0  0  0  0  0  3  0  0  0  0  0  0
   35.5330   29.9570   39.7180 C   0  0  0  0  0  3  0  0  0  0  0  0
   35.3170   28.9110   40.5970 C   0  0  0  0  0  3  0  0  0  0  0  0
   36.2340   28.7010   41.5980 C   0  0  0  0  0  3  0  0  0  0  0  0
   37.3660   29.4770   41.7840 C   0  0  0  0  0  0  0  0  0  0  0  0
   38.6620   26.8680   43.2730 C   0  0  0  0  0  0  0  0  0  0  0  0
   39.9970   26.6980   43.6770 C   0  0  0  0  0  0  0  0  0  0  0  0
   40.6760   25.5340   43.3060 C   0  0  0  0  0  0  0  0  0  0  0  0
   40.0090   24.6160   42.5650 N   0  0  0  0  0  0  0  0  0  0  0  0
   38.7150   24.8120   42.1900 C   0  0  0  0  0  0  0  0  0  0  0  0
   38.0500   25.9240   42.5390 N   0  0  0  0  0  0  0  0  0  0  0  0
   40.4640   27.4750   44.2670 H   0  0  0  0  0  0  0  0  0  0  0  0
   41.6940   25.4220   43.6240 H   0  0  0  0  0  0  0  0  0  0  0  0
   38.2690   24.0130   41.5950 H   0  0  0  0  0  0  0  0  0  0  0  0
  1  2  1  0  0  0  0
  3  1  1  0  0  0  0
  4  5  1  0  0  0  0
  4  1  1  0  0  0  0
  5  6  1  0  0  0  0
  7  5  2  0  0  0  0
  8  7  1  0  0  0  0
  9  8  2  0  0  0  0
  9 14  1  0  0  0  0
 10  9  1  0  0  0  0
 11 10  2  0  0  0  0
 11 12  1  0  0  0  0
 12 13  2  0  0  0  0
 13 14  1  0  0  0  0
 14  4  2  0  0  0  0
 15 16  1  0  0  0  0
 15  1  1  0  0  0  0
 16 21  1  0  0  0  0
 17 22  1  0  0  0  0
 17 16  2  0  0  0  0
 18 17  1  0  0  0  0
 19 20  1  0  0  0  0
 19 18  2  0  0  0  0
 20 15  2  0  0  0  0
 23 19  1  0  0  0  0
M  END
>  <minimizedAffinity>
-5.21298265

$$$$

 OpenBabel03242512163D

 23 25  0  0  0  0  0  0  0  0999 V2000
   35.5720   29.0170   40.8070 C   0  0  0  0  0  0  0  0  0  0  0  0
   34.7710   29.4290   41.4850 H   0  0  0  0  0  0  0  0  0  0  0  0
   35.1330   28.4020   39.9960 H   0  0  0  0  0  0  0  0  0  0  0  0
   36.2650   30.1770   40.1980 C   0  0  0  0  0  0  0  0  0  0  0  0
   36.7260   31.2880   40.8720 C   0  0  0  0  0  0  0  0  0  0  0  0
   36.5630   31.3070   41.9510 H   0  0  0  0  0  0  0  0  0  0  0  0
   37.3550   32.2950   40.1700 C   0  0  0  0  0  3  0  0  0  0  0  0
   37.5430   32.2370   38.8020 C   0  0  0  0  0  3  0  0  0  0  0  0
   37.0740   31.1100   38.1210 C   0  0  0  0  0  0  0  0  0  0  0  0
   37.2690   31.0630   36.7510 C   0  0  0  0  0  3  0  0  0  0  0  0
   36.8060   29.9440   36.0560 C   0  0  0  0  0  3  0  0  0  0  0  0
   36.1700   28.9090   36.7160 C   0  0  0  0  0  3  0  0  0  0  0  0
   36.0040   29.0080   38.0760 C   0  0  0  0  0  3  0  0  0  0  0  0
   36.4360   30.0860   38.8310 C   0  0  0  0  0  0  0  0  0  0  0  0
   36.5030   28.1390   41.5680 C   0  0  0  0  0  0  0  0  0  0  0  0
   36.8980   26.9250   40.9810 C   0  0  0  0  0  0  0  0  0  0  0  0
   37.7720   26.0860   41.6780 C   0  0  0  0  0  0  0  0  0  0  0  0
   38.2020   26.4870   42.9000 N   0  0  0  0  0  0  0  0  0  0  0  0
   37.7980   27.6710   43.4390 C   0  0  0  0  0  0  0  0  0  0  0  0
   36.9590   28.4860   42.7820 N   0  0  0  0  0  0  0  0  0  0  0  0
   36.5150   26.6720   40.0020 H   0  0  0  0  0  0  0  0  0  0  0  0
   38.0630   25.1640   41.2140 H   0  0  0  0  0  0  0  0  0  0  0  0
   38.2000   27.9000   44.4280 H   0  0  0  0  0  0  0  0  0  0  0  0
  1  2  1  0  0  0  0
  1 15  1  0  0  0  0
  3  1  1  0  0  0  0
  4  1  1  0  0  0  0
  4  5  1  0  0  0  0
  5  6  1  0  0  0  0
  7  5  2  0  0  0  0
  8  7  1  0  0  0  0
  9  8  2  0  0  0  0
  9 14  1  0  0  0  0
 10  9  1  0  0  0  0
 11 12  1  0  0  0  0
 11 10  2  0  0  0  0
 12 13  2  0  0  0  0
 13 14  1  0  0  0  0
 14  4  2  0  0  0  0
 15 20  1  0  0  0  0
 16 15  2  0  0  0  0
 16 17  1  0  0  0  0
 17 18  2  0  0  0  0
 18 19  1  0  0  0  0
 19 23  1  0  0  0  0
 20 19  2  0  0  0  0
 21 16  1  0  0  0  0
 22 17  1  0  0  0  0
M  END
>  <minimizedAffinity>
-5.20458698

$$$$

 OpenBabel03242512163D

 23 25  0  0  0  0  0  0  0  0999 V2000
   37.0190   26.5340   42.7530 C   0  0  0  0  0  0  0  0  0  0  0  0
   37.0330   26.2680   43.8480 H   0  0  0  0  0  0  0  0  0  0  0  0
   35.9820   26.6860   42.3910 H   0  0  0  0  0  0  0  0  0  0  0  0
   37.7610   27.8080   42.6060 C   0  0  0  0  0  0  0  0  0  0  0  0
   38.9640   28.1170   43.2060 C   0  0  0  0  0  0  0  0  0  0  0  0
   39.4020   27.3470   43.8450 H   0  0  0  0  0  0  0  0  0  0  0  0
   39.5410   29.3480   42.9760 C   0  0  0  0  0  3  0  0  0  0  0  0
   38.9550   30.2990   42.1610 C   0  0  0  0  0  3  0  0  0  0  0  0
   37.7360   29.9830   41.5540 C   0  0  0  0  0  0  0  0  0  0  0  0
   37.1610   30.9430   40.7380 C   0  0  0  0  0  3  0  0  0  0  0  0
   35.9430   30.6450   40.1250 C   0  0  0  0  0  3  0  0  0  0  0  0
   35.3260   29.4230   40.3250 C   0  0  0  0  0  3  0  0  0  0  0  0
   35.9430   28.5080   41.1430 C   0  0  0  0  0  3  0  0  0  0  0  0
   37.1490   28.7340   41.7840 C   0  0  0  0  0  0  0  0  0  0  0  0
   37.6110   25.4380   41.9380 C   0  0  0  0  0  0  0  0  0  0  0  0
   36.7720   24.3880   41.5280 C   0  0  0  0  0  0  0  0  0  0  0  0
   37.3080   23.3490   40.7630 C   0  0  0  0  0  0  0  0  0  0  0  0
   38.6260   23.4030   40.4490 N   0  0  0  0  0  0  0  0  0  0  0  0
   39.4110   24.4360   40.8630 C   0  0  0  0  0  0  0  0  0  0  0  0
   38.9100   25.4400   41.5990 N   0  0  0  0  0  0  0  0  0  0  0  0
   35.7300   24.4130   41.8170 H   0  0  0  0  0  0  0  0  0  0  0  0
   36.6520   22.5570   40.4580 H   0  0  0  0  0  0  0  0  0  0  0  0
   40.4580   24.3850   40.5580 H   0  0  0  0  0  0  0  0  0  0  0  0
  1  2  1  0  0  0  0
  3  1  1  0  0  0  0
  4  1  1  0  0  0  0
  4  5  1  0  0  0  0
  5  6  1  0  0  0  0
  7  5  2  0  0  0  0
  8  7  1  0  0  0  0
  9 14  1  0  0  0  0
  9  8  2  0  0  0  0
 10  9  1  0  0  0  0
 11 12  1  0  0  0  0
 11 10  2  0  0  0  0
 12 13  2  0  0  0  0
 13 14  1  0  0  0  0
 14  4  2  0  0  0  0
 15  1  1  0  0  0  0
 16 21  1  0  0  0  0
 16 15  2  0  0  0  0
 17 16  1  0  0  0  0
 18 17  2  0  0  0  0
 18 19  1  0  0  0  0
 19 20  2  0  0  0  0
 20 15  1  0  0  0  0
 22 17  1  0  0  0  0
 23 19  1  0  0  0  0
M  END
>  <minimizedAffinity>
-5.12137651

$$$$

 OpenBabel03242512163D

 23 25  0  0  0  0  0  0  0  0999 V2000
   35.8230   28.6350   41.2420 C   0  0  0  0  0  0  0  0  0  0  0  0
   35.7510   29.6190   41.7850 H   0  0  0  0  0  0  0  0  0  0  0  0
   34.8730   28.0670   41.3130 H   0  0  0  0  0  0  0  0  0  0  0  0
   36.0820   28.9440   39.8150 C   0  0  0  0  0  0  0  0  0  0  0  0
   35.8790   28.0880   38.7530 C   0  0  0  0  0  0  0  0  0  0  0  0
   35.4930   27.0950   38.9940 H   0  0  0  0  0  0  0  0  0  0  0  0
   36.1660   28.5140   37.4730 C   0  0  0  0  0  3  0  0  0  0  0  0
   36.6550   29.7790   37.2070 C   0  0  0  0  0  3  0  0  0  0  0  0
   36.8590   30.6450   38.2860 C   0  0  0  0  0  0  0  0  0  0  0  0
   37.3490   31.9100   38.0060 C   0  0  0  0  0  3  0  0  0  0  0  0
   37.5590   32.7870   39.0710 C   0  0  0  0  0  3  0  0  0  0  0  0
   37.2870   32.4050   40.3720 C   0  0  0  0  0  3  0  0  0  0  0  0
   36.8020   31.1390   40.5910 C   0  0  0  0  0  3  0  0  0  0  0  0
   36.5690   30.2150   39.5850 C   0  0  0  0  0  0  0  0  0  0  0  0
   36.8890   27.7840   41.8370 C   0  0  0  0  0  0  0  0  0  0  0  0
   37.7490   28.3630   42.7850 C   0  0  0  0  0  0  0  0  0  0  0  0
   38.7570   27.5810   43.3560 C   0  0  0  0  0  0  0  0  0  0  0  0
   38.8580   26.2870   42.9650 N   0  0  0  0  0  0  0  0  0  0  0  0
   38.0070   25.7570   42.0430 C   0  0  0  0  0  0  0  0  0  0  0  0
   37.0360   26.4960   41.4860 N   0  0  0  0  0  0  0  0  0  0  0  0
   37.6080   29.4030   43.0480 H   0  0  0  0  0  0  0  0  0  0  0  0
   39.4030   28.0410   44.0780 H   0  0  0  0  0  0  0  0  0  0  0  0
   38.1730   24.7070   41.7960 H   0  0  0  0  0  0  0  0  0  0  0  0
  1  3  1  0  0  0  0
  1  2  1  0  0  0  0
  1 15  1  0  0  0  0
  4  1  1  0  0  0  0
  5  6  1  0  0  0  0
  5  4  2  0  0  0  0
  7  5  1  0  0  0  0
  8  7  2  0  0  0  0
  8  9  1  0  0  0  0
  9 14  1  0  0  0  0
 10  9  2  0  0  0  0
 10 11  1  0  0  0  0
 11 12  2  0  0  0  0
 12 13  1  0  0  0  0
 14  4  1  0  0  0  0
 14 13  2  0  0  0  0
 15 16  1  0  0  0  0
 16 21  1  0  0  0  0
 16 17  2  0  0  0  0
 17 22  1  0  0  0  0
 18 17  1  0  0  0  0
 19 18  2  0  0  0  0
 20 15  2  0  0  0  0
 20 19  1  0  0  0  0
 23 19  1  0  0  0  0
M  END
>  <minimizedAffinity>
-5.10328817

$$$$

 OpenBabel03242512163D

 23 25  0  0  0  0  0  0  0  0999 V2000
   37.3420   27.6090   43.0540 C   0  0  0  0  0  0  0  0  0  0  0  0
   38.1680   28.0850   43.6540 H   0  0  0  0  0  0  0  0  0  0  0  0
   36.4640   27.3810   43.6920 H   0  0  0  0  0  0  0  0  0  0  0  0
   36.9320   28.5920   42.0230 C   0  0  0  0  0  0  0  0  0  0  0  0
   35.8110   28.5050   41.2250 C   0  0  0  0  0  0  0  0  0  0  0  0
   35.1730   27.6310   41.3720 H   0  0  0  0  0  0  0  0  0  0  0  0
   35.5550   29.4990   40.3030 C   0  0  0  0  0  3  0  0  0  0  0  0
   36.3870   30.5920   40.1440 C   0  0  0  0  0  3  0  0  0  0  0  0
   37.5220   30.6770   40.9550 C   0  0  0  0  0  0  0  0  0  0  0  0
   38.3470   31.7770   40.7860 C   0  0  0  0  0  3  0  0  0  0  0  0
   39.4860   31.8770   41.5870 C   0  0  0  0  0  3  0  0  0  0  0  0
   39.7840   30.9050   42.5250 C   0  0  0  0  0  3  0  0  0  0  0  0
   38.9300   29.8370   42.6500 C   0  0  0  0  0  3  0  0  0  0  0  0
   37.7840   29.6700   41.8910 C   0  0  0  0  0  0  0  0  0  0  0  0
   37.7980   26.3240   42.4590 C   0  0  0  0  0  0  0  0  0  0  0  0
   39.1430   26.2150   42.0670 C   0  0  0  0  0  0  0  0  0  0  0  0
   39.5930   25.0160   41.5060 C   0  0  0  0  0  0  0  0  0  0  0  0
   38.7010   24.0050   41.3650 N   0  0  0  0  0  0  0  0  0  0  0  0
   37.4040   24.1440   41.7560 C   0  0  0  0  0  0  0  0  0  0  0  0
   36.9580   25.2890   42.2960 N   0  0  0  0  0  0  0  0  0  0  0  0
   39.7970   27.0650   42.2100 H   0  0  0  0  0  0  0  0  0  0  0  0
   40.6220   24.9520   41.2130 H   0  0  0  0  0  0  0  0  0  0  0  0
   36.7670   23.2720   41.5990 H   0  0  0  0  0  0  0  0  0  0  0  0
  1  2  1  0  0  0  0
  1  3  1  0  0  0  0
  4  1  1  0  0  0  0
  5  6  1  0  0  0  0
  5  4  2  0  0  0  0
  7  5  1  0  0  0  0
  8  7  2  0  0  0  0
  8  9  1  0  0  0  0
  9 14  1  0  0  0  0
 10  9  2  0  0  0  0
 10 11  1  0  0  0  0
 11 12  2  0  0  0  0
 12 13  1  0  0  0  0
 14  4  1  0  0  0  0
 14 13  2  0  0  0  0
 15  1  1  0  0  0  0
 16 21  1  0  0  0  0
 16 15  2  0  0  0  0
 17 16  1  0  0  0  0
 18 17  2  0  0  0  0
 18 19  1  0  0  0  0
 19 20  2  0  0  0  0
 20 15  1  0  0  0  0
 22 17  1  0  0  0  0
 23 19  1  0  0  0  0
M  END
>  <minimizedAffinity>
-5.09929657

$$$$

 OpenBabel03242512163D

 23 25  0  0  0  0  0  0  0  0999 V2000
   36.1990   30.5760   41.0650 C   0  0  0  0  0  0  0  0  0  0  0  0
   35.1870   31.0530   40.9280 H   0  0  0  0  0  0  0  0  0  0  0  0
   36.3500   30.2530   42.1150 H   0  0  0  0  0  0  0  0  0  0  0  0
   36.2370   29.3780   40.1940 C   0  0  0  0  0  0  0  0  0  0  0  0
   36.0130   29.3610   38.8330 C   0  0  0  0  0  0  0  0  0  0  0  0
   35.7890   30.3210   38.3640 H   0  0  0  0  0  0  0  0  0  0  0  0
   36.0810   28.1660   38.1480 C   0  0  0  0  0  3  0  0  0  0  0  0
   36.3680   26.9690   38.7780 C   0  0  0  0  0  3  0  0  0  0  0  0
   36.5940   26.9890   40.1570 C   0  0  0  0  0  0  0  0  0  0  0  0
   36.8810   25.7830   40.7750 C   0  0  0  0  0  3  0  0  0  0  0  0
   37.1090   25.7850   42.1520 C   0  0  0  0  0  3  0  0  0  0  0  0
   37.0510   26.9590   42.8810 C   0  0  0  0  0  3  0  0  0  0  0  0
   36.7640   28.1260   42.2160 C   0  0  0  0  0  3  0  0  0  0  0  0
   36.5260   28.2000   40.8540 C   0  0  0  0  0  0  0  0  0  0  0  0
   37.2830   31.5430   40.7430 C   0  0  0  0  0  0  0  0  0  0  0  0
   38.5820   31.2610   41.2010 C   0  0  0  0  0  0  0  0  0  0  0  0
   39.6150   32.1570   40.9090 C   0  0  0  0  0  0  0  0  0  0  0  0
   39.3120   33.2660   40.1920 N   0  0  0  0  0  0  0  0  0  0  0  0
   38.0420   33.5090   39.7640 C   0  0  0  0  0  0  0  0  0  0  0  0
   37.0410   32.6590   40.0370 N   0  0  0  0  0  0  0  0  0  0  0  0
   38.7470   30.3550   41.7680 H   0  0  0  0  0  0  0  0  0  0  0  0
   40.5990   31.9240   41.2660 H   0  0  0  0  0  0  0  0  0  0  0  0
   37.9040   34.4300   39.1950 H   0  0  0  0  0  0  0  0  0  0  0  0
  1  3  1  0  0  0  0
  2  1  1  0  0  0  0
  4 14  1  0  0  0  0
  4  1  1  0  0  0  0
  5  4  2  0  0  0  0
  6  5  1  0  0  0  0
  7  8  2  0  0  0  0
  7  5  1  0  0  0  0
  8  9  1  0  0  0  0
  9 10  2  0  0  0  0
  9 14  1  0  0  0  0
 10 11  1  0  0  0  0
 11 12  2  0  0  0  0
 13 12  1  0  0  0  0
 14 13  2  0  0  0  0
 15  1  1  0  0  0  0
 15 16  1  0  0  0  0
 16 21  1  0  0  0  0
 17 16  2  0  0  0  0
 17 22  1  0  0  0  0
 18 17  1  0  0  0  0
 19 20  1  0  0  0  0
 19 18  2  0  0  0  0
 20 15  2  0  0  0  0
 23 19  1  0  0  0  0
M  END
>  <minimizedAffinity>
-5.07787848

$$$$
