
 OpenBabel03242519123D

 49 53  0  0  1  0  0  0  0  0999 V2000
   39.6050   31.1950   39.8950 C   0  0  0  0  0  0  0  0  0  0  0  0
   39.2690   32.4730   39.4090 C   0  0  0  0  0  0  0  0  0  0  0  0
   37.9260   32.7440   39.4610 C   0  0  0  0  0  0  0  0  0  0  0  0
   36.9540   31.9040   39.9270 C   0  0  0  0  0  0  0  0  0  0  0  0
   37.3340   30.6580   40.3960 C   0  0  0  0  0  0  0  0  0  0  0  0
   38.6580   30.3280   40.3710 C   0  0  0  0  0  0  0  0  0  0  0  0
   37.6350   33.7270   39.0880 H   0  0  0  0  0  0  0  0  0  0  0  0
   35.9280   32.2510   39.9110 H   0  0  0  0  0  0  0  0  0  0  0  0
   36.5680   29.9820   40.7660 H   0  0  0  0  0  0  0  0  0  0  0  0
   38.8890   28.7940   42.2730 C   0  0  0  0  0  0  0  0  0  0  0  0
   38.5960   29.7470   43.0580 O   0  0  0  0  0  0  0  0  0  0  0  0
   38.9970   29.0400   40.8660 N   0  0  0  0  0  0  0  0  0  0  0  0
   39.2880   28.4370   40.0860 H   0  0  0  0  0  0  0  0  0  0  0  0
   39.1550   27.3740   42.5920 C   0  0  0  0  0  0  0  0  0  0  0  0
   40.1320   26.9700   43.4730 C   0  0  0  0  0  0  0  0  0  0  0  0
   40.7310   27.7340   43.9490 H   0  0  0  0  0  0  0  0  0  0  0  0
   40.3130   25.6210   43.7100 C   0  0  0  0  0  3  0  0  0  0  0  0
   39.5530   24.6390   43.1000 C   0  0  0  0  0  3  0  0  0  0  0  0
   38.5710   25.0440   42.2140 C   0  0  0  0  0  0  0  0  0  0  0  0
   37.8030   24.0710   41.5960 C   0  0  0  0  0  3  0  0  0  0  0  0
   36.8120   24.4440   40.7050 C   0  0  0  0  0  3  0  0  0  0  0  0
   36.5940   25.7890   40.4360 C   0  0  0  0  0  3  0  0  0  0  0  0
   37.4000   26.7200   41.0890 C   0  0  0  0  0  3  0  0  0  0  0  0
   38.3810   26.3960   41.9700 C   0  0  0  0  0  0  0  0  0  0  0  0
   40.2030   33.4050   38.9150 N   0  0  0  0  0  0  0  0  0  0  0  0
   40.2600   33.2680   37.8750 H   0  0  0  0  0  0  0  0  0  0  0  0
   41.8670   35.3270   41.4020 N   0  0  0  0  0  0  0  0  0  0  0  0
   41.4910   34.0000   40.9110 C   0  0  0  0  0  0  0  0  0  0  0  0
   40.9970   34.3990   39.5600 C   0  0  2  0  0  0  0  0  0  0  0  0
   40.0770   35.5690   39.8940 C   0  0  0  0  0  0  0  0  0  0  0  0
   40.7960   36.2220   41.0400 C   0  0  0  0  0  0  0  0  0  0  0  0
   40.7270   33.5460   41.5550 H   0  0  0  0  0  0  0  0  0  0  0  0
   42.4040   33.3840   40.8430 H   0  0  0  0  0  0  0  0  0  0  0  0
   41.8490   34.7610   38.9610 H   0  0  0  0  0  0  0  0  0  0  0  0
   40.0760   36.2680   39.0290 H   0  0  0  0  0  0  0  0  0  0  0  0
   39.0630   35.2200   40.1680 H   0  0  0  0  0  0  0  0  0  0  0  0
   40.1370   36.3960   41.9010 H   0  0  0  0  0  0  0  0  0  0  0  0
   41.2200   37.2230   40.7420 H   0  0  0  0  0  0  0  0  0  0  0  0
   44.2200   36.9740   43.7910 C   0  0  0  0  0  0  0  0  0  0  0  0
   43.0260   36.6310   43.1750 C   0  0  0  0  0  0  0  0  0  0  0  0
   43.0160   35.7440   42.1000 C   0  0  0  0  0  0  0  0  0  0  0  0
   44.2260   35.2490   41.7050 N   0  0  0  0  0  0  0  0  0  0  0  0
   45.3810   35.5750   42.2960 C   0  0  0  0  0  0  0  0  0  0  0  0
   45.3680   36.4410   43.3430 N   0  0  0  0  0  0  0  0  0  0  0  0
   44.0520   37.6620   44.6040 H   0  0  0  0  0  0  0  0  0  0  0  0
   42.0220   36.9740   43.4240 H   0  0  0  0  0  0  0  0  0  0  0  0
   46.3470   35.1850   41.9920 H   0  0  0  0  0  0  0  0  0  0  0  0
   42.1380   30.5650   39.8550 N   0  0  0  0  0  0  0  0  0  0  0  0
   41.0190   30.8350   39.8740 C   0  0  0  0  0  0  0  0  0  0  0  0
  1  6  1  0  0  0  0
  2  3  1  0  0  0  0
  2  1  2  0  0  0  0
  3  4  2  0  0  0  0
  4  5  1  0  0  0  0
  5  9  1  0  0  0  0
  6  5  2  0  0  0  0
  6 12  1  0  0  0  0
  7  3  1  0  0  0  0
  8  4  1  0  0  0  0
 10 14  1  0  0  0  0
 10 11  2  0  0  0  0
 12 10  1  0  0  0  0
 13 12  1  0  0  0  0
 14 15  1  0  0  0  0
 15 17  2  0  0  0  0
 15 16  1  0  0  0  0
 18 17  1  0  0  0  0
 19 18  2  0  0  0  0
 20 19  1  0  0  0  0
 21 20  2  0  0  0  0
 22 21  1  0  0  0  0
 22 23  2  0  0  0  0
 23 24  1  0  0  0  0
 24 19  1  0  0  0  0
 24 14  2  0  0  0  0
 25  2  1  0  0  0  0
 25 29  1  0  0  0  0
 26 25  1  0  0  0  0
 27 41  1  0  0  0  0
 28 27  1  0  0  0  0
 28 32  1  0  0  0  0
 29 34  1  6  0  0  0
 29 30  1  0  0  0  0
 29 28  1  0  0  0  0
 30 36  1  0  0  0  0
 30 31  1  0  0  0  0
 31 27  1  0  0  0  0
 31 37  1  0  0  0  0
 33 28  1  0  0  0  0
 35 30  1  0  0  0  0
 38 31  1  0  0  0  0
 39 45  1  0  0  0  0
 40 46  1  0  0  0  0
 40 39  2  0  0  0  0
 41 40  1  0  0  0  0
 42 41  2  0  0  0  0
 42 43  1  0  0  0  0
 43 44  2  0  0  0  0
 44 39  1  0  0  0  0
 47 43  1  0  0  0  0
 48 49  3  0  0  0  0
 49  1  1  0  0  0  0
M  END
>  <minimizedAffinity>
-7.89858198

$$$$

 OpenBabel03242519123D

 49 53  0  0  1  0  0  0  0  0999 V2000
   39.3900   31.4760   39.6640 C   0  0  0  0  0  0  0  0  0  0  0  0
   39.3190   32.8430   39.3350 C   0  0  0  0  0  0  0  0  0  0  0  0
   38.0620   33.3730   39.4660 C   0  0  0  0  0  0  0  0  0  0  0  0
   36.9430   32.7000   39.8720 C   0  0  0  0  0  0  0  0  0  0  0  0
   37.0650   31.3580   40.1860 C   0  0  0  0  0  0  0  0  0  0  0  0
   38.2920   30.7700   40.0760 C   0  0  0  0  0  0  0  0  0  0  0  0
   37.9740   34.4320   39.2150 H   0  0  0  0  0  0  0  0  0  0  0  0
   36.0100   33.2480   39.9320 H   0  0  0  0  0  0  0  0  0  0  0  0
   36.1810   30.8130   40.5070 H   0  0  0  0  0  0  0  0  0  0  0  0
   37.9160   28.9760   41.7080 C   0  0  0  0  0  0  0  0  0  0  0  0
   37.5620   29.8470   42.5610 O   0  0  0  0  0  0  0  0  0  0  0  0
   38.3640   29.3920   40.4130 N   0  0  0  0  0  0  0  0  0  0  0  0
   38.7540   28.8640   39.6210 H   0  0  0  0  0  0  0  0  0  0  0  0
   37.9430   27.5030   41.8400 C   0  0  0  0  0  0  0  0  0  0  0  0
   36.9500   26.6850   41.3520 C   0  0  0  0  0  0  0  0  0  0  0  0
   36.1120   27.1500   40.8510 H   0  0  0  0  0  0  0  0  0  0  0  0
   37.0560   25.3170   41.5220 C   0  0  0  0  0  3  0  0  0  0  0  0
   38.1230   24.7180   42.1660 C   0  0  0  0  0  3  0  0  0  0  0  0
   39.1210   25.5390   42.6570 C   0  0  0  0  0  0  0  0  0  0  0  0
   40.1950   24.9520   43.3050 C   0  0  0  0  0  3  0  0  0  0  0  0
   41.2120   25.7460   43.8060 C   0  0  0  0  0  3  0  0  0  0  0  0
   41.1470   27.1260   43.6590 C   0  0  0  0  0  3  0  0  0  0  0  0
   40.0400   27.6570   42.9980 C   0  0  0  0  0  3  0  0  0  0  0  0
   39.0240   26.9130   42.4910 C   0  0  0  0  0  0  0  0  0  0  0  0
   40.4180   33.6160   38.9130 N   0  0  0  0  0  0  0  0  0  0  0  0
   40.5920   33.3860   37.9030 H   0  0  0  0  0  0  0  0  0  0  0  0
   42.0290   35.4880   41.4720 N   0  0  0  0  0  0  0  0  0  0  0  0
   41.5810   34.1790   40.9930 C   0  0  0  0  0  0  0  0  0  0  0  0
   41.2400   34.5640   39.5920 C   0  0  2  0  0  0  0  0  0  0  0  0
   40.4010   35.8210   39.8060 C   0  0  0  0  0  0  0  0  0  0  0  0
   41.0760   36.4560   40.9880 C   0  0  0  0  0  0  0  0  0  0  0  0
   40.7290   33.8180   41.5820 H   0  0  0  0  0  0  0  0  0  0  0  0
   42.4380   33.4860   41.0260 H   0  0  0  0  0  0  0  0  0  0  0  0
   42.1680   34.8280   39.0580 H   0  0  0  0  0  0  0  0  0  0  0  0
   40.5350   36.4820   38.9210 H   0  0  0  0  0  0  0  0  0  0  0  0
   39.3410   35.5700   40.0020 H   0  0  0  0  0  0  0  0  0  0  0  0
   40.3650   36.7190   41.7820 H   0  0  0  0  0  0  0  0  0  0  0  0
   41.6110   37.4040   40.6960 H   0  0  0  0  0  0  0  0  0  0  0  0
   45.4940   35.8690   42.8160 C   0  0  0  0  0  0  0  0  0  0  0  0
   44.4650   35.4710   41.9760 C   0  0  0  0  0  0  0  0  0  0  0  0
   43.1480   35.8340   42.2530 C   0  0  0  0  0  0  0  0  0  0  0  0
   42.9450   36.5860   43.3750 N   0  0  0  0  0  0  0  0  0  0  0  0
   43.9330   36.9740   44.1880 C   0  0  0  0  0  0  0  0  0  0  0  0
   45.2100   36.6090   43.9000 N   0  0  0  0  0  0  0  0  0  0  0  0
   46.4460   35.5110   42.4580 H   0  0  0  0  0  0  0  0  0  0  0  0
   44.5370   34.8760   41.0660 H   0  0  0  0  0  0  0  0  0  0  0  0
   43.7820   37.5730   45.0800 H   0  0  0  0  0  0  0  0  0  0  0  0
   41.7380   30.3530   39.4610 N   0  0  0  0  0  0  0  0  0  0  0  0
   40.7000   30.8410   39.5520 C   0  0  0  0  0  0  0  0  0  0  0  0
  1  6  1  0  0  0  0
  2  3  1  0  0  0  0
  2  1  2  0  0  0  0
  3  4  2  0  0  0  0
  4  8  1  0  0  0  0
  4  5  1  0  0  0  0
  5  9  1  0  0  0  0
  6  5  2  0  0  0  0
  6 12  1  0  0  0  0
  7  3  1  0  0  0  0
 10 14  1  0  0  0  0
 10 11  2  0  0  0  0
 12 10  1  0  0  0  0
 13 12  1  0  0  0  0
 14 24  1  0  0  0  0
 15 17  1  0  0  0  0
 15 14  2  0  0  0  0
 16 15  1  0  0  0  0
 17 18  2  0  0  0  0
 18 19  1  0  0  0  0
 19 20  1  0  0  0  0
 20 21  2  0  0  0  0
 22 21  1  0  0  0  0
 23 22  2  0  0  0  0
 24 19  2  0  0  0  0
 24 23  1  0  0  0  0
 25  2  1  0  0  0  0
 25 29  1  0  0  0  0
 26 25  1  0  0  0  0
 27 41  1  0  0  0  0
 28 33  1  0  0  0  0
 28 27  1  0  0  0  0
 28 32  1  0  0  0  0
 29 34  1  6  0  0  0
 29 30  1  0  0  0  0
 29 28  1  0  0  0  0
 30 36  1  0  0  0  0
 30 31  1  0  0  0  0
 31 27  1  0  0  0  0
 31 37  1  0  0  0  0
 35 30  1  0  0  0  0
 38 31  1  0  0  0  0
 39 44  1  0  0  0  0
 40 41  1  0  0  0  0
 40 39  2  0  0  0  0
 41 42  2  0  0  0  0
 42 43  1  0  0  0  0
 43 47  1  0  0  0  0
 44 43  2  0  0  0  0
 45 39  1  0  0  0  0
 46 40  1  0  0  0  0
 48 49  3  0  0  0  0
 49  1  1  0  0  0  0
M  END
>  <minimizedAffinity>
-7.87431717

$$$$

 OpenBabel03242519123D

 49 53  0  0  1  0  0  0  0  0999 V2000
   39.8790   31.4120   38.8300 C   0  0  0  0  0  0  0  0  0  0  0  0
   40.5980   32.5130   38.3270 C   0  0  0  0  0  0  0  0  0  0  0  0
   41.5520   32.1690   37.4050 C   0  0  0  0  0  0  0  0  0  0  0  0
   41.8310   30.9030   36.9700 C   0  0  0  0  0  0  0  0  0  0  0  0
   41.0950   29.8540   37.4930 C   0  0  0  0  0  0  0  0  0  0  0  0
   40.1290   30.1320   38.4160 C   0  0  0  0  0  0  0  0  0  0  0  0
   42.1290   33.0020   36.9980 H   0  0  0  0  0  0  0  0  0  0  0  0
   42.6140   30.7770   36.2320 H   0  0  0  0  0  0  0  0  0  0  0  0
   41.3110   28.8440   37.1550 H   0  0  0  0  0  0  0  0  0  0  0  0
   39.9570   28.2670   40.0030 C   0  0  0  0  0  0  0  0  0  0  0  0
   41.1240   28.5350   40.4220 O   0  0  0  0  0  0  0  0  0  0  0  0
   39.3990   29.0210   38.9200 N   0  0  0  0  0  0  0  0  0  0  0  0
   38.5210   28.9200   38.3960 H   0  0  0  0  0  0  0  0  0  0  0  0
   39.0110   27.2340   40.4810 C   0  0  0  0  0  0  0  0  0  0  0  0
   38.7950   26.0470   39.8200 C   0  0  0  0  0  0  0  0  0  0  0  0
   39.3450   25.8690   38.9070 H   0  0  0  0  0  0  0  0  0  0  0  0
   37.8900   25.1400   40.3380 C   0  0  0  0  0  3  0  0  0  0  0  0
   37.1800   25.3650   41.5040 C   0  0  0  0  0  3  0  0  0  0  0  0
   37.3970   26.5570   42.1690 C   0  0  0  0  0  0  0  0  0  0  0  0
   36.6920   26.7950   43.3370 C   0  0  0  0  0  3  0  0  0  0  0  0
   36.8870   27.9790   44.0270 C   0  0  0  0  0  3  0  0  0  0  0  0
   37.7860   28.9210   43.5430 C   0  0  0  0  0  3  0  0  0  0  0  0
   38.4650   28.6230   42.3620 C   0  0  0  0  0  3  0  0  0  0  0  0
   38.3030   27.4740   41.6570 C   0  0  0  0  0  0  0  0  0  0  0  0
   40.3770   33.8490   38.7140 N   0  0  0  0  0  0  0  0  0  0  0  0
   39.4430   34.1350   38.3280 H   0  0  0  0  0  0  0  0  0  0  0  0
   41.9630   35.5210   41.4230 N   0  0  0  0  0  0  0  0  0  0  0  0
   41.5870   34.2480   40.8050 C   0  0  0  0  0  0  0  0  0  0  0  0
   41.1590   34.7690   39.4740 C   0  0  2  0  0  0  0  0  0  0  0  0
   40.2460   35.9270   39.8660 C   0  0  0  0  0  0  0  0  0  0  0  0
   40.9250   36.4660   41.0920 C   0  0  0  0  0  0  0  0  0  0  0  0
   40.7870   33.7580   41.3760 H   0  0  0  0  0  0  0  0  0  0  0  0
   42.4900   33.6210   40.7250 H   0  0  0  0  0  0  0  0  0  0  0  0
   42.0430   35.1620   38.9440 H   0  0  0  0  0  0  0  0  0  0  0  0
   40.2950   36.6960   39.0640 H   0  0  0  0  0  0  0  0  0  0  0  0
   39.2150   35.5770   40.0670 H   0  0  0  0  0  0  0  0  0  0  0  0
   40.2330   36.5810   41.9360 H   0  0  0  0  0  0  0  0  0  0  0  0
   41.3800   37.4790   40.8990 H   0  0  0  0  0  0  0  0  0  0  0  0
   44.2500   36.9680   43.9980 C   0  0  0  0  0  0  0  0  0  0  0  0
   43.0800   36.7100   43.3010 C   0  0  0  0  0  0  0  0  0  0  0  0
   43.0880   35.8540   42.2010 C   0  0  0  0  0  0  0  0  0  0  0  0
   44.2920   35.3010   41.8660 N   0  0  0  0  0  0  0  0  0  0  0  0
   45.4240   35.5460   42.5350 C   0  0  0  0  0  0  0  0  0  0  0  0
   45.3930   36.3840   43.6050 N   0  0  0  0  0  0  0  0  0  0  0  0
   44.0700   37.6430   44.8190 H   0  0  0  0  0  0  0  0  0  0  0  0
   42.0830   37.1030   43.4980 H   0  0  0  0  0  0  0  0  0  0  0  0
   46.3840   35.1100   42.2790 H   0  0  0  0  0  0  0  0  0  0  0  0
   38.0260   31.9420   40.5910 N   0  0  0  0  0  0  0  0  0  0  0  0
   38.8420   31.7010   39.8160 C   0  0  0  0  0  0  0  0  0  0  0  0
  1 49  1  0  0  0  0
  2 25  1  0  0  0  0
  2  1  2  0  0  0  0
  3  2  1  0  0  0  0
  4  3  2  0  0  0  0
  4  5  1  0  0  0  0
  5  6  2  0  0  0  0
  6  1  1  0  0  0  0
  6 12  1  0  0  0  0
  7  3  1  0  0  0  0
  8  4  1  0  0  0  0
  9  5  1  0  0  0  0
 10 11  2  0  0  0  0
 10 14  1  0  0  0  0
 12 10  1  0  0  0  0
 13 12  1  0  0  0  0
 14 24  1  0  0  0  0
 15 17  1  0  0  0  0
 15 14  2  0  0  0  0
 16 15  1  0  0  0  0
 17 18  2  0  0  0  0
 18 19  1  0  0  0  0
 19 20  1  0  0  0  0
 20 21  2  0  0  0  0
 22 21  1  0  0  0  0
 23 22  2  0  0  0  0
 24 19  2  0  0  0  0
 24 23  1  0  0  0  0
 25 29  1  0  0  0  0
 26 25  1  0  0  0  0
 27 41  1  0  0  0  0
 28 32  1  0  0  0  0
 28 27  1  0  0  0  0
 29 34  1  6  0  0  0
 29 30  1  0  0  0  0
 29 28  1  0  0  0  0
 30 36  1  0  0  0  0
 30 31  1  0  0  0  0
 31 27  1  0  0  0  0
 31 37  1  0  0  0  0
 33 28  1  0  0  0  0
 35 30  1  0  0  0  0
 38 31  1  0  0  0  0
 39 45  1  0  0  0  0
 40 46  1  0  0  0  0
 40 39  2  0  0  0  0
 41 40  1  0  0  0  0
 42 41  2  0  0  0  0
 42 43  1  0  0  0  0
 43 44  2  0  0  0  0
 44 39  1  0  0  0  0
 47 43  1  0  0  0  0
 49 48  3  0  0  0  0
M  END
>  <minimizedAffinity>
-7.59675074

$$$$

 OpenBabel03242519123D

 49 53  0  0  1  0  0  0  0  0999 V2000
   39.8820   31.5890   39.2970 C   0  0  0  0  0  0  0  0  0  0  0  0
   40.7190   32.3990   38.5060 C   0  0  0  0  0  0  0  0  0  0  0  0
   41.5340   31.6870   37.6630 C   0  0  0  0  0  0  0  0  0  0  0  0
   41.5790   30.3260   37.5490 C   0  0  0  0  0  0  0  0  0  0  0  0
   40.7350   29.5730   38.3470 C   0  0  0  0  0  0  0  0  0  0  0  0
   39.8990   30.2230   39.2080 C   0  0  0  0  0  0  0  0  0  0  0  0
   42.1960   32.2880   37.0390 H   0  0  0  0  0  0  0  0  0  0  0  0
   42.2730   29.8960   36.8370 H   0  0  0  0  0  0  0  0  0  0  0  0
   40.7660   28.4900   38.2660 H   0  0  0  0  0  0  0  0  0  0  0  0
   39.5630   28.8700   41.2280 C   0  0  0  0  0  0  0  0  0  0  0  0
   40.7830   29.0470   41.5320 O   0  0  0  0  0  0  0  0  0  0  0  0
   39.0510   29.4050   40.0030 N   0  0  0  0  0  0  0  0  0  0  0  0
   38.1340   29.3160   39.5470 H   0  0  0  0  0  0  0  0  0  0  0  0
   38.5110   28.1550   41.9840 C   0  0  0  0  0  0  0  0  0  0  0  0
   37.7380   28.7550   42.9500 C   0  0  0  0  0  0  0  0  0  0  0  0
   37.9150   29.8000   43.1630 H   0  0  0  0  0  0  0  0  0  0  0  0
   36.7790   28.0090   43.6090 C   0  0  0  0  0  3  0  0  0  0  0  0
   36.5510   26.6700   43.3440 C   0  0  0  0  0  3  0  0  0  0  0  0
   37.3280   26.0660   42.3730 C   0  0  0  0  0  0  0  0  0  0  0  0
   37.1110   24.7260   42.0980 C   0  0  0  0  0  3  0  0  0  0  0  0
   37.8710   24.0920   41.1300 C   0  0  0  0  0  3  0  0  0  0  0  0
   38.8470   24.8030   40.4430 C   0  0  0  0  0  3  0  0  0  0  0  0
   39.0190   26.1490   40.7650 C   0  0  0  0  0  3  0  0  0  0  0  0
   38.2930   26.8070   41.7060 C   0  0  0  0  0  0  0  0  0  0  0  0
   40.7360   33.8070   38.5540 N   0  0  0  0  0  0  0  0  0  0  0  0
   40.0810   34.1520   37.8090 H   0  0  0  0  0  0  0  0  0  0  0  0
   42.1310   35.4360   41.3910 N   0  0  0  0  0  0  0  0  0  0  0  0
   41.8400   34.1740   40.7090 C   0  0  0  0  0  0  0  0  0  0  0  0
   41.4430   34.7290   39.3810 C   0  0  2  0  0  0  0  0  0  0  0  0
   40.4610   35.8270   39.7800 C   0  0  0  0  0  0  0  0  0  0  0  0
   41.0650   36.3460   41.0540 C   0  0  0  0  0  0  0  0  0  0  0  0
   41.0420   33.6250   41.2250 H   0  0  0  0  0  0  0  0  0  0  0  0
   42.7740   33.5910   40.6420 H   0  0  0  0  0  0  0  0  0  0  0  0
   42.3280   35.1830   38.9060 H   0  0  0  0  0  0  0  0  0  0  0  0
   40.5070   36.6300   39.0110 H   0  0  0  0  0  0  0  0  0  0  0  0
   39.4410   35.4230   39.9230 H   0  0  0  0  0  0  0  0  0  0  0  0
   40.3330   36.3950   41.8710 H   0  0  0  0  0  0  0  0  0  0  0  0
   41.4790   37.3850   40.9190 H   0  0  0  0  0  0  0  0  0  0  0  0
   45.5140   35.8010   42.9340 C   0  0  0  0  0  0  0  0  0  0  0  0
   44.5310   35.3940   42.0440 C   0  0  0  0  0  0  0  0  0  0  0  0
   43.2070   35.7870   42.2290 C   0  0  0  0  0  0  0  0  0  0  0  0
   42.9490   36.5780   43.3130 N   0  0  0  0  0  0  0  0  0  0  0  0
   43.8930   36.9740   44.1730 C   0  0  0  0  0  0  0  0  0  0  0  0
   45.1780   36.5790   43.9750 N   0  0  0  0  0  0  0  0  0  0  0  0
   46.4790   35.4160   42.6460 H   0  0  0  0  0  0  0  0  0  0  0  0
   44.6470   34.7700   41.1590 H   0  0  0  0  0  0  0  0  0  0  0  0
   43.7000   37.6030   45.0350 H   0  0  0  0  0  0  0  0  0  0  0  0
   38.2730   32.8070   40.9530 N   0  0  0  0  0  0  0  0  0  0  0  0
   38.9830   32.2770   40.2190 C   0  0  0  0  0  0  0  0  0  0  0  0
  1 49  1  0  0  0  0
  2 25  1  0  0  0  0
  2  1  2  0  0  0  0
  3  2  1  0  0  0  0
  4  3  2  0  0  0  0
  4  5  1  0  0  0  0
  5  6  2  0  0  0  0
  6  1  1  0  0  0  0
  6 12  1  0  0  0  0
  7  3  1  0  0  0  0
  8  4  1  0  0  0  0
  9  5  1  0  0  0  0
 10 11  2  0  0  0  0
 10 14  1  0  0  0  0
 12 10  1  0  0  0  0
 13 12  1  0  0  0  0
 14 15  1  0  0  0  0
 15 16  1  0  0  0  0
 15 17  2  0  0  0  0
 18 17  1  0  0  0  0
 19 18  2  0  0  0  0
 20 19  1  0  0  0  0
 21 20  2  0  0  0  0
 22 23  2  0  0  0  0
 22 21  1  0  0  0  0
 23 24  1  0  0  0  0
 24 14  2  0  0  0  0
 24 19  1  0  0  0  0
 25 29  1  0  0  0  0
 26 25  1  0  0  0  0
 27 41  1  0  0  0  0
 28 32  1  0  0  0  0
 28 27  1  0  0  0  0
 29 34  1  6  0  0  0
 29 30  1  0  0  0  0
 29 28  1  0  0  0  0
 30 36  1  0  0  0  0
 30 31  1  0  0  0  0
 31 27  1  0  0  0  0
 31 37  1  0  0  0  0
 33 28  1  0  0  0  0
 35 30  1  0  0  0  0
 38 31  1  0  0  0  0
 39 44  1  0  0  0  0
 40 41  1  0  0  0  0
 40 39  2  0  0  0  0
 41 42  2  0  0  0  0
 42 43  1  0  0  0  0
 43 47  1  0  0  0  0
 44 43  2  0  0  0  0
 45 39  1  0  0  0  0
 46 40  1  0  0  0  0
 49 48  3  0  0  0  0
M  END
>  <minimizedAffinity>
-7.55879974

$$$$

 OpenBabel03242519123D

 49 53  0  0  1  0  0  0  0  0999 V2000
   38.1080   30.7050   39.3530 C   0  0  0  0  0  0  0  0  0  0  0  0
   38.2200   31.9010   38.6190 C   0  0  0  0  0  0  0  0  0  0  0  0
   37.7490   31.8020   37.3350 C   0  0  0  0  0  0  0  0  0  0  0  0
   37.2110   30.6850   36.7600 C   0  0  0  0  0  0  0  0  0  0  0  0
   37.1200   29.5340   37.5230 C   0  0  0  0  0  0  0  0  0  0  0  0
   37.5720   29.5680   38.8110 C   0  0  0  0  0  0  0  0  0  0  0  0
   37.8260   32.7130   36.7390 H   0  0  0  0  0  0  0  0  0  0  0  0
   36.8760   30.7500   35.7310 H   0  0  0  0  0  0  0  0  0  0  0  0
   36.6960   28.6390   37.0740 H   0  0  0  0  0  0  0  0  0  0  0  0
   38.4850   27.3750   39.4310 C   0  0  0  0  0  0  0  0  0  0  0  0
   39.4230   27.5460   38.5940 O   0  0  0  0  0  0  0  0  0  0  0  0
   37.4540   28.3620   39.5540 N   0  0  0  0  0  0  0  0  0  0  0  0
   36.5870   28.3810   40.1050 H   0  0  0  0  0  0  0  0  0  0  0  0
   38.2660   26.2490   40.3660 C   0  0  0  0  0  0  0  0  0  0  0  0
   37.3800   25.2270   40.1170 C   0  0  0  0  0  0  0  0  0  0  0  0
   36.8190   25.2550   39.1940 H   0  0  0  0  0  0  0  0  0  0  0  0
   37.2360   24.2150   41.0490 C   0  0  0  0  0  3  0  0  0  0  0  0
   37.9470   24.1760   42.2350 C   0  0  0  0  0  3  0  0  0  0  0  0
   38.8370   25.2040   42.4850 C   0  0  0  0  0  0  0  0  0  0  0  0
   39.5560   25.1760   43.6690 C   0  0  0  0  0  3  0  0  0  0  0  0
   40.4560   26.1900   43.9490 C   0  0  0  0  0  3  0  0  0  0  0  0
   40.6320   27.2270   43.0420 C   0  0  0  0  0  3  0  0  0  0  0  0
   39.8810   27.1980   41.8680 C   0  0  0  0  0  3  0  0  0  0  0  0
   38.9890   26.2230   41.5560 C   0  0  0  0  0  0  0  0  0  0  0  0
   38.7570   33.0990   39.1300 N   0  0  0  0  0  0  0  0  0  0  0  0
   38.0210   33.8400   39.0220 H   0  0  0  0  0  0  0  0  0  0  0  0
   41.5600   34.8880   40.3880 N   0  0  0  0  0  0  0  0  0  0  0  0
   40.1040   34.7840   40.2870 C   0  0  0  0  0  0  0  0  0  0  0  0
   40.0220   33.4110   39.7100 C   0  0  2  0  0  0  0  0  0  0  0  0
   41.0380   33.4850   38.5730 C   0  0  0  0  0  0  0  0  0  0  0  0
   42.1010   34.3730   39.1540 C   0  0  0  0  0  0  0  0  0  0  0  0
   39.7000   35.5720   39.6380 H   0  0  0  0  0  0  0  0  0  0  0  0
   39.6820   34.8230   41.3050 H   0  0  0  0  0  0  0  0  0  0  0  0
   40.3690   32.6850   40.4650 H   0  0  0  0  0  0  0  0  0  0  0  0
   41.4650   32.4690   38.4220 H   0  0  0  0  0  0  0  0  0  0  0  0
   40.5840   33.9050   37.6550 H   0  0  0  0  0  0  0  0  0  0  0  0
   42.3670   35.1990   38.4810 H   0  0  0  0  0  0  0  0  0  0  0  0
   43.0470   33.7990   39.3630 H   0  0  0  0  0  0  0  0  0  0  0  0
   44.3270   35.4420   42.8370 C   0  0  0  0  0  0  0  0  0  0  0  0
   43.6180   34.8810   41.7860 C   0  0  0  0  0  0  0  0  0  0  0  0
   42.3650   35.3790   41.4350 C   0  0  0  0  0  0  0  0  0  0  0  0
   41.8950   36.4270   42.1730 N   0  0  0  0  0  0  0  0  0  0  0  0
   42.5740   36.9740   43.1880 C   0  0  0  0  0  0  0  0  0  0  0  0
   43.7950   36.4730   43.5140 N   0  0  0  0  0  0  0  0  0  0  0  0
   45.2740   34.9460   42.9740 H   0  0  0  0  0  0  0  0  0  0  0  0
   43.9160   34.0500   41.1470 H   0  0  0  0  0  0  0  0  0  0  0  0
   42.2110   37.8080   43.7790 H   0  0  0  0  0  0  0  0  0  0  0  0
   38.9530   30.7480   41.8220 N   0  0  0  0  0  0  0  0  0  0  0  0
   38.5860   30.7340   40.7320 C   0  0  0  0  0  0  0  0  0  0  0  0
  1 49  1  0  0  0  0
  2 25  1  0  0  0  0
  2  1  2  0  0  0  0
  3  2  1  0  0  0  0
  4  3  2  0  0  0  0
  4  5  1  0  0  0  0
  5  6  2  0  0  0  0
  6  1  1  0  0  0  0
  6 12  1  0  0  0  0
  7  3  1  0  0  0  0
  8  4  1  0  0  0  0
  9  5  1  0  0  0  0
 10 12  1  0  0  0  0
 10 14  1  0  0  0  0
 11 10  2  0  0  0  0
 12 13  1  0  0  0  0
 14 24  1  0  0  0  0
 15 14  2  0  0  0  0
 15 17  1  0  0  0  0
 16 15  1  0  0  0  0
 17 18  2  0  0  0  0
 18 19  1  0  0  0  0
 19 20  1  0  0  0  0
 20 21  2  0  0  0  0
 22 21  1  0  0  0  0
 23 22  2  0  0  0  0
 24 23  1  0  0  0  0
 24 19  2  0  0  0  0
 25 29  1  0  0  0  0
 26 25  1  0  0  0  0
 27 41  1  0  0  0  0
 28 27  1  0  0  0  0
 28 33  1  0  0  0  0
 29 28  1  0  0  0  0
 29 34  1  1  0  0  0
 30 31  1  0  0  0  0
 30 29  1  0  0  0  0
 31 38  1  0  0  0  0
 31 27  1  0  0  0  0
 32 28  1  0  0  0  0
 35 30  1  0  0  0  0
 36 30  1  0  0  0  0
 37 31  1  0  0  0  0
 39 45  1  0  0  0  0
 39 44  1  0  0  0  0
 40 39  2  0  0  0  0
 41 40  1  0  0  0  0
 41 42  2  0  0  0  0
 42 43  1  0  0  0  0
 43 44  2  0  0  0  0
 43 47  1  0  0  0  0
 46 40  1  0  0  0  0
 49 48  3  0  0  0  0
M  END
>  <minimizedAffinity>
-7.13806963

$$$$

 OpenBabel03242519123D

 49 53  0  0  1  0  0  0  0  0999 V2000
   39.3200   32.5130   40.0920 C   0  0  0  0  0  0  0  0  0  0  0  0
   38.2390   32.0750   39.3040 C   0  0  0  0  0  0  0  0  0  0  0  0
   37.3270   33.0620   39.0270 C   0  0  0  0  0  0  0  0  0  0  0  0
   37.3990   34.3620   39.4430 C   0  0  0  0  0  0  0  0  0  0  0  0
   38.4820   34.7450   40.2150 C   0  0  0  0  0  0  0  0  0  0  0  0
   39.4260   33.8080   40.5250 C   0  0  0  0  0  0  0  0  0  0  0  0
   36.4760   32.7520   38.4200 H   0  0  0  0  0  0  0  0  0  0  0  0
   36.6050   35.0380   39.1470 H   0  0  0  0  0  0  0  0  0  0  0  0
   38.5470   35.7760   40.5520 H   0  0  0  0  0  0  0  0  0  0  0  0
   41.5380   35.0460   40.6980 C   0  0  0  0  0  0  0  0  0  0  0  0
   41.5010   35.2530   39.4460 O   0  0  0  0  0  0  0  0  0  0  0  0
   40.5200   34.2510   41.3160 N   0  0  0  0  0  0  0  0  0  0  0  0
   40.4070   33.9110   42.2800 H   0  0  0  0  0  0  0  0  0  0  0  0
   42.5240   35.5240   41.6920 C   0  0  0  0  0  0  0  0  0  0  0  0
   42.2940   36.5900   42.5290 C   0  0  0  0  0  0  0  0  0  0  0  0
   41.3440   37.1000   42.4500 H   0  0  0  0  0  0  0  0  0  0  0  0
   43.2750   36.9700   43.4260 C   0  0  0  0  0  3  0  0  0  0  0  0
   44.4940   36.3250   43.5290 C   0  0  0  0  0  3  0  0  0  0  0  0
   44.7260   35.2530   42.6870 C   0  0  0  0  0  0  0  0  0  0  0  0
   45.9440   34.5980   42.7790 C   0  0  0  0  0  3  0  0  0  0  0  0
   46.2060   33.5200   41.9520 C   0  0  0  0  0  3  0  0  0  0  0  0
   45.2500   33.1040   41.0340 C   0  0  0  0  0  3  0  0  0  0  0  0
   44.0450   33.8030   40.9890 C   0  0  0  0  0  3  0  0  0  0  0  0
   43.7480   34.8640   41.7840 C   0  0  0  0  0  0  0  0  0  0  0  0
   38.0850   30.7590   38.8280 N   0  0  0  0  0  0  0  0  0  0  0  0
   38.6230   30.6870   37.9290 H   0  0  0  0  0  0  0  0  0  0  0  0
   36.9170   27.4410   39.3510 N   0  0  0  0  0  0  0  0  0  0  0  0
   38.0540   28.3240   39.0920 C   0  0  0  0  0  0  0  0  0  0  0  0
   37.3780   29.6310   39.3410 C   0  0  2  0  0  0  0  0  0  0  0  0
   36.0990   29.4850   38.5220 C   0  0  0  0  0  0  0  0  0  0  0  0
   35.7750   28.0290   38.6940 C   0  0  0  0  0  0  0  0  0  0  0  0
   38.4240   28.1960   38.0660 H   0  0  0  0  0  0  0  0  0  0  0  0
   38.8320   28.1190   39.8460 H   0  0  0  0  0  0  0  0  0  0  0  0
   37.1230   29.7020   40.4120 H   0  0  0  0  0  0  0  0  0  0  0  0
   35.3020   30.0870   39.0130 H   0  0  0  0  0  0  0  0  0  0  0  0
   36.2630   29.7660   37.4640 H   0  0  0  0  0  0  0  0  0  0  0  0
   35.5890   27.5280   37.7350 H   0  0  0  0  0  0  0  0  0  0  0  0
   34.8550   27.8830   39.3270 H   0  0  0  0  0  0  0  0  0  0  0  0
   36.3790   23.8920   40.3870 C   0  0  0  0  0  0  0  0  0  0  0  0
   36.4020   25.0170   39.5780 C   0  0  0  0  0  0  0  0  0  0  0  0
   36.8490   26.2380   40.0800 C   0  0  0  0  0  0  0  0  0  0  0  0
   37.2520   26.2510   41.3860 N   0  0  0  0  0  0  0  0  0  0  0  0
   37.2330   25.1680   42.1710 C   0  0  0  0  0  0  0  0  0  0  0  0
   36.7930   23.9880   41.6610 N   0  0  0  0  0  0  0  0  0  0  0  0
   36.0120   23.0340   39.8460 H   0  0  0  0  0  0  0  0  0  0  0  0
   36.1030   25.0970   38.5330 H   0  0  0  0  0  0  0  0  0  0  0  0
   37.5530   25.1670   43.2070 H   0  0  0  0  0  0  0  0  0  0  0  0
   41.1310   30.7260   40.6770 N   0  0  0  0  0  0  0  0  0  0  0  0
   40.3350   31.5180   40.4250 C   0  0  0  0  0  0  0  0  0  0  0  0
  1 49  1  0  0  0  0
  1  6  1  0  0  0  0
  2  1  2  0  0  0  0
  3  2  1  0  0  0  0
  3  4  2  0  0  0  0
  4  5  1  0  0  0  0
  5  6  2  0  0  0  0
  5  9  1  0  0  0  0
  6 12  1  0  0  0  0
  7  3  1  0  0  0  0
  8  4  1  0  0  0  0
 10 12  1  0  0  0  0
 10 14  1  0  0  0  0
 11 10  2  0  0  0  0
 12 13  1  0  0  0  0
 14 24  2  0  0  0  0
 14 15  1  0  0  0  0
 15 17  2  0  0  0  0
 16 15  1  0  0  0  0
 17 18  1  0  0  0  0
 19 20  1  0  0  0  0
 19 18  2  0  0  0  0
 21 20  2  0  0  0  0
 22 21  1  0  0  0  0
 23 22  2  0  0  0  0
 23 24  1  0  0  0  0
 24 19  1  0  0  0  0
 25  2  1  0  0  0  0
 25 29  1  0  0  0  0
 26 25  1  0  0  0  0
 27 41  1  0  0  0  0
 28 29  1  0  0  0  0
 28 27  1  0  0  0  0
 28 33  1  0  0  0  0
 29 34  1  1  0  0  0
 30 31  1  0  0  0  0
 30 35  1  0  0  0  0
 30 29  1  0  0  0  0
 31 38  1  0  0  0  0
 31 27  1  0  0  0  0
 32 28  1  0  0  0  0
 36 30  1  0  0  0  0
 37 31  1  0  0  0  0
 39 44  1  0  0  0  0
 40 41  1  0  0  0  0
 40 39  2  0  0  0  0
 41 42  2  0  0  0  0
 42 43  1  0  0  0  0
 43 47  1  0  0  0  0
 44 43  2  0  0  0  0
 45 39  1  0  0  0  0
 46 40  1  0  0  0  0
 49 48  3  0  0  0  0
M  END
>  <minimizedAffinity>
-6.97271013

$$$$

 OpenBabel03242519123D

 49 53  0  0  1  0  0  0  0  0999 V2000
   38.2050   29.1060   41.9790 C   0  0  0  0  0  0  0  0  0  0  0  0
   37.1500   28.1820   41.8540 C   0  0  0  0  0  0  0  0  0  0  0  0
   36.0400   28.6960   41.2360 C   0  0  0  0  0  0  0  0  0  0  0  0
   35.9030   29.9710   40.7610 C   0  0  0  0  0  0  0  0  0  0  0  0
   36.9690   30.8430   40.9070 C   0  0  0  0  0  0  0  0  0  0  0  0
   38.1040   30.3900   41.5150 C   0  0  0  0  0  0  0  0  0  0  0  0
   35.2050   28.0040   41.1260 H   0  0  0  0  0  0  0  0  0  0  0  0
   34.9660   30.2430   40.2900 H   0  0  0  0  0  0  0  0  0  0  0  0
   36.8680   31.8590   40.5360 H   0  0  0  0  0  0  0  0  0  0  0  0
   39.9730   31.6010   40.4850 C   0  0  0  0  0  0  0  0  0  0  0  0
   39.7890   30.9440   39.4150 O   0  0  0  0  0  0  0  0  0  0  0  0
   39.1690   31.3220   41.6370 N   0  0  0  0  0  0  0  0  0  0  0  0
   39.2040   31.6810   42.6000 H   0  0  0  0  0  0  0  0  0  0  0  0
   40.9460   32.6820   40.7580 C   0  0  0  0  0  0  0  0  0  0  0  0
   42.2310   32.4470   41.1870 C   0  0  0  0  0  0  0  0  0  0  0  0
   42.5370   31.4210   41.3320 H   0  0  0  0  0  0  0  0  0  0  0  0
   43.0730   33.5190   41.4210 C   0  0  0  0  0  3  0  0  0  0  0  0
   42.6860   34.8350   41.2420 C   0  0  0  0  0  3  0  0  0  0  0  0
   41.3940   35.0710   40.8100 C   0  0  0  0  0  0  0  0  0  0  0  0
   40.9930   36.3850   40.6270 C   0  0  0  0  0  3  0  0  0  0  0  0
   39.7060   36.6550   40.1940 C   0  0  0  0  0  3  0  0  0  0  0  0
   38.8260   35.6100   39.9480 C   0  0  0  0  0  3  0  0  0  0  0  0
   39.2880   34.3100   40.1510 C   0  0  0  0  0  3  0  0  0  0  0  0
   40.5420   34.0030   40.5720 C   0  0  0  0  0  0  0  0  0  0  0  0
   37.2050   26.8490   42.3080 N   0  0  0  0  0  0  0  0  0  0  0  0
   36.6610   26.8030   43.2050 H   0  0  0  0  0  0  0  0  0  0  0  0
   38.2960   24.3060   40.0750 N   0  0  0  0  0  0  0  0  0  0  0  0
   38.0610   25.7320   40.3040 C   0  0  0  0  0  0  0  0  0  0  0  0
   37.8290   25.6820   41.7780 C   0  0  2  0  0  0  0  0  0  0  0  0
   36.8290   24.5350   41.9000 C   0  0  0  0  0  0  0  0  0  0  0  0
   37.2920   23.5930   40.8260 C   0  0  0  0  0  0  0  0  0  0  0  0
   37.1990   26.0850   39.7240 H   0  0  0  0  0  0  0  0  0  0  0  0
   38.9860   26.2800   40.0570 H   0  0  0  0  0  0  0  0  0  0  0  0
   38.7720   25.4010   42.2780 H   0  0  0  0  0  0  0  0  0  0  0  0
   36.9780   24.0490   42.8900 H   0  0  0  0  0  0  0  0  0  0  0  0
   35.7920   24.8870   41.7430 H   0  0  0  0  0  0  0  0  0  0  0  0
   36.4730   23.2800   40.1660 H   0  0  0  0  0  0  0  0  0  0  0  0
   37.7380   22.6560   41.2650 H   0  0  0  0  0  0  0  0  0  0  0  0
   41.3770   23.4990   38.1230 C   0  0  0  0  0  0  0  0  0  0  0  0
   40.4830   24.2270   38.8930 C   0  0  0  0  0  0  0  0  0  0  0  0
   39.2750   23.6610   39.2940 C   0  0  0  0  0  0  0  0  0  0  0  0
   39.0370   22.3770   38.8920 N   0  0  0  0  0  0  0  0  0  0  0  0
   39.8970   21.6700   38.1510 C   0  0  0  0  0  0  0  0  0  0  0  0
   41.0690   22.2410   37.7700 N   0  0  0  0  0  0  0  0  0  0  0  0
   42.2600   24.0780   37.9040 H   0  0  0  0  0  0  0  0  0  0  0  0
   40.5910   25.2480   39.2570 H   0  0  0  0  0  0  0  0  0  0  0  0
   39.7190   20.6490   37.8280 H   0  0  0  0  0  0  0  0  0  0  0  0
   40.3780   28.2560   43.1490 N   0  0  0  0  0  0  0  0  0  0  0  0
   39.4230   28.6290   42.6270 C   0  0  0  0  0  0  0  0  0  0  0  0
  1 49  1  0  0  0  0
  2  1  1  0  0  0  0
  2 25  1  0  0  0  0
  3  2  2  0  0  0  0
  4  5  2  0  0  0  0
  4  3  1  0  0  0  0
  5  6  1  0  0  0  0
  6 12  1  0  0  0  0
  6  1  2  0  0  0  0
  7  3  1  0  0  0  0
  8  4  1  0  0  0  0
  9  5  1  0  0  0  0
 10 14  1  0  0  0  0
 10 12  1  0  0  0  0
 11 10  2  0  0  0  0
 12 13  1  0  0  0  0
 14 15  1  0  0  0  0
 15 16  1  0  0  0  0
 15 17  2  0  0  0  0
 18 17  1  0  0  0  0
 19 18  2  0  0  0  0
 20 19  1  0  0  0  0
 21 20  2  0  0  0  0
 22 23  2  0  0  0  0
 22 21  1  0  0  0  0
 23 24  1  0  0  0  0
 24 14  2  0  0  0  0
 24 19  1  0  0  0  0
 25 26  1  0  0  0  0
 27 28  1  0  0  0  0
 27 31  1  0  0  0  0
 28 29  1  0  0  0  0
 29 30  1  0  0  0  0
 29 34  1  1  0  0  0
 29 25  1  0  0  0  0
 30 35  1  0  0  0  0
 31 38  1  0  0  0  0
 31 30  1  0  0  0  0
 32 28  1  0  0  0  0
 33 28  1  0  0  0  0
 36 30  1  0  0  0  0
 37 31  1  0  0  0  0
 39 40  1  0  0  0  0
 40 46  1  0  0  0  0
 40 41  2  0  0  0  0
 41 27  1  0  0  0  0
 42 41  1  0  0  0  0
 43 42  2  0  0  0  0
 44 39  2  0  0  0  0
 44 43  1  0  0  0  0
 45 39  1  0  0  0  0
 47 43  1  0  0  0  0
 49 48  3  0  0  0  0
M  END
>  <minimizedAffinity>
-6.83132267

$$$$

 OpenBabel03242519123D

 49 53  0  0  1  0  0  0  0  0999 V2000
   39.1910   32.9580   40.6080 C   0  0  0  0  0  0  0  0  0  0  0  0
   37.8790   33.0610   40.1080 C   0  0  0  0  0  0  0  0  0  0  0  0
   37.5240   34.3390   39.7590 C   0  0  0  0  0  0  0  0  0  0  0  0
   38.3160   35.4490   39.8590 C   0  0  0  0  0  0  0  0  0  0  0  0
   39.5990   35.2960   40.3560 C   0  0  0  0  0  0  0  0  0  0  0  0
   40.0120   34.0470   40.7210 C   0  0  0  0  0  0  0  0  0  0  0  0
   36.5110   34.4510   39.3700 H   0  0  0  0  0  0  0  0  0  0  0  0
   37.9040   36.4000   39.5440 H   0  0  0  0  0  0  0  0  0  0  0  0
   40.2350   36.1730   40.4420 H   0  0  0  0  0  0  0  0  0  0  0  0
   42.4230   34.3650   40.3870 C   0  0  0  0  0  0  0  0  0  0  0  0
   42.1950   34.7250   39.1920 O   0  0  0  0  0  0  0  0  0  0  0  0
   41.3380   33.9430   41.2220 N   0  0  0  0  0  0  0  0  0  0  0  0
   41.3170   33.5530   42.1730 H   0  0  0  0  0  0  0  0  0  0  0  0
   43.7120   34.3080   41.1110 C   0  0  0  0  0  0  0  0  0  0  0  0
   44.7200   33.4300   40.7850 C   0  0  0  0  0  0  0  0  0  0  0  0
   44.5540   32.7530   39.9590 H   0  0  0  0  0  0  0  0  0  0  0  0
   45.8920   33.4440   41.5180 C   0  0  0  0  0  3  0  0  0  0  0  0
   46.1080   34.3060   42.5790 C   0  0  0  0  0  3  0  0  0  0  0  0
   45.0950   35.1870   42.9070 C   0  0  0  0  0  0  0  0  0  0  0  0
   45.2990   36.0550   43.9670 C   0  0  0  0  0  3  0  0  0  0  0  0
   44.3050   36.9510   44.3210 C   0  0  0  0  0  3  0  0  0  0  0  0
   43.1110   36.9730   43.6120 C   0  0  0  0  0  3  0  0  0  0  0  0
   42.9650   36.0750   42.5560 C   0  0  0  0  0  3  0  0  0  0  0  0
   43.9160   35.1820   42.1770 C   0  0  0  0  0  0  0  0  0  0  0  0
   36.9960   31.9730   39.9660 N   0  0  0  0  0  0  0  0  0  0  0  0
   36.6560   31.7190   40.9260 H   0  0  0  0  0  0  0  0  0  0  0  0
   36.3730   29.3500   37.6460 N   0  0  0  0  0  0  0  0  0  0  0  0
   36.4290   29.7750   39.0450 C   0  0  0  0  0  0  0  0  0  0  0  0
   36.5480   31.2460   38.8230 C   0  0  2  0  0  0  0  0  0  0  0  0
   37.6560   31.3180   37.7750 C   0  0  0  0  0  0  0  0  0  0  0  0
   37.3870   30.0970   36.9430 C   0  0  0  0  0  0  0  0  0  0  0  0
   37.2900   29.3250   39.5570 H   0  0  0  0  0  0  0  0  0  0  0  0
   35.4720   29.5140   39.5270 H   0  0  0  0  0  0  0  0  0  0  0  0
   35.6070   31.6180   38.3860 H   0  0  0  0  0  0  0  0  0  0  0  0
   37.4850   32.2210   37.1490 H   0  0  0  0  0  0  0  0  0  0  0  0
   38.6580   31.3020   38.2470 H   0  0  0  0  0  0  0  0  0  0  0  0
   38.2850   29.4810   36.8040 H   0  0  0  0  0  0  0  0  0  0  0  0
   37.0130   30.3730   35.9170 H   0  0  0  0  0  0  0  0  0  0  0  0
   33.7680   26.7690   36.9310 C   0  0  0  0  0  0  0  0  0  0  0  0
   34.5370   27.6710   37.6500 C   0  0  0  0  0  0  0  0  0  0  0  0
   35.5360   28.4090   37.0170 C   0  0  0  0  0  0  0  0  0  0  0  0
   35.7020   28.1900   35.6790 N   0  0  0  0  0  0  0  0  0  0  0  0
   34.9630   27.3210   34.9790 C   0  0  0  0  0  0  0  0  0  0  0  0
   33.9940   26.6130   35.6160 N   0  0  0  0  0  0  0  0  0  0  0  0
   33.0420   26.2880   37.5660 H   0  0  0  0  0  0  0  0  0  0  0  0
   34.4720   27.9080   38.7120 H   0  0  0  0  0  0  0  0  0  0  0  0
   35.0850   27.1420   33.9160 H   0  0  0  0  0  0  0  0  0  0  0  0
   39.9880   30.5700   41.2980 N   0  0  0  0  0  0  0  0  0  0  0  0
   39.6420   31.6250   40.9990 C   0  0  0  0  0  0  0  0  0  0  0  0
  1  6  1  0  0  0  0
  1 49  1  0  0  0  0
  2  1  2  0  0  0  0
  3  4  2  0  0  0  0
  3  2  1  0  0  0  0
  4  5  1  0  0  0  0
  5  9  1  0  0  0  0
  5  6  2  0  0  0  0
  6 12  1  0  0  0  0
  7  3  1  0  0  0  0
  8  4  1  0  0  0  0
 10 14  1  0  0  0  0
 10 12  1  0  0  0  0
 11 10  2  0  0  0  0
 12 13  1  0  0  0  0
 14 24  1  0  0  0  0
 15 14  2  0  0  0  0
 15 17  1  0  0  0  0
 16 15  1  0  0  0  0
 17 18  2  0  0  0  0
 18 19  1  0  0  0  0
 19 20  1  0  0  0  0
 20 21  2  0  0  0  0
 22 21  1  0  0  0  0
 23 22  2  0  0  0  0
 24 23  1  0  0  0  0
 24 19  2  0  0  0  0
 25  2  1  0  0  0  0
 25 26  1  0  0  0  0
 27 28  1  0  0  0  0
 28 33  1  0  0  0  0
 28 32  1  0  0  0  0
 29 34  1  6  0  0  0
 29 28  1  0  0  0  0
 29 25  1  0  0  0  0
 30 36  1  0  0  0  0
 30 29  1  0  0  0  0
 31 27  1  0  0  0  0
 31 30  1  0  0  0  0
 35 30  1  0  0  0  0
 37 31  1  0  0  0  0
 38 31  1  0  0  0  0
 39 45  1  0  0  0  0
 39 40  1  0  0  0  0
 40 46  1  0  0  0  0
 41 27  1  0  0  0  0
 41 40  2  0  0  0  0
 42 41  1  0  0  0  0
 43 44  1  0  0  0  0
 43 42  2  0  0  0  0
 44 39  2  0  0  0  0
 47 43  1  0  0  0  0
 49 48  3  0  0  0  0
M  END
>  <minimizedAffinity>
-6.80901337

$$$$

 OpenBabel03242519123D

 49 53  0  0  1  0  0  0  0  0999 V2000
   37.9200   29.3970   41.6840 C   0  0  0  0  0  0  0  0  0  0  0  0
   37.1270   28.2400   41.7980 C   0  0  0  0  0  0  0  0  0  0  0  0
   35.8790   28.3740   41.2440 C   0  0  0  0  0  0  0  0  0  0  0  0
   35.3900   29.4910   40.6270 C   0  0  0  0  0  0  0  0  0  0  0  0
   36.2090   30.6040   40.5390 C   0  0  0  0  0  0  0  0  0  0  0  0
   37.4640   30.5330   41.0720 C   0  0  0  0  0  0  0  0  0  0  0  0
   35.2400   27.4940   41.3190 H   0  0  0  0  0  0  0  0  0  0  0  0
   34.3820   29.4570   40.2320 H   0  0  0  0  0  0  0  0  0  0  0  0
   35.8280   31.4980   40.0530 H   0  0  0  0  0  0  0  0  0  0  0  0
   38.6940   32.1110   39.6490 C   0  0  0  0  0  0  0  0  0  0  0  0
   38.4400   31.3790   38.6440 O   0  0  0  0  0  0  0  0  0  0  0  0
   38.2660   31.7000   40.9530 N   0  0  0  0  0  0  0  0  0  0  0  0
   38.4290   32.1020   41.8850 H   0  0  0  0  0  0  0  0  0  0  0  0
   39.4060   33.4060   39.7000 C   0  0  0  0  0  0  0  0  0  0  0  0
   38.9730   34.4750   40.4500 C   0  0  0  0  0  0  0  0  0  0  0  0
   38.0670   34.3540   41.0270 H   0  0  0  0  0  0  0  0  0  0  0  0
   39.7010   35.6500   40.4360 C   0  0  0  0  0  3  0  0  0  0  0  0
   40.8590   35.8110   39.6960 C   0  0  0  0  0  3  0  0  0  0  0  0
   41.2940   34.7380   38.9420 C   0  0  0  0  0  0  0  0  0  0  0  0
   42.4520   34.8860   38.1960 C   0  0  0  0  0  3  0  0  0  0  0  0
   42.9150   33.8300   37.4310 C   0  0  0  0  0  3  0  0  0  0  0  0
   42.2160   32.6300   37.4140 C   0  0  0  0  0  3  0  0  0  0  0  0
   41.0580   32.5430   38.1850 C   0  0  0  0  0  3  0  0  0  0  0  0
   40.5720   33.5540   38.9500 C   0  0  0  0  0  0  0  0  0  0  0  0
   37.5500   27.0450   42.4120 N   0  0  0  0  0  0  0  0  0  0  0  0
   37.4380   27.1700   43.4480 H   0  0  0  0  0  0  0  0  0  0  0  0
   38.3330   24.3830   40.1870 N   0  0  0  0  0  0  0  0  0  0  0  0
   38.2240   25.8270   40.3970 C   0  0  0  0  0  0  0  0  0  0  0  0
   38.0540   25.8210   41.8800 C   0  0  2  0  0  0  0  0  0  0  0  0
   36.9720   24.7620   42.0690 C   0  0  0  0  0  0  0  0  0  0  0  0
   37.3100   23.7670   40.9960 C   0  0  0  0  0  0  0  0  0  0  0  0
   37.3680   26.2390   39.8470 H   0  0  0  0  0  0  0  0  0  0  0  0
   39.1780   26.2950   40.0990 H   0  0  0  0  0  0  0  0  0  0  0  0
   38.9920   25.4750   42.3440 H   0  0  0  0  0  0  0  0  0  0  0  0
   37.1250   24.2830   43.0610 H   0  0  0  0  0  0  0  0  0  0  0  0
   35.9600   25.1940   41.9490 H   0  0  0  0  0  0  0  0  0  0  0  0
   36.4400   23.5100   40.3780 H   0  0  0  0  0  0  0  0  0  0  0  0
   37.6990   22.8050   41.4350 H   0  0  0  0  0  0  0  0  0  0  0  0
   39.9430   21.7250   38.1140 C   0  0  0  0  0  0  0  0  0  0  0  0
   38.9970   22.3570   38.9060 C   0  0  0  0  0  0  0  0  0  0  0  0
   39.2220   23.6480   39.3800 C   0  0  0  0  0  0  0  0  0  0  0  0
   40.4030   24.2330   39.0210 N   0  0  0  0  0  0  0  0  0  0  0  0
   41.3190   23.6280   38.2570 C   0  0  0  0  0  0  0  0  0  0  0  0
   41.0800   22.3690   37.8060 N   0  0  0  0  0  0  0  0  0  0  0  0
   39.6130   20.7380   37.8300 H   0  0  0  0  0  0  0  0  0  0  0  0
   38.0340   21.9680   39.2370 H   0  0  0  0  0  0  0  0  0  0  0  0
   42.2590   24.0850   37.9640 H   0  0  0  0  0  0  0  0  0  0  0  0
   40.3300   29.2730   42.6810 N   0  0  0  0  0  0  0  0  0  0  0  0
   39.2650   29.3290   42.2490 C   0  0  0  0  0  0  0  0  0  0  0  0
  1  2  1  0  0  0  0
  1 49  1  0  0  0  0
  2 25  1  0  0  0  0
  3  7  1  0  0  0  0
  3  2  2  0  0  0  0
  4  3  1  0  0  0  0
  5  4  2  0  0  0  0
  5  6  1  0  0  0  0
  6  1  2  0  0  0  0
  8  4  1  0  0  0  0
  9  5  1  0  0  0  0
 10 14  1  0  0  0  0
 10 12  1  0  0  0  0
 11 10  2  0  0  0  0
 12  6  1  0  0  0  0
 12 13  1  0  0  0  0
 14 15  1  0  0  0  0
 15 16  1  0  0  0  0
 17 15  2  0  0  0  0
 18 17  1  0  0  0  0
 19 24  1  0  0  0  0
 19 18  2  0  0  0  0
 20 19  1  0  0  0  0
 21 20  2  0  0  0  0
 22 21  1  0  0  0  0
 22 23  2  0  0  0  0
 23 24  1  0  0  0  0
 24 14  2  0  0  0  0
 25 26  1  0  0  0  0
 27 28  1  0  0  0  0
 27 31  1  0  0  0  0
 28 29  1  0  0  0  0
 29 30  1  0  0  0  0
 29 34  1  1  0  0  0
 29 25  1  0  0  0  0
 30 35  1  0  0  0  0
 31 38  1  0  0  0  0
 31 30  1  0  0  0  0
 32 28  1  0  0  0  0
 33 28  1  0  0  0  0
 36 30  1  0  0  0  0
 37 31  1  0  0  0  0
 39 40  1  0  0  0  0
 40 46  1  0  0  0  0
 40 41  2  0  0  0  0
 41 27  1  0  0  0  0
 42 41  1  0  0  0  0
 43 42  2  0  0  0  0
 44 39  2  0  0  0  0
 44 43  1  0  0  0  0
 45 39  1  0  0  0  0
 47 43  1  0  0  0  0
 49 48  3  0  0  0  0
M  END
>  <minimizedAffinity>
-6.80064821

$$$$
