
     RDKit          3D

 41 44  0  0  0  0  0  0  0  0999 V2000
   44.4742   35.7378   44.9986 C   0  0  0  0  0  0  0  0  0  0  0  0
   45.1187   35.7116   43.7509 C   0  0  0  0  0  0  0  0  0  0  0  0
   46.0225   34.7264   43.4938 C   0  0  0  0  0  0  0  0  0  0  0  0
   46.2411   33.8226   44.4788 N   0  0  0  0  0  0  0  0  0  0  0  0
   45.6313   33.8492   45.6565 C   0  0  0  0  0  0  0  0  0  0  0  0
   44.7335   34.8082   45.9428 N   0  0  0  0  0  0  0  0  0  0  0  0
   45.9519   32.8419   46.6004 N   0  0  0  0  0  0  0  0  0  0  0  0
   45.1694   32.5709   47.8118 C   0  0  0  0  0  0  0  0  0  0  0  0
   46.2560   32.2424   48.8140 C   0  0  0  0  0  0  0  0  0  0  0  0
   47.5287   32.0607   48.0352 C   0  0  0  0  0  0  0  0  0  0  0  0
   47.0280   31.9018   46.6251 C   0  0  1  0  0  0  0  0  0  0  0  0
   44.7635   36.7504   42.8266 N   0  0  0  0  0  0  0  0  0  0  0  0
   46.4633   30.2000   46.3767 S   0  0  0  0  0  0  0  0  0  0  0  0
   43.7473   36.4899   45.2688 H   0  0  0  0  0  0  0  0  0  0  0  0
   46.5171   34.7085   42.5330 H   0  0  0  0  0  0  0  0  0  0  0  0
   44.6185   33.4968   48.0912 H   0  0  0  0  0  0  0  0  0  0  0  0
   44.4758   31.7166   47.6386 H   0  0  0  0  0  0  0  0  0  0  0  0
   46.3832   33.1507   49.4607 H   0  0  0  0  0  0  0  0  0  0  0  0
   46.0201   31.4063   49.4738 H   0  0  0  0  0  0  0  0  0  0  0  0
   48.1547   32.9963   48.0649 H   0  0  0  0  0  0  0  0  0  0  0  0
   48.1412   31.2085   48.3461 H   0  0  0  0  0  0  0  0  0  0  0  0
   47.7826   32.2093   45.8708 H   0  0  0  0  0  0  0  0  0  0  0  0
   43.9982   36.3149   42.2644 H   0  0  0  0  0  0  0  0  0  0  0  0
   45.1644   37.6907   42.7404 H   0  0  0  0  0  0  0  0  0  0  0  0
   47.8348   29.0765   46.4163 C   0  0  0  0  0  0  0  0  0  0  0  0
   48.8292   29.2801   45.4548 C   0  0  0  0  0  0  0  0  0  0  0  0
   48.8421   30.0609   44.6855 H   0  0  0  0  0  0  0  0  0  0  0  0
   49.9323   28.4284   45.4360 C   0  0  0  0  0  0  0  0  0  0  0  0
   50.0679   27.3969   46.3350 C   0  0  0  0  0  0  0  0  0  0  0  0
   49.0649   27.2134   47.2838 C   0  0  0  0  0  0  0  0  0  0  0  0
   49.1892   26.1731   48.2000 C   0  0  0  0  0  0  0  0  0  0  0  0
   48.1571   26.0476   49.1145 C   0  0  0  0  0  0  0  0  0  0  0  0
   47.0399   26.8613   49.1811 C   0  0  0  0  0  0  0  0  0  0  0  0
   46.9990   27.8596   48.2415 C   0  0  0  0  0  0  0  0  0  0  0  0
   47.9762   28.0397   47.3159 C   0  0  0  0  0  0  0  0  0  0  0  0
   50.7479   28.5050   44.7354 H   0  0  0  0  0  0  0  0  0  0  0  0
   50.9071   26.7145   46.3543 H   0  0  0  0  0  0  0  0  0  0  0  0
   50.0325   25.5145   48.1931 H   0  0  0  0  0  0  0  0  0  0  0  0
   48.2674   25.2383   49.8169 H   0  0  0  0  0  0  0  0  0  0  0  0
   46.2716   26.7072   49.9208 H   0  0  0  0  0  0  0  0  0  0  0  0
   46.1344   28.5274   48.2559 H   0  0  0  0  0  0  0  0  0  0  0  0
  1  6  2  0
  2  1  1  0
  3  2  2  0
  3  4  1  0
  4  5  2  0
  5  6  1  0
  5  7  1  0
  7 11  1  0
  7  8  1  0
  8  9  1  0
 10  9  1  0
 11 10  1  0
 12  2  1  0
 13 11  1  0
  1 14  1  0
  3 15  1  0
  8 16  1  0
  8 17  1  0
  9 18  1  0
  9 19  1  0
 10 20  1  0
 10 21  1  0
 11 22  1  6
 12 23  1  0
 12 24  1  0
 25 26  2  0
 26 27  1  0
 26 28  1  0
 28 29  2  0
 29 30  1  0
 30 31  2  0
 31 32  1  0
 32 33  2  0
 33 34  1  0
 34 35  2  0
 35 25  1  0
 35 30  1  0
 28 36  1  0
 29 37  1  0
 31 38  1  0
 32 39  1  0
 33 40  1  0
 34 41  1  0
 13 25  1  0
M  ISO  8  14  14  15  14  16  13  17  13  18  13  19  13  20  13  21  13
M  ISO  2  22  13  27  15
M  END
>  <DihAtoms>  (1) 
10,12,24,25

>  <DihDeg>  (1) 
89.99946087365167

$$$$
