
 OpenBabel03252509273D

 32 35  0  0  1  0  0  0  0  0999 V2000
   46.6700   35.0590   42.0380 C   0  0  1  0  0  0  0  0  0  0  0  0
   48.1350   35.4920   42.0000 C   0  0  0  0  0  0  0  0  0  0  0  0
   47.5460   34.2060   41.3370 C   0  0  2  0  0  0  0  0  0  0  0  0
   46.0120   35.7910   41.5730 H   0  0  0  0  0  0  0  0  0  0  0  0
   48.4240   36.2810   41.2640 H   0  0  0  0  0  0  0  0  0  0  0  0
   48.7560   35.3940   42.8830 H   0  0  0  0  0  0  0  0  0  0  0  0
   48.0230   33.3030   41.8390 H   0  0  0  0  0  0  0  0  0  0  0  0
   44.8670   34.8940   45.3170 C   0  0  0  0  0  0  0  0  0  0  0  0
   45.2380   35.3560   44.0240 C   0  0  0  0  0  0  0  0  0  0  0  0
   46.2600   34.6650   43.4380 C   0  0  0  0  0  0  0  0  0  0  0  0
   46.8760   33.6080   44.0670 N   0  0  0  0  0  0  0  0  0  0  0  0
   46.4950   33.2060   45.2890 C   0  0  0  0  0  0  0  0  0  0  0  0
   45.4810   33.8570   45.9200 N   0  0  0  0  0  0  0  0  0  0  0  0
   44.0640   35.3760   45.8540 H   0  0  0  0  0  0  0  0  0  0  0  0
   46.9920   32.3720   45.7720 H   0  0  0  0  0  0  0  0  0  0  0  0
   44.6060   36.4550   43.4150 N   0  0  0  0  0  0  0  0  0  0  0  0
   45.3170   37.2220   43.3410 H   0  0  0  0  0  0  0  0  0  0  0  0
   43.5870   36.4800   43.0960 H   0  0  0  0  0  0  0  0  0  0  0  0
   47.5920   34.1180   39.8350 C   0  0  0  0  0  0  0  0  0  0  0  0
   47.9090   35.1240   39.4430 H   0  0  0  0  0  0  0  0  0  0  0  0
   46.5480   33.9240   39.5480 H   0  0  0  0  0  0  0  0  0  0  0  0
   48.5740   33.1420   39.3610 C   0  0  0  0  0  0  0  0  0  0  0  0
   49.2840   32.5020   40.3880 C   0  0  0  0  0  0  0  0  0  0  0  0
   49.2130   32.7700   41.4360 H   0  0  0  0  0  0  0  0  0  0  0  0
   50.1420   31.4480   40.0960 C   0  0  0  0  0  3  0  0  0  0  0  0
   50.3430   30.9830   38.8110 C   0  0  0  0  0  3  0  0  0  0  0  0
   49.6650   31.6000   37.8100 C   0  0  0  0  0  0  0  0  0  0  0  0
   49.8670   31.2050   36.4890 C   0  0  0  0  0  3  0  0  0  0  0  0
   49.1940   31.8910   35.4980 C   0  0  0  0  0  3  0  0  0  0  0  0
   48.3420   32.9390   35.7900 C   0  0  0  0  0  3  0  0  0  0  0  0
   48.1590   33.3070   37.1060 C   0  0  0  0  0  3  0  0  0  0  0  0
   48.8360   32.6190   38.1140 C   0  0  0  0  0  0  0  0  0  0  0  0
  1  4  1  6  0  0  0
  1 10  1  0  0  0  0
  2  1  1  0  0  0  0
  2  6  1  0  0  0  0
  3  7  1  1  0  0  0
  3  2  1  0  0  0  0
  3  1  1  0  0  0  0
  5  2  1  0  0  0  0
  8 14  1  0  0  0  0
  8 13  1  0  0  0  0
  9  8  2  0  0  0  0
 10  9  1  0  0  0  0
 10 11  2  0  0  0  0
 11 12  1  0  0  0  0
 12 15  1  0  0  0  0
 12 13  2  0  0  0  0
 16  9  1  0  0  0  0
 17 16  1  0  0  0  0
 18 16  1  0  0  0  0
 19  3  1  0  0  0  0
 20 19  1  0  0  0  0
 21 19  1  0  0  0  0
 22 19  1  0  0  0  0
 22 23  1  0  0  0  0
 23 24  1  0  0  0  0
 25 23  2  0  0  0  0
 26 25  1  0  0  0  0
 27 32  1  0  0  0  0
 27 26  2  0  0  0  0
 28 27  1  0  0  0  0
 29 30  1  0  0  0  0
 29 28  2  0  0  0  0
 30 31  2  0  0  0  0
 31 32  1  0  0  0  0
 32 22  2  0  0  0  0
M  END
>  <minimizedAffinity>
-5.44184589

>  <minimizedRMSD>
3.69467902

$$$$
