
 OpenBabel03252504223D

 34 38  0  0  0  0  0  0  0  0999 V2000
   45.8240   33.3990   39.2630 C   0  0  0  0  0  0  0  0  0  0  0  0
   47.1830   33.1330   39.1740 C   0  0  0  0  0  0  0  0  0  0  0  0
   47.9910   33.3100   40.3350 C   0  0  0  0  0  0  0  0  0  0  0  0
   47.3450   33.7350   41.4590 N   0  0  0  0  0  0  0  0  0  0  0  0
   46.0170   33.9810   41.4970 C   0  0  0  0  0  0  0  0  0  0  0  0
   45.2610   33.8150   40.4060 N   0  0  0  0  0  0  0  0  0  0  0  0
   45.4370   34.4270   42.7340 N   0  0  0  0  0  0  0  0  0  0  0  0
   44.5560   35.4250   42.8870 C   0  0  0  0  0  0  0  0  0  0  0  0
   44.2550   35.5270   44.2110 N   0  0  0  0  0  0  0  0  0  0  0  0
   44.9600   34.5880   44.8390 C   0  0  0  0  0  0  0  0  0  0  0  0
   45.0840   34.1990   46.1460 C   0  0  0  0  0  0  0  0  0  0  0  0
   45.8800   33.1970   46.5310 N   0  0  0  0  0  0  0  0  0  0  0  0
   46.6200   32.5010   45.6520 C   0  0  0  0  0  0  0  0  0  0  0  0
   46.5020   32.8790   44.3640 N   0  0  0  0  0  0  0  0  0  0  0  0
   45.7180   33.8750   43.9280 C   0  0  0  0  0  0  0  0  0  0  0  0
   47.6680   32.7990   38.2760 H   0  0  0  0  0  0  0  0  0  0  0  0
   49.0470   33.1200   40.3290 H   0  0  0  0  0  0  0  0  0  0  0  0
   44.1720   36.0240   42.0710 H   0  0  0  0  0  0  0  0  0  0  0  0
   47.2630   31.6930   45.9590 H   0  0  0  0  0  0  0  0  0  0  0  0
   44.3650   34.8400   47.1850 N   0  0  0  0  0  0  0  0  0  0  0  0
   44.6690   34.8450   48.1830 H   0  0  0  0  0  0  0  0  0  0  0  0
   43.4640   35.3480   46.9390 H   0  0  0  0  0  0  0  0  0  0  0  0
   44.9190   33.1370   37.7300 S   0  0  0  0  0  0  0  0  0  0  0  0
   43.2760   32.5100   38.0630 C   0  0  0  0  0  0  0  0  0  0  0  0
   43.1200   31.1340   37.9950 C   0  0  0  0  0  0  0  0  0  0  0  0
   43.9390   30.4770   37.7550 H   0  0  0  0  0  0  0  0  0  0  0  0
   41.8610   30.5770   38.2450 C   0  0  0  0  0  3  0  0  0  0  0  0
   40.8630   31.4580   38.5420 C   0  0  0  0  0  3  0  0  0  0  0  0
   40.9570   32.8350   38.6250 C   0  0  0  0  0  0  0  0  0  0  0  0
   39.8730   33.6310   38.9370 C   0  0  0  0  0  3  0  0  0  0  0  0
   40.1290   34.9930   38.9800 C   0  0  0  0  0  3  0  0  0  0  0  0
   41.3650   35.5580   38.7370 C   0  0  0  0  0  3  0  0  0  0  0  0
   42.4290   34.7370   38.4280 C   0  0  0  0  0  3  0  0  0  0  0  0
   42.2230   33.3620   38.3720 C   0  0  0  0  0  0  0  0  0  0  0  0
  1  6  1  0  0  0  0
  2  1  2  0  0  0  0
  2  3  1  0  0  0  0
  3  4  2  0  0  0  0
  4  5  1  0  0  0  0
  5  7  1  0  0  0  0
  6  5  2  0  0  0  0
  7  8  1  0  0  0  0
  7 15  1  0  0  0  0
  8  9  2  0  0  0  0
  9 10  1  0  0  0  0
 10 11  1  0  0  0  0
 11 12  2  0  0  0  0
 11 20  1  0  0  0  0
 13 19  1  0  0  0  0
 13 12  1  0  0  0  0
 14 13  2  0  0  0  0
 15 14  1  0  0  0  0
 15 10  2  0  0  0  0
 16  2  1  0  0  0  0
 17  3  1  0  0  0  0
 18  8  1  0  0  0  0
 20 21  1  0  0  0  0
 22 20  1  0  0  0  0
 23 24  1  0  0  0  0
 23  1  1  0  0  0  0
 24 34  1  0  0  0  0
 25 24  2  0  0  0  0
 25 27  1  0  0  0  0
 26 25  1  0  0  0  0
 27 28  2  0  0  0  0
 28 29  1  0  0  0  0
 29 30  1  0  0  0  0
 30 31  2  0  0  0  0
 32 31  1  0  0  0  0
 33 32  2  0  0  0  0
 34 33  1  0  0  0  0
 34 29  2  0  0  0  0
M  END
>  <minimizedAffinity>
-6.6975708

>  <minimizedRMSD>
2.63913083

$$$$
