
     RDKit          3D

 53 57  0  0  0  0  0  0  0  0999 V2000
   47.8769   32.9260   41.8263 C   0  0  1  0  0  0  0  0  0  0  0  0
   47.5715   32.1844   40.5991 C   0  0  0  0  0  0  0  0  0  0  0  0
   48.5918   32.6325   39.5557 C   0  0  0  0  0  0  0  0  0  0  0  0
   48.2416   34.0648   39.1992 C   0  0  0  0  0  0  0  0  0  0  0  0
   48.1571   34.9818   40.3871 C   0  0  0  0  0  0  0  0  0  0  0  0
   47.6569   34.4322   41.6522 C   0  0  1  0  0  0  0  0  0  0  0  0
   45.4711   31.0934   44.1011 C   0  0  0  0  0  0  0  0  0  0  0  0
   46.1542   31.5668   42.9784 C   0  0  0  0  0  0  0  0  0  0  0  0
   47.2188   32.4715   43.0333 C   0  0  0  0  0  0  0  0  0  0  0  0
   47.5670   32.8800   44.2605 N   0  0  0  0  0  0  0  0  0  0  0  0
   46.9110   32.4281   45.3661 C   0  0  0  0  0  0  0  0  0  0  0  0
   45.9004   31.5677   45.3010 N   0  0  0  0  0  0  0  0  0  0  0  0
   46.2696   34.8110   41.9227 C   0  0  0  0  0  0  0  0  0  0  0  0
   45.8050   35.4940   43.0480 C   0  0  0  0  0  0  0  0  0  0  0  0
   44.4389   35.7639   43.0837 C   0  0  0  0  0  0  0  0  0  0  0  0
   43.6653   35.3423   42.0229 C   0  0  0  0  0  0  0  0  0  0  0  0
   44.1433   34.6640   40.9118 C   0  0  0  0  0  0  0  0  0  0  0  0
   45.4760   34.4093   40.8931 N   0  0  0  0  0  0  0  0  0  0  0  0
   43.2373   34.2597   39.8446 C   0  0  0  0  0  0  0  0  0  0  0  0
   42.3742   35.0719   39.4535 O   0  0  0  0  0  0  0  0  0  0  0  0
   48.9922   32.8669   42.0131 H   0  0  0  0  0  0  0  0  0  0  0  0
   47.7504   31.0998   40.7746 H   0  0  0  0  0  0  0  0  0  0  0  0
   46.5651   32.3500   40.1841 H   0  0  0  0  0  0  0  0  0  0  0  0
   48.5238   32.0450   38.6372 H   0  0  0  0  0  0  0  0  0  0  0  0
   49.5989   32.6212   40.0273 H   0  0  0  0  0  0  0  0  0  0  0  0
   47.2365   34.0626   38.7139 H   0  0  0  0  0  0  0  0  0  0  0  0
   49.0151   34.4284   38.4956 H   0  0  0  0  0  0  0  0  0  0  0  0
   49.1813   35.4268   40.5153 H   0  0  0  0  0  0  0  0  0  0  0  0
   47.5081   35.8434   40.0781 H   0  0  0  0  0  0  0  0  0  0  0  0
   48.2434   34.8976   42.4988 H   0  0  0  0  0  0  0  0  0  0  0  0
   44.6663   30.3988   43.9475 H   0  0  0  0  0  0  0  0  0  0  0  0
   45.8592   31.2264   41.9937 H   0  0  0  0  0  0  0  0  0  0  0  0
   47.1748   32.7442   46.3666 H   0  0  0  0  0  0  0  0  0  0  0  0
   46.5247   35.7481   43.7753 H   0  0  0  0  0  0  0  0  0  0  0  0
   44.0692   36.2824   43.9317 H   0  0  0  0  0  0  0  0  0  0  0  0
   42.6020   35.5605   42.0657 H   0  0  0  0  0  0  0  0  0  0  0  0
   43.0884   33.0415   39.0697 C   0  0  0  0  0  0  0  0  0  0  0  0
   42.6717   31.8410   39.6022 C   0  0  0  0  0  0  0  0  0  0  0  0
   42.4163   31.7747   40.6374 H   0  0  0  0  0  0  0  0  0  0  0  0
   42.5539   30.6520   38.9125 C   0  0  0  0  0  0  0  0  0  0  0  0
   42.8793   30.6532   37.5719 C   0  0  0  0  0  0  0  0  0  0  0  0
   43.3040   31.8193   36.9720 C   0  0  0  0  0  0  0  0  0  0  0  0
   43.6028   31.7590   35.6443 C   0  0  0  0  0  0  0  0  0  0  0  0
   44.0255   32.8885   34.9730 C   0  0  0  0  0  0  0  0  0  0  0  0
   44.1346   34.0812   35.6932 C   0  0  0  0  0  0  0  0  0  0  0  0
   43.8183   34.0743   37.0295 C   0  0  0  0  0  0  0  0  0  0  0  0
   43.3955   32.9671   37.7282 C   0  0  0  0  0  0  0  0  0  0  0  0
   42.2212   29.7384   39.3810 H   0  0  0  0  0  0  0  0  0  0  0  0
   42.7992   29.7376   36.9988 H   0  0  0  0  0  0  0  0  0  0  0  0
   43.5263   30.8375   35.0539 H   0  0  0  0  0  0  0  0  0  0  0  0
   44.2661   32.8634   33.9284 H   0  0  0  0  0  0  0  0  0  0  0  0
   44.4678   34.9655   35.1562 H   0  0  0  0  0  0  0  0  0  0  0  0
   43.9211   35.0299   37.4933 H   0  0  0  0  0  0  0  0  0  0  0  0
  1  9  1  0
  2  1  1  0
  3  2  1  0
  4  3  1  0
  4  5  1  0
  5  6  1  0
  6  1  1  0
  6 13  1  0
  7 12  2  0
  8  9  2  0
  8  7  1  0
  9 10  1  0
 10 11  2  0
 12 11  1  0
 13 14  2  0
 14 15  1  0
 16 15  2  0
 17 16  1  0
 18 17  2  0
 18 13  1  0
 19 17  1  0
 20 19  2  0
  1 21  1  1
  2 22  1  0
  2 23  1  0
  3 24  1  0
  3 25  1  0
  4 26  1  0
  4 27  1  0
  5 28  1  0
  5 29  1  0
  6 30  1  1
  7 31  1  0
  8 32  1  0
 11 33  1  0
 14 34  1  0
 15 35  1  0
 16 36  1  0
 37 38  2  0
 38 39  1  0
 38 40  1  0
 40 41  2  0
 41 42  1  0
 42 43  2  0
 43 44  1  0
 44 45  2  0
 45 46  1  0
 46 47  2  0
 47 37  1  0
 47 42  1  0
 40 48  1  0
 41 49  1  0
 43 50  1  0
 44 51  1  0
 45 52  1  0
 46 53  1  0
 19 37  1  0
M  ISO  8  21  13  22  13  23  13  24  13  25  13  26  13  27  13  28  13
M  ISO  8  29  13  30  13  31  14  32  14  33  14  34  14  35  14  36  14
M  ISO  1  39  15
M  END
>  <DihAtoms>  (1) 
16,18,36,37

>  <DihDeg>  (1) 
-52.981718889963055

$$$$
