
 OpenBabel03242514153D

 37 40  0  0  0  0  0  0  0  0999 V2000
   38.2180   30.3510   40.9950 C   0  0  0  0  0  0  0  0  0  0  0  0
   38.8500   29.9440   42.1560 C   0  0  0  0  0  0  0  0  0  0  0  0
   39.9060   30.7420   42.5980 C   0  0  0  0  0  0  0  0  0  0  0  0
   40.2270   31.8730   41.8470 N   0  0  0  0  0  0  0  0  0  0  0  0
   39.5750   32.2110   40.7440 C   0  0  0  0  0  0  0  0  0  0  0  0
   38.5790   31.4590   40.3150 N   0  0  0  0  0  0  0  0  0  0  0  0
   40.5860   30.6990   43.4350 H   0  0  0  0  0  0  0  0  0  0  0  0
   39.8290   33.0910   40.1700 H   0  0  0  0  0  0  0  0  0  0  0  0
   37.1870   29.4030   40.5500 C   0  0  0  0  0  0  0  0  0  0  0  0
   37.4610   28.7540   39.2670 C   0  0  0  0  0  0  0  0  0  0  0  0
   36.5130   29.0620   38.2310 C   0  0  0  0  0  0  0  0  0  0  0  0
   35.0540   28.7750   38.6620 C   0  0  0  0  0  0  0  0  0  0  0  0
   34.7500   29.1680   40.0530 C   0  0  0  0  0  0  0  0  0  0  0  0
   35.8250   30.0270   40.6340 C   0  0  0  0  0  0  0  0  0  0  0  0
   37.2350   28.5820   41.3150 H   0  0  0  0  0  0  0  0  0  0  0  0
   38.4880   29.0730   38.9490 H   0  0  0  0  0  0  0  0  0  0  0  0
   37.5880   27.6310   39.3730 H   0  0  0  0  0  0  0  0  0  0  0  0
   36.5520   29.8540   37.5240 H   0  0  0  0  0  0  0  0  0  0  0  0
   36.6360   28.1540   37.4840 H   0  0  0  0  0  0  0  0  0  0  0  0
   34.4120   29.3660   37.9570 H   0  0  0  0  0  0  0  0  0  0  0  0
   34.7750   27.7120   38.4900 H   0  0  0  0  0  0  0  0  0  0  0  0
   34.6580   28.2610   40.6860 H   0  0  0  0  0  0  0  0  0  0  0  0
   33.7920   29.7570   40.1540 H   0  0  0  0  0  0  0  0  0  0  0  0
   35.5930   30.0790   41.7440 H   0  0  0  0  0  0  0  0  0  0  0  0
   35.6740   31.0250   40.2750 H   0  0  0  0  0  0  0  0  0  0  0  0
   38.7600   28.9760   43.0290 O   0  0  0  0  0  0  0  0  0  0  0  0
   39.5330   27.8410   43.1100 C   0  0  0  0  0  0  0  0  0  0  0  0
   40.8830   27.6900   43.4630 C   0  0  0  0  0  0  0  0  0  0  0  0
   41.3490   28.6150   43.6930 H   0  0  0  0  0  0  0  0  0  0  0  0
   41.4520   26.4380   43.4760 C   0  0  0  0  0  3  0  0  0  0  0  0
   40.7420   25.3060   43.1500 C   0  0  0  0  0  3  0  0  0  0  0  0
   39.4020   25.4470   42.8000 C   0  0  0  0  0  0  0  0  0  0  0  0
   38.7770   24.2610   42.4920 C   0  0  0  0  0  3  0  0  0  0  0  0
   37.4480   24.3130   42.1340 C   0  0  0  0  0  3  0  0  0  0  0  0
   36.8020   25.5290   42.0960 C   0  0  0  0  0  3  0  0  0  0  0  0
   37.4710   26.6920   42.4130 C   0  0  0  0  0  3  0  0  0  0  0  0
   38.8030   26.6950   42.7790 C   0  0  0  0  0  0  0  0  0  0  0  0
  1  2  1  0  0  0  0
  2  3  2  0  0  0  0
  2 26  1  0  0  0  0
  3  7  1  0  0  0  0
  4  3  1  0  0  0  0
  5  4  2  0  0  0  0
  6  5  1  0  0  0  0
  6  1  2  0  0  0  0
  8  5  1  0  0  0  0
  9 14  1  0  0  0  0
  9  1  1  0  0  0  0
  9 15  1  0  0  0  0
 10 17  1  0  0  0  0
 10  9  1  0  0  0  0
 11 12  1  0  0  0  0
 11 10  1  0  0  0  0
 12 13  1  0  0  0  0
 13 23  1  0  0  0  0
 13 14  1  0  0  0  0
 13 22  1  0  0  0  0
 14 24  1  0  0  0  0
 16 10  1  0  0  0  0
 18 11  1  0  0  0  0
 19 11  1  0  0  0  0
 20 12  1  0  0  0  0
 21 12  1  0  0  0  0
 25 14  1  0  0  0  0
 26 27  1  0  0  0  0
 27 28  1  0  0  0  0
 28 30  2  0  0  0  0
 28 29  1  0  0  0  0
 31 30  1  0  0  0  0
 32 31  2  0  0  0  0
 33 32  1  0  0  0  0
 34 33  2  0  0  0  0
 35 34  1  0  0  0  0
 35 36  2  0  0  0  0
 36 37  1  0  0  0  0
 37 32  1  0  0  0  0
 37 27  2  0  0  0  0
M  END
>  <minimizedAffinity>
-6.07760525

$$$$

 OpenBabel03242514153D

 37 40  0  0  0  0  0  0  0  0999 V2000
   38.0610   30.0520   38.7390 C   0  0  0  0  0  0  0  0  0  0  0  0
   39.0950   29.6150   39.5480 C   0  0  0  0  0  0  0  0  0  0  0  0
   40.2920   30.3250   39.4600 C   0  0  0  0  0  0  0  0  0  0  0  0
   40.3450   31.4080   38.5830 N   0  0  0  0  0  0  0  0  0  0  0  0
   39.3130   31.7790   37.8390 C   0  0  0  0  0  0  0  0  0  0  0  0
   38.1780   31.1100   37.9100 N   0  0  0  0  0  0  0  0  0  0  0  0
   41.2570   30.2390   39.9370 H   0  0  0  0  0  0  0  0  0  0  0  0
   39.3620   32.6220   37.1630 H   0  0  0  0  0  0  0  0  0  0  0  0
   36.8740   29.1890   38.8210 C   0  0  0  0  0  0  0  0  0  0  0  0
   36.3620   28.7230   37.5320 C   0  0  0  0  0  0  0  0  0  0  0  0
   35.0380   29.1850   37.2170 C   0  0  0  0  0  0  0  0  0  0  0  0
   34.0170   28.8600   38.3340 C   0  0  0  0  0  0  0  0  0  0  0  0
   34.5400   29.0580   39.7010 C   0  0  0  0  0  0  0  0  0  0  0  0
   35.8290   29.8130   39.6980 C   0  0  0  0  0  0  0  0  0  0  0  0
   37.2520   28.2680   39.3410 H   0  0  0  0  0  0  0  0  0  0  0  0
   37.0830   29.0700   36.7460 H   0  0  0  0  0  0  0  0  0  0  0  0
   36.4280   27.5940   37.4260 H   0  0  0  0  0  0  0  0  0  0  0  0
   34.7620   30.0680   36.6940 H   0  0  0  0  0  0  0  0  0  0  0  0
   34.6630   28.3900   36.4260 H   0  0  0  0  0  0  0  0  0  0  0  0
   33.1520   29.5530   38.1600 H   0  0  0  0  0  0  0  0  0  0  0  0
   33.5980   27.8360   38.2230 H   0  0  0  0  0  0  0  0  0  0  0  0
   34.7220   28.0720   40.1770 H   0  0  0  0  0  0  0  0  0  0  0  0
   33.8400   29.6390   40.3690 H   0  0  0  0  0  0  0  0  0  0  0  0
   36.2320   29.7110   40.7540 H   0  0  0  0  0  0  0  0  0  0  0  0
   35.5960   30.8530   39.5920 H   0  0  0  0  0  0  0  0  0  0  0  0
   39.3130   28.6760   40.4310 O   0  0  0  0  0  0  0  0  0  0  0  0
   38.5620   28.3750   41.5430 C   0  0  0  0  0  0  0  0  0  0  0  0
   38.2700   29.1540   42.6740 C   0  0  0  0  0  0  0  0  0  0  0  0
   38.7160   30.1160   42.6320 H   0  0  0  0  0  0  0  0  0  0  0  0
   37.4840   28.6380   43.6780 C   0  0  0  0  0  3  0  0  0  0  0  0
   36.9640   27.3650   43.6200 C   0  0  0  0  0  3  0  0  0  0  0  0
   37.2490   26.5870   42.5020 C   0  0  0  0  0  0  0  0  0  0  0  0
   36.6850   25.3330   42.5360 C   0  0  0  0  0  3  0  0  0  0  0  0
   36.9190   24.4970   41.4660 C   0  0  0  0  0  3  0  0  0  0  0  0
   37.6960   24.9390   40.4180 C   0  0  0  0  0  3  0  0  0  0  0  0
   38.2410   26.2050   40.4290 C   0  0  0  0  0  3  0  0  0  0  0  0
   38.0360   27.0810   41.4770 C   0  0  0  0  0  0  0  0  0  0  0  0
  1  9  1  0  0  0  0
  1  2  1  0  0  0  0
  2 26  1  0  0  0  0
  3  2  2  0  0  0  0
  3  7  1  0  0  0  0
  4  3  1  0  0  0  0
  5  6  1  0  0  0  0
  5  4  2  0  0  0  0
  6  1  2  0  0  0  0
  8  5  1  0  0  0  0
  9 15  1  0  0  0  0
  9 14  1  0  0  0  0
 10  9  1  0  0  0  0
 11 10  1  0  0  0  0
 11 12  1  0  0  0  0
 12 13  1  0  0  0  0
 13 22  1  0  0  0  0
 13 23  1  0  0  0  0
 14 13  1  0  0  0  0
 14 24  1  0  0  0  0
 16 10  1  0  0  0  0
 17 10  1  0  0  0  0
 18 11  1  0  0  0  0
 19 11  1  0  0  0  0
 20 12  1  0  0  0  0
 21 12  1  0  0  0  0
 25 14  1  0  0  0  0
 26 27  1  0  0  0  0
 27 28  1  0  0  0  0
 28 30  2  0  0  0  0
 29 28  1  0  0  0  0
 31 30  1  0  0  0  0
 32 33  1  0  0  0  0
 32 31  2  0  0  0  0
 34 33  2  0  0  0  0
 35 36  2  0  0  0  0
 35 34  1  0  0  0  0
 36 37  1  0  0  0  0
 37 27  2  0  0  0  0
 37 32  1  0  0  0  0
M  END
>  <minimizedAffinity>
-5.95930338

$$$$

 OpenBabel03242514153D

 37 40  0  0  0  0  0  0  0  0999 V2000
   37.5900   31.4360   39.5390 C   0  0  0  0  0  0  0  0  0  0  0  0
   38.5280   31.4160   40.5560 C   0  0  0  0  0  0  0  0  0  0  0  0
   38.9350   32.6570   41.0480 C   0  0  0  0  0  0  0  0  0  0  0  0
   38.3630   33.7990   40.4880 N   0  0  0  0  0  0  0  0  0  0  0  0
   37.4620   33.7480   39.5170 C   0  0  0  0  0  0  0  0  0  0  0  0
   37.0760   32.5800   39.0410 N   0  0  0  0  0  0  0  0  0  0  0  0
   39.6320   32.9760   41.8080 H   0  0  0  0  0  0  0  0  0  0  0  0
   37.0220   34.6390   39.0910 H   0  0  0  0  0  0  0  0  0  0  0  0
   37.2940   30.0950   39.0150 C   0  0  0  0  0  0  0  0  0  0  0  0
   37.8480   29.8180   37.6890 C   0  0  0  0  0  0  0  0  0  0  0  0
   36.8600   29.5780   36.6720 C   0  0  0  0  0  0  0  0  0  0  0  0
   35.8640   28.4620   37.0680 C   0  0  0  0  0  0  0  0  0  0  0  0
   35.4400   28.5090   38.4820 C   0  0  0  0  0  0  0  0  0  0  0  0
   35.8290   29.7940   39.1350 C   0  0  0  0  0  0  0  0  0  0  0  0
   37.8430   29.4110   39.7160 H   0  0  0  0  0  0  0  0  0  0  0  0
   38.4800   30.6990   37.4050 H   0  0  0  0  0  0  0  0  0  0  0  0
   38.6120   28.9790   37.7100 H   0  0  0  0  0  0  0  0  0  0  0  0
   36.4010   30.2870   36.0280 H   0  0  0  0  0  0  0  0  0  0  0  0
   37.4640   28.9680   35.8590 H   0  0  0  0  0  0  0  0  0  0  0  0
   34.9710   28.6090   36.4040 H   0  0  0  0  0  0  0  0  0  0  0  0
   36.2540   27.4520   36.8130 H   0  0  0  0  0  0  0  0  0  0  0  0
   35.9210   27.6810   39.0430 H   0  0  0  0  0  0  0  0  0  0  0  0
   34.3240   28.4150   38.6190 H   0  0  0  0  0  0  0  0  0  0  0  0
   35.6530   29.6270   40.2440 H   0  0  0  0  0  0  0  0  0  0  0  0
   35.1090   30.5340   38.8520 H   0  0  0  0  0  0  0  0  0  0  0  0
   39.2000   30.5330   41.2470 O   0  0  0  0  0  0  0  0  0  0  0  0
   38.6990   29.5300   42.0430 C   0  0  0  0  0  0  0  0  0  0  0  0
   37.3890   29.2990   42.4910 C   0  0  0  0  0  0  0  0  0  0  0  0
   36.7060   30.0350   42.1450 H   0  0  0  0  0  0  0  0  0  0  0  0
   37.1180   28.2140   43.2910 C   0  0  0  0  0  3  0  0  0  0  0  0
   38.0960   27.3280   43.6800 C   0  0  0  0  0  3  0  0  0  0  0  0
   39.3980   27.5490   43.2400 C   0  0  0  0  0  0  0  0  0  0  0  0
   40.3020   26.6110   43.6790 C   0  0  0  0  0  3  0  0  0  0  0  0
   41.6150   26.7570   43.2890 C   0  0  0  0  0  3  0  0  0  0  0  0
   41.9700   27.8190   42.4860 C   0  0  0  0  0  3  0  0  0  0  0  0
   41.0270   28.7340   42.0700 C   0  0  0  0  0  3  0  0  0  0  0  0
   39.6990   28.6330   42.4340 C   0  0  0  0  0  0  0  0  0  0  0  0
  1  2  1  0  0  0  0
  2  3  2  0  0  0  0
  2 26  1  0  0  0  0
  3  7  1  0  0  0  0
  4  3  1  0  0  0  0
  5  4  2  0  0  0  0
  6  5  1  0  0  0  0
  6  1  2  0  0  0  0
  8  5  1  0  0  0  0
  9 14  1  0  0  0  0
  9  1  1  0  0  0  0
  9 15  1  0  0  0  0
 10 17  1  0  0  0  0
 10  9  1  0  0  0  0
 11 12  1  0  0  0  0
 11 10  1  0  0  0  0
 12 13  1  0  0  0  0
 13 23  1  0  0  0  0
 13 22  1  0  0  0  0
 13 14  1  0  0  0  0
 14 24  1  0  0  0  0
 16 10  1  0  0  0  0
 18 11  1  0  0  0  0
 19 11  1  0  0  0  0
 20 12  1  0  0  0  0
 21 12  1  0  0  0  0
 25 14  1  0  0  0  0
 26 27  1  0  0  0  0
 27 37  2  0  0  0  0
 27 28  1  0  0  0  0
 28 30  2  0  0  0  0
 29 28  1  0  0  0  0
 30 31  1  0  0  0  0
 32 33  1  0  0  0  0
 32 31  2  0  0  0  0
 34 33  2  0  0  0  0
 35 34  1  0  0  0  0
 36 37  1  0  0  0  0
 36 35  2  0  0  0  0
 37 32  1  0  0  0  0
M  END
>  <minimizedAffinity>
-5.94265747

$$$$

 OpenBabel03242514153D

 37 40  0  0  0  0  0  0  0  0999 V2000
   39.3840   31.5480   39.2530 C   0  0  0  0  0  0  0  0  0  0  0  0
   39.7820   31.6710   40.5720 C   0  0  0  0  0  0  0  0  0  0  0  0
   40.7820   32.6070   40.8320 C   0  0  0  0  0  0  0  0  0  0  0  0
   41.2860   33.3390   39.7580 N   0  0  0  0  0  0  0  0  0  0  0  0
   40.8560   33.1770   38.5140 C   0  0  0  0  0  0  0  0  0  0  0  0
   39.9150   32.2890   38.2570 N   0  0  0  0  0  0  0  0  0  0  0  0
   41.3010   32.9300   41.7230 H   0  0  0  0  0  0  0  0  0  0  0  0
   41.2510   33.7500   37.6880 H   0  0  0  0  0  0  0  0  0  0  0  0
   38.4010   30.4730   39.0540 C   0  0  0  0  0  0  0  0  0  0  0  0
   38.5820   29.6920   37.8300 C   0  0  0  0  0  0  0  0  0  0  0  0
   37.4940   29.7930   36.8960 C   0  0  0  0  0  0  0  0  0  0  0  0
   36.1290   29.4480   37.5400 C   0  0  0  0  0  0  0  0  0  0  0  0
   35.9560   29.9870   38.9040 C   0  0  0  0  0  0  0  0  0  0  0  0
   37.0070   30.9940   39.2410 C   0  0  0  0  0  0  0  0  0  0  0  0
   38.6160   29.7610   39.8960 H   0  0  0  0  0  0  0  0  0  0  0  0
   39.5300   30.0490   37.3490 H   0  0  0  0  0  0  0  0  0  0  0  0
   38.8250   28.6050   38.0460 H   0  0  0  0  0  0  0  0  0  0  0  0
   37.3760   30.4910   36.1040 H   0  0  0  0  0  0  0  0  0  0  0  0
   37.6130   28.8110   36.2480 H   0  0  0  0  0  0  0  0  0  0  0  0
   35.3560   29.8940   36.8600 H   0  0  0  0  0  0  0  0  0  0  0  0
   35.9320   28.3540   37.5280 H   0  0  0  0  0  0  0  0  0  0  0  0
   36.0240   29.1620   39.6430 H   0  0  0  0  0  0  0  0  0  0  0  0
   34.9660   30.5070   39.0590 H   0  0  0  0  0  0  0  0  0  0  0  0
   36.9030   31.1660   40.3580 H   0  0  0  0  0  0  0  0  0  0  0  0
   36.7210   31.9240   38.7920 H   0  0  0  0  0  0  0  0  0  0  0  0
   39.4900   31.1440   41.7320 O   0  0  0  0  0  0  0  0  0  0  0  0
   40.0020   29.9940   42.2860 C   0  0  0  0  0  0  0  0  0  0  0  0
   41.3260   29.6540   42.6040 C   0  0  0  0  0  0  0  0  0  0  0  0
   42.0130   30.4270   42.3630 H   0  0  0  0  0  0  0  0  0  0  0  0
   41.6060   28.4280   43.1600 C   0  0  0  0  0  3  0  0  0  0  0  0
   40.6240   27.5010   43.4230 C   0  0  0  0  0  3  0  0  0  0  0  0
   39.3080   27.8290   43.1100 C   0  0  0  0  0  0  0  0  0  0  0  0
   38.4000   26.8400   43.4090 C   0  0  0  0  0  3  0  0  0  0  0  0
   37.0730   27.0860   43.1300 C   0  0  0  0  0  3  0  0  0  0  0  0
   36.7080   28.2910   42.5710 C   0  0  0  0  0  3  0  0  0  0  0  0
   37.6560   29.2520   42.2900 C   0  0  0  0  0  3  0  0  0  0  0  0
   38.9980   29.0560   42.5500 C   0  0  0  0  0  0  0  0  0  0  0  0
  1  2  1  0  0  0  0
  2  3  2  0  0  0  0
  2 26  1  0  0  0  0
  3  7  1  0  0  0  0
  4  3  1  0  0  0  0
  5  4  2  0  0  0  0
  6  5  1  0  0  0  0
  6  1  2  0  0  0  0
  8  5  1  0  0  0  0
  9 14  1  0  0  0  0
  9  1  1  0  0  0  0
  9 15  1  0  0  0  0
 10 17  1  0  0  0  0
 10  9  1  0  0  0  0
 11 12  1  0  0  0  0
 11 10  1  0  0  0  0
 12 13  1  0  0  0  0
 13 23  1  0  0  0  0
 13 14  1  0  0  0  0
 13 22  1  0  0  0  0
 14 24  1  0  0  0  0
 16 10  1  0  0  0  0
 18 11  1  0  0  0  0
 19 11  1  0  0  0  0
 20 12  1  0  0  0  0
 21 12  1  0  0  0  0
 25 14  1  0  0  0  0
 26 27  1  0  0  0  0
 27 37  2  0  0  0  0
 27 28  1  0  0  0  0
 28 30  2  0  0  0  0
 29 28  1  0  0  0  0
 30 31  1  0  0  0  0
 32 33  1  0  0  0  0
 32 31  2  0  0  0  0
 34 33  2  0  0  0  0
 35 34  1  0  0  0  0
 36 37  1  0  0  0  0
 36 35  2  0  0  0  0
 37 32  1  0  0  0  0
M  END
>  <minimizedAffinity>
-5.76448584

$$$$

 OpenBabel03242514153D

 37 40  0  0  0  0  0  0  0  0999 V2000
   37.7420   30.2580   38.0390 C   0  0  0  0  0  0  0  0  0  0  0  0
   37.9090   28.9190   38.3440 C   0  0  0  0  0  0  0  0  0  0  0  0
   37.4240   28.0050   37.4090 C   0  0  0  0  0  0  0  0  0  0  0  0
   36.8250   28.5100   36.2550 N   0  0  0  0  0  0  0  0  0  0  0  0
   36.7010   29.8080   36.0200 C   0  0  0  0  0  0  0  0  0  0  0  0
   37.1510   30.6800   36.9020 N   0  0  0  0  0  0  0  0  0  0  0  0
   37.3940   26.9270   37.3520 H   0  0  0  0  0  0  0  0  0  0  0  0
   36.2370   30.1900   35.1220 H   0  0  0  0  0  0  0  0  0  0  0  0
   38.1910   31.1460   39.1210 C   0  0  0  0  0  0  0  0  0  0  0  0
   37.1330   31.9480   39.7380 C   0  0  0  0  0  0  0  0  0  0  0  0
   37.2890   33.3670   39.5670 C   0  0  0  0  0  0  0  0  0  0  0  0
   38.6730   33.8700   40.0450 C   0  0  0  0  0  0  0  0  0  0  0  0
   39.7930   32.9770   39.6850 C   0  0  0  0  0  0  0  0  0  0  0  0
   39.3820   31.9460   38.6850 C   0  0  0  0  0  0  0  0  0  0  0  0
   38.5300   30.4350   39.9220 H   0  0  0  0  0  0  0  0  0  0  0  0
   36.1620   31.6150   39.2860 H   0  0  0  0  0  0  0  0  0  0  0  0
   36.9810   31.6900   40.8320 H   0  0  0  0  0  0  0  0  0  0  0  0
   36.9120   33.9760   38.7830 H   0  0  0  0  0  0  0  0  0  0  0  0
   36.6470   33.8100   40.4570 H   0  0  0  0  0  0  0  0  0  0  0  0
   38.8150   34.8670   39.5500 H   0  0  0  0  0  0  0  0  0  0  0  0
   38.6810   34.0810   41.1360 H   0  0  0  0  0  0  0  0  0  0  0  0
   40.1550   32.4490   40.5910 H   0  0  0  0  0  0  0  0  0  0  0  0
   40.6710   33.5200   39.2290 H   0  0  0  0  0  0  0  0  0  0  0  0
   40.2410   31.2050   38.6560 H   0  0  0  0  0  0  0  0  0  0  0  0
   39.3870   32.4100   37.7190 H   0  0  0  0  0  0  0  0  0  0  0  0
   38.4170   28.1930   39.3060 O   0  0  0  0  0  0  0  0  0  0  0  0
   37.8130   27.8100   40.4800 C   0  0  0  0  0  0  0  0  0  0  0  0
   37.1230   28.5750   41.4340 C   0  0  0  0  0  0  0  0  0  0  0  0
   37.0850   29.6040   41.1780 H   0  0  0  0  0  0  0  0  0  0  0  0
   36.5940   27.9670   42.5480 C   0  0  0  0  0  3  0  0  0  0  0  0
   36.7140   26.6150   42.7730 C   0  0  0  0  0  3  0  0  0  0  0  0
   37.3970   25.8500   41.8320 C   0  0  0  0  0  0  0  0  0  0  0  0
   37.4640   24.5110   42.1440 C   0  0  0  0  0  3  0  0  0  0  0  0
   38.1240   23.6830   41.2630 C   0  0  0  0  0  3  0  0  0  0  0  0
   38.6830   24.2130   40.1210 C   0  0  0  0  0  3  0  0  0  0  0  0
   38.5890   25.5610   39.8510 C   0  0  0  0  0  3  0  0  0  0  0  0
   37.9390   26.4350   40.7010 C   0  0  0  0  0  0  0  0  0  0  0  0
  1  2  1  0  0  0  0
  1  9  1  0  0  0  0
  2 26  1  0  0  0  0
  3  2  2  0  0  0  0
  4  3  1  0  0  0  0
  5  4  2  0  0  0  0
  5  6  1  0  0  0  0
  6  1  2  0  0  0  0
  7  3  1  0  0  0  0
  8  5  1  0  0  0  0
  9 10  1  0  0  0  0
  9 15  1  0  0  0  0
 10 17  1  0  0  0  0
 11 10  1  0  0  0  0
 11 12  1  0  0  0  0
 11 19  1  0  0  0  0
 12 21  1  0  0  0  0
 13 12  1  0  0  0  0
 13 22  1  0  0  0  0
 14  9  1  0  0  0  0
 14 13  1  0  0  0  0
 16 10  1  0  0  0  0
 18 11  1  0  0  0  0
 20 12  1  0  0  0  0
 23 13  1  0  0  0  0
 24 14  1  0  0  0  0
 25 14  1  0  0  0  0
 26 27  1  0  0  0  0
 27 37  2  0  0  0  0
 27 28  1  0  0  0  0
 28 30  2  0  0  0  0
 29 28  1  0  0  0  0
 30 31  1  0  0  0  0
 32 33  1  0  0  0  0
 32 31  2  0  0  0  0
 34 33  2  0  0  0  0
 35 34  1  0  0  0  0
 36 35  2  0  0  0  0
 36 37  1  0  0  0  0
 37 32  1  0  0  0  0
M  END
>  <minimizedAffinity>
-5.72149038

$$$$

 OpenBabel03242514153D

 37 40  0  0  0  0  0  0  0  0999 V2000
   36.4400   26.9920   39.7140 C   0  0  0  0  0  0  0  0  0  0  0  0
   35.9500   28.2470   40.0300 C   0  0  0  0  0  0  0  0  0  0  0  0
   35.0310   28.7960   39.1350 C   0  0  0  0  0  0  0  0  0  0  0  0
   34.6800   28.0420   38.0160 N   0  0  0  0  0  0  0  0  0  0  0  0
   35.1830   26.8390   37.7750 C   0  0  0  0  0  0  0  0  0  0  0  0
   36.0580   26.3140   38.6110 N   0  0  0  0  0  0  0  0  0  0  0  0
   34.4850   29.7260   39.0900 H   0  0  0  0  0  0  0  0  0  0  0  0
   34.9040   26.2610   36.9060 H   0  0  0  0  0  0  0  0  0  0  0  0
   37.4730   26.5340   40.6540 C   0  0  0  0  0  0  0  0  0  0  0  0
   38.8080   26.3840   40.0750 C   0  0  0  0  0  0  0  0  0  0  0  0
   39.3110   25.0370   40.0850 C   0  0  0  0  0  0  0  0  0  0  0  0
   39.2790   24.4060   41.4990 C   0  0  0  0  0  0  0  0  0  0  0  0
   38.0600   24.7220   42.2700 C   0  0  0  0  0  0  0  0  0  0  0  0
   37.0000   25.3270   41.4080 C   0  0  0  0  0  0  0  0  0  0  0  0
   37.5590   27.3820   41.3850 H   0  0  0  0  0  0  0  0  0  0  0  0
   38.7540   26.7610   39.0200 H   0  0  0  0  0  0  0  0  0  0  0  0
   39.5600   27.0960   40.5390 H   0  0  0  0  0  0  0  0  0  0  0  0
   39.2040   24.2940   39.3340 H   0  0  0  0  0  0  0  0  0  0  0  0
   40.4810   25.1930   40.0110 H   0  0  0  0  0  0  0  0  0  0  0  0
   39.3410   23.2980   41.3330 H   0  0  0  0  0  0  0  0  0  0  0  0
   40.1880   24.6640   42.0860 H   0  0  0  0  0  0  0  0  0  0  0  0
   38.3040   25.4490   43.0720 H   0  0  0  0  0  0  0  0  0  0  0  0
   37.5900   23.8190   42.7560 H   0  0  0  0  0  0  0  0  0  0  0  0
   36.2200   25.7190   42.1330 H   0  0  0  0  0  0  0  0  0  0  0  0
   36.5120   24.5290   40.8860 H   0  0  0  0  0  0  0  0  0  0  0  0
   36.0920   29.1410   40.9730 O   0  0  0  0  0  0  0  0  0  0  0  0
   37.2640   29.6410   41.4890 C   0  0  0  0  0  0  0  0  0  0  0  0
   38.1340   29.0980   42.4480 C   0  0  0  0  0  0  0  0  0  0  0  0
   37.8030   28.1580   42.8120 H   0  0  0  0  0  0  0  0  0  0  0  0
   39.2660   29.7870   42.8150 C   0  0  0  0  0  3  0  0  0  0  0  0
   39.5890   31.0100   42.2720 C   0  0  0  0  0  3  0  0  0  0  0  0
   38.7310   31.5550   41.3210 C   0  0  0  0  0  0  0  0  0  0  0  0
   39.1380   32.7770   40.8380 C   0  0  0  0  0  3  0  0  0  0  0  0
   38.3440   33.3860   39.8910 C   0  0  0  0  0  3  0  0  0  0  0  0
   37.1910   32.7610   39.4690 C   0  0  0  0  0  3  0  0  0  0  0  0
   36.8250   31.5360   39.9820 C   0  0  0  0  0  3  0  0  0  0  0  0
   37.5850   30.8830   40.9330 C   0  0  0  0  0  0  0  0  0  0  0  0
  1  2  1  0  0  0  0
  1  9  1  0  0  0  0
  2 26  1  0  0  0  0
  3  2  2  0  0  0  0
  4  3  1  0  0  0  0
  5  4  2  0  0  0  0
  5  6  1  0  0  0  0
  6  1  2  0  0  0  0
  7  3  1  0  0  0  0
  8  5  1  0  0  0  0
  9 15  1  0  0  0  0
  9 14  1  0  0  0  0
 10 11  1  0  0  0  0
 10 17  1  0  0  0  0
 10  9  1  0  0  0  0
 11 12  1  0  0  0  0
 12 21  1  0  0  0  0
 12 13  1  0  0  0  0
 13 23  1  0  0  0  0
 13 22  1  0  0  0  0
 14 24  1  0  0  0  0
 14 13  1  0  0  0  0
 16 10  1  0  0  0  0
 18 11  1  0  0  0  0
 19 11  1  0  0  0  0
 20 12  1  0  0  0  0
 25 14  1  0  0  0  0
 26 27  1  0  0  0  0
 27 28  1  0  0  0  0
 28 29  1  0  0  0  0
 28 30  2  0  0  0  0
 31 30  1  0  0  0  0
 32 31  2  0  0  0  0
 33 32  1  0  0  0  0
 34 33  2  0  0  0  0
 35 34  1  0  0  0  0
 35 36  2  0  0  0  0
 36 37  1  0  0  0  0
 37 32  1  0  0  0  0
 37 27  2  0  0  0  0
M  END
>  <minimizedAffinity>
-5.71863794

$$$$

 OpenBabel03242514153D

 37 40  0  0  0  0  0  0  0  0999 V2000
   38.7370   30.7540   40.8110 C   0  0  0  0  0  0  0  0  0  0  0  0
   38.1470   30.8490   39.5640 C   0  0  0  0  0  0  0  0  0  0  0  0
   38.0230   32.1340   39.0340 C   0  0  0  0  0  0  0  0  0  0  0  0
   38.5050   33.2000   39.7920 N   0  0  0  0  0  0  0  0  0  0  0  0
   39.0670   33.0390   40.9820 C   0  0  0  0  0  0  0  0  0  0  0  0
   39.1840   31.8290   41.4940 N   0  0  0  0  0  0  0  0  0  0  0  0
   37.6180   32.5370   38.1180 H   0  0  0  0  0  0  0  0  0  0  0  0
   39.4410   33.8720   41.5610 H   0  0  0  0  0  0  0  0  0  0  0  0
   38.7370   29.3800   41.3340 C   0  0  0  0  0  0  0  0  0  0  0  0
   37.5750   29.0330   42.1520 C   0  0  0  0  0  0  0  0  0  0  0  0
   37.8840   28.7200   43.5210 C   0  0  0  0  0  0  0  0  0  0  0  0
   38.9590   27.6130   43.6440 C   0  0  0  0  0  0  0  0  0  0  0  0
   40.0620   27.7370   42.6690 C   0  0  0  0  0  0  0  0  0  0  0  0
   40.0520   29.0640   41.9850 C   0  0  0  0  0  0  0  0  0  0  0  0
   38.6510   28.7460   40.4110 H   0  0  0  0  0  0  0  0  0  0  0  0
   36.8710   29.9060   42.1120 H   0  0  0  0  0  0  0  0  0  0  0  0
   36.9500   28.2090   41.6840 H   0  0  0  0  0  0  0  0  0  0  0  0
   37.9220   29.3820   44.3500 H   0  0  0  0  0  0  0  0  0  0  0  0
   36.9540   28.0710   43.8580 H   0  0  0  0  0  0  0  0  0  0  0  0
   39.3670   27.7070   44.6850 H   0  0  0  0  0  0  0  0  0  0  0  0
   38.5120   26.5960   43.5970 H   0  0  0  0  0  0  0  0  0  0  0  0
   39.9640   26.9510   41.8930 H   0  0  0  0  0  0  0  0  0  0  0  0
   41.0860   27.6340   43.1350 H   0  0  0  0  0  0  0  0  0  0  0  0
   40.7870   28.9590   41.1270 H   0  0  0  0  0  0  0  0  0  0  0  0
   40.5020   29.7750   42.6470 H   0  0  0  0  0  0  0  0  0  0  0  0
   37.6330   30.0530   38.6630 O   0  0  0  0  0  0  0  0  0  0  0  0
   36.3230   29.6540   38.5430 C   0  0  0  0  0  0  0  0  0  0  0  0
   35.3490   29.4370   39.5310 C   0  0  0  0  0  0  0  0  0  0  0  0
   35.7170   29.6130   40.5100 H   0  0  0  0  0  0  0  0  0  0  0  0
   34.0840   29.0350   39.1710 C   0  0  0  0  0  3  0  0  0  0  0  0
   33.7250   28.8320   37.8580 C   0  0  0  0  0  3  0  0  0  0  0  0
   34.6850   29.0450   36.8730 C   0  0  0  0  0  0  0  0  0  0  0  0
   34.2320   28.8170   35.5940 C   0  0  0  0  0  3  0  0  0  0  0  0
   35.1210   29.0060   34.5580 C   0  0  0  0  0  3  0  0  0  0  0  0
   36.4090   29.4090   34.8340 C   0  0  0  0  0  3  0  0  0  0  0  0
   36.8160   29.6250   36.1330 C   0  0  0  0  0  3  0  0  0  0  0  0
   35.9650   29.4500   37.2060 C   0  0  0  0  0  0  0  0  0  0  0  0
  1  9  1  0  0  0  0
  1  6  1  0  0  0  0
  2  1  2  0  0  0  0
  3  2  1  0  0  0  0
  3  4  2  0  0  0  0
  4  5  1  0  0  0  0
  5  6  2  0  0  0  0
  5  8  1  0  0  0  0
  7  3  1  0  0  0  0
  9 14  1  0  0  0  0
  9 10  1  0  0  0  0
 10 11  1  0  0  0  0
 11 12  1  0  0  0  0
 11 19  1  0  0  0  0
 11 18  1  0  0  0  0
 12 20  1  0  0  0  0
 13 23  1  0  0  0  0
 13 12  1  0  0  0  0
 14 25  1  0  0  0  0
 14 13  1  0  0  0  0
 15  9  1  0  0  0  0
 16 10  1  0  0  0  0
 17 10  1  0  0  0  0
 21 12  1  0  0  0  0
 22 13  1  0  0  0  0
 24 14  1  0  0  0  0
 26  2  1  0  0  0  0
 27 26  1  0  0  0  0
 27 28  1  0  0  0  0
 28 29  1  0  0  0  0
 30 28  2  0  0  0  0
 31 30  1  0  0  0  0
 32 37  1  0  0  0  0
 32 31  2  0  0  0  0
 33 32  1  0  0  0  0
 34 35  1  0  0  0  0
 34 33  2  0  0  0  0
 35 36  2  0  0  0  0
 36 37  1  0  0  0  0
 37 27  2  0  0  0  0
M  END
>  <minimizedAffinity>
-5.71256971

$$$$

 OpenBabel03242514153D

 37 40  0  0  0  0  0  0  0  0999 V2000
   36.6900   28.1090   40.5110 C   0  0  0  0  0  0  0  0  0  0  0  0
   37.1500   28.8270   41.6000 C   0  0  0  0  0  0  0  0  0  0  0  0
   37.5970   28.0800   42.6890 C   0  0  0  0  0  0  0  0  0  0  0  0
   37.5520   26.6900   42.5890 N   0  0  0  0  0  0  0  0  0  0  0  0
   37.1040   26.0620   41.5110 C   0  0  0  0  0  0  0  0  0  0  0  0
   36.6730   26.7600   40.4780 N   0  0  0  0  0  0  0  0  0  0  0  0
   37.9990   28.3280   43.6610 H   0  0  0  0  0  0  0  0  0  0  0  0
   37.0750   24.9840   41.4410 H   0  0  0  0  0  0  0  0  0  0  0  0
   36.1470   28.9720   39.4520 C   0  0  0  0  0  0  0  0  0  0  0  0
   34.7010   28.8700   39.2550 C   0  0  0  0  0  0  0  0  0  0  0  0
   34.3110   28.3700   37.9650 C   0  0  0  0  0  0  0  0  0  0  0  0
   34.9400   29.1770   36.8040 C   0  0  0  0  0  0  0  0  0  0  0  0
   36.3500   29.5550   37.0310 C   0  0  0  0  0  0  0  0  0  0  0  0
   36.9420   28.8190   38.1890 C   0  0  0  0  0  0  0  0  0  0  0  0
   36.3220   30.0110   39.8420 H   0  0  0  0  0  0  0  0  0  0  0  0
   34.3060   28.1960   40.0600 H   0  0  0  0  0  0  0  0  0  0  0  0
   34.1660   29.8450   39.4860 H   0  0  0  0  0  0  0  0  0  0  0  0
   34.1410   27.3610   37.6800 H   0  0  0  0  0  0  0  0  0  0  0  0
   33.2040   28.7720   37.8520 H   0  0  0  0  0  0  0  0  0  0  0  0
   34.8710   28.5100   35.9040 H   0  0  0  0  0  0  0  0  0  0  0  0
   34.3350   30.0750   36.5500 H   0  0  0  0  0  0  0  0  0  0  0  0
   36.4160   30.6410   37.2470 H   0  0  0  0  0  0  0  0  0  0  0  0
   37.0200   29.3380   36.1490 H   0  0  0  0  0  0  0  0  0  0  0  0
   37.9290   29.3410   38.3960 H   0  0  0  0  0  0  0  0  0  0  0  0
   37.2160   27.8410   37.8470 H   0  0  0  0  0  0  0  0  0  0  0  0
   37.3070   30.0770   41.9500 O   0  0  0  0  0  0  0  0  0  0  0  0
   37.7010   31.1290   41.1570 C   0  0  0  0  0  0  0  0  0  0  0  0
   36.9630   31.9020   40.2470 C   0  0  0  0  0  0  0  0  0  0  0  0
   35.9490   31.5970   40.1830 H   0  0  0  0  0  0  0  0  0  0  0  0
   37.5770   32.9200   39.5560 C   0  0  0  0  0  3  0  0  0  0  0  0
   38.9100   33.2190   39.7210 C   0  0  0  0  0  3  0  0  0  0  0  0
   39.6490   32.4580   40.6220 C   0  0  0  0  0  0  0  0  0  0  0  0
   40.9690   32.8320   40.7180 C   0  0  0  0  0  3  0  0  0  0  0  0
   41.7710   32.1280   41.5890 C   0  0  0  0  0  3  0  0  0  0  0  0
   41.2330   31.0920   42.3200 C   0  0  0  0  0  3  0  0  0  0  0  0
   39.9030   30.7540   42.1900 C   0  0  0  0  0  3  0  0  0  0  0  0
   39.0570   31.4280   41.3310 C   0  0  0  0  0  0  0  0  0  0  0  0
  1  2  1  0  0  0  0
  2 26  1  0  0  0  0
  2  3  2  0  0  0  0
  3  7  1  0  0  0  0
  4  3  1  0  0  0  0
  5  4  2  0  0  0  0
  6  1  2  0  0  0  0
  6  5  1  0  0  0  0
  8  5  1  0  0  0  0
  9 15  1  0  0  0  0
  9  1  1  0  0  0  0
 10  9  1  0  0  0  0
 10 17  1  0  0  0  0
 10 16  1  0  0  0  0
 11 10  1  0  0  0  0
 12 13  1  0  0  0  0
 12 11  1  0  0  0  0
 13 22  1  0  0  0  0
 13 14  1  0  0  0  0
 14 24  1  0  0  0  0
 14  9  1  0  0  0  0
 18 11  1  0  0  0  0
 19 11  1  0  0  0  0
 20 12  1  0  0  0  0
 21 12  1  0  0  0  0
 23 13  1  0  0  0  0
 25 14  1  0  0  0  0
 27 37  1  0  0  0  0
 27 26  1  0  0  0  0
 28 27  2  0  0  0  0
 29 28  1  0  0  0  0
 30 31  2  0  0  0  0
 30 28  1  0  0  0  0
 31 32  1  0  0  0  0
 32 33  2  0  0  0  0
 32 37  1  0  0  0  0
 33 34  1  0  0  0  0
 34 35  2  0  0  0  0
 36 35  1  0  0  0  0
 37 36  2  0  0  0  0
M  END
>  <minimizedAffinity>
-5.69092751

$$$$

 OpenBabel03242514153D

 37 40  0  0  0  0  0  0  0  0999 V2000
   37.3700   30.2320   40.5860 C   0  0  0  0  0  0  0  0  0  0  0  0
   37.6690   29.2990   39.6100 C   0  0  0  0  0  0  0  0  0  0  0  0
   37.6330   29.7490   38.2900 C   0  0  0  0  0  0  0  0  0  0  0  0
   37.3100   31.0870   38.0670 N   0  0  0  0  0  0  0  0  0  0  0  0
   37.0390   31.9340   39.0500 C   0  0  0  0  0  0  0  0  0  0  0  0
   37.0640   31.5160   40.3010 N   0  0  0  0  0  0  0  0  0  0  0  0
   37.8040   29.2870   37.3300 H   0  0  0  0  0  0  0  0  0  0  0  0
   36.7920   32.9700   38.8680 H   0  0  0  0  0  0  0  0  0  0  0  0
   37.3340   29.6500   41.9350 C   0  0  0  0  0  0  0  0  0  0  0  0
   38.6360   29.5480   42.5960 C   0  0  0  0  0  0  0  0  0  0  0  0
   39.0560   28.2020   42.8750 C   0  0  0  0  0  0  0  0  0  0  0  0
   37.9970   27.4090   43.6800 C   0  0  0  0  0  0  0  0  0  0  0  0
   36.6070   27.6510   43.2440 C   0  0  0  0  0  0  0  0  0  0  0  0
   36.5520   28.3700   41.9360 C   0  0  0  0  0  0  0  0  0  0  0  0
   36.7560   30.4050   42.5330 H   0  0  0  0  0  0  0  0  0  0  0  0
   39.3850   30.0480   41.9270 H   0  0  0  0  0  0  0  0  0  0  0  0
   38.6940   30.1880   43.5310 H   0  0  0  0  0  0  0  0  0  0  0  0
   39.6280   27.5540   42.2580 H   0  0  0  0  0  0  0  0  0  0  0  0
   39.8390   28.3470   43.7500 H   0  0  0  0  0  0  0  0  0  0  0  0
   38.2540   26.3270   43.5270 H   0  0  0  0  0  0  0  0  0  0  0  0
   38.0960   27.5810   44.7740 H   0  0  0  0  0  0  0  0  0  0  0  0
   36.0820   28.2730   43.9980 H   0  0  0  0  0  0  0  0  0  0  0  0
   36.0090   26.7040   43.1040 H   0  0  0  0  0  0  0  0  0  0  0  0
   35.4690   28.6860   41.8180 H   0  0  0  0  0  0  0  0  0  0  0  0
   36.7130   27.6470   41.1610 H   0  0  0  0  0  0  0  0  0  0  0  0
   37.9980   28.0360   39.5360 O   0  0  0  0  0  0  0  0  0  0  0  0
   37.2050   26.9810   39.1480 C   0  0  0  0  0  0  0  0  0  0  0  0
   36.0870   26.9540   38.3010 C   0  0  0  0  0  0  0  0  0  0  0  0
   35.8410   27.9150   37.9220 H   0  0  0  0  0  0  0  0  0  0  0  0
   35.4420   25.7650   38.0530 C   0  0  0  0  0  3  0  0  0  0  0  0
   35.8550   24.5770   38.6110 C   0  0  0  0  0  3  0  0  0  0  0  0
   36.9640   24.5950   39.4520 C   0  0  0  0  0  0  0  0  0  0  0  0
   37.2990   23.3610   39.9600 C   0  0  0  0  0  3  0  0  0  0  0  0
   38.3870   23.2920   40.8030 C   0  0  0  0  0  3  0  0  0  0  0  0
   39.0880   24.4390   41.1030 C   0  0  0  0  0  3  0  0  0  0  0  0
   38.7130   25.6530   40.5690 C   0  0  0  0  0  3  0  0  0  0  0  0
   37.6320   25.7770   39.7190 C   0  0  0  0  0  0  0  0  0  0  0  0
  1  9  1  0  0  0  0
  2  1  2  0  0  0  0
  3  2  1  0  0  0  0
  4  3  2  0  0  0  0
  4  5  1  0  0  0  0
  5  6  2  0  0  0  0
  6  1  1  0  0  0  0
  7  3  1  0  0  0  0
  8  5  1  0  0  0  0
  9 14  1  0  0  0  0
  9 15  1  0  0  0  0
  9 10  1  0  0  0  0
 10 11  1  0  0  0  0
 10 17  1  0  0  0  0
 11 12  1  0  0  0  0
 11 19  1  0  0  0  0
 12 21  1  0  0  0  0
 13 12  1  0  0  0  0
 13 22  1  0  0  0  0
 14 13  1  0  0  0  0
 16 10  1  0  0  0  0
 18 11  1  0  0  0  0
 20 12  1  0  0  0  0
 23 13  1  0  0  0  0
 24 14  1  0  0  0  0
 25 14  1  0  0  0  0
 26  2  1  0  0  0  0
 27 26  1  0  0  0  0
 27 37  1  0  0  0  0
 28 27  2  0  0  0  0
 29 28  1  0  0  0  0
 30 28  1  0  0  0  0
 30 31  2  0  0  0  0
 31 32  1  0  0  0  0
 32 37  2  0  0  0  0
 32 33  1  0  0  0  0
 33 34  2  0  0  0  0
 34 35  1  0  0  0  0
 36 35  2  0  0  0  0
 37 36  1  0  0  0  0
M  END
>  <minimizedAffinity>
-5.67482758

$$$$
