
 OpenBabel03242517103D

 49 53  0  0  1  0  0  0  0  0999 V2000
   46.2920   33.3900   43.5370 C   0  0  2  0  0  0  0  0  0  0  0  0
   45.3690   34.2690   42.7690 C   0  0  2  0  0  0  0  0  0  0  0  0
   45.0750   35.5490   43.4600 C   0  0  0  0  0  0  0  0  0  0  0  0
   44.6160   35.4020   44.8850 C   0  0  0  0  0  0  0  0  0  0  0  0
   45.2620   34.2540   45.6220 C   0  0  0  0  0  0  0  0  0  0  0  0
   46.5530   33.8240   44.9540 C   0  0  0  0  0  0  0  0  0  0  0  0
   45.8340   32.3560   43.5900 H   0  0  0  0  0  0  0  0  0  0  0  0
   45.8520   34.5220   41.8040 H   0  0  0  0  0  0  0  0  0  0  0  0
   44.2740   36.0940   42.9220 H   0  0  0  0  0  0  0  0  0  0  0  0
   45.9890   36.1930   43.4540 H   0  0  0  0  0  0  0  0  0  0  0  0
   44.9180   36.3270   45.4370 H   0  0  0  0  0  0  0  0  0  0  0  0
   43.5020   35.3520   44.9430 H   0  0  0  0  0  0  0  0  0  0  0  0
   45.4740   34.5210   46.6680 H   0  0  0  0  0  0  0  0  0  0  0  0
   44.5930   33.3680   45.6130 H   0  0  0  0  0  0  0  0  0  0  0  0
   46.8960   32.9160   45.5090 H   0  0  0  0  0  0  0  0  0  0  0  0
   47.2600   34.6290   45.0970 H   0  0  0  0  0  0  0  0  0  0  0  0
   43.3570   34.0520   41.2580 C   0  0  1  0  0  0  0  0  0  0  0  0
   44.0930   33.5220   42.4450 C   0  0  1  0  0  0  0  0  0  0  0  0
   44.4200   32.1890   42.2150 O   0  0  0  0  0  0  0  0  0  0  0  0
   44.3450   31.9570   40.8450 C   0  0  0  0  0  0  0  0  0  0  0  0
   43.0960   32.7490   40.4800 C   0  0  2  0  0  0  0  0  0  0  0  0
   43.9770   34.7330   40.6770 H   0  0  0  0  0  0  0  0  0  0  0  0
   43.3920   33.5250   43.3070 H   0  0  0  0  0  0  0  0  0  0  0  0
   44.1240   30.8730   40.7220 H   0  0  0  0  0  0  0  0  0  0  0  0
   45.2260   32.2770   40.2820 H   0  0  0  0  0  0  0  0  0  0  0  0
   42.2160   32.2320   40.8640 H   0  0  0  0  0  0  0  0  0  0  0  0
   42.1320   34.6090   41.5770 O   0  0  0  0  0  0  0  0  0  0  0  0
   42.0900   34.9830   42.4950 H   0  0  0  0  0  0  0  0  0  0  0  0
   43.0230   33.0050   39.1360 O   0  0  0  0  0  0  0  0  0  0  0  0
   42.1880   33.9640   38.6140 C   0  0  0  0  0  0  0  0  0  0  0  0
   42.3660   35.2910   38.2920 C   0  0  0  0  0  0  0  0  0  0  0  0
   43.3620   35.6430   38.4920 H   0  0  0  0  0  0  0  0  0  0  0  0
   41.3680   36.0820   37.7690 C   0  0  0  0  0  0  0  0  0  0  0  0
   40.1250   35.5650   37.5410 C   0  0  0  0  0  0  0  0  0  0  0  0
   39.8980   34.2360   37.8480 C   0  0  0  0  0  0  0  0  0  0  0  0
   38.6190   33.8000   37.5870 C   0  0  0  0  0  0  0  0  0  0  0  0
   38.3110   32.4850   37.8660 C   0  0  0  0  0  0  0  0  0  0  0  0
   39.2700   31.6470   38.3920 C   0  0  0  0  0  0  0  0  0  0  0  0
   40.5350   32.1350   38.6340 C   0  0  0  0  0  0  0  0  0  0  0  0
   40.9130   33.4350   38.3800 C   0  0  0  0  0  0  0  0  0  0  0  0
   47.5900   33.2030   42.8600 C   0  0  0  0  0  0  0  0  0  0  0  0
   48.4490   34.3000   42.9230 C   0  0  0  0  0  0  0  0  0  0  0  0
   49.7160   34.2470   42.3230 C   0  0  0  0  0  0  0  0  0  0  0  0
   50.0250   33.0510   41.6840 N   0  0  0  0  0  0  0  0  0  0  0  0
   49.1590   32.0100   41.6450 C   0  0  0  0  0  0  0  0  0  0  0  0
   47.9410   32.0800   42.2320 N   0  0  0  0  0  0  0  0  0  0  0  0
   48.3460   35.2790   43.3660 H   0  0  0  0  0  0  0  0  0  0  0  0
   50.4620   35.0260   42.3070 H   0  0  0  0  0  0  0  0  0  0  0  0
   49.5000   31.1190   41.1190 H   0  0  0  0  0  0  0  0  0  0  0  0
  1  7  1  1  0  0  0
  1  6  1  0  0  0  0
  2  8  1  6  0  0  0
  2  3  1  0  0  0  0
  2  1  1  0  0  0  0
  3  4  1  0  0  0  0
  4 12  1  0  0  0  0
  4 11  1  0  0  0  0
  4  5  1  0  0  0  0
  5 13  1  0  0  0  0
  6 16  1  0  0  0  0
  6 15  1  0  0  0  0
  6  5  1  0  0  0  0
  9  3  1  0  0  0  0
 10  3  1  0  0  0  0
 14  5  1  0  0  0  0
 17 22  1  6  0  0  0
 17 27  1  0  0  0  0
 17 18  1  0  0  0  0
 18  2  1  0  0  0  0
 18 23  1  1  0  0  0
 19 18  1  0  0  0  0
 20 19  1  0  0  0  0
 21 20  1  0  0  0  0
 21 26  1  1  0  0  0
 21 17  1  0  0  0  0
 24 20  1  0  0  0  0
 25 20  1  0  0  0  0
 27 28  1  0  0  0  0
 29 21  1  0  0  0  0
 30 29  1  0  0  0  0
 31 32  1  0  0  0  0
 31 30  2  0  0  0  0
 33 31  1  0  0  0  0
 34 33  2  0  0  0  0
 34 35  1  0  0  0  0
 35 40  1  0  0  0  0
 36 35  2  0  0  0  0
 36 37  1  0  0  0  0
 37 38  2  0  0  0  0
 38 39  1  0  0  0  0
 40 30  1  0  0  0  0
 40 39  2  0  0  0  0
 41 42  1  0  0  0  0
 41  1  1  0  0  0  0
 42 47  1  0  0  0  0
 43 42  2  0  0  0  0
 44 43  1  0  0  0  0
 45 44  2  0  0  0  0
 45 46  1  0  0  0  0
 46 41  2  0  0  0  0
 48 43  1  0  0  0  0
 49 45  1  0  0  0  0
M  END
>  <minimizedAffinity>
-7.25445747

>  <minimizedRMSD>
1.24751031

$$$$
