
 OpenBabel03252504583D

 39 42  0  0  1  0  0  0  0  0999 V2000
   47.8810   34.0390   42.0100 N   0  0  0  0  0  0  0  0  0  0  0  0
   47.8420   35.1990   41.2020 C   0  0  0  0  0  0  0  0  0  0  0  0
   49.0900   35.8970   41.5820 C   0  0  0  0  0  0  0  0  0  0  0  0
   49.8340   35.0420   42.5920 C   0  0  0  0  0  0  0  0  0  0  0  0
   49.1900   33.6670   42.3630 C   0  0  2  0  0  0  0  0  0  0  0  0
   47.2440   35.6780   40.4720 H   0  0  0  0  0  0  0  0  0  0  0  0
   49.5130   36.8250   41.2500 H   0  0  0  0  0  0  0  0  0  0  0  0
   49.6670   35.3800   43.6120 H   0  0  0  0  0  0  0  0  0  0  0  0
   50.8860   34.9920   42.2600 H   0  0  0  0  0  0  0  0  0  0  0  0
   49.2390   33.0110   43.2270 H   0  0  0  0  0  0  0  0  0  0  0  0
   46.7090   33.4330   42.3880 C   0  0  0  0  0  0  0  0  0  0  0  0
   46.9430   32.3610   42.6170 H   0  0  0  0  0  0  0  0  0  0  0  0
   45.9480   33.3280   41.5820 H   0  0  0  0  0  0  0  0  0  0  0  0
   44.5920   35.6990   44.5590 C   0  0  0  0  0  0  0  0  0  0  0  0
   45.2460   35.2090   43.3930 C   0  0  0  0  0  0  0  0  0  0  0  0
   46.0190   34.0540   43.4990 C   0  0  0  0  0  0  0  0  0  0  0  0
   46.0950   33.4720   44.7150 N   0  0  0  0  0  0  0  0  0  0  0  0
   45.4560   33.9580   45.8360 C   0  0  0  0  0  0  0  0  0  0  0  0
   44.7130   35.0610   45.7530 N   0  0  0  0  0  0  0  0  0  0  0  0
   44.0000   36.5770   44.4950 H   0  0  0  0  0  0  0  0  0  0  0  0
   45.1610   35.6990   42.4460 H   0  0  0  0  0  0  0  0  0  0  0  0
   45.5800   33.4190   46.7720 H   0  0  0  0  0  0  0  0  0  0  0  0
   49.7830   33.1480   41.2020 O   0  0  0  0  0  0  0  0  0  0  0  0
   49.3680   30.7240   42.2160 O   0  0  0  0  0  0  0  0  0  0  0  0
   50.2600   31.5660   41.3290 P   0  0  2  0  0  0  0  0  0  0  0  0
   51.8130   31.5370   42.0160 O   0  0  0  0  0  0  0  0  0  0  0  0
   52.4420   31.8490   41.3030 H   0  0  0  0  0  0  0  0  0  0  0  0
   50.4270   30.8430   39.7850 O   0  0  0  0  0  0  0  0  0  0  0  0
   49.4140   30.2790   39.0620 C   0  0  0  0  0  0  0  0  0  0  0  0
   48.8090   29.0680   39.1860 C   0  0  0  0  0  0  0  0  0  0  0  0
   49.1990   28.4580   39.9890 H   0  0  0  0  0  0  0  0  0  0  0  0
   47.7870   28.6420   38.3680 C   0  0  0  0  0  3  0  0  0  0  0  0
   47.3220   29.4620   37.3520 C   0  0  0  0  0  3  0  0  0  0  0  0
   47.9240   30.7020   37.2070 C   0  0  0  0  0  0  0  0  0  0  0  0
   47.4120   31.4680   36.1750 C   0  0  0  0  0  3  0  0  0  0  0  0
   47.9450   32.7090   35.9570 C   0  0  0  0  0  3  0  0  0  0  0  0
   48.9550   33.1470   36.7550 C   0  0  0  0  0  3  0  0  0  0  0  0
   49.4700   32.3880   37.7850 C   0  0  0  0  0  3  0  0  0  0  0  0
   48.9550   31.1180   38.0420 C   0  0  0  0  0  0  0  0  0  0  0  0
  1  5  1  0  0  0  0
  1 11  1  0  0  0  0
  2  3  2  0  0  0  0
  2  1  1  0  0  0  0
  3  4  1  0  0  0  0
  4  8  1  0  0  0  0
  5  4  1  0  0  0  0
  5 10  1  1  0  0  0
  6  2  1  0  0  0  0
  7  3  1  0  0  0  0
  9  4  1  0  0  0  0
 11 12  1  0  0  0  0
 11 16  1  0  0  0  0
 13 11  1  0  0  0  0
 14 19  1  0  0  0  0
 15 16  1  0  0  0  0
 15 14  2  0  0  0  0
 16 17  2  0  0  0  0
 17 18  1  0  0  0  0
 18 22  1  0  0  0  0
 19 18  2  0  0  0  0
 20 14  1  0  0  0  0
 21 15  1  0  0  0  0
 23 25  1  0  0  0  0
 23  5  1  0  0  0  0
 25 26  1  0  0  0  0
 25 24  2  1  0  0  0
 27 26  1  0  0  0  0
 28 25  1  0  0  0  0
 29 30  1  0  0  0  0
 29 28  1  0  0  0  0
 30 31  1  0  0  0  0
 32 30  2  0  0  0  0
 33 32  1  0  0  0  0
 34 33  2  0  0  0  0
 34 39  1  0  0  0  0
 35 34  1  0  0  0  0
 36 35  2  0  0  0  0
 36 37  1  0  0  0  0
 37 38  2  0  0  0  0
 38 39  1  0  0  0  0
 39 29  2  0  0  0  0
M  END
>  <minimizedAffinity>
-5.15264988

>  <minimizedRMSD>
1.9593308

$$$$
