
     RDKit          3D

 40 44  0  0  0  0  0  0  0  0999 V2000
   47.6982   33.4845   40.1343 C   0  0  0  0  0  0  0  0  0  0  0  0
   49.0378   33.2187   40.3789 C   0  0  0  0  0  0  0  0  0  0  0  0
   49.5155   33.3052   41.7195 C   0  0  0  0  0  0  0  0  0  0  0  0
   48.5964   33.6487   42.6661 N   0  0  0  0  0  0  0  0  0  0  0  0
   47.3002   33.8984   42.3777 C   0  0  0  0  0  0  0  0  0  0  0  0
   46.8533   33.8170   41.1201 N   0  0  0  0  0  0  0  0  0  0  0  0
   46.4136   34.2531   43.4519 N   0  0  0  0  0  0  0  0  0  0  0  0
   45.5086   35.2406   43.4454 C   0  0  0  0  0  0  0  0  0  0  0  0
   44.8753   35.2461   44.6495 N   0  0  0  0  0  0  0  0  0  0  0  0
   45.4076   34.2595   45.3686 C   0  0  0  0  0  0  0  0  0  0  0  0
   45.1959   33.7737   46.6311 C   0  0  0  0  0  0  0  0  0  0  0  0
   45.8811   32.7430   47.1350 N   0  0  0  0  0  0  0  0  0  0  0  0
   46.8323   32.1100   46.4278 C   0  0  0  0  0  0  0  0  0  0  0  0
   47.0449   32.5836   45.1853 N   0  0  0  0  0  0  0  0  0  0  0  0
   46.3847   33.6132   44.6354 C   0  0  0  0  0  0  0  0  0  0  0  0
   44.2252   34.3398   47.4935 N   0  0  0  0  0  0  0  0  0  0  0  0
   47.2232   33.3410   38.4039 S   0  0  0  0  0  0  0  0  0  0  0  0
   49.7421   32.9499   39.6150 H   0  0  0  0  0  0  0  0  0  0  0  0
   50.5415   33.1110   41.9716 H   0  0  0  0  0  0  0  0  0  0  0  0
   45.3402   35.9013   42.6032 H   0  0  0  0  0  0  0  0  0  0  0  0
   47.3861   31.2792   46.8313 H   0  0  0  0  0  0  0  0  0  0  0  0
   44.2605   34.2693   48.5342 H   0  0  0  0  0  0  0  0  0  0  0  0
   43.4103   34.8690   47.0609 H   0  0  0  0  0  0  0  0  0  0  0  0
   45.4819   33.7020   38.1928 C   0  0  0  0  0  0  0  0  0  0  0  0
   44.8441   33.0503   37.1481 C   0  0  0  0  0  0  0  0  0  0  0  0
   45.3632   32.3651   36.4983 H   0  0  0  0  0  0  0  0  0  0  0  0
   43.4829   33.2869   36.9268 C   0  0  0  0  0  0  0  0  0  0  0  0
   42.8795   34.1630   37.7802 C   0  0  0  0  0  0  0  0  0  0  0  0
   43.4603   34.8412   38.8361 C   0  0  0  0  0  0  0  0  0  0  0  0
   42.7471   35.7088   39.6376 C   0  0  0  0  0  0  0  0  0  0  0  0
   43.4718   36.3114   40.6546 C   0  0  0  0  0  0  0  0  0  0  0  0
   44.8156   36.0884   40.8862 C   0  0  0  0  0  0  0  0  0  0  0  0
   45.5016   35.2157   40.0679 C   0  0  0  0  0  0  0  0  0  0  0  0
   44.8169   34.5863   39.0331 C   0  0  0  0  0  0  0  0  0  0  0  0
   42.9113   32.8169   36.1312 H   0  0  0  0  0  0  0  0  0  0  0  0
   41.8224   34.3700   37.6369 H   0  0  0  0  0  0  0  0  0  0  0  0
   41.7051   35.8861   39.4635 H   0  0  0  0  0  0  0  0  0  0  0  0
   42.9095   37.0050   41.2984 H   0  0  0  0  0  0  0  0  0  0  0  0
   45.3262   36.5951   41.7039 H   0  0  0  0  0  0  0  0  0  0  0  0
   46.5509   34.9957   40.1922 H   0  0  0  0  0  0  0  0  0  0  0  0
  1  2  2  0
  1  6  1  0
  2  3  1  0
  3  4  2  0
  5  4  1  0
  5  7  1  0
  6  5  2  0
  7 15  1  0
  8  7  1  0
  8  9  2  0
  9 10  1  0
 10 11  2  0
 11 12  1  0
 11 16  1  0
 13 12  2  0
 14 13  1  0
 15 14  2  0
 15 10  1  0
 17  1  1  0
  2 18  1  0
  3 19  1  0
  8 20  1  0
 13 21  1  0
 16 22  1  0
 16 23  1  0
 24 25  2  0
 25 26  1  0
 25 27  1  0
 27 28  2  0
 28 29  1  0
 29 30  2  0
 30 31  1  0
 31 32  2  0
 32 33  1  0
 33 34  2  0
 34 24  1  0
 34 29  1  0
 27 35  1  0
 28 36  1  0
 30 37  1  0
 31 38  1  0
 32 39  1  0
 33 40  1  0
 17 24  1  0
M  ISO  5  18  14  19  14  20  14  21  14  26  15
M  END
>  <DihAtoms>  (1) 
0,16,23,24

>  <DihDeg>  (1) 
-90.00348252671023

$$$$
