
 OpenBabel03242521573D

 50 55  0  0  0  0  0  0  0  0999 V2000
   36.6450   26.9900   39.9220 C   0  0  0  0  0  0  0  0  0  0  0  0
   36.6720   25.5990   39.8890 C   0  0  0  0  0  0  0  0  0  0  0  0
   36.9420   24.8140   41.0160 C   0  0  0  0  0  0  0  0  0  0  0  0
   37.1970   25.4000   42.2240 C   0  0  0  0  0  0  0  0  0  0  0  0
   37.1840   26.8050   42.2850 C   0  0  0  0  0  0  0  0  0  0  0  0
   37.5000   27.3530   43.4900 C   0  0  0  0  0  0  0  0  0  0  0  0
   37.5730   28.7470   43.5630 C   0  0  0  0  0  0  0  0  0  0  0  0
   37.3220   29.5140   42.3700 C   0  0  0  0  0  0  0  0  0  0  0  0
   37.0160   28.8100   41.2290 C   0  0  0  0  0  0  0  0  0  0  0  0
   36.9110   27.4940   41.1020 C   0  0  0  0  0  0  0  0  0  0  0  0
   36.4680   25.1110   38.9200 H   0  0  0  0  0  0  0  0  0  0  0  0
   36.9410   23.7480   40.8890 H   0  0  0  0  0  0  0  0  0  0  0  0
   37.4030   24.7990   43.1060 H   0  0  0  0  0  0  0  0  0  0  0  0
   37.6860   26.7280   44.3520 H   0  0  0  0  0  0  0  0  0  0  0  0
   37.8220   29.1070   44.5460 H   0  0  0  0  0  0  0  0  0  0  0  0
   37.4470   30.5260   42.7220 H   0  0  0  0  0  0  0  0  0  0  0  0
   38.6730   29.9620   40.0560 C   0  0  0  0  0  0  0  0  0  0  0  0
   37.2610   29.9560   40.3780 C   0  0  0  0  0  0  0  0  0  0  0  0
   36.6680   31.0590   39.9240 C   0  0  0  0  0  0  0  0  0  0  0  0
   37.2850   32.0890   39.2420 C   0  0  0  0  0  0  0  0  0  0  0  0
   38.6340   32.0640   38.9550 C   0  0  0  0  0  0  0  0  0  0  0  0
   39.3450   30.9660   39.3770 C   0  0  0  0  0  0  0  0  0  0  0  0
   35.6220   30.9720   40.2020 H   0  0  0  0  0  0  0  0  0  0  0  0
   36.5200   32.8480   39.0100 H   0  0  0  0  0  0  0  0  0  0  0  0
   38.8060   32.9770   38.4350 H   0  0  0  0  0  0  0  0  0  0  0  0
   39.6100   28.9460   40.3760 O   0  0  0  0  0  0  0  0  0  0  0  0
   39.7680   28.1810   39.7230 H   0  0  0  0  0  0  0  0  0  0  0  0
   40.6570   31.0160   39.0700 O   0  0  0  0  0  0  0  0  0  0  0  0
   41.5410   30.9190   38.1460 C   0  0  0  0  0  0  0  0  0  0  0  0
   41.7650   30.0900   37.0770 C   0  0  0  0  0  0  0  0  0  0  0  0
   41.0840   29.3020   36.8950 H   0  0  0  0  0  0  0  0  0  0  0  0
   42.7890   30.1190   36.1540 C   0  0  0  0  0  3  0  0  0  0  0  0
   43.6800   31.1430   36.3850 C   0  0  0  0  0  3  0  0  0  0  0  0
   43.5960   32.0520   37.4060 C   0  0  0  0  0  0  0  0  0  0  0  0
   44.5820   33.0060   37.4750 C   0  0  0  0  0  3  0  0  0  0  0  0
   44.5060   33.9250   38.4980 C   0  0  0  0  0  3  0  0  0  0  0  0
   43.4890   33.8740   39.3940 C   0  0  0  0  0  3  0  0  0  0  0  0
   42.5450   32.8990   39.2610 C   0  0  0  0  0  3  0  0  0  0  0  0
   42.5140   31.9220   38.2780 C   0  0  0  0  0  0  0  0  0  0  0  0
   34.7160   29.0470   37.4770 C   0  0  0  0  0  0  0  0  0  0  0  0
   35.7000   29.2230   36.4790 C   0  0  0  0  0  0  0  0  0  0  0  0
   36.9180   28.6110   36.7050 C   0  0  0  0  0  0  0  0  0  0  0  0
   37.0080   27.9330   37.8460 N   0  0  0  0  0  0  0  0  0  0  0  0
   36.1070   27.7490   38.8040 C   0  0  0  0  0  0  0  0  0  0  0  0
   34.9650   28.3270   38.5750 N   0  0  0  0  0  0  0  0  0  0  0  0
   33.7760   29.5310   37.2790 H   0  0  0  0  0  0  0  0  0  0  0  0
   35.5190   29.7950   35.5960 H   0  0  0  0  0  0  0  0  0  0  0  0
   37.9650   28.6490   35.7570 N   0  0  0  0  0  0  0  0  0  0  0  0
   38.6820   27.9170   35.6850 H   0  0  0  0  0  0  0  0  0  0  0  0
   38.0790   29.4260   35.0670 H   0  0  0  0  0  0  0  0  0  0  0  0
  1 10  1  0  0  0  0
  2  1  2  0  0  0  0
  2  3  1  0  0  0  0
  3  4  2  0  0  0  0
  4  5  1  0  0  0  0
  4 13  1  0  0  0  0
  5  6  1  0  0  0  0
  6  7  2  0  0  0  0
  6 14  1  0  0  0  0
  7 15  1  0  0  0  0
  8 16  1  0  0  0  0
  8  7  1  0  0  0  0
  9  8  2  0  0  0  0
 10  9  1  0  0  0  0
 10  5  2  0  0  0  0
 11  2  1  0  0  0  0
 12  3  1  0  0  0  0
 17 26  1  0  0  0  0
 17 18  1  0  0  0  0
 18  9  1  0  0  0  0
 19 23  1  0  0  0  0
 19 18  2  0  0  0  0
 20 19  1  0  0  0  0
 21 20  2  0  0  0  0
 21 22  1  0  0  0  0
 22 17  2  0  0  0  0
 24 20  1  0  0  0  0
 25 21  1  0  0  0  0
 27 26  1  0  0  0  0
 28 22  1  0  0  0  0
 29 39  1  0  0  0  0
 29 28  1  0  0  0  0
 30 29  2  0  0  0  0
 31 30  1  0  0  0  0
 32 33  2  0  0  0  0
 32 30  1  0  0  0  0
 33 34  1  0  0  0  0
 34 35  2  0  0  0  0
 34 39  1  0  0  0  0
 35 36  1  0  0  0  0
 36 37  2  0  0  0  0
 38 37  1  0  0  0  0
 39 38  2  0  0  0  0
 40 45  1  0  0  0  0
 41 42  1  0  0  0  0
 41 40  2  0  0  0  0
 42 43  2  0  0  0  0
 43 44  1  0  0  0  0
 44  1  1  0  0  0  0
 45 44  2  0  0  0  0
 46 40  1  0  0  0  0
 47 41  1  0  0  0  0
 48 42  1  0  0  0  0
 49 48  1  0  0  0  0
 50 48  1  0  0  0  0
M  END
>  <minimizedAffinity>
-8.02438545

$$$$

 OpenBabel03242521573D

 50 55  0  0  0  0  0  0  0  0999 V2000
   36.5790   26.9470   39.7530 C   0  0  0  0  0  0  0  0  0  0  0  0
   36.5910   25.5550   39.7490 C   0  0  0  0  0  0  0  0  0  0  0  0
   36.8650   24.7910   40.8900 C   0  0  0  0  0  0  0  0  0  0  0  0
   37.1370   25.3990   42.0820 C   0  0  0  0  0  0  0  0  0  0  0  0
   37.1390   26.8050   42.1140 C   0  0  0  0  0  0  0  0  0  0  0  0
   37.4720   27.3740   43.3040 C   0  0  0  0  0  0  0  0  0  0  0  0
   37.5600   28.7690   43.3480 C   0  0  0  0  0  0  0  0  0  0  0  0
   37.3060   29.5140   42.1420 C   0  0  0  0  0  0  0  0  0  0  0  0
   36.9810   28.7890   41.0180 C   0  0  0  0  0  0  0  0  0  0  0  0
   36.8610   27.4720   40.9190 C   0  0  0  0  0  0  0  0  0  0  0  0
   36.3730   25.0490   38.7920 H   0  0  0  0  0  0  0  0  0  0  0  0
   36.8510   23.7220   40.7850 H   0  0  0  0  0  0  0  0  0  0  0  0
   37.3450   24.8140   42.9750 H   0  0  0  0  0  0  0  0  0  0  0  0
   37.6600   26.7660   44.1780 H   0  0  0  0  0  0  0  0  0  0  0  0
   37.8220   29.1460   44.3200 H   0  0  0  0  0  0  0  0  0  0  0  0
   37.4450   30.5310   42.4710 H   0  0  0  0  0  0  0  0  0  0  0  0
   38.6300   29.8750   39.7730 C   0  0  0  0  0  0  0  0  0  0  0  0
   37.2300   29.9150   40.1410 C   0  0  0  0  0  0  0  0  0  0  0  0
   36.6530   31.0280   39.6900 C   0  0  0  0  0  0  0  0  0  0  0  0
   37.2760   32.0290   38.9710 C   0  0  0  0  0  0  0  0  0  0  0  0
   38.6130   31.9610   38.6400 C   0  0  0  0  0  0  0  0  0  0  0  0
   39.3070   30.8490   39.0560 C   0  0  0  0  0  0  0  0  0  0  0  0
   35.6160   30.9750   40.0040 H   0  0  0  0  0  0  0  0  0  0  0  0
   36.5260   32.8060   38.7520 H   0  0  0  0  0  0  0  0  0  0  0  0
   38.7940   32.8610   38.0990 H   0  0  0  0  0  0  0  0  0  0  0  0
   39.5480   28.8380   40.0770 O   0  0  0  0  0  0  0  0  0  0  0  0
   39.6620   28.0580   39.4320 H   0  0  0  0  0  0  0  0  0  0  0  0
   40.6080   30.8570   38.7040 O   0  0  0  0  0  0  0  0  0  0  0  0
   41.6840   31.5480   38.6080 C   0  0  0  0  0  0  0  0  0  0  0  0
   42.2330   32.6170   39.2690 C   0  0  0  0  0  0  0  0  0  0  0  0
   41.6990   33.0420   40.0770 H   0  0  0  0  0  0  0  0  0  0  0  0
   43.4290   33.2610   39.0370 C   0  0  0  0  0  3  0  0  0  0  0  0
   44.1300   32.7130   37.9860 C   0  0  0  0  0  3  0  0  0  0  0  0
   43.7200   31.6480   37.2290 C   0  0  0  0  0  0  0  0  0  0  0  0
   44.5570   31.2400   36.2190 C   0  0  0  0  0  3  0  0  0  0  0  0
   44.1530   30.1700   35.4520 C   0  0  0  0  0  3  0  0  0  0  0  0
   42.9690   29.5540   35.7000 C   0  0  0  0  0  3  0  0  0  0  0  0
   42.1920   30.0140   36.7210 C   0  0  0  0  0  3  0  0  0  0  0  0
   42.4890   31.0780   37.5590 C   0  0  0  0  0  0  0  0  0  0  0  0
   34.6600   28.9950   37.2930 C   0  0  0  0  0  0  0  0  0  0  0  0
   35.6210   29.0960   36.2610 C   0  0  0  0  0  0  0  0  0  0  0  0
   36.8190   28.4430   36.4740 C   0  0  0  0  0  0  0  0  0  0  0  0
   36.9160   27.8010   37.6350 N   0  0  0  0  0  0  0  0  0  0  0  0
   36.0390   27.6880   38.6250 C   0  0  0  0  0  0  0  0  0  0  0  0
   34.9140   28.3040   38.4080 N   0  0  0  0  0  0  0  0  0  0  0  0
   33.7350   29.5100   37.1040 H   0  0  0  0  0  0  0  0  0  0  0  0
   35.4360   29.6440   35.3640 H   0  0  0  0  0  0  0  0  0  0  0  0
   37.8380   28.4050   35.4950 N   0  0  0  0  0  0  0  0  0  0  0  0
   38.5230   27.6420   35.4290 H   0  0  0  0  0  0  0  0  0  0  0  0
   37.9610   29.1530   34.7750 H   0  0  0  0  0  0  0  0  0  0  0  0
  1 10  1  0  0  0  0
  2  1  2  0  0  0  0
  2  3  1  0  0  0  0
  3  4  2  0  0  0  0
  4  5  1  0  0  0  0
  4 13  1  0  0  0  0
  5  6  1  0  0  0  0
  6  7  2  0  0  0  0
  6 14  1  0  0  0  0
  7 15  1  0  0  0  0
  8 16  1  0  0  0  0
  8  7  1  0  0  0  0
  9  8  2  0  0  0  0
 10  9  1  0  0  0  0
 10  5  2  0  0  0  0
 11  2  1  0  0  0  0
 12  3  1  0  0  0  0
 17 26  1  0  0  0  0
 17 18  1  0  0  0  0
 18  9  1  0  0  0  0
 19 23  1  0  0  0  0
 19 18  2  0  0  0  0
 20 19  1  0  0  0  0
 21 20  2  0  0  0  0
 21 22  1  0  0  0  0
 22 17  2  0  0  0  0
 24 20  1  0  0  0  0
 25 21  1  0  0  0  0
 27 26  1  0  0  0  0
 28 22  1  0  0  0  0
 29 28  1  0  0  0  0
 29 30  1  0  0  0  0
 30 31  1  0  0  0  0
 32 30  2  0  0  0  0
 33 32  1  0  0  0  0
 34 39  1  0  0  0  0
 34 33  2  0  0  0  0
 35 34  1  0  0  0  0
 36 37  1  0  0  0  0
 36 35  2  0  0  0  0
 37 38  2  0  0  0  0
 38 39  1  0  0  0  0
 39 29  2  0  0  0  0
 40 45  1  0  0  0  0
 41 42  1  0  0  0  0
 41 40  2  0  0  0  0
 42 43  2  0  0  0  0
 43 44  1  0  0  0  0
 44  1  1  0  0  0  0
 45 44  2  0  0  0  0
 46 40  1  0  0  0  0
 47 41  1  0  0  0  0
 48 42  1  0  0  0  0
 49 48  1  0  0  0  0
 50 48  1  0  0  0  0
M  END
>  <minimizedAffinity>
-8.01933384

$$$$

 OpenBabel03242521573D

 50 55  0  0  0  0  0  0  0  0999 V2000
   37.7850   31.7600   40.4830 C   0  0  0  0  0  0  0  0  0  0  0  0
   37.5950   33.0620   40.0290 C   0  0  0  0  0  0  0  0  0  0  0  0
   38.6020   34.0340   40.0530 C   0  0  0  0  0  0  0  0  0  0  0  0
   39.8440   33.7330   40.5370 C   0  0  0  0  0  0  0  0  0  0  0  0
   40.0630   32.4260   41.0100 C   0  0  0  0  0  0  0  0  0  0  0  0
   41.2930   32.1820   41.5370 C   0  0  0  0  0  0  0  0  0  0  0  0
   41.5170   30.9160   42.0870 C   0  0  0  0  0  0  0  0  0  0  0  0
   40.4410   29.9590   42.0730 C   0  0  0  0  0  0  0  0  0  0  0  0
   39.2550   30.3610   41.5030 C   0  0  0  0  0  0  0  0  0  0  0  0
   38.9900   31.5350   40.9470 C   0  0  0  0  0  0  0  0  0  0  0  0
   36.5960   33.3190   39.6350 H   0  0  0  0  0  0  0  0  0  0  0  0
   38.3560   35.0110   39.6810 H   0  0  0  0  0  0  0  0  0  0  0  0
   40.6340   34.4800   40.5540 H   0  0  0  0  0  0  0  0  0  0  0  0
   42.0630   32.9410   41.5270 H   0  0  0  0  0  0  0  0  0  0  0  0
   42.5110   30.7950   42.4790 H   0  0  0  0  0  0  0  0  0  0  0  0
   40.8930   29.1040   42.5510 H   0  0  0  0  0  0  0  0  0  0  0  0
   38.5040   28.1830   41.1300 C   0  0  0  0  0  0  0  0  0  0  0  0
   38.5220   29.2620   42.0960 C   0  0  0  0  0  0  0  0  0  0  0  0
   37.7550   28.9710   43.1450 C   0  0  0  0  0  0  0  0  0  0  0  0
   37.0240   27.8110   43.3170 C   0  0  0  0  0  0  0  0  0  0  0  0
   37.0260   26.8050   42.3750 C   0  0  0  0  0  0  0  0  0  0  0  0
   37.7900   27.0010   41.2490 C   0  0  0  0  0  0  0  0  0  0  0  0
   37.8280   29.8220   43.8140 H   0  0  0  0  0  0  0  0  0  0  0  0
   36.4990   27.8820   44.2850 H   0  0  0  0  0  0  0  0  0  0  0  0
   36.3820   26.0630   42.7860 H   0  0  0  0  0  0  0  0  0  0  0  0
   39.2100   28.1460   39.9000 O   0  0  0  0  0  0  0  0  0  0  0  0
   40.1520   27.7590   39.8700 H   0  0  0  0  0  0  0  0  0  0  0  0
   37.7350   25.9800   40.3700 O   0  0  0  0  0  0  0  0  0  0  0  0
   37.6510   24.7100   40.2140 C   0  0  0  0  0  0  0  0  0  0  0  0
   38.2710   23.6060   40.7420 C   0  0  0  0  0  0  0  0  0  0  0  0
   39.0220   23.7480   41.4720 H   0  0  0  0  0  0  0  0  0  0  0  0
   38.0610   22.2740   40.4610 C   0  0  0  0  0  3  0  0  0  0  0  0
   37.0820   22.0810   39.5100 C   0  0  0  0  0  3  0  0  0  0  0  0
   36.3740   23.0760   38.8900 C   0  0  0  0  0  0  0  0  0  0  0  0
   35.4340   22.6880   37.9650 C   0  0  0  0  0  3  0  0  0  0  0  0
   34.7160   23.6800   37.3360 C   0  0  0  0  0  3  0  0  0  0  0  0
   34.9420   24.9860   37.6310 C   0  0  0  0  0  3  0  0  0  0  0  0
   35.8910   25.2930   38.5600 C   0  0  0  0  0  3  0  0  0  0  0  0
   36.6750   24.3870   39.2580 C   0  0  0  0  0  0  0  0  0  0  0  0
   34.9570   29.3290   40.3380 C   0  0  0  0  0  0  0  0  0  0  0  0
   35.1770   28.7780   39.0560 C   0  0  0  0  0  0  0  0  0  0  0  0
   36.2740   29.2550   38.3640 C   0  0  0  0  0  0  0  0  0  0  0  0
   36.9850   30.1820   39.0000 N   0  0  0  0  0  0  0  0  0  0  0  0
   36.8060   30.7230   40.2000 C   0  0  0  0  0  0  0  0  0  0  0  0
   35.7730   30.2610   40.8400 N   0  0  0  0  0  0  0  0  0  0  0  0
   34.0980   28.9420   40.8580 H   0  0  0  0  0  0  0  0  0  0  0  0
   34.5360   28.0340   38.6390 H   0  0  0  0  0  0  0  0  0  0  0  0
   36.6480   28.7400   37.1020 N   0  0  0  0  0  0  0  0  0  0  0  0
   37.6160   28.7510   36.7580 H   0  0  0  0  0  0  0  0  0  0  0  0
   35.9630   28.3150   36.4370 H   0  0  0  0  0  0  0  0  0  0  0  0
  1 10  1  0  0  0  0
  2  3  1  0  0  0  0
  2  1  2  0  0  0  0
  3  4  2  0  0  0  0
  4 13  1  0  0  0  0
  4  5  1  0  0  0  0
  5  6  1  0  0  0  0
  6  7  2  0  0  0  0
  7 15  1  0  0  0  0
  8  7  1  0  0  0  0
  8 16  1  0  0  0  0
  9  8  2  0  0  0  0
  9 18  1  0  0  0  0
 10  5  2  0  0  0  0
 10  9  1  0  0  0  0
 11  2  1  0  0  0  0
 12  3  1  0  0  0  0
 14  6  1  0  0  0  0
 17 22  2  0  0  0  0
 17 18  1  0  0  0  0
 18 19  2  0  0  0  0
 19 20  1  0  0  0  0
 19 23  1  0  0  0  0
 20 24  1  0  0  0  0
 21 25  1  0  0  0  0
 21 20  2  0  0  0  0
 22 21  1  0  0  0  0
 26 17  1  0  0  0  0
 27 26  1  0  0  0  0
 28 22  1  0  0  0  0
 29 28  1  0  0  0  0
 29 30  1  0  0  0  0
 30 31  1  0  0  0  0
 32 30  2  0  0  0  0
 33 32  1  0  0  0  0
 34 39  1  0  0  0  0
 34 33  2  0  0  0  0
 35 34  1  0  0  0  0
 36 37  1  0  0  0  0
 36 35  2  0  0  0  0
 37 38  2  0  0  0  0
 38 39  1  0  0  0  0
 39 29  2  0  0  0  0
 40 45  1  0  0  0  0
 40 46  1  0  0  0  0
 41 40  2  0  0  0  0
 42 43  2  0  0  0  0
 42 41  1  0  0  0  0
 43 44  1  0  0  0  0
 44  1  1  0  0  0  0
 44 45  2  0  0  0  0
 47 41  1  0  0  0  0
 48 42  1  0  0  0  0
 49 48  1  0  0  0  0
 50 48  1  0  0  0  0
M  END
>  <minimizedAffinity>
-7.60320902

$$$$

 OpenBabel03242521573D

 50 55  0  0  0  0  0  0  0  0999 V2000
   40.2690   31.1540   38.1170 C   0  0  0  0  0  0  0  0  0  0  0  0
   41.3040   31.5110   37.2580 C   0  0  0  0  0  0  0  0  0  0  0  0
   41.9370   32.7590   37.3030 C   0  0  0  0  0  0  0  0  0  0  0  0
   41.5530   33.6980   38.2180 C   0  0  0  0  0  0  0  0  0  0  0  0
   40.5030   33.3670   39.0940 C   0  0  0  0  0  0  0  0  0  0  0  0
   40.1090   34.3480   39.9500 C   0  0  0  0  0  0  0  0  0  0  0  0
   39.0160   34.0780   40.7790 C   0  0  0  0  0  0  0  0  0  0  0  0
   38.3730   32.7940   40.6740 C   0  0  0  0  0  0  0  0  0  0  0  0
   38.8910   31.9090   39.7570 C   0  0  0  0  0  0  0  0  0  0  0  0
   39.9340   32.0990   38.9600 C   0  0  0  0  0  0  0  0  0  0  0  0
   41.6260   30.7620   36.5130 H   0  0  0  0  0  0  0  0  0  0  0  0
   42.7260   32.9400   36.5970 H   0  0  0  0  0  0  0  0  0  0  0  0
   42.0420   34.6680   38.2650 H   0  0  0  0  0  0  0  0  0  0  0  0
   40.6250   35.2980   39.9820 H   0  0  0  0  0  0  0  0  0  0  0  0
   38.7670   34.8960   41.4310 H   0  0  0  0  0  0  0  0  0  0  0  0
   37.5890   32.8730   41.4110 H   0  0  0  0  0  0  0  0  0  0  0  0
   37.9510   30.0430   40.7960 C   0  0  0  0  0  0  0  0  0  0  0  0
   37.7120   31.0690   39.8030 C   0  0  0  0  0  0  0  0  0  0  0  0
   36.5720   30.8420   39.1530 C   0  0  0  0  0  0  0  0  0  0  0  0
   35.7150   29.7810   39.3670 C   0  0  0  0  0  0  0  0  0  0  0  0
   35.9750   28.8180   40.3200 C   0  0  0  0  0  0  0  0  0  0  0  0
   37.1290   28.9570   41.0540 C   0  0  0  0  0  0  0  0  0  0  0  0
   36.4700   31.6520   38.4370 H   0  0  0  0  0  0  0  0  0  0  0  0
   34.8680   29.8830   38.6680 H   0  0  0  0  0  0  0  0  0  0  0  0
   35.1490   28.1490   40.2450 H   0  0  0  0  0  0  0  0  0  0  0  0
   39.0610   29.9700   41.6770 O   0  0  0  0  0  0  0  0  0  0  0  0
   39.0150   30.4230   42.5870 H   0  0  0  0  0  0  0  0  0  0  0  0
   37.3200   27.9750   41.9580 O   0  0  0  0  0  0  0  0  0  0  0  0
   38.1150   27.0710   42.3980 C   0  0  0  0  0  0  0  0  0  0  0  0
   39.1370   27.0130   43.3110 C   0  0  0  0  0  0  0  0  0  0  0  0
   39.4040   27.8950   43.8280 H   0  0  0  0  0  0  0  0  0  0  0  0
   39.9130   25.9350   43.6800 C   0  0  0  0  0  3  0  0  0  0  0  0
   39.5700   24.7820   43.0090 C   0  0  0  0  0  3  0  0  0  0  0  0
   38.5760   24.6760   42.0720 C   0  0  0  0  0  0  0  0  0  0  0  0
   38.3790   23.4380   41.5090 C   0  0  0  0  0  3  0  0  0  0  0  0
   37.3830   23.3200   40.5660 C   0  0  0  0  0  3  0  0  0  0  0  0
   36.6340   24.3980   40.2200 C   0  0  0  0  0  3  0  0  0  0  0  0
   36.8860   25.5940   40.8220 C   0  0  0  0  0  3  0  0  0  0  0  0
   37.8580   25.8360   41.7810 C   0  0  0  0  0  0  0  0  0  0  0  0
   38.7310   27.7680   37.7960 C   0  0  0  0  0  0  0  0  0  0  0  0
   39.5190   27.0550   38.7280 C   0  0  0  0  0  0  0  0  0  0  0  0
   40.4810   27.7840   39.4000 C   0  0  0  0  0  0  0  0  0  0  0  0
   40.5430   29.0730   39.0780 N   0  0  0  0  0  0  0  0  0  0  0  0
   39.8230   29.7730   38.2090 C   0  0  0  0  0  0  0  0  0  0  0  0
   38.9190   29.0750   37.5870 N   0  0  0  0  0  0  0  0  0  0  0  0
   37.9890   27.1810   37.2850 H   0  0  0  0  0  0  0  0  0  0  0  0
   39.3840   26.0120   38.9070 H   0  0  0  0  0  0  0  0  0  0  0  0
   41.2900   27.2110   40.4080 N   0  0  0  0  0  0  0  0  0  0  0  0
   41.6940   27.7550   41.1790 H   0  0  0  0  0  0  0  0  0  0  0  0
   41.5300   26.1930   40.4320 H   0  0  0  0  0  0  0  0  0  0  0  0
  1 44  1  0  0  0  0
  1 10  1  0  0  0  0
  2  3  1  0  0  0  0
  2  1  2  0  0  0  0
  3  4  2  0  0  0  0
  4 13  1  0  0  0  0
  4  5  1  0  0  0  0
  5  6  1  0  0  0  0
  6 14  1  0  0  0  0
  6  7  2  0  0  0  0
  7 15  1  0  0  0  0
  8  7  1  0  0  0  0
  8 16  1  0  0  0  0
  9 18  1  0  0  0  0
  9  8  2  0  0  0  0
 10  5  2  0  0  0  0
 10  9  1  0  0  0  0
 11  2  1  0  0  0  0
 12  3  1  0  0  0  0
 17 22  1  0  0  0  0
 17 26  1  0  0  0  0
 18 17  2  0  0  0  0
 19 20  2  0  0  0  0
 19 18  1  0  0  0  0
 20 21  1  0  0  0  0
 21 22  2  0  0  0  0
 22 28  1  0  0  0  0
 23 19  1  0  0  0  0
 24 20  1  0  0  0  0
 25 21  1  0  0  0  0
 26 27  1  0  0  0  0
 28 29  1  0  0  0  0
 29 30  1  0  0  0  0
 30 32  2  0  0  0  0
 30 31  1  0  0  0  0
 33 32  1  0  0  0  0
 34 33  2  0  0  0  0
 35 34  1  0  0  0  0
 36 35  2  0  0  0  0
 37 36  1  0  0  0  0
 37 38  2  0  0  0  0
 38 39  1  0  0  0  0
 39 34  1  0  0  0  0
 39 29  2  0  0  0  0
 40 41  1  0  0  0  0
 41 47  1  0  0  0  0
 41 42  2  0  0  0  0
 42 48  1  0  0  0  0
 43 42  1  0  0  0  0
 44 43  2  0  0  0  0
 45 40  2  0  0  0  0
 45 44  1  0  0  0  0
 46 40  1  0  0  0  0
 48 50  1  0  0  0  0
 48 49  1  0  0  0  0
M  END
>  <minimizedAffinity>
-7.584764

$$$$

 OpenBabel03242521573D

 50 55  0  0  0  0  0  0  0  0999 V2000
   37.0640   28.7300   39.9250 C   0  0  0  0  0  0  0  0  0  0  0  0
   37.1680   28.8100   41.3110 C   0  0  0  0  0  0  0  0  0  0  0  0
   37.0650   27.6940   42.1500 C   0  0  0  0  0  0  0  0  0  0  0  0
   36.8530   26.4510   41.6260 C   0  0  0  0  0  0  0  0  0  0  0  0
   36.7360   26.3400   40.2290 C   0  0  0  0  0  0  0  0  0  0  0  0
   36.4670   25.0960   39.7490 C   0  0  0  0  0  0  0  0  0  0  0  0
   36.2670   24.9670   38.3720 C   0  0  0  0  0  0  0  0  0  0  0  0
   36.3470   26.1470   37.5500 C   0  0  0  0  0  0  0  0  0  0  0  0
   36.6270   27.3340   38.1880 C   0  0  0  0  0  0  0  0  0  0  0  0
   36.8470   27.5160   39.4830 C   0  0  0  0  0  0  0  0  0  0  0  0
   37.3400   29.8090   41.7490 H   0  0  0  0  0  0  0  0  0  0  0  0
   37.1590   27.8590   43.2070 H   0  0  0  0  0  0  0  0  0  0  0  0
   36.7780   25.5770   42.2690 H   0  0  0  0  0  0  0  0  0  0  0  0
   36.4110   24.2450   40.4130 H   0  0  0  0  0  0  0  0  0  0  0  0
   36.0640   23.9560   38.0660 H   0  0  0  0  0  0  0  0  0  0  0  0
   36.1540   25.7510   36.5660 H   0  0  0  0  0  0  0  0  0  0  0  0
   34.7780   28.3340   37.1730 C   0  0  0  0  0  0  0  0  0  0  0  0
   36.2060   28.1210   37.0480 C   0  0  0  0  0  0  0  0  0  0  0  0
   36.6520   28.5790   35.8800 C   0  0  0  0  0  0  0  0  0  0  0  0
   35.8860   29.1740   34.8970 C   0  0  0  0  0  0  0  0  0  0  0  0
   34.5270   29.3580   35.0460 C   0  0  0  0  0  0  0  0  0  0  0  0
   33.9610   28.9230   36.2210 C   0  0  0  0  0  0  0  0  0  0  0  0
   37.7200   28.3850   35.8710 H   0  0  0  0  0  0  0  0  0  0  0  0
   36.5530   29.4370   34.0600 H   0  0  0  0  0  0  0  0  0  0  0  0
   34.2270   29.8300   34.1400 H   0  0  0  0  0  0  0  0  0  0  0  0
   33.9720   27.9800   38.2850 O   0  0  0  0  0  0  0  0  0  0  0  0
   33.8360   28.6460   39.0430 H   0  0  0  0  0  0  0  0  0  0  0  0
   32.6300   29.1270   36.2920 O   0  0  0  0  0  0  0  0  0  0  0  0
   31.6800   29.7940   36.8380 C   0  0  0  0  0  0  0  0  0  0  0  0
   31.0840   29.8330   38.0720 C   0  0  0  0  0  0  0  0  0  0  0  0
   31.4360   29.1800   38.8260 H   0  0  0  0  0  0  0  0  0  0  0  0
   30.0470   30.6270   38.5110 C   0  0  0  0  0  3  0  0  0  0  0  0
   29.5840   31.4810   37.5340 C   0  0  0  0  0  3  0  0  0  0  0  0
   30.0720   31.5630   36.2570 C   0  0  0  0  0  0  0  0  0  0  0  0
   29.4810   32.4790   35.4200 C   0  0  0  0  0  3  0  0  0  0  0  0
   29.9640   32.5690   34.1340 C   0  0  0  0  0  3  0  0  0  0  0  0
   30.9860   31.7740   33.7260 C   0  0  0  0  0  3  0  0  0  0  0  0
   31.5230   30.8890   34.6130 C   0  0  0  0  0  3  0  0  0  0  0  0
   31.1240   30.7070   35.9280 C   0  0  0  0  0  0  0  0  0  0  0  0
   37.4190   31.9080   38.0010 C   0  0  0  0  0  0  0  0  0  0  0  0
   38.7410   31.7560   37.5250 C   0  0  0  0  0  0  0  0  0  0  0  0
   39.3860   30.5850   37.8730 C   0  0  0  0  0  0  0  0  0  0  0  0
   38.6750   29.7460   38.6200 N   0  0  0  0  0  0  0  0  0  0  0  0
   37.4360   29.8570   39.0860 C   0  0  0  0  0  0  0  0  0  0  0  0
   36.8400   30.9620   38.7460 N   0  0  0  0  0  0  0  0  0  0  0  0
   36.9370   32.8260   37.7170 H   0  0  0  0  0  0  0  0  0  0  0  0
   39.2200   32.5010   36.9300 H   0  0  0  0  0  0  0  0  0  0  0  0
   40.6840   30.2760   37.4060 N   0  0  0  0  0  0  0  0  0  0  0  0
   41.0220   29.3130   37.2880 H   0  0  0  0  0  0  0  0  0  0  0  0
   41.3850   31.0080   37.1510 H   0  0  0  0  0  0  0  0  0  0  0  0
  1  2  1  0  0  0  0
  2 11  1  0  0  0  0
  2  3  2  0  0  0  0
  3 12  1  0  0  0  0
  4  3  1  0  0  0  0
  4 13  1  0  0  0  0
  5  4  2  0  0  0  0
  6  5  1  0  0  0  0
  6 14  1  0  0  0  0
  7  6  2  0  0  0  0
  8  9  2  0  0  0  0
  8  7  1  0  0  0  0
  9 10  1  0  0  0  0
 10  1  2  0  0  0  0
 10  5  1  0  0  0  0
 15  7  1  0  0  0  0
 16  8  1  0  0  0  0
 17 26  1  0  0  0  0
 18 17  1  0  0  0  0
 18  9  1  0  0  0  0
 19 18  2  0  0  0  0
 20 21  2  0  0  0  0
 20 19  1  0  0  0  0
 21 22  1  0  0  0  0
 22 28  1  0  0  0  0
 22 17  2  0  0  0  0
 23 19  1  0  0  0  0
 24 20  1  0  0  0  0
 25 21  1  0  0  0  0
 26 27  1  0  0  0  0
 28 29  1  0  0  0  0
 29 30  1  0  0  0  0
 30 32  2  0  0  0  0
 30 31  1  0  0  0  0
 33 32  1  0  0  0  0
 34 33  2  0  0  0  0
 35 34  1  0  0  0  0
 36 35  2  0  0  0  0
 37 36  1  0  0  0  0
 37 38  2  0  0  0  0
 38 39  1  0  0  0  0
 39 34  1  0  0  0  0
 39 29  2  0  0  0  0
 40 45  1  0  0  0  0
 41 42  1  0  0  0  0
 41 40  2  0  0  0  0
 42 43  2  0  0  0  0
 43 44  1  0  0  0  0
 44  1  1  0  0  0  0
 45 44  2  0  0  0  0
 46 40  1  0  0  0  0
 47 41  1  0  0  0  0
 48 42  1  0  0  0  0
 49 48  1  0  0  0  0
 50 48  1  0  0  0  0
M  END
>  <minimizedAffinity>
-7.55831337

$$$$

 OpenBabel03242521573D

 50 55  0  0  0  0  0  0  0  0999 V2000
   37.1740   25.9930   39.0400 C   0  0  0  0  0  0  0  0  0  0  0  0
   37.1100   24.9740   38.0940 C   0  0  0  0  0  0  0  0  0  0  0  0
   36.1560   24.9420   37.0710 C   0  0  0  0  0  0  0  0  0  0  0  0
   35.2260   25.9370   36.9580 C   0  0  0  0  0  0  0  0  0  0  0  0
   35.2630   26.9760   37.9050 C   0  0  0  0  0  0  0  0  0  0  0  0
   34.2860   27.9180   37.7960 C   0  0  0  0  0  0  0  0  0  0  0  0
   34.2480   28.9200   38.7690 C   0  0  0  0  0  0  0  0  0  0  0  0
   35.2270   28.8940   39.8240 C   0  0  0  0  0  0  0  0  0  0  0  0
   36.1500   27.8740   39.7950 C   0  0  0  0  0  0  0  0  0  0  0  0
   36.2500   26.9100   38.8900 C   0  0  0  0  0  0  0  0  0  0  0  0
   37.8540   24.1620   38.1730 H   0  0  0  0  0  0  0  0  0  0  0  0
   36.1870   24.1120   36.3900 H   0  0  0  0  0  0  0  0  0  0  0  0
   34.4850   25.9240   36.1630 H   0  0  0  0  0  0  0  0  0  0  0  0
   33.5710   27.8840   36.9850 H   0  0  0  0  0  0  0  0  0  0  0  0
   33.4540   29.6300   38.6150 H   0  0  0  0  0  0  0  0  0  0  0  0
   34.9560   29.7610   40.4060 H   0  0  0  0  0  0  0  0  0  0  0  0
   37.5180   29.1800   41.1620 C   0  0  0  0  0  0  0  0  0  0  0  0
   36.5460   28.1050   41.1690 C   0  0  0  0  0  0  0  0  0  0  0  0
   36.4310   27.5780   42.3860 C   0  0  0  0  0  0  0  0  0  0  0  0
   37.1300   27.9740   43.5090 C   0  0  0  0  0  0  0  0  0  0  0  0
   38.0510   29.0000   43.4680 C   0  0  0  0  0  0  0  0  0  0  0  0
   38.2480   29.6180   42.2560 C   0  0  0  0  0  0  0  0  0  0  0  0
   35.6890   26.7910   42.3020 H   0  0  0  0  0  0  0  0  0  0  0  0
   36.8060   27.3400   44.3510 H   0  0  0  0  0  0  0  0  0  0  0  0
   38.4130   29.0650   44.4680 H   0  0  0  0  0  0  0  0  0  0  0  0
   37.8880   29.9690   40.0440 O   0  0  0  0  0  0  0  0  0  0  0  0
   37.3790   30.8270   39.8400 H   0  0  0  0  0  0  0  0  0  0  0  0
   39.1680   30.6030   42.2910 O   0  0  0  0  0  0  0  0  0  0  0  0
   40.4130   30.9020   42.2310 C   0  0  0  0  0  0  0  0  0  0  0  0
   41.5780   30.3900   42.7420 C   0  0  0  0  0  0  0  0  0  0  0  0
   41.5280   29.5290   43.3530 H   0  0  0  0  0  0  0  0  0  0  0  0
   42.8700   30.8410   42.5810 C   0  0  0  0  0  3  0  0  0  0  0  0
   42.9430   31.9640   41.7850 C   0  0  0  0  0  3  0  0  0  0  0  0
   41.8760   32.5930   41.2020 C   0  0  0  0  0  0  0  0  0  0  0  0
   42.1460   33.7040   40.4400 C   0  0  0  0  0  3  0  0  0  0  0  0
   41.0800   34.3430   39.8490 C   0  0  0  0  0  3  0  0  0  0  0  0
   39.8160   33.8800   40.0250 C   0  0  0  0  0  3  0  0  0  0  0  0
   39.6260   32.7710   40.7940 C   0  0  0  0  0  3  0  0  0  0  0  0
   40.6150   32.0440   41.4380 C   0  0  0  0  0  0  0  0  0  0  0  0
   40.2570   26.9200   40.9280 C   0  0  0  0  0  0  0  0  0  0  0  0
   40.2050   25.9590   41.9630 C   0  0  0  0  0  0  0  0  0  0  0  0
   39.1510   25.0680   41.9190 C   0  0  0  0  0  0  0  0  0  0  0  0
   38.3120   25.2330   40.9000 N   0  0  0  0  0  0  0  0  0  0  0  0
   38.3290   26.1230   39.9150 C   0  0  0  0  0  0  0  0  0  0  0  0
   39.3290   26.9530   39.9680 N   0  0  0  0  0  0  0  0  0  0  0  0
   41.0870   27.6030   40.9840 H   0  0  0  0  0  0  0  0  0  0  0  0
   40.9370   25.9190   42.7390 H   0  0  0  0  0  0  0  0  0  0  0  0
   39.0180   24.0140   42.8510 N   0  0  0  0  0  0  0  0  0  0  0  0
   38.5340   23.1330   42.6360 H   0  0  0  0  0  0  0  0  0  0  0  0
   39.4040   24.0630   43.8220 H   0  0  0  0  0  0  0  0  0  0  0  0
  1 44  1  0  0  0  0
  2 11  1  0  0  0  0
  2  1  2  0  0  0  0
  3  2  1  0  0  0  0
  4  3  2  0  0  0  0
  4  5  1  0  0  0  0
  5 10  1  0  0  0  0
  6  5  2  0  0  0  0
  6  7  1  0  0  0  0
  7  8  2  0  0  0  0
  8 16  1  0  0  0  0
  9  8  1  0  0  0  0
  9 18  1  0  0  0  0
 10  1  1  0  0  0  0
 10  9  2  0  0  0  0
 12  3  1  0  0  0  0
 13  4  1  0  0  0  0
 14  6  1  0  0  0  0
 15  7  1  0  0  0  0
 17 18  2  0  0  0  0
 17 22  1  0  0  0  0
 18 19  1  0  0  0  0
 19 20  2  0  0  0  0
 20 24  1  0  0  0  0
 21 20  1  0  0  0  0
 21 25  1  0  0  0  0
 22 28  1  0  0  0  0
 22 21  2  0  0  0  0
 23 19  1  0  0  0  0
 26 17  1  0  0  0  0
 27 26  1  0  0  0  0
 29 28  1  0  0  0  0
 29 30  1  0  0  0  0
 30 31  1  0  0  0  0
 32 30  2  0  0  0  0
 33 32  1  0  0  0  0
 34 39  1  0  0  0  0
 34 33  2  0  0  0  0
 35 34  1  0  0  0  0
 36 37  1  0  0  0  0
 36 35  2  0  0  0  0
 37 38  2  0  0  0  0
 38 39  1  0  0  0  0
 39 29  2  0  0  0  0
 40 46  1  0  0  0  0
 40 41  1  0  0  0  0
 41 47  1  0  0  0  0
 42 41  2  0  0  0  0
 42 48  1  0  0  0  0
 43 42  1  0  0  0  0
 44 45  1  0  0  0  0
 44 43  2  0  0  0  0
 45 40  2  0  0  0  0
 48 50  1  0  0  0  0
 49 48  1  0  0  0  0
M  END
>  <minimizedAffinity>
-7.51770496

$$$$

 OpenBabel03242521573D

 50 55  0  0  0  0  0  0  0  0999 V2000
   40.9550   29.9740   41.8720 C   0  0  0  0  0  0  0  0  0  0  0  0
   42.2460   30.3010   42.2790 C   0  0  0  0  0  0  0  0  0  0  0  0
   43.0200   29.4730   43.1000 C   0  0  0  0  0  0  0  0  0  0  0  0
   42.5250   28.2810   43.5470 C   0  0  0  0  0  0  0  0  0  0  0  0
   41.2190   27.9280   43.1590 C   0  0  0  0  0  0  0  0  0  0  0  0
   40.7400   26.7620   43.6700 C   0  0  0  0  0  0  0  0  0  0  0  0
   39.4180   26.4220   43.3670 C   0  0  0  0  0  0  0  0  0  0  0  0
   38.6460   27.3200   42.5470 C   0  0  0  0  0  0  0  0  0  0  0  0
   39.2770   28.4620   42.1080 C   0  0  0  0  0  0  0  0  0  0  0  0
   40.5300   28.8270   42.3430 C   0  0  0  0  0  0  0  0  0  0  0  0
   42.6600   31.2610   41.9250 H   0  0  0  0  0  0  0  0  0  0  0  0
   44.0040   29.8140   43.3600 H   0  0  0  0  0  0  0  0  0  0  0  0
   43.1200   27.6280   44.1810 H   0  0  0  0  0  0  0  0  0  0  0  0
   41.3620   26.1280   44.2870 H   0  0  0  0  0  0  0  0  0  0  0  0
   39.1110   25.4870   43.8010 H   0  0  0  0  0  0  0  0  0  0  0  0
   37.6970   26.8120   42.4860 H   0  0  0  0  0  0  0  0  0  0  0  0
   37.6360   28.5520   40.4500 C   0  0  0  0  0  0  0  0  0  0  0  0
   38.0250   29.0890   41.7380 C   0  0  0  0  0  0  0  0  0  0  0  0
   37.2080   30.0750   42.1060 C   0  0  0  0  0  0  0  0  0  0  0  0
   36.1330   30.5490   41.3810 C   0  0  0  0  0  0  0  0  0  0  0  0
   35.7920   30.0170   40.1550 C   0  0  0  0  0  0  0  0  0  0  0  0
   36.5700   28.9880   39.6790 C   0  0  0  0  0  0  0  0  0  0  0  0
   37.5660   30.4140   43.0730 H   0  0  0  0  0  0  0  0  0  0  0  0
   35.6670   31.3640   41.9600 H   0  0  0  0  0  0  0  0  0  0  0  0
   34.9400   30.5810   39.8550 H   0  0  0  0  0  0  0  0  0  0  0  0
   38.2730   27.4920   39.7570 O   0  0  0  0  0  0  0  0  0  0  0  0
   37.9720   26.5320   39.9150 H   0  0  0  0  0  0  0  0  0  0  0  0
   36.1830   28.5260   38.4730 O   0  0  0  0  0  0  0  0  0  0  0  0
   36.1680   28.7290   37.2070 C   0  0  0  0  0  0  0  0  0  0  0  0
   37.1040   28.7950   36.2070 C   0  0  0  0  0  0  0  0  0  0  0  0
   38.1220   28.6550   36.4550 H   0  0  0  0  0  0  0  0  0  0  0  0
   36.9220   29.0280   34.8610 C   0  0  0  0  0  3  0  0  0  0  0  0
   35.5970   29.2110   34.5300 C   0  0  0  0  0  3  0  0  0  0  0  0
   34.5480   29.1750   35.4100 C   0  0  0  0  0  0  0  0  0  0  0  0
   33.2920   29.3810   34.8920 C   0  0  0  0  0  3  0  0  0  0  0  0
   32.2310   29.3460   35.7680 C   0  0  0  0  0  3  0  0  0  0  0  0
   32.4370   29.1170   37.0900 C   0  0  0  0  0  3  0  0  0  0  0  0
   33.7120   28.9200   37.5300 C   0  0  0  0  0  3  0  0  0  0  0  0
   34.8570   28.9310   36.7480 C   0  0  0  0  0  0  0  0  0  0  0  0
   39.3200   31.3150   38.7970 C   0  0  0  0  0  0  0  0  0  0  0  0
   38.8410   32.5470   39.2960 C   0  0  0  0  0  0  0  0  0  0  0  0
   39.1330   32.8290   40.6160 C   0  0  0  0  0  0  0  0  0  0  0  0
   39.8310   31.8930   41.2540 N   0  0  0  0  0  0  0  0  0  0  0  0
   40.2940   30.7270   40.8190 C   0  0  0  0  0  0  0  0  0  0  0  0
   40.0150   30.4780   39.5730 N   0  0  0  0  0  0  0  0  0  0  0  0
   39.0810   31.1170   37.7670 H   0  0  0  0  0  0  0  0  0  0  0  0
   38.2830   33.2270   38.6910 H   0  0  0  0  0  0  0  0  0  0  0  0
   38.7740   34.0550   41.2200 N   0  0  0  0  0  0  0  0  0  0  0  0
   39.2940   34.4660   42.0060 H   0  0  0  0  0  0  0  0  0  0  0  0
   37.9550   34.6240   40.9070 H   0  0  0  0  0  0  0  0  0  0  0  0
  1  2  2  0  0  0  0
  1 10  1  0  0  0  0
  2  3  1  0  0  0  0
  3 12  1  0  0  0  0
  3  4  2  0  0  0  0
  4 13  1  0  0  0  0
  5  4  1  0  0  0  0
  5  6  1  0  0  0  0
  6 14  1  0  0  0  0
  7  6  2  0  0  0  0
  7 15  1  0  0  0  0
  8  7  1  0  0  0  0
  9 10  1  0  0  0  0
  9  8  2  0  0  0  0
 10  5  2  0  0  0  0
 11  2  1  0  0  0  0
 16  8  1  0  0  0  0
 17 18  1  0  0  0  0
 18 19  2  0  0  0  0
 18  9  1  0  0  0  0
 19 23  1  0  0  0  0
 20 24  1  0  0  0  0
 20 19  1  0  0  0  0
 21 20  2  0  0  0  0
 22 21  1  0  0  0  0
 22 17  2  0  0  0  0
 25 21  1  0  0  0  0
 26 27  1  0  0  0  0
 26 17  1  0  0  0  0
 28 22  1  0  0  0  0
 29 28  1  0  0  0  0
 30 31  1  0  0  0  0
 30 29  2  0  0  0  0
 32 30  1  0  0  0  0
 33 32  2  0  0  0  0
 33 34  1  0  0  0  0
 34 39  1  0  0  0  0
 35 34  2  0  0  0  0
 35 36  1  0  0  0  0
 36 37  2  0  0  0  0
 37 38  1  0  0  0  0
 39 29  1  0  0  0  0
 39 38  2  0  0  0  0
 40 41  2  0  0  0  0
 40 45  1  0  0  0  0
 41 42  1  0  0  0  0
 42 48  1  0  0  0  0
 42 43  2  0  0  0  0
 44 43  1  0  0  0  0
 44  1  1  0  0  0  0
 45 44  2  0  0  0  0
 46 40  1  0  0  0  0
 47 41  1  0  0  0  0
 48 49  1  0  0  0  0
 50 48  1  0  0  0  0
M  END
>  <minimizedAffinity>
-7.47769451

$$$$

 OpenBabel03242521573D

 50 55  0  0  0  0  0  0  0  0999 V2000
   40.3100   31.1920   41.1210 C   0  0  0  0  0  0  0  0  0  0  0  0
   40.7310   32.4730   40.7770 C   0  0  0  0  0  0  0  0  0  0  0  0
   41.9440   33.0210   41.2130 C   0  0  0  0  0  0  0  0  0  0  0  0
   42.7820   32.2990   42.0140 C   0  0  0  0  0  0  0  0  0  0  0  0
   42.3790   31.0030   42.3840 C   0  0  0  0  0  0  0  0  0  0  0  0
   43.2120   30.3370   43.2290 C   0  0  0  0  0  0  0  0  0  0  0  0
   42.8020   29.0780   43.6780 C   0  0  0  0  0  0  0  0  0  0  0  0
   41.5310   28.5690   43.2320 C   0  0  0  0  0  0  0  0  0  0  0  0
   40.8040   29.3650   42.3770 C   0  0  0  0  0  0  0  0  0  0  0  0
   41.1480   30.5540   41.9010 C   0  0  0  0  0  0  0  0  0  0  0  0
   40.0640   33.0690   40.1310 H   0  0  0  0  0  0  0  0  0  0  0  0
   42.1790   34.0190   40.8950 H   0  0  0  0  0  0  0  0  0  0  0  0
   43.7290   32.7130   42.3530 H   0  0  0  0  0  0  0  0  0  0  0  0
   44.1530   30.7710   43.5370 H   0  0  0  0  0  0  0  0  0  0  0  0
   43.5120   28.6120   44.3370 H   0  0  0  0  0  0  0  0  0  0  0  0
   41.4850   27.6110   43.7270 H   0  0  0  0  0  0  0  0  0  0  0  0
   39.5620   27.5460   41.6070 C   0  0  0  0  0  0  0  0  0  0  0  0
   39.5910   28.6040   42.5950 C   0  0  0  0  0  0  0  0  0  0  0  0
   38.4530   28.6380   43.2860 C   0  0  0  0  0  0  0  0  0  0  0  0
   37.3710   27.7990   43.1070 C   0  0  0  0  0  0  0  0  0  0  0  0
   37.3750   26.8030   42.1530 C   0  0  0  0  0  0  0  0  0  0  0  0
   38.5060   26.6760   41.3820 C   0  0  0  0  0  0  0  0  0  0  0  0
   38.5610   29.4490   43.9990 H   0  0  0  0  0  0  0  0  0  0  0  0
   36.5940   28.0890   43.8330 H   0  0  0  0  0  0  0  0  0  0  0  0
   36.4220   26.3390   42.2580 H   0  0  0  0  0  0  0  0  0  0  0  0
   40.6020   27.2140   40.7020 O   0  0  0  0  0  0  0  0  0  0  0  0
   41.3110   26.5350   40.9740 H   0  0  0  0  0  0  0  0  0  0  0  0
   38.4330   25.6890   40.4670 O   0  0  0  0  0  0  0  0  0  0  0  0
   38.0020   24.5110   40.2000 C   0  0  0  0  0  0  0  0  0  0  0  0
   38.3250   23.2320   40.5750 C   0  0  0  0  0  0  0  0  0  0  0  0
   39.1220   23.0910   41.2560 H   0  0  0  0  0  0  0  0  0  0  0  0
   37.7510   22.0410   40.1880 C   0  0  0  0  0  3  0  0  0  0  0  0
   36.7120   22.2190   39.3010 C   0  0  0  0  0  3  0  0  0  0  0  0
   36.2690   23.4260   38.8300 C   0  0  0  0  0  0  0  0  0  0  0  0
   35.2160   23.4040   37.9480 C   0  0  0  0  0  3  0  0  0  0  0  0
   34.7630   24.6130   37.4700 C   0  0  0  0  0  3  0  0  0  0  0  0
   35.3470   25.7720   37.8660 C   0  0  0  0  0  3  0  0  0  0  0  0
   36.3870   25.7160   38.7460 C   0  0  0  0  0  3  0  0  0  0  0  0
   36.9300   24.5640   39.2950 C   0  0  0  0  0  0  0  0  0  0  0  0
   37.9120   29.2300   39.0410 C   0  0  0  0  0  0  0  0  0  0  0  0
   36.6950   29.6100   39.6510 C   0  0  0  0  0  0  0  0  0  0  0  0
   36.7880   30.5140   40.6920 C   0  0  0  0  0  0  0  0  0  0  0  0
   38.0230   30.9100   40.9900 N   0  0  0  0  0  0  0  0  0  0  0  0
   39.1850   30.5720   40.4410 C   0  0  0  0  0  0  0  0  0  0  0  0
   39.0800   29.7240   39.4610 N   0  0  0  0  0  0  0  0  0  0  0  0
   37.8150   28.5260   38.2340 H   0  0  0  0  0  0  0  0  0  0  0  0
   35.7530   29.2250   39.3300 H   0  0  0  0  0  0  0  0  0  0  0  0
   35.6450   31.0310   41.3420 N   0  0  0  0  0  0  0  0  0  0  0  0
   35.6280   31.9510   41.7980 H   0  0  0  0  0  0  0  0  0  0  0  0
   34.7420   30.5080   41.4030 H   0  0  0  0  0  0  0  0  0  0  0  0
  1 10  1  0  0  0  0
  2  1  2  0  0  0  0
  2  3  1  0  0  0  0
  3  4  2  0  0  0  0
  4 13  1  0  0  0  0
  4  5  1  0  0  0  0
  5  6  1  0  0  0  0
  6 14  1  0  0  0  0
  6  7  2  0  0  0  0
  7 15  1  0  0  0  0
  8  7  1  0  0  0  0
  8 16  1  0  0  0  0
  9 18  1  0  0  0  0
  9  8  2  0  0  0  0
 10  9  1  0  0  0  0
 10  5  2  0  0  0  0
 11  2  1  0  0  0  0
 12  3  1  0  0  0  0
 17 18  1  0  0  0  0
 18 19  2  0  0  0  0
 19 23  1  0  0  0  0
 20 19  1  0  0  0  0
 20 24  1  0  0  0  0
 21 25  1  0  0  0  0
 21 20  2  0  0  0  0
 22 17  2  0  0  0  0
 22 21  1  0  0  0  0
 26 27  1  0  0  0  0
 26 17  1  0  0  0  0
 28 22  1  0  0  0  0
 29 28  1  0  0  0  0
 29 30  1  0  0  0  0
 30 31  1  0  0  0  0
 32 30  2  0  0  0  0
 33 32  1  0  0  0  0
 34 39  1  0  0  0  0
 34 33  2  0  0  0  0
 35 34  1  0  0  0  0
 36 37  1  0  0  0  0
 36 35  2  0  0  0  0
 37 38  2  0  0  0  0
 38 39  1  0  0  0  0
 39 29  2  0  0  0  0
 40 45  2  0  0  0  0
 40 41  1  0  0  0  0
 41 42  2  0  0  0  0
 42 43  1  0  0  0  0
 42 48  1  0  0  0  0
 44 43  2  0  0  0  0
 44  1  1  0  0  0  0
 45 44  1  0  0  0  0
 46 40  1  0  0  0  0
 47 41  1  0  0  0  0
 48 50  1  0  0  0  0
 48 49  1  0  0  0  0
M  END
>  <minimizedAffinity>
-7.42663288

$$$$

 OpenBabel03242521573D

 50 55  0  0  0  0  0  0  0  0999 V2000
   36.9170   25.9470   40.8570 C   0  0  0  0  0  0  0  0  0  0  0  0
   36.7550   24.6190   41.2400 C   0  0  0  0  0  0  0  0  0  0  0  0
   36.2710   23.6290   40.3770 C   0  0  0  0  0  0  0  0  0  0  0  0
   35.9300   23.9370   39.0910 C   0  0  0  0  0  0  0  0  0  0  0  0
   36.0760   25.2740   38.6780 C   0  0  0  0  0  0  0  0  0  0  0  0
   35.6710   25.5540   37.4090 C   0  0  0  0  0  0  0  0  0  0  0  0
   35.7300   26.8880   36.9950 C   0  0  0  0  0  0  0  0  0  0  0  0
   36.2010   27.8790   37.9270 C   0  0  0  0  0  0  0  0  0  0  0  0
   36.5730   27.4340   39.1750 C   0  0  0  0  0  0  0  0  0  0  0  0
   36.5600   26.1850   39.6180 C   0  0  0  0  0  0  0  0  0  0  0  0
   37.0270   24.3550   42.2770 H   0  0  0  0  0  0  0  0  0  0  0  0
   36.1810   22.6330   40.7680 H   0  0  0  0  0  0  0  0  0  0  0  0
   35.5580   23.1740   38.4110 H   0  0  0  0  0  0  0  0  0  0  0  0
   35.3190   24.7700   36.7530 H   0  0  0  0  0  0  0  0  0  0  0  0
   35.3990   27.0310   35.9810 H   0  0  0  0  0  0  0  0  0  0  0  0
   36.1350   28.7850   37.3460 H   0  0  0  0  0  0  0  0  0  0  0  0
   37.8870   29.3160   39.6000 C   0  0  0  0  0  0  0  0  0  0  0  0
   36.5510   28.7720   39.7300 C   0  0  0  0  0  0  0  0  0  0  0  0
   35.7720   29.5930   40.4320 C   0  0  0  0  0  0  0  0  0  0  0  0
   36.1550   30.8010   40.9810 C   0  0  0  0  0  0  0  0  0  0  0  0
   37.4370   31.2890   40.8410 C   0  0  0  0  0  0  0  0  0  0  0  0
   38.3270   30.5190   40.1290 C   0  0  0  0  0  0  0  0  0  0  0  0
   34.7990   29.1150   40.4780 H   0  0  0  0  0  0  0  0  0  0  0  0
   35.2810   31.2310   41.4980 H   0  0  0  0  0  0  0  0  0  0  0  0
   37.4210   32.2170   41.3630 H   0  0  0  0  0  0  0  0  0  0  0  0
   38.9730   28.7180   38.9110 O   0  0  0  0  0  0  0  0  0  0  0  0
   39.1170   28.9180   37.9230 H   0  0  0  0  0  0  0  0  0  0  0  0
   39.5610   31.0550   40.0430 O   0  0  0  0  0  0  0  0  0  0  0  0
   40.2550   32.1300   39.9630 C   0  0  0  0  0  0  0  0  0  0  0  0
   40.2500   33.2530   39.1760 C   0  0  0  0  0  0  0  0  0  0  0  0
   39.5200   33.3350   38.4140 H   0  0  0  0  0  0  0  0  0  0  0  0
   41.0850   34.3490   39.2190 C   0  0  0  0  0  3  0  0  0  0  0  0
   42.0370   34.2490   40.2090 C   0  0  0  0  0  3  0  0  0  0  0  0
   42.1740   33.1970   41.0750 C   0  0  0  0  0  0  0  0  0  0  0  0
   43.1870   33.2760   41.9990 C   0  0  0  0  0  3  0  0  0  0  0  0
   43.3330   32.2230   42.8740 C   0  0  0  0  0  3  0  0  0  0  0  0
   42.4970   31.1560   42.8100 C   0  0  0  0  0  3  0  0  0  0  0  0
   41.5140   31.1480   41.8670 C   0  0  0  0  0  3  0  0  0  0  0  0
   41.2690   32.1440   40.9340 C   0  0  0  0  0  0  0  0  0  0  0  0
   38.2220   28.4040   43.3450 C   0  0  0  0  0  0  0  0  0  0  0  0
   39.6020   28.3400   43.0470 C   0  0  0  0  0  0  0  0  0  0  0  0
   39.9680   27.4950   42.0180 C   0  0  0  0  0  0  0  0  0  0  0  0
   38.9650   26.8420   41.4370 N   0  0  0  0  0  0  0  0  0  0  0  0
   37.6620   26.8760   41.6910 C   0  0  0  0  0  0  0  0  0  0  0  0
   37.3320   27.6800   42.6600 N   0  0  0  0  0  0  0  0  0  0  0  0
   37.9610   29.0690   44.1490 H   0  0  0  0  0  0  0  0  0  0  0  0
   40.3260   28.9110   43.5850 H   0  0  0  0  0  0  0  0  0  0  0  0
   41.3050   27.3890   41.5730 N   0  0  0  0  0  0  0  0  0  0  0  0
   41.5560   27.1230   40.6120 H   0  0  0  0  0  0  0  0  0  0  0  0
   42.1260   27.5730   42.1930 H   0  0  0  0  0  0  0  0  0  0  0  0
  1  2  1  0  0  0  0
  1 44  1  0  0  0  0
  2 11  1  0  0  0  0
  3 12  1  0  0  0  0
  3  2  2  0  0  0  0
  4  3  1  0  0  0  0
  5  4  2  0  0  0  0
  5 10  1  0  0  0  0
  6  5  1  0  0  0  0
  7  6  2  0  0  0  0
  7  8  1  0  0  0  0
  8  9  2  0  0  0  0
  9 10  1  0  0  0  0
  9 18  1  0  0  0  0
 10  1  2  0  0  0  0
 13  4  1  0  0  0  0
 14  6  1  0  0  0  0
 15  7  1  0  0  0  0
 16  8  1  0  0  0  0
 17 18  2  0  0  0  0
 17 22  1  0  0  0  0
 18 19  1  0  0  0  0
 19 23  1  0  0  0  0
 19 20  2  0  0  0  0
 20 24  1  0  0  0  0
 21 20  1  0  0  0  0
 21 25  1  0  0  0  0
 22 21  2  0  0  0  0
 26 17  1  0  0  0  0
 27 26  1  0  0  0  0
 28 22  1  0  0  0  0
 29 28  1  0  0  0  0
 29 39  1  0  0  0  0
 30 32  1  0  0  0  0
 30 29  2  0  0  0  0
 31 30  1  0  0  0  0
 32 33  2  0  0  0  0
 33 34  1  0  0  0  0
 34 35  1  0  0  0  0
 35 36  2  0  0  0  0
 37 36  1  0  0  0  0
 38 37  2  0  0  0  0
 39 34  2  0  0  0  0
 39 38  1  0  0  0  0
 40 46  1  0  0  0  0
 41 40  1  0  0  0  0
 41 47  1  0  0  0  0
 42 41  2  0  0  0  0
 43 44  2  0  0  0  0
 43 42  1  0  0  0  0
 44 45  1  0  0  0  0
 45 40  2  0  0  0  0
 48 42  1  0  0  0  0
 48 50  1  0  0  0  0
 49 48  1  0  0  0  0
M  END
>  <minimizedAffinity>
-7.39209509

$$$$
