
 OpenBabel03252504193D

 40 43  0  0  0  0  0  0  0  0999 V2000
   33.3910   28.3320   38.0510 F   0  0  0  0  0  0  0  0  0  0  0  0
   34.3610   28.7110   37.1580 C   0  0  0  0  0  0  0  0  0  0  0  0
   35.6670   28.8630   37.5830 C   0  0  0  0  0  0  0  0  0  0  0  0
   36.5740   29.2490   36.6100 C   0  0  0  0  0  0  0  0  0  0  0  0
   36.1880   29.4670   35.3080 C   0  0  0  0  0  0  0  0  0  0  0  0
   34.8650   29.2980   34.9470 C   0  0  0  0  0  0  0  0  0  0  0  0
   33.9090   28.9110   35.8750 C   0  0  0  0  0  0  0  0  0  0  0  0
   37.5950   29.3670   36.9460 H   0  0  0  0  0  0  0  0  0  0  0  0
   36.9410   29.7680   34.5850 H   0  0  0  0  0  0  0  0  0  0  0  0
   34.5380   29.4600   33.9340 H   0  0  0  0  0  0  0  0  0  0  0  0
   37.0010   27.1650   40.5350 C   0  0  0  0  0  0  0  0  0  0  0  0
   36.8050   28.0900   41.5610 C   0  0  0  0  0  0  0  0  0  0  0  0
   36.2060   29.3140   41.2130 C   0  0  0  0  0  0  0  0  0  0  0  0
   35.8480   29.5470   39.9370 N   0  0  0  0  0  0  0  0  0  0  0  0
   36.0520   28.6340   38.9820 C   0  0  0  0  0  0  0  0  0  0  0  0
   36.6260   27.4420   39.2690 N   0  0  0  0  0  0  0  0  0  0  0  0
   36.0700   30.0030   42.0210 H   0  0  0  0  0  0  0  0  0  0  0  0
   37.2230   27.7570   42.9290 C   0  0  0  0  0  0  0  0  0  0  0  0
   37.3730   28.9120   43.6790 F   0  0  0  0  0  0  0  0  0  0  0  0
   36.2020   27.0280   43.5190 F   0  0  0  0  0  0  0  0  0  0  0  0
   38.3670   27.0420   43.0250 F   0  0  0  0  0  0  0  0  0  0  0  0
   37.5800   25.9880   40.8590 O   0  0  0  0  0  0  0  0  0  0  0  0
   36.9540   24.7260   40.9310 C   0  0  0  0  0  0  0  0  0  0  0  0
   37.8610   23.7910   40.4750 F   0  0  0  0  0  0  0  0  0  0  0  0
   36.5420   24.4920   42.2200 F   0  0  0  0  0  0  0  0  0  0  0  0
   35.9080   24.6840   40.0380 F   0  0  0  0  0  0  0  0  0  0  0  0
   32.4730   28.7120   35.4940 C   0  0  0  0  0  0  0  0  0  0  0  0
   32.3720   28.1140   34.5920 H   0  0  0  0  0  0  0  0  0  0  0  0
   32.0530   28.1310   36.3680 H   0  0  0  0  0  0  0  0  0  0  0  0
   31.7640   30.0260   35.4320 C   0  0  0  0  0  0  0  0  0  0  0  0
   31.9850   30.8220   34.3280 C   0  0  0  0  0  0  0  0  0  0  0  0
   32.6220   30.4880   33.5070 H   0  0  0  0  0  0  0  0  0  0  0  0
   31.3810   32.0520   34.2890 C   0  0  0  0  0  3  0  0  0  0  0  0
   30.5620   32.5600   35.2730 C   0  0  0  0  0  3  0  0  0  0  0  0
   30.3580   31.7320   36.3720 C   0  0  0  0  0  0  0  0  0  0  0  0
   29.5420   32.1730   37.3900 C   0  0  0  0  0  3  0  0  0  0  0  0
   29.2690   31.4080   38.5310 C   0  0  0  0  0  3  0  0  0  0  0  0
   29.9050   30.1840   38.5080 C   0  0  0  0  0  3  0  0  0  0  0  0
   30.7310   29.6620   37.5440 C   0  0  0  0  0  3  0  0  0  0  0  0
   30.9480   30.4870   36.4510 C   0  0  0  0  0  0  0  0  0  0  0  0
  2  3  1  0  0  0  0
  2  1  1  0  0  0  0
  3 15  1  0  0  0  0
  4  8  1  0  0  0  0
  4  3  2  0  0  0  0
  5  4  1  0  0  0  0
  6  5  2  0  0  0  0
  6  7  1  0  0  0  0
  7  2  2  0  0  0  0
  9  5  1  0  0  0  0
 10  6  1  0  0  0  0
 11 22  1  0  0  0  0
 11 12  1  0  0  0  0
 12 18  1  0  0  0  0
 13 12  2  0  0  0  0
 13 17  1  0  0  0  0
 14 13  1  0  0  0  0
 15 16  1  0  0  0  0
 15 14  2  0  0  0  0
 16 11  2  0  0  0  0
 18 21  1  0  0  0  0
 18 20  1  0  0  0  0
 18 19  1  0  0  0  0
 22 23  1  0  0  0  0
 23 25  1  0  0  0  0
 24 23  1  0  0  0  0
 26 23  1  0  0  0  0
 27  7  1  0  0  0  0
 27 29  1  0  0  0  0
 28 27  1  0  0  0  0
 30 27  1  0  0  0  0
 30 40  1  0  0  0  0
 31 30  2  0  0  0  0
 32 31  1  0  0  0  0
 33 31  1  0  0  0  0
 33 34  2  0  0  0  0
 34 35  1  0  0  0  0
 35 40  2  0  0  0  0
 35 36  1  0  0  0  0
 36 37  2  0  0  0  0
 38 37  1  0  0  0  0
 39 38  2  0  0  0  0
 40 39  1  0  0  0  0
M  END
>  <minimizedAffinity>
-7.7845068

$$$$

 OpenBabel03252504193D

 40 43  0  0  0  0  0  0  0  0999 V2000
   33.5230   27.7400   37.6610 F   0  0  0  0  0  0  0  0  0  0  0  0
   34.4670   28.3890   36.9060 C   0  0  0  0  0  0  0  0  0  0  0  0
   35.7630   28.4990   37.3700 C   0  0  0  0  0  0  0  0  0  0  0  0
   36.6440   29.1710   36.5390 C   0  0  0  0  0  0  0  0  0  0  0  0
   36.2430   29.6930   35.3320 C   0  0  0  0  0  0  0  0  0  0  0  0
   34.9300   29.5500   34.9250 C   0  0  0  0  0  0  0  0  0  0  0  0
   34.0000   28.8860   35.7120 C   0  0  0  0  0  0  0  0  0  0  0  0
   37.6580   29.2550   36.9060 H   0  0  0  0  0  0  0  0  0  0  0  0
   36.9760   30.2100   34.7190 H   0  0  0  0  0  0  0  0  0  0  0  0
   34.5910   29.9480   33.9840 H   0  0  0  0  0  0  0  0  0  0  0  0
   36.8380   28.3800   40.8650 C   0  0  0  0  0  0  0  0  0  0  0  0
   36.9340   27.0130   41.1320 C   0  0  0  0  0  0  0  0  0  0  0  0
   36.6180   26.1330   40.0810 C   0  0  0  0  0  0  0  0  0  0  0  0
   36.2440   26.6230   38.8850 N   0  0  0  0  0  0  0  0  0  0  0  0
   36.1650   27.9400   38.6680 C   0  0  0  0  0  0  0  0  0  0  0  0
   36.4590   28.8250   39.6490 N   0  0  0  0  0  0  0  0  0  0  0  0
   36.7000   25.0910   40.3160 H   0  0  0  0  0  0  0  0  0  0  0  0
   37.3510   26.5610   42.4640 C   0  0  0  0  0  0  0  0  0  0  0  0
   36.5040   27.0770   43.4330 F   0  0  0  0  0  0  0  0  0  0  0  0
   37.2120   25.1810   42.5070 F   0  0  0  0  0  0  0  0  0  0  0  0
   38.6220   26.8710   42.8080 F   0  0  0  0  0  0  0  0  0  0  0  0
   37.1360   29.2330   41.8690 O   0  0  0  0  0  0  0  0  0  0  0  0
   38.2940   30.0290   41.9900 C   0  0  0  0  0  0  0  0  0  0  0  0
   39.3110   29.3810   41.3180 F   0  0  0  0  0  0  0  0  0  0  0  0
   38.0390   31.2860   41.4980 F   0  0  0  0  0  0  0  0  0  0  0  0
   38.6910   30.0600   43.3080 F   0  0  0  0  0  0  0  0  0  0  0  0
   32.5770   28.7120   35.2760 C   0  0  0  0  0  0  0  0  0  0  0  0
   32.5040   28.1930   34.3240 H   0  0  0  0  0  0  0  0  0  0  0  0
   32.1380   28.0560   36.0850 H   0  0  0  0  0  0  0  0  0  0  0  0
   31.8590   30.0220   35.3070 C   0  0  0  0  0  0  0  0  0  0  0  0
   32.0110   30.8620   34.2240 C   0  0  0  0  0  0  0  0  0  0  0  0
   32.6000   30.5650   33.3550 H   0  0  0  0  0  0  0  0  0  0  0  0
   31.4000   32.0890   34.2680 C   0  0  0  0  0  3  0  0  0  0  0  0
   30.6390   32.5520   35.3180 C   0  0  0  0  0  3  0  0  0  0  0  0
   30.5030   31.6820   36.3930 C   0  0  0  0  0  0  0  0  0  0  0  0
   29.7460   32.0760   37.4750 C   0  0  0  0  0  3  0  0  0  0  0  0
   29.5450   31.2670   38.5990 C   0  0  0  0  0  3  0  0  0  0  0  0
   30.1840   30.0490   38.4910 C   0  0  0  0  0  3  0  0  0  0  0  0
   30.9550   29.5700   37.4610 C   0  0  0  0  0  3  0  0  0  0  0  0
   31.1020   30.4380   36.3890 C   0  0  0  0  0  0  0  0  0  0  0  0
  2  3  1  0  0  0  0
  2  1  1  0  0  0  0
  3 15  1  0  0  0  0
  4  8  1  0  0  0  0
  4  3  2  0  0  0  0
  5  4  1  0  0  0  0
  6  5  2  0  0  0  0
  6  7  1  0  0  0  0
  7  2  2  0  0  0  0
  9  5  1  0  0  0  0
 10  6  1  0  0  0  0
 11 12  1  0  0  0  0
 11 22  1  0  0  0  0
 12 18  1  0  0  0  0
 13 17  1  0  0  0  0
 13 12  2  0  0  0  0
 14 13  1  0  0  0  0
 15 14  2  0  0  0  0
 15 16  1  0  0  0  0
 16 11  2  0  0  0  0
 18 20  1  0  0  0  0
 18 21  1  0  0  0  0
 18 19  1  0  0  0  0
 22 23  1  0  0  0  0
 23 26  1  0  0  0  0
 24 23  1  0  0  0  0
 25 23  1  0  0  0  0
 27 30  1  0  0  0  0
 27  7  1  0  0  0  0
 27 29  1  0  0  0  0
 28 27  1  0  0  0  0
 30 40  1  0  0  0  0
 31 33  1  0  0  0  0
 31 30  2  0  0  0  0
 32 31  1  0  0  0  0
 33 34  2  0  0  0  0
 34 35  1  0  0  0  0
 35 36  1  0  0  0  0
 36 37  2  0  0  0  0
 38 37  1  0  0  0  0
 39 38  2  0  0  0  0
 40 35  2  0  0  0  0
 40 39  1  0  0  0  0
M  END
>  <minimizedAffinity>
-7.37309361

$$$$

 OpenBabel03252504193D

 40 43  0  0  0  0  0  0  0  0999 V2000
   33.7030   28.5300   38.7530 F   0  0  0  0  0  0  0  0  0  0  0  0
   34.4370   28.8920   37.6520 C   0  0  0  0  0  0  0  0  0  0  0  0
   35.7760   29.2040   37.7900 C   0  0  0  0  0  0  0  0  0  0  0  0
   36.4340   29.5590   36.6240 C   0  0  0  0  0  0  0  0  0  0  0  0
   35.7850   29.5970   35.4120 C   0  0  0  0  0  0  0  0  0  0  0  0
   34.4430   29.2750   35.3410 C   0  0  0  0  0  0  0  0  0  0  0  0
   33.7290   28.9100   36.4730 C   0  0  0  0  0  0  0  0  0  0  0  0
   37.4820   29.8020   36.7350 H   0  0  0  0  0  0  0  0  0  0  0  0
   36.3490   29.8820   34.5280 H   0  0  0  0  0  0  0  0  0  0  0  0
   33.9120   29.2960   34.4040 H   0  0  0  0  0  0  0  0  0  0  0  0
   37.7240   27.9140   40.6040 C   0  0  0  0  0  0  0  0  0  0  0  0
   37.7210   28.9710   41.5160 C   0  0  0  0  0  0  0  0  0  0  0  0
   37.0350   30.1390   41.1390 C   0  0  0  0  0  0  0  0  0  0  0  0
   36.4190   30.1990   39.9440 N   0  0  0  0  0  0  0  0  0  0  0  0
   36.4440   29.1640   39.0980 C   0  0  0  0  0  0  0  0  0  0  0  0
   37.0920   28.0190   39.4170 N   0  0  0  0  0  0  0  0  0  0  0  0
   37.0510   30.9320   41.8580 H   0  0  0  0  0  0  0  0  0  0  0  0
   38.4170   28.8240   42.8000 C   0  0  0  0  0  0  0  0  0  0  0  0
   39.7200   28.3990   42.5940 F   0  0  0  0  0  0  0  0  0  0  0  0
   38.4940   30.0780   43.3880 F   0  0  0  0  0  0  0  0  0  0  0  0
   37.8330   27.9780   43.6800 F   0  0  0  0  0  0  0  0  0  0  0  0
   38.3840   26.7890   40.9570 O   0  0  0  0  0  0  0  0  0  0  0  0
   37.8200   25.5960   41.4540 C   0  0  0  0  0  0  0  0  0  0  0  0
   38.7080   25.0730   42.3720 F   0  0  0  0  0  0  0  0  0  0  0  0
   36.5850   25.8610   41.9910 F   0  0  0  0  0  0  0  0  0  0  0  0
   37.7560   24.6650   40.4410 F   0  0  0  0  0  0  0  0  0  0  0  0
   32.2770   28.5450   36.4080 C   0  0  0  0  0  0  0  0  0  0  0  0
   32.0210   28.0650   35.4680 H   0  0  0  0  0  0  0  0  0  0  0  0
   32.1620   27.7950   37.2460 H   0  0  0  0  0  0  0  0  0  0  0  0
   31.4280   29.7300   36.7350 C   0  0  0  0  0  0  0  0  0  0  0  0
   31.0200   29.8860   38.0430 C   0  0  0  0  0  0  0  0  0  0  0  0
   31.3410   29.1920   38.8230 H   0  0  0  0  0  0  0  0  0  0  0  0
   30.1970   30.9410   38.3410 C   0  0  0  0  0  3  0  0  0  0  0  0
   29.7400   31.8660   37.4290 C   0  0  0  0  0  3  0  0  0  0  0  0
   30.1700   31.6830   36.1200 C   0  0  0  0  0  0  0  0  0  0  0  0
   29.7600   32.5780   35.1560 C   0  0  0  0  0  3  0  0  0  0  0  0
   30.1470   32.4820   33.8140 C   0  0  0  0  0  3  0  0  0  0  0  0
   30.9750   31.4030   33.5810 C   0  0  0  0  0  3  0  0  0  0  0  0
   31.4340   30.4630   34.4710 C   0  0  0  0  0  3  0  0  0  0  0  0
   31.0000   30.6340   35.7780 C   0  0  0  0  0  0  0  0  0  0  0  0
  2  3  1  0  0  0  0
  2  1  1  0  0  0  0
  3 15  1  0  0  0  0
  4  8  1  0  0  0  0
  4  3  2  0  0  0  0
  5  4  1  0  0  0  0
  6  5  2  0  0  0  0
  6  7  1  0  0  0  0
  7  2  2  0  0  0  0
  9  5  1  0  0  0  0
 10  6  1  0  0  0  0
 11 22  1  0  0  0  0
 11 12  1  0  0  0  0
 12 18  1  0  0  0  0
 13 12  2  0  0  0  0
 13 17  1  0  0  0  0
 14 13  1  0  0  0  0
 15 16  1  0  0  0  0
 15 14  2  0  0  0  0
 16 11  2  0  0  0  0
 18 20  1  0  0  0  0
 18 21  1  0  0  0  0
 19 18  1  0  0  0  0
 22 23  1  0  0  0  0
 23 25  1  0  0  0  0
 23 24  1  0  0  0  0
 26 23  1  0  0  0  0
 27  7  1  0  0  0  0
 27 30  1  0  0  0  0
 27 29  1  0  0  0  0
 28 27  1  0  0  0  0
 30 31  1  0  0  0  0
 31 33  2  0  0  0  0
 31 32  1  0  0  0  0
 34 33  1  0  0  0  0
 35 34  2  0  0  0  0
 36 35  1  0  0  0  0
 37 36  2  0  0  0  0
 38 37  1  0  0  0  0
 38 39  2  0  0  0  0
 39 40  1  0  0  0  0
 40 35  1  0  0  0  0
 40 30  2  0  0  0  0
M  END
>  <minimizedAffinity>
-7.12870312

$$$$

 OpenBabel03252504193D

 40 43  0  0  0  0  0  0  0  0999 V2000
   37.1120   28.0940   40.8020 F   0  0  0  0  0  0  0  0  0  0  0  0
   36.9440   26.7340   40.8630 C   0  0  0  0  0  0  0  0  0  0  0  0
   36.5680   26.0360   39.7320 C   0  0  0  0  0  0  0  0  0  0  0  0
   36.4220   24.6670   39.8910 C   0  0  0  0  0  0  0  0  0  0  0  0
   36.6380   24.0550   41.1030 C   0  0  0  0  0  0  0  0  0  0  0  0
   37.0110   24.8110   42.1980 C   0  0  0  0  0  0  0  0  0  0  0  0
   37.1750   26.1850   42.1020 C   0  0  0  0  0  0  0  0  0  0  0  0
   36.1280   24.1240   39.0040 H   0  0  0  0  0  0  0  0  0  0  0  0
   36.5100   22.9780   41.1720 H   0  0  0  0  0  0  0  0  0  0  0  0
   37.1870   24.3550   43.1580 H   0  0  0  0  0  0  0  0  0  0  0  0
   36.8620   28.5320   37.0750 C   0  0  0  0  0  0  0  0  0  0  0  0
   35.9770   28.0750   36.0970 C   0  0  0  0  0  0  0  0  0  0  0  0
   35.2780   26.8860   36.3720 C   0  0  0  0  0  0  0  0  0  0  0  0
   35.4790   26.2450   37.5380 N   0  0  0  0  0  0  0  0  0  0  0  0
   36.3350   26.7160   38.4510 C   0  0  0  0  0  0  0  0  0  0  0  0
   37.0300   27.8560   38.2300 N   0  0  0  0  0  0  0  0  0  0  0  0
   34.6080   26.5600   35.6040 H   0  0  0  0  0  0  0  0  0  0  0  0
   35.8150   28.8350   34.8510 C   0  0  0  0  0  0  0  0  0  0  0  0
   37.0110   28.8710   34.1520 F   0  0  0  0  0  0  0  0  0  0  0  0
   34.9060   28.1550   34.0540 F   0  0  0  0  0  0  0  0  0  0  0  0
   35.3780   30.1060   35.0040 F   0  0  0  0  0  0  0  0  0  0  0  0
   37.5400   29.6720   36.8170 O   0  0  0  0  0  0  0  0  0  0  0  0
   37.6630   30.7950   37.6610 C   0  0  0  0  0  0  0  0  0  0  0  0
   38.1020   31.8470   36.8830 F   0  0  0  0  0  0  0  0  0  0  0  0
   36.4570   31.0440   38.2710 F   0  0  0  0  0  0  0  0  0  0  0  0
   38.6690   30.5730   38.5730 F   0  0  0  0  0  0  0  0  0  0  0  0
   37.5920   27.0140   43.2780 C   0  0  0  0  0  0  0  0  0  0  0  0
   37.0440   27.9510   43.3300 H   0  0  0  0  0  0  0  0  0  0  0  0
   37.3030   26.3720   44.1630 H   0  0  0  0  0  0  0  0  0  0  0  0
   39.0770   27.1790   43.2980 C   0  0  0  0  0  0  0  0  0  0  0  0
   39.8410   26.0720   43.6020 C   0  0  0  0  0  0  0  0  0  0  0  0
   39.3810   25.0980   43.7820 H   0  0  0  0  0  0  0  0  0  0  0  0
   41.2010   26.2260   43.6760 C   0  0  0  0  0  3  0  0  0  0  0  0
   41.8720   27.4110   43.4670 C   0  0  0  0  0  3  0  0  0  0  0  0
   41.0740   28.5080   43.1600 C   0  0  0  0  0  0  0  0  0  0  0  0
   41.6790   29.7240   42.9280 C   0  0  0  0  0  3  0  0  0  0  0  0
   40.9620   30.8810   42.6050 C   0  0  0  0  0  3  0  0  0  0  0  0
   39.6020   30.6580   42.5460 C   0  0  0  0  0  3  0  0  0  0  0  0
   38.9120   29.4910   42.7600 C   0  0  0  0  0  3  0  0  0  0  0  0
   39.7010   28.3950   43.0760 C   0  0  0  0  0  0  0  0  0  0  0  0
  1  2  1  0  0  0  0
  2  7  1  0  0  0  0
  3  4  1  0  0  0  0
  3  2  2  0  0  0  0
  4  5  2  0  0  0  0
  5  9  1  0  0  0  0
  5  6  1  0  0  0  0
  6 10  1  0  0  0  0
  7  6  2  0  0  0  0
  7 27  1  0  0  0  0
  8  4  1  0  0  0  0
 11 16  1  0  0  0  0
 12 13  1  0  0  0  0
 12 11  2  0  0  0  0
 13 14  2  0  0  0  0
 14 15  1  0  0  0  0
 15  3  1  0  0  0  0
 16 15  2  0  0  0  0
 17 13  1  0  0  0  0
 18 21  1  0  0  0  0
 18 12  1  0  0  0  0
 19 18  1  0  0  0  0
 20 18  1  0  0  0  0
 22 11  1  0  0  0  0
 22 23  1  0  0  0  0
 23 25  1  0  0  0  0
 23 26  1  0  0  0  0
 24 23  1  0  0  0  0
 27 30  1  0  0  0  0
 27 28  1  0  0  0  0
 27 29  1  0  0  0  0
 30 31  1  0  0  0  0
 31 33  2  0  0  0  0
 31 32  1  0  0  0  0
 34 33  1  0  0  0  0
 35 34  2  0  0  0  0
 36 35  1  0  0  0  0
 37 36  2  0  0  0  0
 38 37  1  0  0  0  0
 38 39  2  0  0  0  0
 39 40  1  0  0  0  0
 40 35  1  0  0  0  0
 40 30  2  0  0  0  0
M  END
>  <minimizedAffinity>
-6.93059301

$$$$

 OpenBabel03252504193D

 40 43  0  0  0  0  0  0  0  0999 V2000
   35.3600   29.5340   37.7120 F   0  0  0  0  0  0  0  0  0  0  0  0
   35.0200   28.2160   37.5390 C   0  0  0  0  0  0  0  0  0  0  0  0
   33.8380   27.8880   36.9040 C   0  0  0  0  0  0  0  0  0  0  0  0
   33.5810   26.5330   36.7760 C   0  0  0  0  0  0  0  0  0  0  0  0
   34.4520   25.5840   37.2570 C   0  0  0  0  0  0  0  0  0  0  0  0
   35.6170   25.9780   37.8850 C   0  0  0  0  0  0  0  0  0  0  0  0
   35.9330   27.3200   38.0430 C   0  0  0  0  0  0  0  0  0  0  0  0
   32.6550   26.2800   36.2780 H   0  0  0  0  0  0  0  0  0  0  0  0
   34.2010   24.5340   37.1300 H   0  0  0  0  0  0  0  0  0  0  0  0
   36.3170   25.2550   38.2700 H   0  0  0  0  0  0  0  0  0  0  0  0
   31.2330   30.4550   36.9270 C   0  0  0  0  0  0  0  0  0  0  0  0
   31.1580   30.8580   35.5920 C   0  0  0  0  0  0  0  0  0  0  0  0
   32.0270   30.2260   34.6840 C   0  0  0  0  0  0  0  0  0  0  0  0
   32.8790   29.2800   35.1190 N   0  0  0  0  0  0  0  0  0  0  0  0
   32.9200   28.9210   36.4060 C   0  0  0  0  0  0  0  0  0  0  0  0
   32.1030   29.5010   37.3160 N   0  0  0  0  0  0  0  0  0  0  0  0
   31.9470   30.5560   33.6690 H   0  0  0  0  0  0  0  0  0  0  0  0
   30.1990   31.8980   35.2000 C   0  0  0  0  0  0  0  0  0  0  0  0
   30.4290   32.2940   33.8920 F   0  0  0  0  0  0  0  0  0  0  0  0
   28.9300   31.3390   35.2300 F   0  0  0  0  0  0  0  0  0  0  0  0
   30.1950   33.0030   35.9790 F   0  0  0  0  0  0  0  0  0  0  0  0
   30.4040   31.0590   37.8070 O   0  0  0  0  0  0  0  0  0  0  0  0
   29.4530   30.4360   38.6400 C   0  0  0  0  0  0  0  0  0  0  0  0
   28.7010   31.4360   39.2230 F   0  0  0  0  0  0  0  0  0  0  0  0
   28.7000   29.5590   37.9000 F   0  0  0  0  0  0  0  0  0  0  0  0
   30.0990   29.8130   39.6830 F   0  0  0  0  0  0  0  0  0  0  0  0
   37.2000   27.7600   38.7100 C   0  0  0  0  0  0  0  0  0  0  0  0
   38.0820   27.3880   38.1940 H   0  0  0  0  0  0  0  0  0  0  0  0
   37.1660   28.8860   38.6100 H   0  0  0  0  0  0  0  0  0  0  0  0
   37.1650   27.4280   40.1660 C   0  0  0  0  0  0  0  0  0  0  0  0
   36.3670   28.2030   40.9810 C   0  0  0  0  0  0  0  0  0  0  0  0
   35.7490   29.0050   40.5720 H   0  0  0  0  0  0  0  0  0  0  0  0
   36.3690   27.9390   42.3270 C   0  0  0  0  0  3  0  0  0  0  0  0
   37.1130   26.9520   42.9340 C   0  0  0  0  0  3  0  0  0  0  0  0
   37.9050   26.1870   42.0860 C   0  0  0  0  0  0  0  0  0  0  0  0
   38.6680   25.1750   42.6250 C   0  0  0  0  0  3  0  0  0  0  0  0
   39.4900   24.3460   41.8510 C   0  0  0  0  0  3  0  0  0  0  0  0
   39.4410   24.6620   40.5090 C   0  0  0  0  0  3  0  0  0  0  0  0
   38.7160   25.6470   39.8830 C   0  0  0  0  0  3  0  0  0  0  0  0
   37.9310   26.4200   40.7250 C   0  0  0  0  0  0  0  0  0  0  0  0
  2  1  1  0  0  0  0
  2  7  1  0  0  0  0
  3  2  2  0  0  0  0
  4  3  1  0  0  0  0
  4  5  2  0  0  0  0
  5  6  1  0  0  0  0
  6  7  2  0  0  0  0
  6 10  1  0  0  0  0
  7 27  1  0  0  0  0
  8  4  1  0  0  0  0
  9  5  1  0  0  0  0
 11 16  1  0  0  0  0
 11 22  1  0  0  0  0
 12 11  2  0  0  0  0
 13 14  2  0  0  0  0
 13 12  1  0  0  0  0
 14 15  1  0  0  0  0
 15  3  1  0  0  0  0
 15 16  2  0  0  0  0
 17 13  1  0  0  0  0
 18 20  1  0  0  0  0
 18 12  1  0  0  0  0
 18 21  1  0  0  0  0
 19 18  1  0  0  0  0
 22 23  1  0  0  0  0
 23 24  1  0  0  0  0
 23 26  1  0  0  0  0
 25 23  1  0  0  0  0
 27 30  1  0  0  0  0
 28 27  1  0  0  0  0
 29 27  1  0  0  0  0
 30 40  2  0  0  0  0
 30 31  1  0  0  0  0
 31 33  2  0  0  0  0
 32 31  1  0  0  0  0
 33 34  1  0  0  0  0
 35 36  1  0  0  0  0
 35 34  2  0  0  0  0
 37 36  2  0  0  0  0
 38 37  1  0  0  0  0
 39 38  2  0  0  0  0
 39 40  1  0  0  0  0
 40 35  1  0  0  0  0
M  END
>  <minimizedAffinity>
-6.85760593

$$$$

 OpenBabel03252504193D

 40 43  0  0  0  0  0  0  0  0999 V2000
   33.4700   27.1400   37.5340 F   0  0  0  0  0  0  0  0  0  0  0  0
   34.3630   27.9370   36.8630 C   0  0  0  0  0  0  0  0  0  0  0  0
   35.6820   27.9860   37.2700 C   0  0  0  0  0  0  0  0  0  0  0  0
   36.5080   28.8180   36.5320 C   0  0  0  0  0  0  0  0  0  0  0  0
   36.0340   29.5460   35.4660 C   0  0  0  0  0  0  0  0  0  0  0  0
   34.7020   29.4540   35.1110 C   0  0  0  0  0  0  0  0  0  0  0  0
   33.8250   28.6370   35.8090 C   0  0  0  0  0  0  0  0  0  0  0  0
   37.5400   28.8540   36.8530 H   0  0  0  0  0  0  0  0  0  0  0  0
   36.7250   30.1830   34.9220 H   0  0  0  0  0  0  0  0  0  0  0  0
   34.3060   30.0120   34.2790 H   0  0  0  0  0  0  0  0  0  0  0  0
   36.6040   27.1710   40.7140 C   0  0  0  0  0  0  0  0  0  0  0  0
   37.0450   25.8490   40.6310 C   0  0  0  0  0  0  0  0  0  0  0  0
   37.0160   25.2440   39.3620 C   0  0  0  0  0  0  0  0  0  0  0  0
   36.5760   25.9390   38.2970 N   0  0  0  0  0  0  0  0  0  0  0  0
   36.1620   27.2050   38.4180 C   0  0  0  0  0  0  0  0  0  0  0  0
   36.1720   27.8290   39.6190 N   0  0  0  0  0  0  0  0  0  0  0  0
   37.3590   24.2300   39.3300 H   0  0  0  0  0  0  0  0  0  0  0  0
   37.5100   25.1610   41.8420 C   0  0  0  0  0  0  0  0  0  0  0  0
   36.4780   25.0560   42.7610 F   0  0  0  0  0  0  0  0  0  0  0  0
   37.8620   23.8670   41.4870 F   0  0  0  0  0  0  0  0  0  0  0  0
   38.5680   25.7340   42.4610 F   0  0  0  0  0  0  0  0  0  0  0  0
   36.6250   27.7590   41.9300 O   0  0  0  0  0  0  0  0  0  0  0  0
   37.4500   28.8250   42.3430 C   0  0  0  0  0  0  0  0  0  0  0  0
   38.6470   28.7050   41.6660 F   0  0  0  0  0  0  0  0  0  0  0  0
   36.8130   30.0180   42.1000 F   0  0  0  0  0  0  0  0  0  0  0  0
   37.7680   28.6690   43.6730 F   0  0  0  0  0  0  0  0  0  0  0  0
   32.3810   28.5170   35.4250 C   0  0  0  0  0  0  0  0  0  0  0  0
   32.2530   28.4200   34.3500 H   0  0  0  0  0  0  0  0  0  0  0  0
   32.0620   27.5520   35.9210 H   0  0  0  0  0  0  0  0  0  0  0  0
   31.5880   29.6290   36.0320 C   0  0  0  0  0  0  0  0  0  0  0  0
   31.4460   29.6410   37.4030 C   0  0  0  0  0  0  0  0  0  0  0  0
   31.9320   28.8900   38.0300 H   0  0  0  0  0  0  0  0  0  0  0  0
   30.6760   30.6260   37.9640 C   0  0  0  0  0  3  0  0  0  0  0  0
   30.0250   31.6150   37.2600 C   0  0  0  0  0  3  0  0  0  0  0  0
   30.1890   31.5760   35.8790 C   0  0  0  0  0  0  0  0  0  0  0  0
   29.5740   32.5410   35.1120 C   0  0  0  0  0  3  0  0  0  0  0  0
   29.6870   32.5900   33.7170 C   0  0  0  0  0  3  0  0  0  0  0  0
   30.4750   31.5740   33.2170 C   0  0  0  0  0  3  0  0  0  0  0  0
   31.1240   30.5740   33.8990 C   0  0  0  0  0  3  0  0  0  0  0  0
   30.9560   30.6010   35.2750 C   0  0  0  0  0  0  0  0  0  0  0  0
  2  3  1  0  0  0  0
  2  1  1  0  0  0  0
  3 15  1  0  0  0  0
  4  8  1  0  0  0  0
  4  3  2  0  0  0  0
  5  4  1  0  0  0  0
  6  5  2  0  0  0  0
  6  7  1  0  0  0  0
  7  2  2  0  0  0  0
  9  5  1  0  0  0  0
 10  6  1  0  0  0  0
 11 22  1  0  0  0  0
 12 11  1  0  0  0  0
 12 18  1  0  0  0  0
 13 12  2  0  0  0  0
 14 15  2  0  0  0  0
 14 13  1  0  0  0  0
 15 16  1  0  0  0  0
 16 11  2  0  0  0  0
 17 13  1  0  0  0  0
 18 21  1  0  0  0  0
 18 19  1  0  0  0  0
 20 18  1  0  0  0  0
 22 23  1  0  0  0  0
 23 26  1  0  0  0  0
 24 23  1  0  0  0  0
 25 23  1  0  0  0  0
 27  7  1  0  0  0  0
 27 29  1  0  0  0  0
 27 30  1  0  0  0  0
 28 27  1  0  0  0  0
 30 31  1  0  0  0  0
 31 33  2  0  0  0  0
 31 32  1  0  0  0  0
 34 33  1  0  0  0  0
 35 34  2  0  0  0  0
 36 35  1  0  0  0  0
 37 36  2  0  0  0  0
 38 37  1  0  0  0  0
 38 39  2  0  0  0  0
 39 40  1  0  0  0  0
 40 35  1  0  0  0  0
 40 30  2  0  0  0  0
M  END
>  <minimizedAffinity>
-6.80105877

$$$$

 OpenBabel03252504193D

 40 43  0  0  0  0  0  0  0  0999 V2000
   35.7560   28.0830   40.7990 F   0  0  0  0  0  0  0  0  0  0  0  0
   36.5280   29.2050   40.6360 C   0  0  0  0  0  0  0  0  0  0  0  0
   36.4480   29.9310   39.4630 C   0  0  0  0  0  0  0  0  0  0  0  0
   37.2650   31.0470   39.3910 C   0  0  0  0  0  0  0  0  0  0  0  0
   38.1000   31.3990   40.4260 C   0  0  0  0  0  0  0  0  0  0  0  0
   38.1330   30.6300   41.5730 C   0  0  0  0  0  0  0  0  0  0  0  0
   37.3380   29.5010   41.7070 C   0  0  0  0  0  0  0  0  0  0  0  0
   37.2010   31.6130   38.4720 H   0  0  0  0  0  0  0  0  0  0  0  0
   38.7200   32.2850   40.3170 H   0  0  0  0  0  0  0  0  0  0  0  0
   38.7770   30.8850   42.3980 H   0  0  0  0  0  0  0  0  0  0  0  0
   35.2840   29.2640   36.0610 C   0  0  0  0  0  0  0  0  0  0  0  0
   33.9760   28.8110   36.2450 C   0  0  0  0  0  0  0  0  0  0  0  0
   33.5050   28.7390   37.5680 C   0  0  0  0  0  0  0  0  0  0  0  0
   34.3080   29.0990   38.5870 N   0  0  0  0  0  0  0  0  0  0  0  0
   35.5550   29.5280   38.3690 C   0  0  0  0  0  0  0  0  0  0  0  0
   36.0520   29.6150   37.1130 N   0  0  0  0  0  0  0  0  0  0  0  0
   32.5000   28.3870   37.6780 H   0  0  0  0  0  0  0  0  0  0  0  0
   33.1650   28.4380   35.0800 C   0  0  0  0  0  0  0  0  0  0  0  0
   32.0470   27.7250   35.4810 F   0  0  0  0  0  0  0  0  0  0  0  0
   32.7030   29.6070   34.4920 F   0  0  0  0  0  0  0  0  0  0  0  0
   33.8090   27.7150   34.1360 F   0  0  0  0  0  0  0  0  0  0  0  0
   35.7460   29.3330   34.7930 O   0  0  0  0  0  0  0  0  0  0  0  0
   36.1430   30.4940   34.0970 C   0  0  0  0  0  0  0  0  0  0  0  0
   34.9960   31.1080   33.6350 F   0  0  0  0  0  0  0  0  0  0  0  0
   36.8840   31.2960   34.9300 F   0  0  0  0  0  0  0  0  0  0  0  0
   36.8420   30.1320   32.9680 F   0  0  0  0  0  0  0  0  0  0  0  0
   37.3550   28.6660   42.9510 C   0  0  0  0  0  0  0  0  0  0  0  0
   37.3280   29.2750   43.8500 H   0  0  0  0  0  0  0  0  0  0  0  0
   36.3920   28.0770   42.8790 H   0  0  0  0  0  0  0  0  0  0  0  0
   38.4900   27.6950   42.9100 C   0  0  0  0  0  0  0  0  0  0  0  0
   39.7500   28.1690   43.2120 C   0  0  0  0  0  0  0  0  0  0  0  0
   39.9080   29.2070   43.5110 H   0  0  0  0  0  0  0  0  0  0  0  0
   40.8050   27.2980   43.1250 C   0  0  0  0  0  3  0  0  0  0  0  0
   40.7060   25.9750   42.7580 C   0  0  0  0  0  3  0  0  0  0  0  0
   39.4230   25.5260   42.4620 C   0  0  0  0  0  0  0  0  0  0  0  0
   39.2480   24.2100   42.0970 C   0  0  0  0  0  3  0  0  0  0  0  0
   37.9960   23.6650   41.7900 C   0  0  0  0  0  3  0  0  0  0  0  0
   36.9790   24.5910   41.8970 C   0  0  0  0  0  3  0  0  0  0  0  0
   37.0560   25.9150   42.2510 C   0  0  0  0  0  3  0  0  0  0  0  0
   38.3340   26.3710   42.5370 C   0  0  0  0  0  0  0  0  0  0  0  0
  2  1  1  0  0  0  0
  2  7  1  0  0  0  0
  3  2  2  0  0  0  0
  4  3  1  0  0  0  0
  4  5  2  0  0  0  0
  5  6  1  0  0  0  0
  6  7  2  0  0  0  0
  6 10  1  0  0  0  0
  7 27  1  0  0  0  0
  8  4  1  0  0  0  0
  9  5  1  0  0  0  0
 11 12  2  0  0  0  0
 11 16  1  0  0  0  0
 12 13  1  0  0  0  0
 13 17  1  0  0  0  0
 13 14  2  0  0  0  0
 15 14  1  0  0  0  0
 15  3  1  0  0  0  0
 16 15  2  0  0  0  0
 18 19  1  0  0  0  0
 18 12  1  0  0  0  0
 20 18  1  0  0  0  0
 21 18  1  0  0  0  0
 22 11  1  0  0  0  0
 23 22  1  0  0  0  0
 23 25  1  0  0  0  0
 24 23  1  0  0  0  0
 26 23  1  0  0  0  0
 27 28  1  0  0  0  0
 29 27  1  0  0  0  0
 30 27  1  0  0  0  0
 30 31  1  0  0  0  0
 31 32  1  0  0  0  0
 33 31  2  0  0  0  0
 34 33  1  0  0  0  0
 35 40  1  0  0  0  0
 35 34  2  0  0  0  0
 36 35  1  0  0  0  0
 37 38  1  0  0  0  0
 37 36  2  0  0  0  0
 38 39  2  0  0  0  0
 39 40  1  0  0  0  0
 40 30  2  0  0  0  0
M  END
>  <minimizedAffinity>
-6.78390646

$$$$

 OpenBabel03252504193D

 40 43  0  0  0  0  0  0  0  0999 V2000
   35.3600   28.3790   37.1850 F   0  0  0  0  0  0  0  0  0  0  0  0
   34.7110   27.1750   37.0800 C   0  0  0  0  0  0  0  0  0  0  0  0
   33.4140   27.1300   36.6080 C   0  0  0  0  0  0  0  0  0  0  0  0
   32.8420   25.8700   36.5380 C   0  0  0  0  0  0  0  0  0  0  0  0
   33.5310   24.7430   36.9190 C   0  0  0  0  0  0  0  0  0  0  0  0
   34.8270   24.8550   37.3850 C   0  0  0  0  0  0  0  0  0  0  0  0
   35.4550   26.0880   37.4770 C   0  0  0  0  0  0  0  0  0  0  0  0
   31.8260   25.8400   36.1670 H   0  0  0  0  0  0  0  0  0  0  0  0
   33.0350   23.7790   36.8440 H   0  0  0  0  0  0  0  0  0  0  0  0
   35.3880   23.9870   37.6880 H   0  0  0  0  0  0  0  0  0  0  0  0
   31.2860   30.0930   36.8840 C   0  0  0  0  0  0  0  0  0  0  0  0
   31.3090   30.6340   35.5970 C   0  0  0  0  0  0  0  0  0  0  0  0
   32.0760   29.9550   34.6320 C   0  0  0  0  0  0  0  0  0  0  0  0
   32.7440   28.8380   34.9710 N   0  0  0  0  0  0  0  0  0  0  0  0
   32.6960   28.3510   36.2150 C   0  0  0  0  0  0  0  0  0  0  0  0
   31.9720   28.9690   37.1770 N   0  0  0  0  0  0  0  0  0  0  0  0
   32.0750   30.3940   33.6550 H   0  0  0  0  0  0  0  0  0  0  0  0
   30.5500   31.8570   35.3090 C   0  0  0  0  0  0  0  0  0  0  0  0
   30.7700   32.8020   36.2990 F   0  0  0  0  0  0  0  0  0  0  0  0
   31.0420   32.3940   34.1290 F   0  0  0  0  0  0  0  0  0  0  0  0
   29.2150   31.6900   35.1760 F   0  0  0  0  0  0  0  0  0  0  0  0
   30.5550   30.7390   37.8180 O   0  0  0  0  0  0  0  0  0  0  0  0
   29.6530   30.1650   38.7360 C   0  0  0  0  0  0  0  0  0  0  0  0
   28.9650   29.1700   38.0700 F   0  0  0  0  0  0  0  0  0  0  0  0
   30.3440   29.7010   39.8290 F   0  0  0  0  0  0  0  0  0  0  0  0
   28.7000   31.0950   39.0830 F   0  0  0  0  0  0  0  0  0  0  0  0
   36.8650   26.2220   37.9670 C   0  0  0  0  0  0  0  0  0  0  0  0
   37.5820   25.8240   37.2540 H   0  0  0  0  0  0  0  0  0  0  0  0
   37.0060   27.3420   38.0420 H   0  0  0  0  0  0  0  0  0  0  0  0
   36.9950   25.6500   39.3410 C   0  0  0  0  0  0  0  0  0  0  0  0
   37.1660   24.2870   39.4540 C   0  0  0  0  0  0  0  0  0  0  0  0
   37.2460   23.6510   38.5700 H   0  0  0  0  0  0  0  0  0  0  0  0
   37.2320   23.7470   40.7120 C   0  0  0  0  0  3  0  0  0  0  0  0
   37.1410   24.4650   41.8840 C   0  0  0  0  0  3  0  0  0  0  0  0
   36.9710   25.8370   41.7360 C   0  0  0  0  0  0  0  0  0  0  0  0
   36.8820   26.6200   42.8670 C   0  0  0  0  0  3  0  0  0  0  0  0
   36.7190   28.0090   42.8200 C   0  0  0  0  0  3  0  0  0  0  0  0
   36.6620   28.4890   41.5270 C   0  0  0  0  0  3  0  0  0  0  0  0
   36.7400   27.7910   40.3470 C   0  0  0  0  0  3  0  0  0  0  0  0
   36.8990   26.4210   40.4870 C   0  0  0  0  0  0  0  0  0  0  0  0
  2  1  1  0  0  0  0
  2  7  1  0  0  0  0
  3  2  2  0  0  0  0
  4  3  1  0  0  0  0
  4  5  2  0  0  0  0
  5  6  1  0  0  0  0
  6  7  2  0  0  0  0
  6 10  1  0  0  0  0
  7 27  1  0  0  0  0
  8  4  1  0  0  0  0
  9  5  1  0  0  0  0
 11 16  1  0  0  0  0
 11 22  1  0  0  0  0
 12 11  2  0  0  0  0
 13 14  2  0  0  0  0
 13 12  1  0  0  0  0
 14 15  1  0  0  0  0
 15  3  1  0  0  0  0
 15 16  2  0  0  0  0
 17 13  1  0  0  0  0
 18 12  1  0  0  0  0
 18 19  1  0  0  0  0
 20 18  1  0  0  0  0
 21 18  1  0  0  0  0
 22 23  1  0  0  0  0
 23 26  1  0  0  0  0
 23 25  1  0  0  0  0
 24 23  1  0  0  0  0
 27 29  1  0  0  0  0
 27 30  1  0  0  0  0
 28 27  1  0  0  0  0
 30 31  2  0  0  0  0
 30 40  1  0  0  0  0
 31 33  1  0  0  0  0
 32 31  1  0  0  0  0
 33 34  2  0  0  0  0
 35 34  1  0  0  0  0
 35 36  1  0  0  0  0
 37 36  2  0  0  0  0
 38 37  1  0  0  0  0
 39 40  1  0  0  0  0
 39 38  2  0  0  0  0
 40 35  2  0  0  0  0
M  END
>  <minimizedAffinity>
-6.78156805

$$$$

 OpenBabel03252504193D

 40 43  0  0  0  0  0  0  0  0999 V2000
   33.6500   28.9130   38.9790 F   0  0  0  0  0  0  0  0  0  0  0  0
   34.3230   29.0400   37.7900 C   0  0  0  0  0  0  0  0  0  0  0  0
   35.6840   29.2780   37.7910 C   0  0  0  0  0  0  0  0  0  0  0  0
   36.2750   29.3920   36.5440 C   0  0  0  0  0  0  0  0  0  0  0  0
   35.5440   29.2770   35.3850 C   0  0  0  0  0  0  0  0  0  0  0  0
   34.1850   29.0400   35.4520 C   0  0  0  0  0  0  0  0  0  0  0  0
   33.5340   28.9150   36.6700 C   0  0  0  0  0  0  0  0  0  0  0  0
   37.3410   29.5770   36.5490 H   0  0  0  0  0  0  0  0  0  0  0  0
   36.0590   29.3740   34.4330 H   0  0  0  0  0  0  0  0  0  0  0  0
   33.5900   28.9440   34.5590 H   0  0  0  0  0  0  0  0  0  0  0  0
   37.6060   28.3050   40.7470 C   0  0  0  0  0  0  0  0  0  0  0  0
   37.8610   29.5200   41.3870 C   0  0  0  0  0  0  0  0  0  0  0  0
   37.3570   30.6820   40.7750 C   0  0  0  0  0  0  0  0  0  0  0  0
   36.6650   30.5880   39.6250 N   0  0  0  0  0  0  0  0  0  0  0  0
   36.4410   29.4050   39.0440 C   0  0  0  0  0  0  0  0  0  0  0  0
   36.9060   28.2600   39.5950 N   0  0  0  0  0  0  0  0  0  0  0  0
   37.5690   31.5980   41.2880 H   0  0  0  0  0  0  0  0  0  0  0  0
   38.6250   29.5350   42.6400 C   0  0  0  0  0  0  0  0  0  0  0  0
   39.1570   30.7950   42.8620 F   0  0  0  0  0  0  0  0  0  0  0  0
   37.7400   29.2870   43.6790 F   0  0  0  0  0  0  0  0  0  0  0  0
   39.6310   28.6340   42.7140 F   0  0  0  0  0  0  0  0  0  0  0  0
   38.0890   27.1840   41.3260 O   0  0  0  0  0  0  0  0  0  0  0  0
   37.3530   26.2040   42.0230 C   0  0  0  0  0  0  0  0  0  0  0  0
   36.4790   26.8660   42.8620 F   0  0  0  0  0  0  0  0  0  0  0  0
   36.7170   25.3830   41.1240 F   0  0  0  0  0  0  0  0  0  0  0  0
   38.1970   25.5050   42.8560 F   0  0  0  0  0  0  0  0  0  0  0  0
   32.0630   28.6450   36.7570 C   0  0  0  0  0  0  0  0  0  0  0  0
   31.8540   27.6110   37.0210 H   0  0  0  0  0  0  0  0  0  0  0  0
   31.7270   29.3140   37.6040 H   0  0  0  0  0  0  0  0  0  0  0  0
   31.3760   29.1020   35.5110 C   0  0  0  0  0  0  0  0  0  0  0  0
   31.3790   28.2500   34.4270 C   0  0  0  0  0  0  0  0  0  0  0  0
   31.8300   27.2570   34.4880 H   0  0  0  0  0  0  0  0  0  0  0  0
   30.7980   28.6830   33.2640 C   0  0  0  0  0  3  0  0  0  0  0  0
   30.2050   29.9140   33.0900 C   0  0  0  0  0  3  0  0  0  0  0  0
   30.2160   30.7490   34.2010 C   0  0  0  0  0  0  0  0  0  0  0  0
   29.6320   31.9930   34.1020 C   0  0  0  0  0  3  0  0  0  0  0  0
   29.5860   32.9000   35.1670 C   0  0  0  0  0  3  0  0  0  0  0  0
   30.1860   32.4030   36.3070 C   0  0  0  0  0  3  0  0  0  0  0  0
   30.7900   31.1850   36.4990 C   0  0  0  0  0  3  0  0  0  0  0  0
   30.7910   30.3510   35.3920 C   0  0  0  0  0  0  0  0  0  0  0  0
  2  3  1  0  0  0  0
  2  1  1  0  0  0  0
  3 15  1  0  0  0  0
  4  8  1  0  0  0  0
  4  3  2  0  0  0  0
  5  6  2  0  0  0  0
  5  4  1  0  0  0  0
  6  7  1  0  0  0  0
  7 27  1  0  0  0  0
  7  2  2  0  0  0  0
  9  5  1  0  0  0  0
 10  6  1  0  0  0  0
 11 22  1  0  0  0  0
 11 12  1  0  0  0  0
 12 18  1  0  0  0  0
 13 17  1  0  0  0  0
 13 12  2  0  0  0  0
 14 13  1  0  0  0  0
 15 16  1  0  0  0  0
 15 14  2  0  0  0  0
 16 11  2  0  0  0  0
 18 21  1  0  0  0  0
 18 19  1  0  0  0  0
 18 20  1  0  0  0  0
 22 23  1  0  0  0  0
 23 26  1  0  0  0  0
 23 24  1  0  0  0  0
 25 23  1  0  0  0  0
 27 28  1  0  0  0  0
 27 29  1  0  0  0  0
 30 27  1  0  0  0  0
 31 32  1  0  0  0  0
 31 30  2  0  0  0  0
 33 31  1  0  0  0  0
 34 33  2  0  0  0  0
 34 35  1  0  0  0  0
 35 40  1  0  0  0  0
 36 35  2  0  0  0  0
 36 37  1  0  0  0  0
 37 38  2  0  0  0  0
 38 39  1  0  0  0  0
 40 30  1  0  0  0  0
 40 39  2  0  0  0  0
M  END
>  <minimizedAffinity>
-6.73396206

$$$$
