REMARK  Name = 
REMARK  3 active torsions:
REMARK  status: ('A' for Active; 'I' for Inactive)
REMARK    1  A    between atoms: C_2  and  C_7
REMARK    2  A    between atoms: C_7  and  C_8
REMARK    3  A    between atoms: C_7  and  C_16
REMARK                            x       y       z     vdW  Elec       q    Type
REMARK                         _______ _______ _______ _____ _____    ______ ____
ROOT
ATOM      1  C   UNL     1      46.561  34.958  42.006  0.00  0.00    +0.000 C 
ATOM      2  H   UNL     1      46.127  35.962  41.784  0.00  0.00    +0.000 HD
ENDROOT
BRANCH   1   3
ATOM      3  C   UNL     1      46.221  33.969  40.960  0.00  0.00    +0.000 A 
ATOM      4  C   UNL     1      46.428  34.335  39.621  0.00  0.00    +0.000 A 
ATOM      5  H   UNL     1      46.817  35.334  39.397  0.00  0.00    +0.000 HD
ATOM      6  C   UNL     1      46.184  33.536  38.534  0.00  0.00    +0.000 A 
ATOM      7  C   UNL     1      45.694  32.268  38.763  0.00  0.00    +0.000 A 
ATOM      8  C   UNL     1      45.468  31.848  40.054  0.00  0.00    +0.000 A 
ATOM      9  C   UNL     1      44.977  30.599  40.302  0.00  0.00    +0.000 A 
ATOM     10  C   UNL     1      44.748  30.195  41.601  0.00  0.00    +0.000 A 
ATOM     11  C   UNL     1      45.007  31.031  42.667  0.00  0.00    +0.000 A 
ATOM     12  C   UNL     1      45.502  32.288  42.395  0.00  0.00    +0.000 A 
ATOM     13  C   UNL     1      45.730  32.690  41.110  0.00  0.00    +0.000 A 
ENDBRANCH   1   3
BRANCH   1  15
ATOM     14  C   UNL     1      45.191  35.212  44.064  0.00  0.00    +0.000 A 
ATOM     15  C   UNL     1      46.213  34.590  43.360  0.00  0.00    +0.000 A 
ATOM     16  C   UNL     1      46.892  33.566  44.054  0.00  0.00    +0.000 A 
ATOM     17  N   UNL     1      46.524  33.252  45.329  0.00  0.00    +0.000 NA
ATOM     18  C   UNL     1      45.512  33.909  45.945  0.00  0.00    +0.000 A 
ATOM     19  N   UNL     1      44.844  34.894  45.306  0.00  0.00    +0.000 NA
ATOM     20  H   UNL     1      44.599  36.012  43.643  0.00  0.00    +0.000 HD
ATOM     21  H   UNL     1      47.712  33.017  43.583  0.00  0.00    +0.000 HD
ATOM     22  H   UNL     1      45.391  33.497  46.952  0.00  0.00    +0.000 HD
ENDBRANCH   1  15
BRANCH   1  23
ATOM     23  C   UNL     1      48.059  35.206  41.941  0.00  0.00    +0.000 C 
ATOM     24  H   UNL     1      48.638  34.465  42.503  0.00  0.00    +0.000 HD
ATOM     25  H   UNL     1      48.288  36.210  42.402  0.00  0.00    +0.000 HD
ATOM     26  H   UNL     1      48.387  35.293  40.881  0.00  0.00    +0.000 HD
ENDBRANCH   1  23
TORSDOF 3
