
 OpenBabel03252503593D

 36 40  0  0  0  0  0  0  0  0999 V2000
   47.4070   34.7360   42.6280 C   0  0  0  0  0  0  0  0  0  0  0  0
   46.3550   35.5130   42.1650 C   0  0  0  0  0  0  0  0  0  0  0  0
   45.1350   35.3860   42.8060 C   0  0  0  0  0  0  0  0  0  0  0  0
   45.0280   34.5200   43.8430 N   0  0  0  0  0  0  0  0  0  0  0  0
   46.0900   33.7720   44.2680 C   0  0  0  0  0  0  0  0  0  0  0  0
   47.2770   33.8840   43.6580 N   0  0  0  0  0  0  0  0  0  0  0  0
   46.3940   36.2120   41.3470 H   0  0  0  0  0  0  0  0  0  0  0  0
   44.2740   35.9670   42.4900 H   0  0  0  0  0  0  0  0  0  0  0  0
   46.0820   31.4900   45.1040 C   0  0  0  0  0  0  0  0  0  0  0  0
   45.9440   32.8480   45.3870 C   0  0  0  0  0  0  0  0  0  0  0  0
   45.6830   33.2430   46.6740 C   0  0  0  0  0  0  0  0  0  0  0  0
   45.5630   32.2930   47.6600 C   0  0  0  0  0  0  0  0  0  0  0  0
   45.3150   32.3850   48.9830 N   0  0  0  0  0  0  0  0  0  0  0  0
   45.2890   31.1700   49.5440 C   0  0  0  0  0  0  0  0  0  0  0  0
   45.5260   30.2350   48.5730 C   0  0  0  0  0  0  0  0  0  0  0  0
   45.6990   30.9380   47.3870 C   0  0  0  0  0  0  0  0  0  0  0  0
   45.9610   30.5350   46.0930 C   0  0  0  0  0  0  0  0  0  0  0  0
   46.2890   31.0720   44.1130 H   0  0  0  0  0  0  0  0  0  0  0  0
   45.5790   34.2990   46.8760 H   0  0  0  0  0  0  0  0  0  0  0  0
   45.1620   33.2800   49.5130 H   0  0  0  0  0  0  0  0  0  0  0  0
   45.1110   30.9470   50.5980 H   0  0  0  0  0  0  0  0  0  0  0  0
   45.5820   29.1420   48.6460 H   0  0  0  0  0  0  0  0  0  0  0  0
   46.0620   29.4710   45.9090 H   0  0  0  0  0  0  0  0  0  0  0  0
   48.6680   34.9070   41.9160 C   0  0  0  0  0  0  0  0  0  0  0  0
   49.3240   36.0120   41.8960 O   0  0  0  0  0  0  0  0  0  0  0  0
   49.0360   33.6560   41.2600 C   0  0  0  0  0  0  0  0  0  0  0  0
   49.7200   32.6460   41.9460 C   0  0  0  0  0  0  0  0  0  0  0  0
   49.9880   32.8050   42.9990 H   0  0  0  0  0  0  0  0  0  0  0  0
   50.0930   31.4390   41.3960 C   0  0  0  0  0  3  0  0  0  0  0  0
   49.7800   31.1940   40.0800 C   0  0  0  0  0  3  0  0  0  0  0  0
   49.1050   32.1500   39.3510 C   0  0  0  0  0  0  0  0  0  0  0  0
   48.8050   31.8770   38.0330 C   0  0  0  0  0  3  0  0  0  0  0  0
   48.1330   32.7980   37.2530 C   0  0  0  0  0  3  0  0  0  0  0  0
   47.7890   33.9830   37.8650 C   0  0  0  0  0  3  0  0  0  0  0  0
   48.0920   34.2540   39.1830 C   0  0  0  0  0  3  0  0  0  0  0  0
   48.7610   33.3370   39.9630 C   0  0  0  0  0  0  0  0  0  0  0  0
  1  6  1  0  0  0  0
  2  1  2  0  0  0  0
  2  3  1  0  0  0  0
  3  4  2  0  0  0  0
  4  5  1  0  0  0  0
  5 10  1  0  0  0  0
  6  5  2  0  0  0  0
  7  2  1  0  0  0  0
  8  3  1  0  0  0  0
  9 10  2  0  0  0  0
  9 17  1  0  0  0  0
 10 11  1  0  0  0  0
 11 19  1  0  0  0  0
 11 12  2  0  0  0  0
 12 13  1  0  0  0  0
 13 20  1  0  0  0  0
 13 14  1  0  0  0  0
 14 21  1  0  0  0  0
 15 22  1  0  0  0  0
 15 14  2  0  0  0  0
 16 12  1  0  0  0  0
 16 15  1  0  0  0  0
 17 16  2  0  0  0  0
 18  9  1  0  0  0  0
 23 17  1  0  0  0  0
 24  1  1  0  0  0  0
 25 24  2  0  0  0  0
 26 24  1  0  0  0  0
 26 27  1  0  0  0  0
 27 28  1  0  0  0  0
 29 27  2  0  0  0  0
 30 29  1  0  0  0  0
 31 36  1  0  0  0  0
 31 30  2  0  0  0  0
 32 31  1  0  0  0  0
 33 34  1  0  0  0  0
 33 32  2  0  0  0  0
 34 35  2  0  0  0  0
 35 36  1  0  0  0  0
 36 26  2  0  0  0  0
M  END
>  <minimizedAffinity>
-6.8613677

>  <minimizedRMSD>
1.89418495

$$$$
