REMARK  Name = 
REMARK  4 active torsions:
REMARK  status: ('A' for Active; 'I' for Inactive)
REMARK    1  A    between atoms: C_1  and  C_9
REMARK    2  A    between atoms: C_6  and  N_19
REMARK    3  A    between atoms: C_7  and  C_13
REMARK    4  A    between atoms: C_17  and  C_27
REMARK                            x       y       z     vdW  Elec       q    Type
REMARK                         _______ _______ _______ _____ _____    ______ ____
ROOT
ATOM      1  C   UNL     1      45.131  34.415  41.190  0.00  0.00    +0.000 A 
ATOM      2  C   UNL     1      45.547  35.020  42.371  0.00  0.00    +0.000 A 
ATOM      3  C   UNL     1      46.919  35.245  42.547  0.00  0.00    +0.000 A 
ATOM      4  C   UNL     1      47.801  34.870  41.572  0.00  0.00    +0.000 A 
ATOM      5  C   UNL     1      47.410  34.276  40.407  0.00  0.00    +0.000 A 
ATOM      6  C   UNL     1      46.036  34.059  40.248  0.00  0.00    +0.000 A 
ATOM      7  H   UNL     1      44.838  35.312  43.133  0.00  0.00    +0.000 HD
ATOM      8  H   UNL     1      47.242  35.719  43.469  0.00  0.00    +0.000 HD
ATOM      9  H   UNL     1      48.842  35.071  41.767  0.00  0.00    +0.000 HD
ATOM     10  H   UNL     1      48.093  33.972  39.624  0.00  0.00    +0.000 HD
ENDROOT
BRANCH   1  13
ATOM     11  C   UNL     1      41.434  34.841  40.578  0.00  0.00    +0.000 A 
ATOM     12  C   UNL     1      42.793  35.165  40.663  0.00  0.00    +0.000 A 
ATOM     13  C   UNL     1      43.699  34.207  41.062  0.00  0.00    +0.000 A 
ATOM     14  N   UNL     1      43.197  32.976  41.354  0.00  0.00    +0.000 NA
ATOM     15  C   UNL     1      41.883  32.672  41.269  0.00  0.00    +0.000 A 
ATOM     16  N   UNL     1      40.992  33.607  40.879  0.00  0.00    +0.000 NA
ATOM     17  H   UNL     1      43.172  36.156  40.424  0.00  0.00    +0.000 HD
ATOM     18  H   UNL     1      41.532  31.670  41.512  0.00  0.00    +0.000 HD
BRANCH  11  19
ATOM     19  C   UNL     1      40.452  35.871  40.147  0.00  0.00    +0.000 C 
ATOM     20  F   UNL     1      39.231  35.236  39.958  0.00  0.00    +0.000 F 
ATOM     21  F   UNL     1      40.845  36.301  38.886  0.00  0.00    +0.000 F 
ATOM     22  F   UNL     1      40.316  36.899  41.041  0.00  0.00    +0.000 F 
ENDBRANCH  11  19
ENDBRANCH   1  13
BRANCH   6  25
ATOM     23  C   UNL     1      45.461  32.144  38.559  0.00  0.00    +0.000 C 
ATOM     24  O   UNL     1      45.944  31.146  39.088  0.00  0.00    +0.000 OA
ATOM     25  N   UNL     1      45.488  33.453  39.090  0.00  0.00    +0.000 N 
ATOM     26  H   UNL     1      45.000  34.232  38.549  0.00  0.00    +0.000 HD
BRANCH  23  27
ATOM     27  C   UNL     1      44.807  31.940  37.268  0.00  0.00    +0.000 A 
ATOM     28  C   UNL     1      43.486  31.574  37.285  0.00  0.00    +0.000 A 
ATOM     29  H   UNL     1      42.938  31.438  38.216  0.00  0.00    +0.000 HD
ATOM     30  C   UNL     1      42.780  31.358  36.125  0.00  0.00    +0.000 A 
ATOM     31  C   UNL     1      43.373  31.501  34.865  0.00  0.00    +0.000 A 
ATOM     32  C   UNL     1      44.713  31.873  34.867  0.00  0.00    +0.000 A 
ATOM     33  C   UNL     1      45.330  32.024  33.637  0.00  0.00    +0.000 A 
ATOM     34  C   UNL     1      46.671  32.395  33.587  0.00  0.00    +0.000 A 
ATOM     35  C   UNL     1      47.341  32.601  34.783  0.00  0.00    +0.000 A 
ATOM     36  C   UNL     1      46.737  32.455  36.015  0.00  0.00    +0.000 A 
ATOM     37  C   UNL     1      45.410  32.087  36.038  0.00  0.00    +0.000 A 
ENDBRANCH  23  27
ENDBRANCH   6  25
TORSDOF 4
