
     RDKit          3D

 45 48  0  0  0  0  0  0  0  0999 V2000
   47.8347   33.9938   42.0060 N   0  0  0  0  0  0  0  0  0  0  0  0
   47.8698   34.8857   40.9092 C   0  0  0  0  0  0  0  0  0  0  0  0
   49.0442   35.7309   41.2211 C   0  0  0  0  0  0  0  0  0  0  0  0
   49.6765   35.2267   42.5063 C   0  0  0  0  0  0  0  0  0  0  0  0
   49.0967   33.8074   42.5946 C   0  0  2  0  0  0  0  0  0  0  0  0
   46.6388   33.4476   42.4015 C   0  0  0  0  0  0  0  0  0  0  0  0
   44.6241   35.9456   44.4090 C   0  0  0  0  0  0  0  0  0  0  0  0
   45.2877   35.3692   43.2886 C   0  0  0  0  0  0  0  0  0  0  0  0
   45.9526   34.1556   43.4605 C   0  0  0  0  0  0  0  0  0  0  0  0
   45.9213   33.6053   44.6928 N   0  0  0  0  0  0  0  0  0  0  0  0
   45.2743   34.1752   45.7685 C   0  0  0  0  0  0  0  0  0  0  0  0
   44.6331   35.3343   45.6230 N   0  0  0  0  0  0  0  0  0  0  0  0
   49.8427   33.0264   41.6990 O   0  0  0  0  0  0  0  0  0  0  0  0
   49.1347   31.0000   43.2705 O   0  0  0  0  0  0  0  0  0  0  0  0
   50.1010   31.4686   42.2038 P   0  0  2  0  0  0  0  0  0  0  0  0
   51.6591   31.3832   42.8738 O   0  0  0  0  0  0  0  0  0  0  0  0
   50.1097   30.3816   40.8799 O   0  0  0  0  0  0  0  0  0  0  0  0
   47.3571   35.1133   40.0120 H   0  0  0  0  0  0  0  0  0  0  0  0
   49.4844   36.5555   40.6954 H   0  0  0  0  0  0  0  0  0  0  0  0
   49.3743   35.8202   43.3656 H   0  0  0  0  0  0  0  0  0  0  0  0
   50.7622   35.1482   42.3232 H   0  0  0  0  0  0  0  0  0  0  0  0
   49.0526   33.4147   43.6070 H   0  0  0  0  0  0  0  0  0  0  0  0
   46.8361   32.3845   42.6990 H   0  0  0  0  0  0  0  0  0  0  0  0
   45.8868   33.3171   41.5907 H   0  0  0  0  0  0  0  0  0  0  0  0
   44.1134   36.8686   44.2952 H   0  0  0  0  0  0  0  0  0  0  0  0
   45.2896   35.8382   42.3278 H   0  0  0  0  0  0  0  0  0  0  0  0
   45.3059   33.6537   46.7226 H   0  0  0  0  0  0  0  0  0  0  0  0
   52.2987   31.4221   42.1055 H   0  0  0  0  0  0  0  0  0  0  0  0
   49.0246   29.6918   40.4164 C   0  0  0  0  0  0  0  0  0  0  0  0
   48.6903   28.3812   40.5477 C   0  0  0  0  0  0  0  0  0  0  0  0
   49.4039   27.7962   41.1117 H   0  0  0  0  0  0  0  0  0  0  0  0
   47.5460   27.8321   40.0145 C   0  0  0  0  0  0  0  0  0  0  0  0
   46.6627   28.6251   39.2993 C   0  0  0  0  0  0  0  0  0  0  0  0
   46.9831   29.9651   39.1525 C   0  0  0  0  0  0  0  0  0  0  0  0
   46.0602   30.6978   38.4291 C   0  0  0  0  0  0  0  0  0  0  0  0
   46.2928   32.0317   38.2323 C   0  0  0  0  0  0  0  0  0  0  0  0
   47.4181   32.5920   38.7517 C   0  0  0  0  0  0  0  0  0  0  0  0
   48.3433   31.8672   39.4746 C   0  0  0  0  0  0  0  0  0  0  0  0
   48.1429   30.5051   39.6970 C   0  0  0  0  0  0  0  0  0  0  0  0
   47.3840   26.7616   40.1868 H   0  0  0  0  0  0  0  0  0  0  0  0
   45.7744   28.1596   38.8951 H   0  0  0  0  0  0  0  0  0  0  0  0
   45.1709   30.2689   38.0152 H   0  0  0  0  0  0  0  0  0  0  0  0
   45.6308   32.6975   37.6784 H   0  0  0  0  0  0  0  0  0  0  0  0
   47.6721   33.6259   38.6424 H   0  0  0  0  0  0  0  0  0  0  0  0
   49.2440   32.3065   39.8924 H   0  0  0  0  0  0  0  0  0  0  0  0
  1  6  1  0
  1  5  1  0
  2  3  2  0
  2  1  1  0
  3  4  1  0
  4  5  1  0
  6  9  1  0
  7 12  2  0
  8  9  2  0
  8  7  1  0
  9 10  1  0
 10 11  2  0
 12 11  1  0
 15 13  1  6
 13  5  1  0
 15 16  1  0
 15 14  2  0
 17 15  1  0
  2 18  1  0
  3 19  1  0
  4 20  1  0
  4 21  1  0
  5 22  1  1
  6 23  1  0
  6 24  1  0
  7 25  1  0
  8 26  1  0
 11 27  1  0
 16 28  1  0
 29 30  2  0
 30 31  1  0
 30 32  1  0
 32 33  2  0
 33 34  1  0
 34 35  2  0
 35 36  1  0
 36 37  2  0
 37 38  1  0
 38 39  2  0
 39 29  1  0
 39 34  1  0
 32 40  1  0
 33 41  1  0
 35 42  1  0
 36 43  1  0
 37 44  1  0
 38 45  1  0
 17 29  1  0
M  ISO  8  18  13  19  13  20  13  21  13  22  13  23   8  24   8  25  14
M  ISO  4  26  14  27  14  28   3  31  15
M  END
>  <DihAtoms>  (1) 
14,16,28,29

>  <DihDeg>  (1) 
0.000694298130588528

$$$$
