
     RDKit          3D

 53 56  0  0  0  0  0  0  0  0999 V2000
   47.5291   34.4448   40.7743 C   0  0  0  0  0  0  0  0  0  0  0  0
   48.7839   33.7647   41.1269 C   0  0  0  0  0  0  0  0  0  0  0  0
   49.1068   32.6257   40.4156 C   0  0  0  0  0  0  0  0  0  0  0  0
   50.2623   31.9229   40.6765 C   0  0  0  0  0  0  0  0  0  0  0  0
   51.0728   32.4190   41.6823 N   0  0  0  0  0  0  0  0  0  0  0  0
   50.7156   33.5489   42.3610 C   0  0  0  0  0  0  0  0  0  0  0  0
   49.5884   34.2043   42.0813 N   0  0  0  0  0  0  0  0  0  0  0  0
   48.0078   32.0406   39.1246 S   0  0  0  0  0  0  0  0  0  0  0  0
   48.8278   32.1629   37.5193 C   0  0  0  0  0  0  0  0  0  0  0  0
   48.4829   33.4953   36.8980 C   0  0  0  0  0  0  0  0  0  0  0  0
   48.1934   33.2922   35.5153 N   0  0  0  0  0  0  0  0  0  0  0  0
   46.7512   34.9417   41.9476 C   0  0  0  0  0  0  0  0  0  0  0  0
   45.2882   34.9361   41.7544 C   0  0  0  0  0  0  0  0  0  0  0  0
   44.4355   35.6009   42.6798 C   0  0  0  0  0  0  0  0  0  0  0  0
   42.7597   35.3094   42.0158 S   0  0  0  0  0  0  0  0  0  0  0  0
   43.4833   34.3130   40.5589 C   0  0  0  0  0  0  0  0  0  0  0  0
   44.5980   34.3835   40.8089 N   0  0  0  0  0  0  0  0  0  0  0  0
   42.6979   33.7401   39.5699 O   0  0  0  0  0  0  0  0  0  0  0  0
   40.7554   33.9835   37.7883 O   0  0  0  0  0  0  0  0  0  0  0  0
   41.7746   34.7916   38.6043 P   0  0  1  0  0  0  0  0  0  0  0  0
   40.9333   35.8305   39.6417 O   0  0  0  0  0  0  0  0  0  0  0  0
   42.7859   35.6997   37.6085 O   0  0  0  0  0  0  0  0  0  0  0  0
   47.7936   35.3425   40.1544 H   0  0  0  0  0  0  0  0  0  0  0  0
   46.8588   33.8040   40.1659 H   0  0  0  0  0  0  0  0  0  0  0  0
   50.5562   31.0281   40.1472 H   0  0  0  0  0  0  0  0  0  0  0  0
   51.3618   33.9289   43.1499 H   0  0  0  0  0  0  0  0  0  0  0  0
   49.9171   32.0503   37.7064 H   0  0  0  0  0  0  0  0  0  0  0  0
   48.5491   31.3011   36.8593 H   0  0  0  0  0  0  0  0  0  0  0  0
   49.3661   34.1578   37.0050 H   0  0  0  0  0  0  0  0  0  0  0  0
   47.6382   33.9865   37.4110 H   0  0  0  0  0  0  0  0  0  0  0  0
   49.0285   32.9278   35.0075 H   0  0  0  0  0  0  0  0  0  0  0  0
   47.7991   34.1371   35.0376 H   0  0  0  0  0  0  0  0  0  0  0  0
   46.9492   34.2733   42.8322 H   0  0  0  0  0  0  0  0  0  0  0  0
   47.0772   35.9602   42.2750 H   0  0  0  0  0  0  0  0  0  0  0  0
   44.7740   36.1612   43.5930 H   0  0  0  0  0  0  0  0  0  0  0  0
   40.4372   35.2914   40.3115 H   0  0  0  0  0  0  0  0  0  0  0  0
   42.2289   36.7300   36.8610 C   0  0  0  0  0  0  0  0  0  0  0  0
   40.8736   36.8760   36.6466 C   0  0  0  0  0  0  0  0  0  0  0  0
   40.1913   36.1565   37.0779 H   0  0  0  0  0  0  0  0  0  0  0  0
   40.4690   37.9527   35.8806 C   0  0  0  0  0  0  0  0  0  0  0  0
   41.3561   38.8676   35.3340 C   0  0  0  0  0  0  0  0  0  0  0  0
   42.7066   38.6760   35.5787 C   0  0  0  0  0  0  0  0  0  0  0  0
   43.6062   39.5852   35.0370 C   0  0  0  0  0  0  0  0  0  0  0  0
   44.9681   39.4000   35.2786 C   0  0  0  0  0  0  0  0  0  0  0  0
   45.4606   38.3509   36.0335 C   0  0  0  0  0  0  0  0  0  0  0  0
   44.5212   37.4796   36.5460 C   0  0  0  0  0  0  0  0  0  0  0  0
   43.1597   37.6216   36.3338 C   0  0  0  0  0  0  0  0  0  0  0  0
   39.4162   38.1084   35.6854 H   0  0  0  0  0  0  0  0  0  0  0  0
   41.0369   39.7046   34.7379 H   0  0  0  0  0  0  0  0  0  0  0  0
   43.2984   40.4349   34.4334 H   0  0  0  0  0  0  0  0  0  0  0  0
   45.6800   40.0923   34.8683 H   0  0  0  0  0  0  0  0  0  0  0  0
   46.4979   38.1955   36.2270 H   0  0  0  0  0  0  0  0  0  0  0  0
   44.8616   36.6474   37.1404 H   0  0  0  0  0  0  0  0  0  0  0  0
  1  2  1  0
  1 12  1  0
  2  7  2  0
  3  4  2  0
  3  2  1  0
  4  5  1  0
  5  6  2  0
  7  6  1  0
  8  3  1  0
  9  8  1  0
 10  9  1  0
 11 10  1  0
 13 12  1  0
 13 14  2  0
 15 14  1  0
 16 17  2  0
 16 15  1  0
 17 13  1  0
 18 16  1  0
 19 20  2  0
 20 18  1  1
 20 21  1  0
 22 20  1  0
  1 23  1  0
  1 24  1  0
  4 25  1  0
  6 26  1  0
  9 27  1  0
  9 28  1  0
 10 29  1  0
 10 30  1  0
 11 31  1  0
 11 32  1  0
 12 33  1  0
 12 34  1  0
 14 35  1  0
 21 36  1  0
 37 38  2  0
 38 39  1  0
 38 40  1  0
 40 41  2  0
 41 42  1  0
 42 43  2  0
 43 44  1  0
 44 45  2  0
 45 46  1  0
 46 47  2  0
 47 37  1  0
 47 42  1  0
 40 48  1  0
 41 49  1  0
 43 50  1  0
 44 51  1  0
 45 52  1  0
 46 53  1  0
 22 37  1  0
M  ISO  8  23   8  24   8  25  14  26  14  27   8  28   8  29   8  30   8
M  ISO  7  31   5  32   5  33   8  34   8  35  14  36   3  39  15
M  END
>  <DihAtoms>  (1) 
19,21,36,37

>  <DihDeg>  (1) 
-0.0005244921664939906

$$$$
