
     RDKit          3D

 42 46  0  0  0  0  0  0  0  0999 V2000
   46.0502   31.6995   45.1437 C   0  0  0  0  0  0  0  0  0  0  0  0
   45.8047   33.0142   45.5387 C   0  0  0  0  0  0  0  0  0  0  0  0
   45.5271   33.2792   46.8545 C   0  0  0  0  0  0  0  0  0  0  0  0
   45.4958   32.2453   47.7603 C   0  0  0  0  0  0  0  0  0  0  0  0
   45.2562   32.2072   49.0865 N   0  0  0  0  0  0  0  0  0  0  0  0
   45.3364   30.9516   49.5461 C   0  0  0  0  0  0  0  0  0  0  0  0
   45.6380   30.1231   48.5004 C   0  0  0  0  0  0  0  0  0  0  0  0
   45.7393   30.9330   47.3747 C   0  0  0  0  0  0  0  0  0  0  0  0
   46.0193   30.6595   46.0514 C   0  0  0  0  0  0  0  0  0  0  0  0
   46.8819   34.9272   42.6237 C   0  0  0  0  0  0  0  0  0  0  0  0
   45.9619   35.9621   42.5491 C   0  0  0  0  0  0  0  0  0  0  0  0
   44.9644   36.0020   43.5081 C   0  0  0  0  0  0  0  0  0  0  0  0
   44.9347   35.0398   44.4625 N   0  0  0  0  0  0  0  0  0  0  0  0
   45.8620   34.0362   44.5000 C   0  0  0  0  0  0  0  0  0  0  0  0
   46.8332   33.9843   43.5788 N   0  0  0  0  0  0  0  0  0  0  0  0
   47.9098   34.9309   41.5886 C   0  0  0  0  0  0  0  0  0  0  0  0
   48.8279   35.8269   41.5081 O   0  0  0  0  0  0  0  0  0  0  0  0
   46.2804   31.3830   44.1208 H   0  0  0  0  0  0  0  0  0  0  0  0
   45.3390   34.3033   47.1455 H   0  0  0  0  0  0  0  0  0  0  0  0
   45.0356   33.0400   49.6900 H   0  0  0  0  0  0  0  0  0  0  0  0
   45.1885   30.6292   50.5778 H   0  0  0  0  0  0  0  0  0  0  0  0
   45.7841   29.0361   48.4823 H   0  0  0  0  0  0  0  0  0  0  0  0
   46.2052   29.6271   45.7786 H   0  0  0  0  0  0  0  0  0  0  0  0
   45.9464   36.7463   41.8108 H   0  0  0  0  0  0  0  0  0  0  0  0
   44.2151   36.7866   43.5031 H   0  0  0  0  0  0  0  0  0  0  0  0
   47.7184   33.7878   40.7012 C   0  0  0  0  0  0  0  0  0  0  0  0
   48.7905   32.9771   40.3149 C   0  0  0  0  0  0  0  0  0  0  0  0
   49.7982   33.2124   40.6862 H   0  0  0  0  0  0  0  0  0  0  0  0
   48.6862   31.8804   39.4866 C   0  0  0  0  0  0  0  0  0  0  0  0
   47.4460   31.5456   38.9963 C   0  0  0  0  0  0  0  0  0  0  0  0
   46.3495   32.3074   39.3415 C   0  0  0  0  0  0  0  0  0  0  0  0
   45.1178   31.9494   38.8342 C   0  0  0  0  0  0  0  0  0  0  0  0
   43.9837   32.6753   39.1440 C   0  0  0  0  0  0  0  0  0  0  0  0
   44.1599   33.7585   39.9761 C   0  0  0  0  0  0  0  0  0  0  0  0
   45.3928   34.1146   40.4823 C   0  0  0  0  0  0  0  0  0  0  0  0
   46.5236   33.3920   40.1746 C   0  0  0  0  0  0  0  0  0  0  0  0
   49.5675   31.3087   39.2388 H   0  0  0  0  0  0  0  0  0  0  0  0
   47.3073   30.6963   38.3435 H   0  0  0  0  0  0  0  0  0  0  0  0
   45.0217   31.0971   38.1878 H   0  0  0  0  0  0  0  0  0  0  0  0
   43.0447   32.3547   38.7221 H   0  0  0  0  0  0  0  0  0  0  0  0
   43.2910   34.3516   40.2405 H   0  0  0  0  0  0  0  0  0  0  0  0
   45.4362   34.9812   41.1270 H   0  0  0  0  0  0  0  0  0  0  0  0
  1  2  2  0
  1  9  1  0
  2  3  1  0
  3  4  2  0
  4  5  1  0
  5  6  1  0
  7  6  2  0
  8  4  1  0
  8  7  1  0
  9  8  2  0
 10 15  1  0
 11 10  2  0
 11 12  1  0
 12 13  2  0
 13 14  1  0
 14  2  1  0
 15 14  2  0
 16 10  1  0
 17 16  2  0
  1 18  1  0
  3 19  1  0
  5 20  1  0
  6 21  1  0
  7 22  1  0
  9 23  1  0
 11 24  1  0
 12 25  1  0
 26 27  2  0
 27 28  1  0
 27 29  1  0
 29 30  2  0
 30 31  1  0
 31 32  2  0
 32 33  1  0
 33 34  2  0
 34 35  1  0
 35 36  2  0
 36 26  1  0
 36 31  1  0
 29 37  1  0
 30 38  1  0
 32 39  1  0
 33 40  1  0
 34 41  1  0
 35 42  1  0
 16 26  1  0
M  ISO  8  18  14  19  14  20   9  21  14  22  14  23  14  24  14  25  14
M  ISO  1  28  15
M  END
>  <DihAtoms>  (1) 
9,15,25,26

>  <DihDeg>  (1) 
45.91060516768043

$$$$
