
 OpenBabel03252508033D

 44 48  0  0  1  0  0  0  0  0999 V2000
   41.5200   33.3050   41.1060 C   0  0  0  0  0  0  0  0  0  0  0  0
   42.5240   34.2200   41.2160 C   0  0  0  0  0  0  0  0  0  0  0  0
   42.2030   35.5870   41.1440 C   0  0  0  0  0  0  0  0  0  0  0  0
   40.9240   36.0470   40.9680 C   0  0  0  0  0  0  0  0  0  0  0  0
   39.9110   35.1300   40.8560 C   0  0  0  0  0  0  0  0  0  0  0  0
   40.2250   33.8080   40.9270 C   0  0  0  0  0  0  0  0  0  0  0  0
   42.9410   36.3730   41.2130 H   0  0  0  0  0  0  0  0  0  0  0  0
   40.6820   37.0820   40.9130 H   0  0  0  0  0  0  0  0  0  0  0  0
   38.8780   35.4020   40.7160 H   0  0  0  0  0  0  0  0  0  0  0  0
   39.4070   33.0750   40.8360 H   0  0  0  0  0  0  0  0  0  0  0  0
   41.7500   31.6480   41.3000 S   0  0  0  0  0  0  0  0  0  0  0  0
   40.2600   31.1750   41.1970 O   0  0  0  0  0  0  0  0  0  0  0  0
   42.1830   31.2660   42.6530 O   0  0  0  0  0  0  0  0  0  0  0  0
   42.1020   30.4640   40.1400 C   0  0  0  0  0  0  0  0  0  0  0  0
   42.4580   30.5930   38.7730 C   0  0  0  0  0  0  0  0  0  0  0  0
   42.5400   31.6710   38.4990 H   0  0  0  0  0  0  0  0  0  0  0  0
   42.6660   29.6670   37.7670 C   0  0  0  0  0  3  0  0  0  0  0  0
   42.4730   28.4270   38.2650 C   0  0  0  0  0  3  0  0  0  0  0  0
   42.1250   28.1220   39.5570 C   0  0  0  0  0  0  0  0  0  0  0  0
   41.9830   26.7550   39.8090 C   0  0  0  0  0  3  0  0  0  0  0  0
   41.6390   26.3380   41.0720 C   0  0  0  0  0  3  0  0  0  0  0  0
   41.4460   27.2930   42.0450 C   0  0  0  0  0  3  0  0  0  0  0  0
   41.6050   28.6140   41.7070 C   0  0  0  0  0  3  0  0  0  0  0  0
   41.9450   29.1220   40.4740 C   0  0  0  0  0  0  0  0  0  0  0  0
   43.9190   33.8250   41.4020 C   0  0  0  0  0  0  0  0  0  0  0  0
   44.6360   33.2820   40.5090 O   0  0  0  0  0  0  0  0  0  0  0  0
   44.4210   34.1150   42.7170 C   0  0  0  0  0  0  0  0  0  0  0  0
   44.2980   35.4850   43.1460 C   0  0  0  0  0  0  0  0  0  0  0  0
   44.7600   35.7870   44.4160 C   0  0  0  0  0  0  0  0  0  0  0  0
   45.2910   34.7870   45.1680 N   0  0  0  0  0  0  0  0  0  0  0  0
   45.3810   33.4980   44.7090 C   0  0  0  0  0  0  0  0  0  0  0  0
   44.9560   33.2110   43.5300 N   0  0  0  0  0  0  0  0  0  0  0  0
   43.9000   36.3230   42.6220 H   0  0  0  0  0  0  0  0  0  0  0  0
   44.7270   36.7670   44.8530 H   0  0  0  0  0  0  0  0  0  0  0  0
   45.9620   32.4700   45.6040 C   0  0  1  0  0  0  0  0  0  0  0  0
   46.9040   32.9000   46.7050 C   0  0  0  0  0  0  0  0  0  0  0  0
   45.4900   32.5210   47.0050 C   0  0  1  0  0  0  0  0  0  0  0  0
   46.0940   31.4750   45.1520 H   0  0  0  0  0  0  0  0  0  0  0  0
   47.2350   33.9580   46.7200 H   0  0  0  0  0  0  0  0  0  0  0  0
   47.6610   32.1730   47.0520 H   0  0  0  0  0  0  0  0  0  0  0  0
   45.2670   31.6050   47.5880 H   0  0  0  0  0  0  0  0  0  0  0  0
   44.7050   33.6610   47.4660 N   0  0  0  0  0  0  0  0  0  0  0  0
   43.7040   33.4040   47.2470 H   0  0  0  0  0  0  0  0  0  0  0  0
   44.8090   33.6830   48.5000 H   0  0  0  0  0  0  0  0  0  0  0  0
  1  2  1  0  0  0  0
  1 11  1  0  0  0  0
  2 25  1  0  0  0  0
  3  7  1  0  0  0  0
  3  2  2  0  0  0  0
  4  3  1  0  0  0  0
  5  6  1  0  0  0  0
  5  4  2  0  0  0  0
  6  1  2  0  0  0  0
  8  4  1  0  0  0  0
  9  5  1  0  0  0  0
 10  6  1  0  0  0  0
 11 13  2  0  0  0  0
 12 11  2  0  0  0  0
 14 24  1  0  0  0  0
 14 11  1  0  0  0  0
 15 14  2  0  0  0  0
 16 15  1  0  0  0  0
 17 18  2  0  0  0  0
 17 15  1  0  0  0  0
 18 19  1  0  0  0  0
 19 20  2  0  0  0  0
 19 24  1  0  0  0  0
 20 21  1  0  0  0  0
 21 22  2  0  0  0  0
 23 22  1  0  0  0  0
 24 23  2  0  0  0  0
 25 27  1  0  0  0  0
 26 25  2  0  0  0  0
 27 28  2  0  0  0  0
 27 32  1  0  0  0  0
 28 29  1  0  0  0  0
 29 34  1  0  0  0  0
 29 30  2  0  0  0  0
 31 30  1  0  0  0  0
 31 35  1  0  0  0  0
 32 31  2  0  0  0  0
 33 28  1  0  0  0  0
 35 38  1  6  0  0  0
 35 36  1  0  0  0  0
 35 37  1  0  0  0  0
 36 39  1  0  0  0  0
 36 37  1  0  0  0  0
 36 40  1  0  0  0  0
 37 42  1  0  0  0  0
 37 41  1  1  0  0  0
 42 44  1  0  0  0  0
 43 42  1  0  0  0  0
M  END
>  <minimizedAffinity>
-5.75083256

>  <minimizedRMSD>
3.44541931

$$$$
