REMARK  Name = 
REMARK  7 active torsions:
REMARK  status: ('A' for Active; 'I' for Inactive)
REMARK    1  A    between atoms: P_2  and  O_3
REMARK    2  A    between atoms: P_2  and  O_10
REMARK    3  A    between atoms: P_2  and  O_13
REMARK    4  A    between atoms: O_3  and  C_6
REMARK    5  A    between atoms: O_10  and  C_11
REMARK    6  A    between atoms: C_11  and  C_21
REMARK    7  A    between atoms: O_13  and  C_14
REMARK                            x       y       z     vdW  Elec       q    Type
REMARK                         _______ _______ _______ _____ _____    ______ ____
ROOT
ATOM      1  O   UNL     1      48.090  32.911  41.913  0.00  0.00    +0.000 OA
ATOM      2  P   UNL     1      47.195  34.038  41.332  0.00  0.00    +0.000 P 
ENDROOT
BRANCH   2   3
ATOM      3  O   UNL     1      45.596  33.824  41.920  0.00  0.00    +0.000 OA
BRANCH   3   6
ATOM      4  C   UNL     1      44.366  35.917  44.635  0.00  0.00    +0.000 A 
ATOM      5  C   UNL     1      44.665  35.466  43.328  0.00  0.00    +0.000 A 
ATOM      6  C   UNL     1      45.318  34.231  43.207  0.00  0.00    +0.000 A 
ATOM      7  N   UNL     1      45.621  33.547  44.327  0.00  0.00    +0.000 NA
ATOM      8  C   UNL     1      45.322  34.004  45.563  0.00  0.00    +0.000 A 
ATOM      9  N   UNL     1      44.698  35.182  45.727  0.00  0.00    +0.000 NA
ATOM     10  H   UNL     1      43.863  36.869  44.737  0.00  0.00    +0.000 HD
ATOM     11  H   UNL     1      44.379  36.087  42.502  0.00  0.00    +0.000 HD
ATOM     12  H   UNL     1      45.602  33.390  46.426  0.00  0.00    +0.000 HD
ENDBRANCH   3   6
ENDBRANCH   2   3
BRANCH   2  13
ATOM     13  O   UNL     1      47.176  33.916  39.678  0.00  0.00    +0.000 OA
BRANCH  13  14
ATOM     14  C   UNL     1      46.549  33.019  38.873  0.00  0.00    +0.000 C 
ATOM     15  O   UNL     1      45.920  33.501  37.773  0.00  0.00    +0.000 OA
BRANCH  14  16
ATOM     16  C   UNL     1      46.234  31.588  38.654  0.00  0.00    +0.000 A 
ATOM     17  C   UNL     1      47.192  30.727  38.070  0.00  0.00    +0.000 A 
ATOM     18  H   UNL     1      48.197  31.196  37.948  0.00  0.00    +0.000 HD
ATOM     19  C   UNL     1      47.111  29.433  37.630  0.00  0.00    +0.000 A 
ATOM     20  C   UNL     1      45.844  28.938  37.816  0.00  0.00    +0.000 A 
ATOM     21  C   UNL     1      44.851  29.701  38.377  0.00  0.00    +0.000 A 
ATOM     22  C   UNL     1      43.599  29.165  38.591  0.00  0.00    +0.000 A 
ATOM     23  C   UNL     1      42.514  29.784  39.176  0.00  0.00    +0.000 A 
ATOM     24  C   UNL     1      42.756  31.102  39.585  0.00  0.00    +0.000 A 
ATOM     25  C   UNL     1      43.992  31.662  39.384  0.00  0.00    +0.000 A 
ATOM     26  C   UNL     1      45.041  31.016  38.795  0.00  0.00    +0.000 A 
ENDBRANCH  14  16
ENDBRANCH  13  14
ENDBRANCH   2  13
BRANCH   2  27
ATOM     27  O   UNL     1      47.790  35.471  41.916  0.00  0.00    +0.000 OA
BRANCH  27  28
ATOM     28  C   UNL     1      49.045  35.773  41.406  0.00  0.00    +0.000 C 
ATOM     29  F   UNL     1      49.452  37.055  41.727  0.00  0.00    +0.000 F 
ATOM     30  F   UNL     1      49.948  34.824  41.763  0.00  0.00    +0.000 F 
ATOM     31  F   UNL     1      48.915  35.743  40.019  0.00  0.00    +0.000 F 
ENDBRANCH  27  28
ENDBRANCH   2  27
TORSDOF 7
