
     RDKit          3D

 35 38  0  0  0  0  0  0  0  0999 V2000
   45.4494   36.1001   43.2134 C   0  0  0  0  0  0  0  0  0  0  0  0
   46.1865   34.8941   43.1131 C   0  0  0  0  0  0  0  0  0  0  0  0
   46.0485   34.0169   44.1412 C   0  0  0  0  0  0  0  0  0  0  0  0
   45.2476   34.2712   45.2101 N   0  0  0  0  0  0  0  0  0  0  0  0
   44.5514   35.4496   45.2647 C   0  0  0  0  0  0  0  0  0  0  0  0
   44.6475   36.3531   44.2856 N   0  0  0  0  0  0  0  0  0  0  0  0
   46.7609   32.8237   44.1138 C   0  0  0  0  0  0  0  0  0  0  0  0
   47.3910   32.1411   43.1017 C   0  0  0  0  0  0  0  0  0  0  0  0
   48.0289   30.9969   43.3233 C   0  0  0  0  0  0  0  0  0  0  0  0
   48.0314   30.5017   44.6543 C   0  0  0  0  0  0  0  0  0  0  0  0
   47.0427   31.8014   45.6040 S   0  0  0  0  0  0  0  0  0  0  0  0
   46.9301   34.7281   41.9394 C   0  0  0  0  0  0  0  0  0  0  0  0
   48.0132   35.3983   41.8254 O   0  0  0  0  0  0  0  0  0  0  0  0
   45.4832   36.8684   42.4596 H   0  0  0  0  0  0  0  0  0  0  0  0
   43.9493   35.5659   46.1275 H   0  0  0  0  0  0  0  0  0  0  0  0
   47.5149   32.2108   42.0993 H   0  0  0  0  0  0  0  0  0  0  0  0
   48.6006   30.1893   42.9329 H   0  0  0  0  0  0  0  0  0  0  0  0
   48.3231   29.7398   45.4062 H   0  0  0  0  0  0  0  0  0  0  0  0
   47.0752   34.1166   40.6448 C   0  0  0  0  0  0  0  0  0  0  0  0
   48.3204   33.4646   40.6471 C   0  0  0  0  0  0  0  0  0  0  0  0
   49.0825   33.3908   41.4254 H   0  0  0  0  0  0  0  0  0  0  0  0
   48.7984   32.7512   39.5423 C   0  0  0  0  0  0  0  0  0  0  0  0
   48.0070   32.6846   38.3924 C   0  0  0  0  0  0  0  0  0  0  0  0
   46.7924   33.3305   38.4138 C   0  0  0  0  0  0  0  0  0  0  0  0
   45.9096   33.3459   37.3545 C   0  0  0  0  0  0  0  0  0  0  0  0
   44.6876   33.9847   37.3570 C   0  0  0  0  0  0  0  0  0  0  0  0
   44.2925   34.6751   38.5075 C   0  0  0  0  0  0  0  0  0  0  0  0
   45.1371   34.6899   39.5901 C   0  0  0  0  0  0  0  0  0  0  0  0
   46.3402   34.0290   39.5151 C   0  0  0  0  0  0  0  0  0  0  0  0
   49.7212   32.2259   39.4432 H   0  0  0  0  0  0  0  0  0  0  0  0
   48.2522   32.1715   37.4746 H   0  0  0  0  0  0  0  0  0  0  0  0
   46.2333   32.7986   36.4545 H   0  0  0  0  0  0  0  0  0  0  0  0
   44.1035   33.9069   36.4478 H   0  0  0  0  0  0  0  0  0  0  0  0
   43.3329   35.1585   38.4654 H   0  0  0  0  0  0  0  0  0  0  0  0
   44.7531   35.2585   40.4066 H   0  0  0  0  0  0  0  0  0  0  0  0
  1  6  2  0
  2  1  1  0
  2  3  2  0
  3  4  1  0
  4  5  2  0
  6  5  1  0
  7  3  1  0
  7 11  1  0
  8  9  1  0
  8  7  2  0
  9 10  2  0
 10 11  1  0
 12  2  1  0
 13 12  2  0
  1 14  1  0
  5 15  1  0
  8 16  1  0
  9 17  1  0
 10 18  1  0
 19 20  2  0
 20 21  1  0
 20 22  1  0
 22 23  2  0
 23 24  1  0
 24 25  2  0
 25 26  1  0
 26 27  2  0
 27 28  1  0
 28 29  2  0
 29 19  1  0
 29 24  1  0
 22 30  1  0
 23 31  1  0
 25 32  1  0
 26 33  1  0
 27 34  1  0
 28 35  1  0
 12 19  1  0
M  ISO  6  14  14  15  14  16  14  17  14  18  14  21  15
M  END
>  <DihAtoms>  (1) 
1,11,18,19

>  <DihDeg>  (1) 
40.30377033642595

$$$$
