
 OpenBabel03242516533D

 47 51  0  0  1  0  0  0  0  0999 V2000
   47.7450   32.6950   41.4500 C   0  0  1  0  0  0  0  0  0  0  0  0
   47.2860   32.0850   40.1980 C   0  0  0  0  0  0  0  0  0  0  0  0
   48.2720   32.5190   39.1170 C   0  0  0  0  0  0  0  0  0  0  0  0
   48.0420   34.0010   38.8930 C   0  0  0  0  0  0  0  0  0  0  0  0
   48.1280   34.8240   40.1480 C   0  0  0  0  0  0  0  0  0  0  0  0
   47.6630   34.2240   41.4030 C   0  0  1  0  0  0  0  0  0  0  0  0
   48.8590   32.5180   41.5480 H   0  0  0  0  0  0  0  0  0  0  0  0
   47.3680   30.9780   40.2810 H   0  0  0  0  0  0  0  0  0  0  0  0
   46.2740   32.3760   39.8730 H   0  0  0  0  0  0  0  0  0  0  0  0
   48.0850   32.0150   38.1650 H   0  0  0  0  0  0  0  0  0  0  0  0
   49.3030   32.3750   39.5090 H   0  0  0  0  0  0  0  0  0  0  0  0
   47.0100   34.1310   38.4860 H   0  0  0  0  0  0  0  0  0  0  0  0
   48.7970   34.3450   38.1620 H   0  0  0  0  0  0  0  0  0  0  0  0
   49.1970   35.1600   40.2300 H   0  0  0  0  0  0  0  0  0  0  0  0
   47.5470   35.7640   39.9520 H   0  0  0  0  0  0  0  0  0  0  0  0
   48.3480   34.5640   42.2350 H   0  0  0  0  0  0  0  0  0  0  0  0
   45.3160   30.9380   43.7600 C   0  0  0  0  0  0  0  0  0  0  0  0
   45.9650   31.4340   42.6270 C   0  0  0  0  0  0  0  0  0  0  0  0
   47.1290   32.2080   42.6660 C   0  0  0  0  0  0  0  0  0  0  0  0
   47.6100   32.4660   43.8900 N   0  0  0  0  0  0  0  0  0  0  0  0
   46.9880   31.9910   45.0060 C   0  0  0  0  0  0  0  0  0  0  0  0
   45.8830   31.2550   44.9550 N   0  0  0  0  0  0  0  0  0  0  0  0
   44.4270   30.3520   43.6180 H   0  0  0  0  0  0  0  0  0  0  0  0
   45.5620   31.2160   41.6460 H   0  0  0  0  0  0  0  0  0  0  0  0
   47.3590   32.1860   46.0040 H   0  0  0  0  0  0  0  0  0  0  0  0
   46.3420   34.7070   41.8040 C   0  0  0  0  0  0  0  0  0  0  0  0
   46.0480   35.4600   42.9420 C   0  0  0  0  0  0  0  0  0  0  0  0
   44.7150   35.8250   43.1120 C   0  0  0  0  0  0  0  0  0  0  0  0
   43.8030   35.4200   42.1590 C   0  0  0  0  0  0  0  0  0  0  0  0
   44.1120   34.6720   41.0340 C   0  0  0  0  0  0  0  0  0  0  0  0
   45.4150   34.3250   40.8830 N   0  0  0  0  0  0  0  0  0  0  0  0
   46.8580   35.6900   43.5760 H   0  0  0  0  0  0  0  0  0  0  0  0
   44.4740   36.3980   43.9720 H   0  0  0  0  0  0  0  0  0  0  0  0
   42.7680   35.7130   42.3060 H   0  0  0  0  0  0  0  0  0  0  0  0
   43.0700   34.2940   40.0880 C   0  0  0  0  0  0  0  0  0  0  0  0
   42.3200   35.1830   39.6360 O   0  0  0  0  0  0  0  0  0  0  0  0
   42.6650   33.0280   39.5020 C   0  0  0  0  0  0  0  0  0  0  0  0
   42.6820   32.7710   38.1490 C   0  0  0  0  0  0  0  0  0  0  0  0
   43.0260   33.5170   37.4660 H   0  0  0  0  0  0  0  0  0  0  0  0
   42.2700   31.6000   37.5470 C   0  0  0  0  0  3  0  0  0  0  0  0
   41.8000   30.5920   38.3610 C   0  0  0  0  0  3  0  0  0  0  0  0
   41.7550   30.7780   39.7260 C   0  0  0  0  0  0  0  0  0  0  0  0
   41.2880   29.7430   40.4780 C   0  0  0  0  0  3  0  0  0  0  0  0
   41.2230   29.8540   41.8530 C   0  0  0  0  0  3  0  0  0  0  0  0
   41.6470   31.0490   42.4390 C   0  0  0  0  0  3  0  0  0  0  0  0
   42.1070   32.0550   41.6240 C   0  0  0  0  0  3  0  0  0  0  0  0
   42.1840   31.9770   40.2530 C   0  0  0  0  0  0  0  0  0  0  0  0
  1  7  1  1  0  0  0
  1 19  1  0  0  0  0
  2  8  1  0  0  0  0
  2  1  1  0  0  0  0
  3 11  1  0  0  0  0
  3  2  1  0  0  0  0
  4  3  1  0  0  0  0
  4  5  1  0  0  0  0
  5 14  1  0  0  0  0
  5  6  1  0  0  0  0
  6  1  1  0  0  0  0
  6 26  1  0  0  0  0
  6 16  1  1  0  0  0
  9  2  1  0  0  0  0
 10  3  1  0  0  0  0
 12  4  1  0  0  0  0
 13  4  1  0  0  0  0
 15  5  1  0  0  0  0
 17 22  1  0  0  0  0
 18 19  1  0  0  0  0
 18 17  2  0  0  0  0
 19 20  2  0  0  0  0
 20 21  1  0  0  0  0
 21 25  1  0  0  0  0
 22 21  2  0  0  0  0
 23 17  1  0  0  0  0
 24 18  1  0  0  0  0
 26 27  1  0  0  0  0
 27 28  2  0  0  0  0
 27 32  1  0  0  0  0
 28 33  1  0  0  0  0
 29 34  1  0  0  0  0
 29 28  1  0  0  0  0
 30 29  2  0  0  0  0
 31 30  1  0  0  0  0
 31 26  2  0  0  0  0
 35 30  1  0  0  0  0
 36 35  2  0  0  0  0
 37 35  1  0  0  0  0
 37 47  1  0  0  0  0
 38 37  2  0  0  0  0
 39 38  1  0  0  0  0
 40 38  1  0  0  0  0
 40 41  2  0  0  0  0
 41 42  1  0  0  0  0
 42 47  2  0  0  0  0
 42 43  1  0  0  0  0
 43 44  2  0  0  0  0
 44 45  1  0  0  0  0
 46 45  2  0  0  0  0
 47 46  1  0  0  0  0
M  END
>  <minimizedAffinity>
-5.764781

>  <minimizedRMSD>
1.76290381

$$$$
