
 OpenBabel03242512343D

 22 24  0  0  0  0  0  0  0  0999 V2000
   45.1840   35.4400   43.8820 C   0  0  0  0  0  0  0  0  0  0  0  0
   45.0000   36.6950   44.0270 O   0  0  0  0  0  0  0  0  0  0  0  0
   45.1570   34.7050   42.6170 C   0  0  0  0  0  0  0  0  0  0  0  0
   44.0580   33.9680   42.1810 C   0  0  0  0  0  0  0  0  0  0  0  0
   43.1740   33.9400   42.8030 H   0  0  0  0  0  0  0  0  0  0  0  0
   44.0070   33.2630   41.0060 C   0  0  0  0  0  0  0  0  0  0  0  0
   45.1080   33.2690   40.1820 C   0  0  0  0  0  0  0  0  0  0  0  0
   46.2300   33.9720   40.5420 C   0  0  0  0  0  0  0  0  0  0  0  0
   47.3220   33.9650   39.6980 C   0  0  0  0  0  0  0  0  0  0  0  0
   48.4650   34.6640   40.0320 C   0  0  0  0  0  0  0  0  0  0  0  0
   48.4930   35.3680   41.2200 C   0  0  0  0  0  0  0  0  0  0  0  0
   47.3770   35.3450   42.0310 C   0  0  0  0  0  0  0  0  0  0  0  0
   46.2190   34.6610   41.7370 C   0  0  0  0  0  0  0  0  0  0  0  0
   45.4560   34.4970   44.9370 C   0  0  0  0  0  0  0  0  0  0  0  0
   44.6890   34.7130   46.0770 C   0  0  0  0  0  0  0  0  0  0  0  0
   44.8800   33.8380   47.1670 C   0  0  0  0  0  0  0  0  0  0  0  0
   45.8120   32.8390   47.0110 N   0  0  0  0  0  0  0  0  0  0  0  0
   46.5170   32.6910   45.8780 C   0  0  0  0  0  0  0  0  0  0  0  0
   46.3490   33.5050   44.8440 N   0  0  0  0  0  0  0  0  0  0  0  0
   43.9570   35.5000   46.1960 H   0  0  0  0  0  0  0  0  0  0  0  0
   44.3040   33.9750   48.0670 H   0  0  0  0  0  0  0  0  0  0  0  0
   47.2150   31.8680   45.8850 H   0  0  0  0  0  0  0  0  0  0  0  0
  1  2  2  0  0  0  0
  1 14  1  0  0  0  0
  3  1  1  0  0  0  0
  4  3  1  0  0  0  0
  4  5  1  0  0  0  0
  6  4  2  0  0  0  0
  7  8  2  0  0  0  0
  7  6  1  0  0  0  0
  8 13  1  0  0  0  0
  9 10  2  0  0  0  0
  9  8  1  0  0  0  0
 10 11  1  0  0  0  0
 11 12  2  0  0  0  0
 13 12  1  0  0  0  0
 13  3  2  0  0  0  0
 14 15  1  0  0  0  0
 15 20  1  0  0  0  0
 15 16  2  0  0  0  0
 16 21  1  0  0  0  0
 17 16  1  0  0  0  0
 18 22  1  0  0  0  0
 18 17  2  0  0  0  0
 19 14  2  0  0  0  0
 19 18  1  0  0  0  0
M  END
>  <minimizedAffinity>
-5.26882601

>  <minimizedRMSD>
3.09140348

$$$$
