
 OpenBabel03242516413D

 34 36  0  0  0  0  0  0  0  0999 V2000
   49.2140   33.7140   42.7290 C   0  0  0  0  0  0  0  0  0  0  0  0
   50.0730   34.2480   42.2610 H   0  0  0  0  0  0  0  0  0  0  0  0
   49.3020   33.9460   43.8290 H   0  0  0  0  0  0  0  0  0  0  0  0
   47.8780   34.1470   42.2330 C   0  0  0  0  0  0  0  0  0  0  0  0
   47.9890   35.2050   41.8950 H   0  0  0  0  0  0  0  0  0  0  0  0
   47.5000   33.5770   41.3680 H   0  0  0  0  0  0  0  0  0  0  0  0
   44.8970   35.0700   44.3490 C   0  0  0  0  0  0  0  0  0  0  0  0
   45.8140   35.0140   43.2790 C   0  0  0  0  0  0  0  0  0  0  0  0
   46.9280   34.1870   43.3750 C   0  0  0  0  0  0  0  0  0  0  0  0
   47.0870   33.4670   44.5010 N   0  0  0  0  0  0  0  0  0  0  0  0
   46.2010   33.5350   45.5140 C   0  0  0  0  0  0  0  0  0  0  0  0
   45.1160   34.3230   45.4490 N   0  0  0  0  0  0  0  0  0  0  0  0
   43.7650   35.9020   44.2650 N   0  0  0  0  0  0  0  0  0  0  0  0
   45.6770   35.5980   42.3760 H   0  0  0  0  0  0  0  0  0  0  0  0
   46.3770   32.9310   46.4020 H   0  0  0  0  0  0  0  0  0  0  0  0
   43.8000   36.7270   43.6240 H   0  0  0  0  0  0  0  0  0  0  0  0
   42.9000   35.7530   44.7950 H   0  0  0  0  0  0  0  0  0  0  0  0
   49.3750   32.3470   42.6110 O   0  0  0  0  0  0  0  0  0  0  0  0
   50.3620   30.4170   41.1560 O   0  0  0  0  0  0  0  0  0  0  0  0
   50.2370   31.9220   41.2100 P   0  0  2  0  0  0  0  0  0  0  0  0
   51.7330   32.6790   41.2990 O   0  0  0  0  0  0  0  0  0  0  0  0
   52.1470   32.5070   42.1970 H   0  0  0  0  0  0  0  0  0  0  0  0
   49.4240   32.5480   39.8720 O   0  0  0  0  0  0  0  0  0  0  0  0
   49.5000   32.1390   38.5700 C   0  0  0  0  0  0  0  0  0  0  0  0
   50.6130   31.5840   37.9660 C   0  0  0  0  0  0  0  0  0  0  0  0
   51.4990   31.4620   38.5750 H   0  0  0  0  0  0  0  0  0  0  0  0
   50.5370   31.2130   36.6220 C   0  0  0  0  0  0  0  0  0  0  0  0
   49.3680   31.4060   35.9310 C   0  0  0  0  0  0  0  0  0  0  0  0
   48.2460   31.9580   36.5120 C   0  0  0  0  0  0  0  0  0  0  0  0
   47.0920   32.1330   35.7740 C   0  0  0  0  0  0  0  0  0  0  0  0
   45.9790   32.6790   36.3480 C   0  0  0  0  0  0  0  0  0  0  0  0
   46.0230   33.0530   37.6710 C   0  0  0  0  0  0  0  0  0  0  0  0
   47.1690   32.8860   38.4210 C   0  0  0  0  0  0  0  0  0  0  0  0
   48.3170   32.3290   37.8520 C   0  0  0  0  0  0  0  0  0  0  0  0
  1  3  1  0  0  0  0
  2  1  1  0  0  0  0
  4  1  1  0  0  0  0
  4  9  1  0  0  0  0
  5  4  1  0  0  0  0
  6  4  1  0  0  0  0
  7 12  1  0  0  0  0
  8  9  1  0  0  0  0
  8  7  2  0  0  0  0
  9 10  2  0  0  0  0
 10 11  1  0  0  0  0
 11 15  1  0  0  0  0
 12 11  2  0  0  0  0
 13  7  1  0  0  0  0
 13 17  1  0  0  0  0
 14  8  1  0  0  0  0
 16 13  1  0  0  0  0
 18  1  1  0  0  0  0
 20 19  2  6  0  0  0
 20 21  1  0  0  0  0
 20 18  1  0  0  0  0
 21 22  1  0  0  0  0
 23 20  1  0  0  0  0
 24 23  1  0  0  0  0
 25 24  1  0  0  0  0
 25 26  1  0  0  0  0
 27 25  2  0  0  0  0
 28 29  2  0  0  0  0
 28 27  1  0  0  0  0
 29 34  1  0  0  0  0
 30 31  2  0  0  0  0
 30 29  1  0  0  0  0
 31 32  1  0  0  0  0
 32 33  2  0  0  0  0
 34 33  1  0  0  0  0
 34 24  2  0  0  0  0
M  END
>  <minimizedAffinity>
-5.13352489

>  <minimizedRMSD>
2.72879767

$$$$
