
 OpenBabel03242516553D

 47 51  0  0  1  0  0  0  0  0999 V2000
   36.8390   29.1060   37.1380 C   0  0  1  0  0  0  0  0  0  0  0  0
   36.9980   27.6520   37.2340 C   0  0  0  0  0  0  0  0  0  0  0  0
   35.7140   27.0380   36.6820 C   0  0  0  0  0  0  0  0  0  0  0  0
   34.6220   27.3420   37.6900 C   0  0  0  0  0  0  0  0  0  0  0  0
   34.4930   28.8020   38.0220 C   0  0  0  0  0  0  0  0  0  0  0  0
   35.7120   29.6180   38.0410 C   0  0  1  0  0  0  0  0  0  0  0  0
   36.4510   29.3570   36.1040 H   0  0  0  0  0  0  0  0  0  0  0  0
   37.8220   27.3300   36.5600 H   0  0  0  0  0  0  0  0  0  0  0  0
   37.1520   27.2600   38.2520 H   0  0  0  0  0  0  0  0  0  0  0  0
   35.7830   25.9500   36.5980 H   0  0  0  0  0  0  0  0  0  0  0  0
   35.4670   27.5500   35.7270 H   0  0  0  0  0  0  0  0  0  0  0  0
   34.8730   26.8110   38.6400 H   0  0  0  0  0  0  0  0  0  0  0  0
   33.6710   26.9640   37.2700 H   0  0  0  0  0  0  0  0  0  0  0  0
   33.7350   29.2220   37.3060 H   0  0  0  0  0  0  0  0  0  0  0  0
   33.9980   28.8570   39.0270 H   0  0  0  0  0  0  0  0  0  0  0  0
   35.4640   30.6390   37.6230 H   0  0  0  0  0  0  0  0  0  0  0  0
   40.3840   30.0310   38.0880 C   0  0  0  0  0  0  0  0  0  0  0  0
   39.2010   29.3240   37.8550 C   0  0  0  0  0  0  0  0  0  0  0  0
   38.0330   29.8990   37.3470 C   0  0  0  0  0  0  0  0  0  0  0  0
   38.1020   31.2110   37.0840 N   0  0  0  0  0  0  0  0  0  0  0  0
   39.2470   31.9150   37.3050 C   0  0  0  0  0  0  0  0  0  0  0  0
   40.3520   31.3570   37.7890 N   0  0  0  0  0  0  0  0  0  0  0  0
   41.2260   29.4920   38.4810 H   0  0  0  0  0  0  0  0  0  0  0  0
   39.1640   28.2640   38.0740 H   0  0  0  0  0  0  0  0  0  0  0  0
   39.3250   32.9740   37.1000 H   0  0  0  0  0  0  0  0  0  0  0  0
   36.1880   29.8910   39.3970 C   0  0  0  0  0  0  0  0  0  0  0  0
   36.5190   31.1420   39.9200 C   0  0  0  0  0  0  0  0  0  0  0  0
   36.9340   31.1640   41.2500 C   0  0  0  0  0  0  0  0  0  0  0  0
   36.9850   29.9670   41.9340 C   0  0  0  0  0  0  0  0  0  0  0  0
   36.6520   28.7320   41.3990 C   0  0  0  0  0  0  0  0  0  0  0  0
   36.2500   28.7290   40.1030 N   0  0  0  0  0  0  0  0  0  0  0  0
   36.4280   31.9650   39.2670 H   0  0  0  0  0  0  0  0  0  0  0  0
   37.1900   32.1060   41.6630 H   0  0  0  0  0  0  0  0  0  0  0  0
   37.3100   30.0010   42.9700 H   0  0  0  0  0  0  0  0  0  0  0  0
   36.7430   27.5260   42.2100 C   0  0  0  0  0  0  0  0  0  0  0  0
   36.0670   27.4560   43.2570 O   0  0  0  0  0  0  0  0  0  0  0  0
   37.4940   26.2890   42.0800 C   0  0  0  0  0  0  0  0  0  0  0  0
   36.9900   25.1460   41.4990 C   0  0  0  0  0  0  0  0  0  0  0  0
   36.0030   25.1420   41.0920 H   0  0  0  0  0  0  0  0  0  0  0  0
   37.6520   23.9400   41.3890 C   0  0  0  0  0  3  0  0  0  0  0  0
   38.9300   23.8610   41.9030 C   0  0  0  0  0  3  0  0  0  0  0  0
   39.4980   24.9670   42.4990 C   0  0  0  0  0  0  0  0  0  0  0  0
   40.7640   24.8290   42.9810 C   0  0  0  0  0  3  0  0  0  0  0  0
   41.4010   25.8950   43.5820 C   0  0  0  0  0  3  0  0  0  0  0  0
   40.7100   27.1070   43.6800 C   0  0  0  0  0  3  0  0  0  0  0  0
   39.4350   27.1790   43.1750 C   0  0  0  0  0  3  0  0  0  0  0  0
   38.7720   26.1360   42.5710 C   0  0  0  0  0  0  0  0  0  0  0  0
  1  7  1  6  0  0  0
  1  2  1  0  0  0  0
  1 19  1  0  0  0  0
  1  6  1  0  0  0  0
  2  9  1  0  0  0  0
  3  2  1  0  0  0  0
  3  4  1  0  0  0  0
  4  5  1  0  0  0  0
  4 12  1  0  0  0  0
  5  6  1  0  0  0  0
  5 15  1  0  0  0  0
  6 16  1  6  0  0  0
  6 26  1  0  0  0  0
  8  2  1  0  0  0  0
 10  3  1  0  0  0  0
 11  3  1  0  0  0  0
 13  4  1  0  0  0  0
 14  5  1  0  0  0  0
 17 23  1  0  0  0  0
 18 24  1  0  0  0  0
 18 17  1  0  0  0  0
 19 18  2  0  0  0  0
 20 21  2  0  0  0  0
 20 19  1  0  0  0  0
 21 22  1  0  0  0  0
 22 17  2  0  0  0  0
 25 21  1  0  0  0  0
 26 27  2  0  0  0  0
 26 31  1  0  0  0  0
 27 28  1  0  0  0  0
 28 33  1  0  0  0  0
 28 29  2  0  0  0  0
 29 34  1  0  0  0  0
 30 29  1  0  0  0  0
 30 35  1  0  0  0  0
 31 30  2  0  0  0  0
 32 27  1  0  0  0  0
 35 36  2  0  0  0  0
 37 35  1  0  0  0  0
 37 47  1  0  0  0  0
 38 37  2  0  0  0  0
 39 38  1  0  0  0  0
 40 38  1  0  0  0  0
 40 41  2  0  0  0  0
 41 42  1  0  0  0  0
 42 47  2  0  0  0  0
 42 43  1  0  0  0  0
 43 44  2  0  0  0  0
 44 45  1  0  0  0  0
 46 45  2  0  0  0  0
 47 46  1  0  0  0  0
M  END
>  <minimizedAffinity>
-6.71106005

$$$$

 OpenBabel03242516553D

 47 51  0  0  1  0  0  0  0  0999 V2000
   40.7220   30.9800   39.0380 C   0  0  1  0  0  0  0  0  0  0  0  0
   40.3570   31.9250   37.9770 C   0  0  0  0  0  0  0  0  0  0  0  0
   41.1630   33.1950   38.2320 C   0  0  0  0  0  0  0  0  0  0  0  0
   40.5860   33.8290   39.4830 C   0  0  0  0  0  0  0  0  0  0  0  0
   40.5400   32.9020   40.6660 C   0  0  0  0  0  0  0  0  0  0  0  0
   40.2880   31.4780   40.4200 C   0  0  1  0  0  0  0  0  0  0  0  0
   41.8500   30.9660   39.1320 H   0  0  0  0  0  0  0  0  0  0  0  0
   40.6960   31.5210   36.9980 H   0  0  0  0  0  0  0  0  0  0  0  0
   39.2910   32.2000   37.9360 H   0  0  0  0  0  0  0  0  0  0  0  0
   41.0510   33.9210   37.4220 H   0  0  0  0  0  0  0  0  0  0  0  0
   42.2160   32.9040   38.4350 H   0  0  0  0  0  0  0  0  0  0  0  0
   39.5340   34.1310   39.2630 H   0  0  0  0  0  0  0  0  0  0  0  0
   41.2060   34.7140   39.7210 H   0  0  0  0  0  0  0  0  0  0  0  0
   41.5060   33.0520   41.2210 H   0  0  0  0  0  0  0  0  0  0  0  0
   39.7500   33.3020   41.3530 H   0  0  0  0  0  0  0  0  0  0  0  0
   40.9150   30.8750   41.1420 H   0  0  0  0  0  0  0  0  0  0  0  0
   40.5930   27.2110   39.3590 C   0  0  0  0  0  0  0  0  0  0  0  0
   40.9490   28.5550   39.4970 C   0  0  0  0  0  0  0  0  0  0  0  0
   40.2940   29.6090   38.8530 C   0  0  0  0  0  0  0  0  0  0  0  0
   39.2700   29.2570   38.0630 N   0  0  0  0  0  0  0  0  0  0  0  0
   38.9110   27.9510   37.9170 C   0  0  0  0  0  0  0  0  0  0  0  0
   39.5410   26.9580   38.5350 N   0  0  0  0  0  0  0  0  0  0  0  0
   41.1640   26.4800   39.9000 H   0  0  0  0  0  0  0  0  0  0  0  0
   41.7790   28.8220   40.1390 H   0  0  0  0  0  0  0  0  0  0  0  0
   38.0880   27.6430   37.2850 H   0  0  0  0  0  0  0  0  0  0  0  0
   38.9110   31.0880   40.7270 C   0  0  0  0  0  0  0  0  0  0  0  0
   37.7530   31.7250   40.2800 C   0  0  0  0  0  0  0  0  0  0  0  0
   36.5450   31.1640   40.6870 C   0  0  0  0  0  0  0  0  0  0  0  0
   36.5860   30.0410   41.4870 C   0  0  0  0  0  0  0  0  0  0  0  0
   37.7470   29.4190   41.9220 C   0  0  0  0  0  0  0  0  0  0  0  0
   38.9150   29.9790   41.5170 N   0  0  0  0  0  0  0  0  0  0  0  0
   37.8890   32.5760   39.6730 H   0  0  0  0  0  0  0  0  0  0  0  0
   35.6550   31.6360   40.3560 H   0  0  0  0  0  0  0  0  0  0  0  0
   35.6360   29.6150   41.7950 H   0  0  0  0  0  0  0  0  0  0  0  0
   37.6790   28.2360   42.7690 C   0  0  0  0  0  0  0  0  0  0  0  0
   36.8260   28.1990   43.6800 O   0  0  0  0  0  0  0  0  0  0  0  0
   38.4290   26.9930   42.8090 C   0  0  0  0  0  0  0  0  0  0  0  0
   39.5080   26.7760   43.6360 C   0  0  0  0  0  0  0  0  0  0  0  0
   39.8240   27.5370   44.3150 H   0  0  0  0  0  0  0  0  0  0  0  0
   40.2720   25.6270   43.6790 C   0  0  0  0  0  3  0  0  0  0  0  0
   39.9350   24.6010   42.8220 C   0  0  0  0  0  3  0  0  0  0  0  0
   38.8650   24.7490   41.9650 C   0  0  0  0  0  0  0  0  0  0  0  0
   38.5770   23.6970   41.1470 C   0  0  0  0  0  3  0  0  0  0  0  0
   37.5150   23.7680   40.2690 C   0  0  0  0  0  3  0  0  0  0  0  0
   36.7550   24.9420   40.2460 C   0  0  0  0  0  3  0  0  0  0  0  0
   37.0990   25.9650   41.0950 C   0  0  0  0  0  3  0  0  0  0  0  0
   38.1510   25.9270   41.9810 C   0  0  0  0  0  0  0  0  0  0  0  0
  1  7  1  1  0  0  0
  1  6  1  0  0  0  0
  2  3  1  0  0  0  0
  2  1  1  0  0  0  0
  3 11  1  0  0  0  0
  3  4  1  0  0  0  0
  4 13  1  0  0  0  0
  4  5  1  0  0  0  0
  5 14  1  0  0  0  0
  5 15  1  0  0  0  0
  6  5  1  0  0  0  0
  6 26  1  0  0  0  0
  6 16  1  1  0  0  0
  8  2  1  0  0  0  0
  9  2  1  0  0  0  0
 10  3  1  0  0  0  0
 12  4  1  0  0  0  0
 17 18  1  0  0  0  0
 17 23  1  0  0  0  0
 18 24  1  0  0  0  0
 19  1  1  0  0  0  0
 19 18  2  0  0  0  0
 20 19  1  0  0  0  0
 21 20  2  0  0  0  0
 21 22  1  0  0  0  0
 22 17  2  0  0  0  0
 25 21  1  0  0  0  0
 26 31  1  0  0  0  0
 27 28  1  0  0  0  0
 27 26  2  0  0  0  0
 28 29  2  0  0  0  0
 29 34  1  0  0  0  0
 29 30  1  0  0  0  0
 30 35  1  0  0  0  0
 31 30  2  0  0  0  0
 32 27  1  0  0  0  0
 33 28  1  0  0  0  0
 35 37  1  0  0  0  0
 35 36  2  0  0  0  0
 37 38  1  0  0  0  0
 38 40  2  0  0  0  0
 38 39  1  0  0  0  0
 41 40  1  0  0  0  0
 42 47  1  0  0  0  0
 42 41  2  0  0  0  0
 43 42  1  0  0  0  0
 44 43  2  0  0  0  0
 45 44  1  0  0  0  0
 45 46  2  0  0  0  0
 46 47  1  0  0  0  0
 47 37  2  0  0  0  0
M  END
>  <minimizedAffinity>
-6.67514658

$$$$

 OpenBabel03242516553D

 47 51  0  0  1  0  0  0  0  0999 V2000
   38.7490   30.3420   37.6950 C   0  0  1  0  0  0  0  0  0  0  0  0
   38.2970   28.9470   37.7270 C   0  0  0  0  0  0  0  0  0  0  0  0
   36.8260   28.9590   37.3190 C   0  0  0  0  0  0  0  0  0  0  0  0
   36.0660   29.6030   38.4620 C   0  0  0  0  0  0  0  0  0  0  0  0
   36.5900   30.9570   38.8510 C   0  0  0  0  0  0  0  0  0  0  0  0
   38.0340   31.1980   38.7440 C   0  0  1  0  0  0  0  0  0  0  0  0
   38.3990   30.8100   36.7250 H   0  0  0  0  0  0  0  0  0  0  0  0
   38.8410   28.3700   36.9470 H   0  0  0  0  0  0  0  0  0  0  0  0
   38.3750   28.4480   38.7060 H   0  0  0  0  0  0  0  0  0  0  0  0
   36.4280   27.9490   37.1940 H   0  0  0  0  0  0  0  0  0  0  0  0
   36.7210   29.6010   36.4170 H   0  0  0  0  0  0  0  0  0  0  0  0
   36.1670   28.9430   39.3580 H   0  0  0  0  0  0  0  0  0  0  0  0
   35.0080   29.6830   38.1510 H   0  0  0  0  0  0  0  0  0  0  0  0
   36.0090   31.7050   38.2470 H   0  0  0  0  0  0  0  0  0  0  0  0
   36.2660   31.1310   39.9110 H   0  0  0  0  0  0  0  0  0  0  0  0
   38.1920   32.2600   38.3910 H   0  0  0  0  0  0  0  0  0  0  0  0
   42.4070   29.7340   38.4500 C   0  0  0  0  0  0  0  0  0  0  0  0
   41.0230   29.5890   38.3320 C   0  0  0  0  0  0  0  0  0  0  0  0
   40.1790   30.5560   37.7790 C   0  0  0  0  0  0  0  0  0  0  0  0
   40.7820   31.6740   37.3520 N   0  0  0  0  0  0  0  0  0  0  0  0
   42.1310   31.8310   37.4610 C   0  0  0  0  0  0  0  0  0  0  0  0
   42.9230   30.9040   37.9880 N   0  0  0  0  0  0  0  0  0  0  0  0
   42.9640   28.9280   38.8910 H   0  0  0  0  0  0  0  0  0  0  0  0
   40.5520   28.6790   38.6820 H   0  0  0  0  0  0  0  0  0  0  0  0
   42.6400   32.7250   37.1230 H   0  0  0  0  0  0  0  0  0  0  0  0
   38.7120   31.1450   40.0400 C   0  0  0  0  0  0  0  0  0  0  0  0
   39.6540   32.0580   40.5170 C   0  0  0  0  0  0  0  0  0  0  0  0
   40.1560   31.8140   41.7930 C   0  0  0  0  0  0  0  0  0  0  0  0
   39.6910   30.7090   42.4750 C   0  0  0  0  0  0  0  0  0  0  0  0
   38.7540   29.8110   41.9860 C   0  0  0  0  0  0  0  0  0  0  0  0
   38.2760   30.0630   40.7410 N   0  0  0  0  0  0  0  0  0  0  0  0
   39.9060   32.8530   39.8730 H   0  0  0  0  0  0  0  0  0  0  0  0
   40.8730   32.4980   42.1710 H   0  0  0  0  0  0  0  0  0  0  0  0
   40.0920   30.5330   43.4680 H   0  0  0  0  0  0  0  0  0  0  0  0
   38.3330   28.6710   42.7880 C   0  0  0  0  0  0  0  0  0  0  0  0
   37.4770   28.8500   43.6800 O   0  0  0  0  0  0  0  0  0  0  0  0
   38.7010   27.2660   42.7990 C   0  0  0  0  0  0  0  0  0  0  0  0
   39.6280   26.7240   43.6610 C   0  0  0  0  0  0  0  0  0  0  0  0
   40.1060   27.3410   44.3900 H   0  0  0  0  0  0  0  0  0  0  0  0
   40.0370   25.4060   43.6800 C   0  0  0  0  0  3  0  0  0  0  0  0
   39.4750   24.5480   42.7580 C   0  0  0  0  0  3  0  0  0  0  0  0
   38.5390   25.0220   41.8630 C   0  0  0  0  0  0  0  0  0  0  0  0
   38.0140   24.1240   40.9820 C   0  0  0  0  0  3  0  0  0  0  0  0
   37.0660   24.5230   40.0630 C   0  0  0  0  0  3  0  0  0  0  0  0
   36.6670   25.8630   40.0650 C   0  0  0  0  0  3  0  0  0  0  0  0
   37.2360   26.7170   40.9790 C   0  0  0  0  0  3  0  0  0  0  0  0
   38.1830   26.3520   41.9070 C   0  0  0  0  0  0  0  0  0  0  0  0
  1  7  1  6  0  0  0
  1  2  1  0  0  0  0
  1 19  1  0  0  0  0
  1  6  1  0  0  0  0
  2  9  1  0  0  0  0
  3  2  1  0  0  0  0
  3  4  1  0  0  0  0
  4  5  1  0  0  0  0
  4 12  1  0  0  0  0
  5 15  1  0  0  0  0
  6 16  1  6  0  0  0
  6  5  1  0  0  0  0
  6 26  1  0  0  0  0
  8  2  1  0  0  0  0
 10  3  1  0  0  0  0
 11  3  1  0  0  0  0
 13  4  1  0  0  0  0
 14  5  1  0  0  0  0
 17 23  1  0  0  0  0
 18 17  1  0  0  0  0
 18 24  1  0  0  0  0
 19 18  2  0  0  0  0
 20 21  2  0  0  0  0
 20 19  1  0  0  0  0
 21 22  1  0  0  0  0
 22 17  2  0  0  0  0
 25 21  1  0  0  0  0
 26 27  2  0  0  0  0
 26 31  1  0  0  0  0
 27 28  1  0  0  0  0
 28 33  1  0  0  0  0
 28 29  2  0  0  0  0
 29 34  1  0  0  0  0
 30 29  1  0  0  0  0
 30 35  1  0  0  0  0
 31 30  2  0  0  0  0
 32 27  1  0  0  0  0
 35 37  1  0  0  0  0
 35 36  2  0  0  0  0
 37 38  1  0  0  0  0
 38 40  2  0  0  0  0
 38 39  1  0  0  0  0
 41 40  1  0  0  0  0
 42 47  1  0  0  0  0
 42 41  2  0  0  0  0
 43 42  1  0  0  0  0
 44 45  1  0  0  0  0
 44 43  2  0  0  0  0
 45 46  2  0  0  0  0
 46 47  1  0  0  0  0
 47 37  2  0  0  0  0
M  END
>  <minimizedAffinity>
-6.61658812

$$$$

 OpenBabel03242516553D

 47 51  0  0  1  0  0  0  0  0999 V2000
   40.5350   30.8640   38.5870 C   0  0  1  0  0  0  0  0  0  0  0  0
   40.2480   31.9280   37.6210 C   0  0  0  0  0  0  0  0  0  0  0  0
   41.2670   33.0350   37.8800 C   0  0  0  0  0  0  0  0  0  0  0  0
   40.8960   33.6580   39.2130 C   0  0  0  0  0  0  0  0  0  0  0  0
   40.7900   32.6660   40.3370 C   0  0  0  0  0  0  0  0  0  0  0  0
   40.2930   31.3210   40.0290 C   0  0  1  0  0  0  0  0  0  0  0  0
   41.6500   30.6660   38.5830 H   0  0  0  0  0  0  0  0  0  0  0  0
   40.4420   31.5490   36.5930 H   0  0  0  0  0  0  0  0  0  0  0  0
   39.2410   32.3690   37.6880 H   0  0  0  0  0  0  0  0  0  0  0  0
   41.2130   33.8260   37.1280 H   0  0  0  0  0  0  0  0  0  0  0  0
   42.2710   32.5680   37.9740 H   0  0  0  0  0  0  0  0  0  0  0  0
   39.8930   34.1360   39.1020 H   0  0  0  0  0  0  0  0  0  0  0  0
   41.6670   34.4160   39.4480 H   0  0  0  0  0  0  0  0  0  0  0  0
   41.8070   32.6230   40.8150 H   0  0  0  0  0  0  0  0  0  0  0  0
   40.1300   33.1340   41.1130 H   0  0  0  0  0  0  0  0  0  0  0  0
   40.8670   30.5760   40.6570 H   0  0  0  0  0  0  0  0  0  0  0  0
   39.8220   27.1480   38.6920 C   0  0  0  0  0  0  0  0  0  0  0  0
   40.4000   28.4060   38.8800 C   0  0  0  0  0  0  0  0  0  0  0  0
   39.8780   29.5940   38.3590 C   0  0  0  0  0  0  0  0  0  0  0  0
   38.7540   29.4640   37.6400 N   0  0  0  0  0  0  0  0  0  0  0  0
   38.1780   28.2450   37.4470 C   0  0  0  0  0  0  0  0  0  0  0  0
   38.6840   27.1230   37.9490 N   0  0  0  0  0  0  0  0  0  0  0  0
   40.3060   26.2990   39.1370 H   0  0  0  0  0  0  0  0  0  0  0  0
   41.3090   28.4920   39.4630 H   0  0  0  0  0  0  0  0  0  0  0  0
   37.2700   28.1170   36.8720 H   0  0  0  0  0  0  0  0  0  0  0  0
   38.8980   31.1300   40.4300 C   0  0  0  0  0  0  0  0  0  0  0  0
   37.8140   31.9220   40.0500 C   0  0  0  0  0  0  0  0  0  0  0  0
   36.5680   31.5380   40.5420 C   0  0  0  0  0  0  0  0  0  0  0  0
   36.5050   30.4240   41.3520 C   0  0  0  0  0  0  0  0  0  0  0  0
   37.5930   29.6470   41.7200 C   0  0  0  0  0  0  0  0  0  0  0  0
   38.7990   30.0350   41.2320 N   0  0  0  0  0  0  0  0  0  0  0  0
   38.0270   32.7430   39.4240 H   0  0  0  0  0  0  0  0  0  0  0  0
   35.7330   32.1290   40.2630 H   0  0  0  0  0  0  0  0  0  0  0  0
   35.5270   30.1370   41.7280 H   0  0  0  0  0  0  0  0  0  0  0  0
   37.4170   28.4880   42.5860 C   0  0  0  0  0  0  0  0  0  0  0  0
   36.8350   28.6410   43.6790 O   0  0  0  0  0  0  0  0  0  0  0  0
   37.7870   27.0890   42.4680 C   0  0  0  0  0  0  0  0  0  0  0  0
   36.9300   26.1050   42.0270 C   0  0  0  0  0  0  0  0  0  0  0  0
   35.9360   26.3560   41.7260 H   0  0  0  0  0  0  0  0  0  0  0  0
   37.2260   24.7600   41.9370 C   0  0  0  0  0  3  0  0  0  0  0  0
   38.4870   24.3540   42.3210 C   0  0  0  0  0  3  0  0  0  0  0  0
   39.3980   25.2860   42.7730 C   0  0  0  0  0  0  0  0  0  0  0  0
   40.6290   24.8250   43.1310 C   0  0  0  0  0  3  0  0  0  0  0  0
   41.5950   25.6990   43.5840 C   0  0  0  0  0  3  0  0  0  0  0  0
   41.2720   27.0570   43.6640 C   0  0  0  0  0  3  0  0  0  0  0  0
   40.0110   27.4560   43.2900 C   0  0  0  0  0  3  0  0  0  0  0  0
   39.0260   26.6110   42.8350 C   0  0  0  0  0  0  0  0  0  0  0  0
  1  7  1  6  0  0  0
  1  6  1  0  0  0  0
  2  9  1  0  0  0  0
  2  3  1  0  0  0  0
  2  1  1  0  0  0  0
  3 11  1  0  0  0  0
  3  4  1  0  0  0  0
  4 13  1  0  0  0  0
  4  5  1  0  0  0  0
  5 14  1  0  0  0  0
  5 15  1  0  0  0  0
  6  5  1  0  0  0  0
  6 26  1  0  0  0  0
  6 16  1  1  0  0  0
  8  2  1  0  0  0  0
 10  3  1  0  0  0  0
 12  4  1  0  0  0  0
 17 18  1  0  0  0  0
 17 23  1  0  0  0  0
 18 24  1  0  0  0  0
 19  1  1  0  0  0  0
 19 18  2  0  0  0  0
 20 19  1  0  0  0  0
 21 20  2  0  0  0  0
 21 22  1  0  0  0  0
 22 17  2  0  0  0  0
 25 21  1  0  0  0  0
 26 31  1  0  0  0  0
 27 26  2  0  0  0  0
 27 28  1  0  0  0  0
 28 29  2  0  0  0  0
 29 30  1  0  0  0  0
 29 34  1  0  0  0  0
 30 35  1  0  0  0  0
 31 30  2  0  0  0  0
 32 27  1  0  0  0  0
 33 28  1  0  0  0  0
 35 36  2  0  0  0  0
 37 35  1  0  0  0  0
 37 47  1  0  0  0  0
 38 37  2  0  0  0  0
 39 38  1  0  0  0  0
 40 38  1  0  0  0  0
 40 41  2  0  0  0  0
 41 42  1  0  0  0  0
 42 47  2  0  0  0  0
 42 43  1  0  0  0  0
 43 44  2  0  0  0  0
 44 45  1  0  0  0  0
 46 45  2  0  0  0  0
 47 46  1  0  0  0  0
M  END
>  <minimizedAffinity>
-6.60109758

$$$$

 OpenBabel03242516553D

 47 51  0  0  1  0  0  0  0  0999 V2000
   36.8060   30.4360   39.2660 C   0  0  1  0  0  0  0  0  0  0  0  0
   36.9520   29.4510   38.1910 C   0  0  0  0  0  0  0  0  0  0  0  0
   35.5710   29.2860   37.5620 C   0  0  0  0  0  0  0  0  0  0  0  0
   34.7140   28.5670   38.5860 C   0  0  0  0  0  0  0  0  0  0  0  0
   34.6840   29.2400   39.9300 C   0  0  0  0  0  0  0  0  0  0  0  0
   35.8970   29.9260   40.3880 C   0  0  1  0  0  0  0  0  0  0  0  0
   36.2200   31.3190   38.8660 H   0  0  0  0  0  0  0  0  0  0  0  0
   37.6160   29.8680   37.4020 H   0  0  0  0  0  0  0  0  0  0  0  0
   37.3030   28.4550   38.5070 H   0  0  0  0  0  0  0  0  0  0  0  0
   35.6000   28.6590   36.6670 H   0  0  0  0  0  0  0  0  0  0  0  0
   35.1450   30.2990   37.3910 H   0  0  0  0  0  0  0  0  0  0  0  0
   35.1430   27.5480   38.7390 H   0  0  0  0  0  0  0  0  0  0  0  0
   33.6900   28.5040   38.1720 H   0  0  0  0  0  0  0  0  0  0  0  0
   33.8040   29.9390   39.9120 H   0  0  0  0  0  0  0  0  0  0  0  0
   34.4050   28.4490   40.6750 H   0  0  0  0  0  0  0  0  0  0  0  0
   35.5880   30.8620   40.9430 H   0  0  0  0  0  0  0  0  0  0  0  0
   39.2090   32.7740   41.0220 C   0  0  0  0  0  0  0  0  0  0  0  0
   38.0610   32.2060   40.4640 C   0  0  0  0  0  0  0  0  0  0  0  0
   38.0320   30.9610   39.8290 C   0  0  0  0  0  0  0  0  0  0  0  0
   39.2040   30.3120   39.7760 N   0  0  0  0  0  0  0  0  0  0  0  0
   40.3330   30.8520   40.3150 C   0  0  0  0  0  0  0  0  0  0  0  0
   40.3470   32.0370   40.9160 N   0  0  0  0  0  0  0  0  0  0  0  0
   39.1210   33.7380   41.4880 H   0  0  0  0  0  0  0  0  0  0  0  0
   37.1230   32.7450   40.5160 H   0  0  0  0  0  0  0  0  0  0  0  0
   41.2890   30.3470   40.2840 H   0  0  0  0  0  0  0  0  0  0  0  0
   36.6440   29.1500   41.3790 C   0  0  0  0  0  0  0  0  0  0  0  0
   37.3270   29.6610   42.4840 C   0  0  0  0  0  0  0  0  0  0  0  0
   37.9560   28.7280   43.3050 C   0  0  0  0  0  0  0  0  0  0  0  0
   37.8560   27.3940   42.9670 C   0  0  0  0  0  0  0  0  0  0  0  0
   37.1730   26.9030   41.8660 C   0  0  0  0  0  0  0  0  0  0  0  0
   36.5660   27.8260   41.0760 N   0  0  0  0  0  0  0  0  0  0  0  0
   37.3110   30.7080   42.6040 H   0  0  0  0  0  0  0  0  0  0  0  0
   38.4800   29.0990   44.1480 H   0  0  0  0  0  0  0  0  0  0  0  0
   38.3520   26.6790   43.6170 H   0  0  0  0  0  0  0  0  0  0  0  0
   37.1310   25.4710   41.5980 C   0  0  0  0  0  0  0  0  0  0  0  0
   36.9550   24.6890   42.5550 O   0  0  0  0  0  0  0  0  0  0  0  0
   37.2560   24.6780   40.3890 C   0  0  0  0  0  0  0  0  0  0  0  0
   36.1980   24.0440   39.7760 C   0  0  0  0  0  0  0  0  0  0  0  0
   35.2120   24.1400   40.1750 H   0  0  0  0  0  0  0  0  0  0  0  0
   36.2780   23.2500   38.6500 C   0  0  0  0  0  3  0  0  0  0  0  0
   37.5210   23.0660   38.0820 C   0  0  0  0  0  3  0  0  0  0  0  0
   38.6260   23.6710   38.6430 C   0  0  0  0  0  0  0  0  0  0  0  0
   39.8250   23.4580   38.0320 C   0  0  0  0  0  3  0  0  0  0  0  0
   40.9740   24.0370   38.5310 C   0  0  0  0  0  3  0  0  0  0  0  0
   40.8670   24.8390   39.6700 C   0  0  0  0  0  3  0  0  0  0  0  0
   39.6280   25.0130   40.2390 C   0  0  0  0  0  3  0  0  0  0  0  0
   38.4650   24.4490   39.7680 C   0  0  0  0  0  0  0  0  0  0  0  0
  1  7  1  6  0  0  0
  1 19  1  0  0  0  0
  1  6  1  0  0  0  0
  2  9  1  0  0  0  0
  2  1  1  0  0  0  0
  3  2  1  0  0  0  0
  3  4  1  0  0  0  0
  4 12  1  0  0  0  0
  4  5  1  0  0  0  0
  5  6  1  0  0  0  0
  5 15  1  0  0  0  0
  6 16  1  1  0  0  0
  6 26  1  0  0  0  0
  8  2  1  0  0  0  0
 10  3  1  0  0  0  0
 11  3  1  0  0  0  0
 13  4  1  0  0  0  0
 14  5  1  0  0  0  0
 17 23  1  0  0  0  0
 18 24  1  0  0  0  0
 18 17  2  0  0  0  0
 19 18  1  0  0  0  0
 20 19  2  0  0  0  0
 20 21  1  0  0  0  0
 21 22  2  0  0  0  0
 22 17  1  0  0  0  0
 25 21  1  0  0  0  0
 26 27  1  0  0  0  0
 27 32  1  0  0  0  0
 27 28  2  0  0  0  0
 28 33  1  0  0  0  0
 29 28  1  0  0  0  0
 29 34  1  0  0  0  0
 30 29  2  0  0  0  0
 31 26  2  0  0  0  0
 31 30  1  0  0  0  0
 35 30  1  0  0  0  0
 35 36  2  0  0  0  0
 37 35  1  0  0  0  0
 38 39  1  0  0  0  0
 38 37  1  0  0  0  0
 40 38  2  0  0  0  0
 41 42  2  0  0  0  0
 41 40  1  0  0  0  0
 42 47  1  0  0  0  0
 43 44  2  0  0  0  0
 43 42  1  0  0  0  0
 44 45  1  0  0  0  0
 45 46  2  0  0  0  0
 47 46  1  0  0  0  0
 47 37  2  0  0  0  0
M  END
>  <minimizedAffinity>
-6.56623316

$$$$

 OpenBabel03242516553D

 47 51  0  0  1  0  0  0  0  0999 V2000
   37.3350   30.4190   38.6600 C   0  0  1  0  0  0  0  0  0  0  0  0
   36.8600   29.0450   38.4730 C   0  0  0  0  0  0  0  0  0  0  0  0
   35.3480   29.0780   38.6820 C   0  0  0  0  0  0  0  0  0  0  0  0
   35.1220   29.3320   40.1600 C   0  0  0  0  0  0  0  0  0  0  0  0
   35.8250   30.5550   40.6790 C   0  0  0  0  0  0  0  0  0  0  0  0
   37.1260   30.9050   40.0980 C   0  0  1  0  0  0  0  0  0  0  0  0
   36.6630   31.1150   38.0720 H   0  0  0  0  0  0  0  0  0  0  0  0
   37.0300   28.7410   37.4170 H   0  0  0  0  0  0  0  0  0  0  0  0
   37.2830   28.3000   39.1650 H   0  0  0  0  0  0  0  0  0  0  0  0
   34.8810   28.1190   38.4440 H   0  0  0  0  0  0  0  0  0  0  0  0
   34.9360   29.9370   38.1080 H   0  0  0  0  0  0  0  0  0  0  0  0
   35.5260   28.4570   40.7260 H   0  0  0  0  0  0  0  0  0  0  0  0
   34.0310   29.4280   40.3160 H   0  0  0  0  0  0  0  0  0  0  0  0
   35.0950   31.4040   40.5800 H   0  0  0  0  0  0  0  0  0  0  0  0
   35.9430   30.4090   41.7850 H   0  0  0  0  0  0  0  0  0  0  0  0
   37.1900   32.0320   40.0220 H   0  0  0  0  0  0  0  0  0  0  0  0
   40.9460   29.8460   37.6810 C   0  0  0  0  0  0  0  0  0  0  0  0
   39.6190   29.6550   38.0720 C   0  0  0  0  0  0  0  0  0  0  0  0
   38.6960   30.6910   38.2450 C   0  0  0  0  0  0  0  0  0  0  0  0
   39.1620   31.9250   38.0110 N   0  0  0  0  0  0  0  0  0  0  0  0
   40.4540   32.1290   37.6290 C   0  0  0  0  0  0  0  0  0  0  0  0
   41.3220   31.1360   37.4680 N   0  0  0  0  0  0  0  0  0  0  0  0
   41.5720   28.9800   37.5770 H   0  0  0  0  0  0  0  0  0  0  0  0
   39.2590   28.6510   38.2580 H   0  0  0  0  0  0  0  0  0  0  0  0
   40.8520   33.1170   37.4340 H   0  0  0  0  0  0  0  0  0  0  0  0
   38.2470   30.5380   40.9620 C   0  0  0  0  0  0  0  0  0  0  0  0
   39.2620   31.3880   41.4060 C   0  0  0  0  0  0  0  0  0  0  0  0
   40.2210   30.8200   42.2400 C   0  0  0  0  0  0  0  0  0  0  0  0
   40.0970   29.4830   42.5580 C   0  0  0  0  0  0  0  0  0  0  0  0
   39.0820   28.6520   42.1080 C   0  0  0  0  0  0  0  0  0  0  0  0
   38.1560   29.2220   41.2960 N   0  0  0  0  0  0  0  0  0  0  0  0
   39.2170   32.3880   41.0730 H   0  0  0  0  0  0  0  0  0  0  0  0
   40.9990   31.4520   42.5860 H   0  0  0  0  0  0  0  0  0  0  0  0
   40.8530   29.0550   43.2090 H   0  0  0  0  0  0  0  0  0  0  0  0
   39.0450   27.2500   42.5030 C   0  0  0  0  0  0  0  0  0  0  0  0
   39.6060   26.9120   43.5650 O   0  0  0  0  0  0  0  0  0  0  0  0
   38.4660   26.0600   41.9050 C   0  0  0  0  0  0  0  0  0  0  0  0
   37.2790   25.4960   42.3170 C   0  0  0  0  0  0  0  0  0  0  0  0
   36.7160   25.9490   43.1040 H   0  0  0  0  0  0  0  0  0  0  0  0
   36.7120   24.3470   41.8050 C   0  0  0  0  0  3  0  0  0  0  0  0
   37.3870   23.6960   40.7930 C   0  0  0  0  0  3  0  0  0  0  0  0
   38.5830   24.2030   40.3300 C   0  0  0  0  0  0  0  0  0  0  0  0
   39.1980   23.5200   39.3250 C   0  0  0  0  0  3  0  0  0  0  0  0
   40.3930   23.9720   38.8050 C   0  0  0  0  0  3  0  0  0  0  0  0
   40.9450   25.1400   39.3390 C   0  0  0  0  0  3  0  0  0  0  0  0
   40.2750   25.7810   40.3530 C   0  0  0  0  0  3  0  0  0  0  0  0
   39.0840   25.3560   40.8930 C   0  0  0  0  0  0  0  0  0  0  0  0
  1  7  1  6  0  0  0
  1  6  1  0  0  0  0
  2  1  1  0  0  0  0
  2  3  1  0  0  0  0
  2  9  1  0  0  0  0
  3  4  1  0  0  0  0
  4 13  1  0  0  0  0
  4  5  1  0  0  0  0
  4 12  1  0  0  0  0
  5 15  1  0  0  0  0
  6 16  1  6  0  0  0
  6  5  1  0  0  0  0
  6 26  1  0  0  0  0
  8  2  1  0  0  0  0
 10  3  1  0  0  0  0
 11  3  1  0  0  0  0
 14  5  1  0  0  0  0
 17 18  1  0  0  0  0
 18 19  2  0  0  0  0
 18 24  1  0  0  0  0
 19  1  1  0  0  0  0
 20 19  1  0  0  0  0
 21 20  2  0  0  0  0
 22 21  1  0  0  0  0
 22 17  2  0  0  0  0
 23 17  1  0  0  0  0
 25 21  1  0  0  0  0
 26 31  2  0  0  0  0
 26 27  1  0  0  0  0
 27 28  2  0  0  0  0
 28 29  1  0  0  0  0
 28 33  1  0  0  0  0
 29 34  1  0  0  0  0
 30 35  1  0  0  0  0
 30 29  2  0  0  0  0
 31 30  1  0  0  0  0
 32 27  1  0  0  0  0
 35 36  2  0  0  0  0
 37 38  1  0  0  0  0
 37 35  1  0  0  0  0
 38 39  1  0  0  0  0
 40 38  2  0  0  0  0
 41 40  1  0  0  0  0
 42 41  2  0  0  0  0
 42 47  1  0  0  0  0
 43 42  1  0  0  0  0
 44 43  2  0  0  0  0
 44 45  1  0  0  0  0
 45 46  2  0  0  0  0
 46 47  1  0  0  0  0
 47 37  2  0  0  0  0
M  END
>  <minimizedAffinity>
-6.54677677

$$$$

 OpenBabel03242516553D

 47 51  0  0  1  0  0  0  0  0999 V2000
   35.9470   29.4180   37.1300 C   0  0  1  0  0  0  0  0  0  0  0  0
   35.3980   28.7710   35.9350 C   0  0  0  0  0  0  0  0  0  0  0  0
   33.9650   29.2770   35.7880 C   0  0  0  0  0  0  0  0  0  0  0  0
   33.1700   28.6580   36.9220 C   0  0  0  0  0  0  0  0  0  0  0  0
   33.7580   28.9110   38.2820 C   0  0  0  0  0  0  0  0  0  0  0  0
   35.2190   28.9780   38.4040 C   0  0  1  0  0  0  0  0  0  0  0  0
   35.7030   30.5220   37.0840 H   0  0  0  0  0  0  0  0  0  0  0  0
   35.9560   29.1240   35.0400 H   0  0  0  0  0  0  0  0  0  0  0  0
   35.3680   27.6700   35.9650 H   0  0  0  0  0  0  0  0  0  0  0  0
   33.5070   28.9440   34.8530 H   0  0  0  0  0  0  0  0  0  0  0  0
   33.9720   30.3810   35.9200 H   0  0  0  0  0  0  0  0  0  0  0  0
   33.1590   27.5520   36.7710 H   0  0  0  0  0  0  0  0  0  0  0  0
   32.1460   29.0720   36.8700 H   0  0  0  0  0  0  0  0  0  0  0  0
   33.2760   29.8520   38.6630 H   0  0  0  0  0  0  0  0  0  0  0  0
   33.3700   28.1000   38.9520 H   0  0  0  0  0  0  0  0  0  0  0  0
   35.4770   29.7760   39.1610 H   0  0  0  0  0  0  0  0  0  0  0  0
   39.4470   30.1520   38.3700 C   0  0  0  0  0  0  0  0  0  0  0  0
   38.0690   30.1980   38.1470 C   0  0  0  0  0  0  0  0  0  0  0  0
   37.3790   29.3060   37.3210 C   0  0  0  0  0  0  0  0  0  0  0  0
   38.1310   28.3700   36.7260 N   0  0  0  0  0  0  0  0  0  0  0  0
   39.4760   28.3110   36.9320 C   0  0  0  0  0  0  0  0  0  0  0  0
   40.1210   29.1650   37.7210 N   0  0  0  0  0  0  0  0  0  0  0  0
   39.8780   30.8870   39.0250 H   0  0  0  0  0  0  0  0  0  0  0  0
   37.4770   30.9620   38.6350 H   0  0  0  0  0  0  0  0  0  0  0  0
   40.1030   27.5640   36.4640 H   0  0  0  0  0  0  0  0  0  0  0  0
   35.7950   27.7540   38.9610 C   0  0  0  0  0  0  0  0  0  0  0  0
   35.8040   26.4950   38.3570 C   0  0  0  0  0  0  0  0  0  0  0  0
   36.4290   25.4740   39.0690 C   0  0  0  0  0  0  0  0  0  0  0  0
   36.9790   25.7810   40.2960 C   0  0  0  0  0  0  0  0  0  0  0  0
   36.9620   27.0370   40.8830 C   0  0  0  0  0  0  0  0  0  0  0  0
   36.3500   28.0200   40.1750 N   0  0  0  0  0  0  0  0  0  0  0  0
   35.3390   26.4230   37.4140 H   0  0  0  0  0  0  0  0  0  0  0  0
   36.4440   24.5120   38.6250 H   0  0  0  0  0  0  0  0  0  0  0  0
   37.4620   24.9740   40.8400 H   0  0  0  0  0  0  0  0  0  0  0  0
   37.5720   27.2540   42.1880 C   0  0  0  0  0  0  0  0  0  0  0  0
   36.8290   27.4420   43.1730 O   0  0  0  0  0  0  0  0  0  0  0  0
   38.9480   27.3070   42.6500 C   0  0  0  0  0  0  0  0  0  0  0  0
   39.6160   26.2320   43.1930 C   0  0  0  0  0  0  0  0  0  0  0  0
   39.1290   25.2840   43.2730 H   0  0  0  0  0  0  0  0  0  0  0  0
   40.9070   26.2480   43.6800 C   0  0  0  0  0  3  0  0  0  0  0  0
   41.5990   27.4400   43.6230 C   0  0  0  0  0  3  0  0  0  0  0  0
   40.9920   28.5580   43.0920 C   0  0  0  0  0  0  0  0  0  0  0  0
   41.7290   29.7040   43.0570 C   0  0  0  0  0  3  0  0  0  0  0  0
   41.1920   30.8620   42.5310 C   0  0  0  0  0  3  0  0  0  0  0  0
   39.8830   30.8190   42.0420 C   0  0  0  0  0  3  0  0  0  0  0  0
   39.1940   29.6320   42.1080 C   0  0  0  0  0  3  0  0  0  0  0  0
   39.6990   28.4620   42.6270 C   0  0  0  0  0  0  0  0  0  0  0  0
  1  7  1  6  0  0  0
  1 19  1  0  0  0  0
  1  6  1  0  0  0  0
  2  9  1  0  0  0  0
  2  1  1  0  0  0  0
  3 11  1  0  0  0  0
  3  2  1  0  0  0  0
  3  4  1  0  0  0  0
  4  5  1  0  0  0  0
  5  6  1  0  0  0  0
  5 14  1  0  0  0  0
  5 15  1  0  0  0  0
  6 26  1  0  0  0  0
  6 16  1  1  0  0  0
  8  2  1  0  0  0  0
 10  3  1  0  0  0  0
 12  4  1  0  0  0  0
 13  4  1  0  0  0  0
 17 23  1  0  0  0  0
 18 17  1  0  0  0  0
 18 24  1  0  0  0  0
 19 18  2  0  0  0  0
 20 21  2  0  0  0  0
 20 19  1  0  0  0  0
 21 22  1  0  0  0  0
 22 17  2  0  0  0  0
 25 21  1  0  0  0  0
 26 31  1  0  0  0  0
 27 26  2  0  0  0  0
 27 28  1  0  0  0  0
 28 29  2  0  0  0  0
 29 34  1  0  0  0  0
 29 30  1  0  0  0  0
 30 35  1  0  0  0  0
 31 30  2  0  0  0  0
 32 27  1  0  0  0  0
 33 28  1  0  0  0  0
 35 37  1  0  0  0  0
 35 36  2  0  0  0  0
 37 38  1  0  0  0  0
 38 39  1  0  0  0  0
 38 40  2  0  0  0  0
 41 40  1  0  0  0  0
 42 41  2  0  0  0  0
 43 42  1  0  0  0  0
 44 43  2  0  0  0  0
 45 46  2  0  0  0  0
 45 44  1  0  0  0  0
 46 47  1  0  0  0  0
 47 37  2  0  0  0  0
 47 42  1  0  0  0  0
M  END
>  <minimizedAffinity>
-6.49089909

$$$$

 OpenBabel03242516553D

 47 51  0  0  1  0  0  0  0  0999 V2000
   35.9470   29.6710   37.2360 C   0  0  1  0  0  0  0  0  0  0  0  0
   35.6790   28.8210   36.0730 C   0  0  0  0  0  0  0  0  0  0  0  0
   34.2100   29.0290   35.7130 C   0  0  0  0  0  0  0  0  0  0  0  0
   33.3990   28.3810   36.8180 C   0  0  0  0  0  0  0  0  0  0  0  0
   33.7540   28.8680   38.1950 C   0  0  0  0  0  0  0  0  0  0  0  0
   35.1510   29.2230   38.4660 C   0  0  1  0  0  0  0  0  0  0  0  0
   35.5190   30.6990   37.0360 H   0  0  0  0  0  0  0  0  0  0  0  0
   36.2750   29.1880   35.2080 H   0  0  0  0  0  0  0  0  0  0  0  0
   35.8420   27.7420   36.2270 H   0  0  0  0  0  0  0  0  0  0  0  0
   33.9420   28.5280   34.7790 H   0  0  0  0  0  0  0  0  0  0  0  0
   34.0030   30.1220   35.7160 H   0  0  0  0  0  0  0  0  0  0  0  0
   33.6040   27.2830   36.7970 H   0  0  0  0  0  0  0  0  0  0  0  0
   32.3330   28.5850   36.6080 H   0  0  0  0  0  0  0  0  0  0  0  0
   33.0670   29.7320   38.4100 H   0  0  0  0  0  0  0  0  0  0  0  0
   33.4330   28.0650   38.9090 H   0  0  0  0  0  0  0  0  0  0  0  0
   35.1640   30.1240   39.1490 H   0  0  0  0  0  0  0  0  0  0  0  0
   39.0920   31.2360   38.6460 C   0  0  0  0  0  0  0  0  0  0  0  0
   37.7660   30.9940   38.2780 C   0  0  0  0  0  0  0  0  0  0  0  0
   37.3390   29.8520   37.5930 C   0  0  0  0  0  0  0  0  0  0  0  0
   38.2980   28.9670   37.2920 N   0  0  0  0  0  0  0  0  0  0  0  0
   39.5960   29.1870   37.6430 C   0  0  0  0  0  0  0  0  0  0  0  0
   39.9900   30.2760   38.2950 N   0  0  0  0  0  0  0  0  0  0  0  0
   39.3130   32.1460   39.1710 H   0  0  0  0  0  0  0  0  0  0  0  0
   37.0040   31.7210   38.5290 H   0  0  0  0  0  0  0  0  0  0  0  0
   40.3870   28.4860   37.4110 H   0  0  0  0  0  0  0  0  0  0  0  0
   35.8600   28.1890   39.2220 C   0  0  0  0  0  0  0  0  0  0  0  0
   35.9300   26.8330   38.9000 C   0  0  0  0  0  0  0  0  0  0  0  0
   36.6800   26.0340   39.7590 C   0  0  0  0  0  0  0  0  0  0  0  0
   37.2840   26.6350   40.8440 C   0  0  0  0  0  0  0  0  0  0  0  0
   37.2030   27.9840   41.1500 C   0  0  0  0  0  0  0  0  0  0  0  0
   36.4690   28.7490   40.3030 N   0  0  0  0  0  0  0  0  0  0  0  0
   35.4110   26.5270   38.0340 H   0  0  0  0  0  0  0  0  0  0  0  0
   36.7440   25.0000   39.5290 H   0  0  0  0  0  0  0  0  0  0  0  0
   37.8650   25.9980   41.5050 H   0  0  0  0  0  0  0  0  0  0  0  0
   37.8790   28.5180   42.3260 C   0  0  0  0  0  0  0  0  0  0  0  0
   37.2540   28.5670   43.4050 O   0  0  0  0  0  0  0  0  0  0  0  0
   39.2100   29.0500   42.5560 C   0  0  0  0  0  0  0  0  0  0  0  0
   39.5430   30.3770   42.3970 C   0  0  0  0  0  0  0  0  0  0  0  0
   38.7970   31.0850   42.1080 H   0  0  0  0  0  0  0  0  0  0  0  0
   40.8020   30.9180   42.5660 C   0  0  0  0  0  3  0  0  0  0  0  0
   41.8230   30.0640   42.9260 C   0  0  0  0  0  3  0  0  0  0  0  0
   41.5620   28.7210   43.1040 C   0  0  0  0  0  0  0  0  0  0  0  0
   42.6100   27.9300   43.4660 C   0  0  0  0  0  3  0  0  0  0  0  0
   42.4250   26.5780   43.6700 C   0  0  0  0  0  3  0  0  0  0  0  0
   41.1400   26.0550   43.4940 C   0  0  0  0  0  3  0  0  0  0  0  0
   40.1270   26.9070   43.1270 C   0  0  0  0  0  3  0  0  0  0  0  0
   40.2790   28.2570   42.9150 C   0  0  0  0  0  0  0  0  0  0  0  0
  1  7  1  6  0  0  0
  1 19  1  0  0  0  0
  1  6  1  0  0  0  0
  2  9  1  0  0  0  0
  2  1  1  0  0  0  0
  3 11  1  0  0  0  0
  3  2  1  0  0  0  0
  3  4  1  0  0  0  0
  4  5  1  0  0  0  0
  5 14  1  0  0  0  0
  5  6  1  0  0  0  0
  5 15  1  0  0  0  0
  6 16  1  1  0  0  0
  6 26  1  0  0  0  0
  8  2  1  0  0  0  0
 10  3  1  0  0  0  0
 12  4  1  0  0  0  0
 13  4  1  0  0  0  0
 17 23  1  0  0  0  0
 18 24  1  0  0  0  0
 18 17  2  0  0  0  0
 19 18  1  0  0  0  0
 20 19  2  0  0  0  0
 20 21  1  0  0  0  0
 21 22  2  0  0  0  0
 22 17  1  0  0  0  0
 25 21  1  0  0  0  0
 26 31  1  0  0  0  0
 27 26  2  0  0  0  0
 27 28  1  0  0  0  0
 28 29  2  0  0  0  0
 29 30  1  0  0  0  0
 29 34  1  0  0  0  0
 30 35  1  0  0  0  0
 31 30  2  0  0  0  0
 32 27  1  0  0  0  0
 33 28  1  0  0  0  0
 35 37  1  0  0  0  0
 35 36  2  0  0  0  0
 37 47  1  0  0  0  0
 38 37  2  0  0  0  0
 38 40  1  0  0  0  0
 39 38  1  0  0  0  0
 40 41  2  0  0  0  0
 41 42  1  0  0  0  0
 42 43  1  0  0  0  0
 43 44  2  0  0  0  0
 45 44  1  0  0  0  0
 46 45  2  0  0  0  0
 47 42  2  0  0  0  0
 47 46  1  0  0  0  0
M  END
>  <minimizedAffinity>
-6.47977161

$$$$

 OpenBabel03242516553D

 47 51  0  0  1  0  0  0  0  0999 V2000
   39.6960   29.6760   38.4780 C   0  0  1  0  0  0  0  0  0  0  0  0
   40.4250   28.5950   39.1480 C   0  0  0  0  0  0  0  0  0  0  0  0
   40.8740   27.6320   38.0520 C   0  0  0  0  0  0  0  0  0  0  0  0
   39.6210   26.9480   37.5380 C   0  0  0  0  0  0  0  0  0  0  0  0
   38.5490   27.9030   37.0930 C   0  0  0  0  0  0  0  0  0  0  0  0
   38.4100   29.1730   37.8150 C   0  0  1  0  0  0  0  0  0  0  0  0
   40.3040   30.0220   37.5890 H   0  0  0  0  0  0  0  0  0  0  0  0
   41.3490   29.0090   39.6090 H   0  0  0  0  0  0  0  0  0  0  0  0
   39.8440   28.0210   39.8880 H   0  0  0  0  0  0  0  0  0  0  0  0
   41.5330   26.8500   38.4390 H   0  0  0  0  0  0  0  0  0  0  0  0
   41.3170   28.2290   37.2250 H   0  0  0  0  0  0  0  0  0  0  0  0
   39.1940   26.3410   38.3720 H   0  0  0  0  0  0  0  0  0  0  0  0
   39.9220   26.2990   36.6950 H   0  0  0  0  0  0  0  0  0  0  0  0
   38.7180   28.0770   35.9960 H   0  0  0  0  0  0  0  0  0  0  0  0
   37.5800   27.3410   37.1470 H   0  0  0  0  0  0  0  0  0  0  0  0
   38.1480   29.9800   37.0680 H   0  0  0  0  0  0  0  0  0  0  0  0
   39.4130   31.9630   41.4810 C   0  0  0  0  0  0  0  0  0  0  0  0
   39.6720   30.8690   40.6510 C   0  0  0  0  0  0  0  0  0  0  0  0
   39.4080   30.8490   39.2780 C   0  0  0  0  0  0  0  0  0  0  0  0
   38.8720   31.9700   38.7760 N   0  0  0  0  0  0  0  0  0  0  0  0
   38.6130   33.0450   39.5720 C   0  0  0  0  0  0  0  0  0  0  0  0
   38.8690   33.0520   40.8760 N   0  0  0  0  0  0  0  0  0  0  0  0
   39.6540   31.8730   42.5240 H   0  0  0  0  0  0  0  0  0  0  0  0
   40.1040   29.9720   41.0740 H   0  0  0  0  0  0  0  0  0  0  0  0
   38.1820   33.9600   39.1880 H   0  0  0  0  0  0  0  0  0  0  0  0
   37.2840   29.1700   38.7500 C   0  0  0  0  0  0  0  0  0  0  0  0
   36.0730   29.8440   38.5880 C   0  0  0  0  0  0  0  0  0  0  0  0
   35.1360   29.6810   39.6050 C   0  0  0  0  0  0  0  0  0  0  0  0
   35.4710   28.8790   40.6760 C   0  0  0  0  0  0  0  0  0  0  0  0
   36.6800   28.2150   40.8220 C   0  0  0  0  0  0  0  0  0  0  0  0
   37.5820   28.3850   39.8220 N   0  0  0  0  0  0  0  0  0  0  0  0
   35.9690   30.4200   37.7110 H   0  0  0  0  0  0  0  0  0  0  0  0
   34.2100   30.1860   39.4970 H   0  0  0  0  0  0  0  0  0  0  0  0
   34.7300   28.7610   41.4600 H   0  0  0  0  0  0  0  0  0  0  0  0
   36.9350   27.3930   41.9970 C   0  0  0  0  0  0  0  0  0  0  0  0
   36.2330   27.5670   43.0140 O   0  0  0  0  0  0  0  0  0  0  0  0
   37.8890   26.3370   42.2890 C   0  0  0  0  0  0  0  0  0  0  0  0
   37.5920   24.9940   42.2090 C   0  0  0  0  0  0  0  0  0  0  0  0
   36.6200   24.6780   41.8970 H   0  0  0  0  0  0  0  0  0  0  0  0
   38.4530   23.9590   42.5140 C   0  0  0  0  0  3  0  0  0  0  0  0
   39.7240   24.2870   42.9370 C   0  0  0  0  0  3  0  0  0  0  0  0
   40.0910   25.6120   43.0410 C   0  0  0  0  0  0  0  0  0  0  0  0
   41.3610   25.8720   43.4570 C   0  0  0  0  0  3  0  0  0  0  0  0
   41.8030   27.1740   43.5760 C   0  0  0  0  0  3  0  0  0  0  0  0
   40.9130   28.2040   43.2590 C   0  0  0  0  0  3  0  0  0  0  0  0
   39.6450   27.8740   42.8470 C   0  0  0  0  0  3  0  0  0  0  0  0
   39.1740   26.5880   42.7190 C   0  0  0  0  0  0  0  0  0  0  0  0
  1  7  1  6  0  0  0
  1  2  1  0  0  0  0
  1 19  1  0  0  0  0
  2  8  1  0  0  0  0
  2  9  1  0  0  0  0
  3 10  1  0  0  0  0
  3  2  1  0  0  0  0
  4  3  1  0  0  0  0
  4 12  1  0  0  0  0
  5 15  1  0  0  0  0
  5  4  1  0  0  0  0
  5  6  1  0  0  0  0
  6 16  1  6  0  0  0
  6  1  1  0  0  0  0
  6 26  1  0  0  0  0
 11  3  1  0  0  0  0
 13  4  1  0  0  0  0
 14  5  1  0  0  0  0
 17 23  1  0  0  0  0
 18 24  1  0  0  0  0
 18 17  2  0  0  0  0
 19 18  1  0  0  0  0
 20 19  2  0  0  0  0
 20 21  1  0  0  0  0
 21 22  2  0  0  0  0
 22 17  1  0  0  0  0
 25 21  1  0  0  0  0
 26 31  1  0  0  0  0
 27 26  2  0  0  0  0
 27 28  1  0  0  0  0
 28 29  2  0  0  0  0
 29 30  1  0  0  0  0
 29 34  1  0  0  0  0
 30 35  1  0  0  0  0
 31 30  2  0  0  0  0
 32 27  1  0  0  0  0
 33 28  1  0  0  0  0
 35 37  1  0  0  0  0
 35 36  2  0  0  0  0
 37 47  1  0  0  0  0
 38 37  2  0  0  0  0
 38 40  1  0  0  0  0
 39 38  1  0  0  0  0
 40 41  2  0  0  0  0
 41 42  1  0  0  0  0
 42 43  1  0  0  0  0
 43 44  2  0  0  0  0
 45 44  1  0  0  0  0
 46 45  2  0  0  0  0
 47 46  1  0  0  0  0
 47 42  2  0  0  0  0
M  END
>  <minimizedAffinity>
-6.46731853

$$$$
