REMARK  Name = 
REMARK  4 active torsions:
REMARK  status: ('A' for Active; 'I' for Inactive)
REMARK    1  A    between atoms: C_1  and  C_4
REMARK    2  A    between atoms: C_1  and  C_8
REMARK    3  A    between atoms: C_8  and  C_9
REMARK    4  A    between atoms: C_14  and  C_26
REMARK                            x       y       z     vdW  Elec       q    Type
REMARK                         _______ _______ _______ _____ _____    ______ ____
ROOT
ATOM      1  C   UNL     1      46.048  34.399  41.436  0.00  0.00    +0.000 A 
ATOM      2  C   UNL     1      46.627  34.042  40.248  0.00  0.00    +0.000 A 
ATOM      3  C   UNL     1      47.928  34.347  39.870  0.00  0.00    +0.000 A 
ATOM      4  C   UNL     1      48.677  35.078  40.799  0.00  0.00    +0.000 A 
ATOM      5  C   UNL     1      48.105  35.453  42.016  0.00  0.00    +0.000 A 
ATOM      6  C   UNL     1      46.800  35.125  42.351  0.00  0.00    +0.000 A 
ATOM      7  H   UNL     1      46.060  33.479  39.527  0.00  0.00    +0.000 HD
ATOM      8  H   UNL     1      48.328  34.038  38.921  0.00  0.00    +0.000 HD
ATOM      9  H   UNL     1      49.696  35.331  40.530  0.00  0.00    +0.000 HD
ATOM     10  H   UNL     1      48.756  36.021  42.683  0.00  0.00    +0.000 HD
ENDROOT
BRANCH   6  11
ATOM     11  C   UNL     1      46.316  35.573  43.651  0.00  0.00    +0.000 A 
ATOM     12  C   UNL     1      46.791  34.866  44.736  0.00  0.00    +0.000 A 
ATOM     13  H   UNL     1      47.477  34.030  44.658  0.00  0.00    +0.000 HD
ATOM     14  C   UNL     1      46.412  35.185  46.026  0.00  0.00    +0.000 A 
ATOM     15  C   UNL     1      45.539  36.234  46.245  0.00  0.00    +0.000 A 
ATOM     16  C   UNL     1      45.073  36.931  45.159  0.00  0.00    +0.000 A 
ATOM     17  C   UNL     1      44.193  37.995  45.329  0.00  0.00    +0.000 A 
ATOM     18  C   UNL     1      43.738  38.681  44.211  0.00  0.00    +0.000 A 
ATOM     19  C   UNL     1      44.133  38.341  42.922  0.00  0.00    +0.000 A 
ATOM     20  C   UNL     1      45.012  37.282  42.727  0.00  0.00    +0.000 A 
ATOM     21  C   UNL     1      45.437  36.630  43.864  0.00  0.00    +0.000 A 
ENDBRANCH   6  11
BRANCH   1  22
ATOM     22  C   UNL     1      44.680  34.061  41.812  0.00  0.00    +0.000 C 
ATOM     23  H   UNL     1      44.752  33.195  42.530  0.00  0.00    +0.000 HD
ATOM     24  H   UNL     1      44.178  34.864  42.400  0.00  0.00    +0.000 HD
BRANCH  22  25
ATOM     25  C   UNL     1      43.852  33.619  40.626  0.00  0.00    +0.000 C 
ATOM     26  H   UNL     1      44.112  32.569  40.354  0.00  0.00    +0.000 HD
ATOM     27  H   UNL     1      44.047  34.326  39.793  0.00  0.00    +0.000 HD
BRANCH  25  30
ATOM     28  C   UNL     1      40.379  34.794  41.483  0.00  0.00    +0.000 A 
ATOM     29  C   UNL     1      41.750  34.838  41.102  0.00  0.00    +0.000 A 
ATOM     30  C   UNL     1      42.423  33.610  41.019  0.00  0.00    +0.000 A 
ATOM     31  N   UNL     1      41.728  32.450  41.307  0.00  0.00    +0.000 NA
ATOM     32  C   UNL     1      40.438  32.488  41.658  0.00  0.00    +0.000 A 
ATOM     33  N   UNL     1      39.762  33.644  41.748  0.00  0.00    +0.000 NA
ATOM     34  H   UNL     1      39.803  35.704  41.565  0.00  0.00    +0.000 HD
ATOM     35  H   UNL     1      42.231  35.784  40.892  0.00  0.00    +0.000 HD
ATOM     36  H   UNL     1      40.082  31.468  41.841  0.00  0.00    +0.000 HD
ENDBRANCH  25  30
ENDBRANCH  22  25
ENDBRANCH   1  22
TORSDOF 4
