
 OpenBabel03252508213D

 36 39  0  0  0  0  0  0  0  0999 V2000
   46.6200   33.4020   40.4200 C   0  0  0  0  0  0  0  0  0  0  0  0
   47.0850   33.7590   39.1830 C   0  0  0  0  0  0  0  0  0  0  0  0
   48.1820   34.5770   38.9470 C   0  0  0  0  0  0  0  0  0  0  0  0
   48.8390   35.0580   40.0850 C   0  0  0  0  0  0  0  0  0  0  0  0
   48.3810   34.7070   41.3560 C   0  0  0  0  0  0  0  0  0  0  0  0
   47.2790   33.8850   41.5430 C   0  0  0  0  0  0  0  0  0  0  0  0
   46.5870   33.3940   38.3010 H   0  0  0  0  0  0  0  0  0  0  0  0
   48.5000   34.8230   37.9500 H   0  0  0  0  0  0  0  0  0  0  0  0
   49.6990   35.7000   39.9310 H   0  0  0  0  0  0  0  0  0  0  0  0
   48.9490   35.1240   42.1890 H   0  0  0  0  0  0  0  0  0  0  0  0
   46.8980   33.5900   42.9190 C   0  0  0  0  0  0  0  0  0  0  0  0
   47.4430   32.4410   43.4520 C   0  0  0  0  0  0  0  0  0  0  0  0
   48.1130   31.7830   42.9090 H   0  0  0  0  0  0  0  0  0  0  0  0
   47.1640   32.0440   44.7450 C   0  0  0  0  0  3  0  0  0  0  0  0
   46.3210   32.8070   45.5310 C   0  0  0  0  0  3  0  0  0  0  0  0
   45.7840   33.9480   44.9910 C   0  0  0  0  0  0  0  0  0  0  0  0
   44.9310   34.7490   45.7430 C   0  0  0  0  0  3  0  0  0  0  0  0
   44.4020   35.8980   45.1690 C   0  0  0  0  0  3  0  0  0  0  0  0
   44.6970   36.2780   43.8650 C   0  0  0  0  0  3  0  0  0  0  0  0
   45.5480   35.4930   43.0940 C   0  0  0  0  0  3  0  0  0  0  0  0
   46.0480   34.3630   43.7030 C   0  0  0  0  0  0  0  0  0  0  0  0
   45.4680   32.5360   40.6410 C   0  0  0  0  0  0  0  0  0  0  0  0
   45.8420   31.4770   40.5430 H   0  0  0  0  0  0  0  0  0  0  0  0
   45.0730   32.5920   41.6810 H   0  0  0  0  0  0  0  0  0  0  0  0
   44.3850   32.7470   39.6060 C   0  0  0  0  0  0  0  0  0  0  0  0
   44.0050   31.7610   39.2500 H   0  0  0  0  0  0  0  0  0  0  0  0
   44.8160   33.3510   38.7810 H   0  0  0  0  0  0  0  0  0  0  0  0
   42.1920   35.4470   41.0500 C   0  0  0  0  0  0  0  0  0  0  0  0
   43.3090   34.8210   40.4280 C   0  0  0  0  0  0  0  0  0  0  0  0
   43.2380   33.4310   40.2500 C   0  0  0  0  0  0  0  0  0  0  0  0
   42.1070   32.7630   40.6810 N   0  0  0  0  0  0  0  0  0  0  0  0
   41.0950   33.4200   41.2570 C   0  0  0  0  0  0  0  0  0  0  0  0
   41.1280   34.7490   41.4440 N   0  0  0  0  0  0  0  0  0  0  0  0
   42.1830   36.5140   41.2160 H   0  0  0  0  0  0  0  0  0  0  0  0
   44.1630   35.4080   40.1160 H   0  0  0  0  0  0  0  0  0  0  0  0
   40.3040   32.7090   41.5210 H   0  0  0  0  0  0  0  0  0  0  0  0
  1 22  1  0  0  0  0
  1  6  1  0  0  0  0
  2  1  2  0  0  0  0
  3  2  1  0  0  0  0
  3  4  2  0  0  0  0
  4  5  1  0  0  0  0
  5  6  2  0  0  0  0
  5 10  1  0  0  0  0
  6 11  1  0  0  0  0
  7  2  1  0  0  0  0
  8  3  1  0  0  0  0
  9  4  1  0  0  0  0
 11 12  2  0  0  0  0
 11 21  1  0  0  0  0
 12 14  1  0  0  0  0
 13 12  1  0  0  0  0
 14 15  2  0  0  0  0
 16 15  1  0  0  0  0
 16 17  1  0  0  0  0
 18 17  2  0  0  0  0
 19 18  1  0  0  0  0
 20 21  1  0  0  0  0
 20 19  2  0  0  0  0
 21 16  2  0  0  0  0
 22 24  1  0  0  0  0
 23 22  1  0  0  0  0
 25 30  1  0  0  0  0
 25 22  1  0  0  0  0
 26 25  1  0  0  0  0
 27 25  1  0  0  0  0
 28 34  1  0  0  0  0
 28 33  1  0  0  0  0
 29 28  2  0  0  0  0
 30 29  1  0  0  0  0
 30 31  2  0  0  0  0
 31 32  1  0  0  0  0
 32 33  2  0  0  0  0
 32 36  1  0  0  0  0
 35 29  1  0  0  0  0
M  END
>  <minimizedAffinity>
-5.89593458

>  <minimizedRMSD>
2.1470046

$$$$
