
     RDKit          3D

 29 31  0  0  0  0  0  0  0  0999 V2000
   44.3856   35.7733   44.4343 C   0  0  0  0  0  0  0  0  0  0  0  0
   44.6767   35.0424   43.2613 C   0  0  0  0  0  0  0  0  0  0  0  0
   45.2959   33.8184   43.3883 C   0  0  0  0  0  0  0  0  0  0  0  0
   45.5843   33.3977   44.6330 N   0  0  0  0  0  0  0  0  0  0  0  0
   45.3083   34.0908   45.7463 C   0  0  0  0  0  0  0  0  0  0  0  0
   44.6956   35.3065   45.6640 N   0  0  0  0  0  0  0  0  0  0  0  0
   44.2527   35.7370   42.0099 C   0  0  0  0  0  0  0  0  0  0  0  0
   43.8955   36.7533   44.4082 H   0  0  0  0  0  0  0  0  0  0  0  0
   45.4882   33.3107   42.4628 H   0  0  0  0  0  0  0  0  0  0  0  0
   45.5499   33.7337   46.7370 H   0  0  0  0  0  0  0  0  0  0  0  0
   45.0940   35.5283   41.2890 H   0  0  0  0  0  0  0  0  0  0  0  0
   44.2033   36.8088   42.1234 H   0  0  0  0  0  0  0  0  0  0  0  0
   42.9688   35.1855   41.5665 C   0  0  0  0  0  0  0  0  0  0  0  0
   42.0151   35.9488   40.9239 C   0  0  0  0  0  0  0  0  0  0  0  0
   42.2217   37.0064   40.7081 H   0  0  0  0  0  0  0  0  0  0  0  0
   40.7761   35.4606   40.5157 C   0  0  0  0  0  0  0  0  0  0  0  0
   40.4692   34.1171   40.7664 C   0  0  0  0  0  0  0  0  0  0  0  0
   41.3853   33.3086   41.4045 C   0  0  0  0  0  0  0  0  0  0  0  0
   41.0843   31.9700   41.6443 C   0  0  0  0  0  0  0  0  0  0  0  0
   42.0377   31.2139   42.2733 C   0  0  0  0  0  0  0  0  0  0  0  0
   43.2761   31.6818   42.6871 C   0  0  0  0  0  0  0  0  0  0  0  0
   43.5244   33.0300   42.4212 C   0  0  0  0  0  0  0  0  0  0  0  0
   42.6022   33.8672   41.7831 C   0  0  0  0  0  0  0  0  0  0  0  0
   40.0423   36.0824   40.0143 H   0  0  0  0  0  0  0  0  0  0  0  0
   39.5272   33.6617   40.4830 H   0  0  0  0  0  0  0  0  0  0  0  0
   40.1310   31.5744   41.3335 H   0  0  0  0  0  0  0  0  0  0  0  0
   41.8199   30.1634   42.4690 H   0  0  0  0  0  0  0  0  0  0  0  0
   44.0084   31.0498   43.1842 H   0  0  0  0  0  0  0  0  0  0  0  0
   44.5152   33.3454   42.7648 H   0  0  0  0  0  0  0  0  0  0  0  0
  1  6  2  0
  2  3  2  0
  2  1  1  0
  3  4  1  0
  4  5  2  0
  6  5  1  0
  7  2  1  0
  1  8  1  0
  3  9  1  0
  5 10  1  0
  7 11  1  0
  7 12  1  0
 13 14  2  0
 14 15  1  0
 14 16  1  0
 16 17  2  0
 17 18  1  0
 18 19  2  0
 19 20  1  0
 20 21  2  0
 21 22  1  0
 22 23  2  0
 23 13  1  0
 23 18  1  0
 16 24  1  0
 17 25  1  0
 19 26  1  0
 20 27  1  0
 21 28  1  0
 22 29  1  0
  7 13  1  0
M  ISO  6   8  14   9  14  10  14  11   8  12   8  15  15
M  END
>  <DihAtoms>  (1) 
1,6,12,13

>  <DihDeg>  (1) 
26.973175118302795

$$$$
