
     RDKit          3D

 35 38  0  0  0  0  0  0  0  0999 V2000
   45.6316   33.9469   45.4484 C   0  0  0  0  0  0  0  0  0  0  0  0
   44.7187   34.9761   45.6902 C   0  0  0  0  0  0  0  0  0  0  0  0
   44.5235   35.9304   44.6926 C   0  0  0  0  0  0  0  0  0  0  0  0
   45.2332   35.8116   43.5253 N   0  0  0  0  0  0  0  0  0  0  0  0
   46.0946   34.8189   43.3217 C   0  0  0  0  0  0  0  0  0  0  0  0
   46.2741   33.9185   44.2745 N   0  0  0  0  0  0  0  0  0  0  0  0
   46.8314   34.7260   42.0615 C   0  0  0  0  0  0  0  0  0  0  0  0
   48.0100   35.4060   41.9076 C   0  0  0  0  0  0  0  0  0  0  0  0
   48.7789   35.3868   40.7572 C   0  0  0  0  0  0  0  0  0  0  0  0
   48.2541   34.6039   39.7370 C   0  0  0  0  0  0  0  0  0  0  0  0
   47.0611   33.9099   39.8805 C   0  0  0  0  0  0  0  0  0  0  0  0
   46.3676   33.9861   41.0515 N   0  0  0  0  0  0  0  0  0  0  0  0
   44.1255   35.0717   46.5570 H   0  0  0  0  0  0  0  0  0  0  0  0
   43.8289   36.7347   44.8509 H   0  0  0  0  0  0  0  0  0  0  0  0
   48.3669   36.0051   42.7531 H   0  0  0  0  0  0  0  0  0  0  0  0
   49.7052   35.9146   40.6208 H   0  0  0  0  0  0  0  0  0  0  0  0
   48.7914   34.5278   38.7910 H   0  0  0  0  0  0  0  0  0  0  0  0
   46.7176   33.3190   39.0353 H   0  0  0  0  0  0  0  0  0  0  0  0
   45.9248   32.8243   46.3148 C   0  0  0  0  0  0  0  0  0  0  0  0
   46.5754   33.0907   47.5275 C   0  0  0  0  0  0  0  0  0  0  0  0
   46.8548   34.1134   47.7861 H   0  0  0  0  0  0  0  0  0  0  0  0
   46.9124   32.1470   48.4677 C   0  0  0  0  0  0  0  0  0  0  0  0
   46.6042   30.8258   48.2402 C   0  0  0  0  0  0  0  0  0  0  0  0
   45.9662   30.4952   47.0781 C   0  0  0  0  0  0  0  0  0  0  0  0
   45.6048   29.1894   46.8257 C   0  0  0  0  0  0  0  0  0  0  0  0
   44.9151   28.7934   45.6749 C   0  0  0  0  0  0  0  0  0  0  0  0
   44.6131   29.8321   44.7860 C   0  0  0  0  0  0  0  0  0  0  0  0
   44.9806   31.1089   45.0567 C   0  0  0  0  0  0  0  0  0  0  0  0
   45.6599   31.4880   46.1856 C   0  0  0  0  0  0  0  0  0  0  0  0
   47.4157   32.4181   49.3854 H   0  0  0  0  0  0  0  0  0  0  0  0
   46.8505   30.0576   48.9462 H   0  0  0  0  0  0  0  0  0  0  0  0
   45.8753   28.4382   47.5665 H   0  0  0  0  0  0  0  0  0  0  0  0
   44.6523   27.7688   45.5137 H   0  0  0  0  0  0  0  0  0  0  0  0
   44.0745   29.4753   43.9059 H   0  0  0  0  0  0  0  0  0  0  0  0
   44.6353   31.7762   44.2976 H   0  0  0  0  0  0  0  0  0  0  0  0
  1  2  2  0
  3  2  1  0
  4  3  2  0
  5  4  1  0
  5  6  2  0
  6  1  1  0
  7  5  1  0
  8  7  2  0
  9  8  1  0
 10 11  1  0
 10  9  2  0
 11 12  2  0
 12  7  1  0
  2 13  1  0
  3 14  1  0
  8 15  1  0
  9 16  1  0
 10 17  1  0
 11 18  1  0
 19 20  2  0
 20 21  1  0
 20 22  1  0
 22 23  2  0
 23 24  1  0
 24 25  2  0
 25 26  1  0
 26 27  2  0
 27 28  1  0
 28 29  2  0
 29 19  1  0
 29 24  1  0
 22 30  1  0
 23 31  1  0
 25 32  1  0
 26 33  1  0
 27 34  1  0
 28 35  1  0
  1 19  1  0
M  ISO  7  13  14  14  14  15  14  16  14  17  14  18  14  21  15
M  END
>  <DihAtoms>  (1) 
1,0,18,19

>  <DihDeg>  (1) 
141.96268239399953

$$$$
