
 OpenBabel03242512393D

 36 40  0  0  0  0  0  0  0  0999 V2000
   34.6720   28.5590   37.5700 C   0  0  0  0  0  0  0  0  0  0  0  0
   34.7630   27.3480   36.9250 C   0  0  0  0  0  0  0  0  0  0  0  0
   33.5690   26.9430   36.2670 C   0  0  0  0  0  0  0  0  0  0  0  0
   32.4600   27.7250   36.3050 N   0  0  0  0  0  0  0  0  0  0  0  0
   32.4400   28.8870   36.9500 C   0  0  0  0  0  0  0  0  0  0  0  0
   33.5550   29.2510   37.5560 N   0  0  0  0  0  0  0  0  0  0  0  0
   35.5980   26.6780   36.8510 H   0  0  0  0  0  0  0  0  0  0  0  0
   33.4950   26.0270   35.7270 H   0  0  0  0  0  0  0  0  0  0  0  0
   31.3620   29.8690   37.1140 C   0  0  0  0  0  0  0  0  0  0  0  0
   30.6330   30.0190   38.3010 C   0  0  0  0  0  0  0  0  0  0  0  0
   30.8900   29.3670   39.1350 H   0  0  0  0  0  0  0  0  0  0  0  0
   29.6260   30.9270   38.4710 C   0  0  0  0  0  3  0  0  0  0  0  0
   29.2710   31.7670   37.4440 C   0  0  0  0  0  3  0  0  0  0  0  0
   29.9480   31.6700   36.2530 C   0  0  0  0  0  0  0  0  0  0  0  0
   29.5630   32.5280   35.2470 C   0  0  0  0  0  3  0  0  0  0  0  0
   30.1930   32.4950   34.0210 C   0  0  0  0  0  3  0  0  0  0  0  0
   31.2190   31.5610   33.8660 C   0  0  0  0  0  3  0  0  0  0  0  0
   31.5560   30.7300   34.9110 C   0  0  0  0  0  3  0  0  0  0  0  0
   30.9490   30.7410   36.1380 C   0  0  0  0  0  0  0  0  0  0  0  0
   35.8560   29.0120   38.2420 C   0  0  0  0  0  0  0  0  0  0  0  0
   36.6070   29.9590   37.8640 O   0  0  0  0  0  0  0  0  0  0  0  0
   36.5770   27.0030   39.5950 C   0  0  0  0  0  0  0  0  0  0  0  0
   36.2780   28.3480   39.4900 C   0  0  0  0  0  0  0  0  0  0  0  0
   36.3680   29.1470   40.6180 C   0  0  0  0  0  0  0  0  0  0  0  0
   36.7430   28.6840   41.8660 C   0  0  0  0  0  0  0  0  0  0  0  0
   36.8930   29.2520   43.0750 N   0  0  0  0  0  0  0  0  0  0  0  0
   37.2740   28.3160   43.9420 C   0  0  0  0  0  0  0  0  0  0  0  0
   37.3770   27.0960   43.2690 C   0  0  0  0  0  0  0  0  0  0  0  0
   37.0400   27.3330   41.9560 C   0  0  0  0  0  0  0  0  0  0  0  0
   36.9580   26.5120   40.8430 C   0  0  0  0  0  0  0  0  0  0  0  0
   36.4980   26.4240   38.7090 H   0  0  0  0  0  0  0  0  0  0  0  0
   36.1490   30.2270   40.6290 H   0  0  0  0  0  0  0  0  0  0  0  0
   36.7390   30.2640   43.3180 H   0  0  0  0  0  0  0  0  0  0  0  0
   37.4880   28.4120   45.0020 H   0  0  0  0  0  0  0  0  0  0  0  0
   37.6600   26.1070   43.6400 H   0  0  0  0  0  0  0  0  0  0  0  0
   37.1830   25.4570   40.8790 H   0  0  0  0  0  0  0  0  0  0  0  0
  1 20  1  0  0  0  0
  2  1  2  0  0  0  0
  3  4  2  0  0  0  0
  3  2  1  0  0  0  0
  4  5  1  0  0  0  0
  5  9  1  0  0  0  0
  5  6  2  0  0  0  0
  6  1  1  0  0  0  0
  7  2  1  0  0  0  0
  8  3  1  0  0  0  0
  9 10  1  0  0  0  0
 10 12  2  0  0  0  0
 10 11  1  0  0  0  0
 13 12  1  0  0  0  0
 14 13  2  0  0  0  0
 15 14  1  0  0  0  0
 16 15  2  0  0  0  0
 17 16  1  0  0  0  0
 17 18  2  0  0  0  0
 18 19  1  0  0  0  0
 19 14  1  0  0  0  0
 19  9  2  0  0  0  0
 20 23  1  0  0  0  0
 21 20  2  0  0  0  0
 22 30  1  0  0  0  0
 23 22  2  0  0  0  0
 23 24  1  0  0  0  0
 24 32  1  0  0  0  0
 24 25  2  0  0  0  0
 25 29  1  0  0  0  0
 25 26  1  0  0  0  0
 26 33  1  0  0  0  0
 26 27  1  0  0  0  0
 27 34  1  0  0  0  0
 28 35  1  0  0  0  0
 28 27  2  0  0  0  0
 29 28  1  0  0  0  0
 30 36  1  0  0  0  0
 30 29  2  0  0  0  0
 31 22  1  0  0  0  0
M  END
>  <minimizedAffinity>
-7.40230942

$$$$

 OpenBabel03242512393D

 36 40  0  0  0  0  0  0  0  0999 V2000
   34.8010   28.2420   37.4110 C   0  0  0  0  0  0  0  0  0  0  0  0
   34.6370   26.8800   37.3010 C   0  0  0  0  0  0  0  0  0  0  0  0
   33.4330   26.4840   36.6570 C   0  0  0  0  0  0  0  0  0  0  0  0
   32.5520   27.4150   36.2070 N   0  0  0  0  0  0  0  0  0  0  0  0
   32.7720   28.7180   36.3470 C   0  0  0  0  0  0  0  0  0  0  0  0
   33.8940   29.0720   36.9460 N   0  0  0  0  0  0  0  0  0  0  0  0
   35.2840   26.0890   37.6310 H   0  0  0  0  0  0  0  0  0  0  0  0
   33.1750   25.4620   36.5030 H   0  0  0  0  0  0  0  0  0  0  0  0
   31.9620   29.8710   35.9400 C   0  0  0  0  0  0  0  0  0  0  0  0
   32.1270   30.5320   34.7150 C   0  0  0  0  0  0  0  0  0  0  0  0
   32.8990   30.1590   34.0430 H   0  0  0  0  0  0  0  0  0  0  0  0
   31.3830   31.6080   34.3190 C   0  0  0  0  0  3  0  0  0  0  0  0
   30.4000   32.1080   35.1380 C   0  0  0  0  0  3  0  0  0  0  0  0
   30.1880   31.5040   36.3530 C   0  0  0  0  0  0  0  0  0  0  0  0
   29.1940   32.0340   37.1460 C   0  0  0  0  0  3  0  0  0  0  0  0
   28.9180   31.4860   38.3810 C   0  0  0  0  0  3  0  0  0  0  0  0
   29.6890   30.3880   38.7680 C   0  0  0  0  0  3  0  0  0  0  0  0
   30.6680   29.9050   37.9290 C   0  0  0  0  0  3  0  0  0  0  0  0
   30.9640   30.4280   36.6990 C   0  0  0  0  0  0  0  0  0  0  0  0
   36.0050   28.6870   38.0490 C   0  0  0  0  0  0  0  0  0  0  0  0
   36.8120   29.5490   37.5890 O   0  0  0  0  0  0  0  0  0  0  0  0
   36.6740   26.7910   39.5780 C   0  0  0  0  0  0  0  0  0  0  0  0
   36.3830   28.1230   39.3580 C   0  0  0  0  0  0  0  0  0  0  0  0
   36.4360   29.0080   40.4240 C   0  0  0  0  0  0  0  0  0  0  0  0
   36.7670   28.6430   41.7160 C   0  0  0  0  0  0  0  0  0  0  0  0
   36.8770   29.3040   42.8810 N   0  0  0  0  0  0  0  0  0  0  0  0
   37.2260   28.4390   43.8310 C   0  0  0  0  0  0  0  0  0  0  0  0
   37.3480   27.1700   43.2590 C   0  0  0  0  0  0  0  0  0  0  0  0
   37.0570   27.3040   41.9210 C   0  0  0  0  0  0  0  0  0  0  0  0
   37.0100   26.3990   40.8730 C   0  0  0  0  0  0  0  0  0  0  0  0
   36.6230   26.1440   38.7380 H   0  0  0  0  0  0  0  0  0  0  0  0
   36.2200   30.0860   40.3420 H   0  0  0  0  0  0  0  0  0  0  0  0
   36.7180   30.3330   43.0390 H   0  0  0  0  0  0  0  0  0  0  0  0
   37.4030   28.6160   44.8870 H   0  0  0  0  0  0  0  0  0  0  0  0
   37.6150   26.2130   43.7160 H   0  0  0  0  0  0  0  0  0  0  0  0
   37.2310   25.3500   40.9990 H   0  0  0  0  0  0  0  0  0  0  0  0
  1 20  1  0  0  0  0
  2  1  1  0  0  0  0
  2  7  1  0  0  0  0
  3  2  2  0  0  0  0
  4  5  2  0  0  0  0
  4  3  1  0  0  0  0
  5  6  1  0  0  0  0
  6  1  2  0  0  0  0
  8  3  1  0  0  0  0
  9  5  1  0  0  0  0
  9 19  1  0  0  0  0
 10  9  2  0  0  0  0
 11 10  1  0  0  0  0
 12 10  1  0  0  0  0
 12 13  2  0  0  0  0
 13 14  1  0  0  0  0
 14 19  2  0  0  0  0
 14 15  1  0  0  0  0
 15 16  2  0  0  0  0
 16 17  1  0  0  0  0
 18 17  2  0  0  0  0
 19 18  1  0  0  0  0
 20 23  1  0  0  0  0
 21 20  2  0  0  0  0
 22 30  1  0  0  0  0
 23 22  2  0  0  0  0
 23 24  1  0  0  0  0
 24 25  2  0  0  0  0
 25 29  1  0  0  0  0
 25 26  1  0  0  0  0
 26 33  1  0  0  0  0
 26 27  1  0  0  0  0
 27 34  1  0  0  0  0
 28 35  1  0  0  0  0
 28 27  2  0  0  0  0
 29 28  1  0  0  0  0
 30 36  1  0  0  0  0
 30 29  2  0  0  0  0
 31 22  1  0  0  0  0
 32 24  1  0  0  0  0
M  END
>  <minimizedAffinity>
-7.3659215

$$$$

 OpenBabel03242512393D

 36 40  0  0  0  0  0  0  0  0999 V2000
   38.0510   30.3920   39.7210 C   0  0  0  0  0  0  0  0  0  0  0  0
   36.9050   31.1080   39.9800 C   0  0  0  0  0  0  0  0  0  0  0  0
   36.1720   30.6550   41.1100 C   0  0  0  0  0  0  0  0  0  0  0  0
   36.6120   29.5960   41.8390 N   0  0  0  0  0  0  0  0  0  0  0  0
   37.7300   28.9470   41.5330 C   0  0  0  0  0  0  0  0  0  0  0  0
   38.4010   29.3790   40.4810 N   0  0  0  0  0  0  0  0  0  0  0  0
   36.4960   31.9490   39.4520 H   0  0  0  0  0  0  0  0  0  0  0  0
   35.2650   31.1150   41.4280 H   0  0  0  0  0  0  0  0  0  0  0  0
   38.3720   27.7960   42.1780 C   0  0  0  0  0  0  0  0  0  0  0  0
   39.3630   27.9210   43.1600 C   0  0  0  0  0  0  0  0  0  0  0  0
   39.6620   28.9280   43.4490 H   0  0  0  0  0  0  0  0  0  0  0  0
   39.9730   26.8610   43.7710 C   0  0  0  0  0  3  0  0  0  0  0  0
   39.6250   25.5750   43.4360 C   0  0  0  0  0  3  0  0  0  0  0  0
   38.6590   25.3850   42.4790 C   0  0  0  0  0  0  0  0  0  0  0  0
   38.3380   24.0830   42.1700 C   0  0  0  0  0  3  0  0  0  0  0  0
   37.3780   23.8060   41.2190 C   0  0  0  0  0  3  0  0  0  0  0  0
   36.7660   24.9010   40.6060 C   0  0  0  0  0  3  0  0  0  0  0  0
   37.1320   26.1800   40.9600 C   0  0  0  0  0  3  0  0  0  0  0  0
   38.0810   26.4850   41.8980 C   0  0  0  0  0  0  0  0  0  0  0  0
   38.8260   30.8190   38.5930 C   0  0  0  0  0  0  0  0  0  0  0  0
   38.5570   30.5860   37.3770 O   0  0  0  0  0  0  0  0  0  0  0  0
   40.7410   31.6570   40.0130 C   0  0  0  0  0  0  0  0  0  0  0  0
   40.0560   31.6040   38.8140 C   0  0  0  0  0  0  0  0  0  0  0  0
   40.5310   32.3310   37.7360 C   0  0  0  0  0  0  0  0  0  0  0  0
   41.6650   33.1220   37.7740 C   0  0  0  0  0  0  0  0  0  0  0  0
   42.2990   33.9020   36.8820 N   0  0  0  0  0  0  0  0  0  0  0  0
   43.3610   34.4470   37.4720 C   0  0  0  0  0  0  0  0  0  0  0  0
   43.4170   34.0040   38.7960 C   0  0  0  0  0  0  0  0  0  0  0  0
   42.3410   33.1650   38.9830 C   0  0  0  0  0  0  0  0  0  0  0  0
   41.8880   32.4480   40.0770 C   0  0  0  0  0  0  0  0  0  0  0  0
   40.3470   31.0860   40.8160 H   0  0  0  0  0  0  0  0  0  0  0  0
   40.0500   32.3500   36.7430 H   0  0  0  0  0  0  0  0  0  0  0  0
   42.0210   34.0680   35.8810 H   0  0  0  0  0  0  0  0  0  0  0  0
   44.1000   35.1280   37.0590 H   0  0  0  0  0  0  0  0  0  0  0  0
   44.1360   34.2320   39.5870 H   0  0  0  0  0  0  0  0  0  0  0  0
   42.3910   32.4590   41.0320 H   0  0  0  0  0  0  0  0  0  0  0  0
  1  2  2  0  0  0  0
  1  6  1  0  0  0  0
  2  3  1  0  0  0  0
  3  8  1  0  0  0  0
  3  4  2  0  0  0  0
  5  4  1  0  0  0  0
  5  9  1  0  0  0  0
  6  5  2  0  0  0  0
  7  2  1  0  0  0  0
  9 10  1  0  0  0  0
 10 11  1  0  0  0  0
 10 12  2  0  0  0  0
 13 12  1  0  0  0  0
 14 13  2  0  0  0  0
 15 14  1  0  0  0  0
 16 15  2  0  0  0  0
 17 18  2  0  0  0  0
 17 16  1  0  0  0  0
 18 19  1  0  0  0  0
 19  9  2  0  0  0  0
 19 14  1  0  0  0  0
 20 23  1  0  0  0  0
 20  1  1  0  0  0  0
 21 20  2  0  0  0  0
 22 30  1  0  0  0  0
 22 31  1  0  0  0  0
 23 22  2  0  0  0  0
 24 25  2  0  0  0  0
 24 23  1  0  0  0  0
 25 29  1  0  0  0  0
 26 27  1  0  0  0  0
 26 25  1  0  0  0  0
 27 28  2  0  0  0  0
 28 29  1  0  0  0  0
 28 35  1  0  0  0  0
 29 30  2  0  0  0  0
 30 36  1  0  0  0  0
 32 24  1  0  0  0  0
 33 26  1  0  0  0  0
 34 27  1  0  0  0  0
M  END
>  <minimizedAffinity>
-7.1576786

$$$$

 OpenBabel03242512393D

 36 40  0  0  0  0  0  0  0  0999 V2000
   36.6850   29.9010   39.3580 C   0  0  0  0  0  0  0  0  0  0  0  0
   36.3700   29.4750   38.0890 C   0  0  0  0  0  0  0  0  0  0  0  0
   36.9510   30.2510   37.0480 C   0  0  0  0  0  0  0  0  0  0  0  0
   37.7430   31.3150   37.3410 N   0  0  0  0  0  0  0  0  0  0  0  0
   38.0050   31.6740   38.5930 C   0  0  0  0  0  0  0  0  0  0  0  0
   37.4600   30.9450   39.5490 N   0  0  0  0  0  0  0  0  0  0  0  0
   35.7560   28.6500   37.7810 H   0  0  0  0  0  0  0  0  0  0  0  0
   36.7940   30.0360   36.0170 H   0  0  0  0  0  0  0  0  0  0  0  0
   38.8210   32.7740   39.1190 C   0  0  0  0  0  0  0  0  0  0  0  0
   38.3790   33.6480   40.1210 C   0  0  0  0  0  0  0  0  0  0  0  0
   37.3770   33.4910   40.5190 H   0  0  0  0  0  0  0  0  0  0  0  0
   39.1240   34.6780   40.6220 C   0  0  0  0  0  3  0  0  0  0  0  0
   40.3920   34.9100   40.1460 C   0  0  0  0  0  3  0  0  0  0  0  0
   40.8840   34.0880   39.1630 C   0  0  0  0  0  0  0  0  0  0  0  0
   42.1580   34.3530   38.7120 C   0  0  0  0  0  3  0  0  0  0  0  0
   42.7260   33.5740   37.7260 C   0  0  0  0  0  3  0  0  0  0  0  0
   41.9500   32.5260   37.2270 C   0  0  0  0  0  3  0  0  0  0  0  0
   40.6820   32.3140   37.7200 C   0  0  0  0  0  3  0  0  0  0  0  0
   40.0930   33.0700   38.6970 C   0  0  0  0  0  0  0  0  0  0  0  0
   36.1250   29.1430   40.4390 C   0  0  0  0  0  0  0  0  0  0  0  0
   34.8950   28.8910   40.6110 O   0  0  0  0  0  0  0  0  0  0  0  0
   37.3840   29.2450   42.6280 C   0  0  0  0  0  0  0  0  0  0  0  0
   37.0200   28.5840   41.4710 C   0  0  0  0  0  0  0  0  0  0  0  0
   37.5190   27.3130   41.2370 C   0  0  0  0  0  0  0  0  0  0  0  0
   38.3720   26.6460   42.0980 C   0  0  0  0  0  0  0  0  0  0  0  0
   38.9740   25.4450   42.0820 N   0  0  0  0  0  0  0  0  0  0  0  0
   39.7060   25.3210   43.1870 C   0  0  0  0  0  0  0  0  0  0  0  0
   39.5740   26.4850   43.9470 C   0  0  0  0  0  0  0  0  0  0  0  0
   38.7280   27.3220   43.2540 C   0  0  0  0  0  0  0  0  0  0  0  0
   38.2440   28.5930   43.5120 C   0  0  0  0  0  0  0  0  0  0  0  0
   36.9810   30.2160   42.7720 H   0  0  0  0  0  0  0  0  0  0  0  0
   37.2830   26.7110   40.3440 H   0  0  0  0  0  0  0  0  0  0  0  0
   38.8940   24.7100   41.3330 H   0  0  0  0  0  0  0  0  0  0  0  0
   40.3260   24.4880   43.5090 H   0  0  0  0  0  0  0  0  0  0  0  0
   40.0200   26.7560   44.9080 H   0  0  0  0  0  0  0  0  0  0  0  0
   38.5010   29.1460   44.4020 H   0  0  0  0  0  0  0  0  0  0  0  0
  1  6  1  0  0  0  0
  1 20  1  0  0  0  0
  2  1  2  0  0  0  0
  3  4  2  0  0  0  0
  3  2  1  0  0  0  0
  4  5  1  0  0  0  0
  5  9  1  0  0  0  0
  5  6  2  0  0  0  0
  7  2  1  0  0  0  0
  8  3  1  0  0  0  0
  9 10  1  0  0  0  0
 10 11  1  0  0  0  0
 10 12  2  0  0  0  0
 13 12  1  0  0  0  0
 14 13  2  0  0  0  0
 15 14  1  0  0  0  0
 16 15  2  0  0  0  0
 17 18  2  0  0  0  0
 17 16  1  0  0  0  0
 18 19  1  0  0  0  0
 19  9  2  0  0  0  0
 19 14  1  0  0  0  0
 20 21  2  0  0  0  0
 20 23  1  0  0  0  0
 22 31  1  0  0  0  0
 22 30  1  0  0  0  0
 23 22  2  0  0  0  0
 24 23  1  0  0  0  0
 24 25  2  0  0  0  0
 25 29  1  0  0  0  0
 26 25  1  0  0  0  0
 26 27  1  0  0  0  0
 27 34  1  0  0  0  0
 27 28  2  0  0  0  0
 28 35  1  0  0  0  0
 29 30  2  0  0  0  0
 29 28  1  0  0  0  0
 30 36  1  0  0  0  0
 32 24  1  0  0  0  0
 33 26  1  0  0  0  0
M  END
>  <minimizedAffinity>
-7.13781548

$$$$

 OpenBabel03242512393D

 36 40  0  0  0  0  0  0  0  0999 V2000
   36.6640   28.1610   38.1370 C   0  0  0  0  0  0  0  0  0  0  0  0
   36.1480   27.1080   37.4170 C   0  0  0  0  0  0  0  0  0  0  0  0
   36.0200   25.9000   38.1550 C   0  0  0  0  0  0  0  0  0  0  0  0
   36.3930   25.8450   39.4600 N   0  0  0  0  0  0  0  0  0  0  0  0
   36.8860   26.9020   40.0960 C   0  0  0  0  0  0  0  0  0  0  0  0
   36.9990   28.0170   39.3990 N   0  0  0  0  0  0  0  0  0  0  0  0
   35.8340   27.0750   36.3910 H   0  0  0  0  0  0  0  0  0  0  0  0
   35.6350   25.0040   37.7260 H   0  0  0  0  0  0  0  0  0  0  0  0
   37.3440   27.0540   41.4820 C   0  0  0  0  0  0  0  0  0  0  0  0
   36.6440   27.7920   42.4450 C   0  0  0  0  0  0  0  0  0  0  0  0
   35.7160   28.2720   42.1350 H   0  0  0  0  0  0  0  0  0  0  0  0
   37.0540   27.9460   43.7400 C   0  0  0  0  0  3  0  0  0  0  0  0
   38.2180   27.3570   44.1700 C   0  0  0  0  0  3  0  0  0  0  0  0
   38.9510   26.6190   43.2740 C   0  0  0  0  0  0  0  0  0  0  0  0
   40.1120   26.0450   43.7430 C   0  0  0  0  0  3  0  0  0  0  0  0
   40.9050   25.2880   42.9060 C   0  0  0  0  0  3  0  0  0  0  0  0
   40.4690   25.1430   41.5880 C   0  0  0  0  0  3  0  0  0  0  0  0
   39.2990   25.7430   41.1810 C   0  0  0  0  0  3  0  0  0  0  0  0
   38.4920   26.4990   41.9880 C   0  0  0  0  0  0  0  0  0  0  0  0
   36.8050   29.4030   37.4340 C   0  0  0  0  0  0  0  0  0  0  0  0
   36.2470   29.7010   36.3350 O   0  0  0  0  0  0  0  0  0  0  0  0
   39.0390   30.4930   37.8820 C   0  0  0  0  0  0  0  0  0  0  0  0
   37.6630   30.4620   37.9980 C   0  0  0  0  0  0  0  0  0  0  0  0
   37.0230   31.4770   38.6900 C   0  0  0  0  0  0  0  0  0  0  0  0
   37.6770   32.5400   39.2840 C   0  0  0  0  0  0  0  0  0  0  0  0
   37.2810   33.6110   39.9930 N   0  0  0  0  0  0  0  0  0  0  0  0
   38.3570   34.3200   40.3310 C   0  0  0  0  0  0  0  0  0  0  0  0
   39.4920   33.6840   39.8220 C   0  0  0  0  0  0  0  0  0  0  0  0
   39.0570   32.5590   39.1600 C   0  0  0  0  0  0  0  0  0  0  0  0
   39.7220   31.5560   38.4740 C   0  0  0  0  0  0  0  0  0  0  0  0
   39.4930   29.6990   37.3450 H   0  0  0  0  0  0  0  0  0  0  0  0
   35.9310   31.5340   38.8330 H   0  0  0  0  0  0  0  0  0  0  0  0
   36.2930   33.8670   40.2490 H   0  0  0  0  0  0  0  0  0  0  0  0
   38.4180   35.2420   40.9020 H   0  0  0  0  0  0  0  0  0  0  0  0
   40.5480   33.9610   39.8920 H   0  0  0  0  0  0  0  0  0  0  0  0
   40.7950   31.5400   38.3580 H   0  0  0  0  0  0  0  0  0  0  0  0
  1  6  1  0  0  0  0
  2  1  2  0  0  0  0
  2  3  1  0  0  0  0
  3  4  2  0  0  0  0
  4  5  1  0  0  0  0
  5  9  1  0  0  0  0
  6  5  2  0  0  0  0
  7  2  1  0  0  0  0
  8  3  1  0  0  0  0
  9 19  2  0  0  0  0
  9 10  1  0  0  0  0
 10 12  2  0  0  0  0
 11 10  1  0  0  0  0
 12 13  1  0  0  0  0
 14 15  1  0  0  0  0
 14 13  2  0  0  0  0
 16 15  2  0  0  0  0
 17 16  1  0  0  0  0
 18 17  2  0  0  0  0
 18 19  1  0  0  0  0
 19 14  1  0  0  0  0
 20 23  1  0  0  0  0
 20  1  1  0  0  0  0
 21 20  2  0  0  0  0
 22 23  2  0  0  0  0
 22 30  1  0  0  0  0
 23 24  1  0  0  0  0
 24 32  1  0  0  0  0
 24 25  2  0  0  0  0
 25 26  1  0  0  0  0
 26 33  1  0  0  0  0
 26 27  1  0  0  0  0
 27 34  1  0  0  0  0
 28 35  1  0  0  0  0
 28 27  2  0  0  0  0
 29 25  1  0  0  0  0
 29 28  1  0  0  0  0
 30 29  2  0  0  0  0
 31 22  1  0  0  0  0
 36 30  1  0  0  0  0
M  END
>  <minimizedAffinity>
-7.10725737

$$$$

 OpenBabel03242512393D

 36 40  0  0  0  0  0  0  0  0999 V2000
   34.2920   27.5800   37.3760 C   0  0  0  0  0  0  0  0  0  0  0  0
   34.0150   26.2760   37.0360 C   0  0  0  0  0  0  0  0  0  0  0  0
   32.8840   26.1180   36.1900 C   0  0  0  0  0  0  0  0  0  0  0  0
   32.1700   27.1990   35.7820 N   0  0  0  0  0  0  0  0  0  0  0  0
   32.4930   28.4350   36.1500 C   0  0  0  0  0  0  0  0  0  0  0  0
   33.5460   28.5670   36.9350 N   0  0  0  0  0  0  0  0  0  0  0  0
   34.5290   25.3760   37.3180 H   0  0  0  0  0  0  0  0  0  0  0  0
   32.5530   25.1650   35.8470 H   0  0  0  0  0  0  0  0  0  0  0  0
   31.8640   29.7210   35.8270 C   0  0  0  0  0  0  0  0  0  0  0  0
   32.1280   30.4300   34.6480 C   0  0  0  0  0  0  0  0  0  0  0  0
   32.8370   29.9930   33.9460 H   0  0  0  0  0  0  0  0  0  0  0  0
   31.5540   31.6290   34.3310 C   0  0  0  0  0  3  0  0  0  0  0  0
   30.6550   32.2140   35.1900 C   0  0  0  0  0  3  0  0  0  0  0  0
   30.3530   31.5690   36.3630 C   0  0  0  0  0  0  0  0  0  0  0  0
   29.4490   32.1860   37.1980 C   0  0  0  0  0  3  0  0  0  0  0  0
   29.0930   31.6040   38.3960 C   0  0  0  0  0  3  0  0  0  0  0  0
   29.6900   30.3800   38.7030 C   0  0  0  0  0  3  0  0  0  0  0  0
   30.5870   29.8140   37.8250 C   0  0  0  0  0  3  0  0  0  0  0  0
   30.9600   30.3680   36.6310 C   0  0  0  0  0  0  0  0  0  0  0  0
   35.4300   27.7870   38.2240 C   0  0  0  0  0  0  0  0  0  0  0  0
   35.9390   26.9300   39.0060 O   0  0  0  0  0  0  0  0  0  0  0  0
   36.8040   29.6140   37.1460 C   0  0  0  0  0  0  0  0  0  0  0  0
   36.1050   29.0990   38.2220 C   0  0  0  0  0  0  0  0  0  0  0  0
   36.0240   29.8420   39.3880 C   0  0  0  0  0  0  0  0  0  0  0  0
   36.6040   31.0860   39.5550 C   0  0  0  0  0  0  0  0  0  0  0  0
   36.6620   31.9680   40.5670 N   0  0  0  0  0  0  0  0  0  0  0  0
   37.3740   33.0220   40.1730 C   0  0  0  0  0  0  0  0  0  0  0  0
   37.7910   32.8160   38.8560 C   0  0  0  0  0  0  0  0  0  0  0  0
   37.3010   31.5890   38.4690 C   0  0  0  0  0  0  0  0  0  0  0  0
   37.3980   30.8670   37.2910 C   0  0  0  0  0  0  0  0  0  0  0  0
   36.8440   29.0160   36.2700 H   0  0  0  0  0  0  0  0  0  0  0  0
   35.4890   29.5110   40.2940 H   0  0  0  0  0  0  0  0  0  0  0  0
   36.2280   31.8640   41.5200 H   0  0  0  0  0  0  0  0  0  0  0  0
   37.6270   33.9230   40.7250 H   0  0  0  0  0  0  0  0  0  0  0  0
   38.3880   33.4510   38.1970 H   0  0  0  0  0  0  0  0  0  0  0  0
   37.9320   31.2300   36.4260 H   0  0  0  0  0  0  0  0  0  0  0  0
  1 20  1  0  0  0  0
  2  7  1  0  0  0  0
  2  1  1  0  0  0  0
  3  2  2  0  0  0  0
  4  5  2  0  0  0  0
  4  3  1  0  0  0  0
  5  6  1  0  0  0  0
  6  1  2  0  0  0  0
  8  3  1  0  0  0  0
  9  5  1  0  0  0  0
  9 19  1  0  0  0  0
 10  9  2  0  0  0  0
 11 10  1  0  0  0  0
 12 10  1  0  0  0  0
 12 13  2  0  0  0  0
 13 14  1  0  0  0  0
 14 19  2  0  0  0  0
 14 15  1  0  0  0  0
 15 16  2  0  0  0  0
 16 17  1  0  0  0  0
 18 17  2  0  0  0  0
 19 18  1  0  0  0  0
 20 21  2  0  0  0  0
 22 30  2  0  0  0  0
 22 23  1  0  0  0  0
 23 20  1  0  0  0  0
 23 24  2  0  0  0  0
 24 25  1  0  0  0  0
 24 32  1  0  0  0  0
 25 26  1  0  0  0  0
 26 33  1  0  0  0  0
 27 26  1  0  0  0  0
 27 34  1  0  0  0  0
 28 27  2  0  0  0  0
 29 28  1  0  0  0  0
 29 25  2  0  0  0  0
 30 29  1  0  0  0  0
 31 22  1  0  0  0  0
 35 28  1  0  0  0  0
 36 30  1  0  0  0  0
M  END
>  <minimizedAffinity>
-7.10622454

$$$$

 OpenBabel03242512393D

 36 40  0  0  0  0  0  0  0  0999 V2000
   37.8180   28.5240   37.3860 C   0  0  0  0  0  0  0  0  0  0  0  0
   38.5320   27.9390   36.3650 C   0  0  0  0  0  0  0  0  0  0  0  0
   38.9710   26.6150   36.6390 C   0  0  0  0  0  0  0  0  0  0  0  0
   38.6810   26.0240   37.8280 N   0  0  0  0  0  0  0  0  0  0  0  0
   37.9870   26.6480   38.7730 C   0  0  0  0  0  0  0  0  0  0  0  0
   37.5850   27.8760   38.5050 N   0  0  0  0  0  0  0  0  0  0  0  0
   38.7980   28.3400   35.4060 H   0  0  0  0  0  0  0  0  0  0  0  0
   39.5330   26.0410   35.9400 H   0  0  0  0  0  0  0  0  0  0  0  0
   37.5730   26.1970   40.1070 C   0  0  0  0  0  0  0  0  0  0  0  0
   37.1040   24.9040   40.3700 C   0  0  0  0  0  0  0  0  0  0  0  0
   37.0490   24.2090   39.5320 H   0  0  0  0  0  0  0  0  0  0  0  0
   36.7130   24.4670   41.6040 C   0  0  0  0  0  3  0  0  0  0  0  0
   36.7680   25.3120   42.6860 C   0  0  0  0  0  3  0  0  0  0  0  0
   37.2190   26.5940   42.4950 C   0  0  0  0  0  0  0  0  0  0  0  0
   37.2590   27.4110   43.6030 C   0  0  0  0  0  3  0  0  0  0  0  0
   37.6990   28.7130   43.4950 C   0  0  0  0  0  3  0  0  0  0  0  0
   38.0940   29.1420   42.2270 C   0  0  0  0  0  3  0  0  0  0  0  0
   38.0300   28.2750   41.1580 C   0  0  0  0  0  3  0  0  0  0  0  0
   37.5970   26.9790   41.2340 C   0  0  0  0  0  0  0  0  0  0  0  0
   37.3490   29.8580   37.1500 C   0  0  0  0  0  0  0  0  0  0  0  0
   36.7340   30.2570   36.1160 O   0  0  0  0  0  0  0  0  0  0  0  0
   36.7170   31.1630   39.2190 C   0  0  0  0  0  0  0  0  0  0  0  0
   37.5780   30.8970   38.1710 C   0  0  0  0  0  0  0  0  0  0  0  0
   38.7370   31.6460   38.0480 C   0  0  0  0  0  0  0  0  0  0  0  0
   39.0990   32.6610   38.9150 C   0  0  0  0  0  0  0  0  0  0  0  0
   40.1420   33.5040   38.9920 N   0  0  0  0  0  0  0  0  0  0  0  0
   39.9720   34.2960   40.0500 C   0  0  0  0  0  0  0  0  0  0  0  0
   38.7750   33.9510   40.6810 C   0  0  0  0  0  0  0  0  0  0  0  0
   38.2260   32.9150   39.9600 C   0  0  0  0  0  0  0  0  0  0  0  0
   37.0600   32.1820   40.1070 C   0  0  0  0  0  0  0  0  0  0  0  0
   35.8400   30.5680   39.2810 H   0  0  0  0  0  0  0  0  0  0  0  0
   39.4800   31.5050   37.2460 H   0  0  0  0  0  0  0  0  0  0  0  0
   40.9650   33.5500   38.3380 H   0  0  0  0  0  0  0  0  0  0  0  0
   40.6120   35.0930   40.4180 H   0  0  0  0  0  0  0  0  0  0  0  0
   38.3000   34.3710   41.5720 H   0  0  0  0  0  0  0  0  0  0  0  0
   36.3600   32.3540   40.9090 H   0  0  0  0  0  0  0  0  0  0  0  0
  1  6  1  0  0  0  0
  2  3  1  0  0  0  0
  2  1  2  0  0  0  0
  3  4  2  0  0  0  0
  4  5  1  0  0  0  0
  5  9  1  0  0  0  0
  6  5  2  0  0  0  0
  7  2  1  0  0  0  0
  8  3  1  0  0  0  0
  9 10  2  0  0  0  0
  9 19  1  0  0  0  0
 10 12  1  0  0  0  0
 11 10  1  0  0  0  0
 12 13  2  0  0  0  0
 14 13  1  0  0  0  0
 14 15  1  0  0  0  0
 16 15  2  0  0  0  0
 17 16  1  0  0  0  0
 18 19  1  0  0  0  0
 18 17  2  0  0  0  0
 19 14  2  0  0  0  0
 20  1  1  0  0  0  0
 20 23  1  0  0  0  0
 21 20  2  0  0  0  0
 22 31  1  0  0  0  0
 22 30  1  0  0  0  0
 23 22  2  0  0  0  0
 24 23  1  0  0  0  0
 24 25  2  0  0  0  0
 25 26  1  0  0  0  0
 25 29  1  0  0  0  0
 26 27  1  0  0  0  0
 27 34  1  0  0  0  0
 27 28  2  0  0  0  0
 28 35  1  0  0  0  0
 29 30  2  0  0  0  0
 29 28  1  0  0  0  0
 30 36  1  0  0  0  0
 32 24  1  0  0  0  0
 33 26  1  0  0  0  0
M  END
>  <minimizedAffinity>
-7.03038931

$$$$

 OpenBabel03242512393D

 36 40  0  0  0  0  0  0  0  0999 V2000
   34.9260   28.2860   36.7800 C   0  0  0  0  0  0  0  0  0  0  0  0
   35.7150   29.2350   36.1740 C   0  0  0  0  0  0  0  0  0  0  0  0
   36.9720   29.4450   36.8060 C   0  0  0  0  0  0  0  0  0  0  0  0
   37.3130   28.7390   37.9150 N   0  0  0  0  0  0  0  0  0  0  0  0
   36.5000   27.8350   38.4510 C   0  0  0  0  0  0  0  0  0  0  0  0
   35.3380   27.6490   37.8540 N   0  0  0  0  0  0  0  0  0  0  0  0
   35.5150   29.8300   35.3030 H   0  0  0  0  0  0  0  0  0  0  0  0
   37.6840   30.1500   36.4450 H   0  0  0  0  0  0  0  0  0  0  0  0
   36.6720   26.9760   39.6290 C   0  0  0  0  0  0  0  0  0  0  0  0
   36.5910   25.5780   39.5790 C   0  0  0  0  0  0  0  0  0  0  0  0
   36.3900   25.1200   38.6110 H   0  0  0  0  0  0  0  0  0  0  0  0
   36.7480   24.7630   40.6650 C   0  0  0  0  0  3  0  0  0  0  0  0
   37.0020   25.3020   41.9030 C   0  0  0  0  0  3  0  0  0  0  0  0
   37.0940   26.6670   42.0190 C   0  0  0  0  0  0  0  0  0  0  0  0
   37.3500   27.1690   43.2750 C   0  0  0  0  0  3  0  0  0  0  0  0
   37.4560   28.5280   43.4760 C   0  0  0  0  0  3  0  0  0  0  0  0
   37.2930   29.3450   42.3560 C   0  0  0  0  0  3  0  0  0  0  0  0
   37.0390   28.7810   41.1250 C   0  0  0  0  0  3  0  0  0  0  0  0
   36.9280   27.4360   40.8960 C   0  0  0  0  0  0  0  0  0  0  0  0
   33.6510   28.0360   36.1720 C   0  0  0  0  0  0  0  0  0  0  0  0
   33.2840   26.9460   35.6400 O   0  0  0  0  0  0  0  0  0  0  0  0
   32.3500   29.8700   35.0180 C   0  0  0  0  0  0  0  0  0  0  0  0
   32.6430   29.1120   36.1360 C   0  0  0  0  0  0  0  0  0  0  0  0
   31.9620   29.3640   37.3160 C   0  0  0  0  0  0  0  0  0  0  0  0
   30.9910   30.3400   37.4560 C   0  0  0  0  0  0  0  0  0  0  0  0
   30.2200   30.7600   38.4730 N   0  0  0  0  0  0  0  0  0  0  0  0
   29.4500   31.7570   38.0400 C   0  0  0  0  0  0  0  0  0  0  0  0
   29.7330   31.9900   36.6920 C   0  0  0  0  0  0  0  0  0  0  0  0
   30.7090   31.0910   36.3260 C   0  0  0  0  0  0  0  0  0  0  0  0
   31.3750   30.8590   35.1340 C   0  0  0  0  0  0  0  0  0  0  0  0
   32.8920   29.6470   34.1330 H   0  0  0  0  0  0  0  0  0  0  0  0
   32.1290   28.8120   38.2560 H   0  0  0  0  0  0  0  0  0  0  0  0
   30.2100   30.3810   39.4550 H   0  0  0  0  0  0  0  0  0  0  0  0
   28.7090   32.3350   38.5840 H   0  0  0  0  0  0  0  0  0  0  0  0
   29.3090   32.7210   35.9980 H   0  0  0  0  0  0  0  0  0  0  0  0
   31.1780   31.4250   34.2370 H   0  0  0  0  0  0  0  0  0  0  0  0
  1  6  1  0  0  0  0
  2  1  2  0  0  0  0
  2  3  1  0  0  0  0
  3  4  2  0  0  0  0
  4  5  1  0  0  0  0
  5  9  1  0  0  0  0
  6  5  2  0  0  0  0
  7  2  1  0  0  0  0
  8  3  1  0  0  0  0
  9 19  1  0  0  0  0
 10  9  2  0  0  0  0
 10 12  1  0  0  0  0
 11 10  1  0  0  0  0
 12 13  2  0  0  0  0
 13 14  1  0  0  0  0
 14 15  1  0  0  0  0
 15 16  2  0  0  0  0
 17 16  1  0  0  0  0
 18 17  2  0  0  0  0
 19 18  1  0  0  0  0
 19 14  2  0  0  0  0
 20  1  1  0  0  0  0
 21 20  2  0  0  0  0
 22 30  2  0  0  0  0
 22 23  1  0  0  0  0
 23 20  1  0  0  0  0
 23 24  2  0  0  0  0
 24 25  1  0  0  0  0
 24 32  1  0  0  0  0
 25 26  1  0  0  0  0
 26 33  1  0  0  0  0
 27 26  1  0  0  0  0
 27 34  1  0  0  0  0
 28 27  2  0  0  0  0
 29 28  1  0  0  0  0
 29 25  2  0  0  0  0
 30 29  1  0  0  0  0
 31 22  1  0  0  0  0
 35 28  1  0  0  0  0
 36 30  1  0  0  0  0
M  END
>  <minimizedAffinity>
-6.99742985

$$$$

 OpenBabel03242512393D

 36 40  0  0  0  0  0  0  0  0999 V2000
   37.6210   30.1370   39.3130 C   0  0  0  0  0  0  0  0  0  0  0  0
   36.7370   31.0120   39.9020 C   0  0  0  0  0  0  0  0  0  0  0  0
   35.9630   30.4470   40.9510 C   0  0  0  0  0  0  0  0  0  0  0  0
   36.1220   29.1440   41.3020 N   0  0  0  0  0  0  0  0  0  0  0  0
   36.9940   28.3520   40.6890 C   0  0  0  0  0  0  0  0  0  0  0  0
   37.7070   28.8900   39.7170 N   0  0  0  0  0  0  0  0  0  0  0  0
   36.5570   32.0470   39.6800 H   0  0  0  0  0  0  0  0  0  0  0  0
   35.2400   31.0080   41.4960 H   0  0  0  0  0  0  0  0  0  0  0  0
   37.3170   26.9370   40.9090 C   0  0  0  0  0  0  0  0  0  0  0  0
   36.7320   25.8940   40.1780 C   0  0  0  0  0  0  0  0  0  0  0  0
   36.0050   26.1620   39.4130 H   0  0  0  0  0  0  0  0  0  0  0  0
   37.0190   24.5710   40.3700 C   0  0  0  0  0  3  0  0  0  0  0  0
   37.9310   24.1920   41.3250 C   0  0  0  0  0  3  0  0  0  0  0  0
   38.5390   25.1680   42.0750 C   0  0  0  0  0  0  0  0  0  0  0  0
   39.4460   24.7490   43.0230 C   0  0  0  0  0  3  0  0  0  0  0  0
   40.1000   25.6660   43.8180 C   0  0  0  0  0  3  0  0  0  0  0  0
   39.7940   27.0120   43.6080 C   0  0  0  0  0  3  0  0  0  0  0  0
   38.8770   27.3660   42.6440 C   0  0  0  0  0  3  0  0  0  0  0  0
   38.2130   26.4790   41.8410 C   0  0  0  0  0  0  0  0  0  0  0  0
   38.4280   30.6670   38.2530 C   0  0  0  0  0  0  0  0  0  0  0  0
   38.1940   30.5510   37.0130 O   0  0  0  0  0  0  0  0  0  0  0  0
   40.2510   31.4300   39.8280 C   0  0  0  0  0  0  0  0  0  0  0  0
   39.6520   31.4220   38.5820 C   0  0  0  0  0  0  0  0  0  0  0  0
   40.2160   32.1680   37.5610 C   0  0  0  0  0  0  0  0  0  0  0  0
   41.3570   32.9360   37.7020 C   0  0  0  0  0  0  0  0  0  0  0  0
   42.0670   33.7260   36.8790 N   0  0  0  0  0  0  0  0  0  0  0  0
   43.0930   34.2360   37.5580 C   0  0  0  0  0  0  0  0  0  0  0  0
   43.0460   33.7570   38.8700 C   0  0  0  0  0  0  0  0  0  0  0  0
   41.9460   32.9340   38.9560 C   0  0  0  0  0  0  0  0  0  0  0  0
   41.4030   32.1970   39.9950 C   0  0  0  0  0  0  0  0  0  0  0  0
   39.7900   30.8450   40.5850 H   0  0  0  0  0  0  0  0  0  0  0  0
   39.8080   32.2210   36.5380 H   0  0  0  0  0  0  0  0  0  0  0  0
   41.8650   33.9240   35.8660 H   0  0  0  0  0  0  0  0  0  0  0  0
   43.8710   34.9130   37.2170 H   0  0  0  0  0  0  0  0  0  0  0  0
   43.7110   33.9500   39.7160 H   0  0  0  0  0  0  0  0  0  0  0  0
   41.8370   32.1730   40.9830 H   0  0  0  0  0  0  0  0  0  0  0  0
  1  6  2  0  0  0  0
  1  2  1  0  0  0  0
  2  3  2  0  0  0  0
  3  4  1  0  0  0  0
  3  8  1  0  0  0  0
  5  9  1  0  0  0  0
  5  4  2  0  0  0  0
  6  5  1  0  0  0  0
  7  2  1  0  0  0  0
  9 19  1  0  0  0  0
 10 12  1  0  0  0  0
 10  9  2  0  0  0  0
 11 10  1  0  0  0  0
 12 13  2  0  0  0  0
 13 14  1  0  0  0  0
 14 15  1  0  0  0  0
 15 16  2  0  0  0  0
 17 16  1  0  0  0  0
 18 17  2  0  0  0  0
 19 14  2  0  0  0  0
 19 18  1  0  0  0  0
 20 23  1  0  0  0  0
 20  1  1  0  0  0  0
 21 20  2  0  0  0  0
 22 30  1  0  0  0  0
 22 31  1  0  0  0  0
 23 22  2  0  0  0  0
 24 25  2  0  0  0  0
 24 23  1  0  0  0  0
 25 29  1  0  0  0  0
 26 27  1  0  0  0  0
 26 25  1  0  0  0  0
 27 28  2  0  0  0  0
 28 29  1  0  0  0  0
 28 35  1  0  0  0  0
 29 30  2  0  0  0  0
 30 36  1  0  0  0  0
 32 24  1  0  0  0  0
 33 26  1  0  0  0  0
 34 27  1  0  0  0  0
M  END
>  <minimizedAffinity>
-6.97970629

$$$$
