
     RDKit          3D

 48 52  0  0  0  0  0  0  0  0999 V2000
   47.1892   34.5641   42.0085 C   0  0  1  0  0  0  0  0  0  0  0  0
   48.2912   35.4412   41.6792 C   0  0  0  0  0  0  0  0  0  0  0  0
   48.6121   34.1312   42.3297 C   0  0  2  0  0  0  0  0  0  0  0  0
   45.5097   36.0287   43.1858 C   0  0  0  0  0  0  0  0  0  0  0  0
   46.2764   34.8435   43.1570 C   0  0  0  0  0  0  0  0  0  0  0  0
   46.1508   33.9676   44.2190 C   0  0  0  0  0  0  0  0  0  0  0  0
   45.2935   34.3103   45.2216 N   0  0  0  0  0  0  0  0  0  0  0  0
   44.5734   35.4462   45.2259 C   0  0  0  0  0  0  0  0  0  0  0  0
   44.6718   36.3210   44.2077 N   0  0  0  0  0  0  0  0  0  0  0  0
   49.3136   33.1903   41.4998 N   0  0  0  0  0  0  0  0  0  0  0  0
   50.6482   33.1164   41.9817 C   0  0  0  0  0  0  0  0  0  0  0  0
   51.3437   31.8194   41.8213 C   0  0  0  0  0  0  0  0  0  0  0  0
   50.6176   30.7492   42.5806 C   0  0  0  0  0  0  0  0  0  0  0  0
   49.1390   30.9781   42.5120 C   0  0  0  0  0  0  0  0  0  0  0  0
   48.7178   31.8719   41.4261 C   0  0  2  0  0  0  0  0  0  0  0  0
   46.7199   33.9068   41.2603 H   0  0  0  0  0  0  0  0  0  0  0  0
   48.5282   35.5664   40.5893 H   0  0  0  0  0  0  0  0  0  0  0  0
   48.4585   36.3902   42.2378 H   0  0  0  0  0  0  0  0  0  0  0  0
   48.9590   34.2146   43.3760 H   0  0  0  0  0  0  0  0  0  0  0  0
   45.6147   36.7123   42.3465 H   0  0  0  0  0  0  0  0  0  0  0  0
   46.7063   33.0559   44.2505 H   0  0  0  0  0  0  0  0  0  0  0  0
   43.9032   35.6781   46.0452 H   0  0  0  0  0  0  0  0  0  0  0  0
   50.6598   33.3482   43.0840 H   0  0  0  0  0  0  0  0  0  0  0  0
   51.2390   33.9547   41.5273 H   0  0  0  0  0  0  0  0  0  0  0  0
   52.3278   31.9487   42.3941 H   0  0  0  0  0  0  0  0  0  0  0  0
   51.6810   31.5250   40.8350 H   0  0  0  0  0  0  0  0  0  0  0  0
   50.8908   30.8406   43.6580 H   0  0  0  0  0  0  0  0  0  0  0  0
   50.9431   29.7257   42.2980 H   0  0  0  0  0  0  0  0  0  0  0  0
   48.7138   29.9637   42.4388 H   0  0  0  0  0  0  0  0  0  0  0  0
   48.7213   31.3792   43.4828 H   0  0  0  0  0  0  0  0  0  0  0  0
   47.6439   32.1741   41.6951 H   0  0  0  0  0  0  0  0  0  0  0  0
   48.5883   31.3416   40.0634 C   0  0  0  0  0  0  0  0  0  0  0  0
   47.5500   31.5249   39.1690 C   0  0  0  0  0  0  0  0  0  0  0  0
   46.7160   32.1302   39.4926 H   0  0  0  0  0  0  0  0  0  0  0  0
   47.4469   31.0102   37.9204 C   0  0  0  0  0  0  0  0  0  0  0  0
   48.4475   30.2189   37.4467 C   0  0  0  0  0  0  0  0  0  0  0  0
   49.5325   29.9705   38.2600 C   0  0  0  0  0  0  0  0  0  0  0  0
   50.5116   29.1611   37.7268 C   0  0  0  0  0  0  0  0  0  0  0  0
   51.6240   28.8669   38.4814 C   0  0  0  0  0  0  0  0  0  0  0  0
   51.7382   29.3855   39.7528 C   0  0  0  0  0  0  0  0  0  0  0  0
   50.7215   30.1879   40.2233 C   0  0  0  0  0  0  0  0  0  0  0  0
   49.5835   30.5221   39.5231 C   0  0  0  0  0  0  0  0  0  0  0  0
   46.5951   31.2063   37.2844 H   0  0  0  0  0  0  0  0  0  0  0  0
   48.3839   29.7990   36.4532 H   0  0  0  0  0  0  0  0  0  0  0  0
   50.4234   28.7531   36.7289 H   0  0  0  0  0  0  0  0  0  0  0  0
   52.3761   28.2328   38.0446 H   0  0  0  0  0  0  0  0  0  0  0  0
   52.6205   29.1413   40.3281 H   0  0  0  0  0  0  0  0  0  0  0  0
   50.8949   30.5459   41.2266 H   0  0  0  0  0  0  0  0  0  0  0  0
  1  3  1  0
  1  5  1  0
  2  1  1  0
  2  3  1  0
  4  9  2  0
  5  4  1  0
  5  6  2  0
  6  7  1  0
  8  7  2  0
  9  8  1  0
 10 11  1  0
 10  3  1  0
 12 11  1  0
 12 13  1  0
 13 14  1  0
 15 10  1  0
 15 14  1  0
  1 16  1  6
  2 17  1  0
  2 18  1  0
  3 19  1  1
  4 20  1  0
  6 21  1  0
  8 22  1  0
 11 23  1  0
 11 24  1  0
 12 25  1  0
 12 26  1  0
 13 27  1  0
 13 28  1  0
 14 29  1  0
 14 30  1  0
 15 31  1  1
 32 33  2  0
 33 34  1  0
 33 35  1  0
 35 36  2  0
 36 37  1  0
 37 38  2  0
 38 39  1  0
 39 40  2  0
 40 41  1  0
 41 42  2  0
 42 32  1  0
 42 37  1  0
 35 43  1  0
 36 44  1  0
 38 45  1  0
 39 46  1  0
 40 47  1  0
 41 48  1  0
 15 32  1  0
M  ISO  8  16  13  17  13  18  13  19  13  20  14  21  14  22  14  23  13
M  ISO  8  24  13  25  13  26  13  27  13  28  13  29  13  30  13  31  13
M  ISO  1  34  15
M  END
>  <DihAtoms>  (1) 
9,14,31,32

>  <DihDeg>  (1) 
32.72616051219331

$$$$
