
 OpenBabel03252508213D

 36 39  0  0  0  0  0  0  0  0999 V2000
   46.6890   33.4730   40.4620 C   0  0  0  0  0  0  0  0  0  0  0  0
   47.1710   33.8470   39.2370 C   0  0  0  0  0  0  0  0  0  0  0  0
   48.2610   34.6820   39.0280 C   0  0  0  0  0  0  0  0  0  0  0  0
   48.8910   35.1610   40.1820 C   0  0  0  0  0  0  0  0  0  0  0  0
   48.4140   34.7930   41.4410 C   0  0  0  0  0  0  0  0  0  0  0  0
   47.3210   33.9550   41.6010 C   0  0  0  0  0  0  0  0  0  0  0  0
   46.6950   33.4830   38.3430 H   0  0  0  0  0  0  0  0  0  0  0  0
   48.5940   34.9400   38.0390 H   0  0  0  0  0  0  0  0  0  0  0  0
   49.7440   35.8160   40.0490 H   0  0  0  0  0  0  0  0  0  0  0  0
   48.9620   35.2110   42.2880 H   0  0  0  0  0  0  0  0  0  0  0  0
   46.9190   33.6430   42.9670 C   0  0  0  0  0  0  0  0  0  0  0  0
   47.4640   32.4920   43.4970 C   0  0  0  0  0  0  0  0  0  0  0  0
   48.1470   31.8440   42.9590 H   0  0  0  0  0  0  0  0  0  0  0  0
   47.1660   32.0800   44.7820 C   0  0  0  0  0  0  0  0  0  0  0  0
   46.3040   32.8280   45.5610 C   0  0  0  0  0  0  0  0  0  0  0  0
   45.7680   33.9720   45.0240 C   0  0  0  0  0  0  0  0  0  0  0  0
   44.8970   34.7580   45.7700 C   0  0  0  0  0  0  0  0  0  0  0  0
   44.3690   35.9090   45.2000 C   0  0  0  0  0  0  0  0  0  0  0  0
   44.6840   36.3050   43.9040 C   0  0  0  0  0  0  0  0  0  0  0  0
   45.5530   35.5350   43.1400 C   0  0  0  0  0  0  0  0  0  0  0  0
   46.0510   34.4020   43.7470 C   0  0  0  0  0  0  0  0  0  0  0  0
   45.5450   32.5890   40.6550 C   0  0  0  0  0  0  0  0  0  0  0  0
   45.9330   31.5370   40.5420 H   0  0  0  0  0  0  0  0  0  0  0  0
   45.1390   32.6210   41.6920 H   0  0  0  0  0  0  0  0  0  0  0  0
   44.4710   32.8070   39.6130 C   0  0  0  0  0  0  0  0  0  0  0  0
   44.1100   31.8230   39.2310 H   0  0  0  0  0  0  0  0  0  0  0  0
   44.9020   33.4350   38.8060 H   0  0  0  0  0  0  0  0  0  0  0  0
   42.2130   35.4440   41.0710 C   0  0  0  0  0  0  0  0  0  0  0  0
   43.3470   34.8490   40.4480 C   0  0  0  0  0  0  0  0  0  0  0  0
   43.3070   33.4600   40.2580 C   0  0  0  0  0  0  0  0  0  0  0  0
   42.1890   32.7630   40.6790 N   0  0  0  0  0  0  0  0  0  0  0  0
   41.1610   33.3930   41.2570 C   0  0  0  0  0  0  0  0  0  0  0  0
   41.1640   34.7200   41.4550 N   0  0  0  0  0  0  0  0  0  0  0  0
   42.1800   36.5090   41.2470 H   0  0  0  0  0  0  0  0  0  0  0  0
   44.1890   35.4570   40.1450 H   0  0  0  0  0  0  0  0  0  0  0  0
   40.3850   32.6620   41.5120 H   0  0  0  0  0  0  0  0  0  0  0  0
  1 22  1  0  0  0  0
  1  6  1  0  0  0  0
  2  1  2  0  0  0  0
  3  2  1  0  0  0  0
  3  4  2  0  0  0  0
  4  5  1  0  0  0  0
  5  6  2  0  0  0  0
  5 10  1  0  0  0  0
  6 11  1  0  0  0  0
  7  2  1  0  0  0  0
  8  3  1  0  0  0  0
  9  4  1  0  0  0  0
 11 12  2  0  0  0  0
 11 21  1  0  0  0  0
 12 14  1  0  0  0  0
 13 12  1  0  0  0  0
 14 15  2  0  0  0  0
 16 15  1  0  0  0  0
 16 17  1  0  0  0  0
 18 17  2  0  0  0  0
 19 18  1  0  0  0  0
 20 21  1  0  0  0  0
 20 19  2  0  0  0  0
 21 16  2  0  0  0  0
 22 24  1  0  0  0  0
 23 22  1  0  0  0  0
 25 30  1  0  0  0  0
 25 22  1  0  0  0  0
 26 25  1  0  0  0  0
 27 25  1  0  0  0  0
 28 34  1  0  0  0  0
 28 33  1  0  0  0  0
 29 28  2  0  0  0  0
 30 29  1  0  0  0  0
 30 31  2  0  0  0  0
 31 32  1  0  0  0  0
 32 33  2  0  0  0  0
 32 36  1  0  0  0  0
 35 29  1  0  0  0  0
M  END
>  <minimizedAffinity>
-5.90034914

>  <minimizedRMSD>
2.1835649

$$$$
