REMARK  Name = 
REMARK  4 active torsions:
REMARK  status: ('A' for Active; 'I' for Inactive)
REMARK    1  A    between atoms: C_1  and  C_7
REMARK    2  A    between atoms: C_6  and  N_19
REMARK    3  A    between atoms: C_11  and  C_13
REMARK    4  A    between atoms: C_17  and  C_41
REMARK                            x       y       z     vdW  Elec       q    Type
REMARK                         _______ _______ _______ _____ _____    ______ ____
ROOT
ATOM      1  C   UNL     1      46.913  32.914  45.528  0.00  0.00    +0.000 A 
ATOM      2  C   UNL     1      45.797  33.586  46.014  0.00  0.00    +0.000 A 
ATOM      3  C   UNL     1      45.119  34.505  45.181  0.00  0.00    +0.000 A 
ATOM      4  N   UNL     1      45.639  34.675  43.898  0.00  0.00    +0.000 NA
ATOM      5  C   UNL     1      46.714  34.001  43.497  0.00  0.00    +0.000 A 
ATOM      6  N   UNL     1      47.348  33.132  44.288  0.00  0.00    +0.000 NA
ATOM      7  H   UNL     1      45.268  33.636  46.937  0.00  0.00    +0.000 HD
ATOM      8  H   UNL     1      44.264  35.098  45.371  0.00  0.00    +0.000 HD
ENDROOT
BRANCH   1   9
ATOM      9  C   UNL     1      47.559  31.965  46.411  0.00  0.00    +0.000 C 
ATOM     10  C   UNL     1      47.300  30.498  45.958  0.00  0.00    +0.000 C 
ATOM     11  C   UNL     1      48.100  29.566  46.799  0.00  0.00    +0.000 C 
ATOM     12  C   UNL     1      48.115  29.847  48.264  0.00  0.00    +0.000 C 
ATOM     13  C   UNL     1      48.123  31.248  48.608  0.00  0.00    +0.000 C 
ATOM     14  C   UNL     1      47.128  32.098  47.789  0.00  0.00    +0.000 C 
ATOM     15  H   UNL     1      48.665  32.050  46.294  0.00  0.00    +0.000 HD
ATOM     16  H   UNL     1      46.241  30.258  45.933  0.00  0.00    +0.000 HD
ATOM     17  H   UNL     1      47.657  30.474  44.908  0.00  0.00    +0.000 HD
ATOM     18  H   UNL     1      47.606  28.555  46.685  0.00  0.00    +0.000 HD
ATOM     19  H   UNL     1      49.079  29.439  46.302  0.00  0.00    +0.000 HD
ATOM     20  H   UNL     1      47.750  29.073  48.940  0.00  0.00    +0.000 HD
ATOM     21  H   UNL     1      49.230  29.597  48.485  0.00  0.00    +0.000 HD
ATOM     22  H   UNL     1      49.076  31.820  48.536  0.00  0.00    +0.000 HD
ATOM     23  H   UNL     1      47.780  31.373  49.668  0.00  0.00    +0.000 HD
ATOM     24  H   UNL     1      47.234  33.070  48.272  0.00  0.00    +0.000 HD
BRANCH  14  25
ATOM     25  N   UNL     1      45.787  31.530  47.952  0.00  0.00    +0.000 N 
ATOM     26  C   UNL     1      45.189  30.847  49.025  0.00  0.00    +0.000 C 
ATOM     27  O   UNL     1      44.757  31.440  50.078  0.00  0.00    +0.000 OA
ATOM     28  N   UNL     1      45.090  29.434  48.851  0.00  0.00    +0.000 N 
ATOM     29  H   UNL     1      45.059  31.525  47.142  0.00  0.00    +0.000 HD
ATOM     30  H   UNL     1      44.679  28.893  48.056  0.00  0.00    +0.000 HD
ATOM     31  H   UNL     1      45.452  28.738  49.564  0.00  0.00    +0.000 HD
ENDBRANCH  14  25
ENDBRANCH   1   9
BRANCH   5  32
ATOM     32  C   UNL     1      47.221  34.248  42.143  0.00  0.00    +0.000 A 
ATOM     33  C   UNL     1      48.187  35.164  41.889  0.00  0.00    +0.000 A 
ATOM     34  C   UNL     1      48.693  35.431  40.633  0.00  0.00    +0.000 A 
ATOM     35  C   UNL     1      48.150  34.695  39.613  0.00  0.00    +0.000 A 
ATOM     36  C   UNL     1      47.171  33.755  39.830  0.00  0.00    +0.000 A 
ATOM     37  N   UNL     1      46.729  33.559  41.105  0.00  0.00    +0.000 NA
ATOM     38  H   UNL     1      48.572  35.709  42.737  0.00  0.00    +0.000 HD
ATOM     39  H   UNL     1      49.456  36.160  40.466  0.00  0.00    +0.000 HD
ATOM     40  H   UNL     1      48.510  34.941  38.633  0.00  0.00    +0.000 HD
BRANCH  36  41
ATOM     41  C   UNL     1      46.449  32.949  38.870  0.00  0.00    +0.000 A 
ATOM     42  C   UNL     1      47.148  31.962  38.158  0.00  0.00    +0.000 A 
ATOM     43  H   UNL     1      48.220  31.820  38.357  0.00  0.00    +0.000 HD
ATOM     44  C   UNL     1      46.606  31.130  37.206  0.00  0.00    +0.000 A 
ATOM     45  C   UNL     1      45.270  31.250  36.903  0.00  0.00    +0.000 A 
ATOM     46  C   UNL     1      44.521  32.200  37.560  0.00  0.00    +0.000 A 
ATOM     47  C   UNL     1      43.190  32.355  37.238  0.00  0.00    +0.000 A 
ATOM     48  C   UNL     1      42.394  33.314  37.831  0.00  0.00    +0.000 A 
ATOM     49  C   UNL     1      43.019  34.127  38.783  0.00  0.00    +0.000 A 
ATOM     50  C   UNL     1      44.348  33.938  39.075  0.00  0.00    +0.000 A 
ATOM     51  C   UNL     1      45.135  32.990  38.494  0.00  0.00    +0.000 A 
ENDBRANCH  36  41
ENDBRANCH   5  32
TORSDOF 4
