
 OpenBabel03242512323D

 40 43  0  0  1  0  0  0  0  0999 V2000
   38.6650   31.1620   40.6340 C   0  0  1  0  0  0  0  0  0  0  0  0
   39.8400   32.1440   40.5230 C   0  0  0  0  0  0  0  0  0  0  0  0
   39.3520   33.5460   40.7170 C   0  0  0  0  0  0  0  0  0  0  0  0
   38.2340   33.8390   39.7820 C   0  0  0  0  0  0  0  0  0  0  0  0
   37.1290   32.8450   39.8630 C   0  0  0  0  0  0  0  0  0  0  0  0
   37.7300   31.4650   39.4800 C   0  0  2  0  0  0  0  0  0  0  0  0
   38.0890   31.2370   41.5530 H   0  0  0  0  0  0  0  0  0  0  0  0
   40.6750   31.8630   41.1800 H   0  0  0  0  0  0  0  0  0  0  0  0
   40.1800   32.0700   39.4600 H   0  0  0  0  0  0  0  0  0  0  0  0
   39.0380   33.7740   41.7460 H   0  0  0  0  0  0  0  0  0  0  0  0
   40.2070   34.2150   40.4170 H   0  0  0  0  0  0  0  0  0  0  0  0
   37.8050   34.8380   40.0720 H   0  0  0  0  0  0  0  0  0  0  0  0
   38.5230   33.9460   38.7200 H   0  0  0  0  0  0  0  0  0  0  0  0
   36.3710   33.0970   39.1070 H   0  0  0  0  0  0  0  0  0  0  0  0
   36.7340   32.8120   40.8840 H   0  0  0  0  0  0  0  0  0  0  0  0
   38.3210   31.7530   38.5650 H   0  0  0  0  0  0  0  0  0  0  0  0
   36.6530   30.5400   39.2110 C   0  0  0  0  0  0  0  0  0  0  0  0
   35.8040   30.1190   40.2460 C   0  0  0  0  0  0  0  0  0  0  0  0
   36.0110   30.4690   41.2570 H   0  0  0  0  0  0  0  0  0  0  0  0
   34.7120   29.2890   40.1030 C   0  0  0  0  0  3  0  0  0  0  0  0
   34.4080   28.8210   38.8490 C   0  0  0  0  0  3  0  0  0  0  0  0
   35.1810   29.1800   37.7880 C   0  0  0  0  0  0  0  0  0  0  0  0
   34.8770   28.7060   36.5260 C   0  0  0  0  0  3  0  0  0  0  0  0
   35.6440   29.0480   35.4200 C   0  0  0  0  0  3  0  0  0  0  0  0
   36.7350   29.8930   35.6420 C   0  0  0  0  0  3  0  0  0  0  0  0
   37.0050   30.3410   36.8980 C   0  0  0  0  0  3  0  0  0  0  0  0
   36.2610   30.0130   37.9970 C   0  0  0  0  0  0  0  0  0  0  0  0
   39.2180   29.7870   40.5600 C   0  0  0  0  0  0  0  0  0  0  0  0
   39.8020   29.5860   39.4630 O   0  0  0  0  0  0  0  0  0  0  0  0
   37.6660   27.7830   43.1350 C   0  0  0  0  0  0  0  0  0  0  0  0
   38.7350   27.0470   43.6750 C   0  0  0  0  0  0  0  0  0  0  0  0
   40.0040   27.2370   43.1410 C   0  0  0  0  0  0  0  0  0  0  0  0
   40.0910   28.1290   42.1300 N   0  0  0  0  0  0  0  0  0  0  0  0
   39.0960   28.8220   41.6180 C   0  0  0  0  0  0  0  0  0  0  0  0
   37.8450   28.6570   42.1220 N   0  0  0  0  0  0  0  0  0  0  0  0
   36.3580   27.6060   43.6680 N   0  0  0  0  0  0  0  0  0  0  0  0
   38.5910   26.3430   44.4930 H   0  0  0  0  0  0  0  0  0  0  0  0
   40.8520   26.7030   43.5130 H   0  0  0  0  0  0  0  0  0  0  0  0
   36.2850   27.6060   44.7220 H   0  0  0  0  0  0  0  0  0  0  0  0
   35.5030   27.4810   43.1080 H   0  0  0  0  0  0  0  0  0  0  0  0
  1  7  1  1  0  0  0
  2  1  1  0  0  0  0
  2  3  1  0  0  0  0
  2  8  1  0  0  0  0
  3 10  1  0  0  0  0
  4  5  1  0  0  0  0
  4 12  1  0  0  0  0
  4  3  1  0  0  0  0
  5 15  1  0  0  0  0
  6 16  1  6  0  0  0
  6  5  1  0  0  0  0
  6  1  1  0  0  0  0
  9  2  1  0  0  0  0
 11  3  1  0  0  0  0
 13  4  1  0  0  0  0
 14  5  1  0  0  0  0
 17  6  1  0  0  0  0
 17 18  1  0  0  0  0
 18 19  1  0  0  0  0
 20 18  2  0  0  0  0
 21 20  1  0  0  0  0
 22 27  1  0  0  0  0
 22 21  2  0  0  0  0
 23 22  1  0  0  0  0
 24 25  1  0  0  0  0
 24 23  2  0  0  0  0
 25 26  2  0  0  0  0
 26 27  1  0  0  0  0
 27 17  2  0  0  0  0
 28  1  1  0  0  0  0
 28 34  1  0  0  0  0
 29 28  2  0  0  0  0
 30 36  1  0  0  0  0
 30 31  1  0  0  0  0
 31 37  1  0  0  0  0
 32 38  1  0  0  0  0
 32 31  2  0  0  0  0
 33 32  1  0  0  0  0
 34 35  1  0  0  0  0
 34 33  2  0  0  0  0
 35 30  2  0  0  0  0
 36 39  1  0  0  0  0
 40 36  1  0  0  0  0
M  END
>  <minimizedAffinity>
-6.78174543

$$$$

 OpenBabel03242512323D

 40 43  0  0  1  0  0  0  0  0999 V2000
   37.6040   29.2950   41.3640 C   0  0  1  0  0  0  0  0  0  0  0  0
   37.5950   29.2330   42.8980 C   0  0  0  0  0  0  0  0  0  0  0  0
   37.8890   27.8370   43.3520 C   0  0  0  0  0  0  0  0  0  0  0  0
   36.9580   26.8750   42.7080 C   0  0  0  0  0  0  0  0  0  0  0  0
   36.9380   26.9870   41.2230 C   0  0  0  0  0  0  0  0  0  0  0  0
   36.4580   28.4260   40.8830 C   0  0  2  0  0  0  0  0  0  0  0  0
   38.5140   28.9290   40.8940 H   0  0  0  0  0  0  0  0  0  0  0  0
   38.2440   29.9980   43.3450 H   0  0  0  0  0  0  0  0  0  0  0  0
   36.5360   29.4460   43.1900 H   0  0  0  0  0  0  0  0  0  0  0  0
   38.9270   27.5160   43.1770 H   0  0  0  0  0  0  0  0  0  0  0  0
   37.6600   27.8170   44.4560 H   0  0  0  0  0  0  0  0  0  0  0  0
   37.3170   25.8380   42.9580 H   0  0  0  0  0  0  0  0  0  0  0  0
   35.9140   26.9140   43.0690 H   0  0  0  0  0  0  0  0  0  0  0  0
   36.1880   26.2870   40.8260 H   0  0  0  0  0  0  0  0  0  0  0  0
   37.9440   26.8230   40.8250 H   0  0  0  0  0  0  0  0  0  0  0  0
   35.5820   28.5140   41.5850 H   0  0  0  0  0  0  0  0  0  0  0  0
   36.0950   28.4830   39.4860 C   0  0  0  0  0  0  0  0  0  0  0  0
   34.7920   28.8380   39.1050 C   0  0  0  0  0  0  0  0  0  0  0  0
   34.0570   29.0200   39.8890 H   0  0  0  0  0  0  0  0  0  0  0  0
   34.3440   28.9830   37.8090 C   0  0  0  0  0  3  0  0  0  0  0  0
   35.2310   28.7670   36.7830 C   0  0  0  0  0  3  0  0  0  0  0  0
   36.5170   28.4170   37.0650 C   0  0  0  0  0  0  0  0  0  0  0  0
   37.4080   28.1960   36.0330 C   0  0  0  0  0  3  0  0  0  0  0  0
   38.7260   27.8350   36.2810 C   0  0  0  0  0  3  0  0  0  0  0  0
   39.1080   27.7070   37.6200 C   0  0  0  0  0  3  0  0  0  0  0  0
   38.2030   27.9330   38.6100 C   0  0  0  0  0  3  0  0  0  0  0  0
   36.9030   28.2880   38.3830 C   0  0  0  0  0  0  0  0  0  0  0  0
   37.4330   30.7150   40.9680 C   0  0  0  0  0  0  0  0  0  0  0  0
   36.2770   31.1310   41.2440 O   0  0  0  0  0  0  0  0  0  0  0  0
   39.4470   32.1900   38.3570 C   0  0  0  0  0  0  0  0  0  0  0  0
   40.4240   32.9170   39.0590 C   0  0  0  0  0  0  0  0  0  0  0  0
   40.3840   32.9060   40.4480 C   0  0  0  0  0  0  0  0  0  0  0  0
   39.3860   32.1840   41.0040 N   0  0  0  0  0  0  0  0  0  0  0  0
   38.4680   31.5000   40.3540 C   0  0  0  0  0  0  0  0  0  0  0  0
   38.4840   31.4920   38.9960 N   0  0  0  0  0  0  0  0  0  0  0  0
   39.4700   32.1860   36.9330 N   0  0  0  0  0  0  0  0  0  0  0  0
   41.2010   33.4790   38.5430 H   0  0  0  0  0  0  0  0  0  0  0  0
   41.1010   33.4420   41.0310 H   0  0  0  0  0  0  0  0  0  0  0  0
   40.4140   32.0230   36.4870 H   0  0  0  0  0  0  0  0  0  0  0  0
   38.6490   32.3260   36.3280 H   0  0  0  0  0  0  0  0  0  0  0  0
  1  7  1  6  0  0  0
  1  2  1  0  0  0  0
  2  9  1  0  0  0  0
  2  8  1  0  0  0  0
  2  3  1  0  0  0  0
  3 11  1  0  0  0  0
  4 12  1  0  0  0  0
  4 13  1  0  0  0  0
  4  3  1  0  0  0  0
  5  4  1  0  0  0  0
  6  5  1  0  0  0  0
  6  1  1  0  0  0  0
  6 16  1  1  0  0  0
 10  3  1  0  0  0  0
 14  5  1  0  0  0  0
 15  5  1  0  0  0  0
 17  6  1  0  0  0  0
 18 17  1  0  0  0  0
 18 19  1  0  0  0  0
 20 18  2  0  0  0  0
 21 22  2  0  0  0  0
 21 20  1  0  0  0  0
 22 27  1  0  0  0  0
 23 24  2  0  0  0  0
 23 22  1  0  0  0  0
 24 25  1  0  0  0  0
 25 26  2  0  0  0  0
 27 26  1  0  0  0  0
 27 17  2  0  0  0  0
 28 29  2  0  0  0  0
 28  1  1  0  0  0  0
 30 35  2  0  0  0  0
 30 31  1  0  0  0  0
 31 32  2  0  0  0  0
 32 33  1  0  0  0  0
 32 38  1  0  0  0  0
 34 28  1  0  0  0  0
 34 33  2  0  0  0  0
 35 34  1  0  0  0  0
 36 30  1  0  0  0  0
 37 31  1  0  0  0  0
 39 36  1  0  0  0  0
 40 36  1  0  0  0  0
M  END
>  <minimizedAffinity>
-6.71186399

$$$$

 OpenBabel03242512323D

 40 43  0  0  1  0  0  0  0  0999 V2000
   37.7780   29.2340   41.3520 C   0  0  1  0  0  0  0  0  0  0  0  0
   37.4040   29.1300   42.8370 C   0  0  0  0  0  0  0  0  0  0  0  0
   37.7350   27.7630   43.3510 C   0  0  0  0  0  0  0  0  0  0  0  0
   37.1040   26.7220   42.4980 C   0  0  0  0  0  0  0  0  0  0  0  0
   37.4320   26.8720   41.0540 C   0  0  0  0  0  0  0  0  0  0  0  0
   36.8900   28.2580   40.6060 C   0  0  2  0  0  0  0  0  0  0  0  0
   38.8100   28.9850   41.1200 H   0  0  0  0  0  0  0  0  0  0  0  0
   37.8330   29.9500   43.4300 H   0  0  0  0  0  0  0  0  0  0  0  0
   36.2880   29.2160   42.8620 H   0  0  0  0  0  0  0  0  0  0  0  0
   38.8140   27.5630   43.4340 H   0  0  0  0  0  0  0  0  0  0  0  0
   37.2490   27.6870   44.3640 H   0  0  0  0  0  0  0  0  0  0  0  0
   37.5070   25.7240   42.8280 H   0  0  0  0  0  0  0  0  0  0  0  0
   36.0060   26.6360   42.5930 H   0  0  0  0  0  0  0  0  0  0  0  0
   36.8870   26.1050   40.4860 H   0  0  0  0  0  0  0  0  0  0  0  0
   38.5180   26.8310   40.9140 H   0  0  0  0  0  0  0  0  0  0  0  0
   35.8650   28.2300   41.0720 H   0  0  0  0  0  0  0  0  0  0  0  0
   36.8730   28.3140   39.1620 C   0  0  0  0  0  0  0  0  0  0  0  0
   38.0410   28.0520   38.4290 C   0  0  0  0  0  0  0  0  0  0  0  0
   38.9610   27.8560   38.9780 H   0  0  0  0  0  0  0  0  0  0  0  0
   38.1350   28.0180   37.0530 C   0  0  0  0  0  3  0  0  0  0  0  0
   37.0020   28.2570   36.3150 C   0  0  0  0  0  3  0  0  0  0  0  0
   35.8270   28.5210   36.9480 C   0  0  0  0  0  0  0  0  0  0  0  0
   34.6880   28.7650   36.2050 C   0  0  0  0  0  3  0  0  0  0  0  0
   33.4710   29.0410   36.8150 C   0  0  0  0  0  3  0  0  0  0  0  0
   33.4520   29.0590   38.2130 C   0  0  0  0  0  3  0  0  0  0  0  0
   34.5930   28.8140   38.9130 C   0  0  0  0  0  3  0  0  0  0  0  0
   35.7980   28.5410   38.3280 C   0  0  0  0  0  0  0  0  0  0  0  0
   37.5470   30.6380   40.9270 C   0  0  0  0  0  0  0  0  0  0  0  0
   36.3580   30.9920   41.1410 O   0  0  0  0  0  0  0  0  0  0  0  0
   39.5640   32.2290   38.3870 C   0  0  0  0  0  0  0  0  0  0  0  0
   40.4960   32.9820   39.1240 C   0  0  0  0  0  0  0  0  0  0  0  0
   40.4230   32.9480   40.5110 C   0  0  0  0  0  0  0  0  0  0  0  0
   39.4410   32.1790   41.0320 N   0  0  0  0  0  0  0  0  0  0  0  0
   38.5660   31.4710   40.3490 C   0  0  0  0  0  0  0  0  0  0  0  0
   38.6140   31.4860   38.9920 N   0  0  0  0  0  0  0  0  0  0  0  0
   39.6220   32.2490   36.9640 N   0  0  0  0  0  0  0  0  0  0  0  0
   41.2620   33.5820   38.6350 H   0  0  0  0  0  0  0  0  0  0  0  0
   41.1040   33.5010   41.1190 H   0  0  0  0  0  0  0  0  0  0  0  0
   40.5820   32.1300   36.5400 H   0  0  0  0  0  0  0  0  0  0  0  0
   38.8100   32.3670   36.3420 H   0  0  0  0  0  0  0  0  0  0  0  0
  1  7  1  6  0  0  0
  1  2  1  0  0  0  0
  2  9  1  0  0  0  0
  2  3  1  0  0  0  0
  2  8  1  0  0  0  0
  3 10  1  0  0  0  0
  3 11  1  0  0  0  0
  4 13  1  0  0  0  0
  4 12  1  0  0  0  0
  4  3  1  0  0  0  0
  5  4  1  0  0  0  0
  6  5  1  0  0  0  0
  6 16  1  1  0  0  0
  6  1  1  0  0  0  0
 14  5  1  0  0  0  0
 15  5  1  0  0  0  0
 17  6  1  0  0  0  0
 18 19  1  0  0  0  0
 18 17  1  0  0  0  0
 20 18  2  0  0  0  0
 21 22  2  0  0  0  0
 21 20  1  0  0  0  0
 22 27  1  0  0  0  0
 23 24  2  0  0  0  0
 23 22  1  0  0  0  0
 24 25  1  0  0  0  0
 25 26  2  0  0  0  0
 27 26  1  0  0  0  0
 27 17  2  0  0  0  0
 28 29  2  0  0  0  0
 28  1  1  0  0  0  0
 30 35  2  0  0  0  0
 30 31  1  0  0  0  0
 31 32  2  0  0  0  0
 32 33  1  0  0  0  0
 32 38  1  0  0  0  0
 34 28  1  0  0  0  0
 34 33  2  0  0  0  0
 35 34  1  0  0  0  0
 36 30  1  0  0  0  0
 37 31  1  0  0  0  0
 39 36  1  0  0  0  0
 40 36  1  0  0  0  0
M  END
>  <minimizedAffinity>
-6.54036188

$$$$

 OpenBabel03242512323D

 40 43  0  0  1  0  0  0  0  0999 V2000
   36.4460   29.8250   39.3650 C   0  0  1  0  0  0  0  0  0  0  0  0
   36.4870   30.0840   37.8530 C   0  0  0  0  0  0  0  0  0  0  0  0
   35.7970   28.9710   37.1270 C   0  0  0  0  0  0  0  0  0  0  0  0
   36.3700   27.6590   37.5260 C   0  0  0  0  0  0  0  0  0  0  0  0
   36.3740   27.4480   39.0000 C   0  0  0  0  0  0  0  0  0  0  0  0
   37.2570   28.5690   39.6170 C   0  0  2  0  0  0  0  0  0  0  0  0
   35.4540   29.6640   39.7780 H   0  0  0  0  0  0  0  0  0  0  0  0
   36.1170   31.0860   37.5960 H   0  0  0  0  0  0  0  0  0  0  0  0
   37.5690   30.0210   37.5770 H   0  0  0  0  0  0  0  0  0  0  0  0
   34.7060   28.9520   37.2650 H   0  0  0  0  0  0  0  0  0  0  0  0
   36.0460   29.1120   36.0370 H   0  0  0  0  0  0  0  0  0  0  0  0
   35.7200   26.8560   37.0780 H   0  0  0  0  0  0  0  0  0  0  0  0
   37.3880   27.4520   37.1470 H   0  0  0  0  0  0  0  0  0  0  0  0
   36.8610   26.4860   39.2180 H   0  0  0  0  0  0  0  0  0  0  0  0
   35.3520   27.5190   39.3880 H   0  0  0  0  0  0  0  0  0  0  0  0
   38.1410   28.5300   38.9210 H   0  0  0  0  0  0  0  0  0  0  0  0
   37.5730   28.2200   40.9830 C   0  0  0  0  0  0  0  0  0  0  0  0
   36.5480   27.9580   41.9040 C   0  0  0  0  0  0  0  0  0  0  0  0
   35.5160   28.0710   41.5730 H   0  0  0  0  0  0  0  0  0  0  0  0
   36.7250   27.5610   43.2130 C   0  0  0  0  0  3  0  0  0  0  0  0
   38.0060   27.4030   43.6800 C   0  0  0  0  0  3  0  0  0  0  0  0
   39.0610   27.6380   42.8510 C   0  0  0  0  0  0  0  0  0  0  0  0
   40.3500   27.4820   43.3220 C   0  0  0  0  0  3  0  0  0  0  0  0
   41.4510   27.7160   42.5080 C   0  0  0  0  0  3  0  0  0  0  0  0
   41.1930   28.1150   41.1920 C   0  0  0  0  0  3  0  0  0  0  0  0
   39.9100   28.2590   40.7630 C   0  0  0  0  0  3  0  0  0  0  0  0
   38.8170   28.0330   41.5520 C   0  0  0  0  0  0  0  0  0  0  0  0
   37.0290   31.0110   40.0420 C   0  0  0  0  0  0  0  0  0  0  0  0
   36.2070   31.5310   40.8410 O   0  0  0  0  0  0  0  0  0  0  0  0
   39.9170   32.1770   38.2120 C   0  0  0  0  0  0  0  0  0  0  0  0
   40.8940   32.3540   39.2080 C   0  0  0  0  0  0  0  0  0  0  0  0
   40.5510   32.0770   40.5260 C   0  0  0  0  0  0  0  0  0  0  0  0
   39.2840   31.6560   40.7300 N   0  0  0  0  0  0  0  0  0  0  0  0
   38.3640   31.4870   39.8030 C   0  0  0  0  0  0  0  0  0  0  0  0
   38.6710   31.7500   38.5070 N   0  0  0  0  0  0  0  0  0  0  0  0
   40.2480   32.4540   36.8550 N   0  0  0  0  0  0  0  0  0  0  0  0
   41.8990   32.6980   38.9700 H   0  0  0  0  0  0  0  0  0  0  0  0
   41.2540   32.1950   41.3220 H   0  0  0  0  0  0  0  0  0  0  0  0
   41.1690   32.0630   36.5150 H   0  0  0  0  0  0  0  0  0  0  0  0
   39.6630   32.9940   36.2030 H   0  0  0  0  0  0  0  0  0  0  0  0
  1  6  1  0  0  0  0
  1  7  1  1  0  0  0
  1 28  1  0  0  0  0
  2  1  1  0  0  0  0
  3 10  1  0  0  0  0
  3  4  1  0  0  0  0
  3  2  1  0  0  0  0
  4  5  1  0  0  0  0
  5 14  1  0  0  0  0
  5 15  1  0  0  0  0
  5  6  1  0  0  0  0
  6 16  1  6  0  0  0
  6 17  1  0  0  0  0
  8  2  1  0  0  0  0
  9  2  1  0  0  0  0
 11  3  1  0  0  0  0
 12  4  1  0  0  0  0
 13  4  1  0  0  0  0
 17 27  2  0  0  0  0
 17 18  1  0  0  0  0
 18 20  2  0  0  0  0
 19 18  1  0  0  0  0
 20 21  1  0  0  0  0
 22 23  1  0  0  0  0
 22 21  2  0  0  0  0
 24 23  2  0  0  0  0
 25 24  1  0  0  0  0
 26 25  2  0  0  0  0
 26 27  1  0  0  0  0
 27 22  1  0  0  0  0
 28 29  2  0  0  0  0
 30 35  2  0  0  0  0
 30 31  1  0  0  0  0
 31 32  2  0  0  0  0
 32 33  1  0  0  0  0
 32 38  1  0  0  0  0
 34 28  1  0  0  0  0
 34 33  2  0  0  0  0
 35 34  1  0  0  0  0
 36 30  1  0  0  0  0
 37 31  1  0  0  0  0
 39 36  1  0  0  0  0
 40 36  1  0  0  0  0
M  END
>  <minimizedAffinity>
-6.50446177

$$$$

 OpenBabel03242512323D

 40 43  0  0  1  0  0  0  0  0999 V2000
   36.2880   29.3520   37.6460 C   0  0  1  0  0  0  0  0  0  0  0  0
   35.9550   29.2390   36.1520 C   0  0  0  0  0  0  0  0  0  0  0  0
   34.4710   29.1720   35.9640 C   0  0  0  0  0  0  0  0  0  0  0  0
   33.8930   28.0810   36.7930 C   0  0  0  0  0  0  0  0  0  0  0  0
   34.2720   28.1750   38.2290 C   0  0  0  0  0  0  0  0  0  0  0  0
   35.8210   28.0660   38.2980 C   0  0  2  0  0  0  0  0  0  0  0  0
   35.8050   30.1770   38.1630 H   0  0  0  0  0  0  0  0  0  0  0  0
   36.4490   30.0210   35.5590 H   0  0  0  0  0  0  0  0  0  0  0  0
   36.3600   28.2430   35.8400 H   0  0  0  0  0  0  0  0  0  0  0  0
   33.9470   30.1140   36.1830 H   0  0  0  0  0  0  0  0  0  0  0  0
   34.3080   28.8790   34.8880 H   0  0  0  0  0  0  0  0  0  0  0  0
   32.7720   28.1730   36.7380 H   0  0  0  0  0  0  0  0  0  0  0  0
   34.1160   27.0550   36.4450 H   0  0  0  0  0  0  0  0  0  0  0  0
   33.8560   27.3080   38.7620 H   0  0  0  0  0  0  0  0  0  0  0  0
   33.9450   29.1370   38.6370 H   0  0  0  0  0  0  0  0  0  0  0  0
   35.9890   27.1940   37.6050 H   0  0  0  0  0  0  0  0  0  0  0  0
   36.2140   27.8090   39.6650 C   0  0  0  0  0  0  0  0  0  0  0  0
   36.1160   28.8200   40.6340 C   0  0  0  0  0  0  0  0  0  0  0  0
   35.7830   29.8080   40.3160 H   0  0  0  0  0  0  0  0  0  0  0  0
   36.4040   28.6790   41.9750 C   0  0  0  0  0  3  0  0  0  0  0  0
   36.8270   27.4540   42.4270 C   0  0  0  0  0  3  0  0  0  0  0  0
   36.9510   26.4180   41.5520 C   0  0  0  0  0  0  0  0  0  0  0  0
   37.3800   25.1850   42.0060 C   0  0  0  0  0  3  0  0  0  0  0  0
   37.5220   24.1060   41.1440 C   0  0  0  0  0  3  0  0  0  0  0  0
   37.2110   24.3240   39.7980 C   0  0  0  0  0  3  0  0  0  0  0  0
   36.7920   25.5510   39.3860 C   0  0  0  0  0  3  0  0  0  0  0  0
   36.6470   26.6230   40.2220 C   0  0  0  0  0  0  0  0  0  0  0  0
   37.7550   29.5410   37.7680 C   0  0  0  0  0  0  0  0  0  0  0  0
   38.3850   28.5720   37.2680 O   0  0  0  0  0  0  0  0  0  0  0  0
   38.0080   32.7670   39.3750 C   0  0  0  0  0  0  0  0  0  0  0  0
   39.3930   32.9600   39.5200 C   0  0  0  0  0  0  0  0  0  0  0  0
   40.2490   31.9640   39.0680 C   0  0  0  0  0  0  0  0  0  0  0  0
   39.6570   30.8800   38.5200 N   0  0  0  0  0  0  0  0  0  0  0  0
   38.3610   30.6910   38.3800 C   0  0  0  0  0  0  0  0  0  0  0  0
   37.5010   31.6490   38.8130 N   0  0  0  0  0  0  0  0  0  0  0  0
   37.1120   33.7750   39.8310 N   0  0  0  0  0  0  0  0  0  0  0  0
   39.8010   33.8620   39.9730 H   0  0  0  0  0  0  0  0  0  0  0  0
   41.3100   32.0580   39.1540 H   0  0  0  0  0  0  0  0  0  0  0  0
   37.3570   34.7670   39.5600 H   0  0  0  0  0  0  0  0  0  0  0  0
   36.2650   33.6040   40.3900 H   0  0  0  0  0  0  0  0  0  0  0  0
  1 28  1  0  0  0  0
  1  7  1  1  0  0  0
  1  6  1  0  0  0  0
  2  1  1  0  0  0  0
  3  2  1  0  0  0  0
  3 10  1  0  0  0  0
  3  4  1  0  0  0  0
  4  5  1  0  0  0  0
  5  6  1  0  0  0  0
  5 15  1  0  0  0  0
  5 14  1  0  0  0  0
  6 16  1  6  0  0  0
  6 17  1  0  0  0  0
  8  2  1  0  0  0  0
  9  2  1  0  0  0  0
 11  3  1  0  0  0  0
 12  4  1  0  0  0  0
 13  4  1  0  0  0  0
 17 27  2  0  0  0  0
 17 18  1  0  0  0  0
 18 20  2  0  0  0  0
 19 18  1  0  0  0  0
 20 21  1  0  0  0  0
 22 23  1  0  0  0  0
 22 21  2  0  0  0  0
 24 23  2  0  0  0  0
 25 24  1  0  0  0  0
 26 25  2  0  0  0  0
 26 27  1  0  0  0  0
 27 22  1  0  0  0  0
 28 34  1  0  0  0  0
 29 28  2  0  0  0  0
 30 31  1  0  0  0  0
 30 36  1  0  0  0  0
 31 37  1  0  0  0  0
 32 38  1  0  0  0  0
 32 31  2  0  0  0  0
 33 32  1  0  0  0  0
 34 33  2  0  0  0  0
 34 35  1  0  0  0  0
 35 30  2  0  0  0  0
 36 40  1  0  0  0  0
 39 36  1  0  0  0  0
M  END
>  <minimizedAffinity>
-6.34034395

$$$$

 OpenBabel03242512323D

 40 43  0  0  1  0  0  0  0  0999 V2000
   35.9310   28.7490   38.9880 C   0  0  1  0  0  0  0  0  0  0  0  0
   34.4800   28.6230   38.5040 C   0  0  0  0  0  0  0  0  0  0  0  0
   34.4570   28.1390   37.0870 C   0  0  0  0  0  0  0  0  0  0  0  0
   35.3030   29.0080   36.2280 C   0  0  0  0  0  0  0  0  0  0  0  0
   36.6910   29.1640   36.7430 C   0  0  0  0  0  0  0  0  0  0  0  0
   36.5840   29.8270   38.1450 C   0  0  2  0  0  0  0  0  0  0  0  0
   36.5290   27.8470   38.8890 H   0  0  0  0  0  0  0  0  0  0  0  0
   33.8650   28.0290   39.1930 H   0  0  0  0  0  0  0  0  0  0  0  0
   34.0880   29.6720   38.4870 H   0  0  0  0  0  0  0  0  0  0  0  0
   34.7670   27.0900   36.9650 H   0  0  0  0  0  0  0  0  0  0  0  0
   33.3950   28.2720   36.7320 H   0  0  0  0  0  0  0  0  0  0  0  0
   35.3770   28.5160   35.2180 H   0  0  0  0  0  0  0  0  0  0  0  0
   34.8950   30.0160   36.0290 H   0  0  0  0  0  0  0  0  0  0  0  0
   37.2350   29.8610   36.0890 H   0  0  0  0  0  0  0  0  0  0  0  0
   37.1680   28.1820   36.8280 H   0  0  0  0  0  0  0  0  0  0  0  0
   35.8440   30.6460   37.9200 H   0  0  0  0  0  0  0  0  0  0  0  0
   37.8870   30.3090   38.5390 C   0  0  0  0  0  0  0  0  0  0  0  0
   39.0210   29.4960   38.3840 C   0  0  0  0  0  0  0  0  0  0  0  0
   38.8820   28.4830   38.0070 H   0  0  0  0  0  0  0  0  0  0  0  0
   40.3190   29.8650   38.6680 C   0  0  0  0  0  3  0  0  0  0  0  0
   40.5490   31.1320   39.1450 C   0  0  0  0  0  3  0  0  0  0  0  0
   39.5030   31.9850   39.3260 C   0  0  0  0  0  0  0  0  0  0  0  0
   39.7350   33.2590   39.8090 C   0  0  0  0  0  3  0  0  0  0  0  0
   38.6940   34.1560   40.0100 C   0  0  0  0  0  3  0  0  0  0  0  0
   37.4050   33.7120   39.7000 C   0  0  0  0  0  3  0  0  0  0  0  0
   37.2150   32.4510   39.2260 C   0  0  0  0  0  3  0  0  0  0  0  0
   38.2280   31.5560   39.0230 C   0  0  0  0  0  0  0  0  0  0  0  0
   35.8960   29.1100   40.4270 C   0  0  0  0  0  0  0  0  0  0  0  0
   35.0630   30.0270   40.6500 O   0  0  0  0  0  0  0  0  0  0  0  0
   37.5890   26.4760   42.2300 C   0  0  0  0  0  0  0  0  0  0  0  0
   38.2100   27.1470   43.2970 C   0  0  0  0  0  0  0  0  0  0  0  0
   38.0520   28.5250   43.3920 C   0  0  0  0  0  0  0  0  0  0  0  0
   37.3010   29.1000   42.4280 N   0  0  0  0  0  0  0  0  0  0  0  0
   36.7150   28.4790   41.4260 C   0  0  0  0  0  0  0  0  0  0  0  0
   36.8530   27.1330   41.3090 N   0  0  0  0  0  0  0  0  0  0  0  0
   37.7370   25.0640   42.1130 N   0  0  0  0  0  0  0  0  0  0  0  0
   38.8040   26.6170   44.0400 H   0  0  0  0  0  0  0  0  0  0  0  0
   38.5030   29.0850   44.1820 H   0  0  0  0  0  0  0  0  0  0  0  0
   37.5990   24.5110   43.0030 H   0  0  0  0  0  0  0  0  0  0  0  0
   37.9630   24.5640   41.2430 H   0  0  0  0  0  0  0  0  0  0  0  0
  1  7  1  6  0  0  0
  1 28  1  0  0  0  0
  2  1  1  0  0  0  0
  2  8  1  0  0  0  0
  3  2  1  0  0  0  0
  4  5  1  0  0  0  0
  4  3  1  0  0  0  0
  5 15  1  0  0  0  0
  5  6  1  0  0  0  0
  6 16  1  6  0  0  0
  6 17  1  0  0  0  0
  6  1  1  0  0  0  0
  9  2  1  0  0  0  0
 10  3  1  0  0  0  0
 11  3  1  0  0  0  0
 12  4  1  0  0  0  0
 13  4  1  0  0  0  0
 14  5  1  0  0  0  0
 17 27  1  0  0  0  0
 18 17  2  0  0  0  0
 18 20  1  0  0  0  0
 19 18  1  0  0  0  0
 20 21  2  0  0  0  0
 21 22  1  0  0  0  0
 22 23  1  0  0  0  0
 23 24  2  0  0  0  0
 25 24  1  0  0  0  0
 26 25  2  0  0  0  0
 27 26  1  0  0  0  0
 27 22  2  0  0  0  0
 28 29  2  0  0  0  0
 28 34  1  0  0  0  0
 30 31  1  0  0  0  0
 31 32  2  0  0  0  0
 31 37  1  0  0  0  0
 32 38  1  0  0  0  0
 33 32  1  0  0  0  0
 34 33  2  0  0  0  0
 35 34  1  0  0  0  0
 35 30  2  0  0  0  0
 36 30  1  0  0  0  0
 36 39  1  0  0  0  0
 40 36  1  0  0  0  0
M  END
>  <minimizedAffinity>
-6.22498322

$$$$

 OpenBabel03242512323D

 40 43  0  0  1  0  0  0  0  0999 V2000
   38.4180   28.2750   41.2390 C   0  0  1  0  0  0  0  0  0  0  0  0
   38.3240   29.1170   42.5200 C   0  0  0  0  0  0  0  0  0  0  0  0
   37.9660   28.2400   43.6790 C   0  0  0  0  0  0  0  0  0  0  0  0
   36.7360   27.4610   43.3810 C   0  0  0  0  0  0  0  0  0  0  0  0
   36.8240   26.6950   42.1070 C   0  0  0  0  0  0  0  0  0  0  0  0
   37.0290   27.7320   40.9670 C   0  0  2  0  0  0  0  0  0  0  0  0
   39.0970   27.4280   41.2950 H   0  0  0  0  0  0  0  0  0  0  0  0
   39.2220   29.7290   42.6780 H   0  0  0  0  0  0  0  0  0  0  0  0
   37.4510   29.7970   42.3550 H   0  0  0  0  0  0  0  0  0  0  0  0
   38.7680   27.5530   43.9880 H   0  0  0  0  0  0  0  0  0  0  0  0
   37.7080   28.9380   44.5260 H   0  0  0  0  0  0  0  0  0  0  0  0
   36.6010   26.7120   44.2100 H   0  0  0  0  0  0  0  0  0  0  0  0
   35.7980   28.0470   43.3650 H   0  0  0  0  0  0  0  0  0  0  0  0
   35.8620   26.1940   41.9290 H   0  0  0  0  0  0  0  0  0  0  0  0
   37.6750   26.0080   42.1460 H   0  0  0  0  0  0  0  0  0  0  0  0
   36.2510   28.4950   41.2510 H   0  0  0  0  0  0  0  0  0  0  0  0
   36.7820   27.0900   39.6970 C   0  0  0  0  0  0  0  0  0  0  0  0
   37.5040   25.9450   39.3280 C   0  0  0  0  0  0  0  0  0  0  0  0
   38.2840   25.5880   40.0010 H   0  0  0  0  0  0  0  0  0  0  0  0
   37.3180   25.2140   38.1730 C   0  0  0  0  0  3  0  0  0  0  0  0
   36.3470   25.6220   37.2920 C   0  0  0  0  0  3  0  0  0  0  0  0
   35.6010   26.7250   37.5730 C   0  0  0  0  0  0  0  0  0  0  0  0
   34.6260   27.1370   36.6840 C   0  0  0  0  0  3  0  0  0  0  0  0
   33.8460   28.2590   36.9340 C   0  0  0  0  0  3  0  0  0  0  0  0
   34.0920   28.9490   38.1250 C   0  0  0  0  0  3  0  0  0  0  0  0
   35.0600   28.5140   38.9770 C   0  0  0  0  0  3  0  0  0  0  0  0
   35.8360   27.4130   38.7450 C   0  0  0  0  0  0  0  0  0  0  0  0
   38.8950   29.1640   40.1500 C   0  0  0  0  0  0  0  0  0  0  0  0
   39.6650   28.5520   39.3640 O   0  0  0  0  0  0  0  0  0  0  0  0
   39.0710   32.7570   40.4750 C   0  0  0  0  0  0  0  0  0  0  0  0
   37.8730   33.2050   39.8920 C   0  0  0  0  0  0  0  0  0  0  0  0
   36.9980   32.2580   39.3720 C   0  0  0  0  0  0  0  0  0  0  0  0
   37.3910   30.9700   39.4780 N   0  0  0  0  0  0  0  0  0  0  0  0
   38.5110   30.5430   40.0230 C   0  0  0  0  0  0  0  0  0  0  0  0
   39.3840   31.4460   40.5400 N   0  0  0  0  0  0  0  0  0  0  0  0
   39.9810   33.7100   41.0150 N   0  0  0  0  0  0  0  0  0  0  0  0
   37.6200   34.2630   39.8400 H   0  0  0  0  0  0  0  0  0  0  0  0
   36.0740   32.5430   38.9170 H   0  0  0  0  0  0  0  0  0  0  0  0
   39.5560   34.4620   41.6230 H   0  0  0  0  0  0  0  0  0  0  0  0
   40.9980   33.7120   40.8560 H   0  0  0  0  0  0  0  0  0  0  0  0
  1  7  1  1  0  0  0
  1  2  1  0  0  0  0
  2  8  1  0  0  0  0
  2  3  1  0  0  0  0
  3 10  1  0  0  0  0
  3 11  1  0  0  0  0
  4  3  1  0  0  0  0
  4 12  1  0  0  0  0
  5 15  1  0  0  0  0
  5  4  1  0  0  0  0
  6  1  1  0  0  0  0
  6 16  1  1  0  0  0
  6  5  1  0  0  0  0
  9  2  1  0  0  0  0
 13  4  1  0  0  0  0
 14  5  1  0  0  0  0
 17  6  1  0  0  0  0
 18 17  1  0  0  0  0
 18 19  1  0  0  0  0
 20 18  2  0  0  0  0
 21 22  2  0  0  0  0
 21 20  1  0  0  0  0
 22 27  1  0  0  0  0
 23 24  2  0  0  0  0
 23 22  1  0  0  0  0
 24 25  1  0  0  0  0
 25 26  2  0  0  0  0
 27 26  1  0  0  0  0
 27 17  2  0  0  0  0
 28  1  1  0  0  0  0
 29 28  2  0  0  0  0
 30 35  1  0  0  0  0
 30 36  1  0  0  0  0
 31 30  2  0  0  0  0
 32 33  2  0  0  0  0
 32 31  1  0  0  0  0
 33 34  1  0  0  0  0
 34 28  1  0  0  0  0
 34 35  2  0  0  0  0
 36 39  1  0  0  0  0
 37 31  1  0  0  0  0
 38 32  1  0  0  0  0
 40 36  1  0  0  0  0
M  END
>  <minimizedAffinity>
-6.13890076

$$$$

 OpenBabel03242512323D

 40 43  0  0  1  0  0  0  0  0999 V2000
   36.7610   29.9990   39.3910 C   0  0  1  0  0  0  0  0  0  0  0  0
   36.9980   30.3840   37.9230 C   0  0  0  0  0  0  0  0  0  0  0  0
   36.4480   29.3220   37.0230 C   0  0  0  0  0  0  0  0  0  0  0  0
   37.0000   27.9920   37.3920 C   0  0  0  0  0  0  0  0  0  0  0  0
   36.8110   27.6600   38.8310 C   0  0  0  0  0  0  0  0  0  0  0  0
   37.5680   28.7430   39.6510 C   0  0  2  0  0  0  0  0  0  0  0  0
   35.7270   29.7860   39.6480 H   0  0  0  0  0  0  0  0  0  0  0  0
   36.6360   31.3970   37.6990 H   0  0  0  0  0  0  0  0  0  0  0  0
   38.1100   30.3640   37.7950 H   0  0  0  0  0  0  0  0  0  0  0  0
   35.3490   29.2700   37.0090 H   0  0  0  0  0  0  0  0  0  0  0  0
   36.8370   29.5570   35.9930 H   0  0  0  0  0  0  0  0  0  0  0  0
   36.4430   27.2170   36.7960 H   0  0  0  0  0  0  0  0  0  0  0  0
   38.0660   27.8380   37.1410 H   0  0  0  0  0  0  0  0  0  0  0  0
   37.2940   26.6930   39.0370 H   0  0  0  0  0  0  0  0  0  0  0  0
   35.7450   27.6790   39.0790 H   0  0  0  0  0  0  0  0  0  0  0  0
   38.5390   28.7790   39.0820 H   0  0  0  0  0  0  0  0  0  0  0  0
   37.7070   28.2890   41.0150 C   0  0  0  0  0  0  0  0  0  0  0  0
   36.5700   28.0100   41.7900 C   0  0  0  0  0  0  0  0  0  0  0  0
   35.5900   28.1910   41.3500 H   0  0  0  0  0  0  0  0  0  0  0  0
   36.5770   27.5170   43.0780 C   0  0  0  0  0  3  0  0  0  0  0  0
   37.7870   27.2710   43.6770 C   0  0  0  0  0  3  0  0  0  0  0  0
   38.9400   27.5160   42.9960 C   0  0  0  0  0  0  0  0  0  0  0  0
   40.1580   27.2710   43.6000 C   0  0  0  0  0  3  0  0  0  0  0  0
   41.3550   27.5110   42.9390 C   0  0  0  0  0  3  0  0  0  0  0  0
   41.2710   28.0090   41.6350 C   0  0  0  0  0  3  0  0  0  0  0  0
   40.0540   28.2390   41.0710 C   0  0  0  0  0  3  0  0  0  0  0  0
   38.8670   28.0080   41.7090 C   0  0  0  0  0  0  0  0  0  0  0  0
   37.2100   31.1360   40.2330 C   0  0  0  0  0  0  0  0  0  0  0  0
   36.2950   31.5220   41.0070 O   0  0  0  0  0  0  0  0  0  0  0  0
   40.5510   32.0510   41.2580 C   0  0  0  0  0  0  0  0  0  0  0  0
   41.0430   32.7940   40.1700 C   0  0  0  0  0  0  0  0  0  0  0  0
   40.2170   32.9750   39.0670 C   0  0  0  0  0  0  0  0  0  0  0  0
   38.9940   32.4060   39.1460 N   0  0  0  0  0  0  0  0  0  0  0  0
   38.5270   31.7090   40.1610 C   0  0  0  0  0  0  0  0  0  0  0  0
   39.3120   31.5170   41.2520 N   0  0  0  0  0  0  0  0  0  0  0  0
   41.3800   31.8550   42.3990 N   0  0  0  0  0  0  0  0  0  0  0  0
   42.0430   33.2250   40.1760 H   0  0  0  0  0  0  0  0  0  0  0  0
   40.5400   33.5300   38.2130 H   0  0  0  0  0  0  0  0  0  0  0  0
   41.8810   32.7130   42.7590 H   0  0  0  0  0  0  0  0  0  0  0  0
   41.5180   30.9560   42.8810 H   0  0  0  0  0  0  0  0  0  0  0  0
  1  7  1  1  0  0  0
  1  6  1  0  0  0  0
  1 28  1  0  0  0  0
  2  1  1  0  0  0  0
  3  4  1  0  0  0  0
  3  2  1  0  0  0  0
  4  5  1  0  0  0  0
  5 14  1  0  0  0  0
  5 15  1  0  0  0  0
  5  6  1  0  0  0  0
  6 16  1  6  0  0  0
  6 17  1  0  0  0  0
  8  2  1  0  0  0  0
  9  2  1  0  0  0  0
 10  3  1  0  0  0  0
 11  3  1  0  0  0  0
 12  4  1  0  0  0  0
 13  4  1  0  0  0  0
 17 27  2  0  0  0  0
 17 18  1  0  0  0  0
 18 20  2  0  0  0  0
 19 18  1  0  0  0  0
 20 21  1  0  0  0  0
 22 23  1  0  0  0  0
 22 21  2  0  0  0  0
 24 23  2  0  0  0  0
 25 24  1  0  0  0  0
 26 25  2  0  0  0  0
 26 27  1  0  0  0  0
 27 22  1  0  0  0  0
 28 29  2  0  0  0  0
 30 36  1  0  0  0  0
 31 37  1  0  0  0  0
 31 30  2  0  0  0  0
 32 33  2  0  0  0  0
 32 31  1  0  0  0  0
 33 34  1  0  0  0  0
 34 28  1  0  0  0  0
 34 35  2  0  0  0  0
 35 30  1  0  0  0  0
 36 39  1  0  0  0  0
 36 40  1  0  0  0  0
 38 32  1  0  0  0  0
M  END
>  <minimizedAffinity>
-6.09435797

$$$$

 OpenBabel03242512323D

 40 43  0  0  1  0  0  0  0  0999 V2000
   36.1620   28.8190   38.7700 C   0  0  1  0  0  0  0  0  0  0  0  0
   34.9690   28.2610   37.9820 C   0  0  0  0  0  0  0  0  0  0  0  0
   35.3550   28.0590   36.5490 C   0  0  0  0  0  0  0  0  0  0  0  0
   35.9150   29.3130   35.9820 C   0  0  0  0  0  0  0  0  0  0  0  0
   37.0350   29.8700   36.7890 C   0  0  0  0  0  0  0  0  0  0  0  0
   36.4630   30.1900   38.1980 C   0  0  2  0  0  0  0  0  0  0  0  0
   37.0730   28.2280   38.7040 H   0  0  0  0  0  0  0  0  0  0  0  0
   34.5380   27.3710   38.4610 H   0  0  0  0  0  0  0  0  0  0  0  0
   34.2060   29.0800   37.9930 H   0  0  0  0  0  0  0  0  0  0  0  0
   36.0650   27.2340   36.3870 H   0  0  0  0  0  0  0  0  0  0  0  0
   34.3940   27.8560   35.9960 H   0  0  0  0  0  0  0  0  0  0  0  0
   36.3300   29.0680   34.9640 H   0  0  0  0  0  0  0  0  0  0  0  0
   35.1820   30.1220   35.8070 H   0  0  0  0  0  0  0  0  0  0  0  0
   37.3560   30.8210   36.3390 H   0  0  0  0  0  0  0  0  0  0  0  0
   37.8380   29.1300   36.8700 H   0  0  0  0  0  0  0  0  0  0  0  0
   35.5060   30.7100   37.9110 H   0  0  0  0  0  0  0  0  0  0  0  0
   37.3970   31.0360   38.9050 C   0  0  0  0  0  0  0  0  0  0  0  0
   37.0060   32.3090   39.3500 C   0  0  0  0  0  0  0  0  0  0  0  0
   36.0010   32.6540   39.1050 H   0  0  0  0  0  0  0  0  0  0  0  0
   37.7860   33.1800   40.0810 C   0  0  0  0  0  3  0  0  0  0  0  0
   39.0590   32.7920   40.4160 C   0  0  0  0  0  3  0  0  0  0  0  0
   39.5190   31.5720   40.0230 C   0  0  0  0  0  0  0  0  0  0  0  0
   40.8020   31.1830   40.3570 C   0  0  0  0  0  3  0  0  0  0  0  0
   41.3080   29.9490   39.9720 C   0  0  0  0  0  3  0  0  0  0  0  0
   40.4590   29.1190   39.2320 C   0  0  0  0  0  3  0  0  0  0  0  0
   39.2010   29.5350   38.9210 C   0  0  0  0  0  3  0  0  0  0  0  0
   38.6900   30.7460   39.2920 C   0  0  0  0  0  0  0  0  0  0  0  0
   35.7680   28.8820   40.2000 C   0  0  0  0  0  0  0  0  0  0  0  0
   34.6010   29.3330   40.3330 O   0  0  0  0  0  0  0  0  0  0  0  0
   37.7050   26.6980   42.3280 C   0  0  0  0  0  0  0  0  0  0  0  0
   38.2080   27.5580   43.3200 C   0  0  0  0  0  0  0  0  0  0  0  0
   37.8830   28.9070   43.2500 C   0  0  0  0  0  0  0  0  0  0  0  0
   37.0990   29.2730   42.2120 N   0  0  0  0  0  0  0  0  0  0  0  0
   36.6250   28.4740   41.2790 C   0  0  0  0  0  0  0  0  0  0  0  0
   36.9260   27.1500   41.3230 N   0  0  0  0  0  0  0  0  0  0  0  0
   38.0250   25.3110   42.3800 N   0  0  0  0  0  0  0  0  0  0  0  0
   38.8370   27.1920   44.1300 H   0  0  0  0  0  0  0  0  0  0  0  0
   38.2380   29.6050   43.9770 H   0  0  0  0  0  0  0  0  0  0  0  0
   37.9250   24.8500   43.3260 H   0  0  0  0  0  0  0  0  0  0  0  0
   38.3370   24.7460   41.5780 H   0  0  0  0  0  0  0  0  0  0  0  0
  1  7  1  6  0  0  0
  1 28  1  0  0  0  0
  2  9  1  0  0  0  0
  2  8  1  0  0  0  0
  2  1  1  0  0  0  0
  3  2  1  0  0  0  0
  4  3  1  0  0  0  0
  4  5  1  0  0  0  0
  5 15  1  0  0  0  0
  5  6  1  0  0  0  0
  6 16  1  6  0  0  0
  6  1  1  0  0  0  0
  6 17  1  0  0  0  0
 10  3  1  0  0  0  0
 11  3  1  0  0  0  0
 12  4  1  0  0  0  0
 13  4  1  0  0  0  0
 14  5  1  0  0  0  0
 17 27  2  0  0  0  0
 17 18  1  0  0  0  0
 18 20  2  0  0  0  0
 19 18  1  0  0  0  0
 20 21  1  0  0  0  0
 22 23  1  0  0  0  0
 22 21  2  0  0  0  0
 24 23  2  0  0  0  0
 25 24  1  0  0  0  0
 26 25  2  0  0  0  0
 26 27  1  0  0  0  0
 27 22  1  0  0  0  0
 28 29  2  0  0  0  0
 28 34  1  0  0  0  0
 30 36  1  0  0  0  0
 30 31  1  0  0  0  0
 31 37  1  0  0  0  0
 32 31  2  0  0  0  0
 32 38  1  0  0  0  0
 33 32  1  0  0  0  0
 34 35  1  0  0  0  0
 34 33  2  0  0  0  0
 35 30  2  0  0  0  0
 36 39  1  0  0  0  0
 40 36  1  0  0  0  0
M  END
>  <minimizedAffinity>
-6.05340719

$$$$
