REMARK  Name = 
REMARK  3 active torsions:
REMARK  status: ('A' for Active; 'I' for Inactive)
REMARK    1  A    between atoms: C_1  and  C_9
REMARK    2  A    between atoms: C_6  and  C_14
REMARK    3  A    between atoms: C_8  and  C_25
REMARK                            x       y       z     vdW  Elec       q    Type
REMARK                         _______ _______ _______ _____ _____    ______ ____
ROOT
ATOM      1  C   UNL     1      44.429  36.227  44.797  0.00  0.00    +0.000 A 
ATOM      2  C   UNL     1      45.073  36.133  43.536  0.00  0.00    +0.000 A 
ATOM      3  C   UNL     1      45.870  35.030  43.318  0.00  0.00    +0.000 A 
ATOM      4  N   UNL     1      45.999  34.100  44.309  0.00  0.00    +0.000 NA
ATOM      5  C   UNL     1      45.367  34.230  45.499  0.00  0.00    +0.000 A 
ATOM      6  N   UNL     1      44.579  35.298  45.741  0.00  0.00    +0.000 NA
ATOM      7  N   UNL     1      45.522  33.262  46.526  0.00  0.00    +0.000 N 
ATOM      8  H   UNL     1      43.786  37.049  45.078  0.00  0.00    +0.000 HD
ATOM      9  H   UNL     1      46.470  33.505  46.893  0.00  0.00    +0.000 HD
ATOM     10  H   UNL     1      44.831  32.519  46.801  0.00  0.00    +0.000 HD
ENDROOT
BRANCH   2  11
ATOM     11  C   UNL     1      44.808  37.264  42.669  0.00  0.00    +0.000 A 
ATOM     12  C   UNL     1      44.463  37.079  41.336  0.00  0.00    +0.000 A 
ATOM     13  H   UNL     1      44.361  36.116  40.888  0.00  0.00    +0.000 HD
ATOM     14  C   UNL     1      44.222  38.105  40.455  0.00  0.00    +0.000 A 
ATOM     15  C   UNL     1      44.316  39.414  40.873  0.00  0.00    +0.000 A 
ATOM     16  C   UNL     1      44.655  39.666  42.186  0.00  0.00    +0.000 A 
ATOM     17  C   UNL     1      44.758  40.968  42.620  0.00  0.00    +0.000 A 
ATOM     18  C   UNL     1      45.096  41.262  43.912  0.00  0.00    +0.000 A 
ATOM     19  C   UNL     1      45.333  40.210  44.778  0.00  0.00    +0.000 A 
ATOM     20  C   UNL     1      45.220  38.919  44.308  0.00  0.00    +0.000 A 
ATOM     21  C   UNL     1      44.884  38.596  43.020  0.00  0.00    +0.000 A 
ENDBRANCH   2  11
BRANCH   3  22
ATOM     22  C   UNL     1      46.584  34.803  42.099  0.00  0.00    +0.000 A 
ATOM     23  C   UNL     1      47.920  35.219  42.040  0.00  0.00    +0.000 A 
ATOM     24  C   UNL     1      48.714  35.037  40.902  0.00  0.00    +0.000 A 
ATOM     25  C   UNL     1      48.177  34.433  39.799  0.00  0.00    +0.000 A 
ATOM     26  C   UNL     1      46.871  34.026  39.855  0.00  0.00    +0.000 A 
ATOM     27  C   UNL     1      46.078  34.203  40.982  0.00  0.00    +0.000 A 
ATOM     28  H   UNL     1      48.367  35.699  42.900  0.00  0.00    +0.000 HD
ATOM     29  H   UNL     1      49.749  35.386  40.927  0.00  0.00    +0.000 HD
ATOM     30  H   UNL     1      48.752  34.273  38.901  0.00  0.00    +0.000 HD
ATOM     31  H   UNL     1      46.414  33.538  38.985  0.00  0.00    +0.000 HD
BRANCH  27  32
ATOM     32  C   UNL     1      44.676  33.749  41.026  0.00  0.00    +0.000 C 
ATOM     33  F   UNL     1      44.467  32.895  39.946  0.00  0.00    +0.000 F 
ATOM     34  F   UNL     1      43.849  34.849  40.928  0.00  0.00    +0.000 F 
ATOM     35  F   UNL     1      44.317  33.098  42.179  0.00  0.00    +0.000 F 
ENDBRANCH  27  32
ENDBRANCH   3  22
TORSDOF 3
