
     RDKit          3D

 51 56  0  0  0  0  0  0  0  0999 V2000
   48.3319   30.9312   42.2464 C   0  0  1  0  0  0  0  0  0  0  0  0
   48.2269   32.4006   41.9062 C   0  0  0  0  0  0  0  0  0  0  0  0
   47.1185   31.3975   41.5951 C   0  0  2  0  0  0  0  0  0  0  0  0
   49.7870   28.7178   39.6368 C   0  0  0  0  0  0  0  0  0  0  0  0
   51.1085   28.5320   40.1384 C   0  0  0  0  0  0  0  0  0  0  0  0
   51.4644   29.1782   41.3515 C   0  0  0  0  0  0  0  0  0  0  0  0
   50.5614   29.9350   41.9845 N   0  0  0  0  0  0  0  0  0  0  0  0
   49.3080   30.0917   41.4781 C   0  0  0  0  0  0  0  0  0  0  0  0
   48.9166   29.4868   40.3070 N   0  0  0  0  0  0  0  0  0  0  0  0
   45.8637   31.5738   42.2713 N   0  0  0  0  0  0  0  0  0  0  0  0
   45.7846   32.2131   43.5180 C   0  0  0  0  0  0  0  0  0  0  0  0
   46.1511   31.5173   44.6664 C   0  0  0  0  0  0  0  0  0  0  0  0
   46.1132   32.0693   45.9387 C   0  0  0  0  0  0  0  0  0  0  0  0
   45.6945   33.3785   46.1160 C   0  0  0  0  0  0  0  0  0  0  0  0
   45.3294   34.0838   45.0109 C   0  0  0  0  0  0  0  0  0  0  0  0
   44.9088   35.3862   45.1733 C   0  0  0  0  0  0  0  0  0  0  0  0
   44.5170   36.1692   44.0948 C   0  0  0  0  0  0  0  0  0  0  0  0
   44.5678   35.5764   42.8372 C   0  0  0  0  0  0  0  0  0  0  0  0
   44.9968   34.2620   42.7120 C   0  0  0  0  0  0  0  0  0  0  0  0
   45.3810   33.5008   43.7723 C   0  0  0  0  0  0  0  0  0  0  0  0
   48.4852   30.7975   43.3438 H   0  0  0  0  0  0  0  0  0  0  0  0
   48.0612   33.1344   42.6984 H   0  0  0  0  0  0  0  0  0  0  0  0
   48.8404   32.7908   41.0547 H   0  0  0  0  0  0  0  0  0  0  0  0
   47.0301   31.1246   40.5085 H   0  0  0  0  0  0  0  0  0  0  0  0
   49.5252   28.2129   38.6992 H   0  0  0  0  0  0  0  0  0  0  0  0
   51.8264   27.9244   39.6266 H   0  0  0  0  0  0  0  0  0  0  0  0
   52.4697   29.0429   41.7420 H   0  0  0  0  0  0  0  0  0  0  0  0
   45.0072   31.1868   41.8195 H   0  0  0  0  0  0  0  0  0  0  0  0
   46.4889   30.4935   44.6287 H   0  0  0  0  0  0  0  0  0  0  0  0
   46.4091   31.4889   46.8115 H   0  0  0  0  0  0  0  0  0  0  0  0
   45.6850   33.7559   47.1247 H   0  0  0  0  0  0  0  0  0  0  0  0
   44.8878   35.8015   46.1829 H   0  0  0  0  0  0  0  0  0  0  0  0
   44.2059   37.1790   44.3427 H   0  0  0  0  0  0  0  0  0  0  0  0
   44.2402   36.2833   42.0877 H   0  0  0  0  0  0  0  0  0  0  0  0
   44.9085   33.9319   41.3019 C   0  0  0  0  0  0  0  0  0  0  0  0
   43.9087   33.3687   40.5342 C   0  0  0  0  0  0  0  0  0  0  0  0
   43.0196   33.1802   41.1429 H   0  0  0  0  0  0  0  0  0  0  0  0
   44.0551   33.0928   39.1960 C   0  0  0  0  0  0  0  0  0  0  0  0
   45.2286   33.3655   38.5257 C   0  0  0  0  0  0  0  0  0  0  0  0
   46.2503   33.9285   39.2602 C   0  0  0  0  0  0  0  0  0  0  0  0
   47.4050   34.1847   38.5525 C   0  0  0  0  0  0  0  0  0  0  0  0
   48.4760   34.7474   39.2114 C   0  0  0  0  0  0  0  0  0  0  0  0
   48.3873   35.0463   40.5546 C   0  0  0  0  0  0  0  0  0  0  0  0
   47.2041   34.7643   41.2019 C   0  0  0  0  0  0  0  0  0  0  0  0
   46.0963   34.2025   40.6025 C   0  0  0  0  0  0  0  0  0  0  0  0
   43.1721   32.6507   38.7407 H   0  0  0  0  0  0  0  0  0  0  0  0
   45.1964   33.0967   37.4858 H   0  0  0  0  0  0  0  0  0  0  0  0
   47.5001   33.9599   37.4988 H   0  0  0  0  0  0  0  0  0  0  0  0
   49.3804   34.9468   38.6515 H   0  0  0  0  0  0  0  0  0  0  0  0
   49.2191   35.4906   41.0960 H   0  0  0  0  0  0  0  0  0  0  0  0
   47.1669   35.0105   42.2544 H   0  0  0  0  0  0  0  0  0  0  0  0
  2  1  1  0
  3  2  1  0
  3  1  1  0
  3 10  1  0
  4  5  2  0
  4  9  1  0
  5  6  1  0
  6  7  2  0
  8  7  1  0
  8  1  1  0
  9  8  2  0
 10 11  1  0
 11 20  1  0
 11 12  2  0
 12 13  1  0
 13 14  2  0
 15 16  2  0
 15 14  1  0
 17 16  1  0
 18 17  2  0
 19 18  1  0
 19 20  2  0
 20 15  1  0
  1 21  1  1
  2 22  1  0
  2 23  1  0
  3 24  1  6
  4 25  1  0
  5 26  1  0
  6 27  1  0
 10 28  1  0
 12 29  1  0
 13 30  1  0
 14 31  1  0
 16 32  1  0
 17 33  1  0
 18 34  1  0
 35 36  2  0
 36 37  1  0
 36 38  1  0
 38 39  2  0
 39 40  1  0
 40 41  2  0
 41 42  1  0
 42 43  2  0
 43 44  1  0
 44 45  2  0
 45 35  1  0
 45 40  1  0
 38 46  1  0
 39 47  1  0
 41 48  1  0
 42 49  1  0
 43 50  1  0
 44 51  1  0
 19 35  1  0
M  ISO  8  21  13  22  13  23  13  24  13  25  14  26  14  27  14  29  14
M  ISO  6  30  14  31  14  32  14  33  14  34  14  37  15
M  END
>  <DihAtoms>  (1) 
17,18,34,35

>  <DihDeg>  (1) 
88.37011496154146

$$$$
