
 OpenBabel03242517593D

 26 28  0  0  0  0  0  0  0  0999 V2000
   47.7630   32.7310   43.4980 C   0  0  0  0  0  0  0  0  0  0  0  0
   47.1940   31.8860   43.0340 H   0  0  0  0  0  0  0  0  0  0  0  0
   48.6580   32.3210   43.9680 H   0  0  0  0  0  0  0  0  0  0  0  0
   48.1260   33.7170   42.4170 C   0  0  0  0  0  0  0  0  0  0  0  0
   48.8160   34.8900   42.7080 C   0  0  0  0  0  0  0  0  0  0  0  0
   49.0710   35.0870   43.7280 H   0  0  0  0  0  0  0  0  0  0  0  0
   49.1600   35.7690   41.7040 C   0  0  0  0  0  3  0  0  0  0  0  0
   48.8340   35.5190   40.3910 C   0  0  0  0  0  3  0  0  0  0  0  0
   48.1520   34.3590   40.1150 C   0  0  0  0  0  0  0  0  0  0  0  0
   47.8270   34.1250   38.7850 C   0  0  0  0  0  3  0  0  0  0  0  0
   47.1310   32.9720   38.4380 C   0  0  0  0  0  3  0  0  0  0  0  0
   46.7670   32.0650   39.4170 C   0  0  0  0  0  3  0  0  0  0  0  0
   47.1150   32.3410   40.7370 C   0  0  0  0  0  3  0  0  0  0  0  0
   47.8000   33.4670   41.1080 C   0  0  0  0  0  0  0  0  0  0  0  0
   46.8280   33.3920   44.5040 C   0  0  0  0  0  0  0  0  0  0  0  0
   47.2260   34.2990   44.9410 H   0  0  0  0  0  0  0  0  0  0  0  0
   45.8770   33.5870   43.9130 H   0  0  0  0  0  0  0  0  0  0  0  0
   46.6500   32.7510   46.8740 C   0  0  0  0  0  0  0  0  0  0  0  0
   46.4940   32.4170   45.5290 C   0  0  0  0  0  0  0  0  0  0  0  0
   46.0140   31.1340   45.2640 C   0  0  0  0  0  0  0  0  0  0  0  0
   45.7360   30.3110   46.3010 N   0  0  0  0  0  0  0  0  0  0  0  0
   45.9010   30.6740   47.5780 C   0  0  0  0  0  0  0  0  0  0  0  0
   46.3610   31.9020   47.8600 N   0  0  0  0  0  0  0  0  0  0  0  0
   47.0270   33.7580   47.0990 H   0  0  0  0  0  0  0  0  0  0  0  0
   45.8740   30.8210   44.2380 H   0  0  0  0  0  0  0  0  0  0  0  0
   45.6630   29.9780   48.3700 H   0  0  0  0  0  0  0  0  0  0  0  0
  1  3  1  0  0  0  0
  1 15  1  0  0  0  0
  2  1  1  0  0  0  0
  4  5  1  0  0  0  0
  4  1  1  0  0  0  0
  5  6  1  0  0  0  0
  7  5  2  0  0  0  0
  8  7  1  0  0  0  0
  9  8  2  0  0  0  0
  9 14  1  0  0  0  0
 10  9  1  0  0  0  0
 11 10  2  0  0  0  0
 11 12  1  0  0  0  0
 12 13  2  0  0  0  0
 13 14  1  0  0  0  0
 14  4  2  0  0  0  0
 15 16  1  0  0  0  0
 15 19  1  0  0  0  0
 17 15  1  0  0  0  0
 18 24  1  0  0  0  0
 18 23  1  0  0  0  0
 19 18  2  0  0  0  0
 20 19  1  0  0  0  0
 20 21  2  0  0  0  0
 21 22  1  0  0  0  0
 22 23  2  0  0  0  0
 22 26  1  0  0  0  0
 25 20  1  0  0  0  0
M  END
>  <minimizedAffinity>
-4.78407145

>  <minimizedRMSD>
2.83438158

$$$$
