
 OpenBabel03242519583D

 30 33  0  0  0  0  0  0  0  0999 V2000
   45.6180   31.9380   42.0450 Br  0  0  0  0  0  0  0  0  0  0  0  0
   46.8470   33.2940   41.5080 C   0  0  0  0  0  0  0  0  0  0  0  0
   47.0140   34.4750   42.2070 C   0  0  0  0  0  0  0  0  0  0  0  0
   47.9270   35.3910   41.7360 C   0  0  0  0  0  0  0  0  0  0  0  0
   48.6830   35.1820   40.6000 C   0  0  0  0  0  0  0  0  0  0  0  0
   48.5300   33.9980   39.8820 C   0  0  0  0  0  0  0  0  0  0  0  0
   47.6100   33.0980   40.3710 C   0  0  0  0  0  0  0  0  0  0  0  0
   48.0400   36.3100   42.3030 H   0  0  0  0  0  0  0  0  0  0  0  0
   49.3920   35.9160   40.2520 H   0  0  0  0  0  0  0  0  0  0  0  0
   49.1100   33.8130   38.9890 H   0  0  0  0  0  0  0  0  0  0  0  0
   47.4770   31.8550   39.5800 C   0  0  0  0  0  0  0  0  0  0  0  0
   48.1150   30.6840   39.9380 C   0  0  0  0  0  0  0  0  0  0  0  0
   48.7400   30.6560   40.8290 H   0  0  0  0  0  0  0  0  0  0  0  0
   47.9330   29.5780   39.1390 C   0  0  0  0  0  3  0  0  0  0  0  0
   47.1210   29.6670   38.0080 C   0  0  0  0  0  3  0  0  0  0  0  0
   46.4960   30.8680   37.6820 C   0  0  0  0  0  0  0  0  0  0  0  0
   45.6960   30.9060   36.5420 C   0  0  0  0  0  3  0  0  0  0  0  0
   45.0740   32.1100   36.2220 C   0  0  0  0  0  3  0  0  0  0  0  0
   45.2270   33.2480   36.9910 C   0  0  0  0  0  3  0  0  0  0  0  0
   46.0270   33.1360   38.0970 C   0  0  0  0  0  3  0  0  0  0  0  0
   46.6660   31.9970   38.4720 C   0  0  0  0  0  0  0  0  0  0  0  0
   44.4580   35.8310   44.6640 C   0  0  0  0  0  0  0  0  0  0  0  0
   45.2320   35.6660   43.5040 C   0  0  0  0  0  0  0  0  0  0  0  0
   46.1950   34.6640   43.4100 C   0  0  0  0  0  0  0  0  0  0  0  0
   46.3310   33.8720   44.4970 N   0  0  0  0  0  0  0  0  0  0  0  0
   45.5810   34.0410   45.6080 C   0  0  0  0  0  0  0  0  0  0  0  0
   44.6630   35.0000   45.6920 N   0  0  0  0  0  0  0  0  0  0  0  0
   43.7290   36.6410   44.6470 H   0  0  0  0  0  0  0  0  0  0  0  0
   45.1450   36.2830   42.6190 H   0  0  0  0  0  0  0  0  0  0  0  0
   45.7770   33.3490   46.4180 H   0  0  0  0  0  0  0  0  0  0  0  0
  2  1  1  0  0  0  0
  2  3  1  0  0  0  0
  3 24  1  0  0  0  0
  4  3  2  0  0  0  0
  4  8  1  0  0  0  0
  5  4  1  0  0  0  0
  6  7  1  0  0  0  0
  6  5  2  0  0  0  0
  7  2  2  0  0  0  0
  9  5  1  0  0  0  0
 10  6  1  0  0  0  0
 11 12  1  0  0  0  0
 11  7  1  0  0  0  0
 12 13  1  0  0  0  0
 14 12  2  0  0  0  0
 15 14  1  0  0  0  0
 16 15  2  0  0  0  0
 16 21  1  0  0  0  0
 17 16  1  0  0  0  0
 18 17  2  0  0  0  0
 18 19  1  0  0  0  0
 19 20  2  0  0  0  0
 20 21  1  0  0  0  0
 21 11  2  0  0  0  0
 22 27  1  0  0  0  0
 23 22  2  0  0  0  0
 24 23  1  0  0  0  0
 24 25  2  0  0  0  0
 25 26  1  0  0  0  0
 26 27  2  0  0  0  0
 26 30  1  0  0  0  0
 28 22  1  0  0  0  0
 29 23  1  0  0  0  0
M  END
>  <minimizedAffinity>
-5.24008274

>  <minimizedRMSD>
1.97868872

$$$$
