
 OpenBabel03242511363D

 44 48  0  0  1  0  0  0  0  0999 V2000
   49.4910   31.8460   41.6640 C   0  0  0  0  0  0  0  0  0  0  0  0
   50.8580   32.0580   41.9750 C   0  0  0  0  0  0  0  0  0  0  0  0
   51.8380   31.8930   41.0070 C   0  0  0  0  0  0  0  0  0  0  0  0
   51.4050   31.5260   39.7830 N   0  0  0  0  0  0  0  0  0  0  0  0
   50.1040   31.3240   39.4870 C   0  0  0  0  0  0  0  0  0  0  0  0
   49.1780   31.4830   40.4130 N   0  0  0  0  0  0  0  0  0  0  0  0
   51.2140   32.3520   42.9510 H   0  0  0  0  0  0  0  0  0  0  0  0
   52.8830   32.0470   41.2180 H   0  0  0  0  0  0  0  0  0  0  0  0
   49.6730   30.9330   38.0910 C   0  0  2  0  0  0  0  0  0  0  0  0
   50.3920   31.4350   36.9190 C   0  0  0  0  0  0  0  0  0  0  0  0
   49.0750   31.9780   37.2050 C   0  0  1  0  0  0  0  0  0  0  0  0
   49.2800   29.8960   38.1610 H   0  0  0  0  0  0  0  0  0  0  0  0
   51.3210   31.9950   37.1730 H   0  0  0  0  0  0  0  0  0  0  0  0
   50.6650   30.8340   36.0350 H   0  0  0  0  0  0  0  0  0  0  0  0
   49.1390   32.9820   37.6750 H   0  0  0  0  0  0  0  0  0  0  0  0
   47.8690   31.9160   36.4210 C   0  0  0  0  0  0  0  0  0  0  0  0
   46.8450   32.7070   36.9670 C   0  0  0  0  0  0  0  0  0  0  0  0
   46.9180   33.2850   37.9030 H   0  0  0  0  0  0  0  0  0  0  0  0
   45.6120   32.8780   36.4120 C   0  0  0  0  0  0  0  0  0  0  0  0
   45.3000   32.2340   35.2140 C   0  0  0  0  0  0  0  0  0  0  0  0
   46.2790   31.4460   34.6480 C   0  0  0  0  0  0  0  0  0  0  0  0
   46.0770   30.7400   33.4510 C   0  0  0  0  0  0  0  0  0  0  0  0
   47.1070   29.9680   32.9680 C   0  0  0  0  0  0  0  0  0  0  0  0
   48.3440   29.8150   33.5560 C   0  0  0  0  0  0  0  0  0  0  0  0
   48.5350   30.5110   34.7270 C   0  0  0  0  0  0  0  0  0  0  0  0
   47.5230   31.2950   35.2370 C   0  0  0  0  0  0  0  0  0  0  0  0
   48.5180   32.0320   42.7220 C   0  0  0  0  0  0  0  0  0  0  0  0
   48.1750   33.2730   43.0400 C   0  0  0  0  0  0  0  0  0  0  0  0
   47.1960   33.5860   44.0990 C   0  0  0  0  0  0  0  0  0  0  0  0
   46.9360   32.6220   44.5930 H   0  0  0  0  0  0  0  0  0  0  0  0
   47.5930   34.2240   44.9140 H   0  0  0  0  0  0  0  0  0  0  0  0
   44.8250   36.1710   43.2740 C   0  0  1  0  0  0  0  0  0  0  0  0
   46.0840   35.4210   42.8160 C   0  0  0  0  0  0  0  0  0  0  0  0
   45.8930   34.1330   43.5260 C   0  0  2  0  0  0  0  0  0  0  0  0
   44.9330   34.2880   44.4930 O   0  0  0  0  0  0  0  0  0  0  0  0
   44.6580   35.6150   44.6630 C   0  0  0  0  0  0  0  0  0  0  0  0
   43.9790   35.8770   42.6200 H   0  0  0  0  0  0  0  0  0  0  0  0
   46.1490   35.3670   41.7180 H   0  0  0  0  0  0  0  0  0  0  0  0
   46.9390   35.9940   43.2730 H   0  0  0  0  0  0  0  0  0  0  0  0
   45.5100   33.3620   42.8190 H   0  0  0  0  0  0  0  0  0  0  0  0
   45.3820   36.1160   45.3370 H   0  0  0  0  0  0  0  0  0  0  0  0
   43.6060   35.7280   44.9890 H   0  0  0  0  0  0  0  0  0  0  0  0
   45.0740   37.5440   43.2680 O   0  0  0  0  0  0  0  0  0  0  0  0
   44.4290   38.0680   42.7440 H   0  0  0  0  0  0  0  0  0  0  0  0
  1  2  1  0  0  0  0
  1 27  1  0  0  0  0
  2  7  1  0  0  0  0
  3  8  1  0  0  0  0
  3  2  2  0  0  0  0
  4  3  1  0  0  0  0
  5  4  2  0  0  0  0
  5  6  1  0  0  0  0
  6  1  2  0  0  0  0
  9 12  1  6  0  0  0
  9  5  1  0  0  0  0
 10 13  1  0  0  0  0
 10 11  1  0  0  0  0
 10  9  1  0  0  0  0
 11 15  1  1  0  0  0
 11  9  1  0  0  0  0
 14 10  1  0  0  0  0
 16 17  1  0  0  0  0
 16 11  1  0  0  0  0
 17 18  1  0  0  0  0
 19 17  2  0  0  0  0
 20 19  1  0  0  0  0
 21 20  2  0  0  0  0
 21 26  1  0  0  0  0
 22 21  1  0  0  0  0
 23 22  2  0  0  0  0
 23 24  1  0  0  0  0
 24 25  2  0  0  0  0
 25 26  1  0  0  0  0
 26 16  2  0  0  0  0
 27 28  2  0  0  0  0
 28 29  1  0  0  0  0
 29 30  1  0  0  0  0
 29 31  1  0  0  0  0
 32 37  1  6  0  0  0
 32 36  1  0  0  0  0
 33 39  1  0  0  0  0
 33 32  1  0  0  0  0
 33 34  1  0  0  0  0
 34 40  1  6  0  0  0
 34 29  1  0  0  0  0
 34 35  1  0  0  0  0
 35 36  1  0  0  0  0
 36 42  1  0  0  0  0
 36 41  1  0  0  0  0
 38 33  1  0  0  0  0
 43 32  1  0  0  0  0
 44 43  1  0  0  0  0
M  END
>  <minimizedAffinity>
-5.50317383

>  <minimizedRMSD>
1.40858674

$$$$
