
 OpenBabel03242515253D

 33 36  0  0  0  0  0  0  0  0999 V2000
   44.8380   35.6050   43.3660 C   0  0  0  0  0  0  0  0  0  0  0  0
   44.3990   34.8030   42.3080 C   0  0  0  0  0  0  0  0  0  0  0  0
   44.4660   33.4440   42.5020 C   0  0  0  0  0  0  0  0  0  0  0  0
   44.9410   32.9750   43.6850 N   0  0  0  0  0  0  0  0  0  0  0  0
   45.3500   33.7820   44.6730 C   0  0  0  0  0  0  0  0  0  0  0  0
   45.3080   35.0930   44.5370 N   0  0  0  0  0  0  0  0  0  0  0  0
   44.8230   36.6840   43.3030 H   0  0  0  0  0  0  0  0  0  0  0  0
   44.1340   32.8390   41.6960 H   0  0  0  0  0  0  0  0  0  0  0  0
   45.8020   32.9590   45.8100 C   0  0  0  0  0  0  0  0  0  0  0  0
   45.3810   33.1430   47.0880 C   0  0  0  0  0  0  0  0  0  0  0  0
   44.6760   33.9240   47.3400 H   0  0  0  0  0  0  0  0  0  0  0  0
   45.7800   32.3950   48.1730 C   0  0  0  0  0  3  0  0  0  0  0  0
   46.6760   31.3670   47.9960 C   0  0  0  0  0  3  0  0  0  0  0  0
   47.1400   31.1280   46.7220 C   0  0  0  0  0  0  0  0  0  0  0  0
   48.0330   30.0950   46.5860 C   0  0  0  0  0  3  0  0  0  0  0  0
   48.5470   29.7870   45.3480 C   0  0  0  0  0  3  0  0  0  0  0  0
   48.1290   30.5550   44.2770 C   0  0  0  0  0  3  0  0  0  0  0  0
   47.2320   31.5780   44.4770 C   0  0  0  0  0  3  0  0  0  0  0  0
   46.6940   31.9180   45.6940 C   0  0  0  0  0  0  0  0  0  0  0  0
   43.9030   35.5030   41.1210 C   0  0  0  0  0  0  0  0  0  0  0  0
   44.0000   36.5840   41.2230 H   0  0  0  0  0  0  0  0  0  0  0  0
   44.5570   35.2210   40.2620 H   0  0  0  0  0  0  0  0  0  0  0  0
   42.5310   35.0590   40.8600 N   0  0  0  0  0  0  0  0  0  0  0  0
   41.5510   35.3970   41.6980 C   0  0  0  0  0  0  0  0  0  0  0  0
   40.2660   34.9440   41.3930 C   0  0  0  0  0  0  0  0  0  0  0  0
   40.0250   34.1750   40.2680 C   0  0  0  0  0  0  0  0  0  0  0  0
   38.8540   33.7860   40.0300 O   0  0  0  0  0  0  0  0  0  0  0  0
   41.0580   33.8560   39.4440 N   0  0  0  0  0  0  0  0  0  0  0  0
   42.3170   34.2970   39.7350 C   0  0  0  0  0  0  0  0  0  0  0  0
   43.2170   33.9650   38.9350 O   0  0  0  0  0  0  0  0  0  0  0  0
   41.7720   35.9940   42.5610 H   0  0  0  0  0  0  0  0  0  0  0  0
   39.5030   35.2430   42.1000 H   0  0  0  0  0  0  0  0  0  0  0  0
   40.8880   33.2820   38.6010 H   0  0  0  0  0  0  0  0  0  0  0  0
  1  6  1  0  0  0  0
  2  3  1  0  0  0  0
  2  1  2  0  0  0  0
  3  4  2  0  0  0  0
  4  5  1  0  0  0  0
  5  9  1  0  0  0  0
  6  5  2  0  0  0  0
  7  1  1  0  0  0  0
  8  3  1  0  0  0  0
  9 10  1  0  0  0  0
 10 11  1  0  0  0  0
 10 12  2  0  0  0  0
 13 12  1  0  0  0  0
 14 13  2  0  0  0  0
 15 14  1  0  0  0  0
 16 15  2  0  0  0  0
 17 18  2  0  0  0  0
 17 16  1  0  0  0  0
 18 19  1  0  0  0  0
 19  9  2  0  0  0  0
 19 14  1  0  0  0  0
 20 21  1  0  0  0  0
 20  2  1  0  0  0  0
 22 20  1  0  0  0  0
 23 20  1  0  0  0  0
 23 24  1  0  0  0  0
 24 31  1  0  0  0  0
 25 24  2  0  0  0  0
 25 32  1  0  0  0  0
 26 25  1  0  0  0  0
 27 26  2  0  0  0  0
 28 29  1  0  0  0  0
 28 26  1  0  0  0  0
 29 23  1  0  0  0  0
 30 29  2  0  0  0  0
 33 28  1  0  0  0  0
M  END
>  <minimizedAffinity>
-6.02767754

>  <minimizedRMSD>
1.33751249

$$$$
