
 OpenBabel03252505253D

 45 49  0  0  1  0  0  0  0  0999 V2000
   46.2840   32.9240   44.8620 F   0  0  0  0  0  0  0  0  0  0  0  0
   47.0960   31.8140   44.8090 C   0  0  0  0  0  0  0  0  0  0  0  0
   47.9450   31.6920   43.7410 C   0  0  0  0  0  0  0  0  0  0  0  0
   48.7410   30.5930   43.7010 C   0  0  0  0  0  0  0  0  0  0  0  0
   48.6750   29.6520   44.7140 C   0  0  0  0  0  0  0  0  0  0  0  0
   47.8310   29.7740   45.7750 C   0  0  0  0  0  0  0  0  0  0  0  0
   47.0180   30.9010   45.8120 C   0  0  0  0  0  0  0  0  0  0  0  0
   49.4300   30.4570   42.8680 H   0  0  0  0  0  0  0  0  0  0  0  0
   49.3130   28.7780   44.6750 H   0  0  0  0  0  0  0  0  0  0  0  0
   47.7910   29.0290   46.5620 H   0  0  0  0  0  0  0  0  0  0  0  0
   46.1430   31.0010   46.9380 N   0  0  0  0  0  0  0  0  0  0  0  0
   45.0060   30.1880   47.3170 C   0  0  0  0  0  0  0  0  0  0  0  0
   45.3200   29.8790   48.8000 C   0  0  0  0  0  0  0  0  0  0  0  0
   46.2430   30.9940   49.2110 C   0  0  0  0  0  0  0  0  0  0  0  0
   46.1360   31.9530   48.0430 C   0  0  2  0  0  0  0  0  0  0  0  0
   45.0240   29.1950   46.8020 H   0  0  0  0  0  0  0  0  0  0  0  0
   44.0410   30.6850   47.2130 H   0  0  0  0  0  0  0  0  0  0  0  0
   44.3600   30.0700   49.3590 H   0  0  0  0  0  0  0  0  0  0  0  0
   45.7130   28.8720   48.9370 H   0  0  0  0  0  0  0  0  0  0  0  0
   45.9650   31.4900   50.1470 H   0  0  0  0  0  0  0  0  0  0  0  0
   47.2900   30.6200   49.2560 H   0  0  0  0  0  0  0  0  0  0  0  0
   47.0670   32.5620   47.9960 H   0  0  0  0  0  0  0  0  0  0  0  0
   44.9420   32.8360   48.0750 C   0  0  0  0  0  0  0  0  0  0  0  0
   44.3630   32.6520   49.0080 H   0  0  0  0  0  0  0  0  0  0  0  0
   44.2780   32.7410   47.1960 H   0  0  0  0  0  0  0  0  0  0  0  0
   45.2520   33.9140   48.1230 H   0  0  0  0  0  0  0  0  0  0  0  0
   49.0770   34.4370   41.5780 C   0  0  0  0  0  0  0  0  0  0  0  0
   47.9830   34.6210   40.7280 C   0  0  0  0  0  0  0  0  0  0  0  0
   46.8730   33.8060   40.9080 C   0  0  0  0  0  0  0  0  0  0  0  0
   46.9580   32.8950   41.9000 N   0  0  0  0  0  0  0  0  0  0  0  0
   47.9760   32.7100   42.7040 C   0  0  0  0  0  0  0  0  0  0  0  0
   49.0290   33.4900   42.5290 N   0  0  0  0  0  0  0  0  0  0  0  0
   49.9470   35.0670   41.4490 H   0  0  0  0  0  0  0  0  0  0  0  0
   48.0740   35.3410   39.9690 H   0  0  0  0  0  0  0  0  0  0  0  0
   45.6640   33.7570   40.1180 C   0  0  0  0  0  0  0  0  0  0  0  0
   45.7330   33.0650   38.8990 C   0  0  0  0  0  0  0  0  0  0  0  0
   46.6820   32.6010   38.5820 H   0  0  0  0  0  0  0  0  0  0  0  0
   44.6860   32.9030   38.0230 C   0  0  0  0  0  0  0  0  0  0  0  0
   43.4600   33.4450   38.3330 C   0  0  0  0  0  0  0  0  0  0  0  0
   43.3170   34.1360   39.5150 C   0  0  0  0  0  0  0  0  0  0  0  0
   42.0990   34.6640   39.8830 C   0  0  0  0  0  0  0  0  0  0  0  0
   41.9010   35.3380   41.0930 C   0  0  0  0  0  0  0  0  0  0  0  0
   43.0220   35.4380   41.9040 C   0  0  0  0  0  0  0  0  0  0  0  0
   44.2220   34.9060   41.5190 C   0  0  0  0  0  0  0  0  0  0  0  0
   44.4100   34.2510   40.3320 C   0  0  0  0  0  0  0  0  0  0  0  0
  2  1  1  0  0  0  0
  2  7  1  0  0  0  0
  3  2  2  0  0  0  0
  4  3  1  0  0  0  0
  4  5  2  0  0  0  0
  5  6  1  0  0  0  0
  6  7  2  0  0  0  0
  6 10  1  0  0  0  0
  7 11  1  0  0  0  0
  8  4  1  0  0  0  0
  9  5  1  0  0  0  0
 11 12  1  0  0  0  0
 11 15  1  0  0  0  0
 12 13  1  0  0  0  0
 13 19  1  0  0  0  0
 13 14  1  0  0  0  0
 13 18  1  0  0  0  0
 14 21  1  0  0  0  0
 14 20  1  0  0  0  0
 15 22  1  6  0  0  0
 15 23  1  0  0  0  0
 15 14  1  0  0  0  0
 16 12  1  0  0  0  0
 17 12  1  0  0  0  0
 23 26  1  0  0  0  0
 23 24  1  0  0  0  0
 25 23  1  0  0  0  0
 27 32  1  0  0  0  0
 28 29  1  0  0  0  0
 28 27  2  0  0  0  0
 29 30  2  0  0  0  0
 30 31  1  0  0  0  0
 31  3  1  0  0  0  0
 32 31  2  0  0  0  0
 33 27  1  0  0  0  0
 34 28  1  0  0  0  0
 35 45  1  0  0  0  0
 35 29  1  0  0  0  0
 36 35  2  0  0  0  0
 37 36  1  0  0  0  0
 38 39  2  0  0  0  0
 38 36  1  0  0  0  0
 39 40  1  0  0  0  0
 40 41  2  0  0  0  0
 40 45  1  0  0  0  0
 41 42  1  0  0  0  0
 42 43  2  0  0  0  0
 44 43  1  0  0  0  0
 45 44  2  0  0  0  0
M  END
>  <minimizedAffinity>
-6.33758211

>  <minimizedRMSD>
1.35266304

$$$$
