
 OpenBabel03242515263D

 33 36  0  0  0  0  0  0  0  0999 V2000
   45.0070   34.8940   44.9040 C   0  0  0  0  0  0  0  0  0  0  0  0
   45.8020   34.8930   43.7540 C   0  0  0  0  0  0  0  0  0  0  0  0
   46.8370   33.9890   43.7280 C   0  0  0  0  0  0  0  0  0  0  0  0
   47.0160   33.1700   44.7960 N   0  0  0  0  0  0  0  0  0  0  0  0
   46.2270   33.2050   45.8780 C   0  0  0  0  0  0  0  0  0  0  0  0
   45.2210   34.0550   45.9540 N   0  0  0  0  0  0  0  0  0  0  0  0
   44.1710   35.5710   45.0140 H   0  0  0  0  0  0  0  0  0  0  0  0
   47.4400   33.9930   42.8550 H   0  0  0  0  0  0  0  0  0  0  0  0
   46.6910   32.1930   46.8450 C   0  0  0  0  0  0  0  0  0  0  0  0
   47.5200   32.4700   47.8840 C   0  0  0  0  0  0  0  0  0  0  0  0
   47.8890   33.4710   48.0580 H   0  0  0  0  0  0  0  0  0  0  0  0
   47.9740   31.5520   48.8070 C   0  0  0  0  0  3  0  0  0  0  0  0
   47.5830   30.2380   48.7050 C   0  0  0  0  0  3  0  0  0  0  0  0
   46.7420   29.8930   47.6720 C   0  0  0  0  0  0  0  0  0  0  0  0
   46.3730   28.5730   47.6040 C   0  0  0  0  0  3  0  0  0  0  0  0
   45.5360   28.1430   46.6010 C   0  0  0  0  0  3  0  0  0  0  0  0
   45.0950   29.0840   45.6920 C   0  0  0  0  0  3  0  0  0  0  0  0
   45.5000   30.3940   45.8120 C   0  0  0  0  0  3  0  0  0  0  0  0
   46.3330   30.8650   46.7950 C   0  0  0  0  0  0  0  0  0  0  0  0
   45.4310   35.8430   42.7030 C   0  0  0  0  0  0  0  0  0  0  0  0
   45.0490   36.7750   43.1210 H   0  0  0  0  0  0  0  0  0  0  0  0
   46.3610   36.1190   42.1500 H   0  0  0  0  0  0  0  0  0  0  0  0
   44.4960   35.1820   41.7890 N   0  0  0  0  0  0  0  0  0  0  0  0
   43.1830   35.2750   41.9980 C   0  0  0  0  0  0  0  0  0  0  0  0
   42.3450   34.6230   41.0910 C   0  0  0  0  0  0  0  0  0  0  0  0
   42.8600   33.9110   40.0220 C   0  0  0  0  0  0  0  0  0  0  0  0
   42.0710   33.3390   39.2290 O   0  0  0  0  0  0  0  0  0  0  0  0
   44.2070   33.8460   39.8520 N   0  0  0  0  0  0  0  0  0  0  0  0
   45.0330   34.4820   40.7340 C   0  0  0  0  0  0  0  0  0  0  0  0
   46.2580   34.3770   40.5160 O   0  0  0  0  0  0  0  0  0  0  0  0
   42.8170   35.8350   42.8370 H   0  0  0  0  0  0  0  0  0  0  0  0
   41.2880   34.7270   41.3000 H   0  0  0  0  0  0  0  0  0  0  0  0
   44.6010   33.3160   39.0570 H   0  0  0  0  0  0  0  0  0  0  0  0
  1  7  1  0  0  0  0
  1  6  1  0  0  0  0
  2  1  2  0  0  0  0
  3  2  1  0  0  0  0
  3  4  2  0  0  0  0
  4  5  1  0  0  0  0
  5  6  2  0  0  0  0
  5  9  1  0  0  0  0
  8  3  1  0  0  0  0
  9 10  1  0  0  0  0
 10 11  1  0  0  0  0
 10 12  2  0  0  0  0
 13 12  1  0  0  0  0
 14 13  2  0  0  0  0
 15 14  1  0  0  0  0
 16 15  2  0  0  0  0
 17 18  2  0  0  0  0
 17 16  1  0  0  0  0
 18 19  1  0  0  0  0
 19  9  2  0  0  0  0
 19 14  1  0  0  0  0
 20 21  1  0  0  0  0
 20  2  1  0  0  0  0
 22 20  1  0  0  0  0
 23 24  1  0  0  0  0
 23 20  1  0  0  0  0
 24 31  1  0  0  0  0
 25 32  1  0  0  0  0
 25 24  2  0  0  0  0
 26 25  1  0  0  0  0
 27 26  2  0  0  0  0
 28 26  1  0  0  0  0
 28 29  1  0  0  0  0
 29 23  1  0  0  0  0
 30 29  2  0  0  0  0
 33 28  1  0  0  0  0
M  END
>  <minimizedAffinity>
-5.97474337

>  <minimizedRMSD>
2.79361153

$$$$
