
     RDKit          3D

 29 31  0  0  0  0  0  0  0  0999 V2000
   44.3856   35.7733   44.4343 C   0  0  0  0  0  0  0  0  0  0  0  0
   44.6767   35.0424   43.2613 C   0  0  0  0  0  0  0  0  0  0  0  0
   45.2959   33.8184   43.3883 C   0  0  0  0  0  0  0  0  0  0  0  0
   45.5843   33.3977   44.6330 N   0  0  0  0  0  0  0  0  0  0  0  0
   45.3083   34.0908   45.7463 C   0  0  0  0  0  0  0  0  0  0  0  0
   44.6956   35.3065   45.6640 N   0  0  0  0  0  0  0  0  0  0  0  0
   44.2527   35.7370   42.0099 C   0  0  0  0  0  0  0  0  0  0  0  0
   43.8955   36.7533   44.4082 H   0  0  0  0  0  0  0  0  0  0  0  0
   45.4882   33.3107   42.4628 H   0  0  0  0  0  0  0  0  0  0  0  0
   45.5499   33.7337   46.7370 H   0  0  0  0  0  0  0  0  0  0  0  0
   45.0940   35.5283   41.2890 H   0  0  0  0  0  0  0  0  0  0  0  0
   44.2033   36.8088   42.1234 H   0  0  0  0  0  0  0  0  0  0  0  0
   42.9688   35.1855   41.5665 C   0  0  0  0  0  0  0  0  0  0  0  0
   42.6965   34.9110   40.2415 C   0  0  0  0  0  0  0  0  0  0  0  0
   43.4707   35.0851   39.4811 H   0  0  0  0  0  0  0  0  0  0  0  0
   41.4779   34.4132   39.7865 C   0  0  0  0  0  0  0  0  0  0  0  0
   40.4615   34.1724   40.7198 C   0  0  0  0  0  0  0  0  0  0  0  0
   40.6791   34.4281   42.0568 C   0  0  0  0  0  0  0  0  0  0  0  0
   39.6721   34.1787   42.9861 C   0  0  0  0  0  0  0  0  0  0  0  0
   39.9503   34.4432   44.3010 C   0  0  0  0  0  0  0  0  0  0  0  0
   41.1567   34.9389   44.7729 C   0  0  0  0  0  0  0  0  0  0  0  0
   42.1296   35.1700   43.7982 C   0  0  0  0  0  0  0  0  0  0  0  0
   41.9222   34.9250   42.4361 C   0  0  0  0  0  0  0  0  0  0  0  0
   41.2881   34.2081   38.7385 H   0  0  0  0  0  0  0  0  0  0  0  0
   39.4853   33.7883   40.4469 H   0  0  0  0  0  0  0  0  0  0  0  0
   38.7232   33.7914   42.6523 H   0  0  0  0  0  0  0  0  0  0  0  0
   39.1740   34.2536   45.0431 H   0  0  0  0  0  0  0  0  0  0  0  0
   41.3405   35.1363   45.8266 H   0  0  0  0  0  0  0  0  0  0  0  0
   43.0610   35.5568   44.2249 H   0  0  0  0  0  0  0  0  0  0  0  0
  1  6  2  0
  2  3  2  0
  2  1  1  0
  3  4  1  0
  4  5  2  0
  6  5  1  0
  7  2  1  0
  1  8  1  0
  3  9  1  0
  5 10  1  0
  7 11  1  0
  7 12  1  0
 13 14  2  0
 14 15  1  0
 14 16  1  0
 16 17  2  0
 17 18  1  0
 18 19  2  0
 19 20  1  0
 20 21  2  0
 21 22  1  0
 22 23  2  0
 23 13  1  0
 23 18  1  0
 16 24  1  0
 17 25  1  0
 19 26  1  0
 20 27  1  0
 21 28  1  0
 22 29  1  0
  7 13  1  0
M  ISO  6   8  14   9  14  10  14  11   8  12   8  15  15
M  END
>  <DihAtoms>  (1) 
1,6,12,13

>  <DihDeg>  (1) 
26.973175118302795

$$$$
