
 OpenBabel03252507323D

 51 55  0  0  1  0  0  0  0  0999 V2000
   47.0470   32.4500   45.3770 C   0  0  0  0  0  0  0  0  0  0  0  0
   45.9910   33.1220   45.9820 C   0  0  0  0  0  0  0  0  0  0  0  0
   45.3670   34.1940   45.3050 C   0  0  0  0  0  0  0  0  0  0  0  0
   45.8760   34.5080   44.0450 N   0  0  0  0  0  0  0  0  0  0  0  0
   46.8920   33.8250   43.5240 C   0  0  0  0  0  0  0  0  0  0  0  0
   47.4750   32.8110   44.1680 N   0  0  0  0  0  0  0  0  0  0  0  0
   45.4830   33.0770   46.9170 H   0  0  0  0  0  0  0  0  0  0  0  0
   44.5600   34.8110   45.5990 H   0  0  0  0  0  0  0  0  0  0  0  0
   47.6380   31.3430   46.1000 C   0  0  2  0  0  0  0  0  0  0  0  0
   47.2050   29.9740   45.4990 C   0  0  0  0  0  0  0  0  0  0  0  0
   47.9490   28.8740   46.1720 C   0  0  0  0  0  0  0  0  0  0  0  0
   48.0710   28.9720   47.6560 C   0  0  0  0  0  0  0  0  0  0  0  0
   48.2420   30.3140   48.1580 C   0  0  0  0  0  0  0  0  0  0  0  0
   47.2980   31.3490   47.5090 C   0  0  2  0  0  0  0  0  0  0  0  0
   48.7390   31.3350   45.9210 H   0  0  0  0  0  0  0  0  0  0  0  0
   46.1270   29.8410   45.5150 H   0  0  0  0  0  0  0  0  0  0  0  0
   47.5010   30.0430   44.4320 H   0  0  0  0  0  0  0  0  0  0  0  0
   47.3480   27.9370   45.9750 H   0  0  0  0  0  0  0  0  0  0  0  0
   48.8810   28.7150   45.6010 H   0  0  0  0  0  0  0  0  0  0  0  0
   47.6650   28.1610   48.2600 H   0  0  0  0  0  0  0  0  0  0  0  0
   49.1650   28.5910   47.7730 H   0  0  0  0  0  0  0  0  0  0  0  0
   49.2440   30.7960   48.0900 H   0  0  0  0  0  0  0  0  0  0  0  0
   47.9710   30.3420   49.2450 H   0  0  0  0  0  0  0  0  0  0  0  0
   47.5290   32.2400   48.0930 H   0  0  0  0  0  0  0  0  0  0  0  0
   45.9160   30.8970   47.6930 N   0  0  0  0  0  0  0  0  0  0  0  0
   45.1970   30.5470   48.8490 C   0  0  0  0  0  0  0  0  0  0  0  0
   44.7220   31.4140   49.6670 O   0  0  0  0  0  0  0  0  0  0  0  0
   45.0250   29.1430   49.0420 N   0  0  0  0  0  0  0  0  0  0  0  0
   45.2540   30.7050   46.8500 H   0  0  0  0  0  0  0  0  0  0  0  0
   44.6440   28.4270   48.3820 H   0  0  0  0  0  0  0  0  0  0  0  0
   45.2880   28.6480   49.9410 H   0  0  0  0  0  0  0  0  0  0  0  0
   47.3920   34.2260   42.2050 C   0  0  0  0  0  0  0  0  0  0  0  0
   48.3940   35.1260   42.0550 C   0  0  0  0  0  0  0  0  0  0  0  0
   48.8960   35.5340   40.8360 C   0  0  0  0  0  0  0  0  0  0  0  0
   48.3080   34.9620   39.7380 C   0  0  0  0  0  0  0  0  0  0  0  0
   47.2910   34.0430   39.8490 C   0  0  0  0  0  0  0  0  0  0  0  0
   46.8570   33.7010   41.0950 N   0  0  0  0  0  0  0  0  0  0  0  0
   48.8140   35.5390   42.9600 H   0  0  0  0  0  0  0  0  0  0  0  0
   49.6880   36.2460   40.7510 H   0  0  0  0  0  0  0  0  0  0  0  0
   48.6660   35.3190   38.7920 H   0  0  0  0  0  0  0  0  0  0  0  0
   46.5220   33.4010   38.8050 C   0  0  0  0  0  0  0  0  0  0  0  0
   45.1880   33.0540   39.0670 C   0  0  0  0  0  0  0  0  0  0  0  0
   44.7590   33.2910   40.0500 H   0  0  0  0  0  0  0  0  0  0  0  0
   44.3380   32.4280   38.1830 C   0  0  0  0  0  0  0  0  0  0  0  0
   44.8070   32.0990   36.9330 C   0  0  0  0  0  0  0  0  0  0  0  0
   46.1080   32.4070   36.6060 C   0  0  0  0  0  0  0  0  0  0  0  0
   46.5990   32.0490   35.3690 C   0  0  0  0  0  0  0  0  0  0  0  0
   47.9050   32.2900   34.9950 C   0  0  0  0  0  0  0  0  0  0  0  0
   48.7100   32.9230   35.9500 C   0  0  0  0  0  0  0  0  0  0  0  0
   48.1800   33.2640   37.1710 C   0  0  0  0  0  0  0  0  0  0  0  0
   46.8900   33.0300   37.5410 C   0  0  0  0  0  0  0  0  0  0  0  0
  1  2  1  0  0  0  0
  1  9  1  0  0  0  0
  2  7  1  0  0  0  0
  3  8  1  0  0  0  0
  3  2  2  0  0  0  0
  4  3  1  0  0  0  0
  5  4  2  0  0  0  0
  5  6  1  0  0  0  0
  6  1  2  0  0  0  0
  9 15  1  6  0  0  0
  9 14  1  0  0  0  0
 10 16  1  0  0  0  0
 10  9  1  0  0  0  0
 10 11  1  0  0  0  0
 11 12  1  0  0  0  0
 12 21  1  0  0  0  0
 12 13  1  0  0  0  0
 12 20  1  0  0  0  0
 13 23  1  0  0  0  0
 14 25  1  0  0  0  0
 14 24  1  1  0  0  0
 14 13  1  0  0  0  0
 17 10  1  0  0  0  0
 18 11  1  0  0  0  0
 19 11  1  0  0  0  0
 22 13  1  0  0  0  0
 25 26  1  0  0  0  0
 26 28  1  0  0  0  0
 26 27  2  0  0  0  0
 28 31  1  0  0  0  0
 29 25  1  0  0  0  0
 30 28  1  0  0  0  0
 32  5  1  0  0  0  0
 33 32  1  0  0  0  0
 33 38  1  0  0  0  0
 34 33  2  0  0  0  0
 35 36  2  0  0  0  0
 35 34  1  0  0  0  0
 36 37  1  0  0  0  0
 37 32  2  0  0  0  0
 39 34  1  0  0  0  0
 40 35  1  0  0  0  0
 41 42  1  0  0  0  0
 41 36  1  0  0  0  0
 42 43  1  0  0  0  0
 44 42  2  0  0  0  0
 45 44  1  0  0  0  0
 46 45  2  0  0  0  0
 46 51  1  0  0  0  0
 47 46  1  0  0  0  0
 48 47  2  0  0  0  0
 48 49  1  0  0  0  0
 49 50  2  0  0  0  0
 50 51  1  0  0  0  0
 51 41  2  0  0  0  0
M  END
>  <minimizedAffinity>
-7.10155535

>  <minimizedRMSD>
1.72211015

$$$$
