
 OpenBabel03252507323D

 51 55  0  0  1  0  0  0  0  0999 V2000
   47.0580   32.0800   45.2260 C   0  0  0  0  0  0  0  0  0  0  0  0
   46.0450   32.7970   45.8530 C   0  0  0  0  0  0  0  0  0  0  0  0
   45.5470   33.9740   45.2490 C   0  0  0  0  0  0  0  0  0  0  0  0
   46.1290   34.3390   44.0360 N   0  0  0  0  0  0  0  0  0  0  0  0
   47.0990   33.6090   43.4920 C   0  0  0  0  0  0  0  0  0  0  0  0
   47.5630   32.4960   44.0660 N   0  0  0  0  0  0  0  0  0  0  0  0
   45.4990   32.7240   46.7650 H   0  0  0  0  0  0  0  0  0  0  0  0
   44.7890   34.6380   45.5700 H   0  0  0  0  0  0  0  0  0  0  0  0
   47.5180   30.8680   45.8720 C   0  0  2  0  0  0  0  0  0  0  0  0
   46.7710   29.6150   45.3290 C   0  0  0  0  0  0  0  0  0  0  0  0
   47.3750   28.3830   45.9060 C   0  0  0  0  0  0  0  0  0  0  0  0
   47.6920   28.4240   47.3630 C   0  0  0  0  0  0  0  0  0  0  0  0
   48.1670   29.7000   47.8400 C   0  0  0  0  0  0  0  0  0  0  0  0
   47.3570   30.9050   47.3120 C   0  0  2  0  0  0  0  0  0  0  0  0
   48.5690   30.6630   45.5590 H   0  0  0  0  0  0  0  0  0  0  0  0
   45.6970   29.6810   45.4780 H   0  0  0  0  0  0  0  0  0  0  0  0
   46.9430   29.6530   44.2340 H   0  0  0  0  0  0  0  0  0  0  0  0
   46.5920   27.5760   45.7850 H   0  0  0  0  0  0  0  0  0  0  0  0
   48.1860   28.0690   45.2250 H   0  0  0  0  0  0  0  0  0  0  0  0
   47.2190   27.6870   48.0140 H   0  0  0  0  0  0  0  0  0  0  0  0
   48.7020   27.8470   47.3450 H   0  0  0  0  0  0  0  0  0  0  0  0
   49.2240   29.9930   47.6490 H   0  0  0  0  0  0  0  0  0  0  0  0
   48.0390   29.7530   48.9530 H   0  0  0  0  0  0  0  0  0  0  0  0
   47.8180   31.7260   47.8630 H   0  0  0  0  0  0  0  0  0  0  0  0
   45.9490   30.7090   47.6650 N   0  0  0  0  0  0  0  0  0  0  0  0
   45.3140   30.5450   48.9080 C   0  0  0  0  0  0  0  0  0  0  0  0
   45.0850   31.5200   49.7110 O   0  0  0  0  0  0  0  0  0  0  0  0
   44.9320   29.2030   49.2100 N   0  0  0  0  0  0  0  0  0  0  0  0
   45.1740   30.5950   46.9080 H   0  0  0  0  0  0  0  0  0  0  0  0
   44.3650   28.5330   48.6410 H   0  0  0  0  0  0  0  0  0  0  0  0
   45.2070   28.7140   50.1090 H   0  0  0  0  0  0  0  0  0  0  0  0
   47.6840   34.0660   42.2260 C   0  0  0  0  0  0  0  0  0  0  0  0
   48.1430   35.3300   42.0580 C   0  0  0  0  0  0  0  0  0  0  0  0
   48.6990   35.8050   40.8870 C   0  0  0  0  0  0  0  0  0  0  0  0
   48.7660   34.9000   39.8610 C   0  0  0  0  0  0  0  0  0  0  0  0
   48.3140   33.6090   39.9930 C   0  0  0  0  0  0  0  0  0  0  0  0
   47.7770   33.2270   41.1870 N   0  0  0  0  0  0  0  0  0  0  0  0
   48.0600   35.9920   42.9060 H   0  0  0  0  0  0  0  0  0  0  0  0
   49.0530   36.8080   40.7860 H   0  0  0  0  0  0  0  0  0  0  0  0
   49.1520   35.2870   38.9380 H   0  0  0  0  0  0  0  0  0  0  0  0
   48.2480   32.5570   39.0010 C   0  0  0  0  0  0  0  0  0  0  0  0
   49.2240   31.5490   39.0250 C   0  0  0  0  0  0  0  0  0  0  0  0
   50.0020   31.5760   39.8000 H   0  0  0  0  0  0  0  0  0  0  0  0
   49.3040   30.4950   38.1420 C   0  0  0  0  0  3  0  0  0  0  0  0
   48.3650   30.3940   37.1420 C   0  0  0  0  0  3  0  0  0  0  0  0
   47.3780   31.3510   37.0560 C   0  0  0  0  0  0  0  0  0  0  0  0
   46.4530   31.2800   36.0370 C   0  0  0  0  0  3  0  0  0  0  0  0
   45.4640   32.2290   35.8720 C   0  0  0  0  0  3  0  0  0  0  0  0
   45.4530   33.2740   36.8030 C   0  0  0  0  0  3  0  0  0  0  0  0
   46.3930   33.3040   37.8050 C   0  0  0  0  0  3  0  0  0  0  0  0
   47.3670   32.3680   37.9730 C   0  0  0  0  0  0  0  0  0  0  0  0
  1  2  1  0  0  0  0
  1  9  1  0  0  0  0
  2  7  1  0  0  0  0
  3  8  1  0  0  0  0
  3  2  2  0  0  0  0
  4  3  1  0  0  0  0
  5  4  2  0  0  0  0
  5  6  1  0  0  0  0
  6  1  2  0  0  0  0
  9 15  1  6  0  0  0
  9 14  1  0  0  0  0
 10 16  1  0  0  0  0
 10  9  1  0  0  0  0
 10 11  1  0  0  0  0
 11 12  1  0  0  0  0
 12 13  1  0  0  0  0
 12 20  1  0  0  0  0
 13 23  1  0  0  0  0
 14 25  1  0  0  0  0
 14 13  1  0  0  0  0
 14 24  1  1  0  0  0
 17 10  1  0  0  0  0
 18 11  1  0  0  0  0
 19 11  1  0  0  0  0
 21 12  1  0  0  0  0
 22 13  1  0  0  0  0
 25 26  1  0  0  0  0
 26 28  1  0  0  0  0
 26 27  2  0  0  0  0
 28 31  1  0  0  0  0
 29 25  1  0  0  0  0
 30 28  1  0  0  0  0
 32  5  1  0  0  0  0
 33 32  1  0  0  0  0
 33 38  1  0  0  0  0
 34 33  2  0  0  0  0
 35 36  2  0  0  0  0
 35 34  1  0  0  0  0
 36 37  1  0  0  0  0
 37 32  2  0  0  0  0
 39 34  1  0  0  0  0
 40 35  1  0  0  0  0
 41 42  1  0  0  0  0
 41 36  1  0  0  0  0
 42 43  1  0  0  0  0
 44 42  2  0  0  0  0
 45 44  1  0  0  0  0
 46 45  2  0  0  0  0
 46 51  1  0  0  0  0
 47 46  1  0  0  0  0
 48 47  2  0  0  0  0
 48 49  1  0  0  0  0
 49 50  2  0  0  0  0
 50 51  1  0  0  0  0
 51 41  2  0  0  0  0
M  END
>  <minimizedAffinity>
-6.30006742

>  <minimizedRMSD>
1.62610793

$$$$
