REMARK  Name = 
REMARK  2 active torsions:
REMARK  status: ('A' for Active; 'I' for Inactive)
REMARK    1  A    between atoms: C_2  and  C_17
REMARK    2  A    between atoms: C_3  and  C_7
REMARK                            x       y       z     vdW  Elec       q    Type
REMARK                         _______ _______ _______ _____ _____    ______ ____
ROOT
ATOM      1  C   UNL     1      44.640  35.867  44.299  0.00  0.00    +0.000 A 
ATOM      2  C   UNL     1      45.327  35.959  43.087  0.00  0.00    +0.000 A 
ATOM      3  C   UNL     1      46.284  34.945  43.030  0.00  0.00    +0.000 A 
ATOM      4  N   UNL     1      46.463  34.023  44.060  0.00  0.00    +0.000 NA
ATOM      5  C   UNL     1      45.736  34.038  45.177  0.00  0.00    +0.000 A 
ATOM      6  N   UNL     1      44.800  34.993  45.291  0.00  0.00    +0.000 NA
ATOM      7  H   UNL     1      43.848  36.616  44.482  0.00  0.00    +0.000 HD
ATOM      8  H   UNL     1      46.050  33.238  45.820  0.00  0.00    +0.000 HD
ENDROOT
BRANCH   2   9
ATOM      9  C   UNL     1      45.103  36.917  42.070  0.00  0.00    +0.000 A 
ATOM     10  C   UNL     1      45.742  38.138  41.994  0.00  0.00    +0.000 A 
ATOM     11  H   UNL     1      46.471  38.369  42.781  0.00  0.00    +0.000 HD
ATOM     12  C   UNL     1      45.548  39.094  41.019  0.00  0.00    +0.000 A 
ATOM     13  C   UNL     1      44.612  38.744  40.047  0.00  0.00    +0.000 A 
ATOM     14  C   UNL     1      43.918  37.533  40.043  0.00  0.00    +0.000 A 
ATOM     15  C   UNL     1      43.008  37.272  39.039  0.00  0.00    +0.000 A 
ATOM     16  C   UNL     1      42.318  36.058  39.044  0.00  0.00    +0.000 A 
ATOM     17  C   UNL     1      42.596  35.182  40.069  0.00  0.00    +0.000 A 
ATOM     18  C   UNL     1      43.498  35.420  41.079  0.00  0.00    +0.000 A 
ATOM     19  C   UNL     1      44.172  36.630  41.059  0.00  0.00    +0.000 A 
ENDBRANCH   2   9
BRANCH   3  20
ATOM     20  C   UNL     1      47.083  34.796  41.771  0.00  0.00    +0.000 C 
ATOM     21  C   UNL     1      48.440  35.457  41.861  0.00  0.00    +0.000 C 
ATOM     22  C   UNL     1      48.225  33.936  41.782  0.00  0.00    +0.000 C 
ATOM     23  H   UNL     1      46.542  35.057  40.864  0.00  0.00    +0.000 HD
ATOM     24  H   UNL     1      48.808  35.987  40.963  0.00  0.00    +0.000 HD
ATOM     25  H   UNL     1      48.661  35.936  42.803  0.00  0.00    +0.000 HD
ATOM     26  H   UNL     1      48.732  33.508  40.890  0.00  0.00    +0.000 HD
ATOM     27  H   UNL     1      48.541  33.361  42.708  0.00  0.00    +0.000 HD
ENDBRANCH   3  20
TORSDOF 2
