REMARK  Name = 
REMARK  2 active torsions:
REMARK  status: ('A' for Active; 'I' for Inactive)
REMARK    1  A    between atoms: C_2  and  N_7
REMARK    2  A    between atoms: C_8  and  C_24
REMARK                            x       y       z     vdW  Elec       q    Type
REMARK                         _______ _______ _______ _____ _____    ______ ____
ROOT
ATOM      1  N   UNL     1      44.318  34.338  41.963  0.00  0.00    +0.000 N 
ATOM      2  C   UNL     1      44.328  33.331  41.009  0.00  0.00    +0.000 C 
ATOM      3  C   UNL     1      43.724  33.668  39.685  0.00  0.00    +0.000 C 
ATOM      4  N   UNL     1      42.573  34.461  39.709  0.00  0.00    +0.000 NA
ATOM      5  C   UNL     1      42.441  35.383  40.764  0.00  0.00    +0.000 C 
ATOM      6  C   UNL     1      43.768  35.591  41.487  0.00  0.00    +0.000 C 
ATOM      7  H   UNL     1      43.560  32.578  41.426  0.00  0.00    +0.000 HD
ATOM      8  H   UNL     1      44.443  34.112  38.967  0.00  0.00    +0.000 HD
ATOM      9  H   UNL     1      43.452  32.684  39.197  0.00  0.00    +0.000 HD
ATOM     10  H   UNL     1      41.689  34.041  39.389  0.00  0.00    +0.000 HD
ATOM     11  H   UNL     1      42.047  36.367  40.530  0.00  0.00    +0.000 HD
ATOM     12  H   UNL     1      41.769  34.935  41.536  0.00  0.00    +0.000 HD
ATOM     13  H   UNL     1      43.587  36.347  42.239  0.00  0.00    +0.000 HD
ATOM     14  H   UNL     1      44.437  36.029  40.713  0.00  0.00    +0.000 HD
ENDROOT
BRANCH   2  15
ATOM     15  C   UNL     1      45.505  32.493  40.728  0.00  0.00    +0.000 A 
ATOM     16  C   UNL     1      46.470  32.961  39.805  0.00  0.00    +0.000 A 
ATOM     17  H   UNL     1      46.297  33.928  39.305  0.00  0.00    +0.000 HD
ATOM     18  C   UNL     1      47.623  32.346  39.445  0.00  0.00    +0.000 A 
ATOM     19  C   UNL     1      47.918  31.136  40.020  0.00  0.00    +0.000 A 
ATOM     20  C   UNL     1      47.056  30.577  40.934  0.00  0.00    +0.000 A 
ATOM     21  C   UNL     1      47.297  29.365  41.544  0.00  0.00    +0.000 A 
ATOM     22  C   UNL     1      46.426  28.788  42.474  0.00  0.00    +0.000 A 
ATOM     23  C   UNL     1      45.262  29.502  42.778  0.00  0.00    +0.000 A 
ATOM     24  C   UNL     1      45.066  30.705  42.145  0.00  0.00    +0.000 A 
ATOM     25  C   UNL     1      45.916  31.277  41.231  0.00  0.00    +0.000 A 
ENDBRANCH   2  15
BRANCH   1  27
ATOM     26  C   UNL     1      44.526  35.076  44.230  0.00  0.00    +0.000 A 
ATOM     27  C   UNL     1      44.775  34.110  43.269  0.00  0.00    +0.000 A 
ATOM     28  C   UNL     1      45.447  32.982  43.668  0.00  0.00    +0.000 A 
ATOM     29  N   UNL     1      45.849  32.819  44.939  0.00  0.00    +0.000 NA
ATOM     30  C   UNL     1      45.588  33.790  45.863  0.00  0.00    +0.000 A 
ATOM     31  N   UNL     1      44.942  34.890  45.511  0.00  0.00    +0.000 NA
ATOM     32  H   UNL     1      44.020  36.022  44.134  0.00  0.00    +0.000 HD
ATOM     33  H   UNL     1      45.699  32.153  43.066  0.00  0.00    +0.000 HD
ATOM     34  H   UNL     1      45.925  33.639  46.902  0.00  0.00    +0.000 HD
ENDBRANCH   1  27
TORSDOF 2
