
 OpenBabel03242517323D

 49 53  0  0  1  0  0  0  0  0999 V2000
   45.4460   30.0990   47.1630 C   0  0  0  0  0  0  0  0  0  0  0  0
   44.8750   30.0870   46.2170 H   0  0  0  0  0  0  0  0  0  0  0  0
   46.4720   29.7620   46.9530 H   0  0  0  0  0  0  0  0  0  0  0  0
   45.0200   34.7290   44.9540 C   0  0  0  0  0  0  0  0  0  0  0  0
   45.8840   34.5680   43.8360 C   0  0  0  0  0  0  0  0  0  0  0  0
   46.9230   33.6420   43.9310 C   0  0  0  0  0  0  0  0  0  0  0  0
   47.0540   32.9450   45.0890 N   0  0  0  0  0  0  0  0  0  0  0  0
   46.2470   33.0960   46.1320 C   0  0  0  0  0  0  0  0  0  0  0  0
   45.2510   33.9890   46.0290 N   0  0  0  0  0  0  0  0  0  0  0  0
   46.4500   32.3430   47.2760 N   0  0  0  0  0  0  0  0  0  0  0  0
   47.7150   32.4010   47.9800 C   0  0  0  0  0  0  0  0  0  0  0  0
   47.9150   31.2720   48.9450 C   0  0  0  0  0  0  0  0  0  0  0  0
   46.7610   30.7410   49.5690 N   0  0  0  0  0  0  0  0  0  0  0  0
   45.5640   31.4580   49.2650 C   0  0  0  0  0  0  0  0  0  0  0  0
   45.3640   31.4750   47.7800 C   0  0  2  0  0  0  0  0  0  0  0  0
   44.2220   35.4590   44.8460 H   0  0  0  0  0  0  0  0  0  0  0  0
   45.7910   35.1180   42.9070 H   0  0  0  0  0  0  0  0  0  0  0  0
   47.6200   33.4610   43.1280 H   0  0  0  0  0  0  0  0  0  0  0  0
   48.5490   32.4280   47.2510 H   0  0  0  0  0  0  0  0  0  0  0  0
   47.7370   33.3420   48.5890 H   0  0  0  0  0  0  0  0  0  0  0  0
   48.6900   31.5710   49.6890 H   0  0  0  0  0  0  0  0  0  0  0  0
   48.4010   30.4410   48.3570 H   0  0  0  0  0  0  0  0  0  0  0  0
   46.6910   29.7220   49.6650 H   0  0  0  0  0  0  0  0  0  0  0  0
   44.7150   31.1490   49.8670 H   0  0  0  0  0  0  0  0  0  0  0  0
   45.7790   32.5330   49.5480 H   0  0  0  0  0  0  0  0  0  0  0  0
   44.4080   31.9570   47.5530 H   0  0  0  0  0  0  0  0  0  0  0  0
   44.8300   29.1610   48.1710 C   0  0  0  0  0  0  0  0  0  0  0  0
   45.0320   27.8500   48.0710 C   0  0  0  0  0  0  0  0  0  0  0  0
   44.4790   26.8300   49.0040 C   0  0  0  0  0  0  0  0  0  0  0  0
   45.2560   26.7210   49.8110 H   0  0  0  0  0  0  0  0  0  0  0  0
   43.5190   27.1410   49.4350 H   0  0  0  0  0  0  0  0  0  0  0  0
   44.4130   25.4970   48.2930 C   0  0  2  0  0  0  0  0  0  0  0  0
   45.6460   25.0210   47.5940 C   0  0  0  0  0  0  0  0  0  0  0  0
   44.4000   25.4460   46.8240 C   0  0  1  0  0  0  0  0  0  0  0  0
   43.9000   24.7260   48.9130 H   0  0  0  0  0  0  0  0  0  0  0  0
   46.5200   25.6980   47.6460 H   0  0  0  0  0  0  0  0  0  0  0  0
   45.9310   23.9580   47.6410 H   0  0  0  0  0  0  0  0  0  0  0  0
   44.5570   26.3880   46.2730 H   0  0  0  0  0  0  0  0  0  0  0  0
   43.7740   24.3030   46.1030 C   0  0  0  0  0  0  0  0  0  0  0  0
   44.5690   23.2640   45.6550 C   0  0  0  0  0  0  0  0  0  0  0  0
   45.6440   23.2310   45.8000 H   0  0  0  0  0  0  0  0  0  0  0  0
   43.9890   22.2050   44.9880 C   0  0  0  0  0  0  0  0  0  0  0  0
   42.6140   22.1360   44.7420 C   0  0  0  0  0  0  0  0  0  0  0  0
   41.8100   23.1880   45.1960 C   0  0  0  0  0  0  0  0  0  0  0  0
   40.4310   23.1640   44.9730 C   0  0  0  0  0  0  0  0  0  0  0  0
   39.6750   24.2330   45.4440 C   0  0  0  0  0  0  0  0  0  0  0  0
   40.2310   25.3040   46.1140 C   0  0  0  0  0  0  0  0  0  0  0  0
   41.6060   25.2430   46.2890 C   0  0  0  0  0  0  0  0  0  0  0  0
   42.4200   24.2220   45.8540 C   0  0  0  0  0  0  0  0  0  0  0  0
  1 15  1  0  0  0  0
  1 27  1  0  0  0  0
  2  1  1  0  0  0  0
  3  1  1  0  0  0  0
  4  9  1  0  0  0  0
  5  6  1  0  0  0  0
  5  4  2  0  0  0  0
  6  7  2  0  0  0  0
  7  8  1  0  0  0  0
  8 10  1  0  0  0  0
  9  8  2  0  0  0  0
 10 15  1  0  0  0  0
 10 11  1  0  0  0  0
 11 20  1  0  0  0  0
 11 12  1  0  0  0  0
 12 13  1  0  0  0  0
 12 21  1  0  0  0  0
 13 23  1  0  0  0  0
 14 25  1  0  0  0  0
 14 13  1  0  0  0  0
 14 24  1  0  0  0  0
 15 26  1  6  0  0  0
 15 14  1  0  0  0  0
 16  4  1  0  0  0  0
 17  5  1  0  0  0  0
 18  6  1  0  0  0  0
 19 11  1  0  0  0  0
 22 12  1  0  0  0  0
 28 27  2  0  0  0  0
 28 29  1  0  0  0  0
 29 31  1  0  0  0  0
 29 30  1  0  0  0  0
 32 35  1  1  0  0  0
 32 29  1  0  0  0  0
 33 37  1  0  0  0  0
 33 36  1  0  0  0  0
 33 32  1  0  0  0  0
 34 38  1  6  0  0  0
 34 33  1  0  0  0  0
 34 32  1  0  0  0  0
 39 34  1  0  0  0  0
 40 41  1  0  0  0  0
 40 39  2  0  0  0  0
 42 40  1  0  0  0  0
 43 42  2  0  0  0  0
 43 44  1  0  0  0  0
 44 49  1  0  0  0  0
 45 44  2  0  0  0  0
 45 46  1  0  0  0  0
 46 47  2  0  0  0  0
 47 48  1  0  0  0  0
 49 39  1  0  0  0  0
 49 48  2  0  0  0  0
M  END
>  <minimizedAffinity>
-6.46383619

>  <minimizedRMSD>
2.05310416

$$$$
