REMARK  Name = 
REMARK  2 active torsions:
REMARK  status: ('A' for Active; 'I' for Inactive)
REMARK    1  A    between atoms: C_2  and  C_7
REMARK    2  A    between atoms: C_7  and  C_13
REMARK                            x       y       z     vdW  Elec       q    Type
REMARK                         _______ _______ _______ _____ _____    ______ ____
ROOT
ATOM      1  C   UNL     1      44.253  35.737  42.010  0.00  0.00    +0.000 C 
ATOM      2  H   UNL     1      45.094  35.528  41.289  0.00  0.00    +0.000 HD
ATOM      3  H   UNL     1      44.203  36.809  42.123  0.00  0.00    +0.000 HD
ENDROOT
BRANCH   1   4
ATOM      4  C   UNL     1      42.969  35.185  41.566  0.00  0.00    +0.000 A 
ATOM      5  C   UNL     1      42.061  34.623  42.441  0.00  0.00    +0.000 A 
ATOM      6  H   UNL     1      42.285  34.601  43.516  0.00  0.00    +0.000 HD
ATOM      7  C   UNL     1      40.846  34.066  42.047  0.00  0.00    +0.000 A 
ATOM      8  C   UNL     1      40.516  34.073  40.685  0.00  0.00    +0.000 A 
ATOM      9  C   UNL     1      41.386  34.623  39.768  0.00  0.00    +0.000 A 
ATOM     10  C   UNL     1      41.052  34.640  38.416  0.00  0.00    +0.000 A 
ATOM     11  C   UNL     1      41.952  35.209  37.553  0.00  0.00    +0.000 A 
ATOM     12  C   UNL     1      43.165  35.767  37.927  0.00  0.00    +0.000 A 
ATOM     13  C   UNL     1      43.448  35.723  39.294  0.00  0.00    +0.000 A 
ATOM     14  C   UNL     1      42.581  35.160  40.237  0.00  0.00    +0.000 A 
ENDBRANCH   1   4
BRANCH   1  16
ATOM     15  C   UNL     1      44.386  35.773  44.434  0.00  0.00    +0.000 A 
ATOM     16  C   UNL     1      44.677  35.042  43.261  0.00  0.00    +0.000 A 
ATOM     17  C   UNL     1      45.296  33.818  43.388  0.00  0.00    +0.000 A 
ATOM     18  N   UNL     1      45.584  33.398  44.633  0.00  0.00    +0.000 NA
ATOM     19  C   UNL     1      45.308  34.091  45.746  0.00  0.00    +0.000 A 
ATOM     20  N   UNL     1      44.696  35.306  45.664  0.00  0.00    +0.000 NA
ATOM     21  H   UNL     1      43.895  36.753  44.408  0.00  0.00    +0.000 HD
ATOM     22  H   UNL     1      45.488  33.311  42.463  0.00  0.00    +0.000 HD
ATOM     23  H   UNL     1      45.550  33.734  46.737  0.00  0.00    +0.000 HD
ENDBRANCH   1  16
TORSDOF 2
