REMARK  Name = 
REMARK  3 active torsions:
REMARK  status: ('A' for Active; 'I' for Inactive)
REMARK    1  A    between atoms: C_2  and  C_7
REMARK    2  A    between atoms: C_9  and  C_10
REMARK    3  A    between atoms: C_10  and  C_20
REMARK                            x       y       z     vdW  Elec       q    Type
REMARK                         _______ _______ _______ _____ _____    ______ ____
ROOT
ATOM      1  C   UNL     1      47.580  33.801  41.579  0.00  0.00    +0.000 C 
ATOM      2  C   UNL     1      48.060  34.742  40.596  0.00  0.00    +0.000 C 
ATOM      3  C   UNL     1      49.046  34.235  41.603  0.00  0.00    +0.000 C 
ATOM      4  H   UNL     1      47.494  32.700  41.379  0.00  0.00    +0.000 HD
ATOM      5  H   UNL     1      48.133  34.418  39.546  0.00  0.00    +0.000 HD
ATOM      6  H   UNL     1      47.705  35.805  40.672  0.00  0.00    +0.000 HD
ATOM      7  H   UNL     1      49.813  33.555  41.156  0.00  0.00    +0.000 HD
ENDROOT
BRANCH   1   9
ATOM      8  C   UNL     1      45.968  35.414  42.639  0.00  0.00    +0.000 A 
ATOM      9  C   UNL     1      46.722  34.204  42.718  0.00  0.00    +0.000 A 
ATOM     10  C   UNL     1      46.639  33.440  43.868  0.00  0.00    +0.000 A 
ATOM     11  N   UNL     1      45.834  33.887  44.878  0.00  0.00    +0.000 NA
ATOM     12  C   UNL     1      45.123  35.049  44.777  0.00  0.00    +0.000 A 
ATOM     13  N   UNL     1      45.184  35.824  43.654  0.00  0.00    +0.000 NA
ATOM     14  H   UNL     1      46.002  36.042  41.760  0.00  0.00    +0.000 HD
ATOM     15  H   UNL     1      47.207  32.525  43.931  0.00  0.00    +0.000 HD
ATOM     16  H   UNL     1      44.526  35.278  45.656  0.00  0.00    +0.000 HD
ENDBRANCH   1   9
BRANCH   3  17
ATOM     17  C   UNL     1      49.520  35.111  42.694  0.00  0.00    +0.000 C 
ATOM     18  H   UNL     1      49.397  34.608  43.673  0.00  0.00    +0.000 HD
ATOM     19  H   UNL     1      48.943  36.062  42.793  0.00  0.00    +0.000 HD
BRANCH  17  20
ATOM     20  C   UNL     1      50.982  35.423  42.553  0.00  0.00    +0.000 A 
ATOM     21  C   UNL     1      51.448  36.719  42.687  0.00  0.00    +0.000 A 
ATOM     22  H   UNL     1      50.782  37.542  42.897  0.00  0.00    +0.000 HD
ATOM     23  C   UNL     1      52.816  36.918  42.538  0.00  0.00    +0.000 A 
ATOM     24  C   UNL     1      53.715  35.895  42.267  0.00  0.00    +0.000 A 
ATOM     25  C   UNL     1      53.243  34.623  42.138  0.00  0.00    +0.000 A 
ATOM     26  C   UNL     1      54.114  33.580  41.868  0.00  0.00    +0.000 A 
ATOM     27  C   UNL     1      53.671  32.288  41.733  0.00  0.00    +0.000 A 
ATOM     28  C   UNL     1      52.317  32.031  41.871  0.00  0.00    +0.000 A 
ATOM     29  C   UNL     1      51.470  33.090  42.139  0.00  0.00    +0.000 A 
ATOM     30  C   UNL     1      51.882  34.397  42.281  0.00  0.00    +0.000 A 
ENDBRANCH  17  20
ENDBRANCH   3  17
TORSDOF 3
