
 OpenBabel03242512313D

 40 43  0  0  1  0  0  0  0  0999 V2000
   47.1990   31.7260   47.2720 C   0  0  1  0  0  0  0  0  0  0  0  0
   47.8550   32.2720   48.5480 C   0  0  0  0  0  0  0  0  0  0  0  0
   49.0660   31.4590   48.8850 C   0  0  0  0  0  0  0  0  0  0  0  0
   48.7180   30.0160   48.9580 C   0  0  0  0  0  0  0  0  0  0  0  0
   48.0330   29.5180   47.7340 C   0  0  0  0  0  0  0  0  0  0  0  0
   46.7130   30.3270   47.5920 C   0  0  2  0  0  0  0  0  0  0  0  0
   47.8570   31.6580   46.4100 H   0  0  0  0  0  0  0  0  0  0  0  0
   48.0410   33.3530   48.4860 H   0  0  0  0  0  0  0  0  0  0  0  0
   47.1090   32.0820   49.3610 H   0  0  0  0  0  0  0  0  0  0  0  0
   49.9080   31.5980   48.1900 H   0  0  0  0  0  0  0  0  0  0  0  0
   49.3690   31.7710   49.9250 H   0  0  0  0  0  0  0  0  0  0  0  0
   49.6810   29.4410   49.0570 H   0  0  0  0  0  0  0  0  0  0  0  0
   48.1140   29.7200   49.8360 H   0  0  0  0  0  0  0  0  0  0  0  0
   47.7590   28.4640   47.8880 H   0  0  0  0  0  0  0  0  0  0  0  0
   48.6700   29.6820   46.8590 H   0  0  0  0  0  0  0  0  0  0  0  0
   46.3350   30.2780   48.6520 H   0  0  0  0  0  0  0  0  0  0  0  0
   45.8560   29.6640   46.6360 C   0  0  0  0  0  0  0  0  0  0  0  0
   45.7940   30.1130   45.3080 C   0  0  0  0  0  0  0  0  0  0  0  0
   46.3710   30.9960   45.0350 H   0  0  0  0  0  0  0  0  0  0  0  0
   45.0610   29.5290   44.2950 C   0  0  0  0  0  0  0  0  0  0  0  0
   44.3190   28.4120   44.5870 C   0  0  0  0  0  0  0  0  0  0  0  0
   44.3210   27.9120   45.8530 C   0  0  0  0  0  0  0  0  0  0  0  0
   43.5710   26.7890   46.1470 C   0  0  0  0  0  0  0  0  0  0  0  0
   43.5450   26.2510   47.4270 C   0  0  0  0  0  0  0  0  0  0  0  0
   44.3130   26.8960   48.4020 C   0  0  0  0  0  0  0  0  0  0  0  0
   45.0400   27.9990   48.0760 C   0  0  0  0  0  0  0  0  0  0  0  0
   45.0750   28.5410   46.8220 C   0  0  0  0  0  0  0  0  0  0  0  0
   46.0830   32.6380   46.9140 C   0  0  0  0  0  0  0  0  0  0  0  0
   45.1810   32.6240   47.7920 O   0  0  0  0  0  0  0  0  0  0  0  0
   44.9130   35.0440   44.4860 C   0  0  0  0  0  0  0  0  0  0  0  0
   45.8580   34.9580   43.4490 C   0  0  0  0  0  0  0  0  0  0  0  0
   46.9160   34.0680   43.5910 C   0  0  0  0  0  0  0  0  0  0  0  0
   46.9360   33.3540   44.7380 N   0  0  0  0  0  0  0  0  0  0  0  0
   46.0550   33.4280   45.7140 C   0  0  0  0  0  0  0  0  0  0  0  0
   45.0110   34.2900   45.6020 N   0  0  0  0  0  0  0  0  0  0  0  0
   43.8210   35.9490   44.3610 N   0  0  0  0  0  0  0  0  0  0  0  0
   45.7780   35.5660   42.5500 H   0  0  0  0  0  0  0  0  0  0  0  0
   47.6620   33.9620   42.8350 H   0  0  0  0  0  0  0  0  0  0  0  0
   43.3200   35.9410   43.4310 H   0  0  0  0  0  0  0  0  0  0  0  0
   43.4980   36.5910   45.0980 H   0  0  0  0  0  0  0  0  0  0  0  0
  1  7  1  6  0  0  0
  1  6  1  0  0  0  0
  1  2  1  0  0  0  0
  2  3  1  0  0  0  0
  2  9  1  0  0  0  0
  3  4  1  0  0  0  0
  3 11  1  0  0  0  0
  4 12  1  0  0  0  0
  4 13  1  0  0  0  0
  5 14  1  0  0  0  0
  5  4  1  0  0  0  0
  6  5  1  0  0  0  0
  6 16  1  1  0  0  0
  8  2  1  0  0  0  0
 10  3  1  0  0  0  0
 15  5  1  0  0  0  0
 17 27  1  0  0  0  0
 17  6  1  0  0  0  0
 18 17  2  0  0  0  0
 19 18  1  0  0  0  0
 20 21  2  0  0  0  0
 20 18  1  0  0  0  0
 21 22  1  0  0  0  0
 22 23  2  0  0  0  0
 22 27  1  0  0  0  0
 23 24  1  0  0  0  0
 24 25  2  0  0  0  0
 26 25  1  0  0  0  0
 27 26  2  0  0  0  0
 28  1  1  0  0  0  0
 28 29  2  0  0  0  0
 30 35  1  0  0  0  0
 31 32  1  0  0  0  0
 31 30  2  0  0  0  0
 32 33  2  0  0  0  0
 33 34  1  0  0  0  0
 34 28  1  0  0  0  0
 35 34  2  0  0  0  0
 36 30  1  0  0  0  0
 36 40  1  0  0  0  0
 37 31  1  0  0  0  0
 38 32  1  0  0  0  0
 39 36  1  0  0  0  0
M  END
>  <minimizedAffinity>
-6.48936224

>  <minimizedRMSD>
2.42242479

$$$$
