
 OpenBabel03252503133D

 36 40  0  0  0  0  0  0  0  0999 V2000
   46.3270   34.7160   41.8650 C   0  0  0  0  0  0  0  0  0  0  0  0
   47.5570   34.9950   41.7670 O   0  0  0  0  0  0  0  0  0  0  0  0
   45.1290   36.0570   43.5370 C   0  0  0  0  0  0  0  0  0  0  0  0
   45.7620   34.8530   43.1650 C   0  0  0  0  0  0  0  0  0  0  0  0
   45.7740   33.8750   44.1390 C   0  0  0  0  0  0  0  0  0  0  0  0
   45.2190   34.0570   45.3560 N   0  0  0  0  0  0  0  0  0  0  0  0
   44.6200   35.2310   45.6720 C   0  0  0  0  0  0  0  0  0  0  0  0
   44.5770   36.2260   44.7620 N   0  0  0  0  0  0  0  0  0  0  0  0
   45.0720   36.8880   42.8310 H   0  0  0  0  0  0  0  0  0  0  0  0
   44.1770   35.3760   46.6440 H   0  0  0  0  0  0  0  0  0  0  0  0
   46.3910   32.6460   43.8540 C   0  0  0  0  0  0  0  0  0  0  0  0
   47.6550   32.1520   43.9820 C   0  0  0  0  0  0  0  0  0  0  0  0
   48.0090   30.9270   43.6410 C   0  0  0  0  0  0  0  0  0  0  0  0
   47.0120   30.1440   43.1320 C   0  0  0  0  0  0  0  0  0  0  0  0
   45.5300   31.2490   43.1650 S   0  0  0  0  0  0  0  0  0  0  0  0
   48.3830   32.8740   44.4060 H   0  0  0  0  0  0  0  0  0  0  0  0
   48.9860   30.4740   43.7160 H   0  0  0  0  0  0  0  0  0  0  0  0
   47.0170   29.0920   42.7680 H   0  0  0  0  0  0  0  0  0  0  0  0
   45.4750   34.2700   40.7250 C   0  0  0  0  0  0  0  0  0  0  0  0
   44.1480   34.5400   40.5270 C   0  0  0  0  0  0  0  0  0  0  0  0
   43.8180   33.9320   39.3780 N   0  0  0  0  0  0  0  0  0  0  0  0
   44.9020   33.2980   38.8720 C   0  0  0  0  0  0  0  0  0  0  0  0
   45.8970   33.5220   39.7140 N   0  0  0  0  0  0  0  0  0  0  0  0
   43.6000   35.1360   41.2280 H   0  0  0  0  0  0  0  0  0  0  0  0
   42.8400   34.0260   39.0610 H   0  0  0  0  0  0  0  0  0  0  0  0
   44.7300   32.5790   37.6180 C   0  0  0  0  0  0  0  0  0  0  0  0
   45.5450   32.7940   36.5290 C   0  0  0  0  0  0  0  0  0  0  0  0
   46.3550   33.5090   36.5450 H   0  0  0  0  0  0  0  0  0  0  0  0
   45.4250   32.1420   35.3220 C   0  0  0  0  0  3  0  0  0  0  0  0
   44.4390   31.2040   35.1510 C   0  0  0  0  0  3  0  0  0  0  0  0
   43.5970   30.9430   36.1960 C   0  0  0  0  0  0  0  0  0  0  0  0
   42.6070   30.0000   36.0210 C   0  0  0  0  0  3  0  0  0  0  0  0
   41.7300   29.6940   37.0300 C   0  0  0  0  0  3  0  0  0  0  0  0
   41.8650   30.3660   38.2480 C   0  0  0  0  0  3  0  0  0  0  0  0
   42.8750   31.2960   38.3590 C   0  0  0  0  0  3  0  0  0  0  0  0
   43.7690   31.6270   37.3710 C   0  0  0  0  0  0  0  0  0  0  0  0
  1  4  1  0  0  0  0
  2  1  2  0  0  0  0
  3  8  1  0  0  0  0
  4  3  2  0  0  0  0
  4  5  1  0  0  0  0
  5  6  2  0  0  0  0
  6  7  1  0  0  0  0
  7 10  1  0  0  0  0
  8  7  2  0  0  0  0
  9  3  1  0  0  0  0
 11 12  2  0  0  0  0
 11  5  1  0  0  0  0
 12 16  1  0  0  0  0
 13 17  1  0  0  0  0
 13 12  1  0  0  0  0
 14 15  1  0  0  0  0
 14 13  2  0  0  0  0
 15 11  1  0  0  0  0
 18 14  1  0  0  0  0
 19  1  1  0  0  0  0
 20 19  2  0  0  0  0
 20 24  1  0  0  0  0
 21 20  1  0  0  0  0
 22 21  1  0  0  0  0
 22 23  2  0  0  0  0
 23 19  1  0  0  0  0
 25 21  1  0  0  0  0
 26 22  1  0  0  0  0
 27 28  1  0  0  0  0
 27 26  2  0  0  0  0
 29 27  1  0  0  0  0
 30 29  2  0  0  0  0
 30 31  1  0  0  0  0
 31 36  1  0  0  0  0
 32 31  2  0  0  0  0
 32 33  1  0  0  0  0
 33 34  2  0  0  0  0
 34 35  1  0  0  0  0
 36 26  1  0  0  0  0
 36 35  2  0  0  0  0
M  END
>  <minimizedAffinity>
-5.38495016

>  <minimizedRMSD>
0.524881065

$$$$
