
 OpenBabel03242511093D

 45 50  0  0  1  0  0  0  0  0999 V2000
   46.3600   32.3900   43.9160 C   0  0  0  0  0  0  0  0  0  0  0  0
   46.4380   31.7010   45.1230 C   0  0  0  0  0  0  0  0  0  0  0  0
   46.0040   32.2260   46.3320 C   0  0  0  0  0  0  0  0  0  0  0  0
   45.4580   33.5000   46.3800 C   0  0  0  0  0  0  0  0  0  0  0  0
   45.3670   34.1970   45.2150 C   0  0  0  0  0  0  0  0  0  0  0  0
   44.8250   35.4630   45.2490 C   0  0  0  0  0  0  0  0  0  0  0  0
   44.6950   36.2350   44.1020 C   0  0  0  0  0  0  0  0  0  0  0  0
   45.1410   35.6700   42.9110 C   0  0  0  0  0  0  0  0  0  0  0  0
   45.6820   34.3920   42.9150 C   0  0  0  0  0  0  0  0  0  0  0  0
   45.8080   33.6420   44.0430 C   0  0  0  0  0  0  0  0  0  0  0  0
   46.8470   30.7060   45.1850 H   0  0  0  0  0  0  0  0  0  0  0  0
   46.0850   31.6530   47.2550 H   0  0  0  0  0  0  0  0  0  0  0  0
   45.1380   33.8570   47.3450 H   0  0  0  0  0  0  0  0  0  0  0  0
   44.4910   35.8570   46.2110 H   0  0  0  0  0  0  0  0  0  0  0  0
   44.2540   37.2160   44.2500 H   0  0  0  0  0  0  0  0  0  0  0  0
   44.9850   36.3650   42.0980 H   0  0  0  0  0  0  0  0  0  0  0  0
   46.0170   34.0820   41.5380 C   0  0  0  0  0  0  0  0  0  0  0  0
   47.1870   34.1920   40.8130 C   0  0  0  0  0  0  0  0  0  0  0  0
   47.9980   34.5600   41.4490 H   0  0  0  0  0  0  0  0  0  0  0  0
   47.2740   33.8790   39.4770 C   0  0  0  0  0  3  0  0  0  0  0  0
   46.1820   33.4290   38.7680 C   0  0  0  0  0  3  0  0  0  0  0  0
   44.9950   33.3070   39.4590 C   0  0  0  0  0  0  0  0  0  0  0  0
   43.9290   32.8550   38.7120 C   0  0  0  0  0  3  0  0  0  0  0  0
   42.7050   32.7040   39.3260 C   0  0  0  0  0  3  0  0  0  0  0  0
   42.5570   33.0020   40.6640 C   0  0  0  0  0  3  0  0  0  0  0  0
   43.6640   33.4490   41.3530 C   0  0  0  0  0  3  0  0  0  0  0  0
   44.9150   33.6220   40.7980 C   0  0  0  0  0  0  0  0  0  0  0  0
   46.8320   31.7810   42.7440 N   0  0  0  0  0  0  0  0  0  0  0  0
   46.4000   32.0030   41.8200 H   0  0  0  0  0  0  0  0  0  0  0  0
   49.3020   31.1500   42.6680 C   0  0  1  0  0  0  0  0  0  0  0  0
   48.6250   30.5360   41.4630 C   0  0  0  0  0  0  0  0  0  0  0  0
   47.8910   30.8130   42.7740 C   0  0  2  0  0  0  0  0  0  0  0  0
   49.7260   32.1500   42.4070 H   0  0  0  0  0  0  0  0  0  0  0  0
   48.3910   31.1550   40.5940 H   0  0  0  0  0  0  0  0  0  0  0  0
   48.8650   29.4740   41.2060 H   0  0  0  0  0  0  0  0  0  0  0  0
   47.6700   29.8950   43.3850 H   0  0  0  0  0  0  0  0  0  0  0  0
   50.8290   28.7810   45.0930 C   0  0  0  0  0  0  0  0  0  0  0  0
   52.2090   28.8940   44.7570 C   0  0  0  0  0  0  0  0  0  0  0  0
   52.5750   29.7730   43.7030 C   0  0  0  0  0  0  0  0  0  0  0  0
   51.6260   30.4620   43.0610 N   0  0  0  0  0  0  0  0  0  0  0  0
   50.3170   30.3310   43.4060 C   0  0  0  0  0  0  0  0  0  0  0  0
   49.9140   29.4930   44.4190 N   0  0  0  0  0  0  0  0  0  0  0  0
   50.5600   28.0990   45.9090 H   0  0  0  0  0  0  0  0  0  0  0  0
   52.9640   28.3400   45.2760 H   0  0  0  0  0  0  0  0  0  0  0  0
   53.6260   29.8650   43.4390 H   0  0  0  0  0  0  0  0  0  0  0  0
  1 10  2  0  0  0  0
  1  2  1  0  0  0  0
  2 11  1  0  0  0  0
  2  3  2  0  0  0  0
  3  4  1  0  0  0  0
  3 12  1  0  0  0  0
  4 13  1  0  0  0  0
  5  6  1  0  0  0  0
  5  4  2  0  0  0  0
  6 14  1  0  0  0  0
  7 15  1  0  0  0  0
  7  6  2  0  0  0  0
  8  9  2  0  0  0  0
  8  7  1  0  0  0  0
  9 10  1  0  0  0  0
 10  5  1  0  0  0  0
 16  8  1  0  0  0  0
 17  9  1  0  0  0  0
 18 19  1  0  0  0  0
 18 17  1  0  0  0  0
 20 18  2  0  0  0  0
 21 22  2  0  0  0  0
 21 20  1  0  0  0  0
 22 27  1  0  0  0  0
 23 24  2  0  0  0  0
 23 22  1  0  0  0  0
 24 25  1  0  0  0  0
 25 26  2  0  0  0  0
 27 26  1  0  0  0  0
 27 17  2  0  0  0  0
 28 32  1  0  0  0  0
 28  1  1  0  0  0  0
 29 28  1  0  0  0  0
 30 33  1  6  0  0  0
 30 32  1  0  0  0  0
 30 41  1  0  0  0  0
 31 30  1  0  0  0  0
 31 32  1  0  0  0  0
 32 36  1  1  0  0  0
 34 31  1  0  0  0  0
 35 31  1  0  0  0  0
 37 43  1  0  0  0  0
 38 37  1  0  0  0  0
 38 44  1  0  0  0  0
 39 38  2  0  0  0  0
 40 41  2  0  0  0  0
 40 39  1  0  0  0  0
 41 42  1  0  0  0  0
 42 37  2  0  0  0  0
 45 39  1  0  0  0  0
M  END
>  <minimizedAffinity>
-5.60167265

>  <minimizedRMSD>
2.1476779

$$$$
