
 OpenBabel03242515243D

 23 25  0  0  0  0  0  0  0  0999 V2000
   37.8580   28.9100   43.3600 C   0  0  0  0  0  0  0  0  0  0  0  0
   36.9230   29.1290   43.9500 H   0  0  0  0  0  0  0  0  0  0  0  0
   38.6900   29.2170   43.9750 H   0  0  0  0  0  0  0  0  0  0  0  0
   37.9720   27.5000   42.9720 C   0  0  0  0  0  0  0  0  0  0  0  0
   36.9000   26.7710   42.5010 C   0  0  0  0  0  0  0  0  0  0  0  0
   35.9210   27.2580   42.3830 H   0  0  0  0  0  0  0  0  0  0  0  0
   36.9700   25.4240   42.1510 C   0  0  0  0  0  3  0  0  0  0  0  0
   38.1970   24.7620   42.2810 C   0  0  0  0  0  3  0  0  0  0  0  0
   39.3020   25.4420   42.7470 C   0  0  0  0  0  0  0  0  0  0  0  0
   40.5240   24.7850   42.8660 C   0  0  0  0  0  3  0  0  0  0  0  0
   41.5880   25.5160   43.3250 C   0  0  0  0  0  3  0  0  0  0  0  0
   41.5380   26.8570   43.6780 C   0  0  0  0  0  3  0  0  0  0  0  0
   40.2880   27.4640   43.5390 C   0  0  0  0  0  3  0  0  0  0  0  0
   39.1540   26.7850   43.0770 C   0  0  0  0  0  0  0  0  0  0  0  0
   38.9300   30.2650   41.6550 C   0  0  0  0  0  0  0  0  0  0  0  0
   37.7070   29.7440   42.1320 C   0  0  0  0  0  0  0  0  0  0  0  0
   36.5520   30.0470   41.4450 C   0  0  0  0  0  0  0  0  0  0  0  0
   36.6690   30.8270   40.3550 N   0  0  0  0  0  0  0  0  0  0  0  0
   37.8290   31.3220   39.9020 C   0  0  0  0  0  0  0  0  0  0  0  0
   38.9940   31.0460   40.5530 N   0  0  0  0  0  0  0  0  0  0  0  0
   39.8860   30.0650   42.1510 H   0  0  0  0  0  0  0  0  0  0  0  0
   35.6580   29.6210   41.8540 H   0  0  0  0  0  0  0  0  0  0  0  0
   37.8990   31.9490   39.0240 H   0  0  0  0  0  0  0  0  0  0  0  0
  1  2  1  0  0  0  0
  1  3  1  0  0  0  0
  4 14  1  0  0  0  0
  4  1  1  0  0  0  0
  5  4  2  0  0  0  0
  6  5  1  0  0  0  0
  7  8  2  0  0  0  0
  7  5  1  0  0  0  0
  8  9  1  0  0  0  0
  9 10  2  0  0  0  0
  9 14  1  0  0  0  0
 10 11  1  0  0  0  0
 11 12  2  0  0  0  0
 13 12  1  0  0  0  0
 14 13  2  0  0  0  0
 15 16  1  0  0  0  0
 15 21  1  0  0  0  0
 16  1  1  0  0  0  0
 17 22  1  0  0  0  0
 17 16  2  0  0  0  0
 18 17  1  0  0  0  0
 19 18  2  0  0  0  0
 19 20  1  0  0  0  0
 20 15  2  0  0  0  0
 23 19  1  0  0  0  0
M  END
>  <minimizedAffinity>
-5.26742172

$$$$

 OpenBabel03242515243D

 23 25  0  0  0  0  0  0  0  0999 V2000
   35.5100   28.8570   40.8770 C   0  0  0  0  0  0  0  0  0  0  0  0
   34.7800   29.1930   41.6670 H   0  0  0  0  0  0  0  0  0  0  0  0
   34.9500   28.2580   40.1750 H   0  0  0  0  0  0  0  0  0  0  0  0
   36.1840   29.9750   40.2080 C   0  0  0  0  0  0  0  0  0  0  0  0
   36.6130   31.0960   40.8880 C   0  0  0  0  0  0  0  0  0  0  0  0
   36.4740   31.1580   41.9770 H   0  0  0  0  0  0  0  0  0  0  0  0
   37.2310   32.1850   40.2780 C   0  0  0  0  0  3  0  0  0  0  0  0
   37.4340   32.1500   38.8920 C   0  0  0  0  0  3  0  0  0  0  0  0
   37.0250   31.0540   38.1620 C   0  0  0  0  0  0  0  0  0  0  0  0
   37.2350   31.0160   36.7860 C   0  0  0  0  0  3  0  0  0  0  0  0
   36.8160   29.8960   36.1170 C   0  0  0  0  0  3  0  0  0  0  0  0
   36.2000   28.8030   36.7080 C   0  0  0  0  0  3  0  0  0  0  0  0
   36.0140   28.8960   38.0890 C   0  0  0  0  0  3  0  0  0  0  0  0
   36.4140   30.0050   38.8420 C   0  0  0  0  0  0  0  0  0  0  0  0
   36.9690   26.9170   40.9470 C   0  0  0  0  0  0  0  0  0  0  0  0
   36.5190   28.0640   41.6390 C   0  0  0  0  0  0  0  0  0  0  0  0
   37.0340   28.3180   42.8910 C   0  0  0  0  0  0  0  0  0  0  0  0
   37.9390   27.4490   43.3740 N   0  0  0  0  0  0  0  0  0  0  0  0
   38.3670   26.3620   42.7190 C   0  0  0  0  0  0  0  0  0  0  0  0
   37.8820   26.0740   41.4780 N   0  0  0  0  0  0  0  0  0  0  0  0
   36.6020   26.6530   39.9480 H   0  0  0  0  0  0  0  0  0  0  0  0
   36.6550   29.2030   43.3630 H   0  0  0  0  0  0  0  0  0  0  0  0
   39.0950   25.6760   43.1280 H   0  0  0  0  0  0  0  0  0  0  0  0
  1 16  1  0  0  0  0
  1  2  1  0  0  0  0
  3  1  1  0  0  0  0
  4  1  1  0  0  0  0
  4  5  1  0  0  0  0
  5  6  1  0  0  0  0
  7  5  2  0  0  0  0
  8  7  1  0  0  0  0
  9 14  1  0  0  0  0
  9  8  2  0  0  0  0
 10  9  1  0  0  0  0
 11 12  1  0  0  0  0
 11 10  2  0  0  0  0
 12 13  2  0  0  0  0
 13 14  1  0  0  0  0
 14  4  2  0  0  0  0
 15 20  2  0  0  0  0
 15 16  1  0  0  0  0
 16 17  2  0  0  0  0
 17 22  1  0  0  0  0
 17 18  1  0  0  0  0
 19 23  1  0  0  0  0
 19 18  2  0  0  0  0
 20 19  1  0  0  0  0
 21 15  1  0  0  0  0
M  END
>  <minimizedAffinity>
-5.16717911

$$$$

 OpenBabel03242515243D

 23 25  0  0  0  0  0  0  0  0999 V2000
   36.4090   29.6920   40.0660 C   0  0  0  0  0  0  0  0  0  0  0  0
   36.3260   29.1070   39.1060 H   0  0  0  0  0  0  0  0  0  0  0  0
   35.4500   30.1610   40.2250 H   0  0  0  0  0  0  0  0  0  0  0  0
   36.7940   28.8600   41.2110 C   0  0  0  0  0  0  0  0  0  0  0  0
   37.1480   29.3950   42.4320 C   0  0  0  0  0  0  0  0  0  0  0  0
   37.1220   30.4850   42.5750 H   0  0  0  0  0  0  0  0  0  0  0  0
   37.5450   28.6330   43.5280 C   0  0  0  0  0  3  0  0  0  0  0  0
   37.5900   27.2390   43.3940 C   0  0  0  0  0  3  0  0  0  0  0  0
   37.2470   26.6500   42.1960 C   0  0  0  0  0  0  0  0  0  0  0  0
   37.2820   25.2640   42.0650 C   0  0  0  0  0  3  0  0  0  0  0  0
   36.9200   24.7370   40.8540 C   0  0  0  0  0  3  0  0  0  0  0  0
   36.5220   25.4800   39.7520 C   0  0  0  0  0  3  0  0  0  0  0  0
   36.5050   26.8630   39.9390 C   0  0  0  0  0  3  0  0  0  0  0  0
   36.8610   27.4770   41.1450 C   0  0  0  0  0  0  0  0  0  0  0  0
   37.1040   32.0170   39.9990 C   0  0  0  0  0  0  0  0  0  0  0  0
   37.4960   30.6760   39.7900 C   0  0  0  0  0  0  0  0  0  0  0  0
   38.7840   30.4280   39.3710 C   0  0  0  0  0  0  0  0  0  0  0  0
   39.5890   31.4900   39.1870 N   0  0  0  0  0  0  0  0  0  0  0  0
   39.2180   32.7620   39.3850 C   0  0  0  0  0  0  0  0  0  0  0  0
   37.9520   33.0510   39.7990 N   0  0  0  0  0  0  0  0  0  0  0  0
   36.0950   32.2880   40.3320 H   0  0  0  0  0  0  0  0  0  0  0  0
   39.0220   29.3920   39.2330 H   0  0  0  0  0  0  0  0  0  0  0  0
   39.8820   33.6000   39.2290 H   0  0  0  0  0  0  0  0  0  0  0  0
  1  3  1  0  0  0  0
  1  4  1  0  0  0  0
  2  1  1  0  0  0  0
  4  5  1  0  0  0  0
  5  6  1  0  0  0  0
  5  7  2  0  0  0  0
  8  7  1  0  0  0  0
  9  8  2  0  0  0  0
 10  9  1  0  0  0  0
 11 10  2  0  0  0  0
 12 13  2  0  0  0  0
 12 11  1  0  0  0  0
 13 14  1  0  0  0  0
 14  4  2  0  0  0  0
 14  9  1  0  0  0  0
 15 21  1  0  0  0  0
 16 15  2  0  0  0  0
 16  1  1  0  0  0  0
 17 16  1  0  0  0  0
 18 17  2  0  0  0  0
 18 19  1  0  0  0  0
 19 20  2  0  0  0  0
 20 15  1  0  0  0  0
 22 17  1  0  0  0  0
 23 19  1  0  0  0  0
M  END
>  <minimizedAffinity>
-5.13963175

$$$$

 OpenBabel03242515243D

 23 25  0  0  0  0  0  0  0  0999 V2000
   36.2700   28.1690   41.7400 C   0  0  0  0  0  0  0  0  0  0  0  0
   35.5880   27.5610   41.0800 H   0  0  0  0  0  0  0  0  0  0  0  0
   35.6570   28.5690   42.5320 H   0  0  0  0  0  0  0  0  0  0  0  0
   37.3920   27.3900   42.2740 C   0  0  0  0  0  0  0  0  0  0  0  0
   38.2970   27.9130   43.1730 C   0  0  0  0  0  0  0  0  0  0  0  0
   38.1720   28.9440   43.5320 H   0  0  0  0  0  0  0  0  0  0  0  0
   39.3890   27.2080   43.6770 C   0  0  0  0  0  3  0  0  0  0  0  0
   39.5870   25.8880   43.2510 C   0  0  0  0  0  3  0  0  0  0  0  0
   38.7130   25.3140   42.3520 C   0  0  0  0  0  0  0  0  0  0  0  0
   38.9050   23.9990   41.9360 C   0  0  0  0  0  3  0  0  0  0  0  0
   37.9980   23.4810   41.0510 C   0  0  0  0  0  3  0  0  0  0  0  0
   36.9060   24.1670   40.5390 C   0  0  0  0  0  3  0  0  0  0  0  0
   36.7630   25.4820   40.9900 C   0  0  0  0  0  3  0  0  0  0  0  0
   37.6470   26.0820   41.8940 C   0  0  0  0  0  0  0  0  0  0  0  0
   36.4360   30.5330   41.2140 C   0  0  0  0  0  0  0  0  0  0  0  0
   36.7990   29.2240   40.8270 C   0  0  0  0  0  0  0  0  0  0  0  0
   37.5680   29.0650   39.6950 C   0  0  0  0  0  0  0  0  0  0  0  0
   37.9250   30.1780   39.0300 N   0  0  0  0  0  0  0  0  0  0  0  0
   37.5820   31.4200   39.3970 C   0  0  0  0  0  0  0  0  0  0  0  0
   36.8220   31.6210   40.5100 N   0  0  0  0  0  0  0  0  0  0  0  0
   35.8270   30.7340   42.1030 H   0  0  0  0  0  0  0  0  0  0  0  0
   37.8120   28.0490   39.4540 H   0  0  0  0  0  0  0  0  0  0  0  0
   37.8790   32.3010   38.8450 H   0  0  0  0  0  0  0  0  0  0  0  0
  1  4  1  0  0  0  0
  1  3  1  0  0  0  0
  2  1  1  0  0  0  0
  4  5  1  0  0  0  0
  5  6  1  0  0  0  0
  5  7  2  0  0  0  0
  8  7  1  0  0  0  0
  9  8  2  0  0  0  0
 10  9  1  0  0  0  0
 11 10  2  0  0  0  0
 12 13  2  0  0  0  0
 12 11  1  0  0  0  0
 13 14  1  0  0  0  0
 14  4  2  0  0  0  0
 14  9  1  0  0  0  0
 15 21  1  0  0  0  0
 16 15  1  0  0  0  0
 16  1  1  0  0  0  0
 17 16  2  0  0  0  0
 18 19  2  0  0  0  0
 18 17  1  0  0  0  0
 19 20  1  0  0  0  0
 20 15  2  0  0  0  0
 22 17  1  0  0  0  0
 23 19  1  0  0  0  0
M  END
>  <minimizedAffinity>
-5.13229752

$$$$

 OpenBabel03242515243D

 23 25  0  0  0  0  0  0  0  0999 V2000
   36.1810   30.7140   41.0350 C   0  0  0  0  0  0  0  0  0  0  0  0
   35.2510   31.2980   40.7830 H   0  0  0  0  0  0  0  0  0  0  0  0
   36.1500   30.5280   42.0970 H   0  0  0  0  0  0  0  0  0  0  0  0
   36.2950   29.4650   40.2750 C   0  0  0  0  0  0  0  0  0  0  0  0
   36.1230   29.4090   38.9080 C   0  0  0  0  0  0  0  0  0  0  0  0
   35.9150   30.3320   38.3490 H   0  0  0  0  0  0  0  0  0  0  0  0
   36.1960   28.2340   38.1630 C   0  0  0  0  0  3  0  0  0  0  0  0
   36.4620   27.0320   38.8320 C   0  0  0  0  0  3  0  0  0  0  0  0
   36.6430   27.0300   40.1990 C   0  0  0  0  0  0  0  0  0  0  0  0
   36.9170   25.8360   40.8620 C   0  0  0  0  0  3  0  0  0  0  0  0
   37.0980   25.8980   42.2190 C   0  0  0  0  0  3  0  0  0  0  0  0
   37.0270   27.0580   42.9770 C   0  0  0  0  0  3  0  0  0  0  0  0
   36.7500   28.2240   42.2600 C   0  0  0  0  0  3  0  0  0  0  0  0
   36.5540   28.2420   40.8750 C   0  0  0  0  0  0  0  0  0  0  0  0
   38.5470   31.2460   41.1640 C   0  0  0  0  0  0  0  0  0  0  0  0
   37.2930   31.6290   40.6390 C   0  0  0  0  0  0  0  0  0  0  0  0
   37.2280   32.7580   39.8530 C   0  0  0  0  0  0  0  0  0  0  0  0
   38.3750   33.4260   39.6360 N   0  0  0  0  0  0  0  0  0  0  0  0
   39.5650   33.0630   40.1340 C   0  0  0  0  0  0  0  0  0  0  0  0
   39.6720   31.9520   40.9160 N   0  0  0  0  0  0  0  0  0  0  0  0
   38.6720   30.3590   41.7970 H   0  0  0  0  0  0  0  0  0  0  0  0
   36.2500   32.9950   39.4830 H   0  0  0  0  0  0  0  0  0  0  0  0
   40.4750   33.6160   39.9470 H   0  0  0  0  0  0  0  0  0  0  0  0
  1  3  1  0  0  0  0
  2  1  1  0  0  0  0
  4 14  1  0  0  0  0
  4  1  1  0  0  0  0
  5  4  2  0  0  0  0
  6  5  1  0  0  0  0
  7  8  2  0  0  0  0
  7  5  1  0  0  0  0
  8  9  1  0  0  0  0
  9 10  2  0  0  0  0
  9 14  1  0  0  0  0
 10 11  1  0  0  0  0
 11 12  2  0  0  0  0
 13 12  1  0  0  0  0
 14 13  2  0  0  0  0
 15 21  1  0  0  0  0
 16  1  1  0  0  0  0
 16 15  2  0  0  0  0
 17 16  1  0  0  0  0
 18 17  2  0  0  0  0
 18 19  1  0  0  0  0
 19 20  2  0  0  0  0
 20 15  1  0  0  0  0
 22 17  1  0  0  0  0
 23 19  1  0  0  0  0
M  END
>  <minimizedAffinity>
-5.10736179

$$$$

 OpenBabel03242515243D

 23 25  0  0  0  0  0  0  0  0999 V2000
   37.3080   27.4860   43.1270 C   0  0  0  0  0  0  0  0  0  0  0  0
   38.2460   27.7200   43.7070 H   0  0  0  0  0  0  0  0  0  0  0  0
   36.5180   27.3700   43.8530 H   0  0  0  0  0  0  0  0  0  0  0  0
   36.9780   28.5150   42.1360 C   0  0  0  0  0  0  0  0  0  0  0  0
   35.8660   28.4340   41.3250 C   0  0  0  0  0  0  0  0  0  0  0  0
   35.1770   27.5840   41.4300 H   0  0  0  0  0  0  0  0  0  0  0  0
   35.5410   29.3800   40.3550 C   0  0  0  0  0  3  0  0  0  0  0  0
   36.3880   30.4830   40.1860 C   0  0  0  0  0  3  0  0  0  0  0  0
   37.5140   30.6150   40.9700 C   0  0  0  0  0  0  0  0  0  0  0  0
   38.3500   31.7170   40.8080 C   0  0  0  0  0  3  0  0  0  0  0  0
   39.4480   31.7980   41.6230 C   0  0  0  0  0  3  0  0  0  0  0  0
   39.7870   30.8660   42.5930 C   0  0  0  0  0  3  0  0  0  0  0  0
   38.9140   29.7820   42.7110 C   0  0  0  0  0  3  0  0  0  0  0  0
   37.7720   29.6290   41.9170 C   0  0  0  0  0  0  0  0  0  0  0  0
   38.9340   26.2000   41.8630 C   0  0  0  0  0  0  0  0  0  0  0  0
   37.6360   26.2130   42.4200 C   0  0  0  0  0  0  0  0  0  0  0  0
   36.8420   25.0990   42.2590 C   0  0  0  0  0  0  0  0  0  0  0  0
   37.3620   24.0640   41.5750 N   0  0  0  0  0  0  0  0  0  0  0  0
   38.5930   24.0510   41.0460 C   0  0  0  0  0  0  0  0  0  0  0  0
   39.4100   25.1330   41.1830 N   0  0  0  0  0  0  0  0  0  0  0  0
   39.6190   27.0510   41.9520 H   0  0  0  0  0  0  0  0  0  0  0  0
   35.8700   25.1680   42.7070 H   0  0  0  0  0  0  0  0  0  0  0  0
   38.9900   23.2080   40.4990 H   0  0  0  0  0  0  0  0  0  0  0  0
  1  2  1  0  0  0  0
  1  3  1  0  0  0  0
  4  1  1  0  0  0  0
  5  6  1  0  0  0  0
  5  4  2  0  0  0  0
  7  5  1  0  0  0  0
  8  7  2  0  0  0  0
  8  9  1  0  0  0  0
  9 14  1  0  0  0  0
 10  9  2  0  0  0  0
 10 11  1  0  0  0  0
 11 12  2  0  0  0  0
 12 13  1  0  0  0  0
 14  4  1  0  0  0  0
 14 13  2  0  0  0  0
 15 21  1  0  0  0  0
 15 16  1  0  0  0  0
 16  1  1  0  0  0  0
 17 16  2  0  0  0  0
 17 22  1  0  0  0  0
 18 17  1  0  0  0  0
 19 20  1  0  0  0  0
 19 18  2  0  0  0  0
 20 15  2  0  0  0  0
 23 19  1  0  0  0  0
M  END
>  <minimizedAffinity>
-5.07795763

$$$$

 OpenBabel03242515243D

 23 25  0  0  0  0  0  0  0  0999 V2000
   36.3380   30.2900   41.6450 C   0  0  0  0  0  0  0  0  0  0  0  0
   37.0390   31.1700   41.7210 H   0  0  0  0  0  0  0  0  0  0  0  0
   35.4650   30.5400   42.2270 H   0  0  0  0  0  0  0  0  0  0  0  0
   35.9840   29.9590   40.2610 C   0  0  0  0  0  0  0  0  0  0  0  0
   34.9470   29.1060   39.9440 C   0  0  0  0  0  0  0  0  0  0  0  0
   34.3390   28.6680   40.7480 H   0  0  0  0  0  0  0  0  0  0  0  0
   34.6040   28.7510   38.6410 C   0  0  0  0  0  3  0  0  0  0  0  0
   35.3490   29.2870   37.5830 C   0  0  0  0  0  3  0  0  0  0  0  0
   36.3960   30.1450   37.8420 C   0  0  0  0  0  0  0  0  0  0  0  0
   37.1300   30.6860   36.7890 C   0  0  0  0  0  3  0  0  0  0  0  0
   38.1520   31.5400   37.1080 C   0  0  0  0  0  3  0  0  0  0  0  0
   38.5080   31.9050   38.3980 C   0  0  0  0  0  3  0  0  0  0  0  0
   37.7390   31.3340   39.4140 C   0  0  0  0  0  3  0  0  0  0  0  0
   36.6790   30.4530   39.1690 C   0  0  0  0  0  0  0  0  0  0  0  0
   38.4670   29.4960   42.5020 C   0  0  0  0  0  0  0  0  0  0  0  0
   37.1210   29.1620   42.2310 C   0  0  0  0  0  0  0  0  0  0  0  0
   36.6900   27.8870   42.5220 C   0  0  0  0  0  0  0  0  0  0  0  0
   37.5900   27.0370   43.0500 N   0  0  0  0  0  0  0  0  0  0  0  0
   38.8660   27.3530   43.3070 C   0  0  0  0  0  0  0  0  0  0  0  0
   39.3320   28.6040   43.0340 N   0  0  0  0  0  0  0  0  0  0  0  0
   38.8770   30.4910   42.2960 H   0  0  0  0  0  0  0  0  0  0  0  0
   35.6600   27.6960   42.2970 H   0  0  0  0  0  0  0  0  0  0  0  0
   39.5720   26.6520   43.7310 H   0  0  0  0  0  0  0  0  0  0  0  0
  1  2  1  0  0  0  0
  1  3  1  0  0  0  0
  1 16  1  0  0  0  0
  4  1  1  0  0  0  0
  5  4  1  0  0  0  0
  5  6  1  0  0  0  0
  7  5  2  0  0  0  0
  8  9  2  0  0  0  0
  8  7  1  0  0  0  0
  9 14  1  0  0  0  0
 10 11  2  0  0  0  0
 10  9  1  0  0  0  0
 11 12  1  0  0  0  0
 12 13  2  0  0  0  0
 14 13  1  0  0  0  0
 14  4  2  0  0  0  0
 15 20  1  0  0  0  0
 16 15  2  0  0  0  0
 16 17  1  0  0  0  0
 17 18  2  0  0  0  0
 18 19  1  0  0  0  0
 19 23  1  0  0  0  0
 20 19  2  0  0  0  0
 21 15  1  0  0  0  0
 22 17  1  0  0  0  0
M  END
>  <minimizedAffinity>
-5.03722906

$$$$

 OpenBabel03242515243D

 23 25  0  0  0  0  0  0  0  0999 V2000
   37.1150   27.9030   42.9880 C   0  0  0  0  0  0  0  0  0  0  0  0
   36.4760   27.1690   43.5580 H   0  0  0  0  0  0  0  0  0  0  0  0
   36.8480   28.8860   43.3450 H   0  0  0  0  0  0  0  0  0  0  0  0
   38.5510   27.6490   43.1420 C   0  0  0  0  0  0  0  0  0  0  0  0
   39.0540   26.4120   43.4860 C   0  0  0  0  0  0  0  0  0  0  0  0
   38.3650   25.5670   43.6310 H   0  0  0  0  0  0  0  0  0  0  0  0
   40.4100   26.1470   43.6660 C   0  0  0  0  0  3  0  0  0  0  0  0
   41.3260   27.1920   43.4890 C   0  0  0  0  0  3  0  0  0  0  0  0
   40.8790   28.4490   43.1440 C   0  0  0  0  0  0  0  0  0  0  0  0
   41.7900   29.4860   42.9580 C   0  0  0  0  0  3  0  0  0  0  0  0
   41.2880   30.7100   42.6060 C   0  0  0  0  0  3  0  0  0  0  0  0
   39.9420   30.9930   42.4230 C   0  0  0  0  0  3  0  0  0  0  0  0
   39.0730   29.9170   42.6220 C   0  0  0  0  0  3  0  0  0  0  0  0
   39.5100   28.6370   42.9820 C   0  0  0  0  0  0  0  0  0  0  0  0
   35.9380   28.7200   41.0290 C   0  0  0  0  0  0  0  0  0  0  0  0
   36.7290   27.6800   41.5640 C   0  0  0  0  0  0  0  0  0  0  0  0
   37.0460   26.6130   40.7520 C   0  0  0  0  0  0  0  0  0  0  0  0
   36.5770   26.6360   39.4920 N   0  0  0  0  0  0  0  0  0  0  0  0
   35.8270   27.6230   38.9830 C   0  0  0  0  0  0  0  0  0  0  0  0
   35.4900   28.6960   39.7530 N   0  0  0  0  0  0  0  0  0  0  0  0
   35.6470   29.5980   41.6170 H   0  0  0  0  0  0  0  0  0  0  0  0
   37.6510   25.8580   41.2140 H   0  0  0  0  0  0  0  0  0  0  0  0
   35.4590   27.6190   37.9670 H   0  0  0  0  0  0  0  0  0  0  0  0
  1  4  1  0  0  0  0
  1  3  1  0  0  0  0
  1  2  1  0  0  0  0
  4  5  1  0  0  0  0
  5  6  1  0  0  0  0
  5  7  2  0  0  0  0
  8  7  1  0  0  0  0
  9  8  2  0  0  0  0
 10  9  1  0  0  0  0
 11 10  2  0  0  0  0
 12 11  1  0  0  0  0
 12 13  2  0  0  0  0
 13 14  1  0  0  0  0
 14  4  2  0  0  0  0
 14  9  1  0  0  0  0
 15 16  1  0  0  0  0
 15 21  1  0  0  0  0
 16  1  1  0  0  0  0
 17 22  1  0  0  0  0
 17 16  2  0  0  0  0
 18 17  1  0  0  0  0
 19 18  2  0  0  0  0
 19 20  1  0  0  0  0
 20 15  2  0  0  0  0
 23 19  1  0  0  0  0
M  END
>  <minimizedAffinity>
-5.00882101

$$$$

 OpenBabel03242515243D

 23 25  0  0  0  0  0  0  0  0999 V2000
   37.0250   24.2680   41.6310 C   0  0  0  0  0  0  0  0  0  0  0  0
   36.6400   23.4440   42.2960 H   0  0  0  0  0  0  0  0  0  0  0  0
   36.1650   24.8420   41.3220 H   0  0  0  0  0  0  0  0  0  0  0  0
   38.0250   25.1140   42.2890 C   0  0  0  0  0  0  0  0  0  0  0  0
   39.1530   24.5980   42.8910 C   0  0  0  0  0  0  0  0  0  0  0  0
   39.3370   23.5150   42.8630 H   0  0  0  0  0  0  0  0  0  0  0  0
   40.1070   25.3730   43.5480 C   0  0  0  0  0  3  0  0  0  0  0  0
   39.9180   26.7600   43.6060 C   0  0  0  0  0  3  0  0  0  0  0  0
   38.8080   27.3300   43.0220 C   0  0  0  0  0  0  0  0  0  0  0  0
   38.6260   28.7100   43.0710 C   0  0  0  0  0  3  0  0  0  0  0  0
   37.5090   29.2190   42.4630 C   0  0  0  0  0  3  0  0  0  0  0  0
   36.5490   28.4630   41.8050 C   0  0  0  0  0  3  0  0  0  0  0  0
   36.7820   27.0860   41.7860 C   0  0  0  0  0  3  0  0  0  0  0  0
   37.8990   26.4910   42.3840 C   0  0  0  0  0  0  0  0  0  0  0  0
   37.8810   24.3470   39.3600 C   0  0  0  0  0  0  0  0  0  0  0  0
   37.6700   23.5390   40.4990 C   0  0  0  0  0  0  0  0  0  0  0  0
   38.0630   22.2200   40.4500 C   0  0  0  0  0  0  0  0  0  0  0  0
   38.6270   21.7860   39.3080 N   0  0  0  0  0  0  0  0  0  0  0  0
   38.8280   22.5520   38.2270 C   0  0  0  0  0  0  0  0  0  0  0  0
   38.4540   23.8630   38.2350 N   0  0  0  0  0  0  0  0  0  0  0  0
   37.5930   25.4040   39.3290 H   0  0  0  0  0  0  0  0  0  0  0  0
   37.8790   21.6600   41.3450 H   0  0  0  0  0  0  0  0  0  0  0  0
   39.2820   22.1820   37.3190 H   0  0  0  0  0  0  0  0  0  0  0  0
  1  4  1  0  0  0  0
  1  2  1  0  0  0  0
  3  1  1  0  0  0  0
  4 14  2  0  0  0  0
  4  5  1  0  0  0  0
  5  7  2  0  0  0  0
  6  5  1  0  0  0  0
  7  8  1  0  0  0  0
  9 10  1  0  0  0  0
  9  8  2  0  0  0  0
 11 10  2  0  0  0  0
 12 11  1  0  0  0  0
 13 12  2  0  0  0  0
 13 14  1  0  0  0  0
 14  9  1  0  0  0  0
 15 16  1  0  0  0  0
 16  1  1  0  0  0  0
 17 16  2  0  0  0  0
 17 22  1  0  0  0  0
 18 17  1  0  0  0  0
 19 20  1  0  0  0  0
 19 18  2  0  0  0  0
 20 15  2  0  0  0  0
 21 15  1  0  0  0  0
 23 19  1  0  0  0  0
M  END
>  <minimizedAffinity>
-4.9922576

$$$$
