
 OpenBabel03252500523D

 37 40  0  0  0  0  0  0  0  0999 V2000
   35.5450   29.0640   39.3970 C   0  0  0  0  0  0  0  0  0  0  0  0
   34.3280   29.2720   39.5750 O   0  0  0  0  0  0  0  0  0  0  0  0
   37.0490   30.6730   38.3320 C   0  0  0  0  0  0  0  0  0  0  0  0
   36.4640   30.1940   39.4760 C   0  0  0  0  0  0  0  0  0  0  0  0
   36.7290   30.7750   40.7400 C   0  0  0  0  0  0  0  0  0  0  0  0
   37.5970   31.8370   40.7690 N   0  0  0  0  0  0  0  0  0  0  0  0
   38.1620   32.2920   39.6370 C   0  0  0  0  0  0  0  0  0  0  0  0
   37.8890   31.7170   38.4400 N   0  0  0  0  0  0  0  0  0  0  0  0
   36.8520   30.2380   37.3760 H   0  0  0  0  0  0  0  0  0  0  0  0
   36.2720   30.4060   41.6570 H   0  0  0  0  0  0  0  0  0  0  0  0
   39.0790   33.4160   39.6880 C   0  0  0  0  0  0  0  0  0  0  0  0
   38.7720   34.5890   40.2940 C   0  0  0  0  0  0  0  0  0  0  0  0
   39.6210   35.6590   40.3540 C   0  0  0  0  0  0  0  0  0  0  0  0
   40.8390   35.5050   39.7610 N   0  0  0  0  0  0  0  0  0  0  0  0
   41.1310   34.3620   39.1740 C   0  0  0  0  0  0  0  0  0  0  0  0
   40.3230   33.2880   39.0950 N   0  0  0  0  0  0  0  0  0  0  0  0
   37.7950   34.7050   40.7670 H   0  0  0  0  0  0  0  0  0  0  0  0
   39.3820   36.6000   40.8370 H   0  0  0  0  0  0  0  0  0  0  0  0
   42.1130   34.2530   38.7000 H   0  0  0  0  0  0  0  0  0  0  0  0
   35.7230   27.7360   39.1560 O   0  0  0  0  0  0  0  0  0  0  0  0
   36.9140   27.0720   39.3440 C   0  0  0  0  0  0  0  0  0  0  0  0
   37.0600   26.5000   38.3670 H   0  0  0  0  0  0  0  0  0  0  0  0
   37.8380   27.6380   39.4250 H   0  0  0  0  0  0  0  0  0  0  0  0
   36.8700   26.0600   40.4840 C   0  0  0  0  0  0  0  0  0  0  0  0
   37.6350   25.2870   40.2110 H   0  0  0  0  0  0  0  0  0  0  0  0
   35.9290   25.5500   40.4460 H   0  0  0  0  0  0  0  0  0  0  0  0
   37.3250   26.6180   41.7690 C   0  0  0  0  0  0  0  0  0  0  0  0
   36.5390   27.4580   42.5630 C   0  0  0  0  0  0  0  0  0  0  0  0
   35.5590   27.6780   42.1310 H   0  0  0  0  0  0  0  0  0  0  0  0
   36.9680   27.9600   43.7750 C   0  0  0  0  0  3  0  0  0  0  0  0
   38.2220   27.6400   44.2560 C   0  0  0  0  0  3  0  0  0  0  0  0
   39.0300   26.8100   43.4980 C   0  0  0  0  0  0  0  0  0  0  0  0
   40.3100   26.4620   43.9410 C   0  0  0  0  0  3  0  0  0  0  0  0
   41.1280   25.6430   43.1960 C   0  0  0  0  0  3  0  0  0  0  0  0
   40.6860   25.1470   41.9830 C   0  0  0  0  0  3  0  0  0  0  0  0
   39.4210   25.4920   41.5480 C   0  0  0  0  0  3  0  0  0  0  0  0
   38.5880   26.3150   42.2880 C   0  0  0  0  0  0  0  0  0  0  0  0
  1  4  1  0  0  0  0
  1  2  2  0  0  0  0
  3  8  2  0  0  0  0
  3  4  1  0  0  0  0
  4  5  2  0  0  0  0
  5  6  1  0  0  0  0
  5 10  1  0  0  0  0
  7 11  1  0  0  0  0
  7  6  2  0  0  0  0
  8  7  1  0  0  0  0
  9  3  1  0  0  0  0
 11 12  1  0  0  0  0
 12 13  2  0  0  0  0
 12 17  1  0  0  0  0
 13 18  1  0  0  0  0
 14 13  1  0  0  0  0
 15 14  2  0  0  0  0
 16 15  1  0  0  0  0
 16 11  2  0  0  0  0
 19 15  1  0  0  0  0
 20 21  1  0  0  0  0
 20  1  1  0  0  0  0
 21 23  1  0  0  0  0
 21 24  1  0  0  0  0
 22 21  1  0  0  0  0
 24 27  1  0  0  0  0
 25 24  1  0  0  0  0
 26 24  1  0  0  0  0
 27 37  2  0  0  0  0
 27 28  1  0  0  0  0
 28 30  2  0  0  0  0
 29 28  1  0  0  0  0
 30 31  1  0  0  0  0
 32 33  1  0  0  0  0
 32 31  2  0  0  0  0
 34 33  2  0  0  0  0
 35 34  1  0  0  0  0
 36 35  2  0  0  0  0
 36 37  1  0  0  0  0
 37 32  1  0  0  0  0
M  END
>  <minimizedAffinity>
-6.53260708

$$$$

 OpenBabel03252500523D

 37 40  0  0  0  0  0  0  0  0999 V2000
   37.1600   30.5080   41.2750 C   0  0  0  0  0  0  0  0  0  0  0  0
   36.0380   30.8930   40.8920 O   0  0  0  0  0  0  0  0  0  0  0  0
   39.3130   31.6330   41.5640 C   0  0  0  0  0  0  0  0  0  0  0  0
   38.3450   31.1540   40.7210 C   0  0  0  0  0  0  0  0  0  0  0  0
   38.4680   31.2680   39.3140 C   0  0  0  0  0  0  0  0  0  0  0  0
   39.5990   31.8810   38.8350 N   0  0  0  0  0  0  0  0  0  0  0  0
   40.5370   32.3440   39.6780 C   0  0  0  0  0  0  0  0  0  0  0  0
   40.3930   32.2200   41.0200 N   0  0  0  0  0  0  0  0  0  0  0  0
   39.2250   31.5490   42.6260 H   0  0  0  0  0  0  0  0  0  0  0  0
   37.7070   30.8930   38.6320 H   0  0  0  0  0  0  0  0  0  0  0  0
   41.7260   32.9900   39.1520 C   0  0  0  0  0  0  0  0  0  0  0  0
   41.7490   33.6250   37.9550 C   0  0  0  0  0  0  0  0  0  0  0  0
   42.8580   34.2400   37.4410 C   0  0  0  0  0  0  0  0  0  0  0  0
   43.9880   34.1940   38.2030 N   0  0  0  0  0  0  0  0  0  0  0  0
   43.9580   33.5750   39.3650 C   0  0  0  0  0  0  0  0  0  0  0  0
   42.8880   32.9600   39.9030 N   0  0  0  0  0  0  0  0  0  0  0  0
   40.8400   33.6590   37.3510 H   0  0  0  0  0  0  0  0  0  0  0  0
   42.8830   34.7500   36.4850 H   0  0  0  0  0  0  0  0  0  0  0  0
   44.8750   33.5440   39.9650 H   0  0  0  0  0  0  0  0  0  0  0  0
   36.9850   29.5080   42.1810 O   0  0  0  0  0  0  0  0  0  0  0  0
   36.4210   28.2880   41.8830 C   0  0  0  0  0  0  0  0  0  0  0  0
   35.3050   28.5170   41.8120 H   0  0  0  0  0  0  0  0  0  0  0  0
   36.6250   27.8210   40.9220 H   0  0  0  0  0  0  0  0  0  0  0  0
   36.6230   27.2430   42.9750 C   0  0  0  0  0  0  0  0  0  0  0  0
   35.5990   26.8300   43.1690 H   0  0  0  0  0  0  0  0  0  0  0  0
   36.8980   27.7490   43.8780 H   0  0  0  0  0  0  0  0  0  0  0  0
   37.4280   26.0920   42.5310 C   0  0  0  0  0  0  0  0  0  0  0  0
   36.9180   25.0560   41.7440 C   0  0  0  0  0  0  0  0  0  0  0  0
   35.8570   25.1700   41.5030 H   0  0  0  0  0  0  0  0  0  0  0  0
   37.6870   23.9910   41.3170 C   0  0  0  0  0  3  0  0  0  0  0  0
   39.0210   23.9140   41.6630 C   0  0  0  0  0  3  0  0  0  0  0  0
   39.5620   24.9220   42.4420 C   0  0  0  0  0  0  0  0  0  0  0  0
   40.9080   24.8850   42.8220 C   0  0  0  0  0  3  0  0  0  0  0  0
   41.4590   25.8760   43.6020 C   0  0  0  0  0  3  0  0  0  0  0  0
   40.6780   26.9370   44.0240 C   0  0  0  0  0  3  0  0  0  0  0  0
   39.3500   26.9710   43.6460 C   0  0  0  0  0  3  0  0  0  0  0  0
   38.7830   25.9810   42.8610 C   0  0  0  0  0  0  0  0  0  0  0  0
  1 20  1  0  0  0  0
  2  1  2  0  0  0  0
  3  9  1  0  0  0  0
  4  1  1  0  0  0  0
  4  3  2  0  0  0  0
  5  4  1  0  0  0  0
  6  5  2  0  0  0  0
  6  7  1  0  0  0  0
  7  8  2  0  0  0  0
  8  3  1  0  0  0  0
 10  5  1  0  0  0  0
 11  7  1  0  0  0  0
 11 16  1  0  0  0  0
 12 11  2  0  0  0  0
 13 12  1  0  0  0  0
 13 14  2  0  0  0  0
 14 15  1  0  0  0  0
 15 16  2  0  0  0  0
 15 19  1  0  0  0  0
 17 12  1  0  0  0  0
 18 13  1  0  0  0  0
 21 20  1  0  0  0  0
 21 24  1  0  0  0  0
 22 21  1  0  0  0  0
 23 21  1  0  0  0  0
 24 25  1  0  0  0  0
 24 26  1  0  0  0  0
 27 37  1  0  0  0  0
 27 24  1  0  0  0  0
 28 27  2  0  0  0  0
 29 28  1  0  0  0  0
 30 31  2  0  0  0  0
 30 28  1  0  0  0  0
 31 32  1  0  0  0  0
 32 33  2  0  0  0  0
 32 37  1  0  0  0  0
 33 34  1  0  0  0  0
 34 35  2  0  0  0  0
 36 35  1  0  0  0  0
 37 36  2  0  0  0  0
M  END
>  <minimizedAffinity>
-6.39196348

$$$$

 OpenBabel03252500523D

 37 40  0  0  0  0  0  0  0  0999 V2000
   37.6390   32.3090   40.0760 C   0  0  0  0  0  0  0  0  0  0  0  0
   37.2190   32.3260   38.9020 O   0  0  0  0  0  0  0  0  0  0  0  0
   39.9780   31.9760   40.7090 C   0  0  0  0  0  0  0  0  0  0  0  0
   38.9730   32.8340   40.3460 C   0  0  0  0  0  0  0  0  0  0  0  0
   39.1990   34.2270   40.2220 C   0  0  0  0  0  0  0  0  0  0  0  0
   40.4680   34.6790   40.4830 N   0  0  0  0  0  0  0  0  0  0  0  0
   41.4410   33.8220   40.8380 C   0  0  0  0  0  0  0  0  0  0  0  0
   41.1960   32.4930   40.9480 N   0  0  0  0  0  0  0  0  0  0  0  0
   39.8130   30.9250   40.8030 H   0  0  0  0  0  0  0  0  0  0  0  0
   38.4110   34.9210   39.9350 H   0  0  0  0  0  0  0  0  0  0  0  0
   42.7780   34.3180   41.1110 C   0  0  0  0  0  0  0  0  0  0  0  0
   43.8670   33.9250   40.4060 C   0  0  0  0  0  0  0  0  0  0  0  0
   45.1340   34.3810   40.6460 C   0  0  0  0  0  0  0  0  0  0  0  0
   45.2750   35.2830   41.6580 N   0  0  0  0  0  0  0  0  0  0  0  0
   44.2130   35.6610   42.3390 C   0  0  0  0  0  0  0  0  0  0  0  0
   42.9520   35.2360   42.1320 N   0  0  0  0  0  0  0  0  0  0  0  0
   43.7450   33.2030   39.5960 H   0  0  0  0  0  0  0  0  0  0  0  0
   46.0090   34.0700   40.0870 H   0  0  0  0  0  0  0  0  0  0  0  0
   44.3420   36.3860   43.1510 H   0  0  0  0  0  0  0  0  0  0  0  0
   36.6760   31.7660   40.8690 O   0  0  0  0  0  0  0  0  0  0  0  0
   36.3200   30.4370   40.8480 C   0  0  0  0  0  0  0  0  0  0  0  0
   35.2380   30.4420   41.2150 H   0  0  0  0  0  0  0  0  0  0  0  0
   36.2420   29.9160   39.8970 H   0  0  0  0  0  0  0  0  0  0  0  0
   37.1390   29.5740   41.8020 C   0  0  0  0  0  0  0  0  0  0  0  0
   36.5580   29.5730   42.7590 H   0  0  0  0  0  0  0  0  0  0  0  0
   38.0500   30.0920   42.0260 H   0  0  0  0  0  0  0  0  0  0  0  0
   37.2080   28.1620   41.3880 C   0  0  0  0  0  0  0  0  0  0  0  0
   36.4950   27.6440   40.3030 C   0  0  0  0  0  0  0  0  0  0  0  0
   35.8650   28.3830   39.8000 H   0  0  0  0  0  0  0  0  0  0  0  0
   36.5820   26.3230   39.9110 C   0  0  0  0  0  3  0  0  0  0  0  0
   37.3980   25.4460   40.5980 C   0  0  0  0  0  3  0  0  0  0  0  0
   38.1200   25.9220   41.6780 C   0  0  0  0  0  0  0  0  0  0  0  0
   38.9570   25.0710   42.4080 C   0  0  0  0  0  3  0  0  0  0  0  0
   39.6770   25.5280   43.4890 C   0  0  0  0  0  3  0  0  0  0  0  0
   39.5800   26.8540   43.8710 C   0  0  0  0  0  3  0  0  0  0  0  0
   38.7540   27.6920   43.1480 C   0  0  0  0  0  3  0  0  0  0  0  0
   38.0250   27.2450   42.0580 C   0  0  0  0  0  0  0  0  0  0  0  0
  1  4  1  0  0  0  0
  1 20  1  0  0  0  0
  2  1  2  0  0  0  0
  3  9  1  0  0  0  0
  3  8  1  0  0  0  0
  4  3  2  0  0  0  0
  5  4  1  0  0  0  0
  5  6  2  0  0  0  0
  6  7  1  0  0  0  0
  7  8  2  0  0  0  0
  7 11  1  0  0  0  0
 10  5  1  0  0  0  0
 11 16  1  0  0  0  0
 12 13  1  0  0  0  0
 12 11  2  0  0  0  0
 13 14  2  0  0  0  0
 14 15  1  0  0  0  0
 15 19  1  0  0  0  0
 16 15  2  0  0  0  0
 17 12  1  0  0  0  0
 18 13  1  0  0  0  0
 21 20  1  0  0  0  0
 21 22  1  0  0  0  0
 21 24  1  0  0  0  0
 23 21  1  0  0  0  0
 24 26  1  0  0  0  0
 24 25  1  0  0  0  0
 27 24  1  0  0  0  0
 27 37  1  0  0  0  0
 28 27  2  0  0  0  0
 29 28  1  0  0  0  0
 30 28  1  0  0  0  0
 30 31  2  0  0  0  0
 31 32  1  0  0  0  0
 32 37  2  0  0  0  0
 32 33  1  0  0  0  0
 33 34  2  0  0  0  0
 34 35  1  0  0  0  0
 36 35  2  0  0  0  0
 37 36  1  0  0  0  0
M  END
>  <minimizedAffinity>
-6.32237673

$$$$

 OpenBabel03252500523D

 37 40  0  0  0  0  0  0  0  0999 V2000
   35.4530   29.4350   39.0520 C   0  0  0  0  0  0  0  0  0  0  0  0
   34.5770   29.2800   39.9260 O   0  0  0  0  0  0  0  0  0  0  0  0
   36.5290   31.1400   40.4380 C   0  0  0  0  0  0  0  0  0  0  0  0
   36.4300   30.5040   39.2280 C   0  0  0  0  0  0  0  0  0  0  0  0
   37.2600   30.8590   38.1360 C   0  0  0  0  0  0  0  0  0  0  0  0
   38.1670   31.8680   38.3450 N   0  0  0  0  0  0  0  0  0  0  0  0
   38.2490   32.4800   39.5400 C   0  0  0  0  0  0  0  0  0  0  0  0
   37.4420   32.1180   40.5660 N   0  0  0  0  0  0  0  0  0  0  0  0
   35.9060   30.8750   41.2640 H   0  0  0  0  0  0  0  0  0  0  0  0
   37.1930   30.3640   37.1690 H   0  0  0  0  0  0  0  0  0  0  0  0
   39.2140   33.5460   39.7410 C   0  0  0  0  0  0  0  0  0  0  0  0
   40.5050   33.4550   39.3380 C   0  0  0  0  0  0  0  0  0  0  0  0
   41.4290   34.4470   39.5170 C   0  0  0  0  0  0  0  0  0  0  0  0
   40.9950   35.5800   40.1390 N   0  0  0  0  0  0  0  0  0  0  0  0
   39.7390   35.6610   40.5280 C   0  0  0  0  0  0  0  0  0  0  0  0
   38.8010   34.7080   40.3690 N   0  0  0  0  0  0  0  0  0  0  0  0
   40.8450   32.5450   38.8400 H   0  0  0  0  0  0  0  0  0  0  0  0
   42.4630   34.3800   39.1980 H   0  0  0  0  0  0  0  0  0  0  0  0
   39.4050   36.5770   41.0280 H   0  0  0  0  0  0  0  0  0  0  0  0
   35.2630   28.5000   38.0820 O   0  0  0  0  0  0  0  0  0  0  0  0
   35.5790   27.1680   38.2230 C   0  0  0  0  0  0  0  0  0  0  0  0
   34.8820   26.8130   39.0560 H   0  0  0  0  0  0  0  0  0  0  0  0
   35.3540   26.4730   37.4170 H   0  0  0  0  0  0  0  0  0  0  0  0
   37.0160   26.9300   38.6740 C   0  0  0  0  0  0  0  0  0  0  0  0
   37.4080   27.9480   38.9300 H   0  0  0  0  0  0  0  0  0  0  0  0
   37.5870   26.6140   37.8240 H   0  0  0  0  0  0  0  0  0  0  0  0
   37.1080   26.1530   39.9210 C   0  0  0  0  0  0  0  0  0  0  0  0
   36.6120   24.8530   40.0550 C   0  0  0  0  0  0  0  0  0  0  0  0
   36.1310   24.4720   39.1500 H   0  0  0  0  0  0  0  0  0  0  0  0
   36.7210   24.1260   41.2240 C   0  0  0  0  0  3  0  0  0  0  0  0
   37.3410   24.6740   42.3290 C   0  0  0  0  0  3  0  0  0  0  0  0
   37.8460   25.9590   42.2350 C   0  0  0  0  0  0  0  0  0  0  0  0
   38.4780   26.5600   43.3290 C   0  0  0  0  0  3  0  0  0  0  0  0
   38.9790   27.8390   43.2540 C   0  0  0  0  0  3  0  0  0  0  0  0
   38.8620   28.5570   42.0770 C   0  0  0  0  0  3  0  0  0  0  0  0
   38.2380   27.9620   40.9980 C   0  0  0  0  0  3  0  0  0  0  0  0
   37.7300   26.6750   41.0600 C   0  0  0  0  0  0  0  0  0  0  0  0
  1  4  1  0  0  0  0
  1  2  2  0  0  0  0
  3  8  1  0  0  0  0
  3  9  1  0  0  0  0
  4  3  2  0  0  0  0
  5  6  2  0  0  0  0
  5  4  1  0  0  0  0
  6  7  1  0  0  0  0
  7 11  1  0  0  0  0
  7  8  2  0  0  0  0
 10  5  1  0  0  0  0
 11 16  1  0  0  0  0
 12 13  1  0  0  0  0
 12 11  2  0  0  0  0
 13 14  2  0  0  0  0
 14 15  1  0  0  0  0
 15 19  1  0  0  0  0
 16 15  2  0  0  0  0
 17 12  1  0  0  0  0
 18 13  1  0  0  0  0
 20 21  1  0  0  0  0
 20  1  1  0  0  0  0
 21 24  1  0  0  0  0
 21 22  1  0  0  0  0
 23 21  1  0  0  0  0
 24 25  1  0  0  0  0
 24 27  1  0  0  0  0
 26 24  1  0  0  0  0
 27 28  2  0  0  0  0
 27 37  1  0  0  0  0
 28 30  1  0  0  0  0
 29 28  1  0  0  0  0
 30 31  2  0  0  0  0
 32 31  1  0  0  0  0
 32 33  1  0  0  0  0
 34 33  2  0  0  0  0
 35 34  1  0  0  0  0
 36 37  1  0  0  0  0
 36 35  2  0  0  0  0
 37 32  2  0  0  0  0
M  END
>  <minimizedAffinity>
-6.16900253

$$$$

 OpenBabel03252500523D

 37 40  0  0  0  0  0  0  0  0999 V2000
   37.7050   32.7860   39.2910 C   0  0  0  0  0  0  0  0  0  0  0  0
   36.8860   33.6870   39.5570 O   0  0  0  0  0  0  0  0  0  0  0  0
   40.0270   32.4120   38.6150 C   0  0  0  0  0  0  0  0  0  0  0  0
   39.1290   33.0840   39.4030 C   0  0  0  0  0  0  0  0  0  0  0  0
   39.5520   34.0700   40.3280 C   0  0  0  0  0  0  0  0  0  0  0  0
   40.8990   34.3210   40.4000 N   0  0  0  0  0  0  0  0  0  0  0  0
   41.7640   33.6520   39.6180 C   0  0  0  0  0  0  0  0  0  0  0  0
   41.3310   32.7140   38.7410 N   0  0  0  0  0  0  0  0  0  0  0  0
   39.7130   31.6680   37.9150 H   0  0  0  0  0  0  0  0  0  0  0  0
   38.8510   34.6120   40.9620 H   0  0  0  0  0  0  0  0  0  0  0  0
   43.1860   33.9310   39.7090 C   0  0  0  0  0  0  0  0  0  0  0  0
   44.0060   33.9290   38.6300 C   0  0  0  0  0  0  0  0  0  0  0  0
   45.3470   34.1900   38.6940 C   0  0  0  0  0  0  0  0  0  0  0  0
   45.8570   34.4650   39.9290 N   0  0  0  0  0  0  0  0  0  0  0  0
   45.0540   34.4650   40.9730 C   0  0  0  0  0  0  0  0  0  0  0  0
   43.7310   34.2140   40.9500 N   0  0  0  0  0  0  0  0  0  0  0  0
   43.5910   33.7090   37.6450 H   0  0  0  0  0  0  0  0  0  0  0  0
   46.0090   34.1900   37.8360 H   0  0  0  0  0  0  0  0  0  0  0  0
   45.4770   34.6860   41.9590 H   0  0  0  0  0  0  0  0  0  0  0  0
   37.0150   31.6670   38.9380 O   0  0  0  0  0  0  0  0  0  0  0  0
   36.5200   30.7510   39.8380 C   0  0  0  0  0  0  0  0  0  0  0  0
   36.7680   31.2100   40.8540 H   0  0  0  0  0  0  0  0  0  0  0  0
   35.4460   30.5930   39.9090 H   0  0  0  0  0  0  0  0  0  0  0  0
   37.2000   29.3890   39.7550 C   0  0  0  0  0  0  0  0  0  0  0  0
   38.2620   29.6150   39.4770 H   0  0  0  0  0  0  0  0  0  0  0  0
   36.7960   28.8620   38.9140 H   0  0  0  0  0  0  0  0  0  0  0  0
   37.2770   28.7020   41.0550 C   0  0  0  0  0  0  0  0  0  0  0  0
   37.5040   29.3660   42.2630 C   0  0  0  0  0  0  0  0  0  0  0  0
   37.6380   30.4460   42.1500 H   0  0  0  0  0  0  0  0  0  0  0  0
   37.5540   28.7140   43.4790 C   0  0  0  0  0  3  0  0  0  0  0  0
   37.3780   27.3460   43.5430 C   0  0  0  0  0  3  0  0  0  0  0  0
   37.1500   26.6530   42.3670 C   0  0  0  0  0  0  0  0  0  0  0  0
   36.9700   25.2660   42.3790 C   0  0  0  0  0  3  0  0  0  0  0  0
   36.7500   24.5610   41.2180 C   0  0  0  0  0  3  0  0  0  0  0  0
   36.7020   25.2260   40.0060 C   0  0  0  0  0  3  0  0  0  0  0  0
   36.8800   26.5960   39.9960 C   0  0  0  0  0  3  0  0  0  0  0  0
   37.1010   27.3170   41.1580 C   0  0  0  0  0  0  0  0  0  0  0  0
  1  4  1  0  0  0  0
  1  2  2  0  0  0  0
  3  8  2  0  0  0  0
  3  4  1  0  0  0  0
  4  5  2  0  0  0  0
  5  6  1  0  0  0  0
  5 10  1  0  0  0  0
  7 11  1  0  0  0  0
  7  6  2  0  0  0  0
  8  7  1  0  0  0  0
  9  3  1  0  0  0  0
 11 16  1  0  0  0  0
 12 13  1  0  0  0  0
 12 11  2  0  0  0  0
 13 14  2  0  0  0  0
 14 15  1  0  0  0  0
 15 19  1  0  0  0  0
 16 15  2  0  0  0  0
 17 12  1  0  0  0  0
 18 13  1  0  0  0  0
 20  1  1  0  0  0  0
 20 21  1  0  0  0  0
 21 23  1  0  0  0  0
 21 22  1  0  0  0  0
 24 21  1  0  0  0  0
 24 27  1  0  0  0  0
 25 24  1  0  0  0  0
 26 24  1  0  0  0  0
 27 37  2  0  0  0  0
 27 28  1  0  0  0  0
 28 30  2  0  0  0  0
 29 28  1  0  0  0  0
 30 31  1  0  0  0  0
 32 33  1  0  0  0  0
 32 31  2  0  0  0  0
 34 33  2  0  0  0  0
 35 34  1  0  0  0  0
 36 35  2  0  0  0  0
 36 37  1  0  0  0  0
 37 32  1  0  0  0  0
M  END
>  <minimizedAffinity>
-6.16864204

$$$$

 OpenBabel03252500523D

 37 40  0  0  0  0  0  0  0  0999 V2000
   35.7500   28.9770   38.9600 C   0  0  0  0  0  0  0  0  0  0  0  0
   34.8120   29.0540   38.1420 O   0  0  0  0  0  0  0  0  0  0  0  0
   36.5230   30.8770   40.2940 C   0  0  0  0  0  0  0  0  0  0  0  0
   36.6130   30.1400   39.1420 C   0  0  0  0  0  0  0  0  0  0  0  0
   37.5310   30.4790   38.1180 C   0  0  0  0  0  0  0  0  0  0  0  0
   38.3240   31.5780   38.3300 N   0  0  0  0  0  0  0  0  0  0  0  0
   38.2210   32.2890   39.4670 C   0  0  0  0  0  0  0  0  0  0  0  0
   37.3340   31.9400   40.4310 N   0  0  0  0  0  0  0  0  0  0  0  0
   35.8330   30.6240   41.0700 H   0  0  0  0  0  0  0  0  0  0  0  0
   37.6130   29.9040   37.1970 H   0  0  0  0  0  0  0  0  0  0  0  0
   39.0690   33.4490   39.6740 C   0  0  0  0  0  0  0  0  0  0  0  0
   40.4010   33.4400   39.4250 C   0  0  0  0  0  0  0  0  0  0  0  0
   41.2160   34.5220   39.6120 C   0  0  0  0  0  0  0  0  0  0  0  0
   40.6240   35.6600   40.0740 N   0  0  0  0  0  0  0  0  0  0  0  0
   39.3290   35.6610   40.3140 C   0  0  0  0  0  0  0  0  0  0  0  0
   38.4940   34.6180   40.1420 N   0  0  0  0  0  0  0  0  0  0  0  0
   40.8680   32.5260   39.0540 H   0  0  0  0  0  0  0  0  0  0  0  0
   42.2830   34.5220   39.4150 H   0  0  0  0  0  0  0  0  0  0  0  0
   38.8670   36.5820   40.6870 H   0  0  0  0  0  0  0  0  0  0  0  0
   35.7330   27.7360   39.5180 O   0  0  0  0  0  0  0  0  0  0  0  0
   36.5090   26.6850   39.0840 C   0  0  0  0  0  0  0  0  0  0  0  0
   35.7460   25.8750   38.8280 H   0  0  0  0  0  0  0  0  0  0  0  0
   37.0710   26.7780   38.1580 H   0  0  0  0  0  0  0  0  0  0  0  0
   37.4420   26.1350   40.1580 C   0  0  0  0  0  0  0  0  0  0  0  0
   38.4680   26.2200   39.7170 H   0  0  0  0  0  0  0  0  0  0  0  0
   37.2620   25.0830   40.2530 H   0  0  0  0  0  0  0  0  0  0  0  0
   37.4730   26.9640   41.3750 C   0  0  0  0  0  0  0  0  0  0  0  0
   36.6180   26.7640   42.4620 C   0  0  0  0  0  0  0  0  0  0  0  0
   35.9090   25.9440   42.3170 H   0  0  0  0  0  0  0  0  0  0  0  0
   36.6680   27.5340   43.6070 C   0  0  0  0  0  3  0  0  0  0  0  0
   37.5900   28.5560   43.7170 C   0  0  0  0  0  3  0  0  0  0  0  0
   38.4540   28.7850   42.6610 C   0  0  0  0  0  0  0  0  0  0  0  0
   39.4020   29.8120   42.7230 C   0  0  0  0  0  3  0  0  0  0  0  0
   40.2640   30.0560   41.6780 C   0  0  0  0  0  3  0  0  0  0  0  0
   40.2030   29.2770   40.5370 C   0  0  0  0  0  3  0  0  0  0  0  0
   39.2660   28.2640   40.4780 C   0  0  0  0  0  3  0  0  0  0  0  0
   38.3940   28.0070   41.5220 C   0  0  0  0  0  0  0  0  0  0  0  0
  1  4  1  0  0  0  0
  1 20  1  0  0  0  0
  2  1  2  0  0  0  0
  3  8  1  0  0  0  0
  3  9  1  0  0  0  0
  4  3  2  0  0  0  0
  5  6  2  0  0  0  0
  5  4  1  0  0  0  0
  6  7  1  0  0  0  0
  7 11  1  0  0  0  0
  7  8  2  0  0  0  0
 10  5  1  0  0  0  0
 11 16  1  0  0  0  0
 12 13  1  0  0  0  0
 12 11  2  0  0  0  0
 13 14  2  0  0  0  0
 14 15  1  0  0  0  0
 15 19  1  0  0  0  0
 16 15  2  0  0  0  0
 17 12  1  0  0  0  0
 18 13  1  0  0  0  0
 21 20  1  0  0  0  0
 21 24  1  0  0  0  0
 22 21  1  0  0  0  0
 23 21  1  0  0  0  0
 24 26  1  0  0  0  0
 24 27  1  0  0  0  0
 25 24  1  0  0  0  0
 27 37  2  0  0  0  0
 27 28  1  0  0  0  0
 28 30  2  0  0  0  0
 29 28  1  0  0  0  0
 30 31  1  0  0  0  0
 32 33  1  0  0  0  0
 32 31  2  0  0  0  0
 34 33  2  0  0  0  0
 35 34  1  0  0  0  0
 36 35  2  0  0  0  0
 36 37  1  0  0  0  0
 37 32  1  0  0  0  0
M  END
>  <minimizedAffinity>
-6.05778122

$$$$

 OpenBabel03252500523D

 37 40  0  0  0  0  0  0  0  0999 V2000
   35.5750   29.0870   38.3980 C   0  0  0  0  0  0  0  0  0  0  0  0
   34.5920   29.2900   37.6580 O   0  0  0  0  0  0  0  0  0  0  0  0
   37.3100   30.6920   37.7650 C   0  0  0  0  0  0  0  0  0  0  0  0
   36.4500   30.2100   38.7170 C   0  0  0  0  0  0  0  0  0  0  0  0
   36.3860   30.7810   40.0120 C   0  0  0  0  0  0  0  0  0  0  0  0
   37.2250   31.8360   40.2700 N   0  0  0  0  0  0  0  0  0  0  0  0
   38.0610   32.2950   39.3230 C   0  0  0  0  0  0  0  0  0  0  0  0
   38.1000   31.7290   38.0920 N   0  0  0  0  0  0  0  0  0  0  0  0
   37.3610   30.2650   36.7870 H   0  0  0  0  0  0  0  0  0  0  0  0
   35.7090   30.4090   40.7790 H   0  0  0  0  0  0  0  0  0  0  0  0
   38.9410   33.4120   39.6150 C   0  0  0  0  0  0  0  0  0  0  0  0
   40.2760   33.3780   39.3810 C   0  0  0  0  0  0  0  0  0  0  0  0
   41.1220   34.4190   39.6480 C   0  0  0  0  0  0  0  0  0  0  0  0
   40.5580   35.5420   40.1780 N   0  0  0  0  0  0  0  0  0  0  0  0
   39.2600   35.5680   40.4020 C   0  0  0  0  0  0  0  0  0  0  0  0
   38.3960   34.5660   40.1530 N   0  0  0  0  0  0  0  0  0  0  0  0
   40.7200   32.4750   38.9560 H   0  0  0  0  0  0  0  0  0  0  0  0
   42.1900   34.3980   39.4640 H   0  0  0  0  0  0  0  0  0  0  0  0
   38.8220   36.4760   40.8300 H   0  0  0  0  0  0  0  0  0  0  0  0
   35.5860   27.7720   38.7470 O   0  0  0  0  0  0  0  0  0  0  0  0
   36.5090   26.8600   38.2870 C   0  0  0  0  0  0  0  0  0  0  0  0
   35.8660   26.0090   37.8790 H   0  0  0  0  0  0  0  0  0  0  0  0
   37.1340   27.1110   37.4330 H   0  0  0  0  0  0  0  0  0  0  0  0
   37.4030   26.2940   39.3850 C   0  0  0  0  0  0  0  0  0  0  0  0
   38.1550   25.6620   38.8460 H   0  0  0  0  0  0  0  0  0  0  0  0
   36.8250   25.6070   39.9690 H   0  0  0  0  0  0  0  0  0  0  0  0
   38.1910   27.3280   40.0770 C   0  0  0  0  0  0  0  0  0  0  0  0
   39.2460   28.0210   39.4770 C   0  0  0  0  0  0  0  0  0  0  0  0
   39.4440   27.7100   38.4470 H   0  0  0  0  0  0  0  0  0  0  0  0
   39.9650   29.0030   40.1280 C   0  0  0  0  0  3  0  0  0  0  0  0
   39.6580   29.3410   41.4310 C   0  0  0  0  0  3  0  0  0  0  0  0
   38.6190   28.6770   42.0600 C   0  0  0  0  0  0  0  0  0  0  0  0
   38.2740   28.9800   43.3810 C   0  0  0  0  0  3  0  0  0  0  0  0
   37.2480   28.3240   44.0230 C   0  0  0  0  0  3  0  0  0  0  0  0
   36.5360   27.3420   43.3590 C   0  0  0  0  0  3  0  0  0  0  0  0
   36.8780   27.0450   42.0540 C   0  0  0  0  0  3  0  0  0  0  0  0
   37.9080   27.6980   41.3970 C   0  0  0  0  0  0  0  0  0  0  0  0
  1  4  1  0  0  0  0
  1 20  1  0  0  0  0
  2  1  2  0  0  0  0
  3  8  2  0  0  0  0
  3  4  1  0  0  0  0
  4  5  2  0  0  0  0
  5  6  1  0  0  0  0
  5 10  1  0  0  0  0
  7 11  1  0  0  0  0
  7  6  2  0  0  0  0
  8  7  1  0  0  0  0
  9  3  1  0  0  0  0
 11 16  1  0  0  0  0
 12 11  2  0  0  0  0
 12 13  1  0  0  0  0
 13 14  2  0  0  0  0
 14 15  1  0  0  0  0
 15 19  1  0  0  0  0
 16 15  2  0  0  0  0
 17 12  1  0  0  0  0
 18 13  1  0  0  0  0
 21 20  1  0  0  0  0
 21 24  1  0  0  0  0
 22 21  1  0  0  0  0
 23 21  1  0  0  0  0
 24 26  1  0  0  0  0
 24 27  1  0  0  0  0
 25 24  1  0  0  0  0
 27 37  1  0  0  0  0
 28 27  2  0  0  0  0
 28 30  1  0  0  0  0
 29 28  1  0  0  0  0
 30 31  2  0  0  0  0
 31 32  1  0  0  0  0
 32 33  1  0  0  0  0
 33 34  2  0  0  0  0
 35 34  1  0  0  0  0
 36 35  2  0  0  0  0
 37 36  1  0  0  0  0
 37 32  2  0  0  0  0
M  END
>  <minimizedAffinity>
-6.04982233

$$$$

 OpenBabel03252500523D

 37 40  0  0  0  0  0  0  0  0999 V2000
   37.5360   32.3020   40.1030 C   0  0  0  0  0  0  0  0  0  0  0  0
   37.0040   32.5050   38.9940 O   0  0  0  0  0  0  0  0  0  0  0  0
   39.1840   34.1070   40.2120 C   0  0  0  0  0  0  0  0  0  0  0  0
   38.9010   32.7700   40.3170 C   0  0  0  0  0  0  0  0  0  0  0  0
   39.9080   31.8250   40.6340 C   0  0  0  0  0  0  0  0  0  0  0  0
   41.1770   32.3080   40.8290 N   0  0  0  0  0  0  0  0  0  0  0  0
   41.4350   33.6230   40.7210 C   0  0  0  0  0  0  0  0  0  0  0  0
   40.4510   34.5050   40.4180 N   0  0  0  0  0  0  0  0  0  0  0  0
   38.4280   34.8240   39.9740 H   0  0  0  0  0  0  0  0  0  0  0  0
   39.6990   30.7600   40.7200 H   0  0  0  0  0  0  0  0  0  0  0  0
   42.7850   34.1150   40.9310 C   0  0  0  0  0  0  0  0  0  0  0  0
   43.1140   34.9510   41.9460 C   0  0  0  0  0  0  0  0  0  0  0  0
   44.3780   35.4240   42.1610 C   0  0  0  0  0  0  0  0  0  0  0  0
   45.3410   35.0130   41.2880 N   0  0  0  0  0  0  0  0  0  0  0  0
   45.0140   34.2010   40.3030 C   0  0  0  0  0  0  0  0  0  0  0  0
   43.7820   33.7130   40.0590 N   0  0  0  0  0  0  0  0  0  0  0  0
   42.3380   35.2750   42.6420 H   0  0  0  0  0  0  0  0  0  0  0  0
   44.6480   36.0930   42.9710 H   0  0  0  0  0  0  0  0  0  0  0  0
   45.7970   33.8800   39.6080 H   0  0  0  0  0  0  0  0  0  0  0  0
   36.6440   31.6450   40.8940 O   0  0  0  0  0  0  0  0  0  0  0  0
   36.0830   30.4290   40.5770 C   0  0  0  0  0  0  0  0  0  0  0  0
   35.2600   30.3010   41.3580 H   0  0  0  0  0  0  0  0  0  0  0  0
   35.5400   30.3140   39.6430 H   0  0  0  0  0  0  0  0  0  0  0  0
   37.0530   29.2590   40.7140 C   0  0  0  0  0  0  0  0  0  0  0  0
   36.9270   28.9050   41.7700 H   0  0  0  0  0  0  0  0  0  0  0  0
   38.0520   29.6430   40.6630 H   0  0  0  0  0  0  0  0  0  0  0  0
   36.6900   28.1070   39.8720 C   0  0  0  0  0  0  0  0  0  0  0  0
   36.2970   28.2260   38.5360 C   0  0  0  0  0  0  0  0  0  0  0  0
   36.2670   29.2590   38.1780 H   0  0  0  0  0  0  0  0  0  0  0  0
   35.9780   27.1370   37.7490 C   0  0  0  0  0  3  0  0  0  0  0  0
   36.0370   25.8600   38.2710 C   0  0  0  0  0  3  0  0  0  0  0  0
   36.4220   25.7020   39.5910 C   0  0  0  0  0  0  0  0  0  0  0  0
   36.4920   24.4290   40.1670 C   0  0  0  0  0  3  0  0  0  0  0  0
   36.8670   24.2560   41.4800 C   0  0  0  0  0  3  0  0  0  0  0  0
   37.1840   25.3560   42.2570 C   0  0  0  0  0  3  0  0  0  0  0  0
   37.1140   26.6110   41.6860 C   0  0  0  0  0  3  0  0  0  0  0  0
   36.7390   26.8000   40.3660 C   0  0  0  0  0  0  0  0  0  0  0  0
  1  4  1  0  0  0  0
  1 20  1  0  0  0  0
  2  1  2  0  0  0  0
  3  4  2  0  0  0  0
  3  8  1  0  0  0  0
  4  5  1  0  0  0  0
  5 10  1  0  0  0  0
  5  6  2  0  0  0  0
  7  6  1  0  0  0  0
  7 11  1  0  0  0  0
  8  7  2  0  0  0  0
  9  3  1  0  0  0  0
 11 12  1  0  0  0  0
 12 13  2  0  0  0  0
 12 17  1  0  0  0  0
 13 18  1  0  0  0  0
 14 13  1  0  0  0  0
 15 14  2  0  0  0  0
 16 15  1  0  0  0  0
 16 11  2  0  0  0  0
 19 15  1  0  0  0  0
 21 24  1  0  0  0  0
 21 20  1  0  0  0  0
 21 22  1  0  0  0  0
 23 21  1  0  0  0  0
 24 25  1  0  0  0  0
 26 24  1  0  0  0  0
 27 37  1  0  0  0  0
 27 24  1  0  0  0  0
 28 27  2  0  0  0  0
 29 28  1  0  0  0  0
 30 31  2  0  0  0  0
 30 28  1  0  0  0  0
 31 32  1  0  0  0  0
 32 33  2  0  0  0  0
 32 37  1  0  0  0  0
 33 34  1  0  0  0  0
 34 35  2  0  0  0  0
 36 35  1  0  0  0  0
 37 36  2  0  0  0  0
M  END
>  <minimizedAffinity>
-5.99519253

$$$$

 OpenBabel03252500523D

 37 40  0  0  0  0  0  0  0  0999 V2000
   37.7650   31.9200   38.6690 C   0  0  0  0  0  0  0  0  0  0  0  0
   37.7020   31.6600   37.4510 O   0  0  0  0  0  0  0  0  0  0  0  0
   40.2080   31.9680   38.8040 C   0  0  0  0  0  0  0  0  0  0  0  0
   39.0010   32.4880   39.1960 C   0  0  0  0  0  0  0  0  0  0  0  0
   38.9240   33.5730   40.1040 C   0  0  0  0  0  0  0  0  0  0  0  0
   40.1100   34.0780   40.5740 N   0  0  0  0  0  0  0  0  0  0  0  0
   41.2830   33.5550   40.1780 C   0  0  0  0  0  0  0  0  0  0  0  0
   41.3270   32.5170   39.3080 N   0  0  0  0  0  0  0  0  0  0  0  0
   40.2710   31.1510   38.1200 H   0  0  0  0  0  0  0  0  0  0  0  0
   37.9740   33.9960   40.4250 H   0  0  0  0  0  0  0  0  0  0  0  0
   42.5280   34.1030   40.6870 C   0  0  0  0  0  0  0  0  0  0  0  0
   42.5720   35.0630   41.6430 C   0  0  0  0  0  0  0  0  0  0  0  0
   43.7320   35.5920   42.1360 C   0  0  0  0  0  0  0  0  0  0  0  0
   44.8950   35.1030   41.6170 N   0  0  0  0  0  0  0  0  0  0  0  0
   44.8440   34.1700   40.6890 C   0  0  0  0  0  0  0  0  0  0  0  0
   43.7230   33.6240   40.1790 N   0  0  0  0  0  0  0  0  0  0  0  0
   41.6370   35.4500   42.0540 H   0  0  0  0  0  0  0  0  0  0  0  0
   43.7750   36.3610   42.9000 H   0  0  0  0  0  0  0  0  0  0  0  0
   45.7860   33.7870   40.2800 H   0  0  0  0  0  0  0  0  0  0  0  0
   36.5790   31.5830   39.2430 O   0  0  0  0  0  0  0  0  0  0  0  0
   36.3640   30.4170   39.9430 C   0  0  0  0  0  0  0  0  0  0  0  0
   35.2430   30.2370   39.8280 H   0  0  0  0  0  0  0  0  0  0  0  0
   36.7910   29.4860   39.5800 H   0  0  0  0  0  0  0  0  0  0  0  0
   36.6750   30.5380   41.4310 C   0  0  0  0  0  0  0  0  0  0  0  0
   35.6740   30.6210   41.9280 H   0  0  0  0  0  0  0  0  0  0  0  0
   37.1520   31.4820   41.6000 H   0  0  0  0  0  0  0  0  0  0  0  0
   37.2870   29.3220   41.9930 C   0  0  0  0  0  0  0  0  0  0  0  0
   36.5740   28.1440   42.2340 C   0  0  0  0  0  0  0  0  0  0  0  0
   35.5120   28.2160   41.9820 H   0  0  0  0  0  0  0  0  0  0  0  0
   37.1620   27.0030   42.7430 C   0  0  0  0  0  3  0  0  0  0  0  0
   38.5100   26.9880   43.0390 C   0  0  0  0  0  3  0  0  0  0  0  0
   39.2500   28.1360   42.8140 C   0  0  0  0  0  0  0  0  0  0  0  0
   40.6180   28.1710   43.1040 C   0  0  0  0  0  3  0  0  0  0  0  0
   41.3660   29.3070   42.8920 C   0  0  0  0  0  3  0  0  0  0  0  0
   40.7650   30.4440   42.3820 C   0  0  0  0  0  3  0  0  0  0  0  0
   39.4140   30.4060   42.0970 C   0  0  0  0  0  3  0  0  0  0  0  0
   38.6500   29.2700   42.3050 C   0  0  0  0  0  0  0  0  0  0  0  0
  1  4  1  0  0  0  0
  1 20  1  0  0  0  0
  2  1  2  0  0  0  0
  3  4  2  0  0  0  0
  3  8  1  0  0  0  0
  4  5  1  0  0  0  0
  5 10  1  0  0  0  0
  5  6  2  0  0  0  0
  7  6  1  0  0  0  0
  7 11  1  0  0  0  0
  8  7  2  0  0  0  0
  9  3  1  0  0  0  0
 11 12  1  0  0  0  0
 12 17  1  0  0  0  0
 12 13  2  0  0  0  0
 13 18  1  0  0  0  0
 14 13  1  0  0  0  0
 15 14  2  0  0  0  0
 16 11  2  0  0  0  0
 16 15  1  0  0  0  0
 19 15  1  0  0  0  0
 20 21  1  0  0  0  0
 21 24  1  0  0  0  0
 22 21  1  0  0  0  0
 23 21  1  0  0  0  0
 24 26  1  0  0  0  0
 24 25  1  0  0  0  0
 24 27  1  0  0  0  0
 27 28  2  0  0  0  0
 27 37  1  0  0  0  0
 28 30  1  0  0  0  0
 29 28  1  0  0  0  0
 30 31  2  0  0  0  0
 32 31  1  0  0  0  0
 32 33  1  0  0  0  0
 34 33  2  0  0  0  0
 35 34  1  0  0  0  0
 36 37  1  0  0  0  0
 36 35  2  0  0  0  0
 37 32  2  0  0  0  0
M  END
>  <minimizedAffinity>
-5.95792437

$$$$
