
 OpenBabel03242518463D

 47 51  0  0  1  0  0  0  0  0999 V2000
   47.5190   32.9950   44.2260 C   0  0  2  0  0  0  0  0  0  0  0  0
   47.3990   33.4280   42.8090 C   0  0  1  0  0  0  0  0  0  0  0  0
   47.3260   32.2430   41.8450 C   0  0  0  0  0  0  0  0  0  0  0  0
   48.4610   31.4850   42.1520 O   0  0  0  0  0  0  0  0  0  0  0  0
   48.3160   30.8180   43.3490 C   0  0  0  0  0  0  0  0  0  0  0  0
   47.3600   31.4640   44.3010 C   0  0  1  0  0  0  0  0  0  0  0  0
   48.5190   33.2790   44.6080 H   0  0  0  0  0  0  0  0  0  0  0  0
   48.2860   34.0560   42.5170 H   0  0  0  0  0  0  0  0  0  0  0  0
   46.3950   31.6880   41.9500 H   0  0  0  0  0  0  0  0  0  0  0  0
   47.4700   32.6640   40.8290 H   0  0  0  0  0  0  0  0  0  0  0  0
   49.3040   30.7160   43.8610 H   0  0  0  0  0  0  0  0  0  0  0  0
   47.9180   29.7940   43.1380 H   0  0  0  0  0  0  0  0  0  0  0  0
   46.2960   31.2940   44.0290 H   0  0  0  0  0  0  0  0  0  0  0  0
   45.0340   36.2230   42.8060 C   0  0  0  0  0  0  0  0  0  0  0  0
   43.9940   35.7970   41.9280 C   0  0  0  0  0  0  0  0  0  0  0  0
   44.1650   34.5140   41.3540 C   0  0  0  0  0  0  0  0  0  0  0  0
   45.2650   33.7900   41.6590 N   0  0  0  0  0  0  0  0  0  0  0  0
   46.2160   34.2510   42.4990 C   0  0  0  0  0  0  0  0  0  0  0  0
   46.1000   35.4710   43.0740 N   0  0  0  0  0  0  0  0  0  0  0  0
   43.1580   36.4330   41.7430 H   0  0  0  0  0  0  0  0  0  0  0  0
   43.3830   34.1860   40.6910 H   0  0  0  0  0  0  0  0  0  0  0  0
   44.8840   37.4560   43.3680 O   0  0  0  0  0  0  0  0  0  0  0  0
   45.6750   38.0700   43.6010 H   0  0  0  0  0  0  0  0  0  0  0  0
   46.5670   33.5700   45.0730 O   0  0  0  0  0  0  0  0  0  0  0  0
   45.6690   33.5770   44.6820 H   0  0  0  0  0  0  0  0  0  0  0  0
   47.5630   31.1090   45.6160 O   0  0  0  0  0  0  0  0  0  0  0  0
   46.2610   28.7510   45.3980 F   0  0  0  0  0  0  0  0  0  0  0  0
   46.1770   29.5860   46.4530 C   0  0  0  0  0  0  0  0  0  0  0  0
   46.8030   30.8010   46.6490 C   0  0  0  0  0  0  0  0  0  0  0  0
   46.5130   31.4220   47.8540 C   0  0  0  0  0  0  0  0  0  0  0  0
   45.6810   30.9410   48.8370 C   0  0  0  0  0  0  0  0  0  0  0  0
   45.0910   29.7400   48.5890 C   0  0  0  0  0  0  0  0  0  0  0  0
   45.3120   29.0380   47.4180 C   0  0  0  0  0  0  0  0  0  0  0  0
   47.0500   32.3840   47.9380 H   0  0  0  0  0  0  0  0  0  0  0  0
   45.5600   31.5440   49.7200 H   0  0  0  0  0  0  0  0  0  0  0  0
   44.4250   29.3540   49.3740 H   0  0  0  0  0  0  0  0  0  0  0  0
   44.6020   27.7680   47.3120 C   0  0  0  0  0  0  0  0  0  0  0  0
   45.1400   26.7590   48.1000 C   0  0  0  0  0  0  0  0  0  0  0  0
   46.0200   26.9050   48.7440 H   0  0  0  0  0  0  0  0  0  0  0  0
   44.6310   25.4780   48.1560 C   0  0  0  0  0  0  0  0  0  0  0  0
   43.5100   25.2040   47.3670 C   0  0  0  0  0  0  0  0  0  0  0  0
   42.9550   26.2090   46.5680 C   0  0  0  0  0  0  0  0  0  0  0  0
   41.8480   25.9540   45.7820 C   0  0  0  0  0  0  0  0  0  0  0  0
   41.3480   27.0050   45.0090 C   0  0  0  0  0  0  0  0  0  0  0  0
   41.9070   28.2730   44.9960 C   0  0  0  0  0  0  0  0  0  0  0  0
   43.0240   28.5200   45.7920 C   0  0  0  0  0  0  0  0  0  0  0  0
   43.4990   27.4760   46.5430 C   0  0  0  0  0  0  0  0  0  0  0  0
  1  6  1  0  0  0  0
  1  7  1  1  0  0  0
  1 24  1  0  0  0  0
  2  8  1  6  0  0  0
  2  1  1  0  0  0  0
  3  9  1  0  0  0  0
  3  4  1  0  0  0  0
  3  2  1  0  0  0  0
  4  5  1  0  0  0  0
  5 11  1  0  0  0  0
  5  6  1  0  0  0  0
  6 13  1  6  0  0  0
  6 26  1  0  0  0  0
 10  3  1  0  0  0  0
 12  5  1  0  0  0  0
 14 19  1  0  0  0  0
 14 22  1  0  0  0  0
 15 14  2  0  0  0  0
 16 17  2  0  0  0  0
 16 15  1  0  0  0  0
 17 18  1  0  0  0  0
 18  2  1  0  0  0  0
 18 19  2  0  0  0  0
 20 15  1  0  0  0  0
 21 16  1  0  0  0  0
 22 23  1  0  0  0  0
 25 24  1  0  0  0  0
 26 29  1  0  0  0  0
 27 28  1  0  0  0  0
 28 29  2  0  0  0  0
 28 33  1  0  0  0  0
 29 30  1  0  0  0  0
 30 34  1  0  0  0  0
 30 31  2  0  0  0  0
 31 35  1  0  0  0  0
 32 31  1  0  0  0  0
 32 36  1  0  0  0  0
 33 32  2  0  0  0  0
 37 33  1  0  0  0  0
 37 38  1  0  0  0  0
 38 40  2  0  0  0  0
 38 39  1  0  0  0  0
 41 40  1  0  0  0  0
 42 41  2  0  0  0  0
 43 42  1  0  0  0  0
 44 43  2  0  0  0  0
 45 44  1  0  0  0  0
 45 46  2  0  0  0  0
 46 47  1  0  0  0  0
 47 42  1  0  0  0  0
 47 37  2  0  0  0  0
M  END
>  <minimizedAffinity>
-6.76969481

>  <minimizedRMSD>
1.0954963

$$$$
