
     RDKit          3D

 29 31  0  0  0  0  0  0  0  0999 V2000
   44.3856   35.7733   44.4343 C   0  0  0  0  0  0  0  0  0  0  0  0
   44.6767   35.0424   43.2613 C   0  0  0  0  0  0  0  0  0  0  0  0
   45.2959   33.8184   43.3883 C   0  0  0  0  0  0  0  0  0  0  0  0
   45.5843   33.3977   44.6330 N   0  0  0  0  0  0  0  0  0  0  0  0
   45.3083   34.0908   45.7463 C   0  0  0  0  0  0  0  0  0  0  0  0
   44.6956   35.3065   45.6640 N   0  0  0  0  0  0  0  0  0  0  0  0
   44.2527   35.7370   42.0099 C   0  0  0  0  0  0  0  0  0  0  0  0
   43.8955   36.7533   44.4082 H   0  0  0  0  0  0  0  0  0  0  0  0
   45.4882   33.3107   42.4628 H   0  0  0  0  0  0  0  0  0  0  0  0
   45.5499   33.7337   46.7370 H   0  0  0  0  0  0  0  0  0  0  0  0
   45.0940   35.5283   41.2890 H   0  0  0  0  0  0  0  0  0  0  0  0
   44.2033   36.8088   42.1234 H   0  0  0  0  0  0  0  0  0  0  0  0
   42.9688   35.1855   41.5665 C   0  0  0  0  0  0  0  0  0  0  0  0
   41.9406   34.9014   42.4424 C   0  0  0  0  0  0  0  0  0  0  0  0
   42.0659   35.1137   43.5134 H   0  0  0  0  0  0  0  0  0  0  0  0
   40.7207   34.3517   42.0553 C   0  0  0  0  0  0  0  0  0  0  0  0
   40.5139   34.0670   40.6994 C   0  0  0  0  0  0  0  0  0  0  0  0
   41.5067   34.3314   39.7806 C   0  0  0  0  0  0  0  0  0  0  0  0
   41.2970   34.0581   38.4311 C   0  0  0  0  0  0  0  0  0  0  0  0
   42.3165   34.3510   37.5643 C   0  0  0  0  0  0  0  0  0  0  0  0
   43.5373   34.8979   37.9306 C   0  0  0  0  0  0  0  0  0  0  0  0
   43.6927   35.1515   39.2950 C   0  0  0  0  0  0  0  0  0  0  0  0
   42.6990   34.8805   40.2423 C   0  0  0  0  0  0  0  0  0  0  0  0
   39.9290   34.1352   42.7643 H   0  0  0  0  0  0  0  0  0  0  0  0
   39.5948   33.6370   40.3179 H   0  0  0  0  0  0  0  0  0  0  0  0
   40.3583   33.6345   38.1129 H   0  0  0  0  0  0  0  0  0  0  0  0
   42.1701   34.1443   36.5035 H   0  0  0  0  0  0  0  0  0  0  0  0
   44.3238   35.1173   37.2120 H   0  0  0  0  0  0  0  0  0  0  0  0
   44.6710   35.5850   39.5279 H   0  0  0  0  0  0  0  0  0  0  0  0
  1  6  2  0
  2  3  2  0
  2  1  1  0
  3  4  1  0
  4  5  2  0
  6  5  1  0
  7  2  1  0
  1  8  1  0
  3  9  1  0
  5 10  1  0
  7 11  1  0
  7 12  1  0
 13 14  2  0
 14 15  1  0
 14 16  1  0
 16 17  2  0
 17 18  1  0
 18 19  2  0
 19 20  1  0
 20 21  2  0
 21 22  1  0
 22 23  2  0
 23 13  1  0
 23 18  1  0
 16 24  1  0
 17 25  1  0
 19 26  1  0
 20 27  1  0
 21 28  1  0
 22 29  1  0
  7 13  1  0
M  ISO  6   8  14   9  14  10  14  11   8  12   8  15  15
M  END
>  <DihAtoms>  (1) 
1,6,12,13

>  <DihDeg>  (1) 
26.973175118302795

$$$$
