
     RDKit          3D

 35 38  0  0  0  0  0  0  0  0999 V2000
   45.6316   33.9469   45.4484 C   0  0  0  0  0  0  0  0  0  0  0  0
   44.7187   34.9761   45.6902 C   0  0  0  0  0  0  0  0  0  0  0  0
   44.5235   35.9304   44.6926 C   0  0  0  0  0  0  0  0  0  0  0  0
   45.2332   35.8116   43.5253 N   0  0  0  0  0  0  0  0  0  0  0  0
   46.0946   34.8189   43.3217 C   0  0  0  0  0  0  0  0  0  0  0  0
   46.2741   33.9185   44.2745 N   0  0  0  0  0  0  0  0  0  0  0  0
   46.8314   34.7260   42.0615 C   0  0  0  0  0  0  0  0  0  0  0  0
   48.0100   35.4060   41.9076 C   0  0  0  0  0  0  0  0  0  0  0  0
   48.7789   35.3868   40.7572 C   0  0  0  0  0  0  0  0  0  0  0  0
   48.2541   34.6039   39.7370 C   0  0  0  0  0  0  0  0  0  0  0  0
   47.0611   33.9099   39.8805 C   0  0  0  0  0  0  0  0  0  0  0  0
   46.3676   33.9861   41.0515 N   0  0  0  0  0  0  0  0  0  0  0  0
   44.1255   35.0717   46.5570 H   0  0  0  0  0  0  0  0  0  0  0  0
   43.8289   36.7347   44.8509 H   0  0  0  0  0  0  0  0  0  0  0  0
   48.3669   36.0051   42.7531 H   0  0  0  0  0  0  0  0  0  0  0  0
   49.7052   35.9146   40.6208 H   0  0  0  0  0  0  0  0  0  0  0  0
   48.7914   34.5278   38.7910 H   0  0  0  0  0  0  0  0  0  0  0  0
   46.7176   33.3190   39.0353 H   0  0  0  0  0  0  0  0  0  0  0  0
   45.9248   32.8243   46.3148 C   0  0  0  0  0  0  0  0  0  0  0  0
   46.4672   31.6731   45.7272 C   0  0  0  0  0  0  0  0  0  0  0  0
   46.6431   31.6384   44.6508 H   0  0  0  0  0  0  0  0  0  0  0  0
   46.8159   30.5293   46.4043 C   0  0  0  0  0  0  0  0  0  0  0  0
   46.6356   30.4685   47.7667 C   0  0  0  0  0  0  0  0  0  0  0  0
   46.1134   31.5579   48.4051 C   0  0  0  0  0  0  0  0  0  0  0  0
   45.9506   31.5549   49.7737 C   0  0  0  0  0  0  0  0  0  0  0  0
   45.4597   32.6517   50.4899 C   0  0  0  0  0  0  0  0  0  0  0  0
   45.1422   33.7683   49.7071 C   0  0  0  0  0  0  0  0  0  0  0  0
   45.3104   33.7459   48.3618 C   0  0  0  0  0  0  0  0  0  0  0  0
   45.7887   32.6650   47.6671 C   0  0  0  0  0  0  0  0  0  0  0  0
   47.2302   29.6727   45.8909 H   0  0  0  0  0  0  0  0  0  0  0  0
   46.8926   29.5955   48.3331 H   0  0  0  0  0  0  0  0  0  0  0  0
   46.2211   30.6479   50.3126 H   0  0  0  0  0  0  0  0  0  0  0  0
   45.3465   32.6112   51.5530 H   0  0  0  0  0  0  0  0  0  0  0  0
   44.7655   34.5976   50.3090 H   0  0  0  0  0  0  0  0  0  0  0  0
   45.0608   34.6897   47.9285 H   0  0  0  0  0  0  0  0  0  0  0  0
  1  2  2  0
  3  2  1  0
  4  3  2  0
  5  4  1  0
  5  6  2  0
  6  1  1  0
  7  5  1  0
  8  7  2  0
  9  8  1  0
 10 11  1  0
 10  9  2  0
 11 12  2  0
 12  7  1  0
  2 13  1  0
  3 14  1  0
  8 15  1  0
  9 16  1  0
 10 17  1  0
 11 18  1  0
 19 20  2  0
 20 21  1  0
 20 22  1  0
 22 23  2  0
 23 24  1  0
 24 25  2  0
 25 26  1  0
 26 27  2  0
 27 28  1  0
 28 29  2  0
 29 19  1  0
 29 24  1  0
 22 30  1  0
 23 31  1  0
 25 32  1  0
 26 33  1  0
 27 34  1  0
 28 35  1  0
  1 19  1  0
M  ISO  7  13  14  14  14  15  14  16  14  17  14  18  14  21  15
M  END
>  <DihAtoms>  (1) 
1,0,18,19

>  <DihDeg>  (1) 
141.96268239399953

$$$$
