
 OpenBabel03252502333D

 26 28  0  0  0  0  0  0  0  0999 V2000
   37.0940   30.3230   37.7770 C   0  0  0  0  0  0  0  0  0  0  0  0
   37.0370   29.2780   38.7080 C   0  0  0  0  0  0  0  0  0  0  0  0
   37.3470   29.5480   40.0480 C   0  0  0  0  0  0  0  0  0  0  0  0
   37.6870   30.8450   40.3520 N   0  0  0  0  0  0  0  0  0  0  0  0
   37.7330   31.8250   39.4450 C   0  0  0  0  0  0  0  0  0  0  0  0
   37.4370   31.5470   38.1790 N   0  0  0  0  0  0  0  0  0  0  0  0
   36.7150   28.3170   38.3690 H   0  0  0  0  0  0  0  0  0  0  0  0
   37.2880   28.6710   41.1690 C   0  0  0  0  0  0  0  0  0  0  0  0
   37.4650   29.2460   42.4410 C   0  0  0  0  0  0  0  0  0  0  0  0
   37.6270   30.3150   42.5410 H   0  0  0  0  0  0  0  0  0  0  0  0
   37.4540   28.5590   43.6310 C   0  0  0  0  0  3  0  0  0  0  0  0
   37.2590   27.2080   43.6190 C   0  0  0  0  0  3  0  0  0  0  0  0
   37.0800   26.5540   42.4200 C   0  0  0  0  0  0  0  0  0  0  0  0
   36.9170   25.1920   42.3540 C   0  0  0  0  0  3  0  0  0  0  0  0
   36.7740   24.5020   41.1500 C   0  0  0  0  0  3  0  0  0  0  0  0
   36.8080   25.2890   40.0040 C   0  0  0  0  0  3  0  0  0  0  0  0
   36.9700   26.6510   40.0930 C   0  0  0  0  0  3  0  0  0  0  0  0
   37.1060   27.3180   41.2830 C   0  0  0  0  0  0  0  0  0  0  0  0
   36.7610   29.9920   36.3690 C   0  0  0  0  0  0  0  0  0  0  0  0
   36.9200   31.0620   35.5280 F   0  0  0  0  0  0  0  0  0  0  0  0
   37.5830   28.9290   35.9590 F   0  0  0  0  0  0  0  0  0  0  0  0
   35.4550   29.4960   36.3070 F   0  0  0  0  0  0  0  0  0  0  0  0
   38.1130   33.2080   39.8440 C   0  0  0  0  0  0  0  0  0  0  0  0
   37.1160   34.0930   39.5850 F   0  0  0  0  0  0  0  0  0  0  0  0
   39.3000   33.5800   39.2100 F   0  0  0  0  0  0  0  0  0  0  0  0
   38.4020   33.2790   41.2090 F   0  0  0  0  0  0  0  0  0  0  0  0
  1  6  2  0  0  0  0
  1  2  1  0  0  0  0
  2  3  2  0  0  0  0
  3  4  1  0  0  0  0
  3  8  1  0  0  0  0
  5 23  1  0  0  0  0
  5  4  2  0  0  0  0
  6  5  1  0  0  0  0
  7  2  1  0  0  0  0
  8 18  2  0  0  0  0
  8  9  1  0  0  0  0
  9 10  1  0  0  0  0
  9 11  2  0  0  0  0
 12 11  1  0  0  0  0
 13 12  2  0  0  0  0
 14 13  1  0  0  0  0
 15 14  2  0  0  0  0
 16 17  2  0  0  0  0
 16 15  1  0  0  0  0
 17 18  1  0  0  0  0
 18 13  1  0  0  0  0
 19  1  1  0  0  0  0
 20 19  1  0  0  0  0
 21 19  1  0  0  0  0
 22 19  1  0  0  0  0
 23 26  1  0  0  0  0
 24 23  1  0  0  0  0
 25 23  1  0  0  0  0
M  END
>  <minimizedAffinity>
-6.62527275

$$$$

 OpenBabel03252502333D

 26 28  0  0  0  0  0  0  0  0999 V2000
   35.5340   29.2280   39.5180 C   0  0  0  0  0  0  0  0  0  0  0  0
   36.2830   30.3630   39.1840 C   0  0  0  0  0  0  0  0  0  0  0  0
   37.3380   30.7480   40.0230 C   0  0  0  0  0  0  0  0  0  0  0  0
   37.5620   29.9630   41.1290 N   0  0  0  0  0  0  0  0  0  0  0  0
   36.8330   28.8830   41.4250 C   0  0  0  0  0  0  0  0  0  0  0  0
   35.8360   28.5380   40.6170 N   0  0  0  0  0  0  0  0  0  0  0  0
   36.0500   30.8720   38.2730 H   0  0  0  0  0  0  0  0  0  0  0  0
   38.2700   31.8120   39.8490 C   0  0  0  0  0  0  0  0  0  0  0  0
   37.9820   33.0250   40.5010 C   0  0  0  0  0  0  0  0  0  0  0  0
   37.0910   33.1210   41.1130 H   0  0  0  0  0  0  0  0  0  0  0  0
   38.7540   34.1610   40.4400 C   0  0  0  0  0  3  0  0  0  0  0  0
   39.8990   34.1490   39.6960 C   0  0  0  0  0  3  0  0  0  0  0  0
   40.2620   33.0070   39.0180 C   0  0  0  0  0  0  0  0  0  0  0  0
   41.3850   32.9580   38.2280 C   0  0  0  0  0  3  0  0  0  0  0  0
   41.7510   31.8260   37.5000 C   0  0  0  0  0  3  0  0  0  0  0  0
   40.8990   30.7340   37.6240 C   0  0  0  0  0  3  0  0  0  0  0  0
   39.7820   30.8050   38.4220 C   0  0  0  0  0  3  0  0  0  0  0  0
   39.4340   31.9220   39.1350 C   0  0  0  0  0  0  0  0  0  0  0  0
   34.4250   28.8570   38.6040 C   0  0  0  0  0  0  0  0  0  0  0  0
   33.1940   29.1450   39.1300 F   0  0  0  0  0  0  0  0  0  0  0  0
   34.6040   29.5440   37.3910 F   0  0  0  0  0  0  0  0  0  0  0  0
   34.5260   27.5000   38.2790 F   0  0  0  0  0  0  0  0  0  0  0  0
   37.1300   28.0810   42.6430 C   0  0  0  0  0  0  0  0  0  0  0  0
   38.0570   27.1210   42.3930 F   0  0  0  0  0  0  0  0  0  0  0  0
   35.9530   27.5310   43.1530 F   0  0  0  0  0  0  0  0  0  0  0  0
   37.6200   28.8880   43.6740 F   0  0  0  0  0  0  0  0  0  0  0  0
  1  6  1  0  0  0  0
  2  1  2  0  0  0  0
  2  3  1  0  0  0  0
  3  4  2  0  0  0  0
  4  5  1  0  0  0  0
  5 23  1  0  0  0  0
  6  5  2  0  0  0  0
  7  2  1  0  0  0  0
  8  3  1  0  0  0  0
  8  9  1  0  0  0  0
  9 10  1  0  0  0  0
 11  9  2  0  0  0  0
 12 11  1  0  0  0  0
 13 18  1  0  0  0  0
 13 12  2  0  0  0  0
 14 13  1  0  0  0  0
 15 16  1  0  0  0  0
 15 14  2  0  0  0  0
 16 17  2  0  0  0  0
 17 18  1  0  0  0  0
 18  8  2  0  0  0  0
 19 20  1  0  0  0  0
 19  1  1  0  0  0  0
 21 19  1  0  0  0  0
 22 19  1  0  0  0  0
 23 25  1  0  0  0  0
 23 26  1  0  0  0  0
 24 23  1  0  0  0  0
M  END
>  <minimizedAffinity>
-6.04172564

$$$$

 OpenBabel03252502333D

 26 28  0  0  0  0  0  0  0  0999 V2000
   36.9660   28.4510   41.7250 C   0  0  0  0  0  0  0  0  0  0  0  0
   37.8930   29.4840   41.5380 C   0  0  0  0  0  0  0  0  0  0  0  0
   37.7430   30.3350   40.4340 C   0  0  0  0  0  0  0  0  0  0  0  0
   36.6750   30.0860   39.6040 N   0  0  0  0  0  0  0  0  0  0  0  0
   35.8040   29.0930   39.8060 C   0  0  0  0  0  0  0  0  0  0  0  0
   35.9650   28.2970   40.8580 N   0  0  0  0  0  0  0  0  0  0  0  0
   38.6590   29.6150   42.2720 H   0  0  0  0  0  0  0  0  0  0  0  0
   38.5120   31.4820   40.0850 C   0  0  0  0  0  0  0  0  0  0  0  0
   38.1490   32.7020   40.6850 C   0  0  0  0  0  0  0  0  0  0  0  0
   37.3230   32.7410   41.3890 H   0  0  0  0  0  0  0  0  0  0  0  0
   38.7630   33.9110   40.4610 C   0  0  0  0  0  3  0  0  0  0  0  0
   39.8140   33.9730   39.5920 C   0  0  0  0  0  3  0  0  0  0  0  0
   40.2410   32.8310   38.9520 C   0  0  0  0  0  0  0  0  0  0  0  0
   41.2690   32.8500   38.0420 C   0  0  0  0  0  3  0  0  0  0  0  0
   41.6930   31.7150   37.3520 C   0  0  0  0  0  3  0  0  0  0  0  0
   41.0000   30.5450   37.6440 C   0  0  0  0  0  3  0  0  0  0  0  0
   39.9750   30.5480   38.5600 C   0  0  0  0  0  3  0  0  0  0  0  0
   39.5700   31.6700   39.2350 C   0  0  0  0  0  0  0  0  0  0  0  0
   37.1630   27.5720   42.9050 C   0  0  0  0  0  0  0  0  0  0  0  0
   36.0340   27.4670   43.6730 F   0  0  0  0  0  0  0  0  0  0  0  0
   37.5570   26.3030   42.4490 F   0  0  0  0  0  0  0  0  0  0  0  0
   38.2410   28.0460   43.6600 F   0  0  0  0  0  0  0  0  0  0  0  0
   34.6710   28.8780   38.8640 C   0  0  0  0  0  0  0  0  0  0  0  0
   33.4790   29.1790   39.4420 F   0  0  0  0  0  0  0  0  0  0  0  0
   34.6880   27.5670   38.3850 F   0  0  0  0  0  0  0  0  0  0  0  0
   34.8040   29.6740   37.7230 F   0  0  0  0  0  0  0  0  0  0  0  0
  1 19  1  0  0  0  0
  2  1  1  0  0  0  0
  2  7  1  0  0  0  0
  3  2  2  0  0  0  0
  4  5  2  0  0  0  0
  4  3  1  0  0  0  0
  5  6  1  0  0  0  0
  6  1  2  0  0  0  0
  8  3  1  0  0  0  0
  8  9  1  0  0  0  0
  9 10  1  0  0  0  0
 11  9  2  0  0  0  0
 12 11  1  0  0  0  0
 13 18  1  0  0  0  0
 13 12  2  0  0  0  0
 14 13  1  0  0  0  0
 15 16  1  0  0  0  0
 15 14  2  0  0  0  0
 16 17  2  0  0  0  0
 17 18  1  0  0  0  0
 18  8  2  0  0  0  0
 19 22  1  0  0  0  0
 19 20  1  0  0  0  0
 21 19  1  0  0  0  0
 23 24  1  0  0  0  0
 23  5  1  0  0  0  0
 25 23  1  0  0  0  0
 26 23  1  0  0  0  0
M  END
>  <minimizedAffinity>
-5.98984861

$$$$

 OpenBabel03252502333D

 26 28  0  0  0  0  0  0  0  0999 V2000
   37.1110   28.2210   41.7830 C   0  0  0  0  0  0  0  0  0  0  0  0
   36.1890   28.0380   40.7440 C   0  0  0  0  0  0  0  0  0  0  0  0
   36.0600   29.0400   39.7710 C   0  0  0  0  0  0  0  0  0  0  0  0
   36.8670   30.1450   39.9140 N   0  0  0  0  0  0  0  0  0  0  0  0
   37.7390   30.2940   40.9150 C   0  0  0  0  0  0  0  0  0  0  0  0
   37.8440   29.3330   41.8270 N   0  0  0  0  0  0  0  0  0  0  0  0
   35.6470   27.1180   40.7050 H   0  0  0  0  0  0  0  0  0  0  0  0
   35.2500   29.0430   38.5990 C   0  0  0  0  0  0  0  0  0  0  0  0
   33.8610   29.1690   38.7830 C   0  0  0  0  0  0  0  0  0  0  0  0
   33.4470   29.2700   39.7810 H   0  0  0  0  0  0  0  0  0  0  0  0
   32.9250   29.1780   37.7760 C   0  0  0  0  0  3  0  0  0  0  0  0
   33.3390   29.0560   36.4810 C   0  0  0  0  0  3  0  0  0  0  0  0
   34.6810   28.9240   36.2010 C   0  0  0  0  0  0  0  0  0  0  0  0
   35.1420   28.7610   34.9180 C   0  0  0  0  0  3  0  0  0  0  0  0
   36.4910   28.5850   34.6130 C   0  0  0  0  0  3  0  0  0  0  0  0
   37.3550   28.5820   35.7040 C   0  0  0  0  0  3  0  0  0  0  0  0
   36.8720   28.7480   36.9790 C   0  0  0  0  0  3  0  0  0  0  0  0
   35.5430   28.9240   37.2660 C   0  0  0  0  0  0  0  0  0  0  0  0
   37.2140   27.1370   42.7920 C   0  0  0  0  0  0  0  0  0  0  0  0
   36.1670   27.1430   43.6750 F   0  0  0  0  0  0  0  0  0  0  0  0
   37.2680   25.9070   42.1150 F   0  0  0  0  0  0  0  0  0  0  0  0
   38.4370   27.2440   43.4630 F   0  0  0  0  0  0  0  0  0  0  0  0
   38.5790   31.5190   41.0090 C   0  0  0  0  0  0  0  0  0  0  0  0
   39.3350   31.5190   42.1380 F   0  0  0  0  0  0  0  0  0  0  0  0
   37.7740   32.6570   40.9370 F   0  0  0  0  0  0  0  0  0  0  0  0
   39.4440   31.6260   39.9170 F   0  0  0  0  0  0  0  0  0  0  0  0
  1  6  1  0  0  0  0
  1 19  1  0  0  0  0
  2  1  2  0  0  0  0
  3  4  2  0  0  0  0
  3  2  1  0  0  0  0
  4  5  1  0  0  0  0
  5 23  1  0  0  0  0
  5  6  2  0  0  0  0
  7  2  1  0  0  0  0
  8  9  1  0  0  0  0
  8  3  1  0  0  0  0
  9 10  1  0  0  0  0
 11  9  2  0  0  0  0
 12 11  1  0  0  0  0
 13 12  2  0  0  0  0
 13 18  1  0  0  0  0
 14 13  1  0  0  0  0
 15 14  2  0  0  0  0
 15 16  1  0  0  0  0
 16 17  2  0  0  0  0
 17 18  1  0  0  0  0
 18  8  2  0  0  0  0
 19 22  1  0  0  0  0
 19 20  1  0  0  0  0
 21 19  1  0  0  0  0
 23 24  1  0  0  0  0
 25 23  1  0  0  0  0
 26 23  1  0  0  0  0
M  END
>  <minimizedAffinity>
-5.92988539

$$$$

 OpenBabel03252502333D

 26 28  0  0  0  0  0  0  0  0999 V2000
   36.9580   30.2770   38.0190 C   0  0  0  0  0  0  0  0  0  0  0  0
   37.3200   29.5920   39.1860 C   0  0  0  0  0  0  0  0  0  0  0  0
   36.4520   28.6150   39.6930 C   0  0  0  0  0  0  0  0  0  0  0  0
   35.2910   28.3980   38.9900 N   0  0  0  0  0  0  0  0  0  0  0  0
   34.9690   29.0650   37.8770 C   0  0  0  0  0  0  0  0  0  0  0  0
   35.8060   29.9880   37.4150 N   0  0  0  0  0  0  0  0  0  0  0  0
   38.2700   29.8090   39.6250 H   0  0  0  0  0  0  0  0  0  0  0  0
   36.6400   27.7530   40.8110 C   0  0  0  0  0  0  0  0  0  0  0  0
   36.5960   28.3430   42.0880 C   0  0  0  0  0  0  0  0  0  0  0  0
   36.4140   29.4080   42.1930 H   0  0  0  0  0  0  0  0  0  0  0  0
   36.7680   27.6760   43.2770 C   0  0  0  0  0  3  0  0  0  0  0  0
   37.0030   26.3310   43.2580 C   0  0  0  0  0  3  0  0  0  0  0  0
   37.0670   25.6650   42.0550 C   0  0  0  0  0  0  0  0  0  0  0  0
   37.3380   24.3200   41.9830 C   0  0  0  0  0  3  0  0  0  0  0  0
   37.4480   23.6310   40.7750 C   0  0  0  0  0  3  0  0  0  0  0  0
   37.2650   24.4000   39.6310 C   0  0  0  0  0  3  0  0  0  0  0  0
   36.9940   25.7440   39.7260 C   0  0  0  0  0  3  0  0  0  0  0  0
   36.8840   26.4090   40.9190 C   0  0  0  0  0  0  0  0  0  0  0  0
   37.9050   31.3040   37.5170 C   0  0  0  0  0  0  0  0  0  0  0  0
   39.1920   30.8410   37.4480 F   0  0  0  0  0  0  0  0  0  0  0  0
   37.4730   31.7200   36.2470 F   0  0  0  0  0  0  0  0  0  0  0  0
   37.8240   32.4420   38.3270 F   0  0  0  0  0  0  0  0  0  0  0  0
   33.6920   28.7810   37.1680 C   0  0  0  0  0  0  0  0  0  0  0  0
   33.6830   29.3210   35.9210 F   0  0  0  0  0  0  0  0  0  0  0  0
   32.6120   29.2360   37.9260 F   0  0  0  0  0  0  0  0  0  0  0  0
   33.4800   27.4060   37.0380 F   0  0  0  0  0  0  0  0  0  0  0  0
  1  2  1  0  0  0  0
  2  7  1  0  0  0  0
  2  3  2  0  0  0  0
  3  8  1  0  0  0  0
  4  3  1  0  0  0  0
  5  4  2  0  0  0  0
  6  5  1  0  0  0  0
  6  1  2  0  0  0  0
  8 18  2  0  0  0  0
  8  9  1  0  0  0  0
  9 10  1  0  0  0  0
  9 11  2  0  0  0  0
 12 11  1  0  0  0  0
 13 12  2  0  0  0  0
 14 13  1  0  0  0  0
 15 14  2  0  0  0  0
 16 17  2  0  0  0  0
 16 15  1  0  0  0  0
 17 18  1  0  0  0  0
 18 13  1  0  0  0  0
 19  1  1  0  0  0  0
 19 22  1  0  0  0  0
 20 19  1  0  0  0  0
 21 19  1  0  0  0  0
 23  5  1  0  0  0  0
 23 25  1  0  0  0  0
 24 23  1  0  0  0  0
 26 23  1  0  0  0  0
M  END
>  <minimizedAffinity>
-5.88728428

$$$$

 OpenBabel03252502333D

 26 28  0  0  0  0  0  0  0  0999 V2000
   34.9730   28.9840   37.3830 C   0  0  0  0  0  0  0  0  0  0  0  0
   35.1480   28.1170   38.4700 C   0  0  0  0  0  0  0  0  0  0  0  0
   36.2080   28.3500   39.3570 C   0  0  0  0  0  0  0  0  0  0  0  0
   37.0090   29.4340   39.0880 N   0  0  0  0  0  0  0  0  0  0  0  0
   36.8200   30.2470   38.0440 C   0  0  0  0  0  0  0  0  0  0  0  0
   35.8100   30.0070   37.2150 N   0  0  0  0  0  0  0  0  0  0  0  0
   34.4360   27.3320   38.6090 H   0  0  0  0  0  0  0  0  0  0  0  0
   36.5340   27.6520   40.5550 C   0  0  0  0  0  0  0  0  0  0  0  0
   36.5790   28.4070   41.7420 C   0  0  0  0  0  0  0  0  0  0  0  0
   36.3610   29.4700   41.7230 H   0  0  0  0  0  0  0  0  0  0  0  0
   36.8870   27.9120   42.9860 C   0  0  0  0  0  3  0  0  0  0  0  0
   37.1790   26.5850   43.1210 C   0  0  0  0  0  3  0  0  0  0  0  0
   37.1640   25.7650   42.0150 C   0  0  0  0  0  0  0  0  0  0  0  0
   37.4860   24.4320   42.0950 C   0  0  0  0  0  3  0  0  0  0  0  0
   37.5180   23.5910   40.9830 C   0  0  0  0  0  3  0  0  0  0  0  0
   37.1990   24.1930   39.7700 C   0  0  0  0  0  3  0  0  0  0  0  0
   36.8780   25.5270   39.7140 C   0  0  0  0  0  3  0  0  0  0  0  0
   36.8470   26.3430   40.8140 C   0  0  0  0  0  0  0  0  0  0  0  0
   33.8400   28.7000   36.4680 C   0  0  0  0  0  0  0  0  0  0  0  0
   33.3370   27.4370   36.6330 F   0  0  0  0  0  0  0  0  0  0  0  0
   32.8350   29.6540   36.7010 F   0  0  0  0  0  0  0  0  0  0  0  0
   34.2490   28.9090   35.1460 F   0  0  0  0  0  0  0  0  0  0  0  0
   37.7300   31.4020   37.8120 C   0  0  0  0  0  0  0  0  0  0  0  0
   39.0200   31.0860   38.0980 F   0  0  0  0  0  0  0  0  0  0  0  0
   37.3010   32.5060   38.5510 F   0  0  0  0  0  0  0  0  0  0  0  0
   37.6810   31.8260   36.4810 F   0  0  0  0  0  0  0  0  0  0  0  0
  1  2  1  0  0  0  0
  2  7  1  0  0  0  0
  2  3  2  0  0  0  0
  3  8  1  0  0  0  0
  4  3  1  0  0  0  0
  5  4  2  0  0  0  0
  6  1  2  0  0  0  0
  6  5  1  0  0  0  0
  8 18  2  0  0  0  0
  8  9  1  0  0  0  0
  9 11  2  0  0  0  0
 10  9  1  0  0  0  0
 11 12  1  0  0  0  0
 13 14  1  0  0  0  0
 13 12  2  0  0  0  0
 15 14  2  0  0  0  0
 16 15  1  0  0  0  0
 17 16  2  0  0  0  0
 17 18  1  0  0  0  0
 18 13  1  0  0  0  0
 19 20  1  0  0  0  0
 19 21  1  0  0  0  0
 19  1  1  0  0  0  0
 22 19  1  0  0  0  0
 23  5  1  0  0  0  0
 23 24  1  0  0  0  0
 23 25  1  0  0  0  0
 26 23  1  0  0  0  0
M  END
>  <minimizedAffinity>
-5.87689018

$$$$

 OpenBabel03252502333D

 26 28  0  0  0  0  0  0  0  0999 V2000
   37.1330   29.4480   40.9400 C   0  0  0  0  0  0  0  0  0  0  0  0
   36.6080   28.8780   39.7730 C   0  0  0  0  0  0  0  0  0  0  0  0
   36.5430   29.6590   38.6100 C   0  0  0  0  0  0  0  0  0  0  0  0
   37.0120   30.9480   38.7060 N   0  0  0  0  0  0  0  0  0  0  0  0
   37.5090   31.4670   39.8330 C   0  0  0  0  0  0  0  0  0  0  0  0
   37.5600   30.7100   40.9240 N   0  0  0  0  0  0  0  0  0  0  0  0
   36.3150   27.8510   39.7990 H   0  0  0  0  0  0  0  0  0  0  0  0
   36.1200   29.2760   37.3040 C   0  0  0  0  0  0  0  0  0  0  0  0
   37.1220   29.1120   36.3310 C   0  0  0  0  0  0  0  0  0  0  0  0
   38.1660   29.2650   36.5870 H   0  0  0  0  0  0  0  0  0  0  0  0
   36.9050   28.7610   35.0200 C   0  0  0  0  0  3  0  0  0  0  0  0
   35.6270   28.5450   34.5910 C   0  0  0  0  0  3  0  0  0  0  0  0
   34.5770   28.6850   35.4720 C   0  0  0  0  0  0  0  0  0  0  0  0
   33.2720   28.5150   35.0780 C   0  0  0  0  0  3  0  0  0  0  0  0
   32.1910   28.6900   35.9410 C   0  0  0  0  0  3  0  0  0  0  0  0
   32.5180   29.0540   37.2430 C   0  0  0  0  0  3  0  0  0  0  0  0
   33.8310   29.2170   37.6150 C   0  0  0  0  0  3  0  0  0  0  0  0
   34.8860   29.0380   36.7590 C   0  0  0  0  0  0  0  0  0  0  0  0
   37.1810   28.5880   42.1490 C   0  0  0  0  0  0  0  0  0  0  0  0
   37.5010   29.2910   43.2790 F   0  0  0  0  0  0  0  0  0  0  0  0
   35.9280   27.9710   42.3020 F   0  0  0  0  0  0  0  0  0  0  0  0
   38.0850   27.5410   41.9360 F   0  0  0  0  0  0  0  0  0  0  0  0
   37.9960   32.8730   39.8660 C   0  0  0  0  0  0  0  0  0  0  0  0
   39.0150   33.0690   38.9880 F   0  0  0  0  0  0  0  0  0  0  0  0
   38.3720   33.2190   41.1650 F   0  0  0  0  0  0  0  0  0  0  0  0
   36.9760   33.7710   39.5410 F   0  0  0  0  0  0  0  0  0  0  0  0
  1 19  1  0  0  0  0
  2  7  1  0  0  0  0
  2  1  2  0  0  0  0
  3  4  2  0  0  0  0
  3  2  1  0  0  0  0
  4  5  1  0  0  0  0
  5 23  1  0  0  0  0
  5  6  2  0  0  0  0
  6  1  1  0  0  0  0
  8  3  1  0  0  0  0
  9 10  1  0  0  0  0
  9  8  2  0  0  0  0
 11  9  1  0  0  0  0
 12 11  2  0  0  0  0
 12 13  1  0  0  0  0
 13 18  1  0  0  0  0
 14 13  2  0  0  0  0
 14 15  1  0  0  0  0
 15 16  2  0  0  0  0
 16 17  1  0  0  0  0
 18  8  1  0  0  0  0
 18 17  2  0  0  0  0
 19 21  1  0  0  0  0
 19 20  1  0  0  0  0
 22 19  1  0  0  0  0
 23 25  1  0  0  0  0
 24 23  1  0  0  0  0
 26 23  1  0  0  0  0
M  END
>  <minimizedAffinity>
-5.77126074

$$$$

 OpenBabel03252502333D

 26 28  0  0  0  0  0  0  0  0999 V2000
   36.7810   30.4140   38.5280 C   0  0  0  0  0  0  0  0  0  0  0  0
   36.6360   29.1330   39.0770 C   0  0  0  0  0  0  0  0  0  0  0  0
   36.3530   28.0590   38.2220 C   0  0  0  0  0  0  0  0  0  0  0  0
   36.2400   28.3510   36.8830 N   0  0  0  0  0  0  0  0  0  0  0  0
   36.3840   29.5820   36.3840 C   0  0  0  0  0  0  0  0  0  0  0  0
   36.6500   30.5860   37.2130 N   0  0  0  0  0  0  0  0  0  0  0  0
   36.7920   29.0130   40.1270 H   0  0  0  0  0  0  0  0  0  0  0  0
   36.2350   26.6750   38.5400 C   0  0  0  0  0  0  0  0  0  0  0  0
   35.7370   25.8280   37.5340 C   0  0  0  0  0  0  0  0  0  0  0  0
   35.4700   26.2300   36.5610 H   0  0  0  0  0  0  0  0  0  0  0  0
   35.5420   24.4740   37.6620 C   0  0  0  0  0  3  0  0  0  0  0  0
   35.8450   23.8660   38.8460 C   0  0  0  0  0  3  0  0  0  0  0  0
   36.3360   24.6140   39.8930 C   0  0  0  0  0  0  0  0  0  0  0  0
   36.6200   24.0540   41.1140 C   0  0  0  0  0  3  0  0  0  0  0  0
   37.0800   24.7970   42.2010 C   0  0  0  0  0  3  0  0  0  0  0  0
   37.2350   26.1600   41.9700 C   0  0  0  0  0  3  0  0  0  0  0  0
   36.9460   26.6990   40.7390 C   0  0  0  0  0  3  0  0  0  0  0  0
   36.4980   25.9570   39.6770 C   0  0  0  0  0  0  0  0  0  0  0  0
   37.0780   31.5220   39.4690 C   0  0  0  0  0  0  0  0  0  0  0  0
   36.8280   32.7540   38.9230 F   0  0  0  0  0  0  0  0  0  0  0  0
   36.3010   31.3400   40.6250 F   0  0  0  0  0  0  0  0  0  0  0  0
   38.4060   31.4230   39.8960 F   0  0  0  0  0  0  0  0  0  0  0  0
   36.2440   29.8270   34.9220 C   0  0  0  0  0  0  0  0  0  0  0  0
   34.9570   29.6790   34.5130 F   0  0  0  0  0  0  0  0  0  0  0  0
   37.1020   28.9850   34.2120 F   0  0  0  0  0  0  0  0  0  0  0  0
   36.6540   31.1190   34.5830 F   0  0  0  0  0  0  0  0  0  0  0  0
  1  2  1  0  0  0  0
  1 19  1  0  0  0  0
  2  7  1  0  0  0  0
  3  8  1  0  0  0  0
  3  2  2  0  0  0  0
  4  3  1  0  0  0  0
  5  4  2  0  0  0  0
  5  6  1  0  0  0  0
  6  1  2  0  0  0  0
  8 18  1  0  0  0  0
  9 11  1  0  0  0  0
  9  8  2  0  0  0  0
 10  9  1  0  0  0  0
 11 12  2  0  0  0  0
 12 13  1  0  0  0  0
 13 14  1  0  0  0  0
 14 15  2  0  0  0  0
 16 15  1  0  0  0  0
 17 16  2  0  0  0  0
 18 13  2  0  0  0  0
 18 17  1  0  0  0  0
 19 22  1  0  0  0  0
 19 21  1  0  0  0  0
 20 19  1  0  0  0  0
 23  5  1  0  0  0  0
 24 23  1  0  0  0  0
 25 23  1  0  0  0  0
 26 23  1  0  0  0  0
M  END
>  <minimizedAffinity>
-5.75990248

$$$$

 OpenBabel03252502333D

 26 28  0  0  0  0  0  0  0  0999 V2000
   36.2840   27.9760   39.3460 C   0  0  0  0  0  0  0  0  0  0  0  0
   36.8010   29.2520   39.0880 C   0  0  0  0  0  0  0  0  0  0  0  0
   37.4220   29.9520   40.1320 C   0  0  0  0  0  0  0  0  0  0  0  0
   37.4810   29.3180   41.3500 N   0  0  0  0  0  0  0  0  0  0  0  0
   36.9810   28.0980   41.5690 C   0  0  0  0  0  0  0  0  0  0  0  0
   36.3940   27.4530   40.5670 N   0  0  0  0  0  0  0  0  0  0  0  0
   36.7410   29.6300   38.0900 H   0  0  0  0  0  0  0  0  0  0  0  0
   38.0750   31.2180   40.0880 C   0  0  0  0  0  0  0  0  0  0  0  0
   37.2540   32.3580   40.0210 C   0  0  0  0  0  0  0  0  0  0  0  0
   36.1730   32.2560   40.0140 H   0  0  0  0  0  0  0  0  0  0  0  0
   37.7020   33.6560   39.9580 C   0  0  0  0  0  3  0  0  0  0  0  0
   39.0460   33.8980   39.9600 C   0  0  0  0  0  3  0  0  0  0  0  0
   39.9300   32.8440   40.0200 C   0  0  0  0  0  0  0  0  0  0  0  0
   41.2900   33.0340   39.9870 C   0  0  0  0  0  3  0  0  0  0  0  0
   42.2040   31.9820   40.0060 C   0  0  0  0  0  3  0  0  0  0  0  0
   41.6480   30.7080   40.0600 C   0  0  0  0  0  3  0  0  0  0  0  0
   40.2840   30.5410   40.0950 C   0  0  0  0  0  3  0  0  0  0  0  0
   39.3960   31.5830   40.0790 C   0  0  0  0  0  0  0  0  0  0  0  0
   35.6320   27.2700   38.2140 C   0  0  0  0  0  0  0  0  0  0  0  0
   35.5930   25.9130   38.3950 F   0  0  0  0  0  0  0  0  0  0  0  0
   34.3290   27.7760   38.0700 F   0  0  0  0  0  0  0  0  0  0  0  0
   36.2900   27.5990   37.0230 F   0  0  0  0  0  0  0  0  0  0  0  0
   37.0760   27.4730   42.9160 C   0  0  0  0  0  0  0  0  0  0  0  0
   35.8740   27.4640   43.5480 F   0  0  0  0  0  0  0  0  0  0  0  0
   38.0460   28.1250   43.6800 F   0  0  0  0  0  0  0  0  0  0  0  0
   37.5220   26.1510   42.8310 F   0  0  0  0  0  0  0  0  0  0  0  0
  1  6  1  0  0  0  0
  2  1  2  0  0  0  0
  2  3  1  0  0  0  0
  3  4  2  0  0  0  0
  4  5  1  0  0  0  0
  5 23  1  0  0  0  0
  6  5  2  0  0  0  0
  7  2  1  0  0  0  0
  8  3  1  0  0  0  0
  9  8  2  0  0  0  0
 10  9  1  0  0  0  0
 11 12  2  0  0  0  0
 11  9  1  0  0  0  0
 12 13  1  0  0  0  0
 13 18  1  0  0  0  0
 14 15  1  0  0  0  0
 14 13  2  0  0  0  0
 15 16  2  0  0  0  0
 16 17  1  0  0  0  0
 18  8  1  0  0  0  0
 18 17  2  0  0  0  0
 19 20  1  0  0  0  0
 19  1  1  0  0  0  0
 21 19  1  0  0  0  0
 22 19  1  0  0  0  0
 23 24  1  0  0  0  0
 23 25  1  0  0  0  0
 26 23  1  0  0  0  0
M  END
>  <minimizedAffinity>
-5.62719393

$$$$
