
 OpenBabel03242511093D

 45 50  0  0  1  0  0  0  0  0999 V2000
   47.2320   32.9370   44.3120 C   0  0  0  0  0  0  0  0  0  0  0  0
   47.1900   32.1400   45.4520 C   0  0  0  0  0  0  0  0  0  0  0  0
   46.3230   32.3670   46.5120 C   0  0  0  0  0  0  0  0  0  0  0  0
   45.4380   33.4340   46.4690 C   0  0  0  0  0  0  0  0  0  0  0  0
   45.4560   34.2300   45.3660 C   0  0  0  0  0  0  0  0  0  0  0  0
   44.5810   35.2930   45.3090 C   0  0  0  0  0  0  0  0  0  0  0  0
   44.5360   36.1480   44.2160 C   0  0  0  0  0  0  0  0  0  0  0  0
   45.4210   35.8830   43.1750 C   0  0  0  0  0  0  0  0  0  0  0  0
   46.2880   34.8040   43.2670 C   0  0  0  0  0  0  0  0  0  0  0  0
   46.3280   33.9700   44.3410 C   0  0  0  0  0  0  0  0  0  0  0  0
   47.8380   31.2880   45.5760 H   0  0  0  0  0  0  0  0  0  0  0  0
   46.3230   31.7190   47.3870 H   0  0  0  0  0  0  0  0  0  0  0  0
   44.7890   33.5640   47.3190 H   0  0  0  0  0  0  0  0  0  0  0  0
   43.9080   35.4550   46.1550 H   0  0  0  0  0  0  0  0  0  0  0  0
   43.8080   36.9500   44.2830 H   0  0  0  0  0  0  0  0  0  0  0  0
   45.2880   36.6140   42.3900 H   0  0  0  0  0  0  0  0  0  0  0  0
   47.0450   34.7770   42.0290 C   0  0  0  0  0  0  0  0  0  0  0  0
   48.2160   35.3950   41.6360 C   0  0  0  0  0  0  0  0  0  0  0  0
   48.6340   35.9820   42.4600 H   0  0  0  0  0  0  0  0  0  0  0  0
   48.7450   35.2680   40.3750 C   0  0  0  0  0  0  0  0  0  0  0  0
   48.1290   34.5050   39.4060 C   0  0  0  0  0  0  0  0  0  0  0  0
   46.9570   33.8730   39.7620 C   0  0  0  0  0  0  0  0  0  0  0  0
   46.3730   33.1210   38.7650 C   0  0  0  0  0  0  0  0  0  0  0  0
   45.1990   32.4550   39.0370 C   0  0  0  0  0  0  0  0  0  0  0  0
   44.6210   32.5450   40.2860 C   0  0  0  0  0  0  0  0  0  0  0  0
   45.2560   33.3140   41.2370 C   0  0  0  0  0  0  0  0  0  0  0  0
   46.4320   34.0040   41.0300 C   0  0  0  0  0  0  0  0  0  0  0  0
   48.1490   32.6340   43.2940 N   0  0  0  0  0  0  0  0  0  0  0  0
   48.3990   33.3490   42.5770 H   0  0  0  0  0  0  0  0  0  0  0  0
   49.9480   31.0530   42.4150 C   0  0  1  0  0  0  0  0  0  0  0  0
   48.6200   30.6230   41.8330 C   0  0  0  0  0  0  0  0  0  0  0  0
   48.7420   31.3310   43.1800 C   0  0  2  0  0  0  0  0  0  0  0  0
   50.4670   31.7550   41.7190 H   0  0  0  0  0  0  0  0  0  0  0  0
   48.1900   31.1700   40.9920 H   0  0  0  0  0  0  0  0  0  0  0  0
   48.3740   29.5310   41.8310 H   0  0  0  0  0  0  0  0  0  0  0  0
   48.5840   30.6650   44.0720 H   0  0  0  0  0  0  0  0  0  0  0  0
   52.9440   28.8680   42.6750 C   0  0  0  0  0  0  0  0  0  0  0  0
   52.5680   28.0100   43.7490 C   0  0  0  0  0  0  0  0  0  0  0  0
   51.3010   28.2120   44.3590 C   0  0  0  0  0  0  0  0  0  0  0  0
   50.5050   29.1900   43.9140 N   0  0  0  0  0  0  0  0  0  0  0  0
   50.8950   29.9920   42.8870 C   0  0  0  0  0  0  0  0  0  0  0  0
   52.1110   29.8350   42.2650 N   0  0  0  0  0  0  0  0  0  0  0  0
   53.9250   28.7010   42.2130 H   0  0  0  0  0  0  0  0  0  0  0  0
   53.2100   27.2290   44.1000 H   0  0  0  0  0  0  0  0  0  0  0  0
   51.0050   27.5630   45.1800 H   0  0  0  0  0  0  0  0  0  0  0  0
  1 10  2  0  0  0  0
  1  2  1  0  0  0  0
  2 11  1  0  0  0  0
  2  3  2  0  0  0  0
  3 12  1  0  0  0  0
  4  3  1  0  0  0  0
  4 13  1  0  0  0  0
  5  4  2  0  0  0  0
  6  5  1  0  0  0  0
  6 14  1  0  0  0  0
  7 15  1  0  0  0  0
  7  6  2  0  0  0  0
  8  9  2  0  0  0  0
  8  7  1  0  0  0  0
  9 10  1  0  0  0  0
 10  5  1  0  0  0  0
 16  8  1  0  0  0  0
 17  9  1  0  0  0  0
 18 17  1  0  0  0  0
 18 19  1  0  0  0  0
 20 18  2  0  0  0  0
 21 22  2  0  0  0  0
 21 20  1  0  0  0  0
 22 27  1  0  0  0  0
 23 24  2  0  0  0  0
 23 22  1  0  0  0  0
 24 25  1  0  0  0  0
 25 26  2  0  0  0  0
 27 26  1  0  0  0  0
 27 17  2  0  0  0  0
 28  1  1  0  0  0  0
 29 28  1  0  0  0  0
 30 33  1  6  0  0  0
 30 41  1  0  0  0  0
 30 32  1  0  0  0  0
 31 30  1  0  0  0  0
 31 32  1  0  0  0  0
 32 28  1  0  0  0  0
 32 36  1  1  0  0  0
 34 31  1  0  0  0  0
 35 31  1  0  0  0  0
 37 38  1  0  0  0  0
 38 44  1  0  0  0  0
 38 39  2  0  0  0  0
 39 45  1  0  0  0  0
 40 39  1  0  0  0  0
 41 40  2  0  0  0  0
 42 37  2  0  0  0  0
 42 41  1  0  0  0  0
 43 37  1  0  0  0  0
M  END
>  <minimizedAffinity>
-6.68205214

>  <minimizedRMSD>
2.72312474

$$$$
