
 OpenBabel03242517593D

 26 28  0  0  0  0  0  0  0  0999 V2000
   48.4250   34.5070   42.9070 C   0  0  0  0  0  0  0  0  0  0  0  0
   47.6000   34.2560   43.6200 H   0  0  0  0  0  0  0  0  0  0  0  0
   49.0480   35.2770   43.3650 H   0  0  0  0  0  0  0  0  0  0  0  0
   49.2250   33.2580   42.6380 C   0  0  0  0  0  0  0  0  0  0  0  0
   50.4690   33.3130   42.0150 C   0  0  0  0  0  0  0  0  0  0  0  0
   50.8400   34.2700   41.7130 H   0  0  0  0  0  0  0  0  0  0  0  0
   51.1950   32.1640   41.7970 C   0  0  0  0  0  3  0  0  0  0  0  0
   50.7210   30.9310   42.1850 C   0  0  0  0  0  3  0  0  0  0  0  0
   49.4930   30.8890   42.7990 C   0  0  0  0  0  0  0  0  0  0  0  0
   49.0270   29.6370   43.1790 C   0  0  0  0  0  3  0  0  0  0  0  0
   47.7880   29.5210   43.7990 C   0  0  0  0  0  3  0  0  0  0  0  0
   47.0280   30.6520   44.0350 C   0  0  0  0  0  3  0  0  0  0  0  0
   47.5340   31.8870   43.6380 C   0  0  0  0  0  3  0  0  0  0  0  0
   48.7510   32.0310   43.0250 C   0  0  0  0  0  0  0  0  0  0  0  0
   47.7650   34.9830   41.6180 C   0  0  0  0  0  0  0  0  0  0  0  0
   48.0940   35.9610   41.2940 H   0  0  0  0  0  0  0  0  0  0  0  0
   48.0210   34.1750   40.8610 H   0  0  0  0  0  0  0  0  0  0  0  0
   45.5300   34.2610   40.8810 C   0  0  0  0  0  0  0  0  0  0  0  0
   46.3240   34.9460   41.8020 C   0  0  0  0  0  0  0  0  0  0  0  0
   45.6520   35.5600   42.8590 C   0  0  0  0  0  0  0  0  0  0  0  0
   44.3040   35.4570   42.9260 N   0  0  0  0  0  0  0  0  0  0  0  0
   43.5830   34.7890   42.0200 C   0  0  0  0  0  0  0  0  0  0  0  0
   44.2040   34.1890   40.9940 N   0  0  0  0  0  0  0  0  0  0  0  0
   46.0450   33.7720   40.0430 H   0  0  0  0  0  0  0  0  0  0  0  0
   46.2170   36.1060   43.6020 H   0  0  0  0  0  0  0  0  0  0  0  0
   42.5070   34.7370   42.1220 H   0  0  0  0  0  0  0  0  0  0  0  0
  1  3  1  0  0  0  0
  1  2  1  0  0  0  0
  4  1  1  0  0  0  0
  4 14  1  0  0  0  0
  5  4  2  0  0  0  0
  6  5  1  0  0  0  0
  7  5  1  0  0  0  0
  7  8  2  0  0  0  0
  8  9  1  0  0  0  0
  9 14  2  0  0  0  0
  9 10  1  0  0  0  0
 10 11  2  0  0  0  0
 11 12  1  0  0  0  0
 13 12  2  0  0  0  0
 14 13  1  0  0  0  0
 15 19  1  0  0  0  0
 15  1  1  0  0  0  0
 16 15  1  0  0  0  0
 17 15  1  0  0  0  0
 18 23  2  0  0  0  0
 18 19  1  0  0  0  0
 19 20  2  0  0  0  0
 20 21  1  0  0  0  0
 20 25  1  0  0  0  0
 22 26  1  0  0  0  0
 22 21  2  0  0  0  0
 23 22  1  0  0  0  0
 24 18  1  0  0  0  0
M  END
>  <minimizedAffinity>
-4.07773161

>  <minimizedRMSD>
5.1016593

$$$$
