
 OpenBabel03252508333D

 34 37  0  0  1  0  0  0  0  0999 V2000
   43.9950   34.4010   41.9200 N   0  0  0  0  0  0  0  0  0  0  0  0
   43.8440   33.3230   41.0610 C   0  0  1  0  0  0  0  0  0  0  0  0
   43.1670   33.6030   39.7600 C   0  0  0  0  0  0  0  0  0  0  0  0
   42.0920   34.4950   39.7960 N   0  0  0  0  0  0  0  0  0  0  0  0
   42.1220   35.5090   40.7720 C   0  0  0  0  0  0  0  0  0  0  0  0
   43.5150   35.6550   41.3750 C   0  0  0  0  0  0  0  0  0  0  0  0
   43.0520   32.6790   41.5980 H   0  0  0  0  0  0  0  0  0  0  0  0
   43.8600   33.9190   38.9550 H   0  0  0  0  0  0  0  0  0  0  0  0
   42.7750   32.6100   39.3820 H   0  0  0  0  0  0  0  0  0  0  0  0
   41.1530   34.1320   39.5800 H   0  0  0  0  0  0  0  0  0  0  0  0
   41.7940   36.5020   40.4810 H   0  0  0  0  0  0  0  0  0  0  0  0
   41.4790   35.1890   41.6280 H   0  0  0  0  0  0  0  0  0  0  0  0
   43.4590   36.4840   42.0680 H   0  0  0  0  0  0  0  0  0  0  0  0
   44.1550   35.9660   40.5190 H   0  0  0  0  0  0  0  0  0  0  0  0
   44.9210   32.3620   40.7710 C   0  0  0  0  0  0  0  0  0  0  0  0
   44.6490   30.9770   40.8900 C   0  0  0  0  0  0  0  0  0  0  0  0
   43.6470   30.6630   41.2220 H   0  0  0  0  0  0  0  0  0  0  0  0
   45.5000   29.9530   40.6380 C   0  0  0  0  0  3  0  0  0  0  0  0
   46.7710   30.2540   40.2190 C   0  0  0  0  0  3  0  0  0  0  0  0
   47.1540   31.5660   40.0650 C   0  0  0  0  0  0  0  0  0  0  0  0
   48.4160   31.9310   39.6490 C   0  0  0  0  0  3  0  0  0  0  0  0
   48.8160   33.2620   39.4890 C   0  0  0  0  0  3  0  0  0  0  0  0
   47.8640   34.2460   39.7750 C   0  0  0  0  0  3  0  0  0  0  0  0
   46.6210   33.8340   40.1880 C   0  0  0  0  0  3  0  0  0  0  0  0
   46.2220   32.5300   40.3450 C   0  0  0  0  0  0  0  0  0  0  0  0
   44.4200   35.2910   44.1000 C   0  0  0  0  0  0  0  0  0  0  0  0
   44.5340   34.2410   43.2040 C   0  0  0  0  0  0  0  0  0  0  0  0
   45.1630   33.1030   43.6440 C   0  0  0  0  0  0  0  0  0  0  0  0
   45.6490   33.0090   44.8920 N   0  0  0  0  0  0  0  0  0  0  0  0
   45.5200   34.0620   45.7520 C   0  0  0  0  0  0  0  0  0  0  0  0
   44.9190   35.1740   45.3590 N   0  0  0  0  0  0  0  0  0  0  0  0
   43.9680   36.2600   43.9650 H   0  0  0  0  0  0  0  0  0  0  0  0
   45.3160   32.2160   43.0930 H   0  0  0  0  0  0  0  0  0  0  0  0
   45.9250   33.9670   46.7730 H   0  0  0  0  0  0  0  0  0  0  0  0
  1 27  1  0  0  0  0
  2  7  1  1  0  0  0
  2  1  1  0  0  0  0
  3  4  1  0  0  0  0
  3  2  1  0  0  0  0
  4  5  1  0  0  0  0
  5  6  1  0  0  0  0
  5 12  1  0  0  0  0
  6  1  1  0  0  0  0
  6 13  1  0  0  0  0
  8  3  1  0  0  0  0
  9  3  1  0  0  0  0
 10  4  1  0  0  0  0
 11  5  1  0  0  0  0
 14  6  1  0  0  0  0
 15 16  1  0  0  0  0
 15  2  1  0  0  0  0
 16 17  1  0  0  0  0
 18 16  2  0  0  0  0
 19 18  1  0  0  0  0
 20 19  2  0  0  0  0
 20 25  1  0  0  0  0
 21 20  1  0  0  0  0
 22 21  2  0  0  0  0
 22 23  1  0  0  0  0
 23 24  2  0  0  0  0
 24 25  1  0  0  0  0
 25 15  2  0  0  0  0
 26 31  1  0  0  0  0
 27 28  1  0  0  0  0
 27 26  2  0  0  0  0
 28 29  2  0  0  0  0
 29 30  1  0  0  0  0
 30 34  1  0  0  0  0
 31 30  2  0  0  0  0
 32 26  1  0  0  0  0
 33 28  1  0  0  0  0
M  END
>  <minimizedAffinity>
-4.34381723

>  <minimizedRMSD>
1.26515698

$$$$
