
 OpenBabel03242515233D

 23 25  0  0  0  0  0  0  0  0999 V2000
   43.9940   35.6870   41.5240 C   0  0  0  0  0  0  0  0  0  0  0  0
   44.8250   35.4610   40.7950 H   0  0  0  0  0  0  0  0  0  0  0  0
   43.9270   36.7620   41.5920 H   0  0  0  0  0  0  0  0  0  0  0  0
   42.7120   35.0940   41.1300 C   0  0  0  0  0  0  0  0  0  0  0  0
   41.5250   35.4060   41.7630 C   0  0  0  0  0  0  0  0  0  0  0  0
   41.5220   36.1430   42.5770 H   0  0  0  0  0  0  0  0  0  0  0  0
   40.2970   34.8390   41.4320 C   0  0  0  0  0  3  0  0  0  0  0  0
   40.2510   33.8960   40.3960 C   0  0  0  0  0  3  0  0  0  0  0  0
   41.4060   33.5480   39.7300 C   0  0  0  0  0  0  0  0  0  0  0  0
   41.3590   32.6180   38.6940 C   0  0  0  0  0  3  0  0  0  0  0  0
   42.5390   32.3200   38.0630 C   0  0  0  0  0  3  0  0  0  0  0  0
   43.7700   32.8730   38.3800 C   0  0  0  0  0  3  0  0  0  0  0  0
   43.7580   33.7980   39.4250 C   0  0  0  0  0  3  0  0  0  0  0  0
   42.5970   34.1560   40.1180 C   0  0  0  0  0  0  0  0  0  0  0  0
   44.3900   35.9210   43.9080 C   0  0  0  0  0  0  0  0  0  0  0  0
   44.4560   35.0540   42.7950 C   0  0  0  0  0  0  0  0  0  0  0  0
   44.9190   33.7710   42.9890 C   0  0  0  0  0  0  0  0  0  0  0  0
   45.2820   33.4280   44.2380 N   0  0  0  0  0  0  0  0  0  0  0  0
   45.2200   34.2500   45.2940 C   0  0  0  0  0  0  0  0  0  0  0  0
   44.7670   35.5270   45.1450 N   0  0  0  0  0  0  0  0  0  0  0  0
   44.0320   36.9540   43.8270 H   0  0  0  0  0  0  0  0  0  0  0  0
   44.9430   33.1620   42.1070 H   0  0  0  0  0  0  0  0  0  0  0  0
   45.5180   33.9530   46.2900 H   0  0  0  0  0  0  0  0  0  0  0  0
  1  3  1  0  0  0  0
  1 16  1  0  0  0  0
  2  1  1  0  0  0  0
  4  1  1  0  0  0  0
  4  5  1  0  0  0  0
  5  6  1  0  0  0  0
  7  5  2  0  0  0  0
  8  7  1  0  0  0  0
  9 14  1  0  0  0  0
  9  8  2  0  0  0  0
 10  9  1  0  0  0  0
 11 12  1  0  0  0  0
 11 10  2  0  0  0  0
 12 13  2  0  0  0  0
 13 14  1  0  0  0  0
 14  4  2  0  0  0  0
 15 20  1  0  0  0  0
 16 17  1  0  0  0  0
 16 15  2  0  0  0  0
 17 18  2  0  0  0  0
 18 19  1  0  0  0  0
 19 23  1  0  0  0  0
 20 19  2  0  0  0  0
 21 15  1  0  0  0  0
 22 17  1  0  0  0  0
M  END
>  <minimizedAffinity>
-4.838274

>  <minimizedRMSD>
2.01632977

$$$$
