
     RDKit          3D

 32 34  0  0  0  0  0  0  0  0999 V2000
   45.1898   35.2101   44.0572 C   0  0  0  0  0  0  0  0  0  0  0  0
   46.2305   34.5789   43.3742 C   0  0  0  0  0  0  0  0  0  0  0  0
   46.9003   33.5704   44.0661 C   0  0  0  0  0  0  0  0  0  0  0  0
   46.5115   33.2711   45.3273 N   0  0  0  0  0  0  0  0  0  0  0  0
   45.5073   33.9026   45.9441 C   0  0  0  0  0  0  0  0  0  0  0  0
   44.8460   34.8770   45.3008 N   0  0  0  0  0  0  0  0  0  0  0  0
   46.5507   34.9923   42.0176 C   0  0  0  0  0  0  0  0  0  0  0  0
   48.0600   35.1835   41.9187 C   0  0  0  0  0  0  0  0  0  0  0  0
   44.6528   36.0072   43.5254 H   0  0  0  0  0  0  0  0  0  0  0  0
   47.7147   33.0466   43.5850 H   0  0  0  0  0  0  0  0  0  0  0  0
   45.2365   33.6243   46.9534 H   0  0  0  0  0  0  0  0  0  0  0  0
   45.9796   35.8645   41.7281 H   0  0  0  0  0  0  0  0  0  0  0  0
   46.3402   34.1023   41.3442 H   0  0  0  0  0  0  0  0  0  0  0  0
   48.5268   34.1863   42.1142 H   0  0  0  0  0  0  0  0  0  0  0  0
   48.4396   35.8883   42.6612 H   0  0  0  0  0  0  0  0  0  0  0  0
   48.4269   35.6217   40.5239 C   0  0  0  0  0  0  0  0  0  0  0  0
   48.0561   34.8767   39.4078 C   0  0  0  0  0  0  0  0  0  0  0  0
   47.5138   33.9668   39.5652 H   0  0  0  0  0  0  0  0  0  0  0  0
   48.3805   35.3037   38.1401 C   0  0  0  0  0  0  0  0  0  0  0  0
   49.0773   36.4729   37.9339 C   0  0  0  0  0  0  0  0  0  0  0  0
   49.4387   37.2000   39.0417 C   0  0  0  0  0  0  0  0  0  0  0  0
   50.1462   38.3734   38.8164 C   0  0  0  0  0  0  0  0  0  0  0  0
   50.5487   39.1542   39.8942 C   0  0  0  0  0  0  0  0  0  0  0  0
   50.2425   38.7584   41.1835 C   0  0  0  0  0  0  0  0  0  0  0  0
   49.5315   37.5749   41.3626 C   0  0  0  0  0  0  0  0  0  0  0  0
   49.1216   36.7861   40.3200 C   0  0  0  0  0  0  0  0  0  0  0  0
   48.0671   34.6851   37.2995 H   0  0  0  0  0  0  0  0  0  0  0  0
   49.3319   36.8108   36.9533 H   0  0  0  0  0  0  0  0  0  0  0  0
   50.4402   38.7813   37.8644 H   0  0  0  0  0  0  0  0  0  0  0  0
   51.1000   40.0753   39.7952 H   0  0  0  0  0  0  0  0  0  0  0  0
   50.5506   39.3592   42.0407 H   0  0  0  0  0  0  0  0  0  0  0  0
   49.3289   37.3151   42.3870 H   0  0  0  0  0  0  0  0  0  0  0  0
  1  6  2  0
  2  1  1  0
  2  3  2  0
  3  4  1  0
  4  5  2  0
  6  5  1  0
  7  2  1  0
  8  7  1  0
  1  9  1  0
  3 10  1  0
  5 11  1  0
  7 12  1  0
  7 13  1  0
  8 14  1  0
  8 15  1  0
 16 17  2  0
 17 18  1  0
 17 19  1  0
 19 20  2  0
 20 21  1  0
 21 22  2  0
 22 23  1  0
 23 24  2  0
 24 25  1  0
 25 26  2  0
 26 16  1  0
 26 21  1  0
 19 27  1  0
 20 28  1  0
 22 29  1  0
 23 30  1  0
 24 31  1  0
 25 32  1  0
  8 16  1  0
M  ISO  8   9  14  10  14  11  14  12   8  13   8  14   8  15   8  18  15
M  END
>  <DihAtoms>  (1) 
6,7,15,16

>  <DihDeg>  (1) 
-100.51773887817251

$$$$
