
     RDKit          3D

 29 31  0  0  0  0  0  0  0  0999 V2000
   44.3856   35.7733   44.4343 C   0  0  0  0  0  0  0  0  0  0  0  0
   44.6767   35.0424   43.2613 C   0  0  0  0  0  0  0  0  0  0  0  0
   45.2959   33.8184   43.3883 C   0  0  0  0  0  0  0  0  0  0  0  0
   45.5843   33.3977   44.6330 N   0  0  0  0  0  0  0  0  0  0  0  0
   45.3083   34.0908   45.7463 C   0  0  0  0  0  0  0  0  0  0  0  0
   44.6956   35.3065   45.6640 N   0  0  0  0  0  0  0  0  0  0  0  0
   44.2527   35.7370   42.0099 C   0  0  0  0  0  0  0  0  0  0  0  0
   43.8955   36.7533   44.4082 H   0  0  0  0  0  0  0  0  0  0  0  0
   45.4882   33.3107   42.4628 H   0  0  0  0  0  0  0  0  0  0  0  0
   45.5499   33.7337   46.7370 H   0  0  0  0  0  0  0  0  0  0  0  0
   45.0940   35.5283   41.2890 H   0  0  0  0  0  0  0  0  0  0  0  0
   44.2033   36.8088   42.1234 H   0  0  0  0  0  0  0  0  0  0  0  0
   42.9688   35.1855   41.5665 C   0  0  0  0  0  0  0  0  0  0  0  0
   42.1478   35.8422   40.6722 C   0  0  0  0  0  0  0  0  0  0  0  0
   42.4664   36.8053   40.2495 H   0  0  0  0  0  0  0  0  0  0  0  0
   40.9110   35.3574   40.2536 C   0  0  0  0  0  0  0  0  0  0  0  0
   40.4641   34.1315   40.7632 C   0  0  0  0  0  0  0  0  0  0  0  0
   41.2441   33.4323   41.6592 C   0  0  0  0  0  0  0  0  0  0  0  0
   40.8045   32.2084   42.1577 C   0  0  0  0  0  0  0  0  0  0  0  0
   41.6272   31.5555   43.0372 C   0  0  0  0  0  0  0  0  0  0  0  0
   42.8610   32.0220   43.4657 C   0  0  0  0  0  0  0  0  0  0  0  0
   43.2515   33.2529   42.9340 C   0  0  0  0  0  0  0  0  0  0  0  0
   42.4679   33.9802   42.0311 C   0  0  0  0  0  0  0  0  0  0  0  0
   40.2830   35.8945   39.5511 H   0  0  0  0  0  0  0  0  0  0  0  0
   39.5139   33.6873   40.4898 H   0  0  0  0  0  0  0  0  0  0  0  0
   39.8509   31.8166   41.8433 H   0  0  0  0  0  0  0  0  0  0  0  0
   41.2998   30.5954   43.4377 H   0  0  0  0  0  0  0  0  0  0  0  0
   43.4871   31.4740   44.1661 H   0  0  0  0  0  0  0  0  0  0  0  0
   44.2323   33.5718   43.3022 H   0  0  0  0  0  0  0  0  0  0  0  0
  1  6  2  0
  2  3  2  0
  2  1  1  0
  3  4  1  0
  4  5  2  0
  6  5  1  0
  7  2  1  0
  1  8  1  0
  3  9  1  0
  5 10  1  0
  7 11  1  0
  7 12  1  0
 13 14  2  0
 14 15  1  0
 14 16  1  0
 16 17  2  0
 17 18  1  0
 18 19  2  0
 19 20  1  0
 20 21  2  0
 21 22  1  0
 22 23  2  0
 23 13  1  0
 23 18  1  0
 16 24  1  0
 17 25  1  0
 19 26  1  0
 20 27  1  0
 21 28  1  0
 22 29  1  0
  7 13  1  0
M  ISO  6   8  14   9  14  10  14  11   8  12   8  15  15
M  END
>  <DihAtoms>  (1) 
1,6,12,13

>  <DihDeg>  (1) 
26.973175118302795

$$$$
