
 OpenBabel03242519583D

 30 33  0  0  0  0  0  0  0  0999 V2000
   44.7460   33.1010   42.6770 Br  0  0  0  0  0  0  0  0  0  0  0  0
   44.8930   33.0770   40.7760 C   0  0  0  0  0  0  0  0  0  0  0  0
   43.8530   33.4330   39.9380 C   0  0  0  0  0  0  0  0  0  0  0  0
   44.0600   33.3820   38.5790 C   0  0  0  0  0  0  0  0  0  0  0  0
   45.2600   32.9940   38.0160 C   0  0  0  0  0  0  0  0  0  0  0  0
   46.3210   32.6330   38.8430 C   0  0  0  0  0  0  0  0  0  0  0  0
   46.0890   32.6900   40.1990 C   0  0  0  0  0  0  0  0  0  0  0  0
   43.2280   33.6660   37.9420 H   0  0  0  0  0  0  0  0  0  0  0  0
   45.3960   32.9630   36.9460 H   0  0  0  0  0  0  0  0  0  0  0  0
   47.2680   32.3250   38.4240 H   0  0  0  0  0  0  0  0  0  0  0  0
   47.2400   32.2980   41.0420 C   0  0  0  0  0  0  0  0  0  0  0  0
   47.4610   30.9890   41.4190 C   0  0  0  0  0  0  0  0  0  0  0  0
   46.7760   30.2060   41.0960 H   0  0  0  0  0  0  0  0  0  0  0  0
   48.5590   30.7180   42.2050 C   0  0  0  0  0  0  0  0  0  0  0  0
   49.4050   31.7570   42.5920 C   0  0  0  0  0  0  0  0  0  0  0  0
   49.1480   33.0640   42.1890 C   0  0  0  0  0  0  0  0  0  0  0  0
   50.0230   34.0680   42.6010 C   0  0  0  0  0  0  0  0  0  0  0  0
   49.7580   35.3710   42.1940 C   0  0  0  0  0  0  0  0  0  0  0  0
   48.6690   35.6930   41.4050 C   0  0  0  0  0  0  0  0  0  0  0  0
   47.8530   34.6580   41.0380 C   0  0  0  0  0  0  0  0  0  0  0  0
   48.0460   33.3600   41.3960 C   0  0  0  0  0  0  0  0  0  0  0  0
   40.3650   33.3460   41.4340 C   0  0  0  0  0  0  0  0  0  0  0  0
   41.5630   32.9370   40.8280 C   0  0  0  0  0  0  0  0  0  0  0  0
   42.5920   33.8410   40.5700 C   0  0  0  0  0  0  0  0  0  0  0  0
   42.3600   35.1200   40.9380 N   0  0  0  0  0  0  0  0  0  0  0  0
   41.2020   35.5030   41.5200 C   0  0  0  0  0  0  0  0  0  0  0  0
   40.2240   34.6350   41.7630 N   0  0  0  0  0  0  0  0  0  0  0  0
   39.6170   32.5700   41.5970 H   0  0  0  0  0  0  0  0  0  0  0  0
   41.7780   31.9210   40.5240 H   0  0  0  0  0  0  0  0  0  0  0  0
   41.1260   36.5530   41.7720 H   0  0  0  0  0  0  0  0  0  0  0  0
  2  1  1  0  0  0  0
  3 24  1  0  0  0  0
  3  2  2  0  0  0  0
  4  3  1  0  0  0  0
  5  4  2  0  0  0  0
  5  6  1  0  0  0  0
  6  7  2  0  0  0  0
  7  2  1  0  0  0  0
  7 11  1  0  0  0  0
  8  4  1  0  0  0  0
  9  5  1  0  0  0  0
 10  6  1  0  0  0  0
 11 21  2  0  0  0  0
 11 12  1  0  0  0  0
 12 14  2  0  0  0  0
 13 12  1  0  0  0  0
 14 15  1  0  0  0  0
 16 15  2  0  0  0  0
 16 17  1  0  0  0  0
 18 17  2  0  0  0  0
 19 18  1  0  0  0  0
 20 21  1  0  0  0  0
 20 19  2  0  0  0  0
 21 16  1  0  0  0  0
 22 28  1  0  0  0  0
 22 27  1  0  0  0  0
 23 22  2  0  0  0  0
 24 23  1  0  0  0  0
 24 25  2  0  0  0  0
 25 26  1  0  0  0  0
 26 27  2  0  0  0  0
 26 30  1  0  0  0  0
 29 23  1  0  0  0  0
M  END
>  <minimizedAffinity>
-5.72282267

>  <minimizedRMSD>
5.28666401

$$$$
