
 OpenBabel03252508333D

 34 37  0  0  1  0  0  0  0  0999 V2000
   44.3360   34.5300   41.7510 N   0  0  0  0  0  0  0  0  0  0  0  0
   44.9320   33.6390   40.8710 C   0  0  1  0  0  0  0  0  0  0  0  0
   44.4730   33.7040   39.4510 C   0  0  0  0  0  0  0  0  0  0  0  0
   43.1080   33.9270   39.2480 N   0  0  0  0  0  0  0  0  0  0  0  0
   42.4220   34.6870   40.2130 C   0  0  0  0  0  0  0  0  0  0  0  0
   43.3940   35.4330   41.1230 C   0  0  0  0  0  0  0  0  0  0  0  0
   44.4990   32.6230   41.2050 H   0  0  0  0  0  0  0  0  0  0  0  0
   45.0440   34.4240   38.8300 H   0  0  0  0  0  0  0  0  0  0  0  0
   44.7300   32.7060   38.9840 H   0  0  0  0  0  0  0  0  0  0  0  0
   42.5530   33.1730   38.8180 H   0  0  0  0  0  0  0  0  0  0  0  0
   41.6930   35.4110   39.8640 H   0  0  0  0  0  0  0  0  0  0  0  0
   41.8860   33.9830   40.8950 H   0  0  0  0  0  0  0  0  0  0  0  0
   42.7860   36.0270   41.7920 H   0  0  0  0  0  0  0  0  0  0  0  0
   43.9320   36.1270   40.4390 H   0  0  0  0  0  0  0  0  0  0  0  0
   46.3820   33.3900   40.8280 C   0  0  0  0  0  0  0  0  0  0  0  0
   47.2590   34.4940   40.6980 C   0  0  0  0  0  0  0  0  0  0  0  0
   46.8270   35.5030   40.6070 H   0  0  0  0  0  0  0  0  0  0  0  0
   48.6140   34.4610   40.6700 C   0  0  0  0  0  3  0  0  0  0  0  0
   49.2360   33.2440   40.7770 C   0  0  0  0  0  3  0  0  0  0  0  0
   48.4900   32.0960   40.9090 C   0  0  0  0  0  0  0  0  0  0  0  0
   49.0570   30.8450   41.0200 C   0  0  0  0  0  3  0  0  0  0  0  0
   48.3060   29.6720   41.1540 C   0  0  0  0  0  3  0  0  0  0  0  0
   46.9140   29.8120   41.1710 C   0  0  0  0  0  3  0  0  0  0  0  0
   46.3960   31.0780   41.0570 C   0  0  0  0  0  3  0  0  0  0  0  0
   47.1260   32.2320   40.9260 C   0  0  0  0  0  0  0  0  0  0  0  0
   44.3340   35.6250   43.8790 C   0  0  0  0  0  0  0  0  0  0  0  0
   44.6220   34.5000   43.1240 C   0  0  0  0  0  0  0  0  0  0  0  0
   45.1600   33.4210   43.7790 C   0  0  0  0  0  0  0  0  0  0  0  0
   45.4000   33.4520   45.1000 N   0  0  0  0  0  0  0  0  0  0  0  0
   45.1050   34.5770   45.8170 C   0  0  0  0  0  0  0  0  0  0  0  0
   44.5850   35.6350   45.2150 N   0  0  0  0  0  0  0  0  0  0  0  0
   43.9120   36.5670   43.5700 H   0  0  0  0  0  0  0  0  0  0  0  0
   45.4190   32.4910   43.3540 H   0  0  0  0  0  0  0  0  0  0  0  0
   45.3080   34.5840   46.9010 H   0  0  0  0  0  0  0  0  0  0  0  0
  1 27  1  0  0  0  0
  2  7  1  1  0  0  0
  2  1  1  0  0  0  0
  3  2  1  0  0  0  0
  4  3  1  0  0  0  0
  4  5  1  0  0  0  0
  5 12  1  0  0  0  0
  5  6  1  0  0  0  0
  6  1  1  0  0  0  0
  6 13  1  0  0  0  0
  8  3  1  0  0  0  0
  9  3  1  0  0  0  0
 10  4  1  0  0  0  0
 11  5  1  0  0  0  0
 14  6  1  0  0  0  0
 15  2  1  0  0  0  0
 15 25  1  0  0  0  0
 16 15  2  0  0  0  0
 17 16  1  0  0  0  0
 18 16  1  0  0  0  0
 18 19  2  0  0  0  0
 19 20  1  0  0  0  0
 20 25  2  0  0  0  0
 20 21  1  0  0  0  0
 21 22  2  0  0  0  0
 22 23  1  0  0  0  0
 24 23  2  0  0  0  0
 25 24  1  0  0  0  0
 26 31  1  0  0  0  0
 27 28  1  0  0  0  0
 27 26  2  0  0  0  0
 28 29  2  0  0  0  0
 29 30  1  0  0  0  0
 30 34  1  0  0  0  0
 31 30  2  0  0  0  0
 32 26  1  0  0  0  0
 33 28  1  0  0  0  0
M  END
>  <minimizedAffinity>
-4.5838995

>  <minimizedRMSD>
2.00177979

$$$$
