
 OpenBabel03242514513D

 46 50  0  0  1  0  0  0  0  0999 V2000
   38.4350   30.9930   37.6550 C   0  0  0  0  0  0  0  0  0  0  0  0
   39.3120   30.4660   37.3360 H   0  0  0  0  0  0  0  0  0  0  0  0
   38.0660   31.5180   36.7180 H   0  0  0  0  0  0  0  0  0  0  0  0
   38.5910   29.2890   39.9580 F   0  0  0  0  0  0  0  0  0  0  0  0
   37.5170   29.2660   39.1810 C   0  0  0  0  0  0  0  0  0  0  0  0
   37.3690   30.0630   38.0750 C   0  0  0  0  0  0  0  0  0  0  0  0
   36.2080   30.0080   37.3230 C   0  0  0  0  0  0  0  0  0  0  0  0
   35.2370   29.1270   37.7450 C   0  0  0  0  0  0  0  0  0  0  0  0
   35.3180   28.2910   38.8510 C   0  0  0  0  0  0  0  0  0  0  0  0
   36.5060   28.3720   39.5880 C   0  0  0  0  0  0  0  0  0  0  0  0
   36.0640   30.6170   36.4540 H   0  0  0  0  0  0  0  0  0  0  0  0
   34.3070   29.0440   37.1950 H   0  0  0  0  0  0  0  0  0  0  0  0
   34.5330   27.6250   39.1320 H   0  0  0  0  0  0  0  0  0  0  0  0
   36.6560   27.5190   40.7640 C   0  0  0  0  0  0  0  0  0  0  0  0
   36.4510   28.0470   42.0320 C   0  0  0  0  0  0  0  0  0  0  0  0
   36.1820   29.0780   42.1790 H   0  0  0  0  0  0  0  0  0  0  0  0
   36.5910   27.2430   43.1620 C   0  0  0  0  0  3  0  0  0  0  0  0
   36.9400   25.8990   43.0080 C   0  0  0  0  0  3  0  0  0  0  0  0
   37.1470   25.3590   41.7480 C   0  0  0  0  0  0  0  0  0  0  0  0
   37.4890   24.0380   41.6140 C   0  0  0  0  0  3  0  0  0  0  0  0
   37.6850   23.5520   40.3240 C   0  0  0  0  0  3  0  0  0  0  0  0
   37.5520   24.3300   39.1860 C   0  0  0  0  0  3  0  0  0  0  0  0
   37.2040   25.6620   39.3700 C   0  0  0  0  0  3  0  0  0  0  0  0
   37.0040   26.1700   40.6420 C   0  0  0  0  0  0  0  0  0  0  0  0
   38.6350   32.1140   38.6090 C   0  0  0  0  0  0  0  0  0  0  0  0
   39.9360   32.4000   38.9880 C   0  0  0  0  0  0  0  0  0  0  0  0
   40.1110   33.4740   39.8820 C   0  0  0  0  0  0  0  0  0  0  0  0
   39.0230   34.1610   40.3170 N   0  0  0  0  0  0  0  0  0  0  0  0
   37.7850   33.8390   39.9150 C   0  0  0  0  0  0  0  0  0  0  0  0
   37.6080   32.8340   39.0780 N   0  0  0  0  0  0  0  0  0  0  0  0
   41.1110   33.7550   40.2230 H   0  0  0  0  0  0  0  0  0  0  0  0
   37.0080   34.4630   40.3350 H   0  0  0  0  0  0  0  0  0  0  0  0
   41.6930   32.1930   37.2300 C   0  0  2  0  0  0  0  0  0  0  0  0
   41.1210   31.6110   38.5540 C   0  0  1  0  0  0  0  0  0  0  0  0
   42.1150   31.4930   39.4440 O   0  0  0  0  0  0  0  0  0  0  0  0
   43.2250   32.1770   39.0260 C   0  0  0  0  0  0  0  0  0  0  0  0
   43.2010   32.0220   37.5340 C   0  0  1  0  0  0  0  0  0  0  0  0
   41.5340   31.6030   36.3430 H   0  0  0  0  0  0  0  0  0  0  0  0
   40.9680   30.6660   38.1200 H   0  0  0  0  0  0  0  0  0  0  0  0
   44.1490   31.7150   39.4640 H   0  0  0  0  0  0  0  0  0  0  0  0
   43.2610   33.2400   39.2960 H   0  0  0  0  0  0  0  0  0  0  0  0
   43.7720   32.8060   37.0330 H   0  0  0  0  0  0  0  0  0  0  0  0
   41.4020   33.4760   36.9990 O   0  0  0  0  0  0  0  0  0  0  0  0
   42.1840   34.0250   36.7810 H   0  0  0  0  0  0  0  0  0  0  0  0
   43.6270   30.7430   37.2640 O   0  0  0  0  0  0  0  0  0  0  0  0
   43.3790   30.1070   37.9590 H   0  0  0  0  0  0  0  0  0  0  0  0
  1  6  1  0  0  0  0
  1 25  1  0  0  0  0
  2  1  1  0  0  0  0
  3  1  1  0  0  0  0
  5 10  1  0  0  0  0
  5  4  1  0  0  0  0
  6  5  2  0  0  0  0
  7  8  2  0  0  0  0
  7  6  1  0  0  0  0
  8  9  1  0  0  0  0
  9 13  1  0  0  0  0
  9 10  2  0  0  0  0
 10 14  1  0  0  0  0
 11  7  1  0  0  0  0
 12  8  1  0  0  0  0
 14 15  1  0  0  0  0
 15 16  1  0  0  0  0
 15 17  2  0  0  0  0
 18 17  1  0  0  0  0
 19 18  2  0  0  0  0
 20 19  1  0  0  0  0
 21 20  2  0  0  0  0
 22 23  2  0  0  0  0
 22 21  1  0  0  0  0
 23 24  1  0  0  0  0
 24 14  2  0  0  0  0
 24 19  1  0  0  0  0
 25 26  2  0  0  0  0
 25 30  1  0  0  0  0
 26 27  1  0  0  0  0
 27 31  1  0  0  0  0
 27 28  2  0  0  0  0
 29 28  1  0  0  0  0
 29 32  1  0  0  0  0
 30 29  2  0  0  0  0
 33 38  1  6  0  0  0
 33 37  1  0  0  0  0
 33 34  1  0  0  0  0
 34 39  1  6  0  0  0
 34 26  1  0  0  0  0
 34 35  1  0  0  0  0
 36 41  1  0  0  0  0
 36 35  1  0  0  0  0
 36 40  1  0  0  0  0
 37 42  1  6  0  0  0
 37 36  1  0  0  0  0
 43 33  1  0  0  0  0
 44 43  1  0  0  0  0
 45 37  1  0  0  0  0
 45 46  1  0  0  0  0
M  END
>  <minimizedAffinity>
-7.26798868

$$$$

 OpenBabel03242514513D

 46 50  0  0  1  0  0  0  0  0999 V2000
   36.1110   27.7040   37.2920 C   0  0  0  0  0  0  0  0  0  0  0  0
   36.7850   27.5490   36.4740 H   0  0  0  0  0  0  0  0  0  0  0  0
   36.2990   28.7770   37.6120 H   0  0  0  0  0  0  0  0  0  0  0  0
   34.1520   29.7450   37.7730 F   0  0  0  0  0  0  0  0  0  0  0  0
   33.8170   28.6340   37.1320 C   0  0  0  0  0  0  0  0  0  0  0  0
   34.7040   27.6260   36.8550 C   0  0  0  0  0  0  0  0  0  0  0  0
   34.2920   26.5040   36.1560 C   0  0  0  0  0  0  0  0  0  0  0  0
   32.9710   26.4660   35.7670 C   0  0  0  0  0  0  0  0  0  0  0  0
   32.0200   27.4470   36.0120 C   0  0  0  0  0  0  0  0  0  0  0  0
   32.4700   28.5670   36.7220 C   0  0  0  0  0  0  0  0  0  0  0  0
   34.9620   25.7010   35.9260 H   0  0  0  0  0  0  0  0  0  0  0  0
   32.5950   25.6120   35.2160 H   0  0  0  0  0  0  0  0  0  0  0  0
   31.0060   27.3640   35.6870 H   0  0  0  0  0  0  0  0  0  0  0  0
   31.5180   29.6350   37.0140 C   0  0  0  0  0  0  0  0  0  0  0  0
   30.8980   29.6880   38.2560 C   0  0  0  0  0  0  0  0  0  0  0  0
   31.0980   28.9580   39.0190 H   0  0  0  0  0  0  0  0  0  0  0  0
   29.9880   30.7020   38.5470 C   0  0  0  0  0  3  0  0  0  0  0  0
   29.7030   31.6670   37.5780 C   0  0  0  0  0  3  0  0  0  0  0  0
   30.3150   31.6270   36.3350 C   0  0  0  0  0  0  0  0  0  0  0  0
   30.0260   32.5810   35.3940 C   0  0  0  0  0  3  0  0  0  0  0  0
   30.6710   32.4890   34.1640 C   0  0  0  0  0  3  0  0  0  0  0  0
   31.5790   31.4910   33.8500 C   0  0  0  0  0  3  0  0  0  0  0  0
   31.8410   30.5470   34.8330 C   0  0  0  0  0  3  0  0  0  0  0  0
   31.2130   30.6150   36.0650 C   0  0  0  0  0  0  0  0  0  0  0  0
   36.3760   26.9350   38.5350 C   0  0  0  0  0  0  0  0  0  0  0  0
   36.7340   27.6540   39.6630 C   0  0  0  0  0  0  0  0  0  0  0  0
   36.9690   26.9130   40.8370 C   0  0  0  0  0  0  0  0  0  0  0  0
   36.8340   25.5610   40.8080 N   0  0  0  0  0  0  0  0  0  0  0  0
   36.4830   24.9170   39.6850 C   0  0  0  0  0  0  0  0  0  0  0  0
   36.2610   25.6010   38.5780 N   0  0  0  0  0  0  0  0  0  0  0  0
   37.2560   27.4170   41.7640 H   0  0  0  0  0  0  0  0  0  0  0  0
   36.4100   23.8440   39.7960 H   0  0  0  0  0  0  0  0  0  0  0  0
   35.6540   29.8370   40.1990 C   0  0  2  0  0  0  0  0  0  0  0  0
   36.9370   29.1290   39.6780 C   0  0  1  0  0  0  0  0  0  0  0  0
   37.9920   29.5760   40.3700 O   0  0  0  0  0  0  0  0  0  0  0  0
   37.5880   30.2700   41.4800 C   0  0  0  0  0  0  0  0  0  0  0  0
   36.3270   30.9490   41.0380 C   0  0  1  0  0  0  0  0  0  0  0  0
   35.0750   30.3730   39.4650 H   0  0  0  0  0  0  0  0  0  0  0  0
   36.9060   29.6530   38.7680 H   0  0  0  0  0  0  0  0  0  0  0  0
   38.3700   31.0200   41.7700 H   0  0  0  0  0  0  0  0  0  0  0  0
   37.4000   29.6660   42.3770 H   0  0  0  0  0  0  0  0  0  0  0  0
   35.6880   31.2150   41.8830 H   0  0  0  0  0  0  0  0  0  0  0  0
   34.8580   29.0850   40.9640 O   0  0  0  0  0  0  0  0  0  0  0  0
   34.6140   29.5080   41.8140 H   0  0  0  0  0  0  0  0  0  0  0  0
   36.7060   32.0120   40.2520 O   0  0  0  0  0  0  0  0  0  0  0  0
   37.5270   31.8420   39.7570 H   0  0  0  0  0  0  0  0  0  0  0  0
  1  3  1  0  0  0  0
  1 25  1  0  0  0  0
  2  1  1  0  0  0  0
  5  4  1  0  0  0  0
  6  5  1  0  0  0  0
  6  1  1  0  0  0  0
  7  6  2  0  0  0  0
  8  9  2  0  0  0  0
  8  7  1  0  0  0  0
  9 10  1  0  0  0  0
 10 14  1  0  0  0  0
 10  5  2  0  0  0  0
 11  7  1  0  0  0  0
 12  8  1  0  0  0  0
 13  9  1  0  0  0  0
 14 15  1  0  0  0  0
 15 17  2  0  0  0  0
 15 16  1  0  0  0  0
 18 17  1  0  0  0  0
 19 18  2  0  0  0  0
 20 19  1  0  0  0  0
 21 20  2  0  0  0  0
 22 21  1  0  0  0  0
 22 23  2  0  0  0  0
 23 24  1  0  0  0  0
 24 19  1  0  0  0  0
 24 14  2  0  0  0  0
 25 30  2  0  0  0  0
 25 26  1  0  0  0  0
 26 34  1  0  0  0  0
 26 27  2  0  0  0  0
 27 31  1  0  0  0  0
 28 27  1  0  0  0  0
 29 32  1  0  0  0  0
 29 28  2  0  0  0  0
 30 29  1  0  0  0  0
 33 38  1  6  0  0  0
 33 43  1  0  0  0  0
 33 37  1  0  0  0  0
 34 39  1  6  0  0  0
 34 33  1  0  0  0  0
 34 35  1  0  0  0  0
 35 36  1  0  0  0  0
 36 40  1  0  0  0  0
 36 41  1  0  0  0  0
 37 36  1  0  0  0  0
 37 42  1  1  0  0  0
 43 44  1  0  0  0  0
 45 37  1  0  0  0  0
 46 45  1  0  0  0  0
M  END
>  <minimizedAffinity>
-7.08671999

$$$$

 OpenBabel03242514513D

 46 50  0  0  1  0  0  0  0  0999 V2000
   38.7740   31.3820   38.5220 C   0  0  0  0  0  0  0  0  0  0  0  0
   39.2140   30.7460   37.7800 H   0  0  0  0  0  0  0  0  0  0  0  0
   38.0850   32.0670   37.9340 H   0  0  0  0  0  0  0  0  0  0  0  0
   39.6950   29.1740   40.1070 F   0  0  0  0  0  0  0  0  0  0  0  0
   38.4290   29.5610   40.1720 C   0  0  0  0  0  0  0  0  0  0  0  0
   37.9240   30.6160   39.4550 C   0  0  0  0  0  0  0  0  0  0  0  0
   36.5970   30.9840   39.5920 C   0  0  0  0  0  0  0  0  0  0  0  0
   35.8360   30.2440   40.4710 C   0  0  0  0  0  0  0  0  0  0  0  0
   36.2780   29.1670   41.2260 C   0  0  0  0  0  0  0  0  0  0  0  0
   37.6250   28.8220   41.0630 C   0  0  0  0  0  0  0  0  0  0  0  0
   36.1750   31.8020   39.0460 H   0  0  0  0  0  0  0  0  0  0  0  0
   34.7910   30.4900   40.6180 H   0  0  0  0  0  0  0  0  0  0  0  0
   35.6420   28.6270   41.8930 H   0  0  0  0  0  0  0  0  0  0  0  0
   38.1540   27.6960   41.8290 C   0  0  0  0  0  0  0  0  0  0  0  0
   38.9570   27.9310   42.9380 C   0  0  0  0  0  0  0  0  0  0  0  0
   39.2050   28.9270   43.2560 H   0  0  0  0  0  0  0  0  0  0  0  0
   39.4670   26.8650   43.6760 C   0  0  0  0  0  3  0  0  0  0  0  0
   39.1650   25.5560   43.2920 C   0  0  0  0  0  3  0  0  0  0  0  0
   38.3650   25.3080   42.1880 C   0  0  0  0  0  0  0  0  0  0  0  0
   38.0770   24.0180   41.8230 C   0  0  0  0  0  3  0  0  0  0  0  0
   37.2690   23.8300   40.7050 C   0  0  0  0  0  3  0  0  0  0  0  0
   36.7500   24.8720   39.9540 C   0  0  0  0  0  3  0  0  0  0  0  0
   37.0670   26.1610   40.3610 C   0  0  0  0  0  3  0  0  0  0  0  0
   37.8690   26.3760   41.4690 C   0  0  0  0  0  0  0  0  0  0  0  0
   39.6810   32.3340   39.2140 C   0  0  0  0  0  0  0  0  0  0  0  0
   41.0400   32.1890   38.9930 C   0  0  0  0  0  0  0  0  0  0  0  0
   41.8870   33.1080   39.6440 C   0  0  0  0  0  0  0  0  0  0  0  0
   41.3430   34.0680   40.4350 N   0  0  0  0  0  0  0  0  0  0  0  0
   40.0170   34.1610   40.6120 C   0  0  0  0  0  0  0  0  0  0  0  0
   39.2130   33.3060   40.0080 N   0  0  0  0  0  0  0  0  0  0  0  0
   42.9710   33.0510   39.5140 H   0  0  0  0  0  0  0  0  0  0  0  0
   39.7130   34.9680   41.2640 H   0  0  0  0  0  0  0  0  0  0  0  0
   41.9690   31.6320   36.7470 C   0  0  2  0  0  0  0  0  0  0  0  0
   41.6380   31.1010   38.1710 C   0  0  1  0  0  0  0  0  0  0  0  0
   42.7230   30.5030   38.6760 O   0  0  0  0  0  0  0  0  0  0  0  0
   43.8330   30.7960   37.9300 C   0  0  0  0  0  0  0  0  0  0  0  0
   43.3080   30.8870   36.5280 C   0  0  1  0  0  0  0  0  0  0  0  0
   41.3370   31.2790   35.9490 H   0  0  0  0  0  0  0  0  0  0  0  0
   41.0080   30.3520   37.7890 H   0  0  0  0  0  0  0  0  0  0  0  0
   44.5890   29.9730   38.0250 H   0  0  0  0  0  0  0  0  0  0  0  0
   44.3580   31.7210   38.1990 H   0  0  0  0  0  0  0  0  0  0  0  0
   43.9620   31.4790   35.8850 H   0  0  0  0  0  0  0  0  0  0  0  0
   42.1450   32.9520   36.6570 O   0  0  0  0  0  0  0  0  0  0  0  0
   42.9750   33.2100   36.2050 H   0  0  0  0  0  0  0  0  0  0  0  0
   43.1010   29.5960   36.1000 O   0  0  0  0  0  0  0  0  0  0  0  0
   42.8460   28.9950   36.8220 H   0  0  0  0  0  0  0  0  0  0  0  0
  1 25  1  0  0  0  0
  1  6  1  0  0  0  0
  2  1  1  0  0  0  0
  3  1  1  0  0  0  0
  4  5  1  0  0  0  0
  5 10  1  0  0  0  0
  6  7  1  0  0  0  0
  6  5  2  0  0  0  0
  7  8  2  0  0  0  0
  8 12  1  0  0  0  0
  8  9  1  0  0  0  0
  9 13  1  0  0  0  0
 10  9  2  0  0  0  0
 10 14  1  0  0  0  0
 11  7  1  0  0  0  0
 14 15  1  0  0  0  0
 15 16  1  0  0  0  0
 15 17  2  0  0  0  0
 18 17  1  0  0  0  0
 19 18  2  0  0  0  0
 20 19  1  0  0  0  0
 21 20  2  0  0  0  0
 22 23  2  0  0  0  0
 22 21  1  0  0  0  0
 23 24  1  0  0  0  0
 24 14  2  0  0  0  0
 24 19  1  0  0  0  0
 25 30  1  0  0  0  0
 26 25  2  0  0  0  0
 26 27  1  0  0  0  0
 27 28  2  0  0  0  0
 28 29  1  0  0  0  0
 29 32  1  0  0  0  0
 30 29  2  0  0  0  0
 31 27  1  0  0  0  0
 33 38  1  6  0  0  0
 33 34  1  0  0  0  0
 34 39  1  6  0  0  0
 34 35  1  0  0  0  0
 34 26  1  0  0  0  0
 36 40  1  0  0  0  0
 36 41  1  0  0  0  0
 36 35  1  0  0  0  0
 37 42  1  6  0  0  0
 37 33  1  0  0  0  0
 37 36  1  0  0  0  0
 43 33  1  0  0  0  0
 44 43  1  0  0  0  0
 45 37  1  0  0  0  0
 45 46  1  0  0  0  0
M  END
>  <minimizedAffinity>
-6.94976568

$$$$

 OpenBabel03242514513D

 46 50  0  0  1  0  0  0  0  0999 V2000
   35.5910   27.2960   38.6120 C   0  0  0  0  0  0  0  0  0  0  0  0
   35.2800   27.6920   39.5580 H   0  0  0  0  0  0  0  0  0  0  0  0
   35.8620   26.2160   38.8330 H   0  0  0  0  0  0  0  0  0  0  0  0
   34.2170   29.6310   37.6660 F   0  0  0  0  0  0  0  0  0  0  0  0
   33.8560   28.4270   37.2470 C   0  0  0  0  0  0  0  0  0  0  0  0
   34.4760   27.2710   37.6450 C   0  0  0  0  0  0  0  0  0  0  0  0
   34.0650   26.0470   37.1440 C   0  0  0  0  0  0  0  0  0  0  0  0
   33.0210   26.0640   36.2450 C   0  0  0  0  0  0  0  0  0  0  0  0
   32.3470   27.1930   35.7990 C   0  0  0  0  0  0  0  0  0  0  0  0
   32.7880   28.4130   36.3250 C   0  0  0  0  0  0  0  0  0  0  0  0
   34.5310   25.1290   37.4370 H   0  0  0  0  0  0  0  0  0  0  0  0
   32.6600   25.1350   35.8210 H   0  0  0  0  0  0  0  0  0  0  0  0
   31.5410   27.1460   35.1000 H   0  0  0  0  0  0  0  0  0  0  0  0
   32.1200   29.6390   35.8970 C   0  0  0  0  0  0  0  0  0  0  0  0
   32.4280   30.1990   34.6640 C   0  0  0  0  0  0  0  0  0  0  0  0
   33.1520   29.7550   34.0060 H   0  0  0  0  0  0  0  0  0  0  0  0
   31.7970   31.3690   34.2450 C   0  0  0  0  0  3  0  0  0  0  0  0
   30.8510   31.9740   35.0760 C   0  0  0  0  0  3  0  0  0  0  0  0
   30.5340   31.4250   36.3080 C   0  0  0  0  0  0  0  0  0  0  0  0
   29.6030   32.0310   37.1120 C   0  0  0  0  0  3  0  0  0  0  0  0
   29.3260   31.4330   38.3390 C   0  0  0  0  0  3  0  0  0  0  0  0
   29.9390   30.2720   38.7790 C   0  0  0  0  0  3  0  0  0  0  0  0
   30.8740   29.6930   37.9310 C   0  0  0  0  0  3  0  0  0  0  0  0
   31.1690   30.2670   36.7070 C   0  0  0  0  0  0  0  0  0  0  0  0
   36.8460   27.8430   38.0350 C   0  0  0  0  0  0  0  0  0  0  0  0
   37.5940   28.6910   38.8350 C   0  0  0  0  0  0  0  0  0  0  0  0
   38.7890   29.1910   38.2810 C   0  0  0  0  0  0  0  0  0  0  0  0
   39.1400   28.8260   37.0200 N   0  0  0  0  0  0  0  0  0  0  0  0
   38.3760   28.0000   36.2920 C   0  0  0  0  0  0  0  0  0  0  0  0
   37.2540   27.5250   36.8000 N   0  0  0  0  0  0  0  0  0  0  0  0
   39.4280   29.8660   38.8570 H   0  0  0  0  0  0  0  0  0  0  0  0
   38.7680   27.7890   35.3060 H   0  0  0  0  0  0  0  0  0  0  0  0
   37.6670   28.1130   41.2600 C   0  0  2  0  0  0  0  0  0  0  0  0
   37.1790   29.1350   40.1940 C   0  0  1  0  0  0  0  0  0  0  0  0
   37.5620   30.3640   40.5610 O   0  0  0  0  0  0  0  0  0  0  0  0
   38.4880   30.3040   41.5690 C   0  0  0  0  0  0  0  0  0  0  0  0
   38.0650   29.1110   42.3730 C   0  0  1  0  0  0  0  0  0  0  0  0
   36.9070   27.4990   41.7140 H   0  0  0  0  0  0  0  0  0  0  0  0
   36.1750   29.0140   40.4800 H   0  0  0  0  0  0  0  0  0  0  0  0
   38.4470   31.2410   42.1840 H   0  0  0  0  0  0  0  0  0  0  0  0
   39.5330   30.1960   41.2500 H   0  0  0  0  0  0  0  0  0  0  0  0
   38.8900   28.7030   42.9610 H   0  0  0  0  0  0  0  0  0  0  0  0
   38.7150   27.3680   40.8980 O   0  0  0  0  0  0  0  0  0  0  0  0
   39.4440   27.3670   41.5530 H   0  0  0  0  0  0  0  0  0  0  0  0
   36.9730   29.5020   43.1130 O   0  0  0  0  0  0  0  0  0  0  0  0
   36.4300   30.1710   42.6600 H   0  0  0  0  0  0  0  0  0  0  0  0
  1  3  1  0  0  0  0
  1  2  1  0  0  0  0
  5  6  1  0  0  0  0
  5  4  1  0  0  0  0
  6  1  1  0  0  0  0
  7 11  1  0  0  0  0
  7  6  2  0  0  0  0
  8  7  1  0  0  0  0
  9  8  2  0  0  0  0
  9 10  1  0  0  0  0
 10  5  2  0  0  0  0
 12  8  1  0  0  0  0
 13  9  1  0  0  0  0
 14 10  1  0  0  0  0
 14 24  1  0  0  0  0
 15 14  2  0  0  0  0
 16 15  1  0  0  0  0
 17 15  1  0  0  0  0
 17 18  2  0  0  0  0
 18 19  1  0  0  0  0
 19 24  2  0  0  0  0
 19 20  1  0  0  0  0
 20 21  2  0  0  0  0
 21 22  1  0  0  0  0
 23 22  2  0  0  0  0
 24 23  1  0  0  0  0
 25  1  1  0  0  0  0
 25 26  1  0  0  0  0
 26 34  1  0  0  0  0
 27 26  2  0  0  0  0
 27 31  1  0  0  0  0
 28 27  1  0  0  0  0
 29 30  1  0  0  0  0
 29 28  2  0  0  0  0
 30 25  2  0  0  0  0
 32 29  1  0  0  0  0
 33 38  1  1  0  0  0
 33 37  1  0  0  0  0
 34 39  1  1  0  0  0
 34 35  1  0  0  0  0
 34 33  1  0  0  0  0
 35 36  1  0  0  0  0
 36 40  1  0  0  0  0
 36 37  1  0  0  0  0
 37 42  1  1  0  0  0
 37 45  1  0  0  0  0
 41 36  1  0  0  0  0
 43 33  1  0  0  0  0
 43 44  1  0  0  0  0
 46 45  1  0  0  0  0
M  END
>  <minimizedAffinity>
-6.81513929

$$$$

 OpenBabel03242514513D

 46 50  0  0  1  0  0  0  0  0999 V2000
   37.4500   29.6650   37.4940 C   0  0  0  0  0  0  0  0  0  0  0  0
   36.9360   29.2420   36.6540 H   0  0  0  0  0  0  0  0  0  0  0  0
   37.2150   30.7750   37.4370 H   0  0  0  0  0  0  0  0  0  0  0  0
   38.3780   27.3190   38.8600 F   0  0  0  0  0  0  0  0  0  0  0  0
   37.3800   28.0340   39.3610 C   0  0  0  0  0  0  0  0  0  0  0  0
   36.8960   29.1720   38.7700 C   0  0  0  0  0  0  0  0  0  0  0  0
   35.8690   29.8870   39.3630 C   0  0  0  0  0  0  0  0  0  0  0  0
   35.3780   29.3950   40.5520 C   0  0  0  0  0  0  0  0  0  0  0  0
   35.8170   28.2510   41.2060 C   0  0  0  0  0  0  0  0  0  0  0  0
   36.8560   27.5530   40.5780 C   0  0  0  0  0  0  0  0  0  0  0  0
   35.4710   30.7790   38.9250 H   0  0  0  0  0  0  0  0  0  0  0  0
   34.5750   29.9150   41.0610 H   0  0  0  0  0  0  0  0  0  0  0  0
   35.3970   27.9150   42.1280 H   0  0  0  0  0  0  0  0  0  0  0  0
   37.3630   26.3400   41.2140 C   0  0  0  0  0  0  0  0  0  0  0  0
   36.7240   25.1260   40.9960 C   0  0  0  0  0  0  0  0  0  0  0  0
   35.8550   25.0500   40.3670 H   0  0  0  0  0  0  0  0  0  0  0  0
   37.1980   23.9620   41.5970 C   0  0  0  0  0  3  0  0  0  0  0  0
   38.3250   24.0250   42.4220 C   0  0  0  0  0  3  0  0  0  0  0  0
   38.9730   25.2300   42.6460 C   0  0  0  0  0  0  0  0  0  0  0  0
   40.0770   25.2750   43.4570 C   0  0  0  0  0  3  0  0  0  0  0  0
   40.6860   26.5140   43.6470 C   0  0  0  0  0  3  0  0  0  0  0  0
   40.2330   27.6850   43.0610 C   0  0  0  0  0  3  0  0  0  0  0  0
   39.1130   27.5900   42.2470 C   0  0  0  0  0  3  0  0  0  0  0  0
   38.4880   26.3720   42.0430 C   0  0  0  0  0  0  0  0  0  0  0  0
   38.9350   29.6360   37.4560 C   0  0  0  0  0  0  0  0  0  0  0  0
   39.6060   30.6450   38.1260 C   0  0  0  0  0  0  0  0  0  0  0  0
   41.0140   30.5970   38.0930 C   0  0  0  0  0  0  0  0  0  0  0  0
   41.6280   29.5870   37.4250 N   0  0  0  0  0  0  0  0  0  0  0  0
   40.9260   28.6350   36.7940 C   0  0  0  0  0  0  0  0  0  0  0  0
   39.6070   28.6700   36.8170 N   0  0  0  0  0  0  0  0  0  0  0  0
   41.6060   31.3630   38.6010 H   0  0  0  0  0  0  0  0  0  0  0  0
   41.5350   27.8890   36.3010 H   0  0  0  0  0  0  0  0  0  0  0  0
   38.8580   31.5150   40.3400 C   0  0  2  0  0  0  0  0  0  0  0  0
   38.9300   31.7820   38.8090 C   0  0  1  0  0  0  0  0  0  0  0  0
   39.4550   32.9960   38.6030 O   0  0  0  0  0  0  0  0  0  0  0  0
   40.0200   33.4840   39.7520 C   0  0  0  0  0  0  0  0  0  0  0  0
   39.1340   32.9540   40.8390 C   0  0  1  0  0  0  0  0  0  0  0  0
   37.8840   31.2800   40.7360 H   0  0  0  0  0  0  0  0  0  0  0  0
   37.8860   31.8680   38.7340 H   0  0  0  0  0  0  0  0  0  0  0  0
   40.0140   34.6050   39.7370 H   0  0  0  0  0  0  0  0  0  0  0  0
   41.0610   33.1890   39.9340 H   0  0  0  0  0  0  0  0  0  0  0  0
   39.6460   32.9210   41.8030 H   0  0  0  0  0  0  0  0  0  0  0  0
   39.7740   30.6680   40.8150 O   0  0  0  0  0  0  0  0  0  0  0  0
   40.2670   31.0130   41.5880 H   0  0  0  0  0  0  0  0  0  0  0  0
   37.9910   33.7190   40.8250 O   0  0  0  0  0  0  0  0  0  0  0  0
   37.7610   34.0370   39.9330 H   0  0  0  0  0  0  0  0  0  0  0  0
  1  6  1  0  0  0  0
  2  1  1  0  0  0  0
  3  1  1  0  0  0  0
  4  5  1  0  0  0  0
  5 10  1  0  0  0  0
  6  5  2  0  0  0  0
  6  7  1  0  0  0  0
  7  8  2  0  0  0  0
  8 12  1  0  0  0  0
  8  9  1  0  0  0  0
  9 13  1  0  0  0  0
 10  9  2  0  0  0  0
 10 14  1  0  0  0  0
 11  7  1  0  0  0  0
 14 24  1  0  0  0  0
 15 14  2  0  0  0  0
 15 17  1  0  0  0  0
 16 15  1  0  0  0  0
 17 18  2  0  0  0  0
 18 19  1  0  0  0  0
 19 20  1  0  0  0  0
 20 21  2  0  0  0  0
 22 21  1  0  0  0  0
 23 22  2  0  0  0  0
 24 23  1  0  0  0  0
 24 19  2  0  0  0  0
 25  1  1  0  0  0  0
 25 26  1  0  0  0  0
 26 34  1  0  0  0  0
 27 26  2  0  0  0  0
 27 31  1  0  0  0  0
 28 27  1  0  0  0  0
 29 30  1  0  0  0  0
 29 28  2  0  0  0  0
 30 25  2  0  0  0  0
 32 29  1  0  0  0  0
 33 38  1  1  0  0  0
 33 43  1  0  0  0  0
 33 37  1  0  0  0  0
 34 39  1  6  0  0  0
 34 33  1  0  0  0  0
 35 34  1  0  0  0  0
 35 36  1  0  0  0  0
 36 41  1  0  0  0  0
 36 37  1  0  0  0  0
 37 42  1  1  0  0  0
 40 36  1  0  0  0  0
 43 44  1  0  0  0  0
 45 37  1  0  0  0  0
 46 45  1  0  0  0  0
M  END
>  <minimizedAffinity>
-6.75138712

$$$$

 OpenBabel03242514513D

 46 50  0  0  1  0  0  0  0  0999 V2000
   38.0090   30.8560   37.5840 C   0  0  0  0  0  0  0  0  0  0  0  0
   38.8180   30.5080   36.9730 H   0  0  0  0  0  0  0  0  0  0  0  0
   37.3050   31.3670   36.8560 H   0  0  0  0  0  0  0  0  0  0  0  0
   39.2410   28.5480   38.7640 F   0  0  0  0  0  0  0  0  0  0  0  0
   37.9200   28.6520   38.7200 C   0  0  0  0  0  0  0  0  0  0  0  0
   37.2650   29.7320   38.1860 C   0  0  0  0  0  0  0  0  0  0  0  0
   35.8820   29.7880   38.1990 C   0  0  0  0  0  0  0  0  0  0  0  0
   35.2240   28.7200   38.7680 C   0  0  0  0  0  0  0  0  0  0  0  0
   35.8190   27.5970   39.3250 C   0  0  0  0  0  0  0  0  0  0  0  0
   37.2180   27.5720   39.2950 C   0  0  0  0  0  0  0  0  0  0  0  0
   35.3440   30.6180   37.7890 H   0  0  0  0  0  0  0  0  0  0  0  0
   34.1400   28.7130   38.8060 H   0  0  0  0  0  0  0  0  0  0  0  0
   35.2570   26.7960   39.7520 H   0  0  0  0  0  0  0  0  0  0  0  0
   37.9080   26.4170   39.8640 C   0  0  0  0  0  0  0  0  0  0  0  0
   38.0320   25.2510   39.1200 C   0  0  0  0  0  0  0  0  0  0  0  0
   37.6320   25.1690   38.1260 H   0  0  0  0  0  0  0  0  0  0  0  0
   38.6870   24.1420   39.6520 C   0  0  0  0  0  3  0  0  0  0  0  0
   39.2190   24.2130   40.9420 C   0  0  0  0  0  3  0  0  0  0  0  0
   39.1020   25.3710   41.6950 C   0  0  0  0  0  0  0  0  0  0  0  0
   39.6300   25.4250   42.9590 C   0  0  0  0  0  3  0  0  0  0  0  0
   39.4820   26.6150   43.6680 C   0  0  0  0  0  3  0  0  0  0  0  0
   38.8350   27.7300   43.1620 C   0  0  0  0  0  3  0  0  0  0  0  0
   38.3170   27.6290   41.8770 C   0  0  0  0  0  3  0  0  0  0  0  0
   38.4500   26.4580   41.1510 C   0  0  0  0  0  0  0  0  0  0  0  0
   38.3200   31.9330   38.5590 C   0  0  0  0  0  0  0  0  0  0  0  0
   39.6510   32.1200   38.8950 C   0  0  0  0  0  0  0  0  0  0  0  0
   39.9320   33.1530   39.8100 C   0  0  0  0  0  0  0  0  0  0  0  0
   38.9100   33.8990   40.3050 N   0  0  0  0  0  0  0  0  0  0  0  0
   37.6390   33.6730   39.9430 C   0  0  0  0  0  0  0  0  0  0  0  0
   37.3630   32.7070   39.0870 N   0  0  0  0  0  0  0  0  0  0  0  0
   40.9610   33.3560   40.1190 H   0  0  0  0  0  0  0  0  0  0  0  0
   36.9220   34.3350   40.4080 H   0  0  0  0  0  0  0  0  0  0  0  0
   41.3860   31.8960   37.1180 C   0  0  2  0  0  0  0  0  0  0  0  0
   40.7620   31.2650   38.3960 C   0  0  1  0  0  0  0  0  0  0  0  0
   41.7400   30.9920   39.2680 O   0  0  0  0  0  0  0  0  0  0  0  0
   42.9080   31.6060   38.8980 C   0  0  0  0  0  0  0  0  0  0  0  0
   42.8720   31.5700   37.4000 C   0  0  1  0  0  0  0  0  0  0  0  0
   41.1760   31.3930   36.1880 H   0  0  0  0  0  0  0  0  0  0  0  0
   40.5270   30.3750   37.8900 H   0  0  0  0  0  0  0  0  0  0  0  0
   43.7860   31.0320   39.2950 H   0  0  0  0  0  0  0  0  0  0  0  0
   43.0360   32.6370   39.2500 H   0  0  0  0  0  0  0  0  0  0  0  0
   43.5110   32.3380   36.9580 H   0  0  0  0  0  0  0  0  0  0  0  0
   41.2090   33.2130   36.9880 O   0  0  0  0  0  0  0  0  0  0  0  0
   42.0360   33.7070   36.8100 H   0  0  0  0  0  0  0  0  0  0  0  0
   43.1840   30.2830   37.0280 O   0  0  0  0  0  0  0  0  0  0  0  0
   42.8810   29.6200   37.6740 H   0  0  0  0  0  0  0  0  0  0  0  0
  1  6  1  0  0  0  0
  1 25  1  0  0  0  0
  2  1  1  0  0  0  0
  3  1  1  0  0  0  0
  5  4  1  0  0  0  0
  5 10  1  0  0  0  0
  6  7  1  0  0  0  0
  6  5  2  0  0  0  0
  7  8  2  0  0  0  0
  8 12  1  0  0  0  0
  8  9  1  0  0  0  0
  9 13  1  0  0  0  0
 10  9  2  0  0  0  0
 10 14  1  0  0  0  0
 11  7  1  0  0  0  0
 14 24  1  0  0  0  0
 15 17  1  0  0  0  0
 15 14  2  0  0  0  0
 16 15  1  0  0  0  0
 17 18  2  0  0  0  0
 18 19  1  0  0  0  0
 19 20  1  0  0  0  0
 20 21  2  0  0  0  0
 22 21  1  0  0  0  0
 23 22  2  0  0  0  0
 24 19  2  0  0  0  0
 24 23  1  0  0  0  0
 25 26  2  0  0  0  0
 25 30  1  0  0  0  0
 26 27  1  0  0  0  0
 27 31  1  0  0  0  0
 27 28  2  0  0  0  0
 29 28  1  0  0  0  0
 29 32  1  0  0  0  0
 30 29  2  0  0  0  0
 33 38  1  6  0  0  0
 33 37  1  0  0  0  0
 33 34  1  0  0  0  0
 34 39  1  6  0  0  0
 34 26  1  0  0  0  0
 34 35  1  0  0  0  0
 36 41  1  0  0  0  0
 36 35  1  0  0  0  0
 36 40  1  0  0  0  0
 37 42  1  6  0  0  0
 37 36  1  0  0  0  0
 43 33  1  0  0  0  0
 44 43  1  0  0  0  0
 45 37  1  0  0  0  0
 45 46  1  0  0  0  0
M  END
>  <minimizedAffinity>
-6.71596527

$$$$

 OpenBabel03242514513D

 46 50  0  0  1  0  0  0  0  0999 V2000
   36.5760   31.1200   40.5000 C   0  0  0  0  0  0  0  0  0  0  0  0
   35.9170   31.9580   40.6050 H   0  0  0  0  0  0  0  0  0  0  0  0
   36.1510   30.3360   41.2020 H   0  0  0  0  0  0  0  0  0  0  0  0
   34.8710   28.9480   39.7210 F   0  0  0  0  0  0  0  0  0  0  0  0
   35.6880   29.5050   38.8390 C   0  0  0  0  0  0  0  0  0  0  0  0
   36.5190   30.5550   39.1370 C   0  0  0  0  0  0  0  0  0  0  0  0
   37.3270   31.1080   38.1590 C   0  0  0  0  0  0  0  0  0  0  0  0
   37.2460   30.5530   36.9010 C   0  0  0  0  0  0  0  0  0  0  0  0
   36.4320   29.4920   36.5280 C   0  0  0  0  0  0  0  0  0  0  0  0
   35.6280   28.9570   37.5410 C   0  0  0  0  0  0  0  0  0  0  0  0
   37.9850   31.9280   38.3630 H   0  0  0  0  0  0  0  0  0  0  0  0
   37.8560   30.9480   36.0970 H   0  0  0  0  0  0  0  0  0  0  0  0
   36.4110   29.1000   35.5350 H   0  0  0  0  0  0  0  0  0  0  0  0
   34.7490   27.8370   37.2150 C   0  0  0  0  0  0  0  0  0  0  0  0
   33.5860   28.0610   36.4880 C   0  0  0  0  0  0  0  0  0  0  0  0
   33.3090   29.0450   36.1530 H   0  0  0  0  0  0  0  0  0  0  0  0
   32.7390   27.0020   36.1700 C   0  0  0  0  0  3  0  0  0  0  0  0
   33.0680   25.7110   36.5900 C   0  0  0  0  0  3  0  0  0  0  0  0
   34.2240   25.4730   37.3160 C   0  0  0  0  0  0  0  0  0  0  0  0
   34.5330   24.2000   37.7200 C   0  0  0  0  0  3  0  0  0  0  0  0
   35.7080   24.0230   38.4470 C   0  0  0  0  0  3  0  0  0  0  0  0
   36.5670   25.0590   38.7750 C   0  0  0  0  0  3  0  0  0  0  0  0
   36.2140   26.3310   38.3440 C   0  0  0  0  0  3  0  0  0  0  0  0
   35.0510   26.5350   37.6210 C   0  0  0  0  0  0  0  0  0  0  0  0
   37.9660   31.2930   40.9970 C   0  0  0  0  0  0  0  0  0  0  0  0
   38.4680   30.3080   41.8310 C   0  0  0  0  0  0  0  0  0  0  0  0
   39.7910   30.4780   42.2840 C   0  0  0  0  0  0  0  0  0  0  0  0
   40.4930   31.5710   41.8880 N   0  0  0  0  0  0  0  0  0  0  0  0
   39.9550   32.4930   41.0770 C   0  0  0  0  0  0  0  0  0  0  0  0
   38.7160   32.3460   40.6470 N   0  0  0  0  0  0  0  0  0  0  0  0
   40.2500   29.7390   42.9450 H   0  0  0  0  0  0  0  0  0  0  0  0
   40.6180   33.3140   40.8380 H   0  0  0  0  0  0  0  0  0  0  0  0
   37.8550   27.9430   41.3310 C   0  0  2  0  0  0  0  0  0  0  0  0
   37.6780   29.1400   42.3090 C   0  0  1  0  0  0  0  0  0  0  0  0
   37.9270   28.7240   43.5560 O   0  0  0  0  0  0  0  0  0  0  0  0
   38.5290   27.4940   43.5480 C   0  0  0  0  0  0  0  0  0  0  0  0
   37.9080   26.7990   42.3730 C   0  0  1  0  0  0  0  0  0  0  0  0
   37.0030   27.7010   40.7160 H   0  0  0  0  0  0  0  0  0  0  0  0
   36.6360   29.1470   42.1760 H   0  0  0  0  0  0  0  0  0  0  0  0
   38.3040   26.9500   44.5030 H   0  0  0  0  0  0  0  0  0  0  0  0
   39.6220   27.4980   43.4530 H   0  0  0  0  0  0  0  0  0  0  0  0
   38.5360   25.9870   42.0000 H   0  0  0  0  0  0  0  0  0  0  0  0
   38.9700   27.9650   40.5980 O   0  0  0  0  0  0  0  0  0  0  0  0
   39.4820   27.1300   40.6330 H   0  0  0  0  0  0  0  0  0  0  0  0
   36.6470   26.4150   42.7630 O   0  0  0  0  0  0  0  0  0  0  0  0
   36.2470   27.0280   43.4060 H   0  0  0  0  0  0  0  0  0  0  0  0
  1  2  1  0  0  0  0
  1 25  1  0  0  0  0
  1  3  1  0  0  0  0
  5  6  1  0  0  0  0
  5  4  1  0  0  0  0
  6  1  1  0  0  0  0
  7 11  1  0  0  0  0
  7  6  2  0  0  0  0
  8  7  1  0  0  0  0
  9  8  2  0  0  0  0
  9 10  1  0  0  0  0
 10  5  2  0  0  0  0
 12  8  1  0  0  0  0
 13  9  1  0  0  0  0
 14 10  1  0  0  0  0
 14 24  1  0  0  0  0
 15 14  2  0  0  0  0
 16 15  1  0  0  0  0
 17 15  1  0  0  0  0
 17 18  2  0  0  0  0
 18 19  1  0  0  0  0
 19 24  2  0  0  0  0
 19 20  1  0  0  0  0
 20 21  2  0  0  0  0
 21 22  1  0  0  0  0
 23 22  2  0  0  0  0
 24 23  1  0  0  0  0
 25 26  1  0  0  0  0
 26 27  2  0  0  0  0
 26 34  1  0  0  0  0
 27 31  1  0  0  0  0
 28 27  1  0  0  0  0
 29 28  2  0  0  0  0
 30 25  2  0  0  0  0
 30 29  1  0  0  0  0
 32 29  1  0  0  0  0
 33 38  1  6  0  0  0
 33 34  1  0  0  0  0
 33 37  1  0  0  0  0
 34 39  1  6  0  0  0
 34 35  1  0  0  0  0
 36 35  1  0  0  0  0
 36 40  1  0  0  0  0
 37 42  1  6  0  0  0
 37 45  1  0  0  0  0
 37 36  1  0  0  0  0
 41 36  1  0  0  0  0
 43 44  1  0  0  0  0
 43 33  1  0  0  0  0
 45 46  1  0  0  0  0
M  END
>  <minimizedAffinity>
-6.6881361

$$$$

 OpenBabel03242514513D

 46 50  0  0  1  0  0  0  0  0999 V2000
   35.5760   29.3670   40.6780 C   0  0  0  0  0  0  0  0  0  0  0  0
   34.5510   29.1300   40.8830 H   0  0  0  0  0  0  0  0  0  0  0  0
   35.7360   30.3780   41.1680 H   0  0  0  0  0  0  0  0  0  0  0  0
   36.3340   26.8220   39.5900 F   0  0  0  0  0  0  0  0  0  0  0  0
   36.8000   27.2110   40.7680 C   0  0  0  0  0  0  0  0  0  0  0  0
   36.4930   28.4180   41.3410 C   0  0  0  0  0  0  0  0  0  0  0  0
   37.0380   28.7730   42.5630 C   0  0  0  0  0  0  0  0  0  0  0  0
   37.8870   27.8610   43.1500 C   0  0  0  0  0  0  0  0  0  0  0  0
   38.2420   26.6240   42.6310 C   0  0  0  0  0  0  0  0  0  0  0  0
   37.6720   26.2970   41.3950 C   0  0  0  0  0  0  0  0  0  0  0  0
   36.8160   29.7080   43.0340 H   0  0  0  0  0  0  0  0  0  0  0  0
   38.3440   28.0880   44.1070 H   0  0  0  0  0  0  0  0  0  0  0  0
   38.9050   25.9540   43.1320 H   0  0  0  0  0  0  0  0  0  0  0  0
   38.0040   25.0080   40.7930 C   0  0  0  0  0  0  0  0  0  0  0  0
   37.2420   23.8870   41.0970 C   0  0  0  0  0  0  0  0  0  0  0  0
   36.4050   23.9380   41.7690 H   0  0  0  0  0  0  0  0  0  0  0  0
   37.5490   22.6520   40.5290 C   0  0  0  0  0  3  0  0  0  0  0  0
   38.6300   22.5500   39.6510 C   0  0  0  0  0  3  0  0  0  0  0  0
   39.3980   23.6610   39.3390 C   0  0  0  0  0  0  0  0  0  0  0  0
   40.4570   23.5440   38.4750 C   0  0  0  0  0  3  0  0  0  0  0  0
   41.1920   24.6940   38.2000 C   0  0  0  0  0  3  0  0  0  0  0  0
   40.9080   25.9330   38.7510 C   0  0  0  0  0  3  0  0  0  0  0  0
   39.8270   26.0030   39.6190 C   0  0  0  0  0  3  0  0  0  0  0  0
   39.0800   24.8750   39.9110 C   0  0  0  0  0  0  0  0  0  0  0  0
   35.9350   29.6240   39.2590 C   0  0  0  0  0  0  0  0  0  0  0  0
   36.9320   30.5530   39.0160 C   0  0  0  0  0  0  0  0  0  0  0  0
   37.2710   30.7770   37.6660 C   0  0  0  0  0  0  0  0  0  0  0  0
   36.6200   30.0850   36.6950 N   0  0  0  0  0  0  0  0  0  0  0  0
   35.6620   29.1950   36.9910 C   0  0  0  0  0  0  0  0  0  0  0  0
   35.3350   28.9780   38.2510 N   0  0  0  0  0  0  0  0  0  0  0  0
   38.0490   31.4970   37.4020 H   0  0  0  0  0  0  0  0  0  0  0  0
   35.2240   28.7130   36.1270 H   0  0  0  0  0  0  0  0  0  0  0  0
   39.0140   30.7660   40.3710 C   0  0  2  0  0  0  0  0  0  0  0  0
   37.6030   31.3510   40.0780 C   0  0  1  0  0  0  0  0  0  0  0  0
   37.7150   32.6660   39.8530 O   0  0  0  0  0  0  0  0  0  0  0  0
   39.0250   33.0170   39.6620 C   0  0  0  0  0  0  0  0  0  0  0  0
   39.7790   32.0960   40.5740 C   0  0  1  0  0  0  0  0  0  0  0  0
   39.1290   30.2490   41.3090 H   0  0  0  0  0  0  0  0  0  0  0  0
   37.2980   31.2220   41.0750 H   0  0  0  0  0  0  0  0  0  0  0  0
   39.1810   34.0900   39.9530 H   0  0  0  0  0  0  0  0  0  0  0  0
   39.3990   32.9250   38.6350 H   0  0  0  0  0  0  0  0  0  0  0  0
   40.8190   31.9770   40.2650 H   0  0  0  0  0  0  0  0  0  0  0  0
   39.5560   30.0580   39.3760 O   0  0  0  0  0  0  0  0  0  0  0  0
   40.4670   30.3360   39.1450 H   0  0  0  0  0  0  0  0  0  0  0  0
   39.6130   32.5810   41.8500 O   0  0  0  0  0  0  0  0  0  0  0  0
   38.7520   33.0170   41.9800 H   0  0  0  0  0  0  0  0  0  0  0  0
  1  2  1  0  0  0  0
  1  3  1  0  0  0  0
  1  6  1  0  0  0  0
  4  5  1  0  0  0  0
  5  6  2  0  0  0  0
  5 10  1  0  0  0  0
  6  7  1  0  0  0  0
  7 11  1  0  0  0  0
  7  8  2  0  0  0  0
  8 12  1  0  0  0  0
  9 13  1  0  0  0  0
  9  8  1  0  0  0  0
 10  9  2  0  0  0  0
 14 15  1  0  0  0  0
 14 10  1  0  0  0  0
 15 16  1  0  0  0  0
 17 15  2  0  0  0  0
 18 17  1  0  0  0  0
 19 18  2  0  0  0  0
 19 24  1  0  0  0  0
 20 19  1  0  0  0  0
 21 20  2  0  0  0  0
 21 22  1  0  0  0  0
 22 23  2  0  0  0  0
 23 24  1  0  0  0  0
 24 14  2  0  0  0  0
 25  1  1  0  0  0  0
 26 25  1  0  0  0  0
 26 34  1  0  0  0  0
 27 26  2  0  0  0  0
 28 29  2  0  0  0  0
 28 27  1  0  0  0  0
 29 30  1  0  0  0  0
 30 25  2  0  0  0  0
 31 27  1  0  0  0  0
 32 29  1  0  0  0  0
 33 37  1  0  0  0  0
 33 38  1  1  0  0  0
 34 33  1  0  0  0  0
 34 39  1  1  0  0  0
 35 34  1  0  0  0  0
 36 35  1  0  0  0  0
 36 40  1  0  0  0  0
 36 37  1  0  0  0  0
 37 42  1  6  0  0  0
 37 45  1  0  0  0  0
 41 36  1  0  0  0  0
 43 33  1  0  0  0  0
 44 43  1  0  0  0  0
 45 46  1  0  0  0  0
M  END
>  <minimizedAffinity>
-6.64163876

$$$$

 OpenBabel03242514513D

 46 50  0  0  1  0  0  0  0  0999 V2000
   42.0200   29.8000   38.9810 C   0  0  0  0  0  0  0  0  0  0  0  0
   42.3280   29.0730   38.2570 H   0  0  0  0  0  0  0  0  0  0  0  0
   40.9980   30.1410   38.6210 H   0  0  0  0  0  0  0  0  0  0  0  0
   39.5000   28.8530   39.9760 F   0  0  0  0  0  0  0  0  0  0  0  0
   40.5890   28.7730   40.7280 C   0  0  0  0  0  0  0  0  0  0  0  0
   41.8260   29.1910   40.3120 C   0  0  0  0  0  0  0  0  0  0  0  0
   42.9280   29.0510   41.1390 C   0  0  0  0  0  0  0  0  0  0  0  0
   42.7070   28.4790   42.3730 C   0  0  0  0  0  0  0  0  0  0  0  0
   41.4860   28.0350   42.8600 C   0  0  0  0  0  0  0  0  0  0  0  0
   40.3940   28.1920   41.9980 C   0  0  0  0  0  0  0  0  0  0  0  0
   43.9060   29.3690   40.8410 H   0  0  0  0  0  0  0  0  0  0  0  0
   43.5340   28.3440   43.0600 H   0  0  0  0  0  0  0  0  0  0  0  0
   41.3730   27.6000   43.8280 H   0  0  0  0  0  0  0  0  0  0  0  0
   39.0790   27.7450   42.4500 C   0  0  0  0  0  0  0  0  0  0  0  0
   38.3000   28.5800   43.2420 C   0  0  0  0  0  0  0  0  0  0  0  0
   38.6380   29.5570   43.5370 H   0  0  0  0  0  0  0  0  0  0  0  0
   37.0440   28.1650   43.6800 C   0  0  0  0  0  3  0  0  0  0  0  0
   36.5730   26.9010   43.3160 C   0  0  0  0  0  3  0  0  0  0  0  0
   37.3400   26.0590   42.5260 C   0  0  0  0  0  0  0  0  0  0  0  0
   36.8640   24.8210   42.1760 C   0  0  0  0  0  3  0  0  0  0  0  0
   37.6790   24.0190   41.3810 C   0  0  0  0  0  3  0  0  0  0  0  0
   38.9310   24.4080   40.9340 C   0  0  0  0  0  3  0  0  0  0  0  0
   39.3710   25.6690   41.3120 C   0  0  0  0  0  3  0  0  0  0  0  0
   38.5810   26.4870   42.1020 C   0  0  0  0  0  0  0  0  0  0  0  0
   42.7940   31.0670   39.0310 C   0  0  0  0  0  0  0  0  0  0  0  0
   42.0950   32.2270   39.3230 C   0  0  0  0  0  0  0  0  0  0  0  0
   42.8450   33.4180   39.3810 C   0  0  0  0  0  0  0  0  0  0  0  0
   44.1840   33.3730   39.1550 N   0  0  0  0  0  0  0  0  0  0  0  0
   44.8080   32.2190   38.8770 C   0  0  0  0  0  0  0  0  0  0  0  0
   44.1170   31.0960   38.8190 N   0  0  0  0  0  0  0  0  0  0  0  0
   42.3570   34.3700   39.6060 H   0  0  0  0  0  0  0  0  0  0  0  0
   45.8730   32.3200   38.7180 H   0  0  0  0  0  0  0  0  0  0  0  0
   40.2770   32.2130   41.0300 C   0  0  2  0  0  0  0  0  0  0  0  0
   40.6200   32.2830   39.5140 C   0  0  1  0  0  0  0  0  0  0  0  0
   39.9910   33.3330   38.9730 O   0  0  0  0  0  0  0  0  0  0  0  0
   39.4990   34.1610   39.9480 C   0  0  0  0  0  0  0  0  0  0  0  0
   39.1050   33.2220   41.0490 C   0  0  1  0  0  0  0  0  0  0  0  0
   39.8390   31.2910   41.3760 H   0  0  0  0  0  0  0  0  0  0  0  0
   40.0510   31.4260   39.3040 H   0  0  0  0  0  0  0  0  0  0  0  0
   38.6100   34.7250   39.5600 H   0  0  0  0  0  0  0  0  0  0  0  0
   40.1970   34.9180   40.3260 H   0  0  0  0  0  0  0  0  0  0  0  0
   39.0630   33.7240   42.0170 H   0  0  0  0  0  0  0  0  0  0  0  0
   41.2510   32.6060   41.8540 O   0  0  0  0  0  0  0  0  0  0  0  0
   40.9640   33.2690   42.5160 H   0  0  0  0  0  0  0  0  0  0  0  0
   37.9250   32.6310   40.6600 O   0  0  0  0  0  0  0  0  0  0  0  0
   37.8590   32.5210   39.6940 H   0  0  0  0  0  0  0  0  0  0  0  0
  1 25  1  0  0  0  0
  1  6  1  0  0  0  0
  2  1  1  0  0  0  0
  3  1  1  0  0  0  0
  4  5  1  0  0  0  0
  5 10  1  0  0  0  0
  6  5  2  0  0  0  0
  6  7  1  0  0  0  0
  7  8  2  0  0  0  0
  8  9  1  0  0  0  0
  8 12  1  0  0  0  0
  9 13  1  0  0  0  0
 10 14  1  0  0  0  0
 10  9  2  0  0  0  0
 11  7  1  0  0  0  0
 14 15  1  0  0  0  0
 15 16  1  0  0  0  0
 15 17  2  0  0  0  0
 18 17  1  0  0  0  0
 19 18  2  0  0  0  0
 20 19  1  0  0  0  0
 21 20  2  0  0  0  0
 22 23  2  0  0  0  0
 22 21  1  0  0  0  0
 23 24  1  0  0  0  0
 24 14  2  0  0  0  0
 24 19  1  0  0  0  0
 25 26  1  0  0  0  0
 26 27  2  0  0  0  0
 26 34  1  0  0  0  0
 27 31  1  0  0  0  0
 28 27  1  0  0  0  0
 29 28  2  0  0  0  0
 30 29  1  0  0  0  0
 30 25  2  0  0  0  0
 32 29  1  0  0  0  0
 33 37  1  0  0  0  0
 33 38  1  1  0  0  0
 33 43  1  0  0  0  0
 34 39  1  6  0  0  0
 34 33  1  0  0  0  0
 35 34  1  0  0  0  0
 35 36  1  0  0  0  0
 36 41  1  0  0  0  0
 36 37  1  0  0  0  0
 37 42  1  1  0  0  0
 40 36  1  0  0  0  0
 43 44  1  0  0  0  0
 45 37  1  0  0  0  0
 46 45  1  0  0  0  0
M  END
>  <minimizedAffinity>
-6.5712285

$$$$
