
 OpenBabel03252503143D

 36 40  0  0  0  0  0  0  0  0999 V2000
   37.7990   32.1410   39.9940 C   0  0  0  0  0  0  0  0  0  0  0  0
   36.9200   33.0450   39.8940 O   0  0  0  0  0  0  0  0  0  0  0  0
   39.9560   33.3000   39.8250 C   0  0  0  0  0  0  0  0  0  0  0  0
   39.0190   32.3850   39.3020 C   0  0  0  0  0  0  0  0  0  0  0  0
   39.3900   31.7830   38.1170 C   0  0  0  0  0  0  0  0  0  0  0  0
   40.5640   32.0480   37.5040 N   0  0  0  0  0  0  0  0  0  0  0  0
   41.4360   32.9350   38.0420 C   0  0  0  0  0  0  0  0  0  0  0  0
   41.1300   33.5570   39.2000 N   0  0  0  0  0  0  0  0  0  0  0  0
   39.7480   33.8250   40.7590 H   0  0  0  0  0  0  0  0  0  0  0  0
   42.3740   33.1470   37.5530 H   0  0  0  0  0  0  0  0  0  0  0  0
   38.5110   30.8620   37.5240 C   0  0  0  0  0  0  0  0  0  0  0  0
   37.3210   30.9560   36.8640 C   0  0  0  0  0  0  0  0  0  0  0  0
   36.6620   29.9220   36.3770 C   0  0  0  0  0  0  0  0  0  0  0  0
   37.2480   28.7030   36.5700 C   0  0  0  0  0  0  0  0  0  0  0  0
   38.8000   29.1070   37.4880 S   0  0  0  0  0  0  0  0  0  0  0  0
   36.9380   31.9930   36.7650 H   0  0  0  0  0  0  0  0  0  0  0  0
   35.7210   29.9260   35.8480 H   0  0  0  0  0  0  0  0  0  0  0  0
   36.9280   27.6780   36.2740 H   0  0  0  0  0  0  0  0  0  0  0  0
   37.6210   30.8820   40.7730 C   0  0  0  0  0  0  0  0  0  0  0  0
   36.4970   30.4680   41.4340 C   0  0  0  0  0  0  0  0  0  0  0  0
   36.8100   29.2860   41.9850 N   0  0  0  0  0  0  0  0  0  0  0  0
   38.0910   28.9700   41.6820 C   0  0  0  0  0  0  0  0  0  0  0  0
   38.5600   29.9600   40.9420 N   0  0  0  0  0  0  0  0  0  0  0  0
   35.6080   31.0650   41.4300 H   0  0  0  0  0  0  0  0  0  0  0  0
   36.0740   28.8130   42.5320 H   0  0  0  0  0  0  0  0  0  0  0  0
   38.6080   27.7110   42.1990 C   0  0  0  0  0  0  0  0  0  0  0  0
   39.5960   27.6580   43.1570 C   0  0  0  0  0  0  0  0  0  0  0  0
   40.0410   28.5490   43.5780 H   0  0  0  0  0  0  0  0  0  0  0  0
   40.1180   26.4960   43.6800 C   0  0  0  0  0  3  0  0  0  0  0  0
   39.6500   25.2840   43.2410 C   0  0  0  0  0  3  0  0  0  0  0  0
   38.6680   25.2680   42.2910 C   0  0  0  0  0  0  0  0  0  0  0  0
   38.2000   24.0470   41.8520 C   0  0  0  0  0  3  0  0  0  0  0  0
   37.2160   23.9630   40.9000 C   0  0  0  0  0  3  0  0  0  0  0  0
   36.6980   25.1520   40.3810 C   0  0  0  0  0  3  0  0  0  0  0  0
   37.2080   26.3380   40.8610 C   0  0  0  0  0  3  0  0  0  0  0  0
   38.1900   26.4600   41.8120 C   0  0  0  0  0  0  0  0  0  0  0  0
  1 19  1  0  0  0  0
  2  1  2  0  0  0  0
  3  9  1  0  0  0  0
  4  3  1  0  0  0  0
  4  1  1  0  0  0  0
  5  4  2  0  0  0  0
  6  7  2  0  0  0  0
  6  5  1  0  0  0  0
  7  8  1  0  0  0  0
  8  3  2  0  0  0  0
 10  7  1  0  0  0  0
 11  5  1  0  0  0  0
 12 11  2  0  0  0  0
 13 14  2  0  0  0  0
 13 12  1  0  0  0  0
 14 15  1  0  0  0  0
 15 11  1  0  0  0  0
 16 12  1  0  0  0  0
 17 13  1  0  0  0  0
 18 14  1  0  0  0  0
 19 23  1  0  0  0  0
 19 20  2  0  0  0  0
 20 21  1  0  0  0  0
 21 25  1  0  0  0  0
 22 21  1  0  0  0  0
 22 26  1  0  0  0  0
 23 22  2  0  0  0  0
 24 20  1  0  0  0  0
 26 27  1  0  0  0  0
 27 28  1  0  0  0  0
 27 29  2  0  0  0  0
 30 29  1  0  0  0  0
 31 30  2  0  0  0  0
 32 31  1  0  0  0  0
 33 32  2  0  0  0  0
 34 35  2  0  0  0  0
 34 33  1  0  0  0  0
 35 36  1  0  0  0  0
 36 26  2  0  0  0  0
 36 31  1  0  0  0  0
M  END
>  <minimizedAffinity>
-6.65534878

$$$$

 OpenBabel03252503143D

 36 40  0  0  0  0  0  0  0  0999 V2000
   35.9190   27.5390   37.6950 C   0  0  0  0  0  0  0  0  0  0  0  0
   36.8900   27.9840   37.0190 O   0  0  0  0  0  0  0  0  0  0  0  0
   36.2340   25.2880   38.6220 C   0  0  0  0  0  0  0  0  0  0  0  0
   36.2600   26.6880   38.7840 C   0  0  0  0  0  0  0  0  0  0  0  0
   36.6330   27.1230   40.0400 C   0  0  0  0  0  0  0  0  0  0  0  0
   36.9500   26.2710   41.0380 N   0  0  0  0  0  0  0  0  0  0  0  0
   36.9120   24.9310   40.8380 C   0  0  0  0  0  0  0  0  0  0  0  0
   36.5550   24.4440   39.6320 N   0  0  0  0  0  0  0  0  0  0  0  0
   35.9500   24.8510   37.6620 H   0  0  0  0  0  0  0  0  0  0  0  0
   37.1660   24.2510   41.6360 H   0  0  0  0  0  0  0  0  0  0  0  0
   36.6790   28.5040   40.2900 C   0  0  0  0  0  0  0  0  0  0  0  0
   35.7790   29.4340   40.7220 C   0  0  0  0  0  0  0  0  0  0  0  0
   36.0610   30.7120   40.8910 C   0  0  0  0  0  0  0  0  0  0  0  0
   37.3450   31.0790   40.6010 C   0  0  0  0  0  0  0  0  0  0  0  0
   38.1400   29.4960   40.0720 S   0  0  0  0  0  0  0  0  0  0  0  0
   34.7680   29.0260   40.9270 H   0  0  0  0  0  0  0  0  0  0  0  0
   35.4010   31.4960   41.2280 H   0  0  0  0  0  0  0  0  0  0  0  0
   37.8560   32.0660   40.6490 H   0  0  0  0  0  0  0  0  0  0  0  0
   34.4880   27.8520   37.4130 C   0  0  0  0  0  0  0  0  0  0  0  0
   33.5590   27.0320   36.8310 C   0  0  0  0  0  0  0  0  0  0  0  0
   32.4220   27.7420   36.7830 N   0  0  0  0  0  0  0  0  0  0  0  0
   32.6310   28.9680   37.3170 C   0  0  0  0  0  0  0  0  0  0  0  0
   33.8980   29.0070   37.6920 N   0  0  0  0  0  0  0  0  0  0  0  0
   33.8210   26.0400   36.5220 H   0  0  0  0  0  0  0  0  0  0  0  0
   31.5970   27.2790   36.3700 H   0  0  0  0  0  0  0  0  0  0  0  0
   31.4980   29.8820   37.3510 C   0  0  0  0  0  0  0  0  0  0  0  0
   30.6770   29.9970   38.4510 C   0  0  0  0  0  0  0  0  0  0  0  0
   30.8300   29.4140   39.3490 H   0  0  0  0  0  0  0  0  0  0  0  0
   29.5950   30.8450   38.5350 C   0  0  0  0  0  3  0  0  0  0  0  0
   29.2780   31.6480   37.4700 C   0  0  0  0  0  3  0  0  0  0  0  0
   30.0540   31.5810   36.3470 C   0  0  0  0  0  0  0  0  0  0  0  0
   29.7320   32.3910   35.2780 C   0  0  0  0  0  3  0  0  0  0  0  0
   30.4710   32.3710   34.1230 C   0  0  0  0  0  3  0  0  0  0  0  0
   31.5650   31.5050   34.0550 C   0  0  0  0  0  3  0  0  0  0  0  0
   31.8340   30.7240   35.1570 C   0  0  0  0  0  3  0  0  0  0  0  0
   31.1180   30.7170   36.3270 C   0  0  0  0  0  0  0  0  0  0  0  0
  1  4  1  0  0  0  0
  2  1  2  0  0  0  0
  3  4  2  0  0  0  0
  3  8  1  0  0  0  0
  4  5  1  0  0  0  0
  5 11  1  0  0  0  0
  5  6  2  0  0  0  0
  7  6  1  0  0  0  0
  7 10  1  0  0  0  0
  8  7  2  0  0  0  0
  9  3  1  0  0  0  0
 11 12  2  0  0  0  0
 12 13  1  0  0  0  0
 12 16  1  0  0  0  0
 13 17  1  0  0  0  0
 14 18  1  0  0  0  0
 14 13  2  0  0  0  0
 15 11  1  0  0  0  0
 15 14  1  0  0  0  0
 19 23  1  0  0  0  0
 19  1  1  0  0  0  0
 20 19  2  0  0  0  0
 21 20  1  0  0  0  0
 21 22  1  0  0  0  0
 22 26  1  0  0  0  0
 22 23  2  0  0  0  0
 24 20  1  0  0  0  0
 25 21  1  0  0  0  0
 26 27  1  0  0  0  0
 27 29  2  0  0  0  0
 27 28  1  0  0  0  0
 30 29  1  0  0  0  0
 31 30  2  0  0  0  0
 32 31  1  0  0  0  0
 33 32  2  0  0  0  0
 34 33  1  0  0  0  0
 34 35  2  0  0  0  0
 35 36  1  0  0  0  0
 36 31  1  0  0  0  0
 36 26  2  0  0  0  0
M  END
>  <minimizedAffinity>
-6.48220301

$$$$

 OpenBabel03252503143D

 36 40  0  0  0  0  0  0  0  0999 V2000
   37.7590   31.8850   39.9170 C   0  0  0  0  0  0  0  0  0  0  0  0
   36.9880   32.8800   39.7960 O   0  0  0  0  0  0  0  0  0  0  0  0
   40.0430   32.7850   39.9510 C   0  0  0  0  0  0  0  0  0  0  0  0
   39.0430   32.0200   39.3160 C   0  0  0  0  0  0  0  0  0  0  0  0
   39.4200   31.4440   38.1190 C   0  0  0  0  0  0  0  0  0  0  0  0
   40.6550   31.6020   37.5960 N   0  0  0  0  0  0  0  0  0  0  0  0
   41.5860   32.3470   38.2400 C   0  0  0  0  0  0  0  0  0  0  0  0
   41.2780   32.9350   39.4140 N   0  0  0  0  0  0  0  0  0  0  0  0
   39.8360   33.2790   40.9020 H   0  0  0  0  0  0  0  0  0  0  0  0
   42.5720   32.4720   37.8220 H   0  0  0  0  0  0  0  0  0  0  0  0
   38.4820   30.6700   37.4180 C   0  0  0  0  0  0  0  0  0  0  0  0
   37.3460   30.9400   36.7140 C   0  0  0  0  0  0  0  0  0  0  0  0
   36.6080   30.0210   36.1190 C   0  0  0  0  0  0  0  0  0  0  0  0
   37.0510   28.7350   36.2450 C   0  0  0  0  0  0  0  0  0  0  0  0
   38.5860   28.9010   37.2620 S   0  0  0  0  0  0  0  0  0  0  0  0
   37.0810   32.0170   36.6770 H   0  0  0  0  0  0  0  0  0  0  0  0
   35.7030   30.1660   35.5490 H   0  0  0  0  0  0  0  0  0  0  0  0
   36.6410   27.7750   35.8580 H   0  0  0  0  0  0  0  0  0  0  0  0
   37.3990   30.6280   40.6340 C   0  0  0  0  0  0  0  0  0  0  0  0
   36.2820   30.3960   41.3890 C   0  0  0  0  0  0  0  0  0  0  0  0
   36.3930   29.1340   41.8310 N   0  0  0  0  0  0  0  0  0  0  0  0
   37.5450   28.5930   41.3700 C   0  0  0  0  0  0  0  0  0  0  0  0
   38.1370   29.5260   40.6430 N   0  0  0  0  0  0  0  0  0  0  0  0
   35.5400   31.1580   41.5190 H   0  0  0  0  0  0  0  0  0  0  0  0
   35.6300   28.7760   42.4260 H   0  0  0  0  0  0  0  0  0  0  0  0
   37.8360   27.2180   41.7500 C   0  0  0  0  0  0  0  0  0  0  0  0
   36.9590   26.1840   41.5030 C   0  0  0  0  0  0  0  0  0  0  0  0
   36.0080   26.3380   41.0130 H   0  0  0  0  0  0  0  0  0  0  0  0
   37.1850   24.8690   41.8420 C   0  0  0  0  0  3  0  0  0  0  0  0
   38.3530   24.5210   42.4710 C   0  0  0  0  0  3  0  0  0  0  0  0
   39.2650   25.5010   42.7450 C   0  0  0  0  0  0  0  0  0  0  0  0
   40.4380   25.1470   43.3780 C   0  0  0  0  0  3  0  0  0  0  0  0
   41.3930   26.0840   43.6790 C   0  0  0  0  0  3  0  0  0  0  0  0
   41.1470   27.4130   43.3290 C   0  0  0  0  0  3  0  0  0  0  0  0
   39.9570   27.7010   42.6990 C   0  0  0  0  0  3  0  0  0  0  0  0
   38.9800   26.7910   42.3810 C   0  0  0  0  0  0  0  0  0  0  0  0
  1 19  1  0  0  0  0
  2  1  2  0  0  0  0
  3  9  1  0  0  0  0
  4  1  1  0  0  0  0
  4  3  2  0  0  0  0
  5  4  1  0  0  0  0
  6  5  2  0  0  0  0
  6  7  1  0  0  0  0
  7  8  2  0  0  0  0
  8  3  1  0  0  0  0
 10  7  1  0  0  0  0
 11  5  1  0  0  0  0
 12 11  2  0  0  0  0
 13 14  2  0  0  0  0
 13 12  1  0  0  0  0
 14 15  1  0  0  0  0
 15 11  1  0  0  0  0
 16 12  1  0  0  0  0
 17 13  1  0  0  0  0
 18 14  1  0  0  0  0
 19 23  1  0  0  0  0
 19 20  2  0  0  0  0
 20 24  1  0  0  0  0
 20 21  1  0  0  0  0
 21 25  1  0  0  0  0
 22 26  1  0  0  0  0
 22 21  1  0  0  0  0
 23 22  2  0  0  0  0
 26 36  1  0  0  0  0
 27 26  2  0  0  0  0
 27 29  1  0  0  0  0
 28 27  1  0  0  0  0
 29 30  2  0  0  0  0
 30 31  1  0  0  0  0
 31 32  1  0  0  0  0
 32 33  2  0  0  0  0
 34 33  1  0  0  0  0
 35 34  2  0  0  0  0
 36 35  1  0  0  0  0
 36 31  2  0  0  0  0
M  END
>  <minimizedAffinity>
-6.28520966

$$$$

 OpenBabel03252503143D

 36 40  0  0  0  0  0  0  0  0999 V2000
   36.2050   28.2430   37.5850 C   0  0  0  0  0  0  0  0  0  0  0  0
   36.8780   27.1760   37.4890 O   0  0  0  0  0  0  0  0  0  0  0  0
   37.2190   30.3440   36.8230 C   0  0  0  0  0  0  0  0  0  0  0  0
   36.9510   29.4240   37.8580 C   0  0  0  0  0  0  0  0  0  0  0  0
   37.4580   29.7720   39.0940 C   0  0  0  0  0  0  0  0  0  0  0  0
   38.1570   30.9090   39.2980 N   0  0  0  0  0  0  0  0  0  0  0  0
   38.3920   31.7650   38.2740 C   0  0  0  0  0  0  0  0  0  0  0  0
   37.9220   31.4810   37.0420 N   0  0  0  0  0  0  0  0  0  0  0  0
   36.8580   30.1530   35.8110 H   0  0  0  0  0  0  0  0  0  0  0  0
   38.9500   32.6740   38.4370 H   0  0  0  0  0  0  0  0  0  0  0  0
   37.2420   28.9070   40.1790 C   0  0  0  0  0  0  0  0  0  0  0  0
   36.2430   28.7430   41.0930 C   0  0  0  0  0  0  0  0  0  0  0  0
   36.2570   27.8320   42.0490 C   0  0  0  0  0  0  0  0  0  0  0  0
   37.3620   27.0300   42.0840 C   0  0  0  0  0  0  0  0  0  0  0  0
   38.3900   27.6410   40.6740 S   0  0  0  0  0  0  0  0  0  0  0  0
   35.3950   29.4480   40.9700 H   0  0  0  0  0  0  0  0  0  0  0  0
   35.5050   27.6490   42.8000 H   0  0  0  0  0  0  0  0  0  0  0  0
   37.6430   26.1940   42.7640 H   0  0  0  0  0  0  0  0  0  0  0  0
   34.7230   28.3150   37.4320 C   0  0  0  0  0  0  0  0  0  0  0  0
   33.8770   27.3030   37.0670 C   0  0  0  0  0  0  0  0  0  0  0  0
   32.6460   27.8370   37.0620 N   0  0  0  0  0  0  0  0  0  0  0  0
   32.7180   29.1440   37.4100 C   0  0  0  0  0  0  0  0  0  0  0  0
   33.9950   29.4070   37.6300 N   0  0  0  0  0  0  0  0  0  0  0  0
   34.2540   26.3230   36.8570 H   0  0  0  0  0  0  0  0  0  0  0  0
   31.8650   27.2140   36.8070 H   0  0  0  0  0  0  0  0  0  0  0  0
   31.4690   29.8900   37.4590 C   0  0  0  0  0  0  0  0  0  0  0  0
   30.6390   29.8660   38.5580 C   0  0  0  0  0  0  0  0  0  0  0  0
   30.8700   29.2910   39.4440 H   0  0  0  0  0  0  0  0  0  0  0  0
   29.4490   30.5530   38.6550 C   0  0  0  0  0  3  0  0  0  0  0  0
   29.0250   31.3270   37.6060 C   0  0  0  0  0  3  0  0  0  0  0  0
   29.8040   31.3940   36.4850 C   0  0  0  0  0  0  0  0  0  0  0  0
   29.3740   32.1730   35.4320 C   0  0  0  0  0  3  0  0  0  0  0  0
   30.1110   32.2810   34.2800 C   0  0  0  0  0  3  0  0  0  0  0  0
   31.3140   31.5780   34.1990 C   0  0  0  0  0  3  0  0  0  0  0  0
   31.6880   30.8180   35.2850 C   0  0  0  0  0  3  0  0  0  0  0  0
   30.9780   30.6860   36.4510 C   0  0  0  0  0  0  0  0  0  0  0  0
  1  4  1  0  0  0  0
  2  1  2  0  0  0  0
  3  8  2  0  0  0  0
  3  4  1  0  0  0  0
  4  5  2  0  0  0  0
  5  6  1  0  0  0  0
  5 11  1  0  0  0  0
  7 10  1  0  0  0  0
  7  6  2  0  0  0  0
  8  7  1  0  0  0  0
  9  3  1  0  0  0  0
 11 15  1  0  0  0  0
 11 12  2  0  0  0  0
 12 13  1  0  0  0  0
 13 14  2  0  0  0  0
 13 17  1  0  0  0  0
 14 18  1  0  0  0  0
 15 14  1  0  0  0  0
 16 12  1  0  0  0  0
 19  1  1  0  0  0  0
 19 23  1  0  0  0  0
 20 19  2  0  0  0  0
 21 20  1  0  0  0  0
 21 22  1  0  0  0  0
 22 26  1  0  0  0  0
 22 23  2  0  0  0  0
 24 20  1  0  0  0  0
 25 21  1  0  0  0  0
 26 27  1  0  0  0  0
 27 29  2  0  0  0  0
 27 28  1  0  0  0  0
 30 29  1  0  0  0  0
 31 30  2  0  0  0  0
 32 31  1  0  0  0  0
 33 32  2  0  0  0  0
 34 33  1  0  0  0  0
 34 35  2  0  0  0  0
 35 36  1  0  0  0  0
 36 31  1  0  0  0  0
 36 26  2  0  0  0  0
M  END
>  <minimizedAffinity>
-6.17619658

$$$$

 OpenBabel03252503143D

 36 40  0  0  0  0  0  0  0  0999 V2000
   37.4340   28.1710   42.5910 C   0  0  0  0  0  0  0  0  0  0  0  0
   36.9170   27.7670   43.6720 O   0  0  0  0  0  0  0  0  0  0  0  0
   39.7650   28.8890   42.8710 C   0  0  0  0  0  0  0  0  0  0  0  0
   38.8290   27.9260   42.4420 C   0  0  0  0  0  0  0  0  0  0  0  0
   39.3770   26.7820   41.8950 C   0  0  0  0  0  0  0  0  0  0  0  0
   40.7100   26.5990   41.7820 N   0  0  0  0  0  0  0  0  0  0  0  0
   41.5740   27.5520   42.2070 C   0  0  0  0  0  0  0  0  0  0  0  0
   41.1000   28.6930   42.7510 N   0  0  0  0  0  0  0  0  0  0  0  0
   39.4240   29.8260   43.3160 H   0  0  0  0  0  0  0  0  0  0  0  0
   42.6390   27.4060   42.1170 H   0  0  0  0  0  0  0  0  0  0  0  0
   38.5140   25.7730   41.4370 C   0  0  0  0  0  0  0  0  0  0  0  0
   37.7120   24.8480   42.0370 C   0  0  0  0  0  0  0  0  0  0  0  0
   36.9660   23.9790   41.3800 C   0  0  0  0  0  0  0  0  0  0  0  0
   37.0350   24.0510   40.0180 C   0  0  0  0  0  0  0  0  0  0  0  0
   38.2280   25.4310   39.7150 S   0  0  0  0  0  0  0  0  0  0  0  0
   37.7340   24.8800   43.1460 H   0  0  0  0  0  0  0  0  0  0  0  0
   36.3120   23.2250   41.7900 H   0  0  0  0  0  0  0  0  0  0  0  0
   36.5280   23.4580   39.2240 H   0  0  0  0  0  0  0  0  0  0  0  0
   36.6790   28.8640   41.5070 C   0  0  0  0  0  0  0  0  0  0  0  0
   36.4620   30.2090   41.3780 C   0  0  0  0  0  0  0  0  0  0  0  0
   35.7370   30.3580   40.2600 N   0  0  0  0  0  0  0  0  0  0  0  0
   35.5040   29.1450   39.7060 C   0  0  0  0  0  0  0  0  0  0  0  0
   36.0900   28.2540   40.4880 N   0  0  0  0  0  0  0  0  0  0  0  0
   36.8530   30.8980   42.0990 H   0  0  0  0  0  0  0  0  0  0  0  0
   35.4730   31.3200   39.9960 H   0  0  0  0  0  0  0  0  0  0  0  0
   34.7270   29.1110   38.4760 C   0  0  0  0  0  0  0  0  0  0  0  0
   33.3500   29.1610   38.4730 C   0  0  0  0  0  0  0  0  0  0  0  0
   32.7720   29.2290   39.3840 H   0  0  0  0  0  0  0  0  0  0  0  0
   32.5690   29.1330   37.3390 C   0  0  0  0  0  3  0  0  0  0  0  0
   33.1640   29.0490   36.1060 C   0  0  0  0  0  3  0  0  0  0  0  0
   34.5280   28.9960   36.0410 C   0  0  0  0  0  0  0  0  0  0  0  0
   35.1220   28.9110   34.8000 C   0  0  0  0  0  3  0  0  0  0  0  0
   36.4870   28.8540   34.6680 C   0  0  0  0  0  3  0  0  0  0  0  0
   37.2630   28.8830   35.8280 C   0  0  0  0  0  3  0  0  0  0  0  0
   36.6090   28.9700   37.0360 C   0  0  0  0  0  3  0  0  0  0  0  0
   35.2490   29.0280   37.2070 C   0  0  0  0  0  0  0  0  0  0  0  0
  1  2  2  0  0  0  0
  3  9  1  0  0  0  0
  4  1  1  0  0  0  0
  4  3  2  0  0  0  0
  5  4  1  0  0  0  0
  6  5  2  0  0  0  0
  6  7  1  0  0  0  0
  7  8  2  0  0  0  0
  8  3  1  0  0  0  0
 10  7  1  0  0  0  0
 11  5  1  0  0  0  0
 11 12  2  0  0  0  0
 12 16  1  0  0  0  0
 13 17  1  0  0  0  0
 13 12  1  0  0  0  0
 14 13  2  0  0  0  0
 15 14  1  0  0  0  0
 15 11  1  0  0  0  0
 18 14  1  0  0  0  0
 19  1  1  0  0  0  0
 20 19  2  0  0  0  0
 20 24  1  0  0  0  0
 21 20  1  0  0  0  0
 22 21  1  0  0  0  0
 22 23  2  0  0  0  0
 23 19  1  0  0  0  0
 25 21  1  0  0  0  0
 26 22  1  0  0  0  0
 27 26  1  0  0  0  0
 27 28  1  0  0  0  0
 29 27  2  0  0  0  0
 30 29  1  0  0  0  0
 31 30  2  0  0  0  0
 31 36  1  0  0  0  0
 32 31  1  0  0  0  0
 33 32  2  0  0  0  0
 33 34  1  0  0  0  0
 34 35  2  0  0  0  0
 35 36  1  0  0  0  0
 36 26  2  0  0  0  0
M  END
>  <minimizedAffinity>
-6.06745386

$$$$

 OpenBabel03252503143D

 36 40  0  0  0  0  0  0  0  0999 V2000
   41.3490   29.9020   37.8290 C   0  0  0  0  0  0  0  0  0  0  0  0
   41.2680   29.2600   36.7420 O   0  0  0  0  0  0  0  0  0  0  0  0
   43.2090   31.4620   37.4670 C   0  0  0  0  0  0  0  0  0  0  0  0
   41.8420   31.2340   37.7270 C   0  0  0  0  0  0  0  0  0  0  0  0
   41.0750   32.3730   37.8630 C   0  0  0  0  0  0  0  0  0  0  0  0
   41.5940   33.6150   37.7530 N   0  0  0  0  0  0  0  0  0  0  0  0
   42.9150   33.7890   37.5020 C   0  0  0  0  0  0  0  0  0  0  0  0
   43.7170   32.7130   37.3600 N   0  0  0  0  0  0  0  0  0  0  0  0
   43.8930   30.6200   37.3450 H   0  0  0  0  0  0  0  0  0  0  0  0
   43.3300   34.7800   37.4140 H   0  0  0  0  0  0  0  0  0  0  0  0
   39.7030   32.2360   38.1290 C   0  0  0  0  0  0  0  0  0  0  0  0
   38.6240   31.7990   37.4180 C   0  0  0  0  0  0  0  0  0  0  0  0
   37.3940   31.7550   37.8930 C   0  0  0  0  0  0  0  0  0  0  0  0
   37.2420   32.1820   39.1820 C   0  0  0  0  0  0  0  0  0  0  0  0
   38.9560   32.6560   39.6880 S   0  0  0  0  0  0  0  0  0  0  0  0
   38.8640   31.4760   36.3840 H   0  0  0  0  0  0  0  0  0  0  0  0
   36.5000   31.4220   37.3880 H   0  0  0  0  0  0  0  0  0  0  0  0
   36.3400   32.2550   39.8310 H   0  0  0  0  0  0  0  0  0  0  0  0
   40.9650   29.3480   39.1600 C   0  0  0  0  0  0  0  0  0  0  0  0
   41.7960   29.0580   40.2080 C   0  0  0  0  0  0  0  0  0  0  0  0
   41.0050   28.5850   41.1820 N   0  0  0  0  0  0  0  0  0  0  0  0
   39.7200   28.5750   40.7590 C   0  0  0  0  0  0  0  0  0  0  0  0
   39.7250   29.0460   39.5230 N   0  0  0  0  0  0  0  0  0  0  0  0
   42.8510   29.2270   40.1330 H   0  0  0  0  0  0  0  0  0  0  0  0
   41.4630   28.3090   42.0650 H   0  0  0  0  0  0  0  0  0  0  0  0
   38.7140   28.0900   41.6920 C   0  0  0  0  0  0  0  0  0  0  0  0
   38.2420   28.8590   42.7320 C   0  0  0  0  0  0  0  0  0  0  0  0
   38.5930   29.8660   42.9120 H   0  0  0  0  0  0  0  0  0  0  0  0
   37.2920   28.4490   43.6410 C   0  0  0  0  0  3  0  0  0  0  0  0
   36.7530   27.1920   43.5390 C   0  0  0  0  0  3  0  0  0  0  0  0
   37.1800   26.3780   42.5270 C   0  0  0  0  0  0  0  0  0  0  0  0
   36.6360   25.1150   42.4280 C   0  0  0  0  0  3  0  0  0  0  0  0
   37.0220   24.2510   41.4350 C   0  0  0  0  0  3  0  0  0  0  0  0
   37.9870   24.6830   40.5230 C   0  0  0  0  0  3  0  0  0  0  0  0
   38.4900   25.9560   40.6760 C   0  0  0  0  0  3  0  0  0  0  0  0
   38.1280   26.8470   41.6550 C   0  0  0  0  0  0  0  0  0  0  0  0
  1 19  1  0  0  0  0
  2  1  2  0  0  0  0
  3  4  1  0  0  0  0
  4  1  1  0  0  0  0
  4  5  2  0  0  0  0
  5 11  1  0  0  0  0
  6  5  1  0  0  0  0
  7  6  2  0  0  0  0
  8  3  2  0  0  0  0
  8  7  1  0  0  0  0
  9  3  1  0  0  0  0
 10  7  1  0  0  0  0
 11 15  1  0  0  0  0
 12 13  1  0  0  0  0
 12 11  2  0  0  0  0
 13 14  2  0  0  0  0
 14 15  1  0  0  0  0
 14 18  1  0  0  0  0
 16 12  1  0  0  0  0
 17 13  1  0  0  0  0
 19 23  1  0  0  0  0
 19 20  2  0  0  0  0
 20 21  1  0  0  0  0
 21 25  1  0  0  0  0
 22 21  1  0  0  0  0
 22 26  1  0  0  0  0
 23 22  2  0  0  0  0
 24 20  1  0  0  0  0
 26 27  1  0  0  0  0
 27 28  1  0  0  0  0
 27 29  2  0  0  0  0
 30 29  1  0  0  0  0
 31 30  2  0  0  0  0
 32 31  1  0  0  0  0
 33 32  2  0  0  0  0
 34 35  2  0  0  0  0
 34 33  1  0  0  0  0
 35 36  1  0  0  0  0
 36 26  2  0  0  0  0
 36 31  1  0  0  0  0
M  END
>  <minimizedAffinity>
-6.06327391

$$$$

 OpenBabel03252503143D

 36 40  0  0  0  0  0  0  0  0999 V2000
   34.1570   28.5450   36.7760 C   0  0  0  0  0  0  0  0  0  0  0  0
   34.7260   29.1550   35.8240 O   0  0  0  0  0  0  0  0  0  0  0  0
   33.4770   26.2150   36.4150 C   0  0  0  0  0  0  0  0  0  0  0  0
   33.1710   27.5910   36.3980 C   0  0  0  0  0  0  0  0  0  0  0  0
   31.8840   27.8980   36.0010 C   0  0  0  0  0  0  0  0  0  0  0  0
   30.9860   26.9510   35.6570 N   0  0  0  0  0  0  0  0  0  0  0  0
   31.3230   25.6390   35.6880 C   0  0  0  0  0  0  0  0  0  0  0  0
   32.5650   25.2750   36.0670 N   0  0  0  0  0  0  0  0  0  0  0  0
   34.4700   25.8770   36.7150 H   0  0  0  0  0  0  0  0  0  0  0  0
   30.6050   24.8820   35.4130 H   0  0  0  0  0  0  0  0  0  0  0  0
   31.4980   29.2470   35.9500 C   0  0  0  0  0  0  0  0  0  0  0  0
   30.9870   30.1360   36.8500 C   0  0  0  0  0  0  0  0  0  0  0  0
   30.6970   31.3920   36.5650 C   0  0  0  0  0  0  0  0  0  0  0  0
   30.9430   31.7790   35.2780 C   0  0  0  0  0  0  0  0  0  0  0  0
   31.6130   30.2500   34.4850 S   0  0  0  0  0  0  0  0  0  0  0  0
   30.8280   29.7140   37.8630 H   0  0  0  0  0  0  0  0  0  0  0  0
   30.2930   32.1440   37.2260 H   0  0  0  0  0  0  0  0  0  0  0  0
   30.8000   32.7560   34.7650 H   0  0  0  0  0  0  0  0  0  0  0  0
   34.4630   28.7720   38.2180 C   0  0  0  0  0  0  0  0  0  0  0  0
   33.6350   29.3080   39.1660 C   0  0  0  0  0  0  0  0  0  0  0  0
   34.3400   29.3150   40.3070 N   0  0  0  0  0  0  0  0  0  0  0  0
   35.5720   28.8020   40.0820 C   0  0  0  0  0  0  0  0  0  0  0  0
   35.6180   28.4790   38.8000 N   0  0  0  0  0  0  0  0  0  0  0  0
   32.6410   29.6180   38.9130 H   0  0  0  0  0  0  0  0  0  0  0  0
   33.8710   29.6900   41.1460 H   0  0  0  0  0  0  0  0  0  0  0  0
   36.4820   28.7290   41.2160 C   0  0  0  0  0  0  0  0  0  0  0  0
   36.3800   27.7520   42.1810 C   0  0  0  0  0  0  0  0  0  0  0  0
   35.6180   26.9860   42.1490 H   0  0  0  0  0  0  0  0  0  0  0  0
   37.2140   27.6390   43.2720 C   0  0  0  0  0  3  0  0  0  0  0  0
   38.2300   28.5430   43.4450 C   0  0  0  0  0  3  0  0  0  0  0  0
   38.3860   29.5380   42.5210 C   0  0  0  0  0  0  0  0  0  0  0  0
   39.4090   30.4450   42.6990 C   0  0  0  0  0  3  0  0  0  0  0  0
   39.6170   31.4660   41.8070 C   0  0  0  0  0  3  0  0  0  0  0  0
   38.7610   31.5660   40.7080 C   0  0  0  0  0  3  0  0  0  0  0  0
   37.7600   30.6280   40.5870 C   0  0  0  0  0  3  0  0  0  0  0  0
   37.5220   29.5950   41.4580 C   0  0  0  0  0  0  0  0  0  0  0  0
  1 19  1  0  0  0  0
  2  1  2  0  0  0  0
  3  9  1  0  0  0  0
  4  3  1  0  0  0  0
  4  1  1  0  0  0  0
  5  4  2  0  0  0  0
  6  7  2  0  0  0  0
  6  5  1  0  0  0  0
  7  8  1  0  0  0  0
  8  3  2  0  0  0  0
 10  7  1  0  0  0  0
 11  5  1  0  0  0  0
 11 12  2  0  0  0  0
 12 16  1  0  0  0  0
 13 12  1  0  0  0  0
 13 17  1  0  0  0  0
 14 13  2  0  0  0  0
 15 14  1  0  0  0  0
 15 11  1  0  0  0  0
 18 14  1  0  0  0  0
 19 23  1  0  0  0  0
 19 20  2  0  0  0  0
 20 21  1  0  0  0  0
 21 25  1  0  0  0  0
 22 21  1  0  0  0  0
 22 26  1  0  0  0  0
 23 22  2  0  0  0  0
 24 20  1  0  0  0  0
 26 36  2  0  0  0  0
 26 27  1  0  0  0  0
 27 29  2  0  0  0  0
 28 27  1  0  0  0  0
 29 30  1  0  0  0  0
 31 32  1  0  0  0  0
 31 30  2  0  0  0  0
 33 32  2  0  0  0  0
 34 33  1  0  0  0  0
 35 34  2  0  0  0  0
 35 36  1  0  0  0  0
 36 31  1  0  0  0  0
M  END
>  <minimizedAffinity>
-6.04251242

$$$$

 OpenBabel03252503143D

 36 40  0  0  0  0  0  0  0  0999 V2000
   36.9030   30.5280   39.0910 C   0  0  0  0  0  0  0  0  0  0  0  0
   36.2210   31.1160   39.9790 O   0  0  0  0  0  0  0  0  0  0  0  0
   35.8910   28.7740   37.7030 C   0  0  0  0  0  0  0  0  0  0  0  0
   36.5830   29.1580   38.8700 C   0  0  0  0  0  0  0  0  0  0  0  0
   36.9010   28.1240   39.7270 C   0  0  0  0  0  0  0  0  0  0  0  0
   36.5760   26.8390   39.4660 N   0  0  0  0  0  0  0  0  0  0  0  0
   35.9110   26.5140   38.3310 C   0  0  0  0  0  0  0  0  0  0  0  0
   35.5710   27.4820   37.4540 N   0  0  0  0  0  0  0  0  0  0  0  0
   35.5970   29.5250   36.9670 H   0  0  0  0  0  0  0  0  0  0  0  0
   35.6510   25.4880   38.1220 H   0  0  0  0  0  0  0  0  0  0  0  0
   37.5860   28.4190   40.9170 C   0  0  0  0  0  0  0  0  0  0  0  0
   37.2110   28.6950   42.1990 C   0  0  0  0  0  0  0  0  0  0  0  0
   38.0590   28.9450   43.1800 C   0  0  0  0  0  0  0  0  0  0  0  0
   39.3820   28.9140   42.8400 C   0  0  0  0  0  0  0  0  0  0  0  0
   39.3590   28.5060   41.0370 S   0  0  0  0  0  0  0  0  0  0  0  0
   36.1130   28.6940   42.3610 H   0  0  0  0  0  0  0  0  0  0  0  0
   37.8310   29.1680   44.2100 H   0  0  0  0  0  0  0  0  0  0  0  0
   40.3000   29.0810   43.4470 H   0  0  0  0  0  0  0  0  0  0  0  0
   37.9840   31.1790   38.2960 C   0  0  0  0  0  0  0  0  0  0  0  0
   37.8740   31.7410   37.0530 C   0  0  0  0  0  0  0  0  0  0  0  0
   39.1000   32.1940   36.7470 N   0  0  0  0  0  0  0  0  0  0  0  0
   39.9510   31.9230   37.7640 C   0  0  0  0  0  0  0  0  0  0  0  0
   39.2430   31.3040   38.6940 N   0  0  0  0  0  0  0  0  0  0  0  0
   36.9360   31.7520   36.5380 H   0  0  0  0  0  0  0  0  0  0  0  0
   39.2130   32.6570   35.8310 H   0  0  0  0  0  0  0  0  0  0  0  0
   41.3350   32.3460   37.6060 C   0  0  0  0  0  0  0  0  0  0  0  0
   41.7660   33.6030   37.9690 C   0  0  0  0  0  0  0  0  0  0  0  0
   41.1010   34.3430   38.3910 H   0  0  0  0  0  0  0  0  0  0  0  0
   43.0620   34.0520   37.8420 C   0  0  0  0  0  3  0  0  0  0  0  0
   44.0210   33.2210   37.3200 C   0  0  0  0  0  3  0  0  0  0  0  0
   43.6560   31.9600   36.9400 C   0  0  0  0  0  0  0  0  0  0  0  0
   44.6220   31.1270   36.4170 C   0  0  0  0  0  3  0  0  0  0  0  0
   44.3200   29.8500   36.0170 C   0  0  0  0  0  3  0  0  0  0  0  0
   43.0010   29.4120   36.1530 C   0  0  0  0  0  3  0  0  0  0  0  0
   42.0840   30.2910   36.6840 C   0  0  0  0  0  3  0  0  0  0  0  0
   42.3500   31.5730   37.0940 C   0  0  0  0  0  0  0  0  0  0  0  0
  1  2  2  0  0  0  0
  3  4  1  0  0  0  0
  4  1  1  0  0  0  0
  4  5  2  0  0  0  0
  5 11  1  0  0  0  0
  6  5  1  0  0  0  0
  7  6  2  0  0  0  0
  8  3  2  0  0  0  0
  8  7  1  0  0  0  0
  9  3  1  0  0  0  0
 10  7  1  0  0  0  0
 11 15  1  0  0  0  0
 11 12  2  0  0  0  0
 12 16  1  0  0  0  0
 12 13  1  0  0  0  0
 13 17  1  0  0  0  0
 14 13  2  0  0  0  0
 14 18  1  0  0  0  0
 15 14  1  0  0  0  0
 19 23  1  0  0  0  0
 19  1  1  0  0  0  0
 20 19  2  0  0  0  0
 21 20  1  0  0  0  0
 21 22  1  0  0  0  0
 22 23  2  0  0  0  0
 24 20  1  0  0  0  0
 25 21  1  0  0  0  0
 26 22  1  0  0  0  0
 26 27  1  0  0  0  0
 27 28  1  0  0  0  0
 29 27  2  0  0  0  0
 30 29  1  0  0  0  0
 31 36  1  0  0  0  0
 31 30  2  0  0  0  0
 32 31  1  0  0  0  0
 33 34  1  0  0  0  0
 33 32  2  0  0  0  0
 34 35  2  0  0  0  0
 35 36  1  0  0  0  0
 36 26  2  0  0  0  0
M  END
>  <minimizedAffinity>
-6.03181601

$$$$

 OpenBabel03252503143D

 36 40  0  0  0  0  0  0  0  0999 V2000
   37.5440   30.8300   38.3150 C   0  0  0  0  0  0  0  0  0  0  0  0
   37.4400   30.9320   37.0580 O   0  0  0  0  0  0  0  0  0  0  0  0
   37.3320   33.0310   39.3800 C   0  0  0  0  0  0  0  0  0  0  0  0
   38.1330   31.9420   38.9810 C   0  0  0  0  0  0  0  0  0  0  0  0
   39.4740   32.0580   39.2880 C   0  0  0  0  0  0  0  0  0  0  0  0
   39.9800   33.1350   39.9260 N   0  0  0  0  0  0  0  0  0  0  0  0
   39.1740   34.1610   40.2920 C   0  0  0  0  0  0  0  0  0  0  0  0
   37.8540   34.1060   40.0190 N   0  0  0  0  0  0  0  0  0  0  0  0
   36.2590   33.0270   39.1780 H   0  0  0  0  0  0  0  0  0  0  0  0
   39.5780   35.0210   40.8020 H   0  0  0  0  0  0  0  0  0  0  0  0
   40.3440   31.0190   38.9210 C   0  0  0  0  0  0  0  0  0  0  0  0
   40.7750   29.8700   39.5150 C   0  0  0  0  0  0  0  0  0  0  0  0
   41.6170   29.0200   38.9580 C   0  0  0  0  0  0  0  0  0  0  0  0
   42.0550   29.3550   37.7080 C   0  0  0  0  0  0  0  0  0  0  0  0
   41.2000   30.9570   37.3620 S   0  0  0  0  0  0  0  0  0  0  0  0
   40.3550   29.6980   40.5280 H   0  0  0  0  0  0  0  0  0  0  0  0
   41.9960   28.0980   39.3700 H   0  0  0  0  0  0  0  0  0  0  0  0
   42.7540   28.8400   37.0110 H   0  0  0  0  0  0  0  0  0  0  0  0
   37.0920   29.6440   39.0990 C   0  0  0  0  0  0  0  0  0  0  0  0
   35.9290   29.5130   39.8080 C   0  0  0  0  0  0  0  0  0  0  0  0
   35.9630   28.2840   40.3440 N   0  0  0  0  0  0  0  0  0  0  0  0
   37.1110   27.6630   39.9830 C   0  0  0  0  0  0  0  0  0  0  0  0
   37.7790   28.5160   39.2250 N   0  0  0  0  0  0  0  0  0  0  0  0
   35.2170   30.3130   39.8450 H   0  0  0  0  0  0  0  0  0  0  0  0
   35.1560   28.0020   40.9220 H   0  0  0  0  0  0  0  0  0  0  0  0
   37.3200   26.3090   40.4750 C   0  0  0  0  0  0  0  0  0  0  0  0
   36.6530   25.2240   39.9510 C   0  0  0  0  0  0  0  0  0  0  0  0
   35.9380   25.3190   39.1460 H   0  0  0  0  0  0  0  0  0  0  0  0
   36.8150   23.9250   40.3800 C   0  0  0  0  0  3  0  0  0  0  0  0
   37.6910   23.6500   41.3980 C   0  0  0  0  0  3  0  0  0  0  0  0
   38.3850   24.6840   41.9610 C   0  0  0  0  0  0  0  0  0  0  0  0
   39.2650   24.4030   42.9840 C   0  0  0  0  0  3  0  0  0  0  0  0
   39.9910   25.3970   43.5900 C   0  0  0  0  0  3  0  0  0  0  0  0
   39.8140   26.7090   43.1430 C   0  0  0  0  0  3  0  0  0  0  0  0
   38.9210   26.9230   42.1180 C   0  0  0  0  0  3  0  0  0  0  0  0
   38.1790   25.9550   41.4880 C   0  0  0  0  0  0  0  0  0  0  0  0
  1  4  1  0  0  0  0
  1 19  1  0  0  0  0
  2  1  2  0  0  0  0
  3  8  1  0  0  0  0
  4  5  1  0  0  0  0
  4  3  2  0  0  0  0
  5  6  2  0  0  0  0
  6  7  1  0  0  0  0
  7 10  1  0  0  0  0
  8  7  2  0  0  0  0
  9  3  1  0  0  0  0
 11  5  1  0  0  0  0
 11 12  2  0  0  0  0
 12 16  1  0  0  0  0
 13 17  1  0  0  0  0
 13 12  1  0  0  0  0
 14 13  2  0  0  0  0
 15 14  1  0  0  0  0
 15 11  1  0  0  0  0
 18 14  1  0  0  0  0
 19 23  1  0  0  0  0
 19 20  2  0  0  0  0
 20 24  1  0  0  0  0
 20 21  1  0  0  0  0
 21 25  1  0  0  0  0
 22 21  1  0  0  0  0
 22 26  1  0  0  0  0
 23 22  2  0  0  0  0
 26 36  1  0  0  0  0
 27 29  1  0  0  0  0
 27 26  2  0  0  0  0
 28 27  1  0  0  0  0
 29 30  2  0  0  0  0
 30 31  1  0  0  0  0
 31 32  1  0  0  0  0
 32 33  2  0  0  0  0
 34 33  1  0  0  0  0
 35 34  2  0  0  0  0
 36 31  2  0  0  0  0
 36 35  1  0  0  0  0
M  END
>  <minimizedAffinity>
-6.01608038

$$$$
