
 OpenBabel03242511423D

 36 39  0  0  0  0  0  0  0  0999 V2000
   46.3570   32.1890   47.4520 C   0  0  0  0  0  0  0  0  0  0  0  0
   45.0210   32.3320   47.8060 C   0  0  0  0  0  0  0  0  0  0  0  0
   44.4450   31.6810   48.8570 C   0  0  0  0  0  0  0  0  0  0  0  0
   45.2460   30.8450   49.5880 C   0  0  0  0  0  0  0  0  0  0  0  0
   46.5910   30.7040   49.2320 C   0  0  0  0  0  0  0  0  0  0  0  0
   47.1790   31.3670   48.1650 C   0  0  0  0  0  0  0  0  0  0  0  0
   44.5560   33.0330   47.1080 H   0  0  0  0  0  0  0  0  0  0  0  0
   43.4080   31.9610   48.9200 H   0  0  0  0  0  0  0  0  0  0  0  0
   44.6310   30.4030   50.3890 H   0  0  0  0  0  0  0  0  0  0  0  0
   46.9400   29.9890   49.9920 H   0  0  0  0  0  0  0  0  0  0  0  0
   48.5300   30.8350   48.2860 C   0  0  0  0  0  0  0  0  0  0  0  0
   49.1390   31.4640   49.3860 C   0  0  0  0  0  0  0  0  0  0  0  0
   48.7230   32.1980   50.0670 H   0  0  0  0  0  0  0  0  0  0  0  0
   50.4450   31.1880   49.7440 C   0  0  0  0  0  0  0  0  0  0  0  0
   51.1590   30.2730   49.0010 C   0  0  0  0  0  0  0  0  0  0  0  0
   50.5640   29.6550   47.9250 C   0  0  0  0  0  0  0  0  0  0  0  0
   51.1940   28.7060   47.1320 C   0  0  0  0  0  0  0  0  0  0  0  0
   50.5370   28.0960   46.0670 C   0  0  0  0  0  0  0  0  0  0  0  0
   49.2150   28.4190   45.7580 C   0  0  0  0  0  0  0  0  0  0  0  0
   48.5550   29.3570   46.5190 C   0  0  0  0  0  0  0  0  0  0  0  0
   49.2720   29.9170   47.5550 C   0  0  0  0  0  0  0  0  0  0  0  0
   47.0690   32.8530   46.3310 C   0  0  0  0  0  0  0  0  0  0  0  0
   48.1180   32.4820   46.3270 H   0  0  0  0  0  0  0  0  0  0  0  0
   47.1000   33.9070   46.5900 H   0  0  0  0  0  0  0  0  0  0  0  0
   46.3940   32.5620   45.0200 C   0  0  0  0  0  0  0  0  0  0  0  0
   45.3670   32.1570   45.3100 H   0  0  0  0  0  0  0  0  0  0  0  0
   46.9320   31.9910   44.2950 H   0  0  0  0  0  0  0  0  0  0  0  0
   44.6180   35.7520   44.5800 C   0  0  0  0  0  0  0  0  0  0  0  0
   45.1090   36.1830   43.3120 C   0  0  0  0  0  0  0  0  0  0  0  0
   46.0390   35.3770   42.6800 C   0  0  0  0  0  0  0  0  0  0  0  0
   46.4400   34.2420   43.2650 N   0  0  0  0  0  0  0  0  0  0  0  0
   45.9360   33.8820   44.4760 C   0  0  0  0  0  0  0  0  0  0  0  0
   45.0520   34.6030   45.1290 N   0  0  0  0  0  0  0  0  0  0  0  0
   43.8900   36.3450   45.1200 H   0  0  0  0  0  0  0  0  0  0  0  0
   44.7530   37.1070   42.8800 H   0  0  0  0  0  0  0  0  0  0  0  0
   46.4300   35.6780   41.7170 H   0  0  0  0  0  0  0  0  0  0  0  0
  1  2  2  0  0  0  0
  1  6  1  0  0  0  0
  2  3  1  0  0  0  0
  3  8  1  0  0  0  0
  3  4  2  0  0  0  0
  4  9  1  0  0  0  0
  5  4  1  0  0  0  0
  5 10  1  0  0  0  0
  6 11  1  0  0  0  0
  6  5  2  0  0  0  0
  7  2  1  0  0  0  0
 11 12  1  0  0  0  0
 12 14  2  0  0  0  0
 12 13  1  0  0  0  0
 15 14  1  0  0  0  0
 16 15  2  0  0  0  0
 17 16  1  0  0  0  0
 18 17  2  0  0  0  0
 19 18  1  0  0  0  0
 19 20  2  0  0  0  0
 20 21  1  0  0  0  0
 21 16  1  0  0  0  0
 21 11  2  0  0  0  0
 22 24  1  0  0  0  0
 22  1  1  0  0  0  0
 23 22  1  0  0  0  0
 25 26  1  0  0  0  0
 25 22  1  0  0  0  0
 27 25  1  0  0  0  0
 28 34  1  0  0  0  0
 28 33  1  0  0  0  0
 29 28  2  0  0  0  0
 30 31  2  0  0  0  0
 30 29  1  0  0  0  0
 31 32  1  0  0  0  0
 32 25  1  0  0  0  0
 32 33  2  0  0  0  0
 35 29  1  0  0  0  0
 36 30  1  0  0  0  0
M  END
>  <minimizedAffinity>
-5.63699484

>  <minimizedRMSD>
4.08126926

$$$$
