REMARK  Name = 
REMARK  3 active torsions:
REMARK  status: ('A' for Active; 'I' for Inactive)
REMARK    1  A    between atoms: C_3  and  C_10
REMARK    2  A    between atoms: C_7  and  C_14
REMARK    3  A    between atoms: C_15  and  C_28
REMARK                            x       y       z     vdW  Elec       q    Type
REMARK                         _______ _______ _______ _____ _____    ______ ____
ROOT
ATOM      1 CL   UNL     1      45.007  33.071  41.087  0.00  0.00    +0.000 Cl
ATOM      2  C   UNL     1      46.490  33.979  40.938  0.00  0.00    +0.000 A 
ATOM      3  C   UNL     1      46.948  34.796  41.931  0.00  0.00    +0.000 A 
ATOM      4  C   UNL     1      48.113  35.456  41.693  0.00  0.00    +0.000 A 
ATOM      5  C   UNL     1      48.812  35.334  40.542  0.00  0.00    +0.000 A 
ATOM      6  C   UNL     1      48.359  34.517  39.543  0.00  0.00    +0.000 A 
ATOM      7  C   UNL     1      47.169  33.825  39.749  0.00  0.00    +0.000 A 
ATOM      8  H   UNL     1      48.509  36.113  42.458  0.00  0.00    +0.000 HD
ATOM      9  H   UNL     1      49.740  35.853  40.342  0.00  0.00    +0.000 HD
ATOM     10  H   UNL     1      48.911  34.410  38.613  0.00  0.00    +0.000 HD
ENDROOT
BRANCH   3  13
ATOM     11  C   UNL     1      44.471  35.981  44.544  0.00  0.00    +0.000 A 
ATOM     12  C   UNL     1      45.214  35.907  43.367  0.00  0.00    +0.000 A 
ATOM     13  C   UNL     1      46.164  34.893  43.149  0.00  0.00    +0.000 A 
ATOM     14  N   UNL     1      46.300  34.001  44.163  0.00  0.00    +0.000 NA
ATOM     15  C   UNL     1      45.574  34.084  45.297  0.00  0.00    +0.000 A 
ATOM     16  N   UNL     1      44.674  35.066  45.475  0.00  0.00    +0.000 NA
ATOM     17  H   UNL     1      43.745  36.760  44.703  0.00  0.00    +0.000 HD
ATOM     18  H   UNL     1      45.059  36.651  42.592  0.00  0.00    +0.000 HD
ATOM     19  H   UNL     1      45.852  33.263  45.969  0.00  0.00    +0.000 HD
ENDBRANCH   3  13
BRANCH   7  20
ATOM     20  C   UNL     1      46.661  32.937  38.675  0.00  0.00    +0.000 A 
ATOM     21  C   UNL     1      46.698  31.544  38.761  0.00  0.00    +0.000 A 
ATOM     22  S   UNL     1      45.950  31.007  37.188  0.00  0.00    +0.000 S 
ATOM     23  C   UNL     1      45.697  32.809  36.643  0.00  0.00    +0.000 A 
ATOM     24  N   UNL     1      46.124  33.333  37.540  0.00  0.00    +0.000 NA
ATOM     25  N   UNL     1      45.113  33.253  35.414  0.00  0.00    +0.000 N 
ATOM     26  H   UNL     1      44.088  33.007  35.421  0.00  0.00    +0.000 HD
ATOM     27  H   UNL     1      45.624  33.728  34.666  0.00  0.00    +0.000 HD
BRANCH  21  28
ATOM     28  C   UNL     1      47.171  30.611  39.762  0.00  0.00    +0.000 A 
ATOM     29  C   UNL     1      46.890  31.035  41.064  0.00  0.00    +0.000 A 
ATOM     30  H   UNL     1      46.385  31.936  41.429  0.00  0.00    +0.000 HD
ATOM     31  C   UNL     1      47.270  30.266  42.144  0.00  0.00    +0.000 A 
ATOM     32  C   UNL     1      47.934  29.059  41.981  0.00  0.00    +0.000 A 
ATOM     33  C   UNL     1      48.207  28.646  40.696  0.00  0.00    +0.000 A 
ATOM     34  C   UNL     1      48.864  27.452  40.451  0.00  0.00    +0.000 A 
ATOM     35  C   UNL     1      49.100  27.101  39.133  0.00  0.00    +0.000 A 
ATOM     36  C   UNL     1      48.721  27.870  38.044  0.00  0.00    +0.000 A 
ATOM     37  C   UNL     1      48.065  29.062  38.299  0.00  0.00    +0.000 A 
ATOM     38  C   UNL     1      47.830  29.410  39.612  0.00  0.00    +0.000 A 
ENDBRANCH  21  28
ENDBRANCH   7  20
TORSDOF 3
