
 OpenBabel03252509243D

 29 32  0  0  1  0  0  0  0  0999 V2000
   46.8010   34.9210   41.9390 C   0  0  1  0  0  0  0  0  0  0  0  0
   48.3100   35.2760   42.0240 C   0  0  0  0  0  0  0  0  0  0  0  0
   47.7180   33.9570   41.4460 C   0  0  2  0  0  0  0  0  0  0  0  0
   46.2240   35.6510   41.3410 H   0  0  0  0  0  0  0  0  0  0  0  0
   48.8440   35.1400   42.9590 H   0  0  0  0  0  0  0  0  0  0  0  0
   48.6970   36.0020   41.2650 H   0  0  0  0  0  0  0  0  0  0  0  0
   47.8790   33.0300   42.0690 H   0  0  0  0  0  0  0  0  0  0  0  0
   47.9630   33.6660   40.0130 C   0  0  0  0  0  0  0  0  0  0  0  0
   48.2390   34.7470   39.2010 C   0  0  0  0  0  0  0  0  0  0  0  0
   48.2730   35.7590   39.6050 H   0  0  0  0  0  0  0  0  0  0  0  0
   48.4670   34.4730   37.8620 C   0  0  0  0  0  3  0  0  0  0  0  0
   48.4230   33.2120   37.3620 C   0  0  0  0  0  3  0  0  0  0  0  0
   48.1450   32.1350   38.1870 C   0  0  0  0  0  0  0  0  0  0  0  0
   48.0920   30.8280   37.7120 C   0  0  0  0  0  3  0  0  0  0  0  0
   47.8070   29.8140   38.6100 C   0  0  0  0  0  3  0  0  0  0  0  0
   47.5720   30.0100   39.9350 C   0  0  0  0  0  3  0  0  0  0  0  0
   47.6280   31.3190   40.4000 C   0  0  0  0  0  3  0  0  0  0  0  0
   47.9110   32.3560   39.5300 C   0  0  0  0  0  0  0  0  0  0  0  0
   44.7090   35.3030   45.0430 C   0  0  0  0  0  0  0  0  0  0  0  0
   45.2400   35.5710   43.7440 C   0  0  0  0  0  0  0  0  0  0  0  0
   46.2400   34.7320   43.3320 C   0  0  0  0  0  0  0  0  0  0  0  0
   46.6910   33.6990   44.1370 N   0  0  0  0  0  0  0  0  0  0  0  0
   46.1670   33.4810   45.3500 C   0  0  0  0  0  0  0  0  0  0  0  0
   45.1740   34.2810   45.8070 N   0  0  0  0  0  0  0  0  0  0  0  0
   43.9180   35.9880   45.3350 H   0  0  0  0  0  0  0  0  0  0  0  0
   46.5060   32.6810   45.9910 H   0  0  0  0  0  0  0  0  0  0  0  0
   44.7730   36.6550   42.9450 N   0  0  0  0  0  0  0  0  0  0  0  0
   43.7740   36.8860   42.6660 H   0  0  0  0  0  0  0  0  0  0  0  0
   45.5160   37.3180   42.5790 H   0  0  0  0  0  0  0  0  0  0  0  0
  1  4  1  6  0  0  0
  1  2  1  0  0  0  0
  1 21  1  0  0  0  0
  2  5  1  0  0  0  0
  3  1  1  0  0  0  0
  3  2  1  0  0  0  0
  3  7  1  1  0  0  0
  6  2  1  0  0  0  0
  8  3  1  0  0  0  0
  9 10  1  0  0  0  0
  9  8  2  0  0  0  0
 11  9  1  0  0  0  0
 12 11  2  0  0  0  0
 12 13  1  0  0  0  0
 13 18  1  0  0  0  0
 14 13  2  0  0  0  0
 14 15  1  0  0  0  0
 15 16  2  0  0  0  0
 16 17  1  0  0  0  0
 18  8  1  0  0  0  0
 18 17  2  0  0  0  0
 19 25  1  0  0  0  0
 19 24  1  0  0  0  0
 20 19  2  0  0  0  0
 21 20  1  0  0  0  0
 21 22  2  0  0  0  0
 22 23  1  0  0  0  0
 23 24  2  0  0  0  0
 23 26  1  0  0  0  0
 27 20  1  0  0  0  0
 28 27  1  0  0  0  0
 29 27  1  0  0  0  0
M  END
>  <minimizedAffinity>
-5.29210472

>  <minimizedRMSD>
0.336738914

$$$$
