
 OpenBabel03252509213D

 27 30  0  0  0  0  0  0  0  0999 V2000
   42.6380   34.6360   40.0350 C   0  0  0  0  0  0  0  0  0  0  0  0
   43.5710   33.6190   40.2430 C   0  0  0  0  0  0  0  0  0  0  0  0
   42.9890   32.6230   41.0280 C   0  0  0  0  0  0  0  0  0  0  0  0
   41.6760   32.7040   41.4910 N   0  0  0  0  0  0  0  0  0  0  0  0
   40.8770   33.7350   41.2200 C   0  0  0  0  0  0  0  0  0  0  0  0
   41.3820   34.7270   40.4700 N   0  0  0  0  0  0  0  0  0  0  0  0
   42.9670   35.4990   39.4270 H   0  0  0  0  0  0  0  0  0  0  0  0
   39.9200   33.5770   41.6790 H   0  0  0  0  0  0  0  0  0  0  0  0
   44.8950   33.5850   39.7460 C   0  0  0  0  0  0  0  0  0  0  0  0
   45.2570   33.0460   38.5270 C   0  0  0  0  0  0  0  0  0  0  0  0
   44.4560   32.6180   37.9120 H   0  0  0  0  0  0  0  0  0  0  0  0
   46.5360   32.9970   38.0120 C   0  0  0  0  0  3  0  0  0  0  0  0
   47.5110   33.5550   38.8360 C   0  0  0  0  0  3  0  0  0  0  0  0
   47.2380   34.1210   40.0830 C   0  0  0  0  0  0  0  0  0  0  0  0
   48.2690   34.6520   40.8320 C   0  0  0  0  0  3  0  0  0  0  0  0
   47.9860   35.2160   42.0770 C   0  0  0  0  0  3  0  0  0  0  0  0
   46.6710   35.2090   42.4870 C   0  0  0  0  0  3  0  0  0  0  0  0
   45.6280   34.6870   41.7580 C   0  0  0  0  0  3  0  0  0  0  0  0
   45.9270   34.1300   40.5240 C   0  0  0  0  0  0  0  0  0  0  0  0
   43.7840   31.3830   41.3030 C   0  0  0  0  0  0  0  0  0  0  0  0
   43.0000   30.3490   42.0790 C   0  0  0  0  0  0  0  0  0  0  0  0
   43.4370   30.1800   40.6140 C   0  0  0  0  0  0  0  0  0  0  0  0
   44.7720   31.5690   41.7200 H   0  0  0  0  0  0  0  0  0  0  0  0
   43.5400   29.7830   42.8610 H   0  0  0  0  0  0  0  0  0  0  0  0
   41.9860   30.6240   42.3250 H   0  0  0  0  0  0  0  0  0  0  0  0
   44.0850   29.2840   40.4930 H   0  0  0  0  0  0  0  0  0  0  0  0
   42.5860   30.1350   39.8650 H   0  0  0  0  0  0  0  0  0  0  0  0
  1  2  2  0  0  0  0
  1  6  1  0  0  0  0
  2  3  1  0  0  0  0
  3 20  1  0  0  0  0
  3  4  2  0  0  0  0
  5  4  1  0  0  0  0
  5  8  1  0  0  0  0
  6  5  2  0  0  0  0
  7  1  1  0  0  0  0
  9  2  1  0  0  0  0
  9 19  1  0  0  0  0
 10  9  2  0  0  0  0
 11 10  1  0  0  0  0
 12 10  1  0  0  0  0
 12 13  2  0  0  0  0
 13 14  1  0  0  0  0
 14 19  2  0  0  0  0
 14 15  1  0  0  0  0
 15 16  2  0  0  0  0
 16 17  1  0  0  0  0
 18 17  2  0  0  0  0
 19 18  1  0  0  0  0
 20 23  1  0  0  0  0
 20 21  1  0  0  0  0
 21 25  1  0  0  0  0
 21 24  1  0  0  0  0
 22 20  1  0  0  0  0
 22 21  1  0  0  0  0
 26 22  1  0  0  0  0
 27 22  1  0  0  0  0
M  END
>  <minimizedAffinity>
-4.4493351

>  <minimizedRMSD>
5.39355087

$$$$
