
     RDKit          3D

 47 51  0  0  0  0  0  0  0  0999 V2000
   45.6288   34.6191   42.0534 C   0  0  0  0  0  0  0  0  0  0  0  0
   44.9039   35.6681   42.6307 C   0  0  0  0  0  0  0  0  0  0  0  0
   43.5583   35.5180   42.3391 C   0  0  0  0  0  0  0  0  0  0  0  0
   43.4962   34.3930   41.5959 N   0  0  0  0  0  0  0  0  0  0  0  0
   44.7039   33.8818   41.4397 N   0  0  0  0  0  0  0  0  0  0  0  0
   49.3552   35.1553   41.9712 C   0  0  0  0  0  0  0  0  0  0  0  0
   47.9670   35.4599   41.8311 C   0  0  0  0  0  0  0  0  0  0  0  0
   47.0734   34.4339   42.1435 C   0  0  0  0  0  0  0  0  0  0  0  0
   47.5445   33.2343   42.5519 N   0  0  0  0  0  0  0  0  0  0  0  0
   48.8587   32.9768   42.6741 C   0  0  0  0  0  0  0  0  0  0  0  0
   49.7363   33.9369   42.3832 N   0  0  0  0  0  0  0  0  0  0  0  0
   42.3486   33.7531   39.6249 N   0  0  0  0  0  0  0  0  0  0  0  0
   42.2314   33.9431   41.0870 C   0  0  2  0  0  0  0  0  0  0  0  0
   41.1744   34.9290   41.4365 C   0  0  0  0  0  0  0  0  0  0  0  0
   40.3260   35.2602   40.3197 N   0  0  0  0  0  0  0  0  0  0  0  0
   41.0325   35.6287   39.1512 C   0  0  0  0  0  0  0  0  0  0  0  0
   42.4650   35.0830   39.0821 C   0  0  2  0  0  0  0  0  0  0  0  0
   45.4663   36.4275   43.2052 H   0  0  0  0  0  0  0  0  0  0  0  0
   42.9957   36.3263   42.7921 H   0  0  0  0  0  0  0  0  0  0  0  0
   50.0562   35.9425   41.7322 H   0  0  0  0  0  0  0  0  0  0  0  0
   47.5958   36.4172   41.5050 H   0  0  0  0  0  0  0  0  0  0  0  0
   49.2110   32.0066   43.0034 H   0  0  0  0  0  0  0  0  0  0  0  0
   41.3764   33.3765   39.3330 H   0  0  0  0  0  0  0  0  0  0  0  0
   41.9371   32.9605   41.5331 H   0  0  0  0  0  0  0  0  0  0  0  0
   40.4864   34.5484   42.2445 H   0  0  0  0  0  0  0  0  0  0  0  0
   41.5183   35.9359   41.7383 H   0  0  0  0  0  0  0  0  0  0  0  0
   39.5715   34.5380   40.1916 H   0  0  0  0  0  0  0  0  0  0  0  0
   41.0826   36.7215   38.9729 H   0  0  0  0  0  0  0  0  0  0  0  0
   40.4573   35.2301   38.2807 H   0  0  0  0  0  0  0  0  0  0  0  0
   43.1114   35.7207   39.7620 H   0  0  0  0  0  0  0  0  0  0  0  0
   42.8394   35.2515   37.6872 C   0  0  0  0  0  0  0  0  0  0  0  0
   41.9876   36.2441   37.1572 C   0  0  0  0  0  0  0  0  0  0  0  0
   41.1953   36.8503   37.6301 H   0  0  0  0  0  0  0  0  0  0  0  0
   42.0481   36.6309   35.8172 C   0  0  0  0  0  0  0  0  0  0  0  0
   42.9601   36.0377   34.9724 C   0  0  0  0  0  0  0  0  0  0  0  0
   43.8089   35.0686   35.4453 C   0  0  0  0  0  0  0  0  0  0  0  0
   44.7682   34.4106   34.7137 C   0  0  0  0  0  0  0  0  0  0  0  0
   45.6172   33.4490   35.2205 C   0  0  0  0  0  0  0  0  0  0  0  0
   45.4663   33.1446   36.5790 C   0  0  0  0  0  0  0  0  0  0  0  0
   44.5137   33.7877   37.3350 C   0  0  0  0  0  0  0  0  0  0  0  0
   43.7023   34.7321   36.7676 C   0  0  0  0  0  0  0  0  0  0  0  0
   41.4500   37.3706   35.3153 H   0  0  0  0  0  0  0  0  0  0  0  0
   43.0689   36.2815   33.9215 H   0  0  0  0  0  0  0  0  0  0  0  0
   44.8587   34.6710   33.6632 H   0  0  0  0  0  0  0  0  0  0  0  0
   46.3532   32.9653   34.5931 H   0  0  0  0  0  0  0  0  0  0  0  0
   46.1504   32.3874   36.9355 H   0  0  0  0  0  0  0  0  0  0  0  0
   44.5417   33.4555   38.3294 H   0  0  0  0  0  0  0  0  0  0  0  0
  1  8  1  0
  1  2  1  0
  3  2  2  0
  4  3  1  0
  5  4  1  0
  5  1  2  0
  6 11  2  0
  7  6  1  0
  7  8  2  0
  8  9  1  0
  9 10  2  0
 11 10  1  0
 12 13  1  0
 13 14  1  0
 13  4  1  0
 15 14  1  0
 16 15  1  0
 17 16  1  0
 17 12  1  0
  2 18  1  0
  3 19  1  0
  6 20  1  0
  7 21  1  0
 10 22  1  0
 12 23  1  0
 13 24  1  1
 14 25  1  0
 14 26  1  0
 15 27  1  0
 16 28  1  0
 16 29  1  0
 17 30  1  1
 31 32  2  0
 32 33  1  0
 32 34  1  0
 34 35  2  0
 35 36  1  0
 36 37  2  0
 37 38  1  0
 38 39  2  0
 39 40  1  0
 40 41  2  0
 41 31  1  0
 41 36  1  0
 34 42  1  0
 35 43  1  0
 37 44  1  0
 38 45  1  0
 39 46  1  0
 40 47  1  0
 17 31  1  0
M  ISO  8  18  14  19  14  20  14  21  14  22  14  23   5  24  13  25  13
M  ISO  6  26  13  27   5  28  13  29  13  30  13  33  15
M  END
>  <DihAtoms>  (1) 
15,16,30,31

>  <DihDeg>  (1) 
66.29619531577968

$$$$
