REMARK  Name = 
REMARK  3 active torsions:
REMARK  status: ('A' for Active; 'I' for Inactive)
REMARK    1  A    between atoms: C_3  and  C_9
REMARK    2  A    between atoms: C_8  and  C_15
REMARK    3  A    between atoms: C_13  and  C_23
REMARK                            x       y       z     vdW  Elec       q    Type
REMARK                         _______ _______ _______ _____ _____    ______ ____
ROOT
ATOM      1  C   UNL     1      47.967  34.647  40.111  0.00  0.00    +0.000 A 
ATOM      2  C   UNL     1      46.810  33.975  40.480  0.00  0.00    +0.000 A 
ATOM      3  C   UNL     1      46.170  33.244  39.531  0.00  0.00    +0.000 A 
ATOM      4  C   UNL     1      46.609  33.135  38.224  0.00  0.00    +0.000 A 
ATOM      5  C   UNL     1      47.765  33.813  37.874  0.00  0.00    +0.000 A 
ATOM      6  C   UNL     1      48.438  34.560  38.803  0.00  0.00    +0.000 A 
ATOM      7  H   UNL     1      45.262  32.718  39.827  0.00  0.00    +0.000 HD
ATOM      8  H   UNL     1      46.086  32.549  37.485  0.00  0.00    +0.000 HD
ATOM      9  H   UNL     1      48.192  33.798  36.891  0.00  0.00    +0.000 HD
ENDROOT
BRANCH   2  12
ATOM     10  C   UNL     1      44.905  35.044  43.561  0.00  0.00    +0.000 A 
ATOM     11  C   UNL     1      45.278  34.927  42.203  0.00  0.00    +0.000 A 
ATOM     12  C   UNL     1      46.391  34.124  41.872  0.00  0.00    +0.000 A 
ATOM     13  N   UNL     1      47.035  33.513  42.893  0.00  0.00    +0.000 NA
ATOM     14  C   UNL     1      46.655  33.646  44.169  0.00  0.00    +0.000 A 
ATOM     15  N   UNL     1      45.593  34.410  44.503  0.00  0.00    +0.000 NA
ATOM     16  N   UNL     1      43.794  35.849  43.860  0.00  0.00    +0.000 N 
ATOM     17  H   UNL     1      44.735  35.432  41.424  0.00  0.00    +0.000 HD
ATOM     18  H   UNL     1      47.147  33.173  45.005  0.00  0.00    +0.000 HD
ATOM     19  H   UNL     1      43.740  36.386  44.755  0.00  0.00    +0.000 HD
ATOM     20  H   UNL     1      43.014  35.908  43.170  0.00  0.00    +0.000 HD
ENDBRANCH   2  12
BRANCH   6  21
ATOM     21  C   UNL     1      49.670  35.289  38.450  0.00  0.00    +0.000 A 
ATOM     22  C   UNL     1      49.686  36.661  38.601  0.00  0.00    +0.000 A 
ATOM     23  H   UNL     1      48.858  37.251  38.962  0.00  0.00    +0.000 HD
ATOM     24  C   UNL     1      50.858  37.340  38.265  0.00  0.00    +0.000 A 
ATOM     25  C   UNL     1      51.911  36.595  37.807  0.00  0.00    +0.000 A 
ATOM     26  C   UNL     1      51.927  35.230  37.646  0.00  0.00    +0.000 A 
ATOM     27  C   UNL     1      53.017  34.525  37.180  0.00  0.00    +0.000 A 
ATOM     28  C   UNL     1      52.963  33.147  37.041  0.00  0.00    +0.000 A 
ATOM     29  C   UNL     1      51.766  32.560  37.398  0.00  0.00    +0.000 A 
ATOM     30  C   UNL     1      50.635  33.194  37.870  0.00  0.00    +0.000 A 
ATOM     31  C   UNL     1      50.749  34.565  37.986  0.00  0.00    +0.000 A 
ENDBRANCH   6  21
BRANCH   1  33
ATOM     32  N   UNL     1      49.323  36.076  41.811  0.00  0.00    +0.000 NA
ATOM     33  C   UNL     1      48.704  35.439  41.042  0.00  0.00    +0.000 C 
ENDBRANCH   1  33
TORSDOF 3
