REMARK  Name = 
REMARK  3 active torsions:
REMARK  status: ('A' for Active; 'I' for Inactive)
REMARK    1  A    between atoms: C_1  and  C_18
REMARK    2  A    between atoms: C_3  and  C_4
REMARK    3  A    between atoms: C_16  and  C_33
REMARK                            x       y       z     vdW  Elec       q    Type
REMARK                         _______ _______ _______ _____ _____    ______ ____
ROOT
ATOM      1  C   UNL     1      46.392  32.665  45.870  0.00  0.00    +0.000 C 
ATOM      2  C   UNL     1      46.977  32.832  47.207  0.00  0.00    +0.000 C 
ATOM      3  C   UNL     1      45.549  32.204  46.955  0.00  0.00    +0.000 C 
ATOM      4  H   UNL     1      47.150  32.023  45.292  0.00  0.00    +0.000 HD
ATOM      5  H   UNL     1      46.991  33.825  47.658  0.00  0.00    +0.000 HD
ATOM      6  H   UNL     1      47.647  32.109  47.696  0.00  0.00    +0.000 HD
ATOM      7  H   UNL     1      44.878  32.884  47.568  0.00  0.00    +0.000 HD
ENDROOT
BRANCH   3   8
ATOM      8  C   UNL     1      45.301  30.803  47.298  0.00  0.00    +0.000 A 
ATOM      9  C   UNL     1      45.170  30.267  48.544  0.00  0.00    +0.000 A 
ATOM     10  C   UNL     1      45.062  28.915  48.841  0.00  0.00    +0.000 A 
ATOM     11  C   UNL     1      45.095  28.032  47.742  0.00  0.00    +0.000 A 
ATOM     12  C   UNL     1      45.225  28.561  46.468  0.00  0.00    +0.000 A 
ATOM     13  C   UNL     1      45.194  27.661  45.422  0.00  0.00    +0.000 A 
ATOM     14  C   UNL     1      45.256  28.135  44.108  0.00  0.00    +0.000 A 
ATOM     15  C   UNL     1      45.343  29.488  43.859  0.00  0.00    +0.000 A 
ATOM     16  C   UNL     1      45.372  30.338  44.939  0.00  0.00    +0.000 A 
ATOM     17  C   UNL     1      45.323  29.912  46.254  0.00  0.00    +0.000 A 
ATOM     18  H   UNL     1      45.152  31.002  49.356  0.00  0.00    +0.000 HD
ATOM     19  H   UNL     1      44.960  28.581  49.865  0.00  0.00    +0.000 HD
ATOM     20  H   UNL     1      45.014  26.977  47.970  0.00  0.00    +0.000 HD
ATOM     21  H   UNL     1      45.123  26.597  45.635  0.00  0.00    +0.000 HD
ATOM     22  H   UNL     1      45.226  27.328  43.360  0.00  0.00    +0.000 HD
ATOM     23  H   UNL     1      45.376  29.657  42.807  0.00  0.00    +0.000 HD
ATOM     24  H   UNL     1      45.354  31.296  44.502  0.00  0.00    +0.000 HD
ENDBRANCH   3   8
BRANCH   1  29
ATOM     25  C   UNL     1      44.621  35.731  44.829  0.00  0.00    +0.000 A 
ATOM     26  C   UNL     1      45.144  35.963  43.518  0.00  0.00    +0.000 A 
ATOM     27  C   UNL     1      46.105  35.057  43.032  0.00  0.00    +0.000 A 
ATOM     28  N   UNL     1      46.470  34.043  43.820  0.00  0.00    +0.000 NA
ATOM     29  C   UNL     1      45.961  33.842  45.062  0.00  0.00    +0.000 A 
ATOM     30  N   UNL     1      45.053  34.676  45.549  0.00  0.00    +0.000 NA
ATOM     31  H   UNL     1      43.884  36.441  45.175  0.00  0.00    +0.000 HD
ATOM     32  H   UNL     1      44.814  36.829  42.996  0.00  0.00    +0.000 HD
BRANCH  27  33
ATOM     33  C   UNL     1      46.816  35.136  41.780  0.00  0.00    +0.000 A 
ATOM     34  C   UNL     1      46.525  34.154  40.824  0.00  0.00    +0.000 A 
ATOM     35  H   UNL     1      45.788  33.372  41.066  0.00  0.00    +0.000 HD
ATOM     36  C   UNL     1      47.090  34.071  39.573  0.00  0.00    +0.000 A 
ATOM     37  C   UNL     1      48.018  35.018  39.207  0.00  0.00    +0.000 A 
ATOM     38  C   UNL     1      48.354  36.017  40.092  0.00  0.00    +0.000 A 
ATOM     39  C   UNL     1      49.254  36.996  39.732  0.00  0.00    +0.000 A 
ATOM     40  C   UNL     1      49.594  38.049  40.581  0.00  0.00    +0.000 A 
ATOM     41  C   UNL     1      48.953  38.038  41.826  0.00  0.00    +0.000 A 
ATOM     42  C   UNL     1      48.060  37.048  42.159  0.00  0.00    +0.000 A 
ATOM     43  C   UNL     1      47.745  36.031  41.320  0.00  0.00    +0.000 A 
ENDBRANCH  27  33
ENDBRANCH   1  29
TORSDOF 3
