
 OpenBabel03242518293D

 23 25  0  0  0  0  0  0  0  0999 V2000
   37.1660   29.4490   40.0410 O   0  0  0  0  0  0  0  0  0  0  0  0
   37.2490   28.7850   41.2590 C   0  0  0  0  0  0  0  0  0  0  0  0
   37.4750   29.3660   42.4950 C   0  0  0  0  0  0  0  0  0  0  0  0
   37.5950   30.4460   42.4810 H   0  0  0  0  0  0  0  0  0  0  0  0
   37.5280   28.5710   43.5980 C   0  0  0  0  0  3  0  0  0  0  0  0
   37.3660   27.1940   43.5460 C   0  0  0  0  0  3  0  0  0  0  0  0
   37.1440   26.6220   42.3330 C   0  0  0  0  0  0  0  0  0  0  0  0
   36.9830   25.2510   42.2860 C   0  0  0  0  0  3  0  0  0  0  0  0
   36.7560   24.6250   41.0850 C   0  0  0  0  0  3  0  0  0  0  0  0
   36.6910   25.3790   39.9200 C   0  0  0  0  0  3  0  0  0  0  0  0
   36.8540   26.7460   39.9860 C   0  0  0  0  0  3  0  0  0  0  0  0
   37.0830   27.4020   41.1810 C   0  0  0  0  0  0  0  0  0  0  0  0
   38.2550   30.1010   39.4710 C   0  0  0  0  0  0  0  0  0  0  0  0
   39.0580   29.4040   38.7960 O   0  0  0  0  0  0  0  0  0  0  0  0
   38.3250   31.5070   39.7270 C   0  0  0  0  0  0  0  0  0  0  0  0
   37.2200   32.2010   39.2680 C   0  0  0  0  0  0  0  0  0  0  0  0
   37.2290   33.5960   39.4920 C   0  0  0  0  0  0  0  0  0  0  0  0
   38.2780   34.1610   40.1210 N   0  0  0  0  0  0  0  0  0  0  0  0
   39.3290   33.4270   40.5470 C   0  0  0  0  0  0  0  0  0  0  0  0
   39.3520   32.0960   40.3490 N   0  0  0  0  0  0  0  0  0  0  0  0
   36.3570   31.8380   38.7670 H   0  0  0  0  0  0  0  0  0  0  0  0
   36.4350   34.2430   39.1860 H   0  0  0  0  0  0  0  0  0  0  0  0
   40.1970   33.8240   41.0560 H   0  0  0  0  0  0  0  0  0  0  0  0
  1  2  1  0  0  0  0
  2  3  1  0  0  0  0
  3  5  2  0  0  0  0
  4  3  1  0  0  0  0
  6  5  1  0  0  0  0
  7  6  2  0  0  0  0
  8  7  1  0  0  0  0
  9  8  2  0  0  0  0
 10 11  2  0  0  0  0
 10  9  1  0  0  0  0
 11 12  1  0  0  0  0
 12  2  2  0  0  0  0
 12  7  1  0  0  0  0
 13 15  1  0  0  0  0
 13  1  1  0  0  0  0
 14 13  2  0  0  0  0
 15 20  1  0  0  0  0
 16 17  1  0  0  0  0
 16 15  2  0  0  0  0
 17 18  2  0  0  0  0
 18 19  1  0  0  0  0
 19 23  1  0  0  0  0
 20 19  2  0  0  0  0
 21 16  1  0  0  0  0
 22 17  1  0  0  0  0
M  END
>  <minimizedAffinity>
-5.52401257

$$$$

 OpenBabel03242518293D

 23 25  0  0  0  0  0  0  0  0999 V2000
   38.2300   28.9670   43.4180 O   0  0  0  0  0  0  0  0  0  0  0  0
   38.1000   27.6450   43.0140 C   0  0  0  0  0  0  0  0  0  0  0  0
   36.9490   27.0420   42.5360 C   0  0  0  0  0  0  0  0  0  0  0  0
   36.0780   27.6910   42.4830 H   0  0  0  0  0  0  0  0  0  0  0  0
   36.9890   25.7290   42.1800 C   0  0  0  0  0  3  0  0  0  0  0  0
   38.1370   24.9560   42.2720 C   0  0  0  0  0  3  0  0  0  0  0  0
   39.2690   25.5460   42.7410 C   0  0  0  0  0  0  0  0  0  0  0  0
   40.4090   24.7720   42.8320 C   0  0  0  0  0  3  0  0  0  0  0  0
   41.5790   25.3200   43.2990 C   0  0  0  0  0  3  0  0  0  0  0  0
   41.6050   26.6550   43.6800 C   0  0  0  0  0  3  0  0  0  0  0  0
   40.4580   27.4130   43.5830 C   0  0  0  0  0  3  0  0  0  0  0  0
   39.2670   26.8870   43.1160 C   0  0  0  0  0  0  0  0  0  0  0  0
   38.6020   29.9830   42.5440 C   0  0  0  0  0  0  0  0  0  0  0  0
   39.5840   30.6990   42.8740 O   0  0  0  0  0  0  0  0  0  0  0  0
   37.8070   30.0860   41.3590 C   0  0  0  0  0  0  0  0  0  0  0  0
   38.5320   29.8980   40.1960 C   0  0  0  0  0  0  0  0  0  0  0  0
   37.8030   29.9880   38.9900 C   0  0  0  0  0  0  0  0  0  0  0  0
   36.4810   30.2450   39.0310 N   0  0  0  0  0  0  0  0  0  0  0  0
   35.8280   30.4190   40.2010 C   0  0  0  0  0  0  0  0  0  0  0  0
   36.4940   30.3400   41.3680 N   0  0  0  0  0  0  0  0  0  0  0  0
   39.5670   29.6930   40.0740 H   0  0  0  0  0  0  0  0  0  0  0  0
   38.2470   29.8620   38.0260 H   0  0  0  0  0  0  0  0  0  0  0  0
   34.7710   30.6270   40.2960 H   0  0  0  0  0  0  0  0  0  0  0  0
  2 12  1  0  0  0  0
  2  1  1  0  0  0  0
  3  2  2  0  0  0  0
  4  3  1  0  0  0  0
  5  6  2  0  0  0  0
  5  3  1  0  0  0  0
  6  7  1  0  0  0  0
  7  8  2  0  0  0  0
  7 12  1  0  0  0  0
  8  9  1  0  0  0  0
  9 10  2  0  0  0  0
 11 10  1  0  0  0  0
 12 11  2  0  0  0  0
 13 14  2  0  0  0  0
 13  1  1  0  0  0  0
 15 20  1  0  0  0  0
 15 13  1  0  0  0  0
 16 15  2  0  0  0  0
 17 18  2  0  0  0  0
 17 16  1  0  0  0  0
 18 19  1  0  0  0  0
 19 23  1  0  0  0  0
 19 20  2  0  0  0  0
 21 16  1  0  0  0  0
 22 17  1  0  0  0  0
M  END
>  <minimizedAffinity>
-5.21111965

$$$$

 OpenBabel03242518293D

 23 25  0  0  0  0  0  0  0  0999 V2000
   38.5250   28.8920   41.0170 O   0  0  0  0  0  0  0  0  0  0  0  0
   39.0080   27.9370   41.9030 C   0  0  0  0  0  0  0  0  0  0  0  0
   39.9600   28.1400   42.8880 C   0  0  0  0  0  0  0  0  0  0  0  0
   40.3480   29.1530   42.9510 H   0  0  0  0  0  0  0  0  0  0  0  0
   40.3270   27.0940   43.6770 C   0  0  0  0  0  3  0  0  0  0  0  0
   39.7910   25.8220   43.5430 C   0  0  0  0  0  3  0  0  0  0  0  0
   38.8560   25.6200   42.5760 C   0  0  0  0  0  0  0  0  0  0  0  0
   38.3260   24.3520   42.4460 C   0  0  0  0  0  3  0  0  0  0  0  0
   37.3790   24.0960   41.4850 C   0  0  0  0  0  3  0  0  0  0  0  0
   36.9600   25.1210   40.6460 C   0  0  0  0  0  3  0  0  0  0  0  0
   37.5010   26.3810   40.7900 C   0  0  0  0  0  3  0  0  0  0  0  0
   38.4550   26.6660   41.7490 C   0  0  0  0  0  0  0  0  0  0  0  0
   37.8070   30.0060   41.4390 C   0  0  0  0  0  0  0  0  0  0  0  0
   36.7900   29.8040   42.1520 O   0  0  0  0  0  0  0  0  0  0  0  0
   38.3270   31.2650   41.0000 C   0  0  0  0  0  0  0  0  0  0  0  0
   37.3770   32.0670   40.3930 C   0  0  0  0  0  0  0  0  0  0  0  0
   37.8280   33.3250   39.9370 C   0  0  0  0  0  0  0  0  0  0  0  0
   39.1190   33.6700   40.1100 N   0  0  0  0  0  0  0  0  0  0  0  0
   40.0010   32.8420   40.7130 C   0  0  0  0  0  0  0  0  0  0  0  0
   39.6030   31.6360   41.1580 N   0  0  0  0  0  0  0  0  0  0  0  0
   36.3470   31.8750   40.2170 H   0  0  0  0  0  0  0  0  0  0  0  0
   37.1930   34.0350   39.4520 H   0  0  0  0  0  0  0  0  0  0  0  0
   41.0470   33.0630   40.8790 H   0  0  0  0  0  0  0  0  0  0  0  0
  1 13  1  0  0  0  0
  1  2  1  0  0  0  0
  2  3  1  0  0  0  0
  3  4  1  0  0  0  0
  3  5  2  0  0  0  0
  6  5  1  0  0  0  0
  7  6  2  0  0  0  0
  8  7  1  0  0  0  0
  9  8  2  0  0  0  0
 10 11  2  0  0  0  0
 10  9  1  0  0  0  0
 11 12  1  0  0  0  0
 12  2  2  0  0  0  0
 12  7  1  0  0  0  0
 13 14  2  0  0  0  0
 15 20  1  0  0  0  0
 15 13  1  0  0  0  0
 16 15  2  0  0  0  0
 17 18  2  0  0  0  0
 17 16  1  0  0  0  0
 18 19  1  0  0  0  0
 19 23  1  0  0  0  0
 19 20  2  0  0  0  0
 21 16  1  0  0  0  0
 22 17  1  0  0  0  0
M  END
>  <minimizedAffinity>
-5.16441154

$$$$

 OpenBabel03242518293D

 23 25  0  0  0  0  0  0  0  0999 V2000
   37.7350   29.2840   39.8920 O   0  0  0  0  0  0  0  0  0  0  0  0
   37.6240   28.7210   41.1570 C   0  0  0  0  0  0  0  0  0  0  0  0
   37.7710   29.3830   42.3640 C   0  0  0  0  0  0  0  0  0  0  0  0
   37.9940   30.4440   42.2840 H   0  0  0  0  0  0  0  0  0  0  0  0
   37.6310   28.6830   43.5230 C   0  0  0  0  0  3  0  0  0  0  0  0
   37.3450   27.3260   43.5560 C   0  0  0  0  0  3  0  0  0  0  0  0
   37.2010   26.6740   42.3710 C   0  0  0  0  0  0  0  0  0  0  0  0
   36.9170   25.3230   42.4090 C   0  0  0  0  0  3  0  0  0  0  0  0
   36.7610   24.6190   41.2400 C   0  0  0  0  0  3  0  0  0  0  0  0
   36.8920   25.2740   40.0230 C   0  0  0  0  0  3  0  0  0  0  0  0
   37.1760   26.6230   40.0040 C   0  0  0  0  0  3  0  0  0  0  0  0
   37.3370   27.3560   41.1650 C   0  0  0  0  0  0  0  0  0  0  0  0
   37.4420   30.6200   39.6400 C   0  0  0  0  0  0  0  0  0  0  0  0
   36.2500   30.9910   39.8010 O   0  0  0  0  0  0  0  0  0  0  0  0
   38.5540   31.4180   39.2230 C   0  0  0  0  0  0  0  0  0  0  0  0
   38.9360   32.3570   40.1640 C   0  0  0  0  0  0  0  0  0  0  0  0
   40.0300   33.1780   39.8110 C   0  0  0  0  0  0  0  0  0  0  0  0
   40.6270   33.0100   38.6150 N   0  0  0  0  0  0  0  0  0  0  0  0
   40.2080   32.0720   37.7370 C   0  0  0  0  0  0  0  0  0  0  0  0
   39.1680   31.2740   38.0430 N   0  0  0  0  0  0  0  0  0  0  0  0
   38.5240   32.5560   41.1220 H   0  0  0  0  0  0  0  0  0  0  0  0
   40.4210   33.9410   40.4500 H   0  0  0  0  0  0  0  0  0  0  0  0
   40.6460   31.8910   36.7650 H   0  0  0  0  0  0  0  0  0  0  0  0
  1  2  1  0  0  0  0
  2 12  2  0  0  0  0
  2  3  1  0  0  0  0
  3  5  2  0  0  0  0
  4  3  1  0  0  0  0
  5  6  1  0  0  0  0
  7  8  1  0  0  0  0
  7  6  2  0  0  0  0
  9  8  2  0  0  0  0
 10  9  1  0  0  0  0
 11 10  2  0  0  0  0
 11 12  1  0  0  0  0
 12  7  1  0  0  0  0
 13 14  2  0  0  0  0
 13  1  1  0  0  0  0
 15 13  1  0  0  0  0
 15 16  1  0  0  0  0
 16 21  1  0  0  0  0
 17 16  2  0  0  0  0
 17 22  1  0  0  0  0
 18 17  1  0  0  0  0
 19 20  1  0  0  0  0
 19 18  2  0  0  0  0
 20 15  2  0  0  0  0
 23 19  1  0  0  0  0
M  END
>  <minimizedAffinity>
-5.14536858

$$$$

 OpenBabel03242518293D

 23 25  0  0  0  0  0  0  0  0999 V2000
   38.6940   28.8680   43.3530 O   0  0  0  0  0  0  0  0  0  0  0  0
   39.5090   27.7490   43.2430 C   0  0  0  0  0  0  0  0  0  0  0  0
   40.8710   27.6990   43.4880 C   0  0  0  0  0  0  0  0  0  0  0  0
   41.3180   28.6410   43.7960 H   0  0  0  0  0  0  0  0  0  0  0  0
   41.5280   26.5180   43.3330 C   0  0  0  0  0  3  0  0  0  0  0  0
   40.8950   25.3490   42.9370 C   0  0  0  0  0  3  0  0  0  0  0  0
   39.5580   25.3940   42.6950 C   0  0  0  0  0  0  0  0  0  0  0  0
   38.9330   24.2280   42.3000 C   0  0  0  0  0  3  0  0  0  0  0  0
   37.5840   24.2220   42.0440 C   0  0  0  0  0  3  0  0  0  0  0  0
   36.8550   25.3960   42.1830 C   0  0  0  0  0  3  0  0  0  0  0  0
   37.4950   26.5510   42.5780 C   0  0  0  0  0  3  0  0  0  0  0  0
   38.8520   26.5850   42.8430 C   0  0  0  0  0  0  0  0  0  0  0  0
   38.8460   29.9860   42.5390 C   0  0  0  0  0  0  0  0  0  0  0  0
   39.7160   30.8310   42.8740 O   0  0  0  0  0  0  0  0  0  0  0  0
   37.9770   30.0320   41.4030 C   0  0  0  0  0  0  0  0  0  0  0  0
   38.6280   29.7930   40.2070 C   0  0  0  0  0  0  0  0  0  0  0  0
   37.8230   29.8260   39.0460 C   0  0  0  0  0  0  0  0  0  0  0  0
   36.5050   30.0800   39.1590 N   0  0  0  0  0  0  0  0  0  0  0  0
   35.9260   30.3060   40.3600 C   0  0  0  0  0  0  0  0  0  0  0  0
   36.6650   30.2820   41.4840 N   0  0  0  0  0  0  0  0  0  0  0  0
   39.6540   29.5860   40.0290 H   0  0  0  0  0  0  0  0  0  0  0  0
   38.2060   29.6570   38.0630 H   0  0  0  0  0  0  0  0  0  0  0  0
   34.8760   30.5150   40.5120 H   0  0  0  0  0  0  0  0  0  0  0  0
  2  1  1  0  0  0  0
  2  3  1  0  0  0  0
  3  4  1  0  0  0  0
  5  3  2  0  0  0  0
  6  5  1  0  0  0  0
  7 12  1  0  0  0  0
  7  6  2  0  0  0  0
  8  7  1  0  0  0  0
  9 10  1  0  0  0  0
  9  8  2  0  0  0  0
 10 11  2  0  0  0  0
 11 12  1  0  0  0  0
 12  2  2  0  0  0  0
 13 14  2  0  0  0  0
 13  1  1  0  0  0  0
 15 20  1  0  0  0  0
 15 13  1  0  0  0  0
 16 15  2  0  0  0  0
 17 18  2  0  0  0  0
 17 16  1  0  0  0  0
 18 19  1  0  0  0  0
 19 23  1  0  0  0  0
 19 20  2  0  0  0  0
 21 16  1  0  0  0  0
 22 17  1  0  0  0  0
M  END
>  <minimizedAffinity>
-5.13770628

$$$$

 OpenBabel03242518293D

 23 25  0  0  0  0  0  0  0  0999 V2000
   36.8520   28.3970   41.7270 O   0  0  0  0  0  0  0  0  0  0  0  0
   37.7760   29.4320   41.7900 C   0  0  0  0  0  0  0  0  0  0  0  0
   38.7000   29.6460   42.7990 C   0  0  0  0  0  0  0  0  0  0  0  0
   38.6770   28.9180   43.6060 H   0  0  0  0  0  0  0  0  0  0  0  0
   39.5400   30.7130   42.7110 C   0  0  0  0  0  3  0  0  0  0  0  0
   39.5160   31.6070   41.6500 C   0  0  0  0  0  3  0  0  0  0  0  0
   38.6090   31.3990   40.6580 C   0  0  0  0  0  0  0  0  0  0  0  0
   38.5890   32.2920   39.6050 C   0  0  0  0  0  3  0  0  0  0  0  0
   37.6930   32.1260   38.5780 C   0  0  0  0  0  3  0  0  0  0  0  0
   36.8070   31.0570   38.6080 C   0  0  0  0  0  3  0  0  0  0  0  0
   36.8410   30.1750   39.6670 C   0  0  0  0  0  3  0  0  0  0  0  0
   37.7330   30.3180   40.7140 C   0  0  0  0  0  0  0  0  0  0  0  0
   36.9170   27.2850   42.5610 C   0  0  0  0  0  0  0  0  0  0  0  0
   36.3450   27.3670   43.6790 O   0  0  0  0  0  0  0  0  0  0  0  0
   37.6400   26.1700   42.0310 C   0  0  0  0  0  0  0  0  0  0  0  0
   36.9350   24.9820   42.0950 C   0  0  0  0  0  0  0  0  0  0  0  0
   37.5960   23.8410   41.5870 C   0  0  0  0  0  0  0  0  0  0  0  0
   38.8390   23.9650   41.0820 N   0  0  0  0  0  0  0  0  0  0  0  0
   39.4760   25.1560   41.0460 C   0  0  0  0  0  0  0  0  0  0  0  0
   38.8740   26.2620   41.5220 N   0  0  0  0  0  0  0  0  0  0  0  0
   35.9610   24.7970   42.4740 H   0  0  0  0  0  0  0  0  0  0  0  0
   37.1590   22.8660   41.5790 H   0  0  0  0  0  0  0  0  0  0  0  0
   40.4710   25.3160   40.6540 H   0  0  0  0  0  0  0  0  0  0  0  0
  1  2  1  0  0  0  0
  1 13  1  0  0  0  0
  2  3  1  0  0  0  0
  3  4  1  0  0  0  0
  5  3  2  0  0  0  0
  6  5  1  0  0  0  0
  7 12  1  0  0  0  0
  7  6  2  0  0  0  0
  8  7  1  0  0  0  0
  9 10  1  0  0  0  0
  9  8  2  0  0  0  0
 10 11  2  0  0  0  0
 11 12  1  0  0  0  0
 12  2  2  0  0  0  0
 13 14  2  0  0  0  0
 15 16  1  0  0  0  0
 15 13  1  0  0  0  0
 16 21  1  0  0  0  0
 17 16  2  0  0  0  0
 18 17  1  0  0  0  0
 19 18  2  0  0  0  0
 19 20  1  0  0  0  0
 20 15  2  0  0  0  0
 22 17  1  0  0  0  0
 23 19  1  0  0  0  0
M  END
>  <minimizedAffinity>
-5.12000608

$$$$

 OpenBabel03242518293D

 23 25  0  0  0  0  0  0  0  0999 V2000
   37.4050   29.6610   42.4760 O   0  0  0  0  0  0  0  0  0  0  0  0
   38.4010   28.7780   42.8720 C   0  0  0  0  0  0  0  0  0  0  0  0
   38.2180   27.4760   43.3050 C   0  0  0  0  0  0  0  0  0  0  0  0
   37.1850   27.1390   43.3260 H   0  0  0  0  0  0  0  0  0  0  0  0
   39.3060   26.7390   43.6600 C   0  0  0  0  0  3  0  0  0  0  0  0
   40.6010   27.2320   43.6090 C   0  0  0  0  0  3  0  0  0  0  0  0
   40.7840   28.5100   43.1840 C   0  0  0  0  0  0  0  0  0  0  0  0
   42.0750   28.9960   43.1360 C   0  0  0  0  0  3  0  0  0  0  0  0
   42.3120   30.2810   42.7140 C   0  0  0  0  0  3  0  0  0  0  0  0
   41.2460   31.0870   42.3370 C   0  0  0  0  0  3  0  0  0  0  0  0
   39.9630   30.5850   42.3920 C   0  0  0  0  0  3  0  0  0  0  0  0
   39.6950   29.2960   42.8130 C   0  0  0  0  0  0  0  0  0  0  0  0
   36.6400   29.4590   41.3310 C   0  0  0  0  0  0  0  0  0  0  0  0
   35.7340   28.5860   41.3870 O   0  0  0  0  0  0  0  0  0  0  0  0
   36.9860   30.2840   40.2150 C   0  0  0  0  0  0  0  0  0  0  0  0
   36.8550   31.6360   40.4740 C   0  0  0  0  0  0  0  0  0  0  0  0
   37.1820   32.5060   39.4100 C   0  0  0  0  0  0  0  0  0  0  0  0
   37.5930   31.9910   38.2340 N   0  0  0  0  0  0  0  0  0  0  0  0
   37.7020   30.6570   38.0430 C   0  0  0  0  0  0  0  0  0  0  0  0
   37.3970   29.8020   39.0370 N   0  0  0  0  0  0  0  0  0  0  0  0
   36.5410   32.1240   41.3640 H   0  0  0  0  0  0  0  0  0  0  0  0
   37.1230   33.5700   39.4830 H   0  0  0  0  0  0  0  0  0  0  0  0
   38.0250   30.1870   37.1240 H   0  0  0  0  0  0  0  0  0  0  0  0
  1  2  1  0  0  0  0
  2  3  1  0  0  0  0
  3  4  1  0  0  0  0
  3  5  2  0  0  0  0
  6  5  1  0  0  0  0
  7  6  2  0  0  0  0
  8  7  1  0  0  0  0
  9  8  2  0  0  0  0
 10 11  2  0  0  0  0
 10  9  1  0  0  0  0
 11 12  1  0  0  0  0
 12  2  2  0  0  0  0
 12  7  1  0  0  0  0
 13 14  2  0  0  0  0
 13  1  1  0  0  0  0
 15 16  1  0  0  0  0
 15 13  1  0  0  0  0
 16 21  1  0  0  0  0
 17 22  1  0  0  0  0
 17 16  2  0  0  0  0
 18 17  1  0  0  0  0
 19 18  2  0  0  0  0
 19 20  1  0  0  0  0
 20 15  2  0  0  0  0
 23 19  1  0  0  0  0
M  END
>  <minimizedAffinity>
-5.1144681

$$$$

 OpenBabel03242518293D

 23 25  0  0  0  0  0  0  0  0999 V2000
   36.1040   27.8520   40.2280 O   0  0  0  0  0  0  0  0  0  0  0  0
   36.8920   27.7880   41.3700 C   0  0  0  0  0  0  0  0  0  0  0  0
   37.0500   28.7890   42.3130 C   0  0  0  0  0  0  0  0  0  0  0  0
   36.4910   29.7000   42.1160 H   0  0  0  0  0  0  0  0  0  0  0  0
   37.8640   28.5670   43.3810 C   0  0  0  0  0  3  0  0  0  0  0  0
   38.5510   27.3780   43.5740 C   0  0  0  0  0  3  0  0  0  0  0  0
   38.3970   26.3930   42.6480 C   0  0  0  0  0  0  0  0  0  0  0  0
   39.0830   25.2110   42.8440 C   0  0  0  0  0  3  0  0  0  0  0  0
   38.9610   24.1860   41.9380 C   0  0  0  0  0  3  0  0  0  0  0  0
   38.1460   24.3480   40.8250 C   0  0  0  0  0  3  0  0  0  0  0  0
   37.4690   25.5350   40.6460 C   0  0  0  0  0  3  0  0  0  0  0  0
   37.5730   26.5830   41.5420 C   0  0  0  0  0  0  0  0  0  0  0  0
   35.4810   29.0250   39.8140 C   0  0  0  0  0  0  0  0  0  0  0  0
   34.3230   29.2500   40.2510 O   0  0  0  0  0  0  0  0  0  0  0  0
   36.2530   29.8420   38.9280 C   0  0  0  0  0  0  0  0  0  0  0  0
   36.6090   31.0590   39.4780 C   0  0  0  0  0  0  0  0  0  0  0  0
   37.3730   31.9140   38.6520 C   0  0  0  0  0  0  0  0  0  0  0  0
   37.7050   31.5120   37.4090 N   0  0  0  0  0  0  0  0  0  0  0  0
   37.3270   30.3070   36.9280 C   0  0  0  0  0  0  0  0  0  0  0  0
   36.5980   29.4700   37.6900 N   0  0  0  0  0  0  0  0  0  0  0  0
   36.3920   31.4530   40.4410 H   0  0  0  0  0  0  0  0  0  0  0  0
   37.7100   32.8800   38.9600 H   0  0  0  0  0  0  0  0  0  0  0  0
   37.5620   29.9310   35.9410 H   0  0  0  0  0  0  0  0  0  0  0  0
  1  2  1  0  0  0  0
  2 12  2  0  0  0  0
  2  3  1  0  0  0  0
  3  5  2  0  0  0  0
  4  3  1  0  0  0  0
  5  6  1  0  0  0  0
  7  8  1  0  0  0  0
  7  6  2  0  0  0  0
  9  8  2  0  0  0  0
 10  9  1  0  0  0  0
 11 10  2  0  0  0  0
 11 12  1  0  0  0  0
 12  7  1  0  0  0  0
 13  1  1  0  0  0  0
 13 14  2  0  0  0  0
 15 16  1  0  0  0  0
 15 13  1  0  0  0  0
 16 21  1  0  0  0  0
 17 22  1  0  0  0  0
 17 16  2  0  0  0  0
 18 17  1  0  0  0  0
 19 18  2  0  0  0  0
 19 20  1  0  0  0  0
 20 15  2  0  0  0  0
 23 19  1  0  0  0  0
M  END
>  <minimizedAffinity>
-5.11007214

$$$$

 OpenBabel03242518293D

 23 25  0  0  0  0  0  0  0  0999 V2000
   38.7680   28.8770   41.5160 O   0  0  0  0  0  0  0  0  0  0  0  0
   37.9830   29.3480   40.4710 C   0  0  0  0  0  0  0  0  0  0  0  0
   37.2110   28.5810   39.6150 C   0  0  0  0  0  0  0  0  0  0  0  0
   37.2400   27.5110   39.8030 H   0  0  0  0  0  0  0  0  0  0  0  0
   36.4960   29.2000   38.6370 C   0  0  0  0  0  3  0  0  0  0  0  0
   36.5020   30.5740   38.4510 C   0  0  0  0  0  3  0  0  0  0  0  0
   37.2600   31.3300   39.2900 C   0  0  0  0  0  0  0  0  0  0  0  0
   37.2630   32.6980   39.1010 C   0  0  0  0  0  3  0  0  0  0  0  0
   38.0120   33.5050   39.9220 C   0  0  0  0  0  3  0  0  0  0  0  0
   38.7650   32.9360   40.9400 C   0  0  0  0  0  3  0  0  0  0  0  0
   38.7500   31.5680   41.1150 C   0  0  0  0  0  3  0  0  0  0  0  0
   38.0050   30.7330   40.3030 C   0  0  0  0  0  0  0  0  0  0  0  0
   38.2330   28.1910   42.6020 C   0  0  0  0  0  0  0  0  0  0  0  0
   37.4370   28.8190   43.3470 O   0  0  0  0  0  0  0  0  0  0  0  0
   38.6640   26.8330   42.7350 C   0  0  0  0  0  0  0  0  0  0  0  0
   39.8010   26.6950   43.5100 C   0  0  0  0  0  0  0  0  0  0  0  0
   40.2790   25.3760   43.6800 C   0  0  0  0  0  0  0  0  0  0  0  0
   39.6230   24.3530   43.0980 N   0  0  0  0  0  0  0  0  0  0  0  0
   38.5140   24.5530   42.3510 C   0  0  0  0  0  0  0  0  0  0  0  0
   38.0340   25.7970   42.1700 N   0  0  0  0  0  0  0  0  0  0  0  0
   40.3760   27.4410   44.0010 H   0  0  0  0  0  0  0  0  0  0  0  0
   41.1470   25.1370   44.2550 H   0  0  0  0  0  0  0  0  0  0  0  0
   37.9470   23.7730   41.8610 H   0  0  0  0  0  0  0  0  0  0  0  0
  1 13  1  0  0  0  0
  2  1  1  0  0  0  0
  3  4  1  0  0  0  0
  3  2  2  0  0  0  0
  5  3  1  0  0  0  0
  6  5  2  0  0  0  0
  6  7  1  0  0  0  0
  7 12  1  0  0  0  0
  8  7  2  0  0  0  0
  8  9  1  0  0  0  0
  9 10  2  0  0  0  0
 10 11  1  0  0  0  0
 12  2  1  0  0  0  0
 12 11  2  0  0  0  0
 13 15  1  0  0  0  0
 13 14  2  0  0  0  0
 15 16  1  0  0  0  0
 16 17  2  0  0  0  0
 16 21  1  0  0  0  0
 17 22  1  0  0  0  0
 18 17  1  0  0  0  0
 19 18  2  0  0  0  0
 20 19  1  0  0  0  0
 20 15  2  0  0  0  0
 23 19  1  0  0  0  0
M  END
>  <minimizedAffinity>
-5.1032939

$$$$
