
 OpenBabel03252507343D

 51 55  0  0  1  0  0  0  0  0999 V2000
   40.6050   33.0030   40.4660 C   0  0  0  0  0  0  0  0  0  0  0  0
   40.0760   34.2710   40.2560 C   0  0  0  0  0  0  0  0  0  0  0  0
   38.6730   34.4450   40.2260 C   0  0  0  0  0  0  0  0  0  0  0  0
   37.9050   33.2960   40.4100 N   0  0  0  0  0  0  0  0  0  0  0  0
   38.4770   32.1100   40.6040 C   0  0  0  0  0  0  0  0  0  0  0  0
   39.8020   31.9530   40.6350 N   0  0  0  0  0  0  0  0  0  0  0  0
   40.4600   35.2460   40.0630 H   0  0  0  0  0  0  0  0  0  0  0  0
   38.0950   35.3200   40.0840 H   0  0  0  0  0  0  0  0  0  0  0  0
   42.0470   32.8800   40.5130 C   0  0  2  0  0  0  0  0  0  0  0  0
   42.7460   34.1620   39.9710 C   0  0  0  0  0  0  0  0  0  0  0  0
   44.2170   34.0540   40.1750 C   0  0  0  0  0  0  0  0  0  0  0  0
   44.8340   32.7360   39.8470 C   0  0  0  0  0  0  0  0  0  0  0  0
   44.0180   31.5920   40.1740 C   0  0  0  0  0  0  0  0  0  0  0  0
   42.5380   31.7420   39.7610 C   0  0  2  0  0  0  0  0  0  0  0  0
   42.3800   32.8700   41.5780 H   0  0  0  0  0  0  0  0  0  0  0  0
   42.4660   34.3770   38.9440 H   0  0  0  0  0  0  0  0  0  0  0  0
   42.3280   34.9790   40.5930 H   0  0  0  0  0  0  0  0  0  0  0  0
   44.6780   34.7960   39.4570 H   0  0  0  0  0  0  0  0  0  0  0  0
   44.4380   34.4780   41.1710 H   0  0  0  0  0  0  0  0  0  0  0  0
   45.6160   32.7090   39.0880 H   0  0  0  0  0  0  0  0  0  0  0  0
   45.5990   32.6720   40.7220 H   0  0  0  0  0  0  0  0  0  0  0  0
   43.9610   31.2490   41.2320 H   0  0  0  0  0  0  0  0  0  0  0  0
   44.3740   30.7020   39.5910 H   0  0  0  0  0  0  0  0  0  0  0  0
   42.1490   30.7530   40.0080 H   0  0  0  0  0  0  0  0  0  0  0  0
   42.4820   32.0280   38.3250 N   0  0  0  0  0  0  0  0  0  0  0  0
   41.5670   31.6360   37.3320 C   0  0  0  0  0  0  0  0  0  0  0  0
   40.4100   32.1740   37.1960 O   0  0  0  0  0  0  0  0  0  0  0  0
   42.0290   30.5930   36.4750 N   0  0  0  0  0  0  0  0  0  0  0  0
   43.2680   32.5840   37.8150 H   0  0  0  0  0  0  0  0  0  0  0  0
   42.9140   30.5350   35.9210 H   0  0  0  0  0  0  0  0  0  0  0  0
   41.4790   29.7040   36.3010 H   0  0  0  0  0  0  0  0  0  0  0  0
   37.6070   30.9400   40.7660 C   0  0  0  0  0  0  0  0  0  0  0  0
   36.2990   30.9570   40.4130 C   0  0  0  0  0  0  0  0  0  0  0  0
   35.4440   29.8820   40.5490 C   0  0  0  0  0  0  0  0  0  0  0  0
   36.0040   28.7500   41.0790 C   0  0  0  0  0  0  0  0  0  0  0  0
   37.3270   28.6920   41.4470 C   0  0  0  0  0  0  0  0  0  0  0  0
   38.0980   29.8040   41.2790 N   0  0  0  0  0  0  0  0  0  0  0  0
   35.9210   31.8800   40.0020 H   0  0  0  0  0  0  0  0  0  0  0  0
   34.4160   29.9280   40.2600 H   0  0  0  0  0  0  0  0  0  0  0  0
   35.3250   27.9340   41.2300 H   0  0  0  0  0  0  0  0  0  0  0  0
   38.0540   27.6120   42.0780 C   0  0  0  0  0  0  0  0  0  0  0  0
   38.9840   27.9200   43.0820 C   0  0  0  0  0  0  0  0  0  0  0  0
   39.1260   28.9710   43.3710 H   0  0  0  0  0  0  0  0  0  0  0  0
   39.7590   27.0070   43.7600 C   0  0  0  0  0  3  0  0  0  0  0  0
   39.6360   25.6730   43.4500 C   0  0  0  0  0  3  0  0  0  0  0  0
   38.7440   25.2960   42.4730 C   0  0  0  0  0  0  0  0  0  0  0  0
   38.6390   23.9650   42.1280 C   0  0  0  0  0  3  0  0  0  0  0  0
   37.7950   23.5260   41.1280 C   0  0  0  0  0  3  0  0  0  0  0  0
   37.0460   24.5150   40.4790 C   0  0  0  0  0  3  0  0  0  0  0  0
   37.1800   25.8290   40.8550 C   0  0  0  0  0  3  0  0  0  0  0  0
   38.0100   26.2650   41.8430 C   0  0  0  0  0  0  0  0  0  0  0  0
  1  9  1  0  0  0  0
  1  6  1  0  0  0  0
  2  1  2  0  0  0  0
  3  2  1  0  0  0  0
  3  4  2  0  0  0  0
  4  5  1  0  0  0  0
  5  6  2  0  0  0  0
  5 32  1  0  0  0  0
  7  2  1  0  0  0  0
  8  3  1  0  0  0  0
  9 15  1  1  0  0  0
 10 11  1  0  0  0  0
 10  9  1  0  0  0  0
 10 17  1  0  0  0  0
 11 19  1  0  0  0  0
 12 13  1  0  0  0  0
 12 11  1  0  0  0  0
 12 21  1  0  0  0  0
 13 22  1  0  0  0  0
 14 24  1  1  0  0  0
 14 13  1  0  0  0  0
 14  9  1  0  0  0  0
 16 10  1  0  0  0  0
 18 11  1  0  0  0  0
 20 12  1  0  0  0  0
 23 13  1  0  0  0  0
 25 14  1  0  0  0  0
 26 25  1  0  0  0  0
 27 26  2  0  0  0  0
 28 26  1  0  0  0  0
 29 25  1  0  0  0  0
 30 28  1  0  0  0  0
 31 28  1  0  0  0  0
 32 37  1  0  0  0  0
 33 34  1  0  0  0  0
 33 32  2  0  0  0  0
 34 35  2  0  0  0  0
 35 40  1  0  0  0  0
 35 36  1  0  0  0  0
 36 41  1  0  0  0  0
 37 36  2  0  0  0  0
 38 33  1  0  0  0  0
 39 34  1  0  0  0  0
 41 42  1  0  0  0  0
 42 43  1  0  0  0  0
 42 44  2  0  0  0  0
 45 44  1  0  0  0  0
 46 45  2  0  0  0  0
 47 46  1  0  0  0  0
 48 47  2  0  0  0  0
 49 50  2  0  0  0  0
 49 48  1  0  0  0  0
 50 51  1  0  0  0  0
 51 41  2  0  0  0  0
 51 46  1  0  0  0  0
M  END
>  <minimizedAffinity>
-7.81020117

$$$$

 OpenBabel03252507343D

 51 55  0  0  1  0  0  0  0  0999 V2000
   36.7360   26.7970   40.0990 C   0  0  0  0  0  0  0  0  0  0  0  0
   36.6390   25.4110   40.1300 C   0  0  0  0  0  0  0  0  0  0  0  0
   35.9860   24.7340   39.0740 C   0  0  0  0  0  0  0  0  0  0  0  0
   35.4690   25.5330   38.0550 N   0  0  0  0  0  0  0  0  0  0  0  0
   35.5940   26.8580   38.0900 C   0  0  0  0  0  0  0  0  0  0  0  0
   36.2150   27.4900   39.0880 N   0  0  0  0  0  0  0  0  0  0  0  0
   36.9180   24.6320   40.8010 H   0  0  0  0  0  0  0  0  0  0  0  0
   35.8200   23.7000   38.9240 H   0  0  0  0  0  0  0  0  0  0  0  0
   37.4350   27.4430   41.1910 C   0  0  2  0  0  0  0  0  0  0  0  0
   36.5260   27.5830   42.4470 C   0  0  0  0  0  0  0  0  0  0  0  0
   37.3240   28.1110   43.5860 C   0  0  0  0  0  0  0  0  0  0  0  0
   38.2540   29.2350   43.2750 C   0  0  0  0  0  0  0  0  0  0  0  0
   38.8900   29.1500   41.9830 C   0  0  0  0  0  0  0  0  0  0  0  0
   37.9300   28.7600   40.8390 C   0  0  2  0  0  0  0  0  0  0  0  0
   38.2390   26.7650   41.5630 H   0  0  0  0  0  0  0  0  0  0  0  0
   35.6290   28.1610   42.2410 H   0  0  0  0  0  0  0  0  0  0  0  0
   36.1940   26.5450   42.6560 H   0  0  0  0  0  0  0  0  0  0  0  0
   36.5690   28.5300   44.3170 H   0  0  0  0  0  0  0  0  0  0  0  0
   37.7490   27.2400   44.1170 H   0  0  0  0  0  0  0  0  0  0  0  0
   38.1200   30.1770   43.8080 H   0  0  0  0  0  0  0  0  0  0  0  0
   39.1530   28.9170   43.9440 H   0  0  0  0  0  0  0  0  0  0  0  0
   39.7530   28.4600   41.8470 H   0  0  0  0  0  0  0  0  0  0  0  0
   39.2690   30.1630   41.6870 H   0  0  0  0  0  0  0  0  0  0  0  0
   38.5860   28.8500   39.9730 H   0  0  0  0  0  0  0  0  0  0  0  0
   36.8240   29.7200   40.8120 N   0  0  0  0  0  0  0  0  0  0  0  0
   36.5980   30.8590   40.0200 C   0  0  0  0  0  0  0  0  0  0  0  0
   36.1990   30.7970   38.8020 O   0  0  0  0  0  0  0  0  0  0  0  0
   36.8410   32.1010   40.6800 N   0  0  0  0  0  0  0  0  0  0  0  0
   36.0040   29.6780   41.5270 H   0  0  0  0  0  0  0  0  0  0  0  0
   36.4640   32.4510   41.5900 H   0  0  0  0  0  0  0  0  0  0  0  0
   37.4780   32.8510   40.2830 H   0  0  0  0  0  0  0  0  0  0  0  0
   35.0040   27.6380   36.9960 C   0  0  0  0  0  0  0  0  0  0  0  0
   35.5640   27.6910   35.7630 C   0  0  0  0  0  0  0  0  0  0  0  0
   35.0460   28.4120   34.7060 C   0  0  0  0  0  0  0  0  0  0  0  0
   33.8910   29.0990   34.9740 C   0  0  0  0  0  0  0  0  0  0  0  0
   33.2920   29.0680   36.2100 C   0  0  0  0  0  0  0  0  0  0  0  0
   33.8750   28.3300   37.1970 N   0  0  0  0  0  0  0  0  0  0  0  0
   36.4720   27.1270   35.6190 H   0  0  0  0  0  0  0  0  0  0  0  0
   35.5120   28.4330   33.7450 H   0  0  0  0  0  0  0  0  0  0  0  0
   33.5200   29.6970   34.1650 H   0  0  0  0  0  0  0  0  0  0  0  0
   32.1220   29.7800   36.6770 C   0  0  0  0  0  0  0  0  0  0  0  0
   31.6630   29.5410   37.9810 C   0  0  0  0  0  0  0  0  0  0  0  0
   32.2100   28.8310   38.6170 H   0  0  0  0  0  0  0  0  0  0  0  0
   30.5610   30.1290   38.5590 C   0  0  0  0  0  3  0  0  0  0  0  0
   29.8260   31.0280   37.8220 C   0  0  0  0  0  3  0  0  0  0  0  0
   30.2160   31.3100   36.5330 C   0  0  0  0  0  0  0  0  0  0  0  0
   29.4650   32.1810   35.7730 C   0  0  0  0  0  3  0  0  0  0  0  0
   29.7780   32.4740   34.4610 C   0  0  0  0  0  3  0  0  0  0  0  0
   30.9080   31.8310   33.9420 C   0  0  0  0  0  3  0  0  0  0  0  0
   31.6280   30.9710   34.7340 C   0  0  0  0  0  3  0  0  0  0  0  0
   31.3240   30.6830   36.0300 C   0  0  0  0  0  0  0  0  0  0  0  0
  1  2  1  0  0  0  0
  1  9  1  0  0  0  0
  2  7  1  0  0  0  0
  3  2  2  0  0  0  0
  4  5  2  0  0  0  0
  4  3  1  0  0  0  0
  5  6  1  0  0  0  0
  6  1  2  0  0  0  0
  8  3  1  0  0  0  0
  9 15  1  1  0  0  0
  9 10  1  0  0  0  0
 10 17  1  0  0  0  0
 10 11  1  0  0  0  0
 11 19  1  0  0  0  0
 11 18  1  0  0  0  0
 12 11  1  0  0  0  0
 12 20  1  0  0  0  0
 12 21  1  0  0  0  0
 13 12  1  0  0  0  0
 14 24  1  6  0  0  0
 14  9  1  0  0  0  0
 14 13  1  0  0  0  0
 16 10  1  0  0  0  0
 22 13  1  0  0  0  0
 23 13  1  0  0  0  0
 25 14  1  0  0  0  0
 25 29  1  0  0  0  0
 26 28  1  0  0  0  0
 26 25  1  0  0  0  0
 27 26  2  0  0  0  0
 28 30  1  0  0  0  0
 31 28  1  0  0  0  0
 32 37  1  0  0  0  0
 32  5  1  0  0  0  0
 33 32  2  0  0  0  0
 34 35  2  0  0  0  0
 34 33  1  0  0  0  0
 35 36  1  0  0  0  0
 36 41  1  0  0  0  0
 36 37  2  0  0  0  0
 38 33  1  0  0  0  0
 39 34  1  0  0  0  0
 40 35  1  0  0  0  0
 41 42  1  0  0  0  0
 42 44  2  0  0  0  0
 42 43  1  0  0  0  0
 45 44  1  0  0  0  0
 46 45  2  0  0  0  0
 47 46  1  0  0  0  0
 48 47  2  0  0  0  0
 49 48  1  0  0  0  0
 49 50  2  0  0  0  0
 50 51  1  0  0  0  0
 51 46  1  0  0  0  0
 51 41  2  0  0  0  0
M  END
>  <minimizedAffinity>
-7.68625069

$$$$

 OpenBabel03252507343D

 51 55  0  0  1  0  0  0  0  0999 V2000
   37.4760   28.7770   39.9700 C   0  0  0  0  0  0  0  0  0  0  0  0
   38.4210   29.5360   39.2880 C   0  0  0  0  0  0  0  0  0  0  0  0
   38.2020   29.8680   37.9320 C   0  0  0  0  0  0  0  0  0  0  0  0
   37.0210   29.3900   37.3630 N   0  0  0  0  0  0  0  0  0  0  0  0
   36.1600   28.6660   38.0720 C   0  0  0  0  0  0  0  0  0  0  0  0
   36.3720   28.3590   39.3550 N   0  0  0  0  0  0  0  0  0  0  0  0
   39.3740   29.9590   39.5060 H   0  0  0  0  0  0  0  0  0  0  0  0
   38.7960   30.4300   37.2610 H   0  0  0  0  0  0  0  0  0  0  0  0
   37.7340   28.4840   41.3650 C   0  0  2  0  0  0  0  0  0  0  0  0
   39.2530   28.2630   41.6290 C   0  0  0  0  0  0  0  0  0  0  0  0
   39.4900   28.1140   43.0910 C   0  0  0  0  0  0  0  0  0  0  0  0
   38.5250   27.2510   43.8310 C   0  0  0  0  0  0  0  0  0  0  0  0
   37.1600   27.3420   43.3710 C   0  0  0  0  0  0  0  0  0  0  0  0
   37.0170   27.3150   41.8340 C   0  0  2  0  0  0  0  0  0  0  0  0
   37.5250   29.3940   41.9750 H   0  0  0  0  0  0  0  0  0  0  0  0
   39.6560   27.4450   41.0390 H   0  0  0  0  0  0  0  0  0  0  0  0
   39.7290   29.1920   41.2530 H   0  0  0  0  0  0  0  0  0  0  0  0
   40.4940   27.6030   43.1850 H   0  0  0  0  0  0  0  0  0  0  0  0
   39.6710   29.1270   43.4950 H   0  0  0  0  0  0  0  0  0  0  0  0
   38.9140   26.3820   44.3620 H   0  0  0  0  0  0  0  0  0  0  0  0
   38.4320   27.8790   44.8070 H   0  0  0  0  0  0  0  0  0  0  0  0
   36.5410   28.2160   43.6760 H   0  0  0  0  0  0  0  0  0  0  0  0
   36.5910   26.4390   43.7140 H   0  0  0  0  0  0  0  0  0  0  0  0
   35.9320   27.2960   41.7240 H   0  0  0  0  0  0  0  0  0  0  0  0
   37.6560   26.0970   41.3280 N   0  0  0  0  0  0  0  0  0  0  0  0
   37.2620   24.7490   41.3760 C   0  0  0  0  0  0  0  0  0  0  0  0
   36.3620   24.2560   40.6050 O   0  0  0  0  0  0  0  0  0  0  0  0
   37.9480   23.9610   42.3480 N   0  0  0  0  0  0  0  0  0  0  0  0
   38.6440   26.1110   40.8690 H   0  0  0  0  0  0  0  0  0  0  0  0
   38.9770   23.8420   42.4960 H   0  0  0  0  0  0  0  0  0  0  0  0
   37.4460   23.3750   43.0740 H   0  0  0  0  0  0  0  0  0  0  0  0
   34.9500   28.1760   37.4030 C   0  0  0  0  0  0  0  0  0  0  0  0
   34.7450   26.8590   37.1540 C   0  0  0  0  0  0  0  0  0  0  0  0
   33.6250   26.3530   36.5270 C   0  0  0  0  0  0  0  0  0  0  0  0
   32.6920   27.2840   36.1520 C   0  0  0  0  0  0  0  0  0  0  0  0
   32.8620   28.6270   36.3880 C   0  0  0  0  0  0  0  0  0  0  0  0
   34.0020   29.0380   37.0130 N   0  0  0  0  0  0  0  0  0  0  0  0
   35.5190   26.1800   37.4760 H   0  0  0  0  0  0  0  0  0  0  0  0
   33.4920   25.3090   36.3460 H   0  0  0  0  0  0  0  0  0  0  0  0
   31.8470   26.8920   35.6200 H   0  0  0  0  0  0  0  0  0  0  0  0
   32.0190   29.7370   36.0010 C   0  0  0  0  0  0  0  0  0  0  0  0
   32.2290   30.3410   34.7520 C   0  0  0  0  0  0  0  0  0  0  0  0
   33.0170   29.9460   34.0960 H   0  0  0  0  0  0  0  0  0  0  0  0
   31.5210   31.4100   34.2530 C   0  0  0  0  0  3  0  0  0  0  0  0
   30.5190   31.9580   35.0200 C   0  0  0  0  0  3  0  0  0  0  0  0
   30.2580   31.4200   36.2590 C   0  0  0  0  0  0  0  0  0  0  0  0
   29.2820   31.9840   37.0520 C   0  0  0  0  0  3  0  0  0  0  0  0
   29.0000   31.5180   38.3200 C   0  0  0  0  0  3  0  0  0  0  0  0
   29.7670   30.4330   38.7600 C   0  0  0  0  0  3  0  0  0  0  0  0
   30.7300   29.9000   37.9370 C   0  0  0  0  0  3  0  0  0  0  0  0
   31.0080   30.3550   36.6840 C   0  0  0  0  0  0  0  0  0  0  0  0
  1  9  1  0  0  0  0
  2  7  1  0  0  0  0
  2  1  2  0  0  0  0
  3  2  1  0  0  0  0
  4  3  2  0  0  0  0
  4  5  1  0  0  0  0
  5  6  2  0  0  0  0
  6  1  1  0  0  0  0
  8  3  1  0  0  0  0
  9 10  1  0  0  0  0
  9 14  1  0  0  0  0
  9 15  1  1  0  0  0
 10 11  1  0  0  0  0
 11 18  1  0  0  0  0
 11 19  1  0  0  0  0
 11 12  1  0  0  0  0
 12 20  1  0  0  0  0
 12 21  1  0  0  0  0
 13 22  1  0  0  0  0
 13 23  1  0  0  0  0
 13 12  1  0  0  0  0
 14 24  1  6  0  0  0
 14 13  1  0  0  0  0
 16 10  1  0  0  0  0
 17 10  1  0  0  0  0
 25 26  1  0  0  0  0
 25 14  1  0  0  0  0
 26 28  1  0  0  0  0
 27 26  2  0  0  0  0
 28 30  1  0  0  0  0
 28 31  1  0  0  0  0
 29 25  1  0  0  0  0
 32  5  1  0  0  0  0
 33 32  1  0  0  0  0
 33 38  1  0  0  0  0
 34 33  2  0  0  0  0
 35 36  2  0  0  0  0
 35 34  1  0  0  0  0
 36 37  1  0  0  0  0
 37 32  2  0  0  0  0
 39 34  1  0  0  0  0
 40 35  1  0  0  0  0
 41 36  1  0  0  0  0
 41 51  1  0  0  0  0
 42 41  2  0  0  0  0
 43 42  1  0  0  0  0
 44 42  1  0  0  0  0
 44 45  2  0  0  0  0
 45 46  1  0  0  0  0
 46 51  2  0  0  0  0
 46 47  1  0  0  0  0
 47 48  2  0  0  0  0
 48 49  1  0  0  0  0
 50 49  2  0  0  0  0
 51 50  1  0  0  0  0
M  END
>  <minimizedAffinity>
-7.59747171

$$$$

 OpenBabel03252507343D

 51 55  0  0  1  0  0  0  0  0999 V2000
   37.4030   28.8240   39.9780 C   0  0  0  0  0  0  0  0  0  0  0  0
   38.3810   29.5220   39.2780 C   0  0  0  0  0  0  0  0  0  0  0  0
   38.1650   29.8520   37.9200 C   0  0  0  0  0  0  0  0  0  0  0  0
   36.9520   29.4380   37.3700 N   0  0  0  0  0  0  0  0  0  0  0  0
   36.0590   28.7700   38.0970 C   0  0  0  0  0  0  0  0  0  0  0  0
   36.2690   28.4640   39.3790 N   0  0  0  0  0  0  0  0  0  0  0  0
   39.3590   29.8910   39.4800 H   0  0  0  0  0  0  0  0  0  0  0  0
   38.7810   30.3730   37.2370 H   0  0  0  0  0  0  0  0  0  0  0  0
   37.6600   28.5300   41.3720 C   0  0  2  0  0  0  0  0  0  0  0  0
   39.1830   28.3490   41.6440 C   0  0  0  0  0  0  0  0  0  0  0  0
   39.4150   28.1980   43.1070 C   0  0  0  0  0  0  0  0  0  0  0  0
   38.4700   27.3040   43.8360 C   0  0  0  0  0  0  0  0  0  0  0  0
   37.1060   27.3600   43.3680 C   0  0  0  0  0  0  0  0  0  0  0  0
   36.9720   27.3380   41.8300 C   0  0  2  0  0  0  0  0  0  0  0  0
   37.4220   29.4300   41.9870 H   0  0  0  0  0  0  0  0  0  0  0  0
   39.6120   27.5470   41.0520 H   0  0  0  0  0  0  0  0  0  0  0  0
   39.6350   29.2930   41.2770 H   0  0  0  0  0  0  0  0  0  0  0  0
   40.4330   27.7140   43.2040 H   0  0  0  0  0  0  0  0  0  0  0  0
   39.5650   29.2130   43.5190 H   0  0  0  0  0  0  0  0  0  0  0  0
   38.8800   26.4430   44.3640 H   0  0  0  0  0  0  0  0  0  0  0  0
   38.3530   27.9230   44.8150 H   0  0  0  0  0  0  0  0  0  0  0  0
   36.4610   28.2150   43.6740 H   0  0  0  0  0  0  0  0  0  0  0  0
   36.5600   26.4400   43.7020 H   0  0  0  0  0  0  0  0  0  0  0  0
   35.8890   27.2900   41.7140 H   0  0  0  0  0  0  0  0  0  0  0  0
   37.6490   26.1420   41.3210 N   0  0  0  0  0  0  0  0  0  0  0  0
   37.2870   24.7840   41.3510 C   0  0  0  0  0  0  0  0  0  0  0  0
   36.4090   24.2770   40.5640 O   0  0  0  0  0  0  0  0  0  0  0  0
   37.9800   24.0040   42.3240 N   0  0  0  0  0  0  0  0  0  0  0  0
   38.6410   26.1850   40.8750 H   0  0  0  0  0  0  0  0  0  0  0  0
   39.0090   23.9080   42.4840 H   0  0  0  0  0  0  0  0  0  0  0  0
   37.4830   23.3980   43.0380 H   0  0  0  0  0  0  0  0  0  0  0  0
   34.8160   28.3440   37.4460 C   0  0  0  0  0  0  0  0  0  0  0  0
   34.7110   27.1610   36.7930 C   0  0  0  0  0  0  0  0  0  0  0  0
   33.5630   26.7200   36.1650 C   0  0  0  0  0  0  0  0  0  0  0  0
   32.4910   27.5690   36.2380 C   0  0  0  0  0  0  0  0  0  0  0  0
   32.5570   28.7760   36.8930 C   0  0  0  0  0  0  0  0  0  0  0  0
   33.7330   29.1320   37.4830 N   0  0  0  0  0  0  0  0  0  0  0  0
   35.5920   26.5390   36.7740 H   0  0  0  0  0  0  0  0  0  0  0  0
   33.5130   25.7800   35.6590 H   0  0  0  0  0  0  0  0  0  0  0  0
   31.6180   27.2450   35.7060 H   0  0  0  0  0  0  0  0  0  0  0  0
   31.5530   29.8110   37.0050 C   0  0  0  0  0  0  0  0  0  0  0  0
   30.8420   29.9340   38.2080 C   0  0  0  0  0  0  0  0  0  0  0  0
   31.0760   29.2510   39.0370 H   0  0  0  0  0  0  0  0  0  0  0  0
   29.8510   30.8550   38.4600 C   0  0  0  0  0  3  0  0  0  0  0  0
   29.5030   31.7420   37.4680 C   0  0  0  0  0  3  0  0  0  0  0  0
   30.1560   31.6790   36.2580 C   0  0  0  0  0  0  0  0  0  0  0  0
   29.7910   32.5380   35.2440 C   0  0  0  0  0  3  0  0  0  0  0  0
   30.3770   32.4990   33.9950 C   0  0  0  0  0  3  0  0  0  0  0  0
   31.3700   31.5290   33.8150 C   0  0  0  0  0  3  0  0  0  0  0  0
   31.7050   30.6940   34.8520 C   0  0  0  0  0  3  0  0  0  0  0  0
   31.1310   30.7330   36.0860 C   0  0  0  0  0  0  0  0  0  0  0  0
  1  9  1  0  0  0  0
  2  7  1  0  0  0  0
  2  1  2  0  0  0  0
  3  2  1  0  0  0  0
  4  3  2  0  0  0  0
  4  5  1  0  0  0  0
  5  6  2  0  0  0  0
  6  1  1  0  0  0  0
  8  3  1  0  0  0  0
  9 10  1  0  0  0  0
  9 14  1  0  0  0  0
  9 15  1  1  0  0  0
 10 11  1  0  0  0  0
 11 18  1  0  0  0  0
 11 19  1  0  0  0  0
 11 12  1  0  0  0  0
 12 20  1  0  0  0  0
 12 21  1  0  0  0  0
 13 22  1  0  0  0  0
 13 23  1  0  0  0  0
 13 12  1  0  0  0  0
 14 24  1  6  0  0  0
 14 13  1  0  0  0  0
 16 10  1  0  0  0  0
 17 10  1  0  0  0  0
 25 26  1  0  0  0  0
 25 14  1  0  0  0  0
 26 28  1  0  0  0  0
 27 26  2  0  0  0  0
 28 30  1  0  0  0  0
 28 31  1  0  0  0  0
 29 25  1  0  0  0  0
 32 37  1  0  0  0  0
 32  5  1  0  0  0  0
 33 32  2  0  0  0  0
 34 35  2  0  0  0  0
 34 33  1  0  0  0  0
 35 36  1  0  0  0  0
 36 41  1  0  0  0  0
 36 37  2  0  0  0  0
 38 33  1  0  0  0  0
 39 34  1  0  0  0  0
 40 35  1  0  0  0  0
 41 42  1  0  0  0  0
 42 44  2  0  0  0  0
 42 43  1  0  0  0  0
 45 44  1  0  0  0  0
 46 45  2  0  0  0  0
 47 46  1  0  0  0  0
 48 47  2  0  0  0  0
 49 48  1  0  0  0  0
 49 50  2  0  0  0  0
 50 51  1  0  0  0  0
 51 46  1  0  0  0  0
 51 41  2  0  0  0  0
M  END
>  <minimizedAffinity>
-7.51157522

$$$$

 OpenBabel03252507343D

 51 55  0  0  1  0  0  0  0  0999 V2000
   41.4600   32.8800   39.2380 C   0  0  0  0  0  0  0  0  0  0  0  0
   41.4680   32.7970   37.8500 C   0  0  0  0  0  0  0  0  0  0  0  0
   40.4480   32.0770   37.1880 C   0  0  0  0  0  0  0  0  0  0  0  0
   39.4840   31.4830   38.0030 N   0  0  0  0  0  0  0  0  0  0  0  0
   39.5370   31.5990   39.3270 C   0  0  0  0  0  0  0  0  0  0  0  0
   40.5020   32.2840   39.9460 N   0  0  0  0  0  0  0  0  0  0  0  0
   42.1020   33.1290   37.0610 H   0  0  0  0  0  0  0  0  0  0  0  0
   40.2880   31.9100   36.1560 H   0  0  0  0  0  0  0  0  0  0  0  0
   42.5130   33.6490   39.8680 C   0  0  2  0  0  0  0  0  0  0  0  0
   43.9220   33.1340   39.4500 C   0  0  0  0  0  0  0  0  0  0  0  0
   44.9680   34.0410   39.9980 C   0  0  0  0  0  0  0  0  0  0  0  0
   44.7830   34.4860   41.4100 C   0  0  0  0  0  0  0  0  0  0  0  0
   43.4120   34.7240   41.7910 C   0  0  0  0  0  0  0  0  0  0  0  0
   42.4330   33.6290   41.3160 C   0  0  2  0  0  0  0  0  0  0  0  0
   42.5120   34.6830   39.4490 H   0  0  0  0  0  0  0  0  0  0  0  0
   44.0720   32.0910   39.7140 H   0  0  0  0  0  0  0  0  0  0  0  0
   43.9090   33.1840   38.3420 H   0  0  0  0  0  0  0  0  0  0  0  0
   45.9260   33.4390   39.9890 H   0  0  0  0  0  0  0  0  0  0  0  0
   45.1440   34.8280   39.2420 H   0  0  0  0  0  0  0  0  0  0  0  0
   45.5650   34.2480   42.1310 H   0  0  0  0  0  0  0  0  0  0  0  0
   45.1370   35.5890   41.3000 H   0  0  0  0  0  0  0  0  0  0  0  0
   42.9170   35.6710   41.4760 H   0  0  0  0  0  0  0  0  0  0  0  0
   43.3260   34.6990   42.9080 H   0  0  0  0  0  0  0  0  0  0  0  0
   41.5050   33.9570   41.7860 H   0  0  0  0  0  0  0  0  0  0  0  0
   42.8970   32.3360   41.8260 N   0  0  0  0  0  0  0  0  0  0  0  0
   42.4840   31.5670   42.9270 C   0  0  0  0  0  0  0  0  0  0  0  0
   41.4130   30.8600   42.9250 O   0  0  0  0  0  0  0  0  0  0  0  0
   43.3570   31.6240   44.0550 N   0  0  0  0  0  0  0  0  0  0  0  0
   43.7480   31.8140   41.3890 H   0  0  0  0  0  0  0  0  0  0  0  0
   44.3870   31.4490   44.1030 H   0  0  0  0  0  0  0  0  0  0  0  0
   43.0240   31.8690   45.0310 H   0  0  0  0  0  0  0  0  0  0  0  0
   38.5040   30.9280   40.1230 C   0  0  0  0  0  0  0  0  0  0  0  0
   37.2610   31.4460   40.2790 C   0  0  0  0  0  0  0  0  0  0  0  0
   36.2590   30.8520   41.0190 C   0  0  0  0  0  0  0  0  0  0  0  0
   36.5940   29.6630   41.6120 C   0  0  0  0  0  0  0  0  0  0  0  0
   37.8420   29.1040   41.4760 C   0  0  0  0  0  0  0  0  0  0  0  0
   38.7720   29.7630   40.7270 N   0  0  0  0  0  0  0  0  0  0  0  0
   37.0630   32.3850   39.7850 H   0  0  0  0  0  0  0  0  0  0  0  0
   35.2890   31.2860   41.1220 H   0  0  0  0  0  0  0  0  0  0  0  0
   35.8290   29.2300   42.2270 H   0  0  0  0  0  0  0  0  0  0  0  0
   38.3780   27.9050   42.0830 C   0  0  0  0  0  0  0  0  0  0  0  0
   39.3680   28.0330   43.0690 C   0  0  0  0  0  0  0  0  0  0  0  0
   39.7000   29.0390   43.3630 H   0  0  0  0  0  0  0  0  0  0  0  0
   39.9810   26.9900   43.7250 C   0  0  0  0  0  3  0  0  0  0  0  0
   39.6180   25.7020   43.4080 C   0  0  0  0  0  3  0  0  0  0  0  0
   38.6540   25.4990   42.4470 C   0  0  0  0  0  0  0  0  0  0  0  0
   38.3070   24.2120   42.0940 C   0  0  0  0  0  3  0  0  0  0  0  0
   37.3800   23.9410   41.1090 C   0  0  0  0  0  3  0  0  0  0  0  0
   36.8050   25.0540   40.4840 C   0  0  0  0  0  3  0  0  0  0  0  0
   37.1780   26.3190   40.8660 C   0  0  0  0  0  3  0  0  0  0  0  0
   38.0910   26.5900   41.8400 C   0  0  0  0  0  0  0  0  0  0  0  0
  1  9  1  0  0  0  0
  1  6  1  0  0  0  0
  2  1  2  0  0  0  0
  3  2  1  0  0  0  0
  3  4  2  0  0  0  0
  4  5  1  0  0  0  0
  5  6  2  0  0  0  0
  5 32  1  0  0  0  0
  7  2  1  0  0  0  0
  8  3  1  0  0  0  0
  9 15  1  6  0  0  0
  9 14  1  0  0  0  0
 10 16  1  0  0  0  0
 10  9  1  0  0  0  0
 10 11  1  0  0  0  0
 11 12  1  0  0  0  0
 12 13  1  0  0  0  0
 12 20  1  0  0  0  0
 13 23  1  0  0  0  0
 14 24  1  1  0  0  0
 14 13  1  0  0  0  0
 14 25  1  0  0  0  0
 17 10  1  0  0  0  0
 18 11  1  0  0  0  0
 19 11  1  0  0  0  0
 21 12  1  0  0  0  0
 22 13  1  0  0  0  0
 25 26  1  0  0  0  0
 26 28  1  0  0  0  0
 27 26  2  0  0  0  0
 28 30  1  0  0  0  0
 28 31  1  0  0  0  0
 29 25  1  0  0  0  0
 32 33  2  0  0  0  0
 32 37  1  0  0  0  0
 33 34  1  0  0  0  0
 34 39  1  0  0  0  0
 34 35  2  0  0  0  0
 35 40  1  0  0  0  0
 36 35  1  0  0  0  0
 36 41  1  0  0  0  0
 37 36  2  0  0  0  0
 38 33  1  0  0  0  0
 41 42  1  0  0  0  0
 42 43  1  0  0  0  0
 42 44  2  0  0  0  0
 45 44  1  0  0  0  0
 46 45  2  0  0  0  0
 47 46  1  0  0  0  0
 48 47  2  0  0  0  0
 49 50  2  0  0  0  0
 49 48  1  0  0  0  0
 50 51  1  0  0  0  0
 51 41  2  0  0  0  0
 51 46  1  0  0  0  0
M  END
>  <minimizedAffinity>
-7.47493649

$$$$

 OpenBabel03252507343D

 51 55  0  0  1  0  0  0  0  0999 V2000
   37.7030   29.8070   37.5030 C   0  0  0  0  0  0  0  0  0  0  0  0
   38.7900   28.9980   37.1920 C   0  0  0  0  0  0  0  0  0  0  0  0
   38.6160   27.9020   36.3160 C   0  0  0  0  0  0  0  0  0  0  0  0
   37.3280   27.7090   35.8190 N   0  0  0  0  0  0  0  0  0  0  0  0
   36.3300   28.5200   36.1600 C   0  0  0  0  0  0  0  0  0  0  0  0
   36.5020   29.5550   36.9850 N   0  0  0  0  0  0  0  0  0  0  0  0
   39.8150   28.9410   37.4750 H   0  0  0  0  0  0  0  0  0  0  0  0
   39.3140   27.1890   35.9660 H   0  0  0  0  0  0  0  0  0  0  0  0
   37.9370   30.9310   38.3860 C   0  0  2  0  0  0  0  0  0  0  0  0
   39.4150   30.9740   38.8730 C   0  0  0  0  0  0  0  0  0  0  0  0
   39.6490   32.2210   39.6520 C   0  0  0  0  0  0  0  0  0  0  0  0
   38.5860   32.5980   40.6280 C   0  0  0  0  0  0  0  0  0  0  0  0
   37.2400   32.3120   40.1930 C   0  0  0  0  0  0  0  0  0  0  0  0
   37.0750   30.9180   39.5510 C   0  0  2  0  0  0  0  0  0  0  0  0
   37.8600   31.8780   37.8010 H   0  0  0  0  0  0  0  0  0  0  0  0
   39.6970   30.0710   39.4060 H   0  0  0  0  0  0  0  0  0  0  0  0
   40.0070   30.9880   37.9350 H   0  0  0  0  0  0  0  0  0  0  0  0
   40.5760   32.0240   40.2690 H   0  0  0  0  0  0  0  0  0  0  0  0
   39.9700   32.9980   38.9340 H   0  0  0  0  0  0  0  0  0  0  0  0
   38.8610   32.6900   41.6790 H   0  0  0  0  0  0  0  0  0  0  0  0
   38.5900   33.7510   40.4650 H   0  0  0  0  0  0  0  0  0  0  0  0
   36.7480   32.9950   39.4640 H   0  0  0  0  0  0  0  0  0  0  0  0
   36.5590   32.2850   41.0830 H   0  0  0  0  0  0  0  0  0  0  0  0
   35.9960   30.8850   39.3950 H   0  0  0  0  0  0  0  0  0  0  0  0
   37.5380   29.9080   40.5070 N   0  0  0  0  0  0  0  0  0  0  0  0
   36.8410   29.1120   41.4320 C   0  0  0  0  0  0  0  0  0  0  0  0
   36.1680   28.0730   41.0940 O   0  0  0  0  0  0  0  0  0  0  0  0
   36.9450   29.5450   42.7880 N   0  0  0  0  0  0  0  0  0  0  0  0
   38.5960   29.6950   40.6550 H   0  0  0  0  0  0  0  0  0  0  0  0
   37.8010   29.7500   43.3520 H   0  0  0  0  0  0  0  0  0  0  0  0
   36.1010   29.7160   43.4060 H   0  0  0  0  0  0  0  0  0  0  0  0
   34.9950   28.2430   35.6180 C   0  0  0  0  0  0  0  0  0  0  0  0
   34.6820   27.0570   35.0410 C   0  0  0  0  0  0  0  0  0  0  0  0
   33.4420   26.7520   34.5170 C   0  0  0  0  0  0  0  0  0  0  0  0
   32.5040   27.7460   34.6130 C   0  0  0  0  0  0  0  0  0  0  0  0
   32.7820   28.9600   35.1930 C   0  0  0  0  0  0  0  0  0  0  0  0
   34.0360   29.1750   35.6830 N   0  0  0  0  0  0  0  0  0  0  0  0
   35.4660   26.3170   34.9980 H   0  0  0  0  0  0  0  0  0  0  0  0
   33.2260   25.8070   34.0690 H   0  0  0  0  0  0  0  0  0  0  0  0
   31.5570   27.5230   34.1600 H   0  0  0  0  0  0  0  0  0  0  0  0
   31.9390   30.1300   35.3140 C   0  0  0  0  0  0  0  0  0  0  0  0
   31.9300   31.0660   34.2680 C   0  0  0  0  0  0  0  0  0  0  0  0
   32.5510   30.8790   33.3810 H   0  0  0  0  0  0  0  0  0  0  0  0
   31.1950   32.2290   34.2440 C   0  0  0  0  0  3  0  0  0  0  0  0
   30.3950   32.5300   35.3210 C   0  0  0  0  0  3  0  0  0  0  0  0
   30.3550   31.6590   36.3860 C   0  0  0  0  0  0  0  0  0  0  0  0
   29.5860   31.9690   37.4870 C   0  0  0  0  0  3  0  0  0  0  0  0
   29.5350   31.1600   38.6040 C   0  0  0  0  0  3  0  0  0  0  0  0
   30.3160   29.9990   38.5560 C   0  0  0  0  0  3  0  0  0  0  0  0
   31.0670   29.7270   37.4390 C   0  0  0  0  0  3  0  0  0  0  0  0
   31.1160   30.5220   36.3340 C   0  0  0  0  0  0  0  0  0  0  0  0
  1  9  1  0  0  0  0
  2  7  1  0  0  0  0
  2  1  1  0  0  0  0
  3  2  2  0  0  0  0
  4  5  2  0  0  0  0
  4  3  1  0  0  0  0
  5  6  1  0  0  0  0
  6  1  2  0  0  0  0
  8  3  1  0  0  0  0
  9 15  1  6  0  0  0
  9 10  1  0  0  0  0
  9 14  1  0  0  0  0
 10 16  1  0  0  0  0
 10 11  1  0  0  0  0
 11 18  1  0  0  0  0
 11 12  1  0  0  0  0
 12 20  1  0  0  0  0
 13 12  1  0  0  0  0
 13 23  1  0  0  0  0
 14 24  1  6  0  0  0
 14 13  1  0  0  0  0
 14 25  1  0  0  0  0
 17 10  1  0  0  0  0
 19 11  1  0  0  0  0
 21 12  1  0  0  0  0
 22 13  1  0  0  0  0
 25 29  1  0  0  0  0
 25 26  1  0  0  0  0
 26 28  1  0  0  0  0
 27 26  2  0  0  0  0
 28 30  1  0  0  0  0
 28 31  1  0  0  0  0
 32 37  1  0  0  0  0
 32  5  1  0  0  0  0
 33 32  2  0  0  0  0
 34 35  2  0  0  0  0
 34 33  1  0  0  0  0
 35 36  1  0  0  0  0
 36 41  1  0  0  0  0
 36 37  2  0  0  0  0
 38 33  1  0  0  0  0
 39 34  1  0  0  0  0
 40 35  1  0  0  0  0
 41 51  1  0  0  0  0
 42 41  2  0  0  0  0
 43 42  1  0  0  0  0
 44 42  1  0  0  0  0
 44 45  2  0  0  0  0
 45 46  1  0  0  0  0
 46 47  1  0  0  0  0
 47 48  2  0  0  0  0
 49 48  1  0  0  0  0
 50 49  2  0  0  0  0
 51 46  2  0  0  0  0
 51 50  1  0  0  0  0
M  END
>  <minimizedAffinity>
-7.41264915

$$$$

 OpenBabel03252507343D

 51 55  0  0  1  0  0  0  0  0999 V2000
   41.4630   30.6820   41.3170 C   0  0  0  0  0  0  0  0  0  0  0  0
   42.6380   30.2610   41.9300 C   0  0  0  0  0  0  0  0  0  0  0  0
   42.6070   29.1580   42.8130 C   0  0  0  0  0  0  0  0  0  0  0  0
   41.3620   28.5600   43.0100 N   0  0  0  0  0  0  0  0  0  0  0  0
   40.2750   29.0160   42.3930 C   0  0  0  0  0  0  0  0  0  0  0  0
   40.3120   30.0570   41.5580 N   0  0  0  0  0  0  0  0  0  0  0  0
   43.6540   30.5800   41.9520 H   0  0  0  0  0  0  0  0  0  0  0  0
   43.3860   28.6980   43.3600 H   0  0  0  0  0  0  0  0  0  0  0  0
   41.5500   31.8020   40.4020 C   0  0  2  0  0  0  0  0  0  0  0  0
   41.8850   33.1250   41.1520 C   0  0  0  0  0  0  0  0  0  0  0  0
   42.1120   34.2150   40.1650 C   0  0  0  0  0  0  0  0  0  0  0  0
   41.1500   34.2870   39.0280 C   0  0  0  0  0  0  0  0  0  0  0  0
   40.7050   33.0070   38.5340 C   0  0  0  0  0  0  0  0  0  0  0  0
   40.3300   32.0040   39.6460 C   0  0  2  0  0  0  0  0  0  0  0  0
   42.4460   31.6730   39.7510 H   0  0  0  0  0  0  0  0  0  0  0  0
   41.1400   33.3690   41.9040 H   0  0  0  0  0  0  0  0  0  0  0  0
   42.8240   32.8950   41.6970 H   0  0  0  0  0  0  0  0  0  0  0  0
   41.9790   35.1790   40.7420 H   0  0  0  0  0  0  0  0  0  0  0  0
   43.1880   34.2060   39.9120 H   0  0  0  0  0  0  0  0  0  0  0  0
   40.5740   35.2050   38.8980 H   0  0  0  0  0  0  0  0  0  0  0  0
   41.8940   34.5640   38.1770 H   0  0  0  0  0  0  0  0  0  0  0  0
   41.3760   32.4180   37.8670 H   0  0  0  0  0  0  0  0  0  0  0  0
   39.7540   33.1410   37.9560 H   0  0  0  0  0  0  0  0  0  0  0  0
   39.9420   31.1720   39.0570 H   0  0  0  0  0  0  0  0  0  0  0  0
   39.3070   32.6170   40.4990 N   0  0  0  0  0  0  0  0  0  0  0  0
   37.9040   32.5310   40.4790 C   0  0  0  0  0  0  0  0  0  0  0  0
   37.2600   31.5130   40.9220 O   0  0  0  0  0  0  0  0  0  0  0  0
   37.2450   33.6720   39.9320 N   0  0  0  0  0  0  0  0  0  0  0  0
   39.5590   33.3300   41.2820 H   0  0  0  0  0  0  0  0  0  0  0  0
   37.3490   34.6810   40.1870 H   0  0  0  0  0  0  0  0  0  0  0  0
   36.5300   33.6070   39.1520 H   0  0  0  0  0  0  0  0  0  0  0  0
   38.9940   28.3550   42.6670 C   0  0  0  0  0  0  0  0  0  0  0  0
   38.1870   28.7380   43.6860 C   0  0  0  0  0  0  0  0  0  0  0  0
   36.9760   28.1450   43.9810 C   0  0  0  0  0  0  0  0  0  0  0  0
   36.6140   27.1080   43.1620 C   0  0  0  0  0  0  0  0  0  0  0  0
   37.4050   26.6920   42.1170 C   0  0  0  0  0  0  0  0  0  0  0  0
   38.5870   27.3350   41.9000 N   0  0  0  0  0  0  0  0  0  0  0  0
   38.5300   29.5610   44.2920 H   0  0  0  0  0  0  0  0  0  0  0  0
   36.3610   28.4710   44.7920 H   0  0  0  0  0  0  0  0  0  0  0  0
   35.6980   26.6180   43.4260 H   0  0  0  0  0  0  0  0  0  0  0  0
   37.2090   25.5830   41.2090 C   0  0  0  0  0  0  0  0  0  0  0  0
   37.6350   24.3050   41.6010 C   0  0  0  0  0  0  0  0  0  0  0  0
   38.0920   24.1780   42.5930 H   0  0  0  0  0  0  0  0  0  0  0  0
   37.5310   23.1610   40.8440 C   0  0  0  0  0  3  0  0  0  0  0  0
   36.9700   23.2440   39.5910 C   0  0  0  0  0  3  0  0  0  0  0  0
   36.5310   24.4670   39.1370 C   0  0  0  0  0  0  0  0  0  0  0  0
   36.0010   24.5700   37.8690 C   0  0  0  0  0  3  0  0  0  0  0  0
   35.5820   25.7730   37.3380 C   0  0  0  0  0  3  0  0  0  0  0  0
   35.7270   26.8920   38.1660 C   0  0  0  0  0  3  0  0  0  0  0  0
   36.2590   26.7460   39.4240 C   0  0  0  0  0  3  0  0  0  0  0  0
   36.6700   25.5590   39.9510 C   0  0  0  0  0  0  0  0  0  0  0  0
  1  6  2  0  0  0  0
  1  2  1  0  0  0  0
  2  7  1  0  0  0  0
  2  3  2  0  0  0  0
  3  4  1  0  0  0  0
  3  8  1  0  0  0  0
  5 32  1  0  0  0  0
  5  4  2  0  0  0  0
  6  5  1  0  0  0  0
  9 15  1  6  0  0  0
  9 10  1  0  0  0  0
  9  1  1  0  0  0  0
 10 17  1  0  0  0  0
 10 16  1  0  0  0  0
 11 18  1  0  0  0  0
 11 10  1  0  0  0  0
 12 11  1  0  0  0  0
 13 12  1  0  0  0  0
 13 14  1  0  0  0  0
 14 24  1  6  0  0  0
 14  9  1  0  0  0  0
 14 25  1  0  0  0  0
 19 11  1  0  0  0  0
 20 12  1  0  0  0  0
 21 12  1  0  0  0  0
 22 13  1  0  0  0  0
 23 13  1  0  0  0  0
 25 29  1  0  0  0  0
 26 25  1  0  0  0  0
 26 27  2  0  0  0  0
 28 30  1  0  0  0  0
 28 26  1  0  0  0  0
 31 28  1  0  0  0  0
 32 33  1  0  0  0  0
 33 34  2  0  0  0  0
 33 38  1  0  0  0  0
 34 39  1  0  0  0  0
 35 40  1  0  0  0  0
 35 34  1  0  0  0  0
 36 35  2  0  0  0  0
 37 36  1  0  0  0  0
 37 32  2  0  0  0  0
 41 42  1  0  0  0  0
 41 36  1  0  0  0  0
 42 43  1  0  0  0  0
 44 42  2  0  0  0  0
 45 44  1  0  0  0  0
 46 45  2  0  0  0  0
 46 51  1  0  0  0  0
 47 46  1  0  0  0  0
 48 47  2  0  0  0  0
 48 49  1  0  0  0  0
 49 50  2  0  0  0  0
 50 51  1  0  0  0  0
 51 41  2  0  0  0  0
M  END
>  <minimizedAffinity>
-7.31639051

$$$$

 OpenBabel03252507343D

 51 55  0  0  1  0  0  0  0  0999 V2000
   39.3050   31.9650   40.7600 C   0  0  0  0  0  0  0  0  0  0  0  0
   38.2520   32.6890   40.2110 C   0  0  0  0  0  0  0  0  0  0  0  0
   36.9500   32.1410   40.2210 C   0  0  0  0  0  0  0  0  0  0  0  0
   36.8160   30.8770   40.7950 N   0  0  0  0  0  0  0  0  0  0  0  0
   37.8680   30.2370   41.3000 C   0  0  0  0  0  0  0  0  0  0  0  0
   39.0960   30.7610   41.2900 N   0  0  0  0  0  0  0  0  0  0  0  0
   38.1360   33.6200   39.7070 H   0  0  0  0  0  0  0  0  0  0  0  0
   36.0380   32.5380   39.8590 H   0  0  0  0  0  0  0  0  0  0  0  0
   40.6170   32.5790   40.7470 C   0  0  2  0  0  0  0  0  0  0  0  0
   40.5280   34.1070   40.4600 C   0  0  0  0  0  0  0  0  0  0  0  0
   41.8750   34.7230   40.6040 C   0  0  0  0  0  0  0  0  0  0  0  0
   43.0130   33.9690   40.0010 C   0  0  0  0  0  0  0  0  0  0  0  0
   42.9070   32.5340   40.1070 C   0  0  0  0  0  0  0  0  0  0  0  0
   41.5050   31.9840   39.7680 C   0  0  2  0  0  0  0  0  0  0  0  0
   41.0390   32.5630   41.7790 H   0  0  0  0  0  0  0  0  0  0  0  0
   40.0550   34.3180   39.5050 H   0  0  0  0  0  0  0  0  0  0  0  0
   39.8430   34.4880   41.2450 H   0  0  0  0  0  0  0  0  0  0  0  0
   41.8230   35.7020   40.0410 H   0  0  0  0  0  0  0  0  0  0  0  0
   41.9810   35.0300   41.6600 H   0  0  0  0  0  0  0  0  0  0  0  0
   43.6090   34.4640   39.2340 H   0  0  0  0  0  0  0  0  0  0  0  0
   43.8120   34.1560   40.8260 H   0  0  0  0  0  0  0  0  0  0  0  0
   43.1550   32.0410   41.0740 H   0  0  0  0  0  0  0  0  0  0  0  0
   43.5790   32.0540   39.3480 H   0  0  0  0  0  0  0  0  0  0  0  0
   41.6830   30.9090   39.8180 H   0  0  0  0  0  0  0  0  0  0  0  0
   41.1420   32.4340   38.4220 N   0  0  0  0  0  0  0  0  0  0  0  0
   41.8930   32.5320   37.2380 C   0  0  0  0  0  0  0  0  0  0  0  0
   42.1880   31.5160   36.5110 O   0  0  0  0  0  0  0  0  0  0  0  0
   42.3000   33.8570   36.8970 N   0  0  0  0  0  0  0  0  0  0  0  0
   40.1580   32.8440   38.1950 H   0  0  0  0  0  0  0  0  0  0  0  0
   41.7200   34.7220   36.8020 H   0  0  0  0  0  0  0  0  0  0  0  0
   43.3070   34.1170   36.6930 H   0  0  0  0  0  0  0  0  0  0  0  0
   37.6590   28.8990   41.8650 C   0  0  0  0  0  0  0  0  0  0  0  0
   37.1140   28.7100   43.0920 C   0  0  0  0  0  0  0  0  0  0  0  0
   36.9000   27.4730   43.6640 C   0  0  0  0  0  0  0  0  0  0  0  0
   37.2800   26.4000   42.9010 C   0  0  0  0  0  0  0  0  0  0  0  0
   37.8330   26.5500   41.6520 C   0  0  0  0  0  0  0  0  0  0  0  0
   38.0100   27.8120   41.1670 N   0  0  0  0  0  0  0  0  0  0  0  0
   36.8370   29.5980   43.6400 H   0  0  0  0  0  0  0  0  0  0  0  0
   36.4680   27.3580   44.6340 H   0  0  0  0  0  0  0  0  0  0  0  0
   37.1590   25.4430   43.3700 H   0  0  0  0  0  0  0  0  0  0  0  0
   38.3470   25.5400   40.7530 C   0  0  0  0  0  0  0  0  0  0  0  0
   39.7090   25.5680   40.4140 C   0  0  0  0  0  0  0  0  0  0  0  0
   40.3500   26.3460   40.8510 H   0  0  0  0  0  0  0  0  0  0  0  0
   40.3370   24.6880   39.5640 C   0  0  0  0  0  3  0  0  0  0  0  0
   39.5970   23.6880   38.9780 C   0  0  0  0  0  3  0  0  0  0  0  0
   38.2530   23.6000   39.2620 C   0  0  0  0  0  0  0  0  0  0  0  0
   37.4940   22.6240   38.6530 C   0  0  0  0  0  3  0  0  0  0  0  0
   36.1350   22.5080   38.8620 C   0  0  0  0  0  3  0  0  0  0  0  0
   35.5660   23.4440   39.7340 C   0  0  0  0  0  3  0  0  0  0  0  0
   36.3600   24.4000   40.3210 C   0  0  0  0  0  3  0  0  0  0  0  0
   37.7020   24.5140   40.1190 C   0  0  0  0  0  0  0  0  0  0  0  0
  1  6  1  0  0  0  0
  2  3  1  0  0  0  0
  2  1  2  0  0  0  0
  3  4  2  0  0  0  0
  4  5  1  0  0  0  0
  5 32  1  0  0  0  0
  6  5  2  0  0  0  0
  7  2  1  0  0  0  0
  8  3  1  0  0  0  0
  9  1  1  0  0  0  0
  9 15  1  1  0  0  0
 10 11  1  0  0  0  0
 10  9  1  0  0  0  0
 10 17  1  0  0  0  0
 11 19  1  0  0  0  0
 12 13  1  0  0  0  0
 12 11  1  0  0  0  0
 12 21  1  0  0  0  0
 13 22  1  0  0  0  0
 14 24  1  1  0  0  0
 14 13  1  0  0  0  0
 14  9  1  0  0  0  0
 16 10  1  0  0  0  0
 18 11  1  0  0  0  0
 20 12  1  0  0  0  0
 23 13  1  0  0  0  0
 25 14  1  0  0  0  0
 26 25  1  0  0  0  0
 27 26  2  0  0  0  0
 28 26  1  0  0  0  0
 29 25  1  0  0  0  0
 30 28  1  0  0  0  0
 31 28  1  0  0  0  0
 32 33  1  0  0  0  0
 33 38  1  0  0  0  0
 33 34  2  0  0  0  0
 34 39  1  0  0  0  0
 35 40  1  0  0  0  0
 35 34  1  0  0  0  0
 36 35  2  0  0  0  0
 37 36  1  0  0  0  0
 37 32  2  0  0  0  0
 41 36  1  0  0  0  0
 42 41  1  0  0  0  0
 42 43  1  0  0  0  0
 44 42  2  0  0  0  0
 45 46  2  0  0  0  0
 45 44  1  0  0  0  0
 46 51  1  0  0  0  0
 47 48  2  0  0  0  0
 47 46  1  0  0  0  0
 48 49  1  0  0  0  0
 49 50  2  0  0  0  0
 51 50  1  0  0  0  0
 51 41  2  0  0  0  0
M  END
>  <minimizedAffinity>
-7.31575203

$$$$

 OpenBabel03252507343D

 51 55  0  0  1  0  0  0  0  0999 V2000
   37.6180   27.4800   38.8880 C   0  0  0  0  0  0  0  0  0  0  0  0
   38.6330   27.8040   37.9950 C   0  0  0  0  0  0  0  0  0  0  0  0
   38.3290   27.9810   36.6260 C   0  0  0  0  0  0  0  0  0  0  0  0
   36.9930   27.8080   36.2640 N   0  0  0  0  0  0  0  0  0  0  0  0
   36.0700   27.4950   37.1700 C   0  0  0  0  0  0  0  0  0  0  0  0
   36.3640   27.3320   38.4620 N   0  0  0  0  0  0  0  0  0  0  0  0
   39.6880   27.9430   38.0440 H   0  0  0  0  0  0  0  0  0  0  0  0
   38.9570   28.2290   35.8120 H   0  0  0  0  0  0  0  0  0  0  0  0
   37.9760   27.3330   40.2830 C   0  0  2  0  0  0  0  0  0  0  0  0
   36.9910   26.3820   41.0260 C   0  0  0  0  0  0  0  0  0  0  0  0
   37.4790   26.1410   42.4120 C   0  0  0  0  0  0  0  0  0  0  0  0
   37.9820   27.3350   43.1520 C   0  0  0  0  0  0  0  0  0  0  0  0
   38.6940   28.2910   42.3390 C   0  0  0  0  0  0  0  0  0  0  0  0
   38.0070   28.5980   40.9910 C   0  0  2  0  0  0  0  0  0  0  0  0
   38.9370   26.7720   40.3580 H   0  0  0  0  0  0  0  0  0  0  0  0
   35.9660   26.7400   40.9840 H   0  0  0  0  0  0  0  0  0  0  0  0
   37.0260   25.4440   40.4360 H   0  0  0  0  0  0  0  0  0  0  0  0
   36.5780   25.7780   42.9910 H   0  0  0  0  0  0  0  0  0  0  0  0
   38.1420   25.2580   42.3740 H   0  0  0  0  0  0  0  0  0  0  0  0
   37.4940   27.6020   44.0900 H   0  0  0  0  0  0  0  0  0  0  0  0
   38.8870   26.8440   43.6940 H   0  0  0  0  0  0  0  0  0  0  0  0
   39.7500   28.0810   42.0530 H   0  0  0  0  0  0  0  0  0  0  0  0
   38.7180   29.2810   42.8640 H   0  0  0  0  0  0  0  0  0  0  0  0
   38.6490   29.3900   40.6030 H   0  0  0  0  0  0  0  0  0  0  0  0
   36.6420   29.0570   41.2580 N   0  0  0  0  0  0  0  0  0  0  0  0
   35.8960   30.1230   40.7240 C   0  0  0  0  0  0  0  0  0  0  0  0
   35.3520   30.0830   39.5630 O   0  0  0  0  0  0  0  0  0  0  0  0
   35.7820   31.2580   41.5820 N   0  0  0  0  0  0  0  0  0  0  0  0
   36.0210   28.6050   42.0300 H   0  0  0  0  0  0  0  0  0  0  0  0
   35.4590   31.3060   42.5750 H   0  0  0  0  0  0  0  0  0  0  0  0
   36.0330   32.2410   41.2740 H   0  0  0  0  0  0  0  0  0  0  0  0
   34.6890   27.3040   36.7140 C   0  0  0  0  0  0  0  0  0  0  0  0
   34.1520   26.0740   36.5320 C   0  0  0  0  0  0  0  0  0  0  0  0
   32.8590   25.8460   36.1030 C   0  0  0  0  0  0  0  0  0  0  0  0
   32.1150   26.9700   35.8620 C   0  0  0  0  0  0  0  0  0  0  0  0
   32.6220   28.2360   36.0370 C   0  0  0  0  0  0  0  0  0  0  0  0
   33.9120   28.3660   36.4620 N   0  0  0  0  0  0  0  0  0  0  0  0
   34.7920   25.2300   36.7400 H   0  0  0  0  0  0  0  0  0  0  0  0
   32.4650   24.8620   35.9700 H   0  0  0  0  0  0  0  0  0  0  0  0
   31.1280   26.7900   35.4810 H   0  0  0  0  0  0  0  0  0  0  0  0
   32.0030   29.5150   35.7660 C   0  0  0  0  0  0  0  0  0  0  0  0
   32.3010   30.1660   34.5590 C   0  0  0  0  0  0  0  0  0  0  0  0
   32.9840   29.6820   33.8480 H   0  0  0  0  0  0  0  0  0  0  0  0
   31.8040   31.3880   34.1680 C   0  0  0  0  0  3  0  0  0  0  0  0
   30.9440   32.0540   35.0090 C   0  0  0  0  0  3  0  0  0  0  0  0
   30.6080   31.4770   36.2130 C   0  0  0  0  0  0  0  0  0  0  0  0
   29.7760   32.1520   37.0800 C   0  0  0  0  0  3  0  0  0  0  0  0
   29.4350   31.6480   38.3190 C   0  0  0  0  0  3  0  0  0  0  0  0
   29.9860   30.4030   38.6470 C   0  0  0  0  0  3  0  0  0  0  0  0
   30.8090   29.7640   37.7530 C   0  0  0  0  0  3  0  0  0  0  0  0
   31.1450   30.2580   36.5290 C   0  0  0  0  0  0  0  0  0  0  0  0
  1  9  1  0  0  0  0
  2  7  1  0  0  0  0
  2  1  2  0  0  0  0
  3  2  1  0  0  0  0
  4  3  2  0  0  0  0
  4  5  1  0  0  0  0
  5  6  2  0  0  0  0
  6  1  1  0  0  0  0
  8  3  1  0  0  0  0
  9 15  1  1  0  0  0
  9 14  1  0  0  0  0
  9 10  1  0  0  0  0
 10 11  1  0  0  0  0
 11 18  1  0  0  0  0
 11 12  1  0  0  0  0
 12 21  1  0  0  0  0
 12 20  1  0  0  0  0
 13 23  1  0  0  0  0
 13 12  1  0  0  0  0
 14 24  1  6  0  0  0
 14 25  1  0  0  0  0
 14 13  1  0  0  0  0
 16 10  1  0  0  0  0
 17 10  1  0  0  0  0
 19 11  1  0  0  0  0
 22 13  1  0  0  0  0
 25 29  1  0  0  0  0
 26 25  1  0  0  0  0
 26 28  1  0  0  0  0
 27 26  2  0  0  0  0
 28 30  1  0  0  0  0
 31 28  1  0  0  0  0
 32  5  1  0  0  0  0
 33 32  1  0  0  0  0
 33 38  1  0  0  0  0
 34 33  2  0  0  0  0
 35 36  2  0  0  0  0
 35 34  1  0  0  0  0
 36 37  1  0  0  0  0
 37 32  2  0  0  0  0
 39 34  1  0  0  0  0
 40 35  1  0  0  0  0
 41 36  1  0  0  0  0
 41 51  1  0  0  0  0
 42 41  2  0  0  0  0
 43 42  1  0  0  0  0
 44 42  1  0  0  0  0
 44 45  2  0  0  0  0
 45 46  1  0  0  0  0
 46 51  2  0  0  0  0
 46 47  1  0  0  0  0
 47 48  2  0  0  0  0
 48 49  1  0  0  0  0
 50 49  2  0  0  0  0
 51 50  1  0  0  0  0
M  END
>  <minimizedAffinity>
-7.28770208

$$$$
