
     RDKit          3D

 56 61  0  0  0  0  0  0  0  0999 V2000
   47.4741   32.0615   47.8517 C   0  0  0  0  0  0  0  0  0  0  0  0
   46.9389   30.7692   47.8876 C   0  0  0  0  0  0  0  0  0  0  0  0
   45.9443   30.4867   46.9893 C   0  0  0  0  0  0  0  0  0  0  0  0
   45.5374   31.4306   46.1311 N   0  0  0  0  0  0  0  0  0  0  0  0
   46.0340   32.6551   46.0800 C   0  0  0  0  0  0  0  0  0  0  0  0
   47.0104   32.9502   46.9610 N   0  0  0  0  0  0  0  0  0  0  0  0
   45.3510   29.2458   46.9881 N   0  0  0  0  0  0  0  0  0  0  0  0
   44.1560   28.8908   46.1723 C   0  0  0  0  0  0  0  0  0  0  0  0
   44.0244   27.3979   46.2637 C   0  0  0  0  0  0  0  0  0  0  0  0
   44.6486   27.0899   47.5891 C   0  0  0  0  0  0  0  0  0  0  0  0
   45.7375   28.0960   47.7443 C   0  0  0  0  0  0  0  0  0  0  0  0
   45.7464   33.8051   45.1911 C   0  0  0  0  0  0  0  0  0  0  0  0
   44.8754   34.7745   45.4857 N   0  0  0  0  0  0  0  0  0  0  0  0
   44.5977   35.8149   44.7097 C   0  0  0  0  0  0  0  0  0  0  0  0
   45.2169   35.9512   43.5179 N   0  0  0  0  0  0  0  0  0  0  0  0
   46.1164   35.0450   43.1008 C   0  0  0  0  0  0  0  0  0  0  0  0
   46.7717   35.1738   41.8865 C   0  0  0  0  0  0  0  0  0  0  0  0
   47.6937   34.2692   41.4652 C   0  0  0  0  0  0  0  0  0  0  0  0
   47.9565   33.2092   42.2935 C   0  0  0  0  0  0  0  0  0  0  0  0
   47.2758   33.1125   43.5055 C   0  0  0  0  0  0  0  0  0  0  0  0
   46.3563   33.9910   43.9565 C   0  0  0  0  0  0  0  0  0  0  0  0
   47.6687   31.9270   44.2080 N   0  0  0  0  0  0  0  0  0  0  0  0
   47.4859   29.8729   48.7595 N   0  0  0  0  0  0  0  0  0  0  0  0
   48.2657   32.3309   48.5526 H   0  0  0  0  0  0  0  0  0  0  0  0
   43.2746   29.4458   46.4938 H   0  0  0  0  0  0  0  0  0  0  0  0
   44.4682   29.1281   45.1239 H   0  0  0  0  0  0  0  0  0  0  0  0
   42.9486   27.0922   46.2823 H   0  0  0  0  0  0  0  0  0  0  0  0
   44.5871   26.8552   45.4914 H   0  0  0  0  0  0  0  0  0  0  0  0
   45.0055   26.0426   47.6922 H   0  0  0  0  0  0  0  0  0  0  0  0
   43.8464   27.1935   48.3484 H   0  0  0  0  0  0  0  0  0  0  0  0
   45.6955   28.3510   48.8468 H   0  0  0  0  0  0  0  0  0  0  0  0
   46.6750   27.6237   47.4456 H   0  0  0  0  0  0  0  0  0  0  0  0
   43.8772   36.5740   45.0047 H   0  0  0  0  0  0  0  0  0  0  0  0
   46.5441   36.0232   41.2486 H   0  0  0  0  0  0  0  0  0  0  0  0
   48.1715   34.4171   40.5179 H   0  0  0  0  0  0  0  0  0  0  0  0
   48.3700   31.6924   44.9229 H   0  0  0  0  0  0  0  0  0  0  0  0
   47.0265   31.1859   43.8159 H   0  0  0  0  0  0  0  0  0  0  0  0
   48.1656   29.0925   48.6207 H   0  0  0  0  0  0  0  0  0  0  0  0
   47.0493   30.1451   49.6889 H   0  0  0  0  0  0  0  0  0  0  0  0
   48.9534   32.2511   41.8175 C   0  0  0  0  0  0  0  0  0  0  0  0
   48.5783   30.9174   41.6324 C   0  0  0  0  0  0  0  0  0  0  0  0
   47.5579   30.5757   41.8352 H   0  0  0  0  0  0  0  0  0  0  0  0
   49.5067   29.9990   41.1833 C   0  0  0  0  0  0  0  0  0  0  0  0
   50.8031   30.3313   40.9037 C   0  0  0  0  0  0  0  0  0  0  0  0
   51.1596   31.6469   41.0900 C   0  0  0  0  0  0  0  0  0  0  0  0
   52.4512   32.0410   40.8249 C   0  0  0  0  0  0  0  0  0  0  0  0
   52.8522   33.3475   40.9972 C   0  0  0  0  0  0  0  0  0  0  0  0
   51.9659   34.3013   41.4424 C   0  0  0  0  0  0  0  0  0  0  0  0
   50.6616   33.8989   41.7091 C   0  0  0  0  0  0  0  0  0  0  0  0
   50.2659   32.6017   41.5374 C   0  0  0  0  0  0  0  0  0  0  0  0
   49.2119   28.9523   41.0381 H   0  0  0  0  0  0  0  0  0  0  0  0
   51.4947   29.5717   40.5529 H   0  0  0  0  0  0  0  0  0  0  0  0
   53.1559   31.3121   40.4773 H   0  0  0  0  0  0  0  0  0  0  0  0
   53.8608   33.6122   40.7809 H   0  0  0  0  0  0  0  0  0  0  0  0
   52.2981   35.3294   41.5735 H   0  0  0  0  0  0  0  0  0  0  0  0
   49.9675   34.6486   42.0584 H   0  0  0  0  0  0  0  0  0  0  0  0
  1  2  2  0
  2 23  1  0
  3  2  1  0
  4  3  2  0
  5  4  1  0
  5  6  2  0
  6  1  1  0
  7  3  1  0
  7 11  1  0
  8  9  1  0
  8  7  1  0
  9 10  1  0
 10 11  1  0
 12 13  2  0
 12  5  1  0
 14 13  1  0
 15 14  2  0
 16 15  1  0
 16 21  2  0
 17 16  1  0
 18 17  2  0
 18 19  1  0
 19 20  2  0
 20 21  1  0
 20 22  1  0
 21 12  1  0
  1 24  1  0
  8 25  1  0
  8 26  1  0
  9 27  1  0
  9 28  1  0
 10 29  1  0
 10 30  1  0
 11 31  1  0
 11 32  1  0
 14 33  1  0
 17 34  1  0
 18 35  1  0
 22 36  1  0
 22 37  1  0
 23 38  1  0
 23 39  1  0
 40 41  2  0
 41 42  1  0
 41 43  1  0
 43 44  2  0
 44 45  1  0
 45 46  2  0
 46 47  1  0
 47 48  2  0
 48 49  1  0
 49 50  2  0
 50 40  1  0
 50 45  1  0
 43 51  1  0
 44 52  1  0
 46 53  1  0
 47 54  1  0
 48 55  1  0
 49 56  1  0
 19 40  1  0
M  ISO  8  24  14  25  13  26  13  27  13  28  13  29  13  30  13  31  13
M  ISO  5  32  13  33  14  34  14  35  14  42  15
M  END
>  <DihAtoms>  (1) 
17,18,39,40

>  <DihDeg>  (1) 
89.99212162647075

$$$$
