
 OpenBabel03242515233D

 23 25  0  0  0  0  0  0  0  0999 V2000
   44.4250   35.5200   41.8190 C   0  0  0  0  0  0  0  0  0  0  0  0
   45.4360   35.7370   41.3690 H   0  0  0  0  0  0  0  0  0  0  0  0
   43.9060   36.4630   41.8800 H   0  0  0  0  0  0  0  0  0  0  0  0
   43.6580   34.5340   41.0510 C   0  0  0  0  0  0  0  0  0  0  0  0
   44.2130   33.3610   40.5840 C   0  0  0  0  0  0  0  0  0  0  0  0
   45.2640   33.1300   40.8090 H   0  0  0  0  0  0  0  0  0  0  0  0
   43.5170   32.4190   39.8280 C   0  0  0  0  0  3  0  0  0  0  0  0
   42.1730   32.6690   39.5200 C   0  0  0  0  0  3  0  0  0  0  0  0
   41.5680   33.8260   39.9610 C   0  0  0  0  0  0  0  0  0  0  0  0
   40.2290   34.0680   39.6620 C   0  0  0  0  0  3  0  0  0  0  0  0
   39.6800   35.2300   40.1360 C   0  0  0  0  0  3  0  0  0  0  0  0
   40.3560   36.1790   40.8890 C   0  0  0  0  0  3  0  0  0  0  0  0
   41.6950   35.8840   41.1590 C   0  0  0  0  0  3  0  0  0  0  0  0
   42.3270   34.7190   40.7100 C   0  0  0  0  0  0  0  0  0  0  0  0
   44.3800   35.7930   44.2310 C   0  0  0  0  0  0  0  0  0  0  0  0
   44.7490   34.9490   43.1600 C   0  0  0  0  0  0  0  0  0  0  0  0
   45.3440   33.7420   43.4510 C   0  0  0  0  0  0  0  0  0  0  0  0
   45.5350   33.4450   44.7490 N   0  0  0  0  0  0  0  0  0  0  0  0
   45.1850   34.2440   45.7660 C   0  0  0  0  0  0  0  0  0  0  0  0
   44.5930   35.4470   45.5200 N   0  0  0  0  0  0  0  0  0  0  0  0
   43.9020   36.7670   44.0730 H   0  0  0  0  0  0  0  0  0  0  0  0
   45.5990   33.1460   42.5970 H   0  0  0  0  0  0  0  0  0  0  0  0
   45.3490   33.9860   46.8020 H   0  0  0  0  0  0  0  0  0  0  0  0
  1  3  1  0  0  0  0
  1 16  1  0  0  0  0
  2  1  1  0  0  0  0
  4  1  1  0  0  0  0
  5  6  1  0  0  0  0
  5  4  2  0  0  0  0
  7  5  1  0  0  0  0
  8  7  2  0  0  0  0
  8  9  1  0  0  0  0
  9 14  1  0  0  0  0
 10  9  2  0  0  0  0
 10 11  1  0  0  0  0
 11 12  2  0  0  0  0
 12 13  1  0  0  0  0
 14  4  1  0  0  0  0
 14 13  2  0  0  0  0
 15 20  1  0  0  0  0
 16 17  1  0  0  0  0
 16 15  2  0  0  0  0
 17 18  2  0  0  0  0
 18 19  1  0  0  0  0
 19 23  1  0  0  0  0
 20 19  2  0  0  0  0
 21 15  1  0  0  0  0
 22 17  1  0  0  0  0
M  END
>  <minimizedAffinity>
-5.23255348

>  <minimizedRMSD>
2.2243011

$$$$
