
 OpenBabel03252502093D

 50 55  0  0  0  0  0  0  0  0999 V2000
   45.6610   33.8390   45.4560 C   0  0  0  0  0  0  0  0  0  0  0  0
   44.7590   34.7510   45.8330 N   0  0  0  0  0  0  0  0  0  0  0  0
   44.4120   35.8200   45.1280 C   0  0  0  0  0  0  0  0  0  0  0  0
   44.9840   36.0500   43.9270 N   0  0  0  0  0  0  0  0  0  0  0  0
   45.9060   35.2100   43.4300 C   0  0  0  0  0  0  0  0  0  0  0  0
   46.5150   35.4370   42.2050 C   0  0  0  0  0  0  0  0  0  0  0  0
   47.4600   34.5990   41.7040 C   0  0  0  0  0  0  0  0  0  0  0  0
   47.7950   33.5070   42.4610 C   0  0  0  0  0  0  0  0  0  0  0  0
   47.1610   33.3110   43.6850 C   0  0  0  0  0  0  0  0  0  0  0  0
   46.2200   34.1210   44.2150 C   0  0  0  0  0  0  0  0  0  0  0  0
   43.6690   36.5280   45.4890 H   0  0  0  0  0  0  0  0  0  0  0  0
   46.2290   36.3090   41.6250 H   0  0  0  0  0  0  0  0  0  0  0  0
   47.8990   34.8210   40.7520 H   0  0  0  0  0  0  0  0  0  0  0  0
   47.5660   32.0210   47.9400 C   0  0  0  0  0  0  0  0  0  0  0  0
   47.0770   30.7100   47.9290 C   0  0  0  0  0  0  0  0  0  0  0  0
   46.0530   30.4400   47.0600 C   0  0  0  0  0  0  0  0  0  0  0  0
   45.5750   31.4120   46.2730 N   0  0  0  0  0  0  0  0  0  0  0  0
   46.0280   32.6550   46.2670 C   0  0  0  0  0  0  0  0  0  0  0  0
   47.0320   32.9380   47.1200 N   0  0  0  0  0  0  0  0  0  0  0  0
   45.5030   29.1800   47.0170 N   0  0  0  0  0  0  0  0  0  0  0  0
   44.2850   28.8250   46.2350 C   0  0  0  0  0  0  0  0  0  0  0  0
   44.2080   27.3260   46.2510 C   0  0  0  0  0  0  0  0  0  0  0  0
   44.9020   26.9710   47.5290 C   0  0  0  0  0  0  0  0  0  0  0  0
   45.9610   28.0060   47.6910 C   0  0  0  0  0  0  0  0  0  0  0  0
   48.3790   32.2820   48.6200 H   0  0  0  0  0  0  0  0  0  0  0  0
   43.4010   29.3300   46.6250 H   0  0  0  0  0  0  0  0  0  0  0  0
   44.5410   29.1290   45.1890 H   0  0  0  0  0  0  0  0  0  0  0  0
   43.1460   26.9800   46.2990 H   0  0  0  0  0  0  0  0  0  0  0  0
   44.7530   26.8450   45.4260 H   0  0  0  0  0  0  0  0  0  0  0  0
   45.2980   25.9340   47.5590 H   0  0  0  0  0  0  0  0  0  0  0  0
   44.1310   27.0050   48.3270 H   0  0  0  0  0  0  0  0  0  0  0  0
   45.9620   28.2010   48.8070 H   0  0  0  0  0  0  0  0  0  0  0  0
   46.9000   27.5850   47.3280 H   0  0  0  0  0  0  0  0  0  0  0  0
   47.6930   29.7890   48.7260 N   0  0  0  0  0  0  0  0  0  0  0  0
   48.3920   29.0430   48.5150 H   0  0  0  0  0  0  0  0  0  0  0  0
   47.2900   29.9960   49.6860 H   0  0  0  0  0  0  0  0  0  0  0  0
   48.8150   32.6230   41.9000 C   0  0  0  0  0  0  0  0  0  0  0  0
   50.1630   32.8970   42.1490 C   0  0  0  0  0  0  0  0  0  0  0  0
   50.4700   33.7580   42.7530 H   0  0  0  0  0  0  0  0  0  0  0  0
   51.1400   32.0730   41.6260 C   0  0  0  0  0  3  0  0  0  0  0  0
   50.8540   30.9770   40.8600 C   0  0  0  0  0  3  0  0  0  0  0  0
   49.5240   30.7180   40.6220 C   0  0  0  0  0  0  0  0  0  0  0  0
   49.1750   29.6280   39.8580 C   0  0  0  0  0  3  0  0  0  0  0  0
   47.8560   29.3300   39.5950 C   0  0  0  0  0  3  0  0  0  0  0  0
   46.8450   30.1190   40.0920 C   0  0  0  0  0  3  0  0  0  0  0  0
   47.2020   31.2200   40.8630 C   0  0  0  0  0  3  0  0  0  0  0  0
   48.5120   31.5130   41.1240 C   0  0  0  0  0  0  0  0  0  0  0  0
   47.6280   32.1070   44.3060 N   0  0  0  0  0  0  0  0  0  0  0  0
   48.3620   31.8640   44.9840 H   0  0  0  0  0  0  0  0  0  0  0  0
   47.0040   31.3620   43.8920 H   0  0  0  0  0  0  0  0  0  0  0  0
  1  2  1  0  0  0  0
  1 18  1  0  0  0  0
  3 11  1  0  0  0  0
  3  2  2  0  0  0  0
  4  3  1  0  0  0  0
  5  4  2  0  0  0  0
  5 10  1  0  0  0  0
  6  5  1  0  0  0  0
  7  6  2  0  0  0  0
  7  8  1  0  0  0  0
  8  9  2  0  0  0  0
  9 10  1  0  0  0  0
  9 48  1  0  0  0  0
 10  1  2  0  0  0  0
 12  6  1  0  0  0  0
 13  7  1  0  0  0  0
 14 25  1  0  0  0  0
 15 14  1  0  0  0  0
 15 34  1  0  0  0  0
 16 15  2  0  0  0  0
 17 16  1  0  0  0  0
 18 17  2  0  0  0  0
 18 19  1  0  0  0  0
 19 14  2  0  0  0  0
 20 16  1  0  0  0  0
 20 24  1  0  0  0  0
 21 22  1  0  0  0  0
 21 26  1  0  0  0  0
 21 20  1  0  0  0  0
 22 28  1  0  0  0  0
 22 23  1  0  0  0  0
 23 30  1  0  0  0  0
 23 24  1  0  0  0  0
 23 31  1  0  0  0  0
 24 32  1  0  0  0  0
 27 21  1  0  0  0  0
 29 22  1  0  0  0  0
 33 24  1  0  0  0  0
 34 36  1  0  0  0  0
 35 34  1  0  0  0  0
 37 38  1  0  0  0  0
 37  8  1  0  0  0  0
 38 39  1  0  0  0  0
 40 38  2  0  0  0  0
 41 40  1  0  0  0  0
 42 41  2  0  0  0  0
 42 47  1  0  0  0  0
 43 42  1  0  0  0  0
 44 43  2  0  0  0  0
 44 45  1  0  0  0  0
 45 46  2  0  0  0  0
 46 47  1  0  0  0  0
 47 37  2  0  0  0  0
 48 49  1  0  0  0  0
 50 48  1  0  0  0  0
M  END
>  <minimizedAffinity>
-7.32524014

>  <minimizedRMSD>
0.643869221

$$$$
