
 OpenBabel03252508363D

 33 36  0  0  0  0  0  0  0  0999 V2000
   43.9810   33.1300   40.1100 C   0  0  0  0  0  0  0  0  0  0  0  0
   42.9470   32.4610   39.4700 C   0  0  0  0  0  0  0  0  0  0  0  0
   43.2110   31.2350   38.9480 C   0  0  0  0  0  0  0  0  0  0  0  0
   44.4480   30.6230   39.0220 C   0  0  0  0  0  0  0  0  0  0  0  0
   45.4680   31.3050   39.6650 C   0  0  0  0  0  0  0  0  0  0  0  0
   45.2400   32.5430   40.2030 C   0  0  0  0  0  0  0  0  0  0  0  0
   42.3950   30.7150   38.4470 H   0  0  0  0  0  0  0  0  0  0  0  0
   44.6380   29.6480   38.6010 H   0  0  0  0  0  0  0  0  0  0  0  0
   46.4630   30.9240   39.7780 H   0  0  0  0  0  0  0  0  0  0  0  0
   40.0580   34.5890   38.2890 C   0  0  0  0  0  0  0  0  0  0  0  0
   41.3120   33.9370   38.2990 C   0  0  0  0  0  0  0  0  0  0  0  0
   41.6610   33.1530   39.4200 C   0  0  0  0  0  0  0  0  0  0  0  0
   40.7580   33.0800   40.4250 N   0  0  0  0  0  0  0  0  0  0  0  0
   39.5790   33.7120   40.3840 C   0  0  0  0  0  0  0  0  0  0  0  0
   39.2300   34.4650   39.3190 N   0  0  0  0  0  0  0  0  0  0  0  0
   39.7380   35.3610   37.1610 N   0  0  0  0  0  0  0  0  0  0  0  0
   41.9980   34.0240   37.4750 H   0  0  0  0  0  0  0  0  0  0  0  0
   38.8390   33.6740   41.1680 H   0  0  0  0  0  0  0  0  0  0  0  0
   39.1490   36.2200   37.2420 H   0  0  0  0  0  0  0  0  0  0  0  0
   40.1010   35.0650   36.2290 H   0  0  0  0  0  0  0  0  0  0  0  0
   46.3120   33.2860   40.8910 C   0  0  0  0  0  0  0  0  0  0  0  0
   47.1220   34.1140   40.1400 C   0  0  0  0  0  0  0  0  0  0  0  0
   47.0320   34.2640   39.0750 H   0  0  0  0  0  0  0  0  0  0  0  0
   48.1330   34.8130   40.8020 C   0  0  0  0  0  3  0  0  0  0  0  0
   48.2500   34.6260   42.1530 C   0  0  0  0  0  3  0  0  0  0  0  0
   47.4610   33.8100   42.9280 C   0  0  0  0  0  0  0  0  0  0  0  0
   47.6200   33.6570   44.2900 C   0  0  0  0  0  3  0  0  0  0  0  0
   46.7880   32.8150   45.0100 C   0  0  0  0  0  3  0  0  0  0  0  0
   45.8170   32.1670   44.2750 C   0  0  0  0  0  3  0  0  0  0  0  0
   45.5950   32.2670   42.9170 C   0  0  0  0  0  3  0  0  0  0  0  0
   46.4550   33.1190   42.2530 C   0  0  0  0  0  0  0  0  0  0  0  0
   43.6380   35.4780   41.1800 N   0  0  0  0  0  0  0  0  0  0  0  0
   43.7940   34.4220   40.6870 C   0  0  0  0  0  0  0  0  0  0  0  0
  1  6  1  0  0  0  0
  1 33  1  0  0  0  0
  2  1  2  0  0  0  0
  3  4  2  0  0  0  0
  3  2  1  0  0  0  0
  4  5  1  0  0  0  0
  5  9  1  0  0  0  0
  5  6  2  0  0  0  0
  6 21  1  0  0  0  0
  7  3  1  0  0  0  0
  8  4  1  0  0  0  0
 10 11  2  0  0  0  0
 10 15  1  0  0  0  0
 11 12  1  0  0  0  0
 12  2  1  0  0  0  0
 12 13  2  0  0  0  0
 14 13  1  0  0  0  0
 14 18  1  0  0  0  0
 15 14  2  0  0  0  0
 16 19  1  0  0  0  0
 16 10  1  0  0  0  0
 17 11  1  0  0  0  0
 20 16  1  0  0  0  0
 21 31  1  0  0  0  0
 22 24  1  0  0  0  0
 22 21  2  0  0  0  0
 23 22  1  0  0  0  0
 24 25  2  0  0  0  0
 25 26  1  0  0  0  0
 26 27  1  0  0  0  0
 27 28  2  0  0  0  0
 29 28  1  0  0  0  0
 30 29  2  0  0  0  0
 31 30  1  0  0  0  0
 31 26  2  0  0  0  0
 33 32  3  0  0  0  0
M  END
>  <minimizedAffinity>
-4.75457668

>  <minimizedRMSD>
6.32695007

$$$$
