
 OpenBabel03242518103D

 26 28  0  0  0  0  0  0  0  0999 V2000
   37.2090   27.8650   43.2120 C   0  0  0  0  0  0  0  0  0  0  0  0
   36.4070   27.7050   42.4670 H   0  0  0  0  0  0  0  0  0  0  0  0
   36.7720   27.7890   44.2210 H   0  0  0  0  0  0  0  0  0  0  0  0
   38.2710   26.8470   43.0880 C   0  0  0  0  0  0  0  0  0  0  0  0
   39.5060   26.9450   43.6710 C   0  0  0  0  0  0  0  0  0  0  0  0
   39.7410   27.8190   44.2760 H   0  0  0  0  0  0  0  0  0  0  0  0
   40.4780   25.9710   43.5230 C   0  0  0  0  0  3  0  0  0  0  0  0
   40.2660   24.8500   42.7860 C   0  0  0  0  0  3  0  0  0  0  0  0
   39.0180   24.7400   42.1910 C   0  0  0  0  0  0  0  0  0  0  0  0
   38.7840   23.5900   41.4350 C   0  0  0  0  0  3  0  0  0  0  0  0
   37.5750   23.3800   40.8050 C   0  0  0  0  0  3  0  0  0  0  0  0
   36.5850   24.3370   40.9360 C   0  0  0  0  0  3  0  0  0  0  0  0
   36.8680   25.4530   41.6950 C   0  0  0  0  0  3  0  0  0  0  0  0
   38.0560   25.7080   42.3410 C   0  0  0  0  0  0  0  0  0  0  0  0
   37.7370   29.2750   43.0130 C   0  0  0  0  0  0  0  0  0  0  0  0
   38.7960   29.3950   43.1720 H   0  0  0  0  0  0  0  0  0  0  0  0
   37.2460   29.8740   43.8420 H   0  0  0  0  0  0  0  0  0  0  0  0
   37.2590   29.7730   41.7170 C   0  0  0  0  0  0  0  0  0  0  0  0
   36.1670   29.2150   41.0730 C   0  0  0  0  0  0  0  0  0  0  0  0
   35.7860   29.7670   39.8270 C   0  0  0  0  0  0  0  0  0  0  0  0
   36.5160   30.8000   39.3520 N   0  0  0  0  0  0  0  0  0  0  0  0
   37.5680   31.3070   40.0130 C   0  0  0  0  0  0  0  0  0  0  0  0
   37.9370   30.8000   41.1850 N   0  0  0  0  0  0  0  0  0  0  0  0
   35.6160   28.3900   41.4940 H   0  0  0  0  0  0  0  0  0  0  0  0
   34.9420   29.3790   39.2700 H   0  0  0  0  0  0  0  0  0  0  0  0
   38.1510   32.1510   39.6090 H   0  0  0  0  0  0  0  0  0  0  0  0
  1  3  1  0  0  0  0
  2  1  1  0  0  0  0
  4  1  1  0  0  0  0
  4  5  1  0  0  0  0
  5  6  1  0  0  0  0
  7  5  2  0  0  0  0
  8  7  1  0  0  0  0
  9 14  1  0  0  0  0
  9  8  2  0  0  0  0
 10  9  1  0  0  0  0
 11 12  1  0  0  0  0
 11 10  2  0  0  0  0
 12 13  2  0  0  0  0
 13 14  1  0  0  0  0
 14  4  2  0  0  0  0
 15 16  1  0  0  0  0
 15  1  1  0  0  0  0
 15 17  1  0  0  0  0
 18 15  1  0  0  0  0
 19 24  1  0  0  0  0
 19 18  2  0  0  0  0
 20 19  1  0  0  0  0
 21 20  2  0  0  0  0
 21 22  1  0  0  0  0
 22 23  2  0  0  0  0
 23 18  1  0  0  0  0
 25 20  1  0  0  0  0
 26 22  1  0  0  0  0
M  END
>  <minimizedAffinity>
-5.46164227

$$$$

 OpenBabel03242518103D

 26 28  0  0  0  0  0  0  0  0999 V2000
   36.7370   29.5510   40.0090 C   0  0  0  0  0  0  0  0  0  0  0  0
   36.2320   28.9460   39.2330 H   0  0  0  0  0  0  0  0  0  0  0  0
   36.0860   30.4010   40.2710 H   0  0  0  0  0  0  0  0  0  0  0  0
   36.9840   28.7620   41.2320 C   0  0  0  0  0  0  0  0  0  0  0  0
   37.2750   29.3040   42.4560 C   0  0  0  0  0  0  0  0  0  0  0  0
   37.3260   30.3870   42.5590 H   0  0  0  0  0  0  0  0  0  0  0  0
   37.5090   28.5280   43.5770 C   0  0  0  0  0  3  0  0  0  0  0  0
   37.4630   27.1710   43.5340 C   0  0  0  0  0  3  0  0  0  0  0  0
   37.1690   26.6110   42.3000 C   0  0  0  0  0  0  0  0  0  0  0  0
   37.1140   25.2170   42.2420 C   0  0  0  0  0  3  0  0  0  0  0  0
   36.8250   24.5590   41.0650 C   0  0  0  0  0  3  0  0  0  0  0  0
   36.5860   25.3100   39.9280 C   0  0  0  0  0  3  0  0  0  0  0  0
   36.6520   26.6830   40.0410 C   0  0  0  0  0  3  0  0  0  0  0  0
   36.9370   27.3850   41.1900 C   0  0  0  0  0  0  0  0  0  0  0  0
   38.0210   30.0870   39.4010 C   0  0  0  0  0  0  0  0  0  0  0  0
   38.1860   29.8230   38.3690 H   0  0  0  0  0  0  0  0  0  0  0  0
   38.8420   29.5550   39.9750 H   0  0  0  0  0  0  0  0  0  0  0  0
   38.1020   31.5270   39.6770 C   0  0  0  0  0  0  0  0  0  0  0  0
   37.1470   32.4190   39.2160 C   0  0  0  0  0  0  0  0  0  0  0  0
   37.3160   33.7870   39.5360 C   0  0  0  0  0  0  0  0  0  0  0  0
   38.3980   34.1270   40.2690 N   0  0  0  0  0  0  0  0  0  0  0  0
   39.2970   33.2270   40.6950 C   0  0  0  0  0  0  0  0  0  0  0  0
   39.1520   31.9380   40.4030 N   0  0  0  0  0  0  0  0  0  0  0  0
   36.3000   32.0960   38.6320 H   0  0  0  0  0  0  0  0  0  0  0  0
   36.6080   34.5360   39.2060 H   0  0  0  0  0  0  0  0  0  0  0  0
   40.1740   33.5250   41.2930 H   0  0  0  0  0  0  0  0  0  0  0  0
  1  3  1  0  0  0  0
  1  4  1  0  0  0  0
  2  1  1  0  0  0  0
  4  5  1  0  0  0  0
  5  6  1  0  0  0  0
  5  7  2  0  0  0  0
  8  7  1  0  0  0  0
  9  8  2  0  0  0  0
 10  9  1  0  0  0  0
 11 10  2  0  0  0  0
 12 13  2  0  0  0  0
 12 11  1  0  0  0  0
 13 14  1  0  0  0  0
 14  4  2  0  0  0  0
 14  9  1  0  0  0  0
 15 18  1  0  0  0  0
 15 17  1  0  0  0  0
 15  1  1  0  0  0  0
 16 15  1  0  0  0  0
 18 23  1  0  0  0  0
 19 20  1  0  0  0  0
 19 18  2  0  0  0  0
 20 21  2  0  0  0  0
 21 22  1  0  0  0  0
 22 26  1  0  0  0  0
 23 22  2  0  0  0  0
 24 19  1  0  0  0  0
 25 20  1  0  0  0  0
M  END
>  <minimizedAffinity>
-5.46109676

$$$$

 OpenBabel03242518103D

 26 28  0  0  0  0  0  0  0  0999 V2000
   35.8060   28.4690   40.5800 C   0  0  0  0  0  0  0  0  0  0  0  0
   36.1040   28.1350   39.5690 H   0  0  0  0  0  0  0  0  0  0  0  0
   34.8320   28.0170   40.8280 H   0  0  0  0  0  0  0  0  0  0  0  0
   36.7870   28.0430   41.5980 C   0  0  0  0  0  0  0  0  0  0  0  0
   37.3070   28.8670   42.5610 C   0  0  0  0  0  0  0  0  0  0  0  0
   36.9860   29.9060   42.6020 H   0  0  0  0  0  0  0  0  0  0  0  0
   38.2330   28.4300   43.4930 C   0  0  0  0  0  3  0  0  0  0  0  0
   38.6860   27.1490   43.5100 C   0  0  0  0  0  3  0  0  0  0  0  0
   38.1650   26.3070   42.5400 C   0  0  0  0  0  0  0  0  0  0  0  0
   38.6180   24.9860   42.5500 C   0  0  0  0  0  3  0  0  0  0  0  0
   38.1610   24.0650   41.6310 C   0  0  0  0  0  3  0  0  0  0  0  0
   37.2350   24.4730   40.6880 C   0  0  0  0  0  3  0  0  0  0  0  0
   36.8210   25.7880   40.7240 C   0  0  0  0  0  3  0  0  0  0  0  0
   37.2470   26.7430   41.6180 C   0  0  0  0  0  0  0  0  0  0  0  0
   35.6470   29.9790   40.5300 C   0  0  0  0  0  0  0  0  0  0  0  0
   35.8890   30.4960   41.4440 H   0  0  0  0  0  0  0  0  0  0  0  0
   34.5320   30.1340   40.3890 H   0  0  0  0  0  0  0  0  0  0  0  0
   36.3520   30.4820   39.3440 C   0  0  0  0  0  0  0  0  0  0  0  0
   36.4590   29.7370   38.1810 C   0  0  0  0  0  0  0  0  0  0  0  0
   37.1600   30.3120   37.0940 C   0  0  0  0  0  0  0  0  0  0  0  0
   37.6780   31.5480   37.2690 N   0  0  0  0  0  0  0  0  0  0  0  0
   37.5490   32.2320   38.4160 C   0  0  0  0  0  0  0  0  0  0  0  0
   36.8920   31.7050   39.4460 N   0  0  0  0  0  0  0  0  0  0  0  0
   36.0270   28.7530   38.0920 H   0  0  0  0  0  0  0  0  0  0  0  0
   37.2800   29.7850   36.1570 H   0  0  0  0  0  0  0  0  0  0  0  0
   37.9790   33.2390   38.5390 H   0  0  0  0  0  0  0  0  0  0  0  0
  1  3  1  0  0  0  0
  1  4  1  0  0  0  0
  2  1  1  0  0  0  0
  4 14  2  0  0  0  0
  4  5  1  0  0  0  0
  5  6  1  0  0  0  0
  5  7  2  0  0  0  0
  7  8  1  0  0  0  0
  9 10  1  0  0  0  0
  9  8  2  0  0  0  0
 11 10  2  0  0  0  0
 12 13  2  0  0  0  0
 12 11  1  0  0  0  0
 13 14  1  0  0  0  0
 14  9  1  0  0  0  0
 15  1  1  0  0  0  0
 15 16  1  0  0  0  0
 17 15  1  0  0  0  0
 18 23  1  0  0  0  0
 18 15  1  0  0  0  0
 19 18  2  0  0  0  0
 20 21  2  0  0  0  0
 20 19  1  0  0  0  0
 21 22  1  0  0  0  0
 22 26  1  0  0  0  0
 22 23  2  0  0  0  0
 24 19  1  0  0  0  0
 25 20  1  0  0  0  0
M  END
>  <minimizedAffinity>
-5.41472816

$$$$

 OpenBabel03242518103D

 26 28  0  0  0  0  0  0  0  0999 V2000
   36.9140   27.8820   42.7220 C   0  0  0  0  0  0  0  0  0  0  0  0
   36.1710   27.8580   43.5410 H   0  0  0  0  0  0  0  0  0  0  0  0
   37.7080   28.5990   42.9880 H   0  0  0  0  0  0  0  0  0  0  0  0
   37.5340   26.5580   42.5180 C   0  0  0  0  0  0  0  0  0  0  0  0
   36.8740   25.4640   42.0230 C   0  0  0  0  0  0  0  0  0  0  0  0
   35.8250   25.5560   41.7490 H   0  0  0  0  0  0  0  0  0  0  0  0
   37.4910   24.2370   41.8550 C   0  0  0  0  0  3  0  0  0  0  0  0
   38.7970   24.0390   42.1730 C   0  0  0  0  0  3  0  0  0  0  0  0
   39.4740   25.1400   42.6740 C   0  0  0  0  0  0  0  0  0  0  0  0
   40.8190   24.9520   43.0000 C   0  0  0  0  0  3  0  0  0  0  0  0
   41.5860   25.9830   43.5020 C   0  0  0  0  0  3  0  0  0  0  0  0
   40.9960   27.2200   43.6800 C   0  0  0  0  0  3  0  0  0  0  0  0
   39.6660   27.3510   43.3420 C   0  0  0  0  0  3  0  0  0  0  0  0
   38.8600   26.3560   42.8390 C   0  0  0  0  0  0  0  0  0  0  0  0
   36.2010   28.3820   41.4770 C   0  0  0  0  0  0  0  0  0  0  0  0
   35.1320   28.4830   41.5700 H   0  0  0  0  0  0  0  0  0  0  0  0
   36.3530   27.5520   40.7200 H   0  0  0  0  0  0  0  0  0  0  0  0
   36.8850   29.5920   41.0040 C   0  0  0  0  0  0  0  0  0  0  0  0
   36.2060   30.7760   40.7700 C   0  0  0  0  0  0  0  0  0  0  0  0
   36.9560   31.8860   40.3140 C   0  0  0  0  0  0  0  0  0  0  0  0
   38.2850   31.7100   40.1380 N   0  0  0  0  0  0  0  0  0  0  0  0
   38.9000   30.5430   40.3780 C   0  0  0  0  0  0  0  0  0  0  0  0
   38.2080   29.4920   40.8070 N   0  0  0  0  0  0  0  0  0  0  0  0
   35.1430   30.8650   40.9260 H   0  0  0  0  0  0  0  0  0  0  0  0
   36.4890   32.8410   40.1120 H   0  0  0  0  0  0  0  0  0  0  0  0
   39.9840   30.4200   40.2270 H   0  0  0  0  0  0  0  0  0  0  0  0
  1  3  1  0  0  0  0
  1  2  1  0  0  0  0
  4  1  1  0  0  0  0
  4 14  1  0  0  0  0
  5  4  2  0  0  0  0
  6  5  1  0  0  0  0
  7  5  1  0  0  0  0
  7  8  2  0  0  0  0
  8  9  1  0  0  0  0
  9 14  2  0  0  0  0
  9 10  1  0  0  0  0
 10 11  2  0  0  0  0
 11 12  1  0  0  0  0
 13 12  2  0  0  0  0
 14 13  1  0  0  0  0
 15 16  1  0  0  0  0
 15  1  1  0  0  0  0
 17 15  1  0  0  0  0
 18 15  1  0  0  0  0
 19 24  1  0  0  0  0
 19 18  2  0  0  0  0
 20 19  1  0  0  0  0
 21 20  2  0  0  0  0
 21 22  1  0  0  0  0
 22 23  2  0  0  0  0
 23 18  1  0  0  0  0
 25 20  1  0  0  0  0
 26 22  1  0  0  0  0
M  END
>  <minimizedAffinity>
-5.37690067

$$$$

 OpenBabel03242518103D

 26 28  0  0  0  0  0  0  0  0999 V2000
   35.7740   29.7770   39.6470 C   0  0  0  0  0  0  0  0  0  0  0  0
   34.6890   29.8250   39.4420 H   0  0  0  0  0  0  0  0  0  0  0  0
   35.9950   30.4040   40.5260 H   0  0  0  0  0  0  0  0  0  0  0  0
   36.2060   28.3960   39.9420 C   0  0  0  0  0  0  0  0  0  0  0  0
   36.0590   27.3400   39.0820 C   0  0  0  0  0  0  0  0  0  0  0  0
   35.6020   27.5080   38.1080 H   0  0  0  0  0  0  0  0  0  0  0  0
   36.4700   26.0580   39.4020 C   0  0  0  0  0  3  0  0  0  0  0  0
   37.0490   25.7650   40.5950 C   0  0  0  0  0  3  0  0  0  0  0  0
   37.2030   26.8270   41.4730 C   0  0  0  0  0  0  0  0  0  0  0  0
   37.8010   26.5410   42.7020 C   0  0  0  0  0  3  0  0  0  0  0  0
   38.0060   27.5260   43.6460 C   0  0  0  0  0  3  0  0  0  0  0  0
   37.6060   28.8160   43.3540 C   0  0  0  0  0  3  0  0  0  0  0  0
   37.0210   29.0440   42.1260 C   0  0  0  0  0  3  0  0  0  0  0  0
   36.7950   28.0970   41.1530 C   0  0  0  0  0  0  0  0  0  0  0  0
   36.4890   30.3580   38.4390 C   0  0  0  0  0  0  0  0  0  0  0  0
   35.8450   30.7150   37.6530 H   0  0  0  0  0  0  0  0  0  0  0  0
   37.0370   29.4720   37.9900 H   0  0  0  0  0  0  0  0  0  0  0  0
   37.4740   31.3400   38.9090 C   0  0  0  0  0  0  0  0  0  0  0  0
   37.2150   32.1910   39.9710 C   0  0  0  0  0  0  0  0  0  0  0  0
   38.2300   33.1020   40.3460 C   0  0  0  0  0  0  0  0  0  0  0  0
   39.3820   33.0780   39.6400 N   0  0  0  0  0  0  0  0  0  0  0  0
   39.5880   32.2350   38.6180 C   0  0  0  0  0  0  0  0  0  0  0  0
   38.6440   31.3720   38.2540 N   0  0  0  0  0  0  0  0  0  0  0  0
   36.2780   32.1700   40.5030 H   0  0  0  0  0  0  0  0  0  0  0  0
   38.0940   33.7950   41.1670 H   0  0  0  0  0  0  0  0  0  0  0  0
   40.5350   32.2310   38.0540 H   0  0  0  0  0  0  0  0  0  0  0  0
  1  4  1  0  0  0  0
  1  3  1  0  0  0  0
  2  1  1  0  0  0  0
  4 14  1  0  0  0  0
  5  7  1  0  0  0  0
  5  4  2  0  0  0  0
  6  5  1  0  0  0  0
  7  8  2  0  0  0  0
  8  9  1  0  0  0  0
  9 10  1  0  0  0  0
 10 11  2  0  0  0  0
 12 11  1  0  0  0  0
 13 12  2  0  0  0  0
 14  9  2  0  0  0  0
 14 13  1  0  0  0  0
 15 18  1  0  0  0  0
 15  1  1  0  0  0  0
 16 15  1  0  0  0  0
 17 15  1  0  0  0  0
 18 19  1  0  0  0  0
 19 20  2  0  0  0  0
 19 24  1  0  0  0  0
 20 25  1  0  0  0  0
 21 20  1  0  0  0  0
 22 21  2  0  0  0  0
 23 22  1  0  0  0  0
 23 18  2  0  0  0  0
 26 22  1  0  0  0  0
M  END
>  <minimizedAffinity>
-5.26098442

$$$$

 OpenBabel03242518103D

 26 28  0  0  0  0  0  0  0  0999 V2000
   36.2430   28.0410   41.9490 C   0  0  0  0  0  0  0  0  0  0  0  0
   35.2470   28.0790   42.4280 H   0  0  0  0  0  0  0  0  0  0  0  0
   36.3380   27.0850   41.4090 H   0  0  0  0  0  0  0  0  0  0  0  0
   36.4180   29.1410   40.9800 C   0  0  0  0  0  0  0  0  0  0  0  0
   36.7240   30.4310   41.3230 C   0  0  0  0  0  0  0  0  0  0  0  0
   36.8580   30.6850   42.3740 H   0  0  0  0  0  0  0  0  0  0  0  0
   36.8710   31.4350   40.3820 C   0  0  0  0  0  3  0  0  0  0  0  0
   36.7210   31.2030   39.0530 C   0  0  0  0  0  3  0  0  0  0  0  0
   36.4110   29.9000   38.6950 C   0  0  0  0  0  0  0  0  0  0  0  0
   36.2590   29.6450   37.3300 C   0  0  0  0  0  3  0  0  0  0  0  0
   35.9560   28.3820   36.8660 C   0  0  0  0  0  3  0  0  0  0  0  0
   35.8040   27.3590   37.7830 C   0  0  0  0  0  3  0  0  0  0  0  0
   35.9660   27.6650   39.1180 C   0  0  0  0  0  3  0  0  0  0  0  0
   36.2680   28.9060   39.6300 C   0  0  0  0  0  0  0  0  0  0  0  0
   37.2800   28.0810   43.0590 C   0  0  0  0  0  0  0  0  0  0  0  0
   36.8960   28.3240   44.0370 H   0  0  0  0  0  0  0  0  0  0  0  0
   37.9490   28.9530   42.7810 H   0  0  0  0  0  0  0  0  0  0  0  0
   38.0650   26.8410   43.0080 C   0  0  0  0  0  0  0  0  0  0  0  0
   37.6310   25.7250   42.3120 C   0  0  0  0  0  0  0  0  0  0  0  0
   38.4610   24.5790   42.3250 C   0  0  0  0  0  0  0  0  0  0  0  0
   39.6200   24.6550   43.0160 N   0  0  0  0  0  0  0  0  0  0  0  0
   39.9990   25.7600   43.6760 C   0  0  0  0  0  0  0  0  0  0  0  0
   39.2300   26.8450   43.6720 N   0  0  0  0  0  0  0  0  0  0  0  0
   36.6970   25.7150   41.7750 H   0  0  0  0  0  0  0  0  0  0  0  0
   38.1830   23.6720   41.8030 H   0  0  0  0  0  0  0  0  0  0  0  0
   40.9480   25.8020   44.2340 H   0  0  0  0  0  0  0  0  0  0  0  0
  1  2  1  0  0  0  0
  1 15  1  0  0  0  0
  3  1  1  0  0  0  0
  4  5  1  0  0  0  0
  4  1  1  0  0  0  0
  5  6  1  0  0  0  0
  7  5  2  0  0  0  0
  8  7  1  0  0  0  0
  9  8  2  0  0  0  0
  9 14  1  0  0  0  0
 10  9  1  0  0  0  0
 11 10  2  0  0  0  0
 11 12  1  0  0  0  0
 12 13  2  0  0  0  0
 13 14  1  0  0  0  0
 14  4  2  0  0  0  0
 15 16  1  0  0  0  0
 17 15  1  0  0  0  0
 18 15  1  0  0  0  0
 18 23  1  0  0  0  0
 19 20  1  0  0  0  0
 19 18  2  0  0  0  0
 20 21  2  0  0  0  0
 21 22  1  0  0  0  0
 22 26  1  0  0  0  0
 23 22  2  0  0  0  0
 24 19  1  0  0  0  0
 25 20  1  0  0  0  0
M  END
>  <minimizedAffinity>
-5.19537497

$$$$

 OpenBabel03242518103D

 26 28  0  0  0  0  0  0  0  0999 V2000
   35.8830   28.2550   39.7360 C   0  0  0  0  0  0  0  0  0  0  0  0
   36.5730   28.4150   38.8870 H   0  0  0  0  0  0  0  0  0  0  0  0
   35.0360   27.6410   39.3910 H   0  0  0  0  0  0  0  0  0  0  0  0
   36.5500   27.5440   40.8450 C   0  0  0  0  0  0  0  0  0  0  0  0
   36.9320   28.1320   42.0210 C   0  0  0  0  0  0  0  0  0  0  0  0
   36.7340   29.1920   42.1750 H   0  0  0  0  0  0  0  0  0  0  0  0
   37.5640   27.4300   43.0330 C   0  0  0  0  0  3  0  0  0  0  0  0
   37.8460   26.1060   42.9220 C   0  0  0  0  0  3  0  0  0  0  0  0
   37.4640   25.5010   41.7350 C   0  0  0  0  0  0  0  0  0  0  0  0
   37.7440   24.1380   41.6090 C   0  0  0  0  0  3  0  0  0  0  0  0
   37.4020   23.4390   40.4710 C   0  0  0  0  0  3  0  0  0  0  0  0
   36.7690   24.1140   39.4430 C   0  0  0  0  0  3  0  0  0  0  0  0
   36.5160   25.4580   39.6200 C   0  0  0  0  0  3  0  0  0  0  0  0
   36.8370   26.1990   40.7340 C   0  0  0  0  0  0  0  0  0  0  0  0
   35.3600   29.6170   40.1580 C   0  0  0  0  0  0  0  0  0  0  0  0
   35.0930   29.7040   41.1990 H   0  0  0  0  0  0  0  0  0  0  0  0
   34.3830   29.7250   39.5930 H   0  0  0  0  0  0  0  0  0  0  0  0
   36.3000   30.6420   39.6880 C   0  0  0  0  0  0  0  0  0  0  0  0
   36.7580   30.6750   38.3810 C   0  0  0  0  0  0  0  0  0  0  0  0
   37.6630   31.7040   38.0270 C   0  0  0  0  0  0  0  0  0  0  0  0
   38.0170   32.5830   38.9910 N   0  0  0  0  0  0  0  0  0  0  0  0
   37.5460   32.5110   40.2450 C   0  0  0  0  0  0  0  0  0  0  0  0
   36.6950   31.5510   40.5920 N   0  0  0  0  0  0  0  0  0  0  0  0
   36.4450   29.9490   37.6480 H   0  0  0  0  0  0  0  0  0  0  0  0
   38.0600   31.7880   37.0230 H   0  0  0  0  0  0  0  0  0  0  0  0
   37.8470   33.2380   41.0170 H   0  0  0  0  0  0  0  0  0  0  0  0
  1 15  1  0  0  0  0
  1  4  1  0  0  0  0
  2  1  1  0  0  0  0
  3  1  1  0  0  0  0
  4  5  1  0  0  0  0
  5  6  1  0  0  0  0
  5  7  2  0  0  0  0
  8  7  1  0  0  0  0
  9  8  2  0  0  0  0
 10  9  1  0  0  0  0
 11 10  2  0  0  0  0
 12 13  2  0  0  0  0
 12 11  1  0  0  0  0
 13 14  1  0  0  0  0
 14  4  2  0  0  0  0
 14  9  1  0  0  0  0
 15 16  1  0  0  0  0
 17 15  1  0  0  0  0
 18 15  1  0  0  0  0
 18 23  1  0  0  0  0
 19 18  2  0  0  0  0
 20 19  1  0  0  0  0
 20 21  2  0  0  0  0
 21 22  1  0  0  0  0
 22 23  2  0  0  0  0
 22 26  1  0  0  0  0
 24 19  1  0  0  0  0
 25 20  1  0  0  0  0
M  END
>  <minimizedAffinity>
-5.10169506

$$$$

 OpenBabel03242518103D

 26 28  0  0  0  0  0  0  0  0999 V2000
   37.4900   29.4340   39.9320 C   0  0  0  0  0  0  0  0  0  0  0  0
   38.3200   30.1640   39.9490 H   0  0  0  0  0  0  0  0  0  0  0  0
   37.6780   28.7050   39.1260 H   0  0  0  0  0  0  0  0  0  0  0  0
   37.3940   28.6990   41.2080 C   0  0  0  0  0  0  0  0  0  0  0  0
   37.4970   29.2800   42.4440 C   0  0  0  0  0  0  0  0  0  0  0  0
   37.6530   30.3550   42.5150 H   0  0  0  0  0  0  0  0  0  0  0  0
   37.4090   28.5520   43.6180 C   0  0  0  0  0  3  0  0  0  0  0  0
   37.2140   27.2080   43.6180 C   0  0  0  0  0  3  0  0  0  0  0  0
   37.1080   26.6100   42.3720 C   0  0  0  0  0  0  0  0  0  0  0  0
   36.9020   25.2280   42.3570 C   0  0  0  0  0  3  0  0  0  0  0  0
   36.7770   24.5350   41.1710 C   0  0  0  0  0  3  0  0  0  0  0  0
   36.8610   25.2360   39.9830 C   0  0  0  0  0  3  0  0  0  0  0  0
   37.0640   26.5980   40.0550 C   0  0  0  0  0  3  0  0  0  0  0  0
   37.1940   27.3340   41.2100 C   0  0  0  0  0  0  0  0  0  0  0  0
   36.2190   30.2000   39.6110 C   0  0  0  0  0  0  0  0  0  0  0  0
   36.3400   31.2660   39.5050 H   0  0  0  0  0  0  0  0  0  0  0  0
   35.5760   30.0690   40.5370 H   0  0  0  0  0  0  0  0  0  0  0  0
   35.5570   29.5500   38.4740 C   0  0  0  0  0  0  0  0  0  0  0  0
   34.3760   28.8390   38.6180 C   0  0  0  0  0  0  0  0  0  0  0  0
   33.8190   28.2490   37.4590 C   0  0  0  0  0  0  0  0  0  0  0  0
   34.4790   28.4190   36.2930 N   0  0  0  0  0  0  0  0  0  0  0  0
   35.6210   29.1160   36.2010 C   0  0  0  0  0  0  0  0  0  0  0  0
   36.1570   29.6770   37.2810 N   0  0  0  0  0  0  0  0  0  0  0  0
   33.8880   28.7320   39.5730 H   0  0  0  0  0  0  0  0  0  0  0  0
   32.8990   27.6800   37.5010 H   0  0  0  0  0  0  0  0  0  0  0  0
   36.1450   29.2440   35.2400 H   0  0  0  0  0  0  0  0  0  0  0  0
  1  2  1  0  0  0  0
  1  4  1  0  0  0  0
  3  1  1  0  0  0  0
  4 14  2  0  0  0  0
  4  5  1  0  0  0  0
  5  6  1  0  0  0  0
  5  7  2  0  0  0  0
  8  7  1  0  0  0  0
  9  8  2  0  0  0  0
 10  9  1  0  0  0  0
 11 10  2  0  0  0  0
 12 13  2  0  0  0  0
 12 11  1  0  0  0  0
 13 14  1  0  0  0  0
 14  9  1  0  0  0  0
 15  1  1  0  0  0  0
 15 17  1  0  0  0  0
 16 15  1  0  0  0  0
 18 19  1  0  0  0  0
 18 15  1  0  0  0  0
 19 24  1  0  0  0  0
 20 25  1  0  0  0  0
 20 19  2  0  0  0  0
 21 20  1  0  0  0  0
 22 21  2  0  0  0  0
 22 23  1  0  0  0  0
 23 18  2  0  0  0  0
 26 22  1  0  0  0  0
M  END
>  <minimizedAffinity>
-5.02630472

$$$$

 OpenBabel03242518103D

 26 28  0  0  0  0  0  0  0  0999 V2000
   35.5050   29.6620   40.3040 C   0  0  0  0  0  0  0  0  0  0  0  0
   34.5050   30.1200   40.4150 H   0  0  0  0  0  0  0  0  0  0  0  0
   35.4270   28.5860   40.5290 H   0  0  0  0  0  0  0  0  0  0  0  0
   36.0160   29.8120   38.9270 C   0  0  0  0  0  0  0  0  0  0  0  0
   37.1980   30.4230   38.6040 C   0  0  0  0  0  0  0  0  0  0  0  0
   37.8230   30.8260   39.3990 H   0  0  0  0  0  0  0  0  0  0  0  0
   37.6370   30.5510   37.2970 C   0  0  0  0  0  3  0  0  0  0  0  0
   36.9180   30.0750   36.2480 C   0  0  0  0  0  3  0  0  0  0  0  0
   35.7190   29.4550   36.5640 C   0  0  0  0  0  0  0  0  0  0  0  0
   34.9710   28.9560   35.4940 C   0  0  0  0  0  3  0  0  0  0  0  0
   33.7660   28.3170   35.6980 C   0  0  0  0  0  3  0  0  0  0  0  0
   33.3030   28.1750   36.9930 C   0  0  0  0  0  3  0  0  0  0  0  0
   34.0810   28.6840   38.0120 C   0  0  0  0  0  3  0  0  0  0  0  0
   35.2870   29.3290   37.8600 C   0  0  0  0  0  0  0  0  0  0  0  0
   36.4180   30.3110   41.3300 C   0  0  0  0  0  0  0  0  0  0  0  0
   35.9440   31.0340   41.9730 H   0  0  0  0  0  0  0  0  0  0  0  0
   37.1530   30.9090   40.7070 H   0  0  0  0  0  0  0  0  0  0  0  0
   37.1460   29.2530   42.0410 C   0  0  0  0  0  0  0  0  0  0  0  0
   38.4590   29.4120   42.4530 C   0  0  0  0  0  0  0  0  0  0  0  0
   39.0710   28.3310   43.1300 C   0  0  0  0  0  0  0  0  0  0  0  0
   38.3310   27.2180   43.3270 N   0  0  0  0  0  0  0  0  0  0  0  0
   37.0600   27.1090   42.9100 C   0  0  0  0  0  0  0  0  0  0  0  0
   36.4710   28.1170   42.2730 N   0  0  0  0  0  0  0  0  0  0  0  0
   39.0070   30.3220   42.2710 H   0  0  0  0  0  0  0  0  0  0  0  0
   40.0940   28.3890   43.4790 H   0  0  0  0  0  0  0  0  0  0  0  0
   36.4730   26.1930   43.0810 H   0  0  0  0  0  0  0  0  0  0  0  0
  1  2  1  0  0  0  0
  1  3  1  0  0  0  0
  1 15  1  0  0  0  0
  4  1  1  0  0  0  0
  5  4  1  0  0  0  0
  5  6  1  0  0  0  0
  7  5  2  0  0  0  0
  8  9  2  0  0  0  0
  8  7  1  0  0  0  0
  9 14  1  0  0  0  0
 10 11  2  0  0  0  0
 10  9  1  0  0  0  0
 11 12  1  0  0  0  0
 12 13  2  0  0  0  0
 14 13  1  0  0  0  0
 14  4  2  0  0  0  0
 15 16  1  0  0  0  0
 15 18  1  0  0  0  0
 17 15  1  0  0  0  0
 18 23  2  0  0  0  0
 18 19  1  0  0  0  0
 19 20  2  0  0  0  0
 20 21  1  0  0  0  0
 20 25  1  0  0  0  0
 22 26  1  0  0  0  0
 22 21  2  0  0  0  0
 23 22  1  0  0  0  0
 24 19  1  0  0  0  0
M  END
>  <minimizedAffinity>
-4.97465324

$$$$
