
 OpenBabel03252506373D

 46 50  0  0  1  0  0  0  0  0999 V2000
   44.4760   35.5200   45.0730 C   0  0  0  0  0  0  0  0  0  0  0  0
   45.1720   35.5130   43.8550 C   0  0  0  0  0  0  0  0  0  0  0  0
   46.1330   34.5850   43.6480 C   0  0  0  0  0  0  0  0  0  0  0  0
   46.3680   33.7020   44.6510 N   0  0  0  0  0  0  0  0  0  0  0  0
   45.7090   33.7120   45.7990 C   0  0  0  0  0  0  0  0  0  0  0  0
   44.7560   34.6150   46.0310 N   0  0  0  0  0  0  0  0  0  0  0  0
   46.0430   32.7300   46.7960 N   0  0  0  0  0  0  0  0  0  0  0  0
   45.2720   32.4750   47.9610 C   0  0  0  0  0  0  0  0  0  0  0  0
   46.3270   32.1870   49.0140 C   0  0  0  0  0  0  0  0  0  0  0  0
   47.6350   32.1190   48.2900 C   0  0  0  0  0  0  0  0  0  0  0  0
   47.1950   31.8620   46.8500 C   0  0  1  0  0  0  0  0  0  0  0  0
   43.6930   36.2380   45.3030 H   0  0  0  0  0  0  0  0  0  0  0  0
   46.6700   34.5660   42.7310 H   0  0  0  0  0  0  0  0  0  0  0  0
   44.8670   33.4870   48.2890 H   0  0  0  0  0  0  0  0  0  0  0  0
   44.4580   31.8250   48.0210 H   0  0  0  0  0  0  0  0  0  0  0  0
   46.3000   32.8380   49.8840 H   0  0  0  0  0  0  0  0  0  0  0  0
   46.1120   31.1540   49.3990 H   0  0  0  0  0  0  0  0  0  0  0  0
   48.2930   31.3060   48.6580 H   0  0  0  0  0  0  0  0  0  0  0  0
   48.1240   33.1150   48.3220 H   0  0  0  0  0  0  0  0  0  0  0  0
   48.0120   32.1670   46.1720 H   0  0  0  0  0  0  0  0  0  0  0  0
   44.8020   36.5180   42.8960 N   0  0  0  0  0  0  0  0  0  0  0  0
   44.0360   36.0670   42.3540 H   0  0  0  0  0  0  0  0  0  0  0  0
   45.2600   37.4590   42.8370 H   0  0  0  0  0  0  0  0  0  0  0  0
   46.7520   30.1480   46.6790 S   0  0  0  0  0  0  0  0  0  0  0  0
   45.9020   30.6910   43.4990 O   0  0  0  0  0  0  0  0  0  0  0  0
   45.2570   30.0720   44.3590 C   0  0  0  0  0  0  0  0  0  0  0  0
   45.2800   29.7920   45.8160 C   0  0  1  0  0  0  0  0  0  0  0  0
   44.8310   28.3520   45.8630 C   0  0  0  0  0  0  0  0  0  0  0  0
   43.5540   28.5060   45.0290 C   0  0  0  0  0  0  0  0  0  0  0  0
   44.0810   29.3430   43.9580 N   0  0  0  0  0  0  0  0  0  0  0  0
   44.3360   30.3210   46.1250 H   0  0  0  0  0  0  0  0  0  0  0  0
   44.5440   28.0640   46.8890 H   0  0  0  0  0  0  0  0  0  0  0  0
   45.5170   27.6600   45.3720 H   0  0  0  0  0  0  0  0  0  0  0  0
   42.7520   28.9750   45.6060 H   0  0  0  0  0  0  0  0  0  0  0  0
   43.2970   27.4910   44.6570 H   0  0  0  0  0  0  0  0  0  0  0  0
   43.3780   29.3230   42.7000 C   0  0  0  0  0  0  0  0  0  0  0  0
   44.2200   29.1550   41.6060 C   0  0  0  0  0  0  0  0  0  0  0  0
   45.2920   29.0480   41.6600 H   0  0  0  0  0  0  0  0  0  0  0  0
   43.7210   29.1100   40.3040 C   0  0  0  0  0  3  0  0  0  0  0  0
   42.3470   29.2400   40.1570 C   0  0  0  0  0  3  0  0  0  0  0  0
   41.5200   29.4050   41.2380 C   0  0  0  0  0  0  0  0  0  0  0  0
   40.1450   29.5380   41.1250 C   0  0  0  0  0  3  0  0  0  0  0  0
   39.3640   29.7010   42.2310 C   0  0  0  0  0  3  0  0  0  0  0  0
   39.8930   29.7420   43.5220 C   0  0  0  0  0  3  0  0  0  0  0  0
   41.2740   29.6110   43.6690 C   0  0  0  0  0  3  0  0  0  0  0  0
   42.0200   29.4510   42.5410 C   0  0  0  0  0  0  0  0  0  0  0  0
  1 12  1  0  0  0  0
  1  6  1  0  0  0  0
  2  1  2  0  0  0  0
  3  2  1  0  0  0  0
  3  4  2  0  0  0  0
  4  5  1  0  0  0  0
  5  6  2  0  0  0  0
  5  7  1  0  0  0  0
  7 11  1  0  0  0  0
  7  8  1  0  0  0  0
  8 15  1  0  0  0  0
  8 14  1  0  0  0  0
  8  9  1  0  0  0  0
  9 17  1  0  0  0  0
  9 16  1  0  0  0  0
 10 19  1  0  0  0  0
 10 18  1  0  0  0  0
 10  9  1  0  0  0  0
 11 20  1  6  0  0  0
 11 10  1  0  0  0  0
 13  3  1  0  0  0  0
 21  2  1  0  0  0  0
 22 21  1  0  0  0  0
 23 21  1  0  0  0  0
 24 11  1  0  0  0  0
 25 26  2  0  0  0  0
 26 27  1  0  0  0  0
 27 28  1  0  0  0  0
 27 31  1  1  0  0  0
 27 24  1  0  0  0  0
 28 32  1  0  0  0  0
 29 34  1  0  0  0  0
 29 28  1  0  0  0  0
 30 26  1  0  0  0  0
 30 29  1  0  0  0  0
 33 28  1  0  0  0  0
 35 29  1  0  0  0  0
 36 30  1  0  0  0  0
 37 38  1  0  0  0  0
 37 36  2  0  0  0  0
 39 37  1  0  0  0  0
 40 39  2  0  0  0  0
 40 41  1  0  0  0  0
 41 46  1  0  0  0  0
 42 41  2  0  0  0  0
 42 43  1  0  0  0  0
 43 44  2  0  0  0  0
 44 45  1  0  0  0  0
 46 36  1  0  0  0  0
 46 45  2  0  0  0  0
M  END
>  <minimizedAffinity>
-5.74739313

>  <minimizedRMSD>
0.465844154

$$$$
