
 OpenBabel03252508333D

 34 37  0  0  1  0  0  0  0  0999 V2000
   44.0520   34.3070   41.8540 N   0  0  0  0  0  0  0  0  0  0  0  0
   43.8620   33.2810   40.9390 C   0  0  1  0  0  0  0  0  0  0  0  0
   43.1450   33.6430   39.6790 C   0  0  0  0  0  0  0  0  0  0  0  0
   42.0810   34.5410   39.8040 N   0  0  0  0  0  0  0  0  0  0  0  0
   42.1540   35.4960   40.8350 C   0  0  0  0  0  0  0  0  0  0  0  0
   43.5680   35.5950   41.3990 C   0  0  0  0  0  0  0  0  0  0  0  0
   43.0800   32.6140   41.4630 H   0  0  0  0  0  0  0  0  0  0  0  0
   43.8150   34.0000   38.8710 H   0  0  0  0  0  0  0  0  0  0  0  0
   42.7310   32.6780   39.2580 H   0  0  0  0  0  0  0  0  0  0  0  0
   41.1320   34.1990   39.5980 H   0  0  0  0  0  0  0  0  0  0  0  0
   41.8270   36.5070   40.6130 H   0  0  0  0  0  0  0  0  0  0  0  0
   41.5360   35.1310   41.6910 H   0  0  0  0  0  0  0  0  0  0  0  0
   43.5430   36.3820   42.1410 H   0  0  0  0  0  0  0  0  0  0  0  0
   44.1820   35.9490   40.5420 H   0  0  0  0  0  0  0  0  0  0  0  0
   44.9180   32.3300   40.5580 C   0  0  0  0  0  0  0  0  0  0  0  0
   44.6230   30.9450   40.5640 C   0  0  0  0  0  0  0  0  0  0  0  0
   43.6170   30.6220   40.8800 H   0  0  0  0  0  0  0  0  0  0  0  0
   45.4530   29.9310   40.2180 C   0  0  0  0  0  3  0  0  0  0  0  0
   46.7250   30.2450   39.8120 C   0  0  0  0  0  3  0  0  0  0  0  0
   47.1300   31.5580   39.7630 C   0  0  0  0  0  0  0  0  0  0  0  0
   48.3940   31.9350   39.3640 C   0  0  0  0  0  3  0  0  0  0  0  0
   48.8160   33.2680   39.3130 C   0  0  0  0  0  3  0  0  0  0  0  0
   47.8850   34.2410   39.6910 C   0  0  0  0  0  3  0  0  0  0  0  0
   46.6380   33.8170   40.0800 C   0  0  0  0  0  3  0  0  0  0  0  0
   46.2180   32.5110   40.1330 C   0  0  0  0  0  0  0  0  0  0  0  0
   44.6710   35.1070   44.0220 C   0  0  0  0  0  0  0  0  0  0  0  0
   44.6310   34.0670   43.1080 C   0  0  0  0  0  0  0  0  0  0  0  0
   45.1550   32.8610   43.5010 C   0  0  0  0  0  0  0  0  0  0  0  0
   45.6870   32.6930   44.7230 N   0  0  0  0  0  0  0  0  0  0  0  0
   45.7110   33.7380   45.6020 C   0  0  0  0  0  0  0  0  0  0  0  0
   45.2140   34.9140   45.2540 N   0  0  0  0  0  0  0  0  0  0  0  0
   44.3190   36.1200   43.9220 H   0  0  0  0  0  0  0  0  0  0  0  0
   45.1870   31.9730   42.9320 H   0  0  0  0  0  0  0  0  0  0  0  0
   46.1510   33.5820   46.6000 H   0  0  0  0  0  0  0  0  0  0  0  0
  1 27  1  0  0  0  0
  2  7  1  1  0  0  0
  2  1  1  0  0  0  0
  3  4  1  0  0  0  0
  3  2  1  0  0  0  0
  4  5  1  0  0  0  0
  5  6  1  0  0  0  0
  5 12  1  0  0  0  0
  6  1  1  0  0  0  0
  6 13  1  0  0  0  0
  8  3  1  0  0  0  0
  9  3  1  0  0  0  0
 10  4  1  0  0  0  0
 11  5  1  0  0  0  0
 14  6  1  0  0  0  0
 15 16  1  0  0  0  0
 15  2  1  0  0  0  0
 16 17  1  0  0  0  0
 18 16  2  0  0  0  0
 19 18  1  0  0  0  0
 20 19  2  0  0  0  0
 20 25  1  0  0  0  0
 21 20  1  0  0  0  0
 22 21  2  0  0  0  0
 22 23  1  0  0  0  0
 23 24  2  0  0  0  0
 24 25  1  0  0  0  0
 25 15  2  0  0  0  0
 26 31  1  0  0  0  0
 27 28  1  0  0  0  0
 27 26  2  0  0  0  0
 28 29  2  0  0  0  0
 29 30  1  0  0  0  0
 30 34  1  0  0  0  0
 31 30  2  0  0  0  0
 32 26  1  0  0  0  0
 33 28  1  0  0  0  0
M  END
>  <minimizedAffinity>
-4.29554081

>  <minimizedRMSD>
1.00896692

$$$$
