
 OpenBabel03242518433D

 21 23  0  0  0  0  0  0  0  0999 V2000
   37.2720   28.8660   41.2700 C   0  0  0  0  0  0  0  0  0  0  0  0
   37.4100   29.3010   42.5920 C   0  0  0  0  0  0  0  0  0  0  0  0
   37.5370   30.3810   42.7650 H   0  0  0  0  0  0  0  0  0  0  0  0
   37.3950   28.4680   43.6800 C   0  0  0  0  0  3  0  0  0  0  0  0
   37.2380   27.1180   43.5040 C   0  0  0  0  0  3  0  0  0  0  0  0
   37.0970   26.6220   42.2290 C   0  0  0  0  0  0  0  0  0  0  0  0
   36.9410   25.2590   42.0970 C   0  0  0  0  0  3  0  0  0  0  0  0
   36.7960   24.7000   40.8450 C   0  0  0  0  0  3  0  0  0  0  0  0
   36.8130   25.5630   39.7580 C   0  0  0  0  0  3  0  0  0  0  0  0
   36.9720   26.9160   39.9560 C   0  0  0  0  0  3  0  0  0  0  0  0
   37.1200   27.5070   41.1860 C   0  0  0  0  0  0  0  0  0  0  0  0
   37.0990   32.0650   39.6340 C   0  0  0  0  0  0  0  0  0  0  0  0
   37.2630   31.8390   38.2640 C   0  0  0  0  0  0  0  0  0  0  0  0
   37.4450   30.5080   37.8820 C   0  0  0  0  0  0  0  0  0  0  0  0
   37.4480   29.5640   38.8300 N   0  0  0  0  0  0  0  0  0  0  0  0
   37.2910   29.7770   40.1320 C   0  0  0  0  0  0  0  0  0  0  0  0
   37.1220   31.0440   40.4680 N   0  0  0  0  0  0  0  0  0  0  0  0
   37.2550   32.6160   37.5440 H   0  0  0  0  0  0  0  0  0  0  0  0
   37.5810   30.2090   36.8710 H   0  0  0  0  0  0  0  0  0  0  0  0
   36.9150   33.3600   40.0850 O   0  0  0  0  0  0  0  0  0  0  0  0
   37.6940   33.9860   40.0840 H   0  0  0  0  0  0  0  0  0  0  0  0
  1  2  1  0  0  0  0
  2  3  1  0  0  0  0
  2  4  2  0  0  0  0
  5  4  1  0  0  0  0
  6  5  2  0  0  0  0
  7  6  1  0  0  0  0
  8  7  2  0  0  0  0
  9 10  2  0  0  0  0
  9  8  1  0  0  0  0
 10 11  1  0  0  0  0
 11  1  2  0  0  0  0
 11  6  1  0  0  0  0
 12 20  1  0  0  0  0
 12 17  1  0  0  0  0
 13 12  2  0  0  0  0
 14 13  1  0  0  0  0
 14 15  2  0  0  0  0
 15 16  1  0  0  0  0
 16 17  2  0  0  0  0
 16  1  1  0  0  0  0
 18 13  1  0  0  0  0
 19 14  1  0  0  0  0
 21 20  1  0  0  0  0
M  END
>  <minimizedAffinity>
-6.05214214

$$$$

 OpenBabel03242518433D

 21 23  0  0  0  0  0  0  0  0999 V2000
   37.6180   30.5890   40.3810 C   0  0  0  0  0  0  0  0  0  0  0  0
   36.3940   30.5510   39.7050 C   0  0  0  0  0  0  0  0  0  0  0  0
   36.2260   31.2920   38.9090 H   0  0  0  0  0  0  0  0  0  0  0  0
   35.3970   29.6510   39.9730 C   0  0  0  0  0  3  0  0  0  0  0  0
   35.5700   28.7120   40.9570 C   0  0  0  0  0  3  0  0  0  0  0  0
   36.7510   28.6940   41.6630 C   0  0  0  0  0  0  0  0  0  0  0  0
   36.8840   27.7340   42.6430 C   0  0  0  0  0  3  0  0  0  0  0  0
   38.0430   27.6640   43.3850 C   0  0  0  0  0  3  0  0  0  0  0  0
   39.0410   28.5860   43.0960 C   0  0  0  0  0  3  0  0  0  0  0  0
   38.8470   29.5200   42.1030 C   0  0  0  0  0  3  0  0  0  0  0  0
   37.7070   29.6200   41.3460 C   0  0  0  0  0  0  0  0  0  0  0  0
   39.8780   32.4020   38.2480 C   0  0  0  0  0  0  0  0  0  0  0  0
   40.6000   33.2800   39.0620 C   0  0  0  0  0  0  0  0  0  0  0  0
   40.2910   33.2450   40.4240 C   0  0  0  0  0  0  0  0  0  0  0  0
   39.3480   32.3960   40.8450 N   0  0  0  0  0  0  0  0  0  0  0  0
   38.6610   31.5600   40.0730 C   0  0  0  0  0  0  0  0  0  0  0  0
   38.9710   31.6120   38.7900 N   0  0  0  0  0  0  0  0  0  0  0  0
   41.3410   33.9390   38.6880 H   0  0  0  0  0  0  0  0  0  0  0  0
   40.7700   33.8650   41.1420 H   0  0  0  0  0  0  0  0  0  0  0  0
   40.1310   32.3820   36.8880 O   0  0  0  0  0  0  0  0  0  0  0  0
   39.8150   33.1470   36.3280 H   0  0  0  0  0  0  0  0  0  0  0  0
  1 11  1  0  0  0  0
  2  4  1  0  0  0  0
  2  1  2  0  0  0  0
  3  2  1  0  0  0  0
  4  5  2  0  0  0  0
  5  6  1  0  0  0  0
  6  7  1  0  0  0  0
  7  8  2  0  0  0  0
  9  8  1  0  0  0  0
 10  9  2  0  0  0  0
 11  6  2  0  0  0  0
 11 10  1  0  0  0  0
 12 17  2  0  0  0  0
 12 13  1  0  0  0  0
 13 14  2  0  0  0  0
 14 15  1  0  0  0  0
 14 19  1  0  0  0  0
 16  1  1  0  0  0  0
 16 15  2  0  0  0  0
 17 16  1  0  0  0  0
 18 13  1  0  0  0  0
 20 12  1  0  0  0  0
 21 20  1  0  0  0  0
M  END
>  <minimizedAffinity>
-5.78392649

$$$$

 OpenBabel03242518433D

 21 23  0  0  0  0  0  0  0  0999 V2000
   38.8530   27.9810   41.8730 C   0  0  0  0  0  0  0  0  0  0  0  0
   39.8220   28.1370   42.8700 C   0  0  0  0  0  0  0  0  0  0  0  0
   40.2570   29.1390   43.0090 H   0  0  0  0  0  0  0  0  0  0  0  0
   40.2610   27.1230   43.6800 C   0  0  0  0  0  3  0  0  0  0  0  0
   39.7430   25.8610   43.5370 C   0  0  0  0  0  3  0  0  0  0  0  0
   38.7860   25.6370   42.5750 C   0  0  0  0  0  0  0  0  0  0  0  0
   38.2910   24.3560   42.4650 C   0  0  0  0  0  3  0  0  0  0  0  0
   37.3310   24.0670   41.5200 C   0  0  0  0  0  3  0  0  0  0  0  0
   36.9000   25.1100   40.7110 C   0  0  0  0  0  3  0  0  0  0  0  0
   37.4330   26.3690   40.8710 C   0  0  0  0  0  3  0  0  0  0  0  0
   38.3910   26.6930   41.7990 C   0  0  0  0  0  0  0  0  0  0  0  0
   36.7120   30.7030   40.9000 C   0  0  0  0  0  0  0  0  0  0  0  0
   37.2240   31.2270   39.7090 C   0  0  0  0  0  0  0  0  0  0  0  0
   38.3740   30.6070   39.2140 C   0  0  0  0  0  0  0  0  0  0  0  0
   38.8920   29.5790   39.8950 N   0  0  0  0  0  0  0  0  0  0  0  0
   38.4060   29.0800   41.0270 C   0  0  0  0  0  0  0  0  0  0  0  0
   37.3200   29.6840   41.4760 N   0  0  0  0  0  0  0  0  0  0  0  0
   36.7830   32.0440   39.2000 H   0  0  0  0  0  0  0  0  0  0  0  0
   38.8570   30.9140   38.3180 H   0  0  0  0  0  0  0  0  0  0  0  0
   35.5760   31.2690   41.4500 O   0  0  0  0  0  0  0  0  0  0  0  0
   35.6460   32.1660   41.8850 H   0  0  0  0  0  0  0  0  0  0  0  0
  1  2  1  0  0  0  0
  2  3  1  0  0  0  0
  2  4  2  0  0  0  0
  5  4  1  0  0  0  0
  6  5  2  0  0  0  0
  7  6  1  0  0  0  0
  8  7  2  0  0  0  0
  9 10  2  0  0  0  0
  9  8  1  0  0  0  0
 10 11  1  0  0  0  0
 11  1  2  0  0  0  0
 11  6  1  0  0  0  0
 12 20  1  0  0  0  0
 12 17  1  0  0  0  0
 13 12  2  0  0  0  0
 14 13  1  0  0  0  0
 14 15  2  0  0  0  0
 15 16  1  0  0  0  0
 16 17  2  0  0  0  0
 16  1  1  0  0  0  0
 18 13  1  0  0  0  0
 19 14  1  0  0  0  0
 20 21  1  0  0  0  0
M  END
>  <minimizedAffinity>
-5.70964241

$$$$

 OpenBabel03242518433D

 21 23  0  0  0  0  0  0  0  0999 V2000
   37.5800   26.7740   40.7790 C   0  0  0  0  0  0  0  0  0  0  0  0
   36.7400   25.7170   40.4110 C   0  0  0  0  0  0  0  0  0  0  0  0
   35.9640   25.9190   39.6570 H   0  0  0  0  0  0  0  0  0  0  0  0
   36.8250   24.4530   40.9320 C   0  0  0  0  0  3  0  0  0  0  0  0
   37.7790   24.1640   41.8730 C   0  0  0  0  0  3  0  0  0  0  0  0
   38.6380   25.1580   42.2800 C   0  0  0  0  0  0  0  0  0  0  0  0
   39.5820   24.8250   43.2270 C   0  0  0  0  0  3  0  0  0  0  0  0
   40.4720   25.7760   43.6770 C   0  0  0  0  0  3  0  0  0  0  0  0
   40.3680   27.0510   43.1350 C   0  0  0  0  0  3  0  0  0  0  0  0
   39.4030   27.3200   42.1910 C   0  0  0  0  0  3  0  0  0  0  0  0
   38.5010   26.3990   41.7210 C   0  0  0  0  0  0  0  0  0  0  0  0
   36.3850   30.1620   40.5860 C   0  0  0  0  0  0  0  0  0  0  0  0
   36.9680   30.7430   39.4560 C   0  0  0  0  0  0  0  0  0  0  0  0
   37.8230   29.9200   38.7190 C   0  0  0  0  0  0  0  0  0  0  0  0
   38.0190   28.6640   39.1330 N   0  0  0  0  0  0  0  0  0  0  0  0
   37.4650   28.1100   40.2070 C   0  0  0  0  0  0  0  0  0  0  0  0
   36.6620   28.9080   40.8880 N   0  0  0  0  0  0  0  0  0  0  0  0
   36.7860   31.7440   39.1610 H   0  0  0  0  0  0  0  0  0  0  0  0
   38.3260   30.2470   37.8410 H   0  0  0  0  0  0  0  0  0  0  0  0
   35.5270   30.9180   41.3650 O   0  0  0  0  0  0  0  0  0  0  0  0
   35.9100   31.6380   41.9430 H   0  0  0  0  0  0  0  0  0  0  0  0
  1 11  1  0  0  0  0
  2  1  2  0  0  0  0
  2  4  1  0  0  0  0
  3  2  1  0  0  0  0
  4  5  2  0  0  0  0
  5  6  1  0  0  0  0
  6  7  1  0  0  0  0
  7  8  2  0  0  0  0
  9  8  1  0  0  0  0
 10  9  2  0  0  0  0
 11 10  1  0  0  0  0
 11  6  2  0  0  0  0
 12 17  1  0  0  0  0
 12 20  1  0  0  0  0
 13 12  2  0  0  0  0
 14 15  2  0  0  0  0
 14 13  1  0  0  0  0
 15 16  1  0  0  0  0
 16  1  1  0  0  0  0
 16 17  2  0  0  0  0
 18 13  1  0  0  0  0
 19 14  1  0  0  0  0
 20 21  1  0  0  0  0
M  END
>  <minimizedAffinity>
-5.62395573

$$$$

 OpenBabel03242518433D

 21 23  0  0  0  0  0  0  0  0999 V2000
   37.6990   28.9030   41.3680 C   0  0  0  0  0  0  0  0  0  0  0  0
   36.5720   28.2900   41.9260 C   0  0  0  0  0  0  0  0  0  0  0  0
   35.5910   28.5210   41.4830 H   0  0  0  0  0  0  0  0  0  0  0  0
   36.6160   27.4240   42.9860 C   0  0  0  0  0  3  0  0  0  0  0  0
   37.8180   27.1110   43.5650 C   0  0  0  0  0  3  0  0  0  0  0  0
   38.9670   27.6800   43.0660 C   0  0  0  0  0  0  0  0  0  0  0  0
   40.1550   27.3390   43.6770 C   0  0  0  0  0  3  0  0  0  0  0  0
   41.3410   27.8760   43.2240 C   0  0  0  0  0  3  0  0  0  0  0  0
   41.2730   28.7510   42.1480 C   0  0  0  0  0  3  0  0  0  0  0  0
   40.0550   29.0510   41.5810 C   0  0  0  0  0  3  0  0  0  0  0  0
   38.8560   28.5370   42.0060 C   0  0  0  0  0  0  0  0  0  0  0  0
   37.2380   32.0910   39.7670 C   0  0  0  0  0  0  0  0  0  0  0  0
   37.3890   31.8890   38.3910 C   0  0  0  0  0  0  0  0  0  0  0  0
   37.6660   30.5790   37.9930 C   0  0  0  0  0  0  0  0  0  0  0  0
   37.7650   29.6310   38.9320 N   0  0  0  0  0  0  0  0  0  0  0  0
   37.6210   29.8220   40.2390 C   0  0  0  0  0  0  0  0  0  0  0  0
   37.3610   31.0690   40.5910 N   0  0  0  0  0  0  0  0  0  0  0  0
   37.3020   32.6690   37.6790 H   0  0  0  0  0  0  0  0  0  0  0  0
   37.8020   30.3000   36.9770 H   0  0  0  0  0  0  0  0  0  0  0  0
   36.9630   33.3640   40.2340 O   0  0  0  0  0  0  0  0  0  0  0  0
   37.6900   34.0490   40.2210 H   0  0  0  0  0  0  0  0  0  0  0  0
  1  2  2  0  0  0  0
  1 11  1  0  0  0  0
  2  4  1  0  0  0  0
  3  2  1  0  0  0  0
  4  5  2  0  0  0  0
  6  5  1  0  0  0  0
  6  7  1  0  0  0  0
  8  7  2  0  0  0  0
  9  8  1  0  0  0  0
 10 11  1  0  0  0  0
 10  9  2  0  0  0  0
 11  6  2  0  0  0  0
 12 20  1  0  0  0  0
 12 17  1  0  0  0  0
 13 12  2  0  0  0  0
 14 13  1  0  0  0  0
 14 15  2  0  0  0  0
 15 16  1  0  0  0  0
 16 17  2  0  0  0  0
 16  1  1  0  0  0  0
 18 13  1  0  0  0  0
 19 14  1  0  0  0  0
 21 20  1  0  0  0  0
M  END
>  <minimizedAffinity>
-5.60294485

$$$$

 OpenBabel03242518433D

 21 23  0  0  0  0  0  0  0  0999 V2000
   39.9370   29.6460   41.7470 C   0  0  0  0  0  0  0  0  0  0  0  0
   41.1910   29.3210   42.2770 C   0  0  0  0  0  0  0  0  0  0  0  0
   42.0480   29.9450   41.9830 H   0  0  0  0  0  0  0  0  0  0  0  0
   41.4130   28.2780   43.1370 C   0  0  0  0  0  3  0  0  0  0  0  0
   40.3700   27.4790   43.5270 C   0  0  0  0  0  3  0  0  0  0  0  0
   39.1090   27.7420   43.0420 C   0  0  0  0  0  0  0  0  0  0  0  0
   38.0890   26.9150   43.4590 C   0  0  0  0  0  3  0  0  0  0  0  0
   36.8040   27.1260   43.0090 C   0  0  0  0  0  3  0  0  0  0  0  0
   36.6010   28.1890   42.1390 C   0  0  0  0  0  3  0  0  0  0  0  0
   37.6630   28.9800   41.7600 C   0  0  0  0  0  3  0  0  0  0  0  0
   38.9540   28.7990   42.1870 C   0  0  0  0  0  0  0  0  0  0  0  0
   39.1420   33.0370   40.8480 C   0  0  0  0  0  0  0  0  0  0  0  0
   39.2450   33.1320   39.4570 C   0  0  0  0  0  0  0  0  0  0  0  0
   39.6090   31.9590   38.7910 C   0  0  0  0  0  0  0  0  0  0  0  0
   39.8290   30.8540   39.5110 N   0  0  0  0  0  0  0  0  0  0  0  0
   39.7310   30.7630   40.8330 C   0  0  0  0  0  0  0  0  0  0  0  0
   39.3870   31.8850   41.4410 N   0  0  0  0  0  0  0  0  0  0  0  0
   39.0620   34.0280   38.9230 H   0  0  0  0  0  0  0  0  0  0  0  0
   39.7200   31.9040   37.7350 H   0  0  0  0  0  0  0  0  0  0  0  0
   38.7860   34.1600   41.5740 O   0  0  0  0  0  0  0  0  0  0  0  0
   39.4540   34.8960   41.6820 H   0  0  0  0  0  0  0  0  0  0  0  0
  1 11  2  0  0  0  0
  1  2  1  0  0  0  0
  2  4  2  0  0  0  0
  3  2  1  0  0  0  0
  4  5  1  0  0  0  0
  6  7  1  0  0  0  0
  6  5  2  0  0  0  0
  8  7  2  0  0  0  0
  9  8  1  0  0  0  0
 10  9  2  0  0  0  0
 10 11  1  0  0  0  0
 11  6  1  0  0  0  0
 12 17  1  0  0  0  0
 12 20  1  0  0  0  0
 13 12  2  0  0  0  0
 14 13  1  0  0  0  0
 14 15  2  0  0  0  0
 15 16  1  0  0  0  0
 16 17  2  0  0  0  0
 16  1  1  0  0  0  0
 18 13  1  0  0  0  0
 19 14  1  0  0  0  0
 20 21  1  0  0  0  0
M  END
>  <minimizedAffinity>
-5.41415215

$$$$

 OpenBabel03242518433D

 21 23  0  0  0  0  0  0  0  0999 V2000
   38.6220   28.0120   42.1320 C   0  0  0  0  0  0  0  0  0  0  0  0
   39.6860   28.2090   43.0200 C   0  0  0  0  0  0  0  0  0  0  0  0
   40.0140   29.2440   43.2050 H   0  0  0  0  0  0  0  0  0  0  0  0
   40.3410   27.1960   43.6690 C   0  0  0  0  0  3  0  0  0  0  0  0
   39.9610   25.8950   43.4640 C   0  0  0  0  0  3  0  0  0  0  0  0
   38.9220   25.6300   42.6020 C   0  0  0  0  0  0  0  0  0  0  0  0
   38.5730   24.3090   42.4240 C   0  0  0  0  0  3  0  0  0  0  0  0
   37.5400   23.9780   41.5740 C   0  0  0  0  0  3  0  0  0  0  0  0
   36.8900   25.0210   40.9270 C   0  0  0  0  0  3  0  0  0  0  0  0
   37.2870   26.3200   41.1470 C   0  0  0  0  0  3  0  0  0  0  0  0
   38.3100   26.6870   41.9850 C   0  0  0  0  0  0  0  0  0  0  0  0
   38.1500   30.4770   39.5540 C   0  0  0  0  0  0  0  0  0  0  0  0
   36.9820   31.1810   39.8640 C   0  0  0  0  0  0  0  0  0  0  0  0
   36.3190   30.7830   41.0270 C   0  0  0  0  0  0  0  0  0  0  0  0
   36.8350   29.7810   41.7470 N   0  0  0  0  0  0  0  0  0  0  0  0
   37.9450   29.1110   41.4550 C   0  0  0  0  0  0  0  0  0  0  0  0
   38.5530   29.5060   40.3500 N   0  0  0  0  0  0  0  0  0  0  0  0
   36.6060   31.9700   39.2650 H   0  0  0  0  0  0  0  0  0  0  0  0
   35.4220   31.2400   41.3670 H   0  0  0  0  0  0  0  0  0  0  0  0
   38.8590   30.8170   38.4160 O   0  0  0  0  0  0  0  0  0  0  0  0
   38.4840   30.5700   37.5230 H   0  0  0  0  0  0  0  0  0  0  0  0
  1  2  1  0  0  0  0
  2  3  1  0  0  0  0
  2  4  2  0  0  0  0
  5  4  1  0  0  0  0
  6  5  2  0  0  0  0
  7  6  1  0  0  0  0
  8  7  2  0  0  0  0
  9 10  2  0  0  0  0
  9  8  1  0  0  0  0
 10 11  1  0  0  0  0
 11  1  2  0  0  0  0
 11  6  1  0  0  0  0
 12 13  2  0  0  0  0
 12 17  1  0  0  0  0
 13 14  1  0  0  0  0
 14 19  1  0  0  0  0
 14 15  2  0  0  0  0
 16 15  1  0  0  0  0
 16  1  1  0  0  0  0
 17 16  2  0  0  0  0
 18 13  1  0  0  0  0
 20 12  1  0  0  0  0
 21 20  1  0  0  0  0
M  END
>  <minimizedAffinity>
-5.30410814

$$$$

 OpenBabel03242518433D

 21 23  0  0  0  0  0  0  0  0999 V2000
   37.0350   28.3320   40.6730 C   0  0  0  0  0  0  0  0  0  0  0  0
   37.2510   29.0890   41.8300 C   0  0  0  0  0  0  0  0  0  0  0  0
   37.3320   30.1810   41.7200 H   0  0  0  0  0  0  0  0  0  0  0  0
   37.3660   28.5540   43.0860 C   0  0  0  0  0  3  0  0  0  0  0  0
   37.2700   27.1980   43.2630 C   0  0  0  0  0  3  0  0  0  0  0  0
   37.0590   26.3950   42.1670 C   0  0  0  0  0  0  0  0  0  0  0  0
   36.9690   25.0380   42.3890 C   0  0  0  0  0  3  0  0  0  0  0  0
   36.7580   24.1790   41.3320 C   0  0  0  0  0  3  0  0  0  0  0  0
   36.6430   24.7430   40.0680 C   0  0  0  0  0  3  0  0  0  0  0  0
   36.7420   26.1070   39.9120 C   0  0  0  0  0  3  0  0  0  0  0  0
   36.9530   26.9910   40.9400 C   0  0  0  0  0  0  0  0  0  0  0  0
   38.2420   29.8940   37.6650 C   0  0  0  0  0  0  0  0  0  0  0  0
   37.1340   30.1220   36.8440 C   0  0  0  0  0  0  0  0  0  0  0  0
   35.9000   29.7140   37.3560 C   0  0  0  0  0  0  0  0  0  0  0  0
   35.8640   29.1470   38.5670 N   0  0  0  0  0  0  0  0  0  0  0  0
   36.9160   28.9300   39.3490 C   0  0  0  0  0  0  0  0  0  0  0  0
   38.0720   29.3240   38.8420 N   0  0  0  0  0  0  0  0  0  0  0  0
   37.2050   30.5750   35.8890 H   0  0  0  0  0  0  0  0  0  0  0  0
   34.9860   29.8330   36.8270 H   0  0  0  0  0  0  0  0  0  0  0  0
   39.4970   30.2730   37.2220 O   0  0  0  0  0  0  0  0  0  0  0  0
   39.9340   29.7380   36.4990 H   0  0  0  0  0  0  0  0  0  0  0  0
  1 11  2  0  0  0  0
  1  2  1  0  0  0  0
  2  4  2  0  0  0  0
  3  2  1  0  0  0  0
  4  5  1  0  0  0  0
  6  7  1  0  0  0  0
  6  5  2  0  0  0  0
  8  7  2  0  0  0  0
  9  8  1  0  0  0  0
 10  9  2  0  0  0  0
 10 11  1  0  0  0  0
 11  6  1  0  0  0  0
 12 17  1  0  0  0  0
 13 14  1  0  0  0  0
 13 12  2  0  0  0  0
 14 15  2  0  0  0  0
 15 16  1  0  0  0  0
 16  1  1  0  0  0  0
 17 16  2  0  0  0  0
 18 13  1  0  0  0  0
 19 14  1  0  0  0  0
 20 12  1  0  0  0  0
 21 20  1  0  0  0  0
M  END
>  <minimizedAffinity>
-5.30291414

$$$$

 OpenBabel03242518433D

 21 23  0  0  0  0  0  0  0  0999 V2000
   38.0480   27.1540   41.1090 C   0  0  0  0  0  0  0  0  0  0  0  0
   38.8980   27.0400   42.2140 C   0  0  0  0  0  0  0  0  0  0  0  0
   39.3810   27.9570   42.5860 H   0  0  0  0  0  0  0  0  0  0  0  0
   39.1640   25.8610   42.8590 C   0  0  0  0  0  3  0  0  0  0  0  0
   38.5820   24.6980   42.4260 C   0  0  0  0  0  3  0  0  0  0  0  0
   37.7350   24.7390   41.3420 C   0  0  0  0  0  0  0  0  0  0  0  0
   37.1710   23.5480   40.9390 C   0  0  0  0  0  3  0  0  0  0  0  0
   36.3140   23.5220   39.8600 C   0  0  0  0  0  3  0  0  0  0  0  0
   36.0580   24.7290   39.2220 C   0  0  0  0  0  3  0  0  0  0  0  0
   36.6530   25.8850   39.6730 C   0  0  0  0  0  3  0  0  0  0  0  0
   37.5110   25.9480   40.7430 C   0  0  0  0  0  0  0  0  0  0  0  0
   36.4930   30.3710   40.6900 C   0  0  0  0  0  0  0  0  0  0  0  0
   37.0000   30.9260   39.5110 C   0  0  0  0  0  0  0  0  0  0  0  0
   37.9310   30.1460   38.8210 C   0  0  0  0  0  0  0  0  0  0  0  0
   38.2660   28.9530   39.3230 N   0  0  0  0  0  0  0  0  0  0  0  0
   37.7840   28.4240   40.4430 C   0  0  0  0  0  0  0  0  0  0  0  0
   36.9060   29.1800   41.0780 N   0  0  0  0  0  0  0  0  0  0  0  0
   36.7080   31.8770   39.1470 H   0  0  0  0  0  0  0  0  0  0  0  0
   38.3880   30.4590   37.9130 H   0  0  0  0  0  0  0  0  0  0  0  0
   35.5660   31.0870   41.4270 O   0  0  0  0  0  0  0  0  0  0  0  0
   35.8750   31.8850   41.9440 H   0  0  0  0  0  0  0  0  0  0  0  0
  1  2  1  0  0  0  0
  2  3  1  0  0  0  0
  2  4  2  0  0  0  0
  5  4  1  0  0  0  0
  6  5  2  0  0  0  0
  7  6  1  0  0  0  0
  8  7  2  0  0  0  0
  9 10  2  0  0  0  0
  9  8  1  0  0  0  0
 10 11  1  0  0  0  0
 11  1  2  0  0  0  0
 11  6  1  0  0  0  0
 12 17  1  0  0  0  0
 12 20  1  0  0  0  0
 13 12  2  0  0  0  0
 14 15  2  0  0  0  0
 14 13  1  0  0  0  0
 15 16  1  0  0  0  0
 16 17  2  0  0  0  0
 16  1  1  0  0  0  0
 18 13  1  0  0  0  0
 19 14  1  0  0  0  0
 20 21  1  0  0  0  0
M  END
>  <minimizedAffinity>
-5.27329636

$$$$
