
     RDKit          3D

 39 42  0  0  0  0  0  0  0  0999 V2000
   43.9433   35.2765   41.2737 C   0  0  0  0  0  0  0  0  0  0  0  0
   42.5793   34.7726   41.0916 N   0  0  0  0  0  0  0  0  0  0  0  0
   41.5507   35.4274   41.6309 C   0  0  0  0  0  0  0  0  0  0  0  0
   40.2756   34.8959   41.4210 C   0  0  0  0  0  0  0  0  0  0  0  0
   40.0942   33.7387   40.6837 C   0  0  0  0  0  0  0  0  0  0  0  0
   38.9297   33.2945   40.5191 O   0  0  0  0  0  0  0  0  0  0  0  0
   41.1754   33.1084   40.1547 N   0  0  0  0  0  0  0  0  0  0  0  0
   42.4239   33.6216   40.3555 C   0  0  0  0  0  0  0  0  0  0  0  0
   43.3699   32.9895   39.8399 O   0  0  0  0  0  0  0  0  0  0  0  0
   44.3309   35.9092   43.5921 C   0  0  0  0  0  0  0  0  0  0  0  0
   44.3985   34.9090   42.6174 C   0  0  0  0  0  0  0  0  0  0  0  0
   44.8686   33.6854   43.0270 C   0  0  0  0  0  0  0  0  0  0  0  0
   45.2292   33.5262   44.3267 N   0  0  0  0  0  0  0  0  0  0  0  0
   45.1464   34.5132   45.2289 C   0  0  0  0  0  0  0  0  0  0  0  0
   44.7035   35.7071   44.8859 N   0  0  0  0  0  0  0  0  0  0  0  0
   44.0408   36.3478   41.0965 H   0  0  0  0  0  0  0  0  0  0  0  0
   44.6241   34.7853   40.5384 H   0  0  0  0  0  0  0  0  0  0  0  0
   41.7266   36.3214   42.1968 H   0  0  0  0  0  0  0  0  0  0  0  0
   39.4727   35.4599   41.8764 H   0  0  0  0  0  0  0  0  0  0  0  0
   41.0490   32.2435   39.6026 H   0  0  0  0  0  0  0  0  0  0  0  0
   43.9750   36.9027   43.3609 H   0  0  0  0  0  0  0  0  0  0  0  0
   44.9197   32.9297   42.2839 H   0  0  0  0  0  0  0  0  0  0  0  0
   45.6105   34.0105   46.5353 C   0  0  0  0  0  0  0  0  0  0  0  0
   45.6505   34.7679   47.6616 C   0  0  0  0  0  0  0  0  0  0  0  0
   45.3358   35.8029   47.6547 H   0  0  0  0  0  0  0  0  0  0  0  0
   46.0768   34.3347   48.8979 C   0  0  0  0  0  0  0  0  0  0  0  0
   46.5057   33.0376   49.0507 C   0  0  0  0  0  0  0  0  0  0  0  0
   46.4894   32.2180   47.9452 C   0  0  0  0  0  0  0  0  0  0  0  0
   46.9246   30.9311   48.1372 C   0  0  0  0  0  0  0  0  0  0  0  0
   46.9413   30.0453   47.0856 C   0  0  0  0  0  0  0  0  0  0  0  0
   46.5083   30.5072   45.8574 C   0  0  0  0  0  0  0  0  0  0  0  0
   46.0833   31.8094   45.7275 C   0  0  0  0  0  0  0  0  0  0  0  0
   46.0505   32.7247   46.7492 C   0  0  0  0  0  0  0  0  0  0  0  0
   46.0871   34.9822   49.7605 H   0  0  0  0  0  0  0  0  0  0  0  0
   46.8391   32.7007   50.0199 H   0  0  0  0  0  0  0  0  0  0  0  0
   47.2606   30.5868   49.1079 H   0  0  0  0  0  0  0  0  0  0  0  0
   47.2875   29.0450   47.2679 H   0  0  0  0  0  0  0  0  0  0  0  0
   46.5387   29.7767   45.0604 H   0  0  0  0  0  0  0  0  0  0  0  0
   45.7781   32.0275   44.7256 H   0  0  0  0  0  0  0  0  0  0  0  0
  1 11  1  0
  2  1  1  0
  2  3  1  0
  4  3  2  0
  5  4  1  0
  6  5  2  0
  7  8  1  0
  7  5  1  0
  8  2  1  0
  9  8  2  0
 10 15  2  0
 11 12  2  0
 11 10  1  0
 12 13  1  0
 13 14  2  0
 15 14  1  0
  1 16  1  0
  1 17  1  0
  3 18  1  0
  4 19  1  0
  7 20  1  0
 10 21  1  0
 12 22  1  0
 23 24  2  0
 24 25  1  0
 24 26  1  0
 26 27  2  0
 27 28  1  0
 28 29  2  0
 29 30  1  0
 30 31  2  0
 31 32  1  0
 32 33  2  0
 33 23  1  0
 33 28  1  0
 26 34  1  0
 27 35  1  0
 29 36  1  0
 30 37  1  0
 31 38  1  0
 32 39  1  0
 14 23  1  0
M  ISO  8  16   8  17   8  18  14  19  14  20   9  21  14  22  14  25  15
M  END
>  <DihAtoms>  (1) 
12,13,22,23

>  <DihDeg>  (1) 
0.007586136004296991

$$$$
