
 OpenBabel03242515233D

 23 25  0  0  0  0  0  0  0  0999 V2000
   44.3960   35.2560   41.6060 C   0  0  0  0  0  0  0  0  0  0  0  0
   45.4060   35.3050   41.1070 H   0  0  0  0  0  0  0  0  0  0  0  0
   43.9820   36.2520   41.5630 H   0  0  0  0  0  0  0  0  0  0  0  0
   43.4990   34.2760   40.9860 C   0  0  0  0  0  0  0  0  0  0  0  0
   43.9170   33.0110   40.6260 C   0  0  0  0  0  0  0  0  0  0  0  0
   44.9530   32.7040   40.8250 H   0  0  0  0  0  0  0  0  0  0  0  0
   43.0960   32.0680   40.0110 C   0  0  0  0  0  3  0  0  0  0  0  0
   41.7660   32.4120   39.7400 C   0  0  0  0  0  3  0  0  0  0  0  0
   41.2950   33.6630   40.0800 C   0  0  0  0  0  0  0  0  0  0  0  0
   39.9690   34.0020   39.8200 C   0  0  0  0  0  3  0  0  0  0  0  0
   39.5560   35.2540   40.1880 C   0  0  0  0  0  3  0  0  0  0  0  0
   40.3580   36.2060   40.8000 C   0  0  0  0  0  3  0  0  0  0  0  0
   41.6770   35.8130   41.0380 C   0  0  0  0  0  3  0  0  0  0  0  0
   42.1740   34.5510   40.6900 C   0  0  0  0  0  0  0  0  0  0  0  0
   44.3630   35.7780   43.9770 C   0  0  0  0  0  0  0  0  0  0  0  0
   44.7090   34.8200   42.9990 C   0  0  0  0  0  0  0  0  0  0  0  0
   45.2770   33.6350   43.4130 C   0  0  0  0  0  0  0  0  0  0  0  0
   45.4640   33.4690   44.7350 N   0  0  0  0  0  0  0  0  0  0  0  0
   45.1350   34.3780   45.6630 C   0  0  0  0  0  0  0  0  0  0  0  0
   44.5720   35.5630   45.2950 N   0  0  0  0  0  0  0  0  0  0  0  0
   43.9080   36.7420   43.7200 H   0  0  0  0  0  0  0  0  0  0  0  0
   45.5150   32.9480   42.6250 H   0  0  0  0  0  0  0  0  0  0  0  0
   45.2960   34.2230   46.7210 H   0  0  0  0  0  0  0  0  0  0  0  0
  1 16  1  0  0  0  0
  2  1  1  0  0  0  0
  3  1  1  0  0  0  0
  4  1  1  0  0  0  0
  5  6  1  0  0  0  0
  5  4  2  0  0  0  0
  7  5  1  0  0  0  0
  8  7  2  0  0  0  0
  8  9  1  0  0  0  0
  9 14  1  0  0  0  0
 10  9  2  0  0  0  0
 10 11  1  0  0  0  0
 11 12  2  0  0  0  0
 12 13  1  0  0  0  0
 14  4  1  0  0  0  0
 14 13  2  0  0  0  0
 15 20  1  0  0  0  0
 16 17  1  0  0  0  0
 16 15  2  0  0  0  0
 17 18  2  0  0  0  0
 18 19  1  0  0  0  0
 19 23  1  0  0  0  0
 20 19  2  0  0  0  0
 21 15  1  0  0  0  0
 22 17  1  0  0  0  0
M  END
>  <minimizedAffinity>
-5.16226053

>  <minimizedRMSD>
1.58734536

$$$$
