
     RDKit          3D

 32 34  0  0  0  0  0  0  0  0999 V2000
   45.1898   35.2101   44.0572 C   0  0  0  0  0  0  0  0  0  0  0  0
   46.2305   34.5789   43.3742 C   0  0  0  0  0  0  0  0  0  0  0  0
   46.9003   33.5704   44.0661 C   0  0  0  0  0  0  0  0  0  0  0  0
   46.5115   33.2711   45.3273 N   0  0  0  0  0  0  0  0  0  0  0  0
   45.5073   33.9026   45.9441 C   0  0  0  0  0  0  0  0  0  0  0  0
   44.8460   34.8770   45.3008 N   0  0  0  0  0  0  0  0  0  0  0  0
   46.5507   34.9923   42.0176 C   0  0  0  0  0  0  0  0  0  0  0  0
   48.0600   35.1835   41.9187 C   0  0  0  0  0  0  0  0  0  0  0  0
   44.6528   36.0072   43.5254 H   0  0  0  0  0  0  0  0  0  0  0  0
   47.7147   33.0466   43.5850 H   0  0  0  0  0  0  0  0  0  0  0  0
   45.2365   33.6243   46.9534 H   0  0  0  0  0  0  0  0  0  0  0  0
   45.9796   35.8645   41.7281 H   0  0  0  0  0  0  0  0  0  0  0  0
   46.3402   34.1023   41.3442 H   0  0  0  0  0  0  0  0  0  0  0  0
   48.5268   34.1863   42.1142 H   0  0  0  0  0  0  0  0  0  0  0  0
   48.4396   35.8883   42.6612 H   0  0  0  0  0  0  0  0  0  0  0  0
   48.4269   35.6217   40.5239 C   0  0  0  0  0  0  0  0  0  0  0  0
   48.8701   36.9153   40.2623 C   0  0  0  0  0  0  0  0  0  0  0  0
   48.9283   37.6043   41.0801 H   0  0  0  0  0  0  0  0  0  0  0  0
   49.2221   37.2915   38.9860 C   0  0  0  0  0  0  0  0  0  0  0  0
   49.1486   36.4085   37.9324 C   0  0  0  0  0  0  0  0  0  0  0  0
   48.7098   35.1351   38.2012 C   0  0  0  0  0  0  0  0  0  0  0  0
   48.6358   34.2590   37.1264 C   0  0  0  0  0  0  0  0  0  0  0  0
   48.1934   32.9562   37.3274 C   0  0  0  0  0  0  0  0  0  0  0  0
   47.8297   32.5404   38.5953 C   0  0  0  0  0  0  0  0  0  0  0  0
   47.9199   33.4523   39.6435 C   0  0  0  0  0  0  0  0  0  0  0  0
   48.3526   34.7414   39.4753 C   0  0  0  0  0  0  0  0  0  0  0  0
   49.5631   38.3152   38.8335 H   0  0  0  0  0  0  0  0  0  0  0  0
   49.4207   36.6931   36.9397 H   0  0  0  0  0  0  0  0  0  0  0  0
   48.8904   34.4666   36.1012 H   0  0  0  0  0  0  0  0  0  0  0  0
   48.1103   32.2228   36.5417 H   0  0  0  0  0  0  0  0  0  0  0  0
   47.4804   31.5216   38.7708 H   0  0  0  0  0  0  0  0  0  0  0  0
   47.6171   33.0741   40.6043 H   0  0  0  0  0  0  0  0  0  0  0  0
  1  6  2  0
  2  1  1  0
  2  3  2  0
  3  4  1  0
  4  5  2  0
  6  5  1  0
  7  2  1  0
  8  7  1  0
  1  9  1  0
  3 10  1  0
  5 11  1  0
  7 12  1  0
  7 13  1  0
  8 14  1  0
  8 15  1  0
 16 17  2  0
 17 18  1  0
 17 19  1  0
 19 20  2  0
 20 21  1  0
 21 22  2  0
 22 23  1  0
 23 24  2  0
 24 25  1  0
 25 26  2  0
 26 16  1  0
 26 21  1  0
 19 27  1  0
 20 28  1  0
 22 29  1  0
 23 30  1  0
 24 31  1  0
 25 32  1  0
  8 16  1  0
M  ISO  8   9  14  10  14  11  14  12   8  13   8  14   8  15   8  18  15
M  END
>  <DihAtoms>  (1) 
6,7,15,16

>  <DihDeg>  (1) 
-100.51773887817251

$$$$
