
 OpenBabel03252509213D

 27 30  0  0  0  0  0  0  0  0999 V2000
   39.8750   29.9400   38.5380 C   0  0  0  0  0  0  0  0  0  0  0  0
   38.9060   30.5250   39.3540 C   0  0  0  0  0  0  0  0  0  0  0  0
   39.2740   31.8440   39.6220 C   0  0  0  0  0  0  0  0  0  0  0  0
   40.4410   32.4160   39.1150 N   0  0  0  0  0  0  0  0  0  0  0  0
   41.2930   31.7480   38.3380 C   0  0  0  0  0  0  0  0  0  0  0  0
   40.9930   30.4720   38.0470 N   0  0  0  0  0  0  0  0  0  0  0  0
   39.7130   28.8860   38.2470 H   0  0  0  0  0  0  0  0  0  0  0  0
   42.1120   32.3880   38.0710 H   0  0  0  0  0  0  0  0  0  0  0  0
   37.7340   29.8990   39.8410 C   0  0  0  0  0  0  0  0  0  0  0  0
   36.5160   29.9120   39.1910 C   0  0  0  0  0  0  0  0  0  0  0  0
   36.4670   30.4460   38.2340 H   0  0  0  0  0  0  0  0  0  0  0  0
   35.3550   29.3140   39.6360 C   0  0  0  0  0  3  0  0  0  0  0  0
   35.4800   28.6500   40.8550 C   0  0  0  0  0  3  0  0  0  0  0  0
   36.6700   28.5850   41.5820 C   0  0  0  0  0  0  0  0  0  0  0  0
   36.6990   27.9040   42.7820 C   0  0  0  0  0  3  0  0  0  0  0  0
   37.8940   27.8450   43.5020 C   0  0  0  0  0  3  0  0  0  0  0  0
   38.9870   28.4810   42.9580 C   0  0  0  0  0  3  0  0  0  0  0  0
   38.9820   29.1640   41.7640 C   0  0  0  0  0  3  0  0  0  0  0  0
   37.7870   29.2130   41.0640 C   0  0  0  0  0  0  0  0  0  0  0  0
   38.3280   32.6970   40.4110 C   0  0  0  0  0  0  0  0  0  0  0  0
   38.7290   34.1550   40.4220 C   0  0  0  0  0  0  0  0  0  0  0  0
   37.4800   33.6090   39.7100 C   0  0  0  0  0  0  0  0  0  0  0  0
   38.0990   32.3120   41.4030 H   0  0  0  0  0  0  0  0  0  0  0  0
   38.5980   34.7120   41.3680 H   0  0  0  0  0  0  0  0  0  0  0  0
   39.6220   34.3950   39.8650 H   0  0  0  0  0  0  0  0  0  0  0  0
   36.5560   34.0830   40.1070 H   0  0  0  0  0  0  0  0  0  0  0  0
   37.4960   33.7030   38.5790 H   0  0  0  0  0  0  0  0  0  0  0  0
  1  2  1  0  0  0  0
  2  3  2  0  0  0  0
  2  9  1  0  0  0  0
  3 20  1  0  0  0  0
  4  3  1  0  0  0  0
  5  4  2  0  0  0  0
  6  5  1  0  0  0  0
  6  1  2  0  0  0  0
  7  1  1  0  0  0  0
  8  5  1  0  0  0  0
  9 19  1  0  0  0  0
 10 12  1  0  0  0  0
 10  9  2  0  0  0  0
 11 10  1  0  0  0  0
 12 13  2  0  0  0  0
 13 14  1  0  0  0  0
 14 15  1  0  0  0  0
 15 16  2  0  0  0  0
 17 16  1  0  0  0  0
 18 17  2  0  0  0  0
 19 14  2  0  0  0  0
 19 18  1  0  0  0  0
 20 21  1  0  0  0  0
 20 23  1  0  0  0  0
 21 24  1  0  0  0  0
 22 26  1  0  0  0  0
 22 20  1  0  0  0  0
 22 21  1  0  0  0  0
 25 21  1  0  0  0  0
 27 22  1  0  0  0  0
M  END
>  <minimizedAffinity>
-5.32570505

$$$$

 OpenBabel03252509213D

 27 30  0  0  0  0  0  0  0  0999 V2000
   38.1550   33.0280   40.5300 C   0  0  0  0  0  0  0  0  0  0  0  0
   38.2820   31.7670   39.9440 C   0  0  0  0  0  0  0  0  0  0  0  0
   39.4820   31.7160   39.2320 C   0  0  0  0  0  0  0  0  0  0  0  0
   40.3620   32.7950   39.1670 N   0  0  0  0  0  0  0  0  0  0  0  0
   40.1280   33.9560   39.7770 C   0  0  0  0  0  0  0  0  0  0  0  0
   38.9870   34.0670   40.4760 N   0  0  0  0  0  0  0  0  0  0  0  0
   37.2430   33.2120   41.1260 H   0  0  0  0  0  0  0  0  0  0  0  0
   40.9400   34.6320   39.5870 H   0  0  0  0  0  0  0  0  0  0  0  0
   37.3560   30.7020   40.0440 C   0  0  0  0  0  0  0  0  0  0  0  0
   36.3750   30.4310   39.1120 C   0  0  0  0  0  0  0  0  0  0  0  0
   36.3190   31.0940   38.2400 H   0  0  0  0  0  0  0  0  0  0  0  0
   35.4570   29.4040   39.1790 C   0  0  0  0  0  3  0  0  0  0  0  0
   35.5770   28.5960   40.3080 C   0  0  0  0  0  3  0  0  0  0  0  0
   36.5380   28.7930   41.3010 C   0  0  0  0  0  0  0  0  0  0  0  0
   36.5820   27.9420   42.3870 C   0  0  0  0  0  3  0  0  0  0  0  0
   37.5460   28.1490   43.3750 C   0  0  0  0  0  3  0  0  0  0  0  0
   38.4080   29.2070   43.2000 C   0  0  0  0  0  3  0  0  0  0  0  0
   38.3840   30.0670   42.1280 C   0  0  0  0  0  3  0  0  0  0  0  0
   37.4200   29.8490   41.1580 C   0  0  0  0  0  0  0  0  0  0  0  0
   39.8710   30.4180   38.5920 C   0  0  0  0  0  0  0  0  0  0  0  0
   41.2720   30.4450   38.0250 C   0  0  0  0  0  0  0  0  0  0  0  0
   40.8490   29.6010   39.2400 C   0  0  0  0  0  0  0  0  0  0  0  0
   39.1360   30.0260   37.8920 H   0  0  0  0  0  0  0  0  0  0  0  0
   41.4390   29.9350   37.0580 H   0  0  0  0  0  0  0  0  0  0  0  0
   41.8080   31.3730   38.1560 H   0  0  0  0  0  0  0  0  0  0  0  0
   41.0270   28.5190   39.0540 H   0  0  0  0  0  0  0  0  0  0  0  0
   41.3350   29.9000   40.2210 H   0  0  0  0  0  0  0  0  0  0  0  0
  1  7  1  0  0  0  0
  2  9  1  0  0  0  0
  2  1  2  0  0  0  0
  3  2  1  0  0  0  0
  4  3  2  0  0  0  0
  4  5  1  0  0  0  0
  5  6  2  0  0  0  0
  6  1  1  0  0  0  0
  8  5  1  0  0  0  0
  9 19  1  0  0  0  0
 10 12  1  0  0  0  0
 10  9  2  0  0  0  0
 11 10  1  0  0  0  0
 12 13  2  0  0  0  0
 13 14  1  0  0  0  0
 14 15  1  0  0  0  0
 15 16  2  0  0  0  0
 17 16  1  0  0  0  0
 18 17  2  0  0  0  0
 19 14  2  0  0  0  0
 19 18  1  0  0  0  0
 20  3  1  0  0  0  0
 20 22  1  0  0  0  0
 21 25  1  0  0  0  0
 21 20  1  0  0  0  0
 21 22  1  0  0  0  0
 22 27  1  0  0  0  0
 23 20  1  0  0  0  0
 24 21  1  0  0  0  0
 26 22  1  0  0  0  0
M  END
>  <minimizedAffinity>
-5.24672699

$$$$

 OpenBabel03252509213D

 27 30  0  0  0  0  0  0  0  0999 V2000
   40.7040   28.7290   40.8860 C   0  0  0  0  0  0  0  0  0  0  0  0
   39.3200   28.8880   40.9820 C   0  0  0  0  0  0  0  0  0  0  0  0
   38.8920   28.4030   42.2180 C   0  0  0  0  0  0  0  0  0  0  0  0
   39.7700   27.8620   43.1570 N   0  0  0  0  0  0  0  0  0  0  0  0
   41.0820   27.7660   42.9470 C   0  0  0  0  0  0  0  0  0  0  0  0
   41.5540   28.2140   41.7730 N   0  0  0  0  0  0  0  0  0  0  0  0
   41.1820   29.0700   39.9500 H   0  0  0  0  0  0  0  0  0  0  0  0
   41.5510   27.3210   43.8040 H   0  0  0  0  0  0  0  0  0  0  0  0
   38.4730   29.4480   39.9960 C   0  0  0  0  0  0  0  0  0  0  0  0
   37.8070   28.7170   39.0330 C   0  0  0  0  0  0  0  0  0  0  0  0
   37.9510   27.6300   39.0440 H   0  0  0  0  0  0  0  0  0  0  0  0
   36.9760   29.2300   38.0590 C   0  0  0  0  0  3  0  0  0  0  0  0
   36.8300   30.6150   38.0970 C   0  0  0  0  0  3  0  0  0  0  0  0
   37.4640   31.4340   39.0320 C   0  0  0  0  0  0  0  0  0  0  0  0
   37.2620   32.7990   38.9930 C   0  0  0  0  0  3  0  0  0  0  0  0
   37.9010   33.6100   39.9330 C   0  0  0  0  0  3  0  0  0  0  0  0
   38.7070   32.9840   40.8570 C   0  0  0  0  0  3  0  0  0  0  0  0
   38.9240   31.6270   40.9160 C   0  0  0  0  0  3  0  0  0  0  0  0
   38.2820   30.8390   39.9750 C   0  0  0  0  0  0  0  0  0  0  0  0
   37.4450   28.5560   42.5760 C   0  0  0  0  0  0  0  0  0  0  0  0
   36.6310   27.3240   42.2500 C   0  0  0  0  0  0  0  0  0  0  0  0
   36.9300   27.8070   43.6800 C   0  0  0  0  0  0  0  0  0  0  0  0
   36.9890   29.4750   42.2140 H   0  0  0  0  0  0  0  0  0  0  0  0
   35.6160   27.4780   41.8400 H   0  0  0  0  0  0  0  0  0  0  0  0
   37.1840   26.5030   41.8180 H   0  0  0  0  0  0  0  0  0  0  0  0
   35.9890   28.0190   44.2330 H   0  0  0  0  0  0  0  0  0  0  0  0
   37.5790   27.1090   44.2940 H   0  0  0  0  0  0  0  0  0  0  0  0
  1  2  2  0  0  0  0
  1  6  1  0  0  0  0
  2  3  1  0  0  0  0
  3 20  1  0  0  0  0
  3  4  2  0  0  0  0
  5  4  1  0  0  0  0
  5  8  1  0  0  0  0
  6  5  2  0  0  0  0
  7  1  1  0  0  0  0
  9  2  1  0  0  0  0
 10 11  1  0  0  0  0
 10  9  2  0  0  0  0
 12 13  2  0  0  0  0
 12 10  1  0  0  0  0
 13 14  1  0  0  0  0
 14 19  1  0  0  0  0
 15 14  2  0  0  0  0
 15 16  1  0  0  0  0
 16 17  2  0  0  0  0
 17 18  1  0  0  0  0
 19  9  1  0  0  0  0
 19 18  2  0  0  0  0
 20 22  1  0  0  0  0
 21 20  1  0  0  0  0
 21 22  1  0  0  0  0
 22 26  1  0  0  0  0
 22 27  1  0  0  0  0
 23 20  1  0  0  0  0
 24 21  1  0  0  0  0
 25 21  1  0  0  0  0
M  END
>  <minimizedAffinity>
-5.14344263

$$$$

 OpenBabel03252509213D

 27 30  0  0  0  0  0  0  0  0999 V2000
   38.7100   27.2300   38.0630 C   0  0  0  0  0  0  0  0  0  0  0  0
   37.4880   27.1300   38.7320 C   0  0  0  0  0  0  0  0  0  0  0  0
   36.5080   27.7860   37.9850 C   0  0  0  0  0  0  0  0  0  0  0  0
   36.7840   28.4150   36.7720 N   0  0  0  0  0  0  0  0  0  0  0  0
   38.0020   28.4390   36.2320 C   0  0  0  0  0  0  0  0  0  0  0  0
   38.9880   27.8260   36.9060 N   0  0  0  0  0  0  0  0  0  0  0  0
   39.5830   26.7540   38.5460 H   0  0  0  0  0  0  0  0  0  0  0  0
   37.9720   28.9750   35.3030 H   0  0  0  0  0  0  0  0  0  0  0  0
   37.2610   26.4750   39.9650 C   0  0  0  0  0  0  0  0  0  0  0  0
   36.9410   25.1390   40.0920 C   0  0  0  0  0  0  0  0  0  0  0  0
   36.8610   24.5560   39.1660 H   0  0  0  0  0  0  0  0  0  0  0  0
   36.7130   24.4690   41.2760 C   0  0  0  0  0  3  0  0  0  0  0  0
   36.8300   25.2610   42.4170 C   0  0  0  0  0  3  0  0  0  0  0  0
   37.1490   26.6200   42.3860 C   0  0  0  0  0  0  0  0  0  0  0  0
   37.2430   27.3250   43.5680 C   0  0  0  0  0  3  0  0  0  0  0  0
   37.5610   28.6840   43.5260 C   0  0  0  0  0  3  0  0  0  0  0  0
   37.7670   29.2430   42.2850 C   0  0  0  0  0  3  0  0  0  0  0  0
   37.6800   28.5600   41.0950 C   0  0  0  0  0  3  0  0  0  0  0  0
   37.3610   27.2140   41.1550 C   0  0  0  0  0  0  0  0  0  0  0  0
   35.0920   27.7290   38.4710 C   0  0  0  0  0  0  0  0  0  0  0  0
   34.6460   29.0200   39.1190 C   0  0  0  0  0  0  0  0  0  0  0  0
   34.0990   28.4920   37.7820 C   0  0  0  0  0  0  0  0  0  0  0  0
   34.8590   26.8500   39.0700 H   0  0  0  0  0  0  0  0  0  0  0  0
   34.0080   28.9440   40.0190 H   0  0  0  0  0  0  0  0  0  0  0  0
   35.3850   29.8070   39.1420 H   0  0  0  0  0  0  0  0  0  0  0  0
   33.0000   28.3380   37.8340 H   0  0  0  0  0  0  0  0  0  0  0  0
   34.3480   29.1330   36.8780 H   0  0  0  0  0  0  0  0  0  0  0  0
  1  7  1  0  0  0  0
  1  2  1  0  0  0  0
  2  9  1  0  0  0  0
  3 20  1  0  0  0  0
  3  2  2  0  0  0  0
  4  3  1  0  0  0  0
  5  4  2  0  0  0  0
  5  6  1  0  0  0  0
  6  1  2  0  0  0  0
  8  5  1  0  0  0  0
  9 10  2  0  0  0  0
  9 19  1  0  0  0  0
 10 12  1  0  0  0  0
 11 10  1  0  0  0  0
 12 13  2  0  0  0  0
 14 13  1  0  0  0  0
 14 15  1  0  0  0  0
 16 15  2  0  0  0  0
 17 16  1  0  0  0  0
 18 19  1  0  0  0  0
 18 17  2  0  0  0  0
 19 14  2  0  0  0  0
 20 23  1  0  0  0  0
 20 21  1  0  0  0  0
 21 25  1  0  0  0  0
 21 24  1  0  0  0  0
 22 26  1  0  0  0  0
 22 20  1  0  0  0  0
 22 21  1  0  0  0  0
 27 22  1  0  0  0  0
M  END
>  <minimizedAffinity>
-5.0996685

$$$$

 OpenBabel03252509213D

 27 30  0  0  0  0  0  0  0  0999 V2000
   34.9290   28.9970   39.5850 C   0  0  0  0  0  0  0  0  0  0  0  0
   35.9430   28.1760   40.0810 C   0  0  0  0  0  0  0  0  0  0  0  0
   36.1860   27.1510   39.1650 C   0  0  0  0  0  0  0  0  0  0  0  0
   35.4860   27.0350   37.9660 N   0  0  0  0  0  0  0  0  0  0  0  0
   34.5320   27.8910   37.6000 C   0  0  0  0  0  0  0  0  0  0  0  0
   34.2520   28.8980   38.4420 N   0  0  0  0  0  0  0  0  0  0  0  0
   34.6290   29.8550   40.2130 H   0  0  0  0  0  0  0  0  0  0  0  0
   34.1380   27.6030   36.6450 H   0  0  0  0  0  0  0  0  0  0  0  0
   36.6260   28.3410   41.3090 C   0  0  0  0  0  0  0  0  0  0  0  0
   36.3330   27.6450   42.4640 C   0  0  0  0  0  0  0  0  0  0  0  0
   35.5140   26.9160   42.4130 H   0  0  0  0  0  0  0  0  0  0  0  0
   36.9770   27.7800   43.6760 C   0  0  0  0  0  3  0  0  0  0  0  0
   38.0080   28.7180   43.6800 C   0  0  0  0  0  3  0  0  0  0  0  0
   38.3740   29.4680   42.5610 C   0  0  0  0  0  0  0  0  0  0  0  0
   39.4090   30.3760   42.6570 C   0  0  0  0  0  3  0  0  0  0  0  0
   39.7680   31.1220   41.5330 C   0  0  0  0  0  3  0  0  0  0  0  0
   39.0530   30.8990   40.3770 C   0  0  0  0  0  3  0  0  0  0  0  0
   38.0190   30.0010   40.2580 C   0  0  0  0  0  3  0  0  0  0  0  0
   37.6760   29.2710   41.3840 C   0  0  0  0  0  0  0  0  0  0  0  0
   37.3050   26.1970   39.4520 C   0  0  0  0  0  0  0  0  0  0  0  0
   36.8130   24.8170   39.8260 C   0  0  0  0  0  0  0  0  0  0  0  0
   37.5610   25.1420   38.5220 C   0  0  0  0  0  0  0  0  0  0  0  0
   38.0570   26.5820   40.1380 H   0  0  0  0  0  0  0  0  0  0  0  0
   37.3550   24.2850   40.6290 H   0  0  0  0  0  0  0  0  0  0  0  0
   35.7400   24.6940   39.8330 H   0  0  0  0  0  0  0  0  0  0  0  0
   38.4990   24.5500   38.4430 H   0  0  0  0  0  0  0  0  0  0  0  0
   36.9490   25.0070   37.5750 H   0  0  0  0  0  0  0  0  0  0  0  0
  1  2  1  0  0  0  0
  1  7  1  0  0  0  0
  2  9  1  0  0  0  0
  3 20  1  0  0  0  0
  3  2  2  0  0  0  0
  4  3  1  0  0  0  0
  5  4  2  0  0  0  0
  5  6  1  0  0  0  0
  6  1  2  0  0  0  0
  8  5  1  0  0  0  0
  9 19  2  0  0  0  0
  9 10  1  0  0  0  0
 10 12  2  0  0  0  0
 11 10  1  0  0  0  0
 12 13  1  0  0  0  0
 14 15  1  0  0  0  0
 14 13  2  0  0  0  0
 16 15  2  0  0  0  0
 17 16  1  0  0  0  0
 18 17  2  0  0  0  0
 18 19  1  0  0  0  0
 19 14  1  0  0  0  0
 20 21  1  0  0  0  0
 20 23  1  0  0  0  0
 21 25  1  0  0  0  0
 21 24  1  0  0  0  0
 22 20  1  0  0  0  0
 22 21  1  0  0  0  0
 26 22  1  0  0  0  0
 27 22  1  0  0  0  0
M  END
>  <minimizedAffinity>
-5.02800226

$$$$

 OpenBabel03252509213D

 27 30  0  0  0  0  0  0  0  0999 V2000
   38.3020   28.8410   38.1170 C   0  0  0  0  0  0  0  0  0  0  0  0
   38.4520   29.6760   39.2260 C   0  0  0  0  0  0  0  0  0  0  0  0
   37.8650   30.9110   38.9470 C   0  0  0  0  0  0  0  0  0  0  0  0
   37.2430   31.1880   37.7310 N   0  0  0  0  0  0  0  0  0  0  0  0
   37.1610   30.2980   36.7420 C   0  0  0  0  0  0  0  0  0  0  0  0
   37.7110   29.0920   36.9500 N   0  0  0  0  0  0  0  0  0  0  0  0
   38.7270   27.8240   38.1970 H   0  0  0  0  0  0  0  0  0  0  0  0
   36.6410   30.7340   35.9100 H   0  0  0  0  0  0  0  0  0  0  0  0
   39.0930   29.3420   40.4420 C   0  0  0  0  0  0  0  0  0  0  0  0
   40.4220   29.5910   40.7180 C   0  0  0  0  0  0  0  0  0  0  0  0
   41.0110   30.0820   39.9330 H   0  0  0  0  0  0  0  0  0  0  0  0
   41.0780   29.2800   41.8910 C   0  0  0  0  0  3  0  0  0  0  0  0
   40.2800   28.6600   42.8500 C   0  0  0  0  0  3  0  0  0  0  0  0
   38.9280   28.3690   42.6600 C   0  0  0  0  0  0  0  0  0  0  0  0
   38.2150   27.7510   43.6670 C   0  0  0  0  0  3  0  0  0  0  0  0
   36.8630   27.4640   43.4670 C   0  0  0  0  0  3  0  0  0  0  0  0
   36.3180   27.8220   42.2550 C   0  0  0  0  0  3  0  0  0  0  0  0
   37.0080   28.4380   41.2380 C   0  0  0  0  0  3  0  0  0  0  0  0
   38.3480   28.7140   41.4530 C   0  0  0  0  0  0  0  0  0  0  0  0
   37.8280   31.9390   40.0360 C   0  0  0  0  0  0  0  0  0  0  0  0
   38.9110   32.9840   39.8870 C   0  0  0  0  0  0  0  0  0  0  0  0
   37.4090   33.2670   39.7110 C   0  0  0  0  0  0  0  0  0  0  0  0
   37.7710   31.5250   41.0410 H   0  0  0  0  0  0  0  0  0  0  0  0
   39.4110   33.3330   40.8090 H   0  0  0  0  0  0  0  0  0  0  0  0
   39.5560   32.8650   39.0290 H   0  0  0  0  0  0  0  0  0  0  0  0
   37.0630   34.0400   40.4310 H   0  0  0  0  0  0  0  0  0  0  0  0
   37.1000   33.5640   38.6600 H   0  0  0  0  0  0  0  0  0  0  0  0
  1  7  1  0  0  0  0
  1  2  1  0  0  0  0
  2  9  1  0  0  0  0
  3  2  2  0  0  0  0
  3 20  1  0  0  0  0
  4  3  1  0  0  0  0
  5  6  1  0  0  0  0
  5  4  2  0  0  0  0
  6  1  2  0  0  0  0
  8  5  1  0  0  0  0
  9 10  2  0  0  0  0
  9 19  1  0  0  0  0
 10 12  1  0  0  0  0
 11 10  1  0  0  0  0
 12 13  2  0  0  0  0
 14 13  1  0  0  0  0
 14 15  1  0  0  0  0
 16 15  2  0  0  0  0
 17 16  1  0  0  0  0
 18 19  1  0  0  0  0
 18 17  2  0  0  0  0
 19 14  2  0  0  0  0
 20 23  1  0  0  0  0
 21 20  1  0  0  0  0
 21 24  1  0  0  0  0
 22 21  1  0  0  0  0
 22 20  1  0  0  0  0
 22 26  1  0  0  0  0
 25 21  1  0  0  0  0
 27 22  1  0  0  0  0
M  END
>  <minimizedAffinity>
-5.02775335

$$$$

 OpenBabel03252509213D

 27 30  0  0  0  0  0  0  0  0999 V2000
   36.5090   29.8820   39.2790 C   0  0  0  0  0  0  0  0  0  0  0  0
   37.5420   29.3270   40.0370 C   0  0  0  0  0  0  0  0  0  0  0  0
   38.7620   29.6290   39.4310 C   0  0  0  0  0  0  0  0  0  0  0  0
   38.8520   30.3750   38.2560 N   0  0  0  0  0  0  0  0  0  0  0  0
   37.7830   30.8560   37.6220 C   0  0  0  0  0  0  0  0  0  0  0  0
   36.5800   30.5950   38.1570 N   0  0  0  0  0  0  0  0  0  0  0  0
   35.4780   29.7170   39.6440 H   0  0  0  0  0  0  0  0  0  0  0  0
   38.0960   31.3940   36.7480 H   0  0  0  0  0  0  0  0  0  0  0  0
   37.3950   28.5780   41.2280 C   0  0  0  0  0  0  0  0  0  0  0  0
   37.4400   29.1160   42.4990 C   0  0  0  0  0  0  0  0  0  0  0  0
   37.6000   30.1980   42.5760 H   0  0  0  0  0  0  0  0  0  0  0  0
   37.3020   28.4160   43.6790 C   0  0  0  0  0  3  0  0  0  0  0  0
   37.1000   27.0460   43.5170 C   0  0  0  0  0  3  0  0  0  0  0  0
   37.0410   26.4160   42.2730 C   0  0  0  0  0  0  0  0  0  0  0  0
   36.8380   25.0520   42.2090 C   0  0  0  0  0  3  0  0  0  0  0  0
   36.7810   24.4300   40.9600 C   0  0  0  0  0  3  0  0  0  0  0  0
   36.9320   25.2330   39.8520 C   0  0  0  0  0  3  0  0  0  0  0  0
   37.1350   26.5920   39.8910 C   0  0  0  0  0  3  0  0  0  0  0  0
   37.1900   27.1920   41.1390 C   0  0  0  0  0  0  0  0  0  0  0  0
   40.0210   29.2080   40.1250 C   0  0  0  0  0  0  0  0  0  0  0  0
   40.6480   27.9820   39.5000 C   0  0  0  0  0  0  0  0  0  0  0  0
   41.2690   29.3890   39.4510 C   0  0  0  0  0  0  0  0  0  0  0  0
   39.9330   29.1360   41.2070 H   0  0  0  0  0  0  0  0  0  0  0  0
   41.0900   27.2320   40.1820 H   0  0  0  0  0  0  0  0  0  0  0  0
   40.1260   27.5780   38.6460 H   0  0  0  0  0  0  0  0  0  0  0  0
   42.2750   29.3970   39.9250 H   0  0  0  0  0  0  0  0  0  0  0  0
   41.3360   29.8450   38.4140 H   0  0  0  0  0  0  0  0  0  0  0  0
  1  7  1  0  0  0  0
  1  2  1  0  0  0  0
  2  9  1  0  0  0  0
  3  2  2  0  0  0  0
  3 20  1  0  0  0  0
  4  3  1  0  0  0  0
  5  6  1  0  0  0  0
  5  4  2  0  0  0  0
  6  1  2  0  0  0  0
  8  5  1  0  0  0  0
  9 10  1  0  0  0  0
 10 11  1  0  0  0  0
 10 12  2  0  0  0  0
 13 12  1  0  0  0  0
 14 13  2  0  0  0  0
 15 14  1  0  0  0  0
 16 15  2  0  0  0  0
 17 18  2  0  0  0  0
 17 16  1  0  0  0  0
 18 19  1  0  0  0  0
 19  9  2  0  0  0  0
 19 14  1  0  0  0  0
 20 23  1  0  0  0  0
 21 20  1  0  0  0  0
 21 24  1  0  0  0  0
 22 21  1  0  0  0  0
 22 26  1  0  0  0  0
 22 20  1  0  0  0  0
 25 21  1  0  0  0  0
 27 22  1  0  0  0  0
M  END
>  <minimizedAffinity>
-5.00825262

$$$$

 OpenBabel03252509213D

 27 30  0  0  0  0  0  0  0  0999 V2000
   37.1070   28.0540   38.6350 C   0  0  0  0  0  0  0  0  0  0  0  0
   37.2350   28.8590   39.7680 C   0  0  0  0  0  0  0  0  0  0  0  0
   37.1280   30.1980   39.3880 C   0  0  0  0  0  0  0  0  0  0  0  0
   36.9230   30.5880   38.0660 N   0  0  0  0  0  0  0  0  0  0  0  0
   36.8140   29.7160   37.0640 C   0  0  0  0  0  0  0  0  0  0  0  0
   36.9120   28.4120   37.3680 N   0  0  0  0  0  0  0  0  0  0  0  0
   37.1760   26.9610   38.7890 H   0  0  0  0  0  0  0  0  0  0  0  0
   36.6600   30.2450   36.1430 H   0  0  0  0  0  0  0  0  0  0  0  0
   37.4400   28.4100   41.0940 C   0  0  0  0  0  0  0  0  0  0  0  0
   36.4270   28.1000   41.9790 C   0  0  0  0  0  0  0  0  0  0  0  0
   35.3970   28.2140   41.6170 H   0  0  0  0  0  0  0  0  0  0  0  0
   36.5900   27.6610   43.2760 C   0  0  0  0  0  3  0  0  0  0  0  0
   37.9190   27.5350   43.6790 C   0  0  0  0  0  3  0  0  0  0  0  0
   39.0070   27.8250   42.8540 C   0  0  0  0  0  0  0  0  0  0  0  0
   40.2900   27.6710   43.3390 C   0  0  0  0  0  3  0  0  0  0  0  0
   41.3720   27.9650   42.5060 C   0  0  0  0  0  3  0  0  0  0  0  0
   41.0850   28.3950   41.2310 C   0  0  0  0  0  3  0  0  0  0  0  0
   39.8160   28.5550   40.7260 C   0  0  0  0  0  3  0  0  0  0  0  0
   38.7540   28.2610   41.5660 C   0  0  0  0  0  0  0  0  0  0  0  0
   37.1450   31.2420   40.4620 C   0  0  0  0  0  0  0  0  0  0  0  0
   38.4950   31.9090   40.6040 C   0  0  0  0  0  0  0  0  0  0  0  0
   37.2340   32.6170   40.0800 C   0  0  0  0  0  0  0  0  0  0  0  0
   36.7320   30.9130   41.4130 H   0  0  0  0  0  0  0  0  0  0  0  0
   38.8440   32.1390   41.6280 H   0  0  0  0  0  0  0  0  0  0  0  0
   39.2580   31.5620   39.9230 H   0  0  0  0  0  0  0  0  0  0  0  0
   36.9750   33.4920   40.7150 H   0  0  0  0  0  0  0  0  0  0  0  0
   37.2850   32.9410   38.9930 H   0  0  0  0  0  0  0  0  0  0  0  0
  1  7  1  0  0  0  0
  1  2  1  0  0  0  0
  2  9  1  0  0  0  0
  3  2  2  0  0  0  0
  3 20  1  0  0  0  0
  4  3  1  0  0  0  0
  5  6  1  0  0  0  0
  5  4  2  0  0  0  0
  6  1  2  0  0  0  0
  8  5  1  0  0  0  0
  9 19  2  0  0  0  0
  9 10  1  0  0  0  0
 10 12  2  0  0  0  0
 11 10  1  0  0  0  0
 12 13  1  0  0  0  0
 14 15  1  0  0  0  0
 14 13  2  0  0  0  0
 16 15  2  0  0  0  0
 17 16  1  0  0  0  0
 18 17  2  0  0  0  0
 18 19  1  0  0  0  0
 19 14  1  0  0  0  0
 20 21  1  0  0  0  0
 20 23  1  0  0  0  0
 21 24  1  0  0  0  0
 22 20  1  0  0  0  0
 22 21  1  0  0  0  0
 22 26  1  0  0  0  0
 25 21  1  0  0  0  0
 27 22  1  0  0  0  0
M  END
>  <minimizedAffinity>
-4.99228048

$$$$

 OpenBabel03252509213D

 27 30  0  0  0  0  0  0  0  0999 V2000
   35.0800   28.1220   38.4270 C   0  0  0  0  0  0  0  0  0  0  0  0
   36.3240   27.5910   38.7730 C   0  0  0  0  0  0  0  0  0  0  0  0
   37.2660   27.9890   37.8240 C   0  0  0  0  0  0  0  0  0  0  0  0
   36.9400   28.7920   36.7320 N   0  0  0  0  0  0  0  0  0  0  0  0
   35.7050   29.2410   36.5100 C   0  0  0  0  0  0  0  0  0  0  0  0
   34.7530   28.8890   37.3880 N   0  0  0  0  0  0  0  0  0  0  0  0
   34.2320   27.8830   39.0950 H   0  0  0  0  0  0  0  0  0  0  0  0
   35.6950   29.8360   35.6170 H   0  0  0  0  0  0  0  0  0  0  0  0
   36.6030   26.7800   39.8990 C   0  0  0  0  0  0  0  0  0  0  0  0
   36.5680   25.4010   39.8940 C   0  0  0  0  0  0  0  0  0  0  0  0
   36.3060   24.9110   38.9480 H   0  0  0  0  0  0  0  0  0  0  0  0
   36.8340   24.5810   40.9710 C   0  0  0  0  0  3  0  0  0  0  0  0
   37.1610   25.2580   42.1440 C   0  0  0  0  0  3  0  0  0  0  0  0
   37.2210   26.6500   42.2420 C   0  0  0  0  0  0  0  0  0  0  0  0
   37.5540   27.2340   43.4470 C   0  0  0  0  0  3  0  0  0  0  0  0
   37.6110   28.6270   43.5350 C   0  0  0  0  0  3  0  0  0  0  0  0
   37.3260   29.3410   42.3930 C   0  0  0  0  0  3  0  0  0  0  0  0
   36.9920   28.7800   41.1830 C   0  0  0  0  0  3  0  0  0  0  0  0
   36.9390   27.3980   41.1140 C   0  0  0  0  0  0  0  0  0  0  0  0
   38.6980   27.6060   38.0450 C   0  0  0  0  0  0  0  0  0  0  0  0
   39.1890   26.5820   37.0470 C   0  0  0  0  0  0  0  0  0  0  0  0
   39.6780   28.0400   37.0980 C   0  0  0  0  0  0  0  0  0  0  0  0
   38.9380   27.3460   39.0740 H   0  0  0  0  0  0  0  0  0  0  0  0
   39.8580   25.7860   37.4220 H   0  0  0  0  0  0  0  0  0  0  0  0
   38.4640   26.2680   36.3110 H   0  0  0  0  0  0  0  0  0  0  0  0
   40.7760   28.0860   37.2650 H   0  0  0  0  0  0  0  0  0  0  0  0
   39.4070   28.6660   36.1910 H   0  0  0  0  0  0  0  0  0  0  0  0
  1  2  1  0  0  0  0
  1  7  1  0  0  0  0
  2  9  1  0  0  0  0
  3 20  1  0  0  0  0
  3  2  2  0  0  0  0
  4  3  1  0  0  0  0
  5  4  2  0  0  0  0
  5  6  1  0  0  0  0
  6  1  2  0  0  0  0
  8  5  1  0  0  0  0
  9 19  1  0  0  0  0
 10  9  2  0  0  0  0
 10 12  1  0  0  0  0
 11 10  1  0  0  0  0
 12 13  2  0  0  0  0
 13 14  1  0  0  0  0
 14 15  1  0  0  0  0
 15 16  2  0  0  0  0
 17 16  1  0  0  0  0
 18 17  2  0  0  0  0
 19 18  1  0  0  0  0
 19 14  2  0  0  0  0
 20 23  1  0  0  0  0
 21 22  1  0  0  0  0
 21 24  1  0  0  0  0
 21 20  1  0  0  0  0
 22 26  1  0  0  0  0
 22 20  1  0  0  0  0
 25 21  1  0  0  0  0
 27 22  1  0  0  0  0
M  END
>  <minimizedAffinity>
-4.96617508

$$$$
