
     RDKit          3D

 44 48  0  0  0  0  0  0  0  0999 V2000
   45.0074   33.0714   41.0870 Cl  0  0  0  0  0  0  0  0  0  0  0  0
   46.4899   33.9791   40.9376 C   0  0  0  0  0  0  0  0  0  0  0  0
   46.9482   34.7964   41.9312 C   0  0  0  0  0  0  0  0  0  0  0  0
   48.1133   35.4558   41.6930 C   0  0  0  0  0  0  0  0  0  0  0  0
   48.8125   35.3339   40.5417 C   0  0  0  0  0  0  0  0  0  0  0  0
   48.3593   34.5175   39.5433 C   0  0  0  0  0  0  0  0  0  0  0  0
   47.1691   33.8245   39.7493 C   0  0  0  0  0  0  0  0  0  0  0  0
   44.4707   35.9809   44.5445 C   0  0  0  0  0  0  0  0  0  0  0  0
   45.2144   35.9069   43.3668 C   0  0  0  0  0  0  0  0  0  0  0  0
   46.1636   34.8933   43.1491 C   0  0  0  0  0  0  0  0  0  0  0  0
   46.2999   34.0009   44.1632 N   0  0  0  0  0  0  0  0  0  0  0  0
   45.5743   34.0843   45.2969 C   0  0  0  0  0  0  0  0  0  0  0  0
   44.6737   35.0656   45.4754 N   0  0  0  0  0  0  0  0  0  0  0  0
   46.6613   32.9374   38.6748 C   0  0  0  0  0  0  0  0  0  0  0  0
   46.6982   31.5442   38.7615 C   0  0  0  0  0  0  0  0  0  0  0  0
   45.9500   31.0070   37.1879 S   0  0  0  0  0  0  0  0  0  0  0  0
   45.6973   32.8095   36.6432 C   0  0  0  0  0  0  0  0  0  0  0  0
   46.1241   33.3326   37.5396 N   0  0  0  0  0  0  0  0  0  0  0  0
   45.1127   33.2528   35.4140 N   0  0  0  0  0  0  0  0  0  0  0  0
   48.5089   36.1127   42.4580 H   0  0  0  0  0  0  0  0  0  0  0  0
   49.7399   35.8535   40.3420 H   0  0  0  0  0  0  0  0  0  0  0  0
   48.9111   34.4104   38.6133 H   0  0  0  0  0  0  0  0  0  0  0  0
   43.7453   36.7600   44.7027 H   0  0  0  0  0  0  0  0  0  0  0  0
   45.0591   36.6505   42.5922 H   0  0  0  0  0  0  0  0  0  0  0  0
   45.8522   33.2632   45.9687 H   0  0  0  0  0  0  0  0  0  0  0  0
   44.0881   33.0067   35.4207 H   0  0  0  0  0  0  0  0  0  0  0  0
   45.6240   33.7281   34.6661 H   0  0  0  0  0  0  0  0  0  0  0  0
   47.1706   30.6109   39.7623 C   0  0  0  0  0  0  0  0  0  0  0  0
   48.0986   31.1865   40.6346 C   0  0  0  0  0  0  0  0  0  0  0  0
   48.5089   32.2013   40.6745 H   0  0  0  0  0  0  0  0  0  0  0  0
   48.6536   30.4395   41.6527 C   0  0  0  0  0  0  0  0  0  0  0  0
   48.3159   29.1076   41.8463 C   0  0  0  0  0  0  0  0  0  0  0  0
   47.4005   28.5466   40.9840 C   0  0  0  0  0  0  0  0  0  0  0  0
   47.0103   27.2243   41.1138 C   0  0  0  0  0  0  0  0  0  0  0  0
   46.0838   26.7307   40.2114 C   0  0  0  0  0  0  0  0  0  0  0  0
   45.5230   27.4766   39.1875 C   0  0  0  0  0  0  0  0  0  0  0  0
   45.9193   28.7981   39.0655 C   0  0  0  0  0  0  0  0  0  0  0  0
   46.8422   29.2880   39.9643 C   0  0  0  0  0  0  0  0  0  0  0  0
   49.3860   30.7798   42.3933 H   0  0  0  0  0  0  0  0  0  0  0  0
   48.7251   28.4689   42.6356 H   0  0  0  0  0  0  0  0  0  0  0  0
   47.4185   26.6180   41.8882 H   0  0  0  0  0  0  0  0  0  0  0  0
   45.8163   25.6853   40.3621 H   0  0  0  0  0  0  0  0  0  0  0  0
   44.7972   27.0271   38.5101 H   0  0  0  0  0  0  0  0  0  0  0  0
   45.4893   29.3945   38.2775 H   0  0  0  0  0  0  0  0  0  0  0  0
  2  1  1  0
  2  3  2  0
  3 10  1  0
  4  3  1  0
  5  4  2  0
  6  7  2  0
  6  5  1  0
  7  2  1  0
  8 13  2  0
  9  8  1  0
 10  9  2  0
 10 11  1  0
 11 12  2  0
 12 13  1  0
 14 15  2  0
 14  7  1  0
 16 15  1  0
 17 16  1  0
 17 18  2  0
 18 14  1  0
 19 17  1  0
  4 20  1  0
  5 21  1  0
  6 22  1  0
  8 23  1  0
  9 24  1  0
 12 25  1  0
 19 26  1  0
 19 27  1  0
 28 29  2  0
 29 30  1  0
 29 31  1  0
 31 32  2  0
 32 33  1  0
 33 34  2  0
 34 35  1  0
 35 36  2  0
 36 37  1  0
 37 38  2  0
 38 28  1  0
 38 33  1  0
 31 39  1  0
 32 40  1  0
 34 41  1  0
 35 42  1  0
 36 43  1  0
 37 44  1  0
 15 28  1  0
M  ISO  7  20  14  21  14  22  14  23  14  24  14  25  14  30  15
M  END
>  <DihAtoms>  (1) 
13,14,27,28

>  <DihDeg>  (1) 
114.01172434016767

$$$$
