
 OpenBabel03252505193D

 36 40  0  0  0  0  0  0  0  0999 V2000
   46.2020   32.5990   46.9830 C   0  0  0  0  0  0  0  0  0  0  0  0
   45.1930   32.5580   47.9060 C   0  0  0  0  0  0  0  0  0  0  0  0
   45.2920   31.7630   49.0270 C   0  0  0  0  0  0  0  0  0  0  0  0
   46.4400   31.0210   49.1720 C   0  0  0  0  0  0  0  0  0  0  0  0
   47.4580   31.0710   48.2230 C   0  0  0  0  0  0  0  0  0  0  0  0
   47.3180   31.8790   47.1210 N   0  0  0  0  0  0  0  0  0  0  0  0
   44.3220   33.1690   47.7230 H   0  0  0  0  0  0  0  0  0  0  0  0
   44.4970   31.7410   49.7380 H   0  0  0  0  0  0  0  0  0  0  0  0
   46.4910   30.4600   50.0770 H   0  0  0  0  0  0  0  0  0  0  0  0
   48.7440   30.4040   48.2800 C   0  0  0  0  0  0  0  0  0  0  0  0
   48.8750   29.1740   47.6110 C   0  0  0  0  0  0  0  0  0  0  0  0
   48.0230   28.7720   47.0680 H   0  0  0  0  0  0  0  0  0  0  0  0
   49.9940   28.4050   47.5680 C   0  0  0  0  0  0  0  0  0  0  0  0
   51.1230   28.8300   48.2270 C   0  0  0  0  0  0  0  0  0  0  0  0
   51.0680   30.0250   48.9060 C   0  0  0  0  0  0  0  0  0  0  0  0
   52.1790   30.4430   49.5970 C   0  0  0  0  0  0  0  0  0  0  0  0
   52.1890   31.6220   50.3410 C   0  0  0  0  0  0  0  0  0  0  0  0
   50.9940   32.3480   50.3370 C   0  0  0  0  0  0  0  0  0  0  0  0
   49.9060   31.8940   49.6300 C   0  0  0  0  0  0  0  0  0  0  0  0
   49.9060   30.7530   48.9100 C   0  0  0  0  0  0  0  0  0  0  0  0
   44.9580   35.0960   44.5820 C   0  0  0  0  0  0  0  0  0  0  0  0
   45.8610   35.0180   43.5170 C   0  0  0  0  0  0  0  0  0  0  0  0
   46.8830   34.1080   43.6560 C   0  0  0  0  0  0  0  0  0  0  0  0
   46.9700   33.3410   44.7930 N   0  0  0  0  0  0  0  0  0  0  0  0
   46.0680   33.4480   45.8050 C   0  0  0  0  0  0  0  0  0  0  0  0
   45.0670   34.3280   45.6910 N   0  0  0  0  0  0  0  0  0  0  0  0
   44.1290   35.7980   44.5280 H   0  0  0  0  0  0  0  0  0  0  0  0
   45.7680   35.6310   42.6410 H   0  0  0  0  0  0  0  0  0  0  0  0
   47.8970   33.9130   42.5650 C   0  0  0  0  0  0  0  0  0  0  0  0
   48.1110   35.1780   41.7290 C   0  0  0  0  0  0  0  0  0  0  0  0
   49.1860   34.5420   42.6740 C   0  0  0  0  0  0  0  0  0  0  0  0
   47.7560   33.0170   41.9020 H   0  0  0  0  0  0  0  0  0  0  0  0
   47.6620   36.1190   42.0720 H   0  0  0  0  0  0  0  0  0  0  0  0
   48.3190   35.0980   40.6610 H   0  0  0  0  0  0  0  0  0  0  0  0
   49.4020   35.1110   43.6140 H   0  0  0  0  0  0  0  0  0  0  0  0
   50.0790   34.1350   42.1570 H   0  0  0  0  0  0  0  0  0  0  0  0
  1  6  2  0  0  0  0
  1  2  1  0  0  0  0
  2  3  2  0  0  0  0
  3  4  1  0  0  0  0
  3  8  1  0  0  0  0
  4  9  1  0  0  0  0
  5 10  1  0  0  0  0
  5  4  2  0  0  0  0
  6  5  1  0  0  0  0
  7  2  1  0  0  0  0
 10 20  1  0  0  0  0
 11 10  2  0  0  0  0
 12 11  1  0  0  0  0
 13 11  1  0  0  0  0
 13 14  2  0  0  0  0
 14 15  1  0  0  0  0
 15 20  2  0  0  0  0
 15 16  1  0  0  0  0
 16 17  2  0  0  0  0
 18 17  1  0  0  0  0
 19 18  2  0  0  0  0
 20 19  1  0  0  0  0
 21 26  1  0  0  0  0
 22 23  1  0  0  0  0
 22 21  2  0  0  0  0
 23 24  2  0  0  0  0
 24 25  1  0  0  0  0
 25  1  1  0  0  0  0
 26 25  2  0  0  0  0
 27 21  1  0  0  0  0
 28 22  1  0  0  0  0
 29 31  1  0  0  0  0
 29 23  1  0  0  0  0
 30 33  1  0  0  0  0
 30 29  1  0  0  0  0
 30 31  1  0  0  0  0
 31 35  1  0  0  0  0
 32 29  1  0  0  0  0
 34 30  1  0  0  0  0
 36 31  1  0  0  0  0
M  END
>  <minimizedAffinity>
-7.00210333

>  <minimizedRMSD>
1.67679131

$$$$
