REMARK  Name = 
REMARK  3 active torsions:
REMARK  status: ('A' for Active; 'I' for Inactive)
REMARK    1  A    between atoms: C_3  and  C_7
REMARK    2  A    between atoms: C_5  and  C_10
REMARK    3  A    between atoms: C_14  and  C_26
REMARK                            x       y       z     vdW  Elec       q    Type
REMARK                         _______ _______ _______ _____ _____    ______ ____
ROOT
ATOM      1  C   UNL     1      46.018  33.005  46.486  0.00  0.00    +0.000 A 
ATOM      2  C   UNL     1      45.232  32.940  47.604  0.00  0.00    +0.000 A 
ATOM      3  C   UNL     1      45.496  32.027  48.601  0.00  0.00    +0.000 A 
ATOM      4  C   UNL     1      46.575  31.194  48.421  0.00  0.00    +0.000 A 
ATOM      5  C   UNL     1      47.365  31.271  47.277  0.00  0.00    +0.000 A 
ATOM      6  N   UNL     1      47.066  32.198  46.308  0.00  0.00    +0.000 NA
ATOM      7  H   UNL     1      44.402  33.627  47.673  0.00  0.00    +0.000 HD
ATOM      8  H   UNL     1      44.875  31.987  49.467  0.00  0.00    +0.000 HD
ATOM      9  H   UNL     1      46.768  30.539  49.240  0.00  0.00    +0.000 HD
ENDROOT
BRANCH   5  10
ATOM     10  C   UNL     1      48.566  30.512  46.988  0.00  0.00    +0.000 A 
ATOM     11  C   UNL     1      48.623  29.814  45.769  0.00  0.00    +0.000 A 
ATOM     12  H   UNL     1      47.782  29.874  45.084  0.00  0.00    +0.000 HD
ATOM     13  C   UNL     1      49.657  29.043  45.338  0.00  0.00    +0.000 A 
ATOM     14  C   UNL     1      50.766  28.906  46.137  0.00  0.00    +0.000 A 
ATOM     15  C   UNL     1      50.779  29.559  47.348  0.00  0.00    +0.000 A 
ATOM     16  C   UNL     1      51.868  29.401  48.172  0.00  0.00    +0.000 A 
ATOM     17  C   UNL     1      51.940  29.999  49.429  0.00  0.00    +0.000 A 
ATOM     18  C   UNL     1      50.830  30.768  49.795  0.00  0.00    +0.000 A 
ATOM     19  C   UNL     1      49.762  30.901  48.941  0.00  0.00    +0.000 A 
ATOM     20  C   UNL     1      49.703  30.321  47.723  0.00  0.00    +0.000 A 
ENDBRANCH   5  10
BRANCH   1  25
ATOM     21  C   UNL     1      44.523  35.823  44.649  0.00  0.00    +0.000 A 
ATOM     22  C   UNL     1      45.164  35.792  43.406  0.00  0.00    +0.000 A 
ATOM     23  C   UNL     1      46.102  34.801  43.233  0.00  0.00    +0.000 A 
ATOM     24  N   UNL     1      46.361  33.915  44.251  0.00  0.00    +0.000 NA
ATOM     25  C   UNL     1      45.713  33.980  45.445  0.00  0.00    +0.000 A 
ATOM     26  N   UNL     1      44.797  34.937  45.635  0.00  0.00    +0.000 NA
ATOM     27  H   UNL     1      43.772  36.585  44.843  0.00  0.00    +0.000 HD
ATOM     28  H   UNL     1      44.941  36.498  42.629  0.00  0.00    +0.000 HD
BRANCH  23  29
ATOM     29  C   UNL     1      46.833  34.649  41.930  0.00  0.00    +0.000 C 
ATOM     30  C   UNL     1      48.203  35.333  41.941  0.00  0.00    +0.000 C 
ATOM     31  C   UNL     1      47.981  33.785  41.858  0.00  0.00    +0.000 C 
ATOM     32  H   UNL     1      46.263  34.915  41.000  0.00  0.00    +0.000 HD
ATOM     33  H   UNL     1      48.594  35.714  42.893  0.00  0.00    +0.000 HD
ATOM     34  H   UNL     1      48.587  35.802  41.034  0.00  0.00    +0.000 HD
ATOM     35  H   UNL     1      48.248  33.206  42.779  0.00  0.00    +0.000 HD
ATOM     36  H   UNL     1      48.301  33.319  40.903  0.00  0.00    +0.000 HD
ENDBRANCH  23  29
ENDBRANCH   1  25
TORSDOF 3
