
 OpenBabel03252506103D

 32 35  0  0  0  0  0  0  0  0999 V2000
   45.1600   33.3230   41.1390 F   0  0  0  0  0  0  0  0  0  0  0  0
   46.3230   33.9480   40.9660 C   0  0  0  0  0  0  0  0  0  0  0  0
   46.8070   34.7700   41.9630 C   0  0  0  0  0  0  0  0  0  0  0  0
   48.0050   35.4480   41.8480 C   0  0  0  0  0  0  0  0  0  0  0  0
   48.7780   35.3180   40.6980 C   0  0  0  0  0  0  0  0  0  0  0  0
   48.2480   34.4820   39.7290 C   0  0  0  0  0  0  0  0  0  0  0  0
   47.0540   33.7890   39.8110 C   0  0  0  0  0  0  0  0  0  0  0  0
   48.3820   36.0970   42.6410 H   0  0  0  0  0  0  0  0  0  0  0  0
   49.7090   35.8150   40.5520 H   0  0  0  0  0  0  0  0  0  0  0  0
   48.8390   34.3700   38.8250 H   0  0  0  0  0  0  0  0  0  0  0  0
   46.6050   32.9370   38.7160 C   0  0  0  0  0  0  0  0  0  0  0  0
   45.9060   33.4330   37.6340 C   0  0  0  0  0  0  0  0  0  0  0  0
   45.6780   34.4970   37.5880 H   0  0  0  0  0  0  0  0  0  0  0  0
   45.4550   32.6930   36.5720 C   0  0  0  0  0  3  0  0  0  0  0  0
   45.7260   31.3340   36.5970 C   0  0  0  0  0  3  0  0  0  0  0  0
   46.4290   30.7790   37.6660 C   0  0  0  0  0  0  0  0  0  0  0  0
   46.6950   29.4240   37.6800 C   0  0  0  0  0  3  0  0  0  0  0  0
   47.3880   28.8360   38.7230 C   0  0  0  0  0  3  0  0  0  0  0  0
   47.8100   29.6690   39.7620 C   0  0  0  0  0  3  0  0  0  0  0  0
   47.5520   31.0150   39.7580 C   0  0  0  0  0  3  0  0  0  0  0  0
   46.8660   31.5620   38.7150 C   0  0  0  0  0  0  0  0  0  0  0  0
   45.4700   34.2160   45.3410 C   0  0  0  0  0  0  0  0  0  0  0  0
   44.6090   35.3200   45.4890 C   0  0  0  0  0  0  0  0  0  0  0  0
   44.4870   36.2450   44.4390 C   0  0  0  0  0  0  0  0  0  0  0  0
   45.2320   36.0070   43.3170 N   0  0  0  0  0  0  0  0  0  0  0  0
   46.0440   34.9520   43.2000 C   0  0  0  0  0  0  0  0  0  0  0  0
   46.1530   34.0750   44.2050 N   0  0  0  0  0  0  0  0  0  0  0  0
   44.0290   35.5050   46.3610 H   0  0  0  0  0  0  0  0  0  0  0  0
   43.8400   37.1060   44.5060 H   0  0  0  0  0  0  0  0  0  0  0  0
   45.5840   33.2910   46.4060 N   0  0  0  0  0  0  0  0  0  0  0  0
   44.7840   33.2070   47.0810 H   0  0  0  0  0  0  0  0  0  0  0  0
   46.4350   32.7050   46.5220 H   0  0  0  0  0  0  0  0  0  0  0  0
  2  1  1  0  0  0  0
  2  3  1  0  0  0  0
  3 26  1  0  0  0  0
  4  3  2  0  0  0  0
  4  8  1  0  0  0  0
  5  4  1  0  0  0  0
  6  7  1  0  0  0  0
  6  5  2  0  0  0  0
  7  2  2  0  0  0  0
  9  5  1  0  0  0  0
 10  6  1  0  0  0  0
 11  7  1  0  0  0  0
 12 11  2  0  0  0  0
 13 12  1  0  0  0  0
 14 15  2  0  0  0  0
 14 12  1  0  0  0  0
 15 16  1  0  0  0  0
 16 17  2  0  0  0  0
 16 21  1  0  0  0  0
 17 18  1  0  0  0  0
 18 19  2  0  0  0  0
 20 19  1  0  0  0  0
 21 11  1  0  0  0  0
 21 20  2  0  0  0  0
 22 23  1  0  0  0  0
 22 30  1  0  0  0  0
 23 28  1  0  0  0  0
 24 29  1  0  0  0  0
 24 23  2  0  0  0  0
 25 24  1  0  0  0  0
 26 25  2  0  0  0  0
 26 27  1  0  0  0  0
 27 22  2  0  0  0  0
 30 32  1  0  0  0  0
 30 31  1  0  0  0  0
M  END
>  <minimizedAffinity>
-5.99624205

>  <minimizedRMSD>
0.970748782

$$$$
