
     RDKit          3D

 38 41  0  0  0  0  0  0  0  0999 V2000
   45.4618   34.0138   45.3573 C   0  0  0  0  0  0  0  0  0  0  0  0
   44.6565   35.1446   45.5913 C   0  0  0  0  0  0  0  0  0  0  0  0
   44.5651   36.1422   44.6054 C   0  0  0  0  0  0  0  0  0  0  0  0
   45.2823   35.9429   43.4566 N   0  0  0  0  0  0  0  0  0  0  0  0
   46.0397   34.8605   43.2585 C   0  0  0  0  0  0  0  0  0  0  0  0
   46.1208   33.9162   44.2020 N   0  0  0  0  0  0  0  0  0  0  0  0
   45.5457   33.0169   46.3566 N   0  0  0  0  0  0  0  0  0  0  0  0
   45.0866   33.3492   41.1398 F   0  0  0  0  0  0  0  0  0  0  0  0
   46.2581   33.9601   40.9737 C   0  0  0  0  0  0  0  0  0  0  0  0
   46.7758   34.7249   41.9991 C   0  0  0  0  0  0  0  0  0  0  0  0
   47.9847   35.3853   41.8931 C   0  0  0  0  0  0  0  0  0  0  0  0
   48.7331   35.2971   40.7232 C   0  0  0  0  0  0  0  0  0  0  0  0
   48.1689   34.5178   39.7260 C   0  0  0  0  0  0  0  0  0  0  0  0
   46.9639   33.8445   39.7983 C   0  0  0  0  0  0  0  0  0  0  0  0
   44.0990   35.3003   46.4832 H   0  0  0  0  0  0  0  0  0  0  0  0
   43.9608   37.0265   44.7394 H   0  0  0  0  0  0  0  0  0  0  0  0
   44.7524   32.9274   47.0391 H   0  0  0  0  0  0  0  0  0  0  0  0
   46.3689   32.3850   46.4201 H   0  0  0  0  0  0  0  0  0  0  0  0
   48.3885   35.9887   42.7081 H   0  0  0  0  0  0  0  0  0  0  0  0
   49.6713   35.7830   40.5818 H   0  0  0  0  0  0  0  0  0  0  0  0
   48.7410   34.4387   38.8057 H   0  0  0  0  0  0  0  0  0  0  0  0
   46.4777   33.0531   38.6731 C   0  0  0  0  0  0  0  0  0  0  0  0
   46.5174   33.5176   37.3742 C   0  0  0  0  0  0  0  0  0  0  0  0
   46.9238   34.5075   37.1730 H   0  0  0  0  0  0  0  0  0  0  0  0
   46.0797   32.8309   36.2710 C   0  0  0  0  0  0  0  0  0  0  0  0
   45.5559   31.5672   36.4885 C   0  0  0  0  0  0  0  0  0  0  0  0
   45.4917   31.0482   37.7810 C   0  0  0  0  0  0  0  0  0  0  0  0
   44.9678   29.7874   37.9874 C   0  0  0  0  0  0  0  0  0  0  0  0
   44.8866   29.2369   39.2535 C   0  0  0  0  0  0  0  0  0  0  0  0
   45.3572   30.0100   40.3185 C   0  0  0  0  0  0  0  0  0  0  0  0
   45.8794   31.2629   40.1263 C   0  0  0  0  0  0  0  0  0  0  0  0
   45.9440   31.7741   38.8636 C   0  0  0  0  0  0  0  0  0  0  0  0
   46.1372   33.2484   35.2782 H   0  0  0  0  0  0  0  0  0  0  0  0
   45.1874   30.9579   35.6686 H   0  0  0  0  0  0  0  0  0  0  0  0
   44.6053   29.2000   37.1385 H   0  0  0  0  0  0  0  0  0  0  0  0
   44.4652   28.2371   39.3697 H   0  0  0  0  0  0  0  0  0  0  0  0
   45.2886   29.5705   41.2995 H   0  0  0  0  0  0  0  0  0  0  0  0
   46.2372   31.8407   40.9707 H   0  0  0  0  0  0  0  0  0  0  0  0
  1  2  2  0
  1  7  1  0
  3  2  1  0
  4  3  2  0
  5  4  1  0
  5  6  2  0
  6  1  1  0
  9  8  1  0
  9 10  2  0
 10  5  1  0
 11 10  1  0
 12 11  2  0
 13 14  2  0
 13 12  1  0
 14  9  1  0
  2 15  1  0
  3 16  1  0
  7 17  1  0
  7 18  1  0
 11 19  1  0
 12 20  1  0
 13 21  1  0
 22 23  2  0
 23 24  1  0
 23 25  1  0
 25 26  2  0
 26 27  1  0
 27 28  2  0
 28 29  1  0
 29 30  2  0
 30 31  1  0
 31 32  2  0
 32 22  1  0
 32 27  1  0
 25 33  1  0
 26 34  1  0
 28 35  1  0
 29 36  1  0
 30 37  1  0
 31 38  1  0
 14 22  1  0
M  ISO  6  15  14  16  14  19  14  20  14  21  14  24  15
M  END
>  <DihAtoms>  (1) 
12,13,21,22

>  <DihDeg>  (1) 
-90.00171148834113

$$$$
