
 OpenBabel03242521053D

 36 40  0  0  1  0  0  0  0  0999 V2000
   46.7590   34.7480   42.0900 C   0  0  0  0  0  0  0  0  0  0  0  0
   47.9190   35.4430   41.8260 C   0  0  0  0  0  0  0  0  0  0  0  0
   48.6690   35.3290   40.6830 C   0  0  0  0  0  0  0  0  0  0  0  0
   48.2420   34.4540   39.7120 C   0  0  0  0  0  0  0  0  0  0  0  0
   47.0940   33.7690   39.9770 C   0  0  0  0  0  0  0  0  0  0  0  0
   46.3920   33.9140   41.1160 N   0  0  0  0  0  0  0  0  0  0  0  0
   48.2830   36.1450   42.5800 H   0  0  0  0  0  0  0  0  0  0  0  0
   49.5720   35.9200   40.5630 H   0  0  0  0  0  0  0  0  0  0  0  0
   48.8580   34.3940   38.8320 H   0  0  0  0  0  0  0  0  0  0  0  0
   44.4650   35.9320   44.8390 C   0  0  0  0  0  0  0  0  0  0  0  0
   45.1140   35.9300   43.5840 C   0  0  0  0  0  0  0  0  0  0  0  0
   46.0020   34.9090   43.3250 C   0  0  0  0  0  0  0  0  0  0  0  0
   46.2050   33.9620   44.2830 N   0  0  0  0  0  0  0  0  0  0  0  0
   45.5600   33.9960   45.4810 C   0  0  0  0  0  0  0  0  0  0  0  0
   44.7000   34.9860   45.7310 N   0  0  0  0  0  0  0  0  0  0  0  0
   43.7810   36.7890   44.9370 H   0  0  0  0  0  0  0  0  0  0  0  0
   45.0040   36.6430   42.7830 H   0  0  0  0  0  0  0  0  0  0  0  0
   45.7390   33.2390   46.2120 H   0  0  0  0  0  0  0  0  0  0  0  0
   46.6060   32.8090   38.9370 C   0  0  2  0  0  0  0  0  0  0  0  0
   47.4540   31.6020   38.7400 C   0  0  0  0  0  0  0  0  0  0  0  0
   47.3300   32.6970   37.6890 C   0  0  1  0  0  0  0  0  0  0  0  0
   45.5200   32.5650   38.9770 H   0  0  0  0  0  0  0  0  0  0  0  0
   47.0090   30.6170   38.5650 H   0  0  0  0  0  0  0  0  0  0  0  0
   48.4270   31.5490   39.2850 H   0  0  0  0  0  0  0  0  0  0  0  0
   48.2450   33.3400   37.5640 H   0  0  0  0  0  0  0  0  0  0  0  0
   46.8190   32.1910   36.4170 C   0  0  0  0  0  0  0  0  0  0  0  0
   45.4210   32.0850   36.4630 C   0  0  0  0  0  0  0  0  0  0  0  0
   44.7620   32.3020   37.3180 H   0  0  0  0  0  0  0  0  0  0  0  0
   44.6920   31.6650   35.3500 C   0  0  0  0  0  0  0  0  0  0  0  0
   45.3570   31.3410   34.1630 C   0  0  0  0  0  0  0  0  0  0  0  0
   46.7180   31.4450   34.1240 C   0  0  0  0  0  0  0  0  0  0  0  0
   47.4920   31.1390   33.0050 C   0  0  0  0  0  0  0  0  0  0  0  0
   48.8820   31.2530   33.0330 C   0  0  0  0  0  0  0  0  0  0  0  0
   49.5560   31.6760   34.1780 C   0  0  0  0  0  0  0  0  0  0  0  0
   48.7830   31.9770   35.2790 C   0  0  0  0  0  0  0  0  0  0  0  0
   47.4100   31.8620   35.2400 C   0  0  0  0  0  0  0  0  0  0  0  0
  1 12  1  0  0  0  0
  2  1  1  0  0  0  0
  2  7  1  0  0  0  0
  3  2  2  0  0  0  0
  4  5  2  0  0  0  0
  4  3  1  0  0  0  0
  5  6  1  0  0  0  0
  6  1  2  0  0  0  0
  8  3  1  0  0  0  0
  9  4  1  0  0  0  0
 10 16  1  0  0  0  0
 10 15  1  0  0  0  0
 11 10  2  0  0  0  0
 12 11  1  0  0  0  0
 12 13  2  0  0  0  0
 13 14  1  0  0  0  0
 14 15  2  0  0  0  0
 14 18  1  0  0  0  0
 17 11  1  0  0  0  0
 19 22  1  6  0  0  0
 19  5  1  0  0  0  0
 20 19  1  0  0  0  0
 20 24  1  0  0  0  0
 21 25  1  6  0  0  0
 21 20  1  0  0  0  0
 21 19  1  0  0  0  0
 23 20  1  0  0  0  0
 26 27  1  0  0  0  0
 26 21  1  0  0  0  0
 27 28  1  0  0  0  0
 29 27  2  0  0  0  0
 30 29  1  0  0  0  0
 31 30  2  0  0  0  0
 31 36  1  0  0  0  0
 32 33  2  0  0  0  0
 32 31  1  0  0  0  0
 33 34  1  0  0  0  0
 34 35  2  0  0  0  0
 36 35  1  0  0  0  0
 36 26  2  0  0  0  0
M  END
>  <minimizedAffinity>
-6.27489662

>  <minimizedRMSD>
1.49728835

$$$$
