
 OpenBabel03252506383D

 46 50  0  0  1  0  0  0  0  0999 V2000
   44.5240   35.5090   45.1310 C   0  0  0  0  0  0  0  0  0  0  0  0
   45.1610   35.4900   43.8820 C   0  0  0  0  0  0  0  0  0  0  0  0
   46.0650   34.5200   43.6150 C   0  0  0  0  0  0  0  0  0  0  0  0
   46.3030   33.6100   44.5930 N   0  0  0  0  0  0  0  0  0  0  0  0
   45.7000   33.6320   45.7710 C   0  0  0  0  0  0  0  0  0  0  0  0
   44.8040   34.5750   46.0620 N   0  0  0  0  0  0  0  0  0  0  0  0
   46.0310   32.6180   46.7360 N   0  0  0  0  0  0  0  0  0  0  0  0
   45.3050   32.3800   47.9320 C   0  0  0  0  0  0  0  0  0  0  0  0
   46.3930   32.0240   48.9290 C   0  0  0  0  0  0  0  0  0  0  0  0
   47.6600   31.9040   48.1420 C   0  0  0  0  0  0  0  0  0  0  0  0
   47.1410   31.6940   46.7210 C   0  0  1  0  0  0  0  0  0  0  0  0
   43.7890   36.2600   45.4090 H   0  0  0  0  0  0  0  0  0  0  0  0
   46.5570   34.4910   42.6740 H   0  0  0  0  0  0  0  0  0  0  0  0
   44.9660   33.4050   48.2940 H   0  0  0  0  0  0  0  0  0  0  0  0
   44.4640   31.7690   48.0210 H   0  0  0  0  0  0  0  0  0  0  0  0
   46.4380   32.6600   49.8090 H   0  0  0  0  0  0  0  0  0  0  0  0
   46.1460   30.9950   49.3080 H   0  0  0  0  0  0  0  0  0  0  0  0
   48.2940   31.0550   48.4670 H   0  0  0  0  0  0  0  0  0  0  0  0
   48.1990   32.8750   48.1660 H   0  0  0  0  0  0  0  0  0  0  0  0
   47.9400   31.9710   46.0100 H   0  0  0  0  0  0  0  0  0  0  0  0
   44.7960   36.5280   42.9560 N   0  0  0  0  0  0  0  0  0  0  0  0
   43.9850   36.1240   42.4440 H   0  0  0  0  0  0  0  0  0  0  0  0
   45.2970   37.4470   42.8890 H   0  0  0  0  0  0  0  0  0  0  0  0
   46.6070   30.0070   46.5470 S   0  0  0  0  0  0  0  0  0  0  0  0
   45.5020   30.2840   43.4110 O   0  0  0  0  0  0  0  0  0  0  0  0
   44.8820   29.8550   44.3960 C   0  0  0  0  0  0  0  0  0  0  0  0
   45.0220   29.7430   45.8680 C   0  0  1  0  0  0  0  0  0  0  0  0
   44.4190   28.3860   46.1370 C   0  0  0  0  0  0  0  0  0  0  0  0
   43.0890   28.6040   45.4060 C   0  0  0  0  0  0  0  0  0  0  0  0
   43.5950   29.2390   44.1950 N   0  0  0  0  0  0  0  0  0  0  0  0
   44.1820   30.4190   46.1910 H   0  0  0  0  0  0  0  0  0  0  0  0
   44.2080   28.2570   47.2120 H   0  0  0  0  0  0  0  0  0  0  0  0
   44.9660   27.5610   45.6780 H   0  0  0  0  0  0  0  0  0  0  0  0
   42.4090   29.2340   45.9880 H   0  0  0  0  0  0  0  0  0  0  0  0
   42.6800   27.5940   45.1890 H   0  0  0  0  0  0  0  0  0  0  0  0
   42.7680   29.1640   43.0170 C   0  0  0  0  0  0  0  0  0  0  0  0
   41.8410   30.1960   42.9340 C   0  0  0  0  0  0  0  0  0  0  0  0
   41.7260   30.9880   43.6600 H   0  0  0  0  0  0  0  0  0  0  0  0
   40.9510   30.2920   41.8630 C   0  0  0  0  0  3  0  0  0  0  0  0
   41.0400   29.3080   40.8890 C   0  0  0  0  0  3  0  0  0  0  0  0
   41.9570   28.2910   40.9750 C   0  0  0  0  0  0  0  0  0  0  0  0
   42.0700   27.2930   40.0190 C   0  0  0  0  0  3  0  0  0  0  0  0
   42.9970   26.3020   40.1490 C   0  0  0  0  0  3  0  0  0  0  0  0
   43.8750   26.2340   41.2330 C   0  0  0  0  0  3  0  0  0  0  0  0
   43.7850   27.2240   42.2110 C   0  0  0  0  0  3  0  0  0  0  0  0
   42.8460   28.1960   42.0470 C   0  0  0  0  0  0  0  0  0  0  0  0
  1 12  1  0  0  0  0
  1  6  1  0  0  0  0
  2  1  2  0  0  0  0
  3  2  1  0  0  0  0
  3  4  2  0  0  0  0
  4  5  1  0  0  0  0
  5  6  2  0  0  0  0
  5  7  1  0  0  0  0
  7  8  1  0  0  0  0
  8 15  1  0  0  0  0
  8 14  1  0  0  0  0
  8  9  1  0  0  0  0
  9 17  1  0  0  0  0
  9 16  1  0  0  0  0
 10 19  1  0  0  0  0
 10 18  1  0  0  0  0
 10  9  1  0  0  0  0
 11 20  1  6  0  0  0
 11  7  1  0  0  0  0
 11 10  1  0  0  0  0
 13  3  1  0  0  0  0
 21  2  1  0  0  0  0
 22 21  1  0  0  0  0
 23 21  1  0  0  0  0
 24 11  1  0  0  0  0
 25 26  2  0  0  0  0
 26 27  1  0  0  0  0
 27 28  1  0  0  0  0
 27 31  1  1  0  0  0
 27 24  1  0  0  0  0
 28 32  1  0  0  0  0
 29 34  1  0  0  0  0
 29 28  1  0  0  0  0
 30 26  1  0  0  0  0
 30 29  1  0  0  0  0
 33 28  1  0  0  0  0
 35 29  1  0  0  0  0
 36 30  1  0  0  0  0
 37 36  1  0  0  0  0
 37 38  1  0  0  0  0
 39 37  2  0  0  0  0
 40 41  2  0  0  0  0
 40 39  1  0  0  0  0
 41 46  1  0  0  0  0
 42 43  2  0  0  0  0
 42 41  1  0  0  0  0
 43 44  1  0  0  0  0
 44 45  2  0  0  0  0
 46 45  1  0  0  0  0
 46 36  2  0  0  0  0
M  END
>  <minimizedAffinity>
-5.41494513

>  <minimizedRMSD>
1.31122804

$$$$
