
 OpenBabel03252507263D

 29 32  0  0  0  0  0  0  0  0999 V2000
   46.1310   33.3100   45.0850 C   0  0  0  0  0  0  0  0  0  0  0  0
   45.2060   34.2670   45.5070 C   0  0  0  0  0  0  0  0  0  0  0  0
   44.9340   35.3390   44.6590 C   0  0  0  0  0  0  0  0  0  0  0  0
   45.5850   35.4010   43.4530 N   0  0  0  0  0  0  0  0  0  0  0  0
   46.4600   34.4720   43.0760 C   0  0  0  0  0  0  0  0  0  0  0  0
   46.7120   33.4590   43.8890 N   0  0  0  0  0  0  0  0  0  0  0  0
   44.6570   34.2280   46.4070 H   0  0  0  0  0  0  0  0  0  0  0  0
   44.2290   36.0930   44.9570 H   0  0  0  0  0  0  0  0  0  0  0  0
   46.4970   32.0910   45.7770 C   0  0  0  0  0  0  0  0  0  0  0  0
   47.3860   31.2190   45.1330 C   0  0  0  0  0  0  0  0  0  0  0  0
   47.7670   31.4610   44.1390 H   0  0  0  0  0  0  0  0  0  0  0  0
   47.8460   30.0330   45.6530 C   0  0  0  0  0  3  0  0  0  0  0  0
   47.4270   29.6350   46.9010 C   0  0  0  0  0  3  0  0  0  0  0  0
   46.5620   30.4400   47.5870 C   0  0  0  0  0  0  0  0  0  0  0  0
   46.1450   30.0980   48.8560 C   0  0  0  0  0  3  0  0  0  0  0  0
   45.2940   30.8980   49.6250 C   0  0  0  0  0  3  0  0  0  0  0  0
   44.8890   32.0870   49.0060 C   0  0  0  0  0  3  0  0  0  0  0  0
   45.3120   32.4000   47.7570 C   0  0  0  0  0  3  0  0  0  0  0  0
   46.1440   31.6090   47.0080 C   0  0  0  0  0  0  0  0  0  0  0  0
   47.1320   34.5720   41.7810 C   0  0  0  0  0  0  0  0  0  0  0  0
   48.2120   35.4010   41.6340 C   0  0  0  0  0  0  0  0  0  0  0  0
   48.9130   35.5690   40.4520 C   0  0  0  0  0  0  0  0  0  0  0  0
   48.4290   34.8130   39.3930 C   0  0  0  0  0  0  0  0  0  0  0  0
   47.3360   33.9690   39.5280 C   0  0  0  0  0  0  0  0  0  0  0  0
   46.7040   33.8650   40.7320 N   0  0  0  0  0  0  0  0  0  0  0  0
   48.5420   35.9690   42.5110 H   0  0  0  0  0  0  0  0  0  0  0  0
   49.7620   36.2160   40.3210 H   0  0  0  0  0  0  0  0  0  0  0  0
   48.9190   34.8800   38.4210 H   0  0  0  0  0  0  0  0  0  0  0  0
   47.0190   33.4110   38.6520 H   0  0  0  0  0  0  0  0  0  0  0  0
  1  2  1  0  0  0  0
  1  9  1  0  0  0  0
  2  7  1  0  0  0  0
  3  8  1  0  0  0  0
  3  2  2  0  0  0  0
  4  3  1  0  0  0  0
  5  4  2  0  0  0  0
  5  6  1  0  0  0  0
  6  1  2  0  0  0  0
  9 19  1  0  0  0  0
 10 12  1  0  0  0  0
 10  9  2  0  0  0  0
 11 10  1  0  0  0  0
 12 13  2  0  0  0  0
 13 14  1  0  0  0  0
 14 15  1  0  0  0  0
 15 16  2  0  0  0  0
 17 16  1  0  0  0  0
 18 17  2  0  0  0  0
 19 14  2  0  0  0  0
 19 18  1  0  0  0  0
 20  5  1  0  0  0  0
 21 20  1  0  0  0  0
 21 26  1  0  0  0  0
 22 21  2  0  0  0  0
 23 24  2  0  0  0  0
 23 22  1  0  0  0  0
 24 25  1  0  0  0  0
 25 20  2  0  0  0  0
 27 22  1  0  0  0  0
 28 23  1  0  0  0  0
 29 24  1  0  0  0  0
M  END
>  <minimizedAffinity>
-5.98996544

>  <minimizedRMSD>
1.09924972

$$$$
