
     RDKit          3D

 42 46  0  0  0  0  0  0  0  0999 V2000
   45.2182   36.1806   43.4937 C   0  0  0  0  0  0  0  0  0  0  0  0
   45.8602   34.9712   43.1598 C   0  0  0  0  0  0  0  0  0  0  0  0
   45.8056   33.9931   44.1325 C   0  0  0  0  0  0  0  0  0  0  0  0
   45.1827   34.1812   45.3161 N   0  0  0  0  0  0  0  0  0  0  0  0
   44.5777   35.3606   45.5957 C   0  0  0  0  0  0  0  0  0  0  0  0
   44.5970   36.3565   44.6849 N   0  0  0  0  0  0  0  0  0  0  0  0
   46.4256   32.7580   43.8844 C   0  0  0  0  0  0  0  0  0  0  0  0
   47.6959   32.2766   44.0100 C   0  0  0  0  0  0  0  0  0  0  0  0
   48.0517   31.0416   43.7090 C   0  0  0  0  0  0  0  0  0  0  0  0
   47.0523   30.2341   43.2473 C   0  0  0  0  0  0  0  0  0  0  0  0
   45.5644   31.3311   43.2628 S   0  0  0  0  0  0  0  0  0  0  0  0
   46.4975   34.8281   41.8945 C   0  0  0  0  0  0  0  0  0  0  0  0
   47.6925   35.2375   41.8322 O   0  0  0  0  0  0  0  0  0  0  0  0
   45.7558   34.2267   40.7495 C   0  0  0  0  0  0  0  0  0  0  0  0
   44.4210   34.3473   40.4716 C   0  0  0  0  0  0  0  0  0  0  0  0
   44.2136   33.6377   39.3525 N   0  0  0  0  0  0  0  0  0  0  0  0
   45.3807   33.0888   38.9405 C   0  0  0  0  0  0  0  0  0  0  0  0
   46.3027   33.4651   39.8111 N   0  0  0  0  0  0  0  0  0  0  0  0
   45.2096   37.0123   42.7865 H   0  0  0  0  0  0  0  0  0  0  0  0
   44.0800   35.5112   46.5412 H   0  0  0  0  0  0  0  0  0  0  0  0
   48.4265   33.0193   44.3938 H   0  0  0  0  0  0  0  0  0  0  0  0
   49.0334   30.5987   43.7846 H   0  0  0  0  0  0  0  0  0  0  0  0
   47.0578   29.1691   42.9229 H   0  0  0  0  0  0  0  0  0  0  0  0
   43.7800   34.9251   41.1061 H   0  0  0  0  0  0  0  0  0  0  0  0
   43.2496   33.6116   38.9846 H   0  0  0  0  0  0  0  0  0  0  0  0
   45.3479   32.2801   37.7314 C   0  0  0  0  0  0  0  0  0  0  0  0
   44.2306   31.5700   37.3505 C   0  0  0  0  0  0  0  0  0  0  0  0
   43.3176   31.5748   37.9292 H   0  0  0  0  0  0  0  0  0  0  0  0
   44.1473   30.7907   36.2173 C   0  0  0  0  0  0  0  0  0  0  0  0
   45.2308   30.6880   35.3829 C   0  0  0  0  0  0  0  0  0  0  0  0
   46.3711   31.3692   35.7053 C   0  0  0  0  0  0  0  0  0  0  0  0
   47.4580   31.2629   34.8635 C   0  0  0  0  0  0  0  0  0  0  0  0
   48.6315   31.9218   35.1315 C   0  0  0  0  0  0  0  0  0  0  0  0
   48.6983   32.7073   36.2845 C   0  0  0  0  0  0  0  0  0  0  0  0
   47.5778   32.7713   37.0832 C   0  0  0  0  0  0  0  0  0  0  0  0
   46.3894   32.1273   36.8471 C   0  0  0  0  0  0  0  0  0  0  0  0
   43.2691   30.2497   35.9440 H   0  0  0  0  0  0  0  0  0  0  0  0
   45.1751   30.0819   34.4957 H   0  0  0  0  0  0  0  0  0  0  0  0
   47.3911   30.6517   33.9758 H   0  0  0  0  0  0  0  0  0  0  0  0
   49.4951   31.8527   34.4861 H   0  0  0  0  0  0  0  0  0  0  0  0
   49.6145   33.2181   36.4883 H   0  0  0  0  0  0  0  0  0  0  0  0
   47.7101   33.3928   37.9460 H   0  0  0  0  0  0  0  0  0  0  0  0
  1  6  2  0
  2  1  1  0
  2  3  2  0
  3  4  1  0
  4  5  2  0
  6  5  1  0
  7  8  2  0
  7  3  1  0
  9  8  1  0
 10 11  1  0
 10  9  2  0
 11  7  1  0
 12  2  1  0
 13 12  2  0
 14 12  1  0
 15 14  2  0
 16 15  1  0
 17 16  1  0
 17 18  2  0
 18 14  1  0
  1 19  1  0
  5 20  1  0
  8 21  1  0
  9 22  1  0
 10 23  1  0
 15 24  1  0
 16 25  1  0
 26 27  2  0
 27 28  1  0
 27 29  1  0
 29 30  2  0
 30 31  1  0
 31 32  2  0
 32 33  1  0
 33 34  2  0
 34 35  1  0
 35 36  2  0
 36 26  1  0
 36 31  1  0
 29 37  1  0
 30 38  1  0
 32 39  1  0
 33 40  1  0
 34 41  1  0
 35 42  1  0
 17 26  1  0
M  ISO  8  19  14  20  14  21  14  22  14  23  14  24  14  25   9  28  15
M  END
>  <DihAtoms>  (1) 
15,16,25,26

>  <DihDeg>  (1) 
0.14205604142914974

$$$$
