
     RDKit          3D

 36 39  0  0  0  0  0  0  0  0999 V2000
   44.4620   35.9562   44.8428 C   0  0  0  0  0  0  0  0  0  0  0  0
   45.1567   35.8746   43.6260 C   0  0  0  0  0  0  0  0  0  0  0  0
   46.0546   34.8413   43.3702 C   0  0  0  0  0  0  0  0  0  0  0  0
   46.2095   33.9343   44.3603 N   0  0  0  0  0  0  0  0  0  0  0  0
   45.5354   34.0226   45.5281 C   0  0  0  0  0  0  0  0  0  0  0  0
   44.6788   35.0131   45.7656 N   0  0  0  0  0  0  0  0  0  0  0  0
   44.5426   33.0912   41.3022 Br  0  0  0  0  0  0  0  0  0  0  0  0
   46.2169   33.9816   41.0994 C   0  0  0  0  0  0  0  0  0  0  0  0
   46.7910   34.7383   42.1039 C   0  0  0  0  0  0  0  0  0  0  0  0
   48.0034   35.3416   41.8582 C   0  0  0  0  0  0  0  0  0  0  0  0
   48.6698   35.2241   40.6547 C   0  0  0  0  0  0  0  0  0  0  0  0
   48.1086   34.4664   39.6298 C   0  0  0  0  0  0  0  0  0  0  0  0
   46.8957   33.8726   39.8988 C   0  0  0  0  0  0  0  0  0  0  0  0
   43.7801   36.7994   44.9543 H   0  0  0  0  0  0  0  0  0  0  0  0
   45.0545   36.5843   42.8151 H   0  0  0  0  0  0  0  0  0  0  0  0
   45.7379   33.2407   46.2491 H   0  0  0  0  0  0  0  0  0  0  0  0
   48.4328   35.9298   42.6626 H   0  0  0  0  0  0  0  0  0  0  0  0
   49.6202   35.7078   40.4877 H   0  0  0  0  0  0  0  0  0  0  0  0
   48.6128   34.3609   38.6796 H   0  0  0  0  0  0  0  0  0  0  0  0
   46.3344   33.0777   38.7853 C   0  0  0  0  0  0  0  0  0  0  0  0
   44.9745   32.9280   38.6025 C   0  0  0  0  0  0  0  0  0  0  0  0
   44.2772   33.4032   39.2903 H   0  0  0  0  0  0  0  0  0  0  0  0
   44.5446   32.1686   37.5366 C   0  0  0  0  0  0  0  0  0  0  0  0
   45.4783   31.5809   36.6844 C   0  0  0  0  0  0  0  0  0  0  0  0
   46.8426   31.7568   36.9039 C   0  0  0  0  0  0  0  0  0  0  0  0
   47.7366   31.1492   36.0245 C   0  0  0  0  0  0  0  0  0  0  0  0
   49.0976   31.3298   36.2511 C   0  0  0  0  0  0  0  0  0  0  0  0
   49.5786   32.0820   37.3057 C   0  0  0  0  0  0  0  0  0  0  0  0
   48.6429   32.6491   38.1288 C   0  0  0  0  0  0  0  0  0  0  0  0
   47.2990   32.5183   37.9725 C   0  0  0  0  0  0  0  0  0  0  0  0
   43.4781   32.0170   37.3448 H   0  0  0  0  0  0  0  0  0  0  0  0
   45.1315   30.9790   35.8395 H   0  0  0  0  0  0  0  0  0  0  0  0
   47.4068   30.5505   35.1840 H   0  0  0  0  0  0  0  0  0  0  0  0
   49.8369   30.8708   35.5852 H   0  0  0  0  0  0  0  0  0  0  0  0
   50.6293   32.2399   37.5068 H   0  0  0  0  0  0  0  0  0  0  0  0
   49.0037   33.2437   38.9629 H   0  0  0  0  0  0  0  0  0  0  0  0
  1  6  2  0
  2  1  1  0
  3  2  2  0
  3  4  1  0
  4  5  2  0
  5  6  1  0
  8  7  1  0
  8  9  2  0
  9  3  1  0
 10  9  1  0
 11 10  2  0
 12 13  2  0
 12 11  1  0
 13  8  1  0
  1 14  1  0
  2 15  1  0
  5 16  1  0
 10 17  1  0
 11 18  1  0
 12 19  1  0
 20 21  2  0
 21 22  1  0
 21 23  1  0
 23 24  2  0
 24 25  1  0
 25 26  2  0
 26 27  1  0
 27 28  2  0
 28 29  1  0
 29 30  2  0
 30 20  1  0
 30 25  1  0
 23 31  1  0
 24 32  1  0
 26 33  1  0
 27 34  1  0
 28 35  1  0
 29 36  1  0
 13 20  1  0
M  ISO  7  14  14  15  14  16  14  17  14  18  14  19  14  22  15
M  END
>  <DihAtoms>  (1) 
11,12,19,20

>  <DihDeg>  (1) 
-90.00001935794127

$$$$
