
 OpenBabel03252509213D

 27 30  0  0  0  0  0  0  0  0999 V2000
   43.6470   35.1570   42.3420 C   0  0  0  0  0  0  0  0  0  0  0  0
   43.1600   34.6200   41.1480 C   0  0  0  0  0  0  0  0  0  0  0  0
   44.2340   34.1470   40.3920 C   0  0  0  0  0  0  0  0  0  0  0  0
   45.5550   34.2310   40.8300 N   0  0  0  0  0  0  0  0  0  0  0  0
   45.8950   34.7690   42.0010 C   0  0  0  0  0  0  0  0  0  0  0  0
   44.9040   35.2440   42.7720 N   0  0  0  0  0  0  0  0  0  0  0  0
   42.9010   35.5750   43.0420 H   0  0  0  0  0  0  0  0  0  0  0  0
   46.9600   34.7230   42.1210 H   0  0  0  0  0  0  0  0  0  0  0  0
   41.8030   34.5570   40.7520 C   0  0  0  0  0  0  0  0  0  0  0  0
   41.1470   35.5490   40.0530 C   0  0  0  0  0  0  0  0  0  0  0  0
   41.7290   36.4430   39.7920 H   0  0  0  0  0  0  0  0  0  0  0  0
   39.8280   35.5210   39.6530 C   0  0  0  0  0  3  0  0  0  0  0  0
   39.1420   34.3620   40.0120 C   0  0  0  0  0  3  0  0  0  0  0  0
   39.7220   33.3070   40.7180 C   0  0  0  0  0  0  0  0  0  0  0  0
   38.9650   32.1970   41.0310 C   0  0  0  0  0  3  0  0  0  0  0  0
   39.5540   31.1480   41.7380 C   0  0  0  0  0  3  0  0  0  0  0  0
   40.8790   31.2900   42.0840 C   0  0  0  0  0  3  0  0  0  0  0  0
   41.6540   32.3850   41.7830 C   0  0  0  0  0  3  0  0  0  0  0  0
   41.0520   33.4170   41.0820 C   0  0  0  0  0  0  0  0  0  0  0  0
   43.9360   33.4430   39.1030 C   0  0  0  0  0  0  0  0  0  0  0  0
   45.1850   32.9570   38.4040 C   0  0  0  0  0  0  0  0  0  0  0  0
   44.1330   32.0290   39.0340 C   0  0  0  0  0  0  0  0  0  0  0  0
   43.2620   33.9840   38.4430 H   0  0  0  0  0  0  0  0  0  0  0  0
   45.2190   33.0480   37.3020 H   0  0  0  0  0  0  0  0  0  0  0  0
   46.1140   33.1660   38.9130 H   0  0  0  0  0  0  0  0  0  0  0  0
   43.7000   31.3430   38.2730 H   0  0  0  0  0  0  0  0  0  0  0  0
   44.5010   31.4240   39.9210 H   0  0  0  0  0  0  0  0  0  0  0  0
  1  6  1  0  0  0  0
  1  7  1  0  0  0  0
  2  1  2  0  0  0  0
  3  4  2  0  0  0  0
  3  2  1  0  0  0  0
  4  5  1  0  0  0  0
  5  8  1  0  0  0  0
  5  6  2  0  0  0  0
  9 19  1  0  0  0  0
  9  2  1  0  0  0  0
 10  9  2  0  0  0  0
 11 10  1  0  0  0  0
 12 13  2  0  0  0  0
 12 10  1  0  0  0  0
 13 14  1  0  0  0  0
 14 15  2  0  0  0  0
 14 19  1  0  0  0  0
 15 16  1  0  0  0  0
 16 17  2  0  0  0  0
 18 17  1  0  0  0  0
 19 18  2  0  0  0  0
 20  3  1  0  0  0  0
 21 25  1  0  0  0  0
 21 22  1  0  0  0  0
 21 20  1  0  0  0  0
 22 20  1  0  0  0  0
 22 27  1  0  0  0  0
 23 20  1  0  0  0  0
 24 21  1  0  0  0  0
 26 22  1  0  0  0  0
M  END
>  <minimizedAffinity>
-4.89611673

>  <minimizedRMSD>
4.88756371

$$$$
