REMARK  Name = 
REMARK  4 active torsions:
REMARK  status: ('A' for Active; 'I' for Inactive)
REMARK    1  A    between atoms: C_1  and  C_8
REMARK    2  A    between atoms: C_3  and  N_10
REMARK    3  A    between atoms: N_10  and  C_11
REMARK    4  A    between atoms: C_19  and  C_35
REMARK                            x       y       z     vdW  Elec       q    Type
REMARK                         _______ _______ _______ _____ _____    ______ ____
ROOT
ATOM      1  C   UNL     1      45.785  32.213  43.518  0.00  0.00    +0.000 A 
ATOM      2  C   UNL     1      46.151  31.517  44.666  0.00  0.00    +0.000 A 
ATOM      3  C   UNL     1      46.113  32.069  45.939  0.00  0.00    +0.000 A 
ATOM      4  C   UNL     1      45.694  33.379  46.116  0.00  0.00    +0.000 A 
ATOM      5  C   UNL     1      45.329  34.084  45.011  0.00  0.00    +0.000 A 
ATOM      6  C   UNL     1      44.909  35.386  45.173  0.00  0.00    +0.000 A 
ATOM      7  C   UNL     1      44.517  36.169  44.095  0.00  0.00    +0.000 A 
ATOM      8  C   UNL     1      44.568  35.576  42.837  0.00  0.00    +0.000 A 
ATOM      9  C   UNL     1      44.997  34.262  42.712  0.00  0.00    +0.000 A 
ATOM     10  C   UNL     1      45.381  33.501  43.772  0.00  0.00    +0.000 A 
ATOM     11  H   UNL     1      46.489  30.494  44.629  0.00  0.00    +0.000 HD
ATOM     12  H   UNL     1      46.409  31.489  46.812  0.00  0.00    +0.000 HD
ATOM     13  H   UNL     1      45.685  33.756  47.125  0.00  0.00    +0.000 HD
ATOM     14  H   UNL     1      44.888  35.801  46.183  0.00  0.00    +0.000 HD
ATOM     15  H   UNL     1      44.206  37.179  44.343  0.00  0.00    +0.000 HD
ATOM     16  H   UNL     1      44.240  36.283  42.088  0.00  0.00    +0.000 HD
ENDROOT
BRANCH   9  17
ATOM     17  C   UNL     1      44.908  33.932  41.302  0.00  0.00    +0.000 A 
ATOM     18  C   UNL     1      45.255  34.621  40.157  0.00  0.00    +0.000 A 
ATOM     19  H   UNL     1      45.707  35.584  40.412  0.00  0.00    +0.000 HD
ATOM     20  C   UNL     1      45.036  34.132  38.891  0.00  0.00    +0.000 A 
ATOM     21  C   UNL     1      44.448  32.903  38.683  0.00  0.00    +0.000 A 
ATOM     22  C   UNL     1      44.088  32.185  39.804  0.00  0.00    +0.000 A 
ATOM     23  C   UNL     1      43.503  30.963  39.551  0.00  0.00    +0.000 A 
ATOM     24  C   UNL     1      43.113  30.181  40.616  0.00  0.00    +0.000 A 
ATOM     25  C   UNL     1      43.307  30.620  41.909  0.00  0.00    +0.000 A 
ATOM     26  C   UNL     1      43.898  31.851  42.091  0.00  0.00    +0.000 A 
ATOM     27  C   UNL     1      44.310  32.682  41.070  0.00  0.00    +0.000 A 
ENDBRANCH   9  17
BRANCH   1  28
ATOM     28  N   UNL     1      45.864  31.574  42.271  0.00  0.00    +0.000 N 
ATOM     29  H   UNL     1      45.007  31.187  41.819  0.00  0.00    +0.000 HD
BRANCH  28  32
ATOM     30  C   UNL     1      48.332  30.931  42.246  0.00  0.00    +0.000 C 
ATOM     31  C   UNL     1      48.227  32.401  41.906  0.00  0.00    +0.000 C 
ATOM     32  C   UNL     1      47.118  31.398  41.595  0.00  0.00    +0.000 C 
ATOM     33  H   UNL     1      48.485  30.797  43.344  0.00  0.00    +0.000 HD
ATOM     34  H   UNL     1      48.061  33.134  42.698  0.00  0.00    +0.000 HD
ATOM     35  H   UNL     1      48.840  32.791  41.055  0.00  0.00    +0.000 HD
ATOM     36  H   UNL     1      47.030  31.125  40.508  0.00  0.00    +0.000 HD
BRANCH  30  41
ATOM     37  C   UNL     1      49.787  28.718  39.637  0.00  0.00    +0.000 A 
ATOM     38  C   UNL     1      51.108  28.532  40.138  0.00  0.00    +0.000 A 
ATOM     39  C   UNL     1      51.464  29.178  41.352  0.00  0.00    +0.000 A 
ATOM     40  N   UNL     1      50.561  29.935  41.984  0.00  0.00    +0.000 NA
ATOM     41  C   UNL     1      49.308  30.092  41.478  0.00  0.00    +0.000 A 
ATOM     42  N   UNL     1      48.917  29.487  40.307  0.00  0.00    +0.000 NA
ATOM     43  H   UNL     1      49.525  28.213  38.699  0.00  0.00    +0.000 HD
ATOM     44  H   UNL     1      51.826  27.924  39.627  0.00  0.00    +0.000 HD
ATOM     45  H   UNL     1      52.470  29.043  41.742  0.00  0.00    +0.000 HD
ENDBRANCH  30  41
ENDBRANCH  28  32
ENDBRANCH   1  28
TORSDOF 4
