
     RDKit          3D

 42 46  0  0  0  0  0  0  0  0999 V2000
   44.5232   35.8227   44.6487 C   0  0  0  0  0  0  0  0  0  0  0  0
   45.1640   35.7918   43.4061 C   0  0  0  0  0  0  0  0  0  0  0  0
   46.1020   34.8007   43.2329 C   0  0  0  0  0  0  0  0  0  0  0  0
   46.3605   33.9150   44.2510 N   0  0  0  0  0  0  0  0  0  0  0  0
   45.7133   33.9801   45.4449 C   0  0  0  0  0  0  0  0  0  0  0  0
   44.7966   34.9372   45.6350 N   0  0  0  0  0  0  0  0  0  0  0  0
   46.8328   34.6494   41.9304 C   0  0  0  0  0  0  0  0  0  0  0  0
   48.2030   35.3325   41.9413 C   0  0  0  0  0  0  0  0  0  0  0  0
   47.9807   33.7855   41.8577 C   0  0  0  0  0  0  0  0  0  0  0  0
   46.0178   33.0055   46.4859 C   0  0  0  0  0  0  0  0  0  0  0  0
   45.2322   32.9396   47.6038 C   0  0  0  0  0  0  0  0  0  0  0  0
   45.4956   32.0270   48.6014 C   0  0  0  0  0  0  0  0  0  0  0  0
   46.5749   31.1942   48.4212 C   0  0  0  0  0  0  0  0  0  0  0  0
   47.3649   31.2709   47.2770 C   0  0  0  0  0  0  0  0  0  0  0  0
   47.0655   32.1980   46.3077 N   0  0  0  0  0  0  0  0  0  0  0  0
   43.7718   36.5852   44.8431 H   0  0  0  0  0  0  0  0  0  0  0  0
   44.9408   36.4980   42.6293 H   0  0  0  0  0  0  0  0  0  0  0  0
   46.2626   34.9148   40.9997 H   0  0  0  0  0  0  0  0  0  0  0  0
   48.5944   35.7138   42.8930 H   0  0  0  0  0  0  0  0  0  0  0  0
   48.5866   35.8016   41.0341 H   0  0  0  0  0  0  0  0  0  0  0  0
   48.2478   33.2056   42.7786 H   0  0  0  0  0  0  0  0  0  0  0  0
   48.3007   33.3192   40.9032 H   0  0  0  0  0  0  0  0  0  0  0  0
   44.4023   33.6273   47.6726 H   0  0  0  0  0  0  0  0  0  0  0  0
   44.8749   31.9872   49.4666 H   0  0  0  0  0  0  0  0  0  0  0  0
   46.7678   30.5393   49.2401 H   0  0  0  0  0  0  0  0  0  0  0  0
   48.5658   30.5125   46.9882 C   0  0  0  0  0  0  0  0  0  0  0  0
   49.5952   30.5245   47.9465 C   0  0  0  0  0  0  0  0  0  0  0  0
   49.4561   31.0838   48.8672 H   0  0  0  0  0  0  0  0  0  0  0  0
   50.7914   29.8870   47.8405 C   0  0  0  0  0  0  0  0  0  0  0  0
   51.0601   29.1540   46.7105 C   0  0  0  0  0  0  0  0  0  0  0  0
   50.0990   29.0993   45.7271 C   0  0  0  0  0  0  0  0  0  0  0  0
   50.3706   28.3986   44.5764 C   0  0  0  0  0  0  0  0  0  0  0  0
   49.4636   28.3286   43.5199 C   0  0  0  0  0  0  0  0  0  0  0  0
   48.2617   29.0194   43.7096 C   0  0  0  0  0  0  0  0  0  0  0  0
   48.0307   29.7068   44.8769 C   0  0  0  0  0  0  0  0  0  0  0  0
   48.9138   29.7660   45.8962 C   0  0  0  0  0  0  0  0  0  0  0  0
   51.5428   29.9342   48.6137 H   0  0  0  0  0  0  0  0  0  0  0  0
   51.9901   28.6285   46.5761 H   0  0  0  0  0  0  0  0  0  0  0  0
   51.3140   27.8881   44.4899 H   0  0  0  0  0  0  0  0  0  0  0  0
   49.6768   27.7770   42.6154 H   0  0  0  0  0  0  0  0  0  0  0  0
   47.5708   28.9472   42.8625 H   0  0  0  0  0  0  0  0  0  0  0  0
   47.1069   30.2070   44.8572 H   0  0  0  0  0  0  0  0  0  0  0  0
  1  6  2  0
  2  1  1  0
  3  2  2  0
  3  4  1  0
  4  5  2  0
  5  6  1  0
  5 10  1  0
  7  3  1  0
  8  7  1  0
  9  8  1  0
  9  7  1  0
 10 11  2  0
 11 12  1  0
 13 12  2  0
 14 13  1  0
 15 10  1  0
 15 14  2  0
  1 16  1  0
  2 17  1  0
  7 18  1  0
  8 19  1  0
  8 20  1  0
  9 21  1  0
  9 22  1  0
 11 23  1  0
 12 24  1  0
 13 25  1  0
 26 27  2  0
 27 28  1  0
 27 29  1  0
 29 30  2  0
 30 31  1  0
 31 32  2  0
 32 33  1  0
 33 34  2  0
 34 35  1  0
 35 36  2  0
 36 26  1  0
 36 31  1  0
 29 37  1  0
 30 38  1  0
 32 39  1  0
 33 40  1  0
 34 41  1  0
 35 42  1  0
 14 26  1  0
M  ISO  8  16  14  17  14  18  13  19  13  20  13  21  13  22  13  23  14
M  ISO  3  24  14  25  14  28  15
M  END
>  <DihAtoms>  (1) 
12,13,25,26

>  <DihDeg>  (1) 
-142.77192116396014

$$$$
