
     RDKit          3D

 40 43  0  0  0  0  0  0  0  0999 V2000
   44.5262   35.0761   44.2305 C   0  0  0  0  0  0  0  0  0  0  0  0
   44.7752   34.1098   43.2687 C   0  0  0  0  0  0  0  0  0  0  0  0
   45.4472   32.9822   43.6680 C   0  0  0  0  0  0  0  0  0  0  0  0
   45.8489   32.8192   44.9391 N   0  0  0  0  0  0  0  0  0  0  0  0
   45.5882   33.7898   45.8633 C   0  0  0  0  0  0  0  0  0  0  0  0
   44.9416   34.8903   45.5115 N   0  0  0  0  0  0  0  0  0  0  0  0
   44.3180   34.3384   41.9634 N   0  0  0  0  0  0  0  0  0  0  0  0
   44.3281   33.3310   41.0086 C   0  0  1  0  0  0  0  0  0  0  0  0
   43.7235   33.6682   39.6854 C   0  0  0  0  0  0  0  0  0  0  0  0
   42.5732   34.4612   39.7089 N   0  0  0  0  0  0  0  0  0  0  0  0
   42.4411   35.3829   40.7637 C   0  0  0  0  0  0  0  0  0  0  0  0
   43.7678   35.5909   41.4870 C   0  0  0  0  0  0  0  0  0  0  0  0
   44.0205   36.0223   44.1337 H   0  0  0  0  0  0  0  0  0  0  0  0
   45.6994   32.1525   43.0663 H   0  0  0  0  0  0  0  0  0  0  0  0
   45.9252   33.6389   46.9017 H   0  0  0  0  0  0  0  0  0  0  0  0
   43.5598   32.5777   41.4260 H   0  0  0  0  0  0  0  0  0  0  0  0
   44.4432   34.1120   38.9672 H   0  0  0  0  0  0  0  0  0  0  0  0
   43.4524   32.6837   39.1973 H   0  0  0  0  0  0  0  0  0  0  0  0
   41.6893   34.0415   39.3891 H   0  0  0  0  0  0  0  0  0  0  0  0
   42.0471   36.3673   40.5298 H   0  0  0  0  0  0  0  0  0  0  0  0
   41.7688   34.9348   41.5360 H   0  0  0  0  0  0  0  0  0  0  0  0
   43.5870   36.3474   42.2389 H   0  0  0  0  0  0  0  0  0  0  0  0
   44.4373   36.0289   40.7129 H   0  0  0  0  0  0  0  0  0  0  0  0
   45.5055   32.4926   40.7277 C   0  0  0  0  0  0  0  0  0  0  0  0
   46.2968   32.7886   39.5924 C   0  0  0  0  0  0  0  0  0  0  0  0
   45.9922   33.6225   38.9390 H   0  0  0  0  0  0  0  0  0  0  0  0
   47.4246   32.1506   39.1941 C   0  0  0  0  0  0  0  0  0  0  0  0
   47.8760   31.0994   39.9507 C   0  0  0  0  0  0  0  0  0  0  0  0
   47.1904   30.7168   41.0799 C   0  0  0  0  0  0  0  0  0  0  0  0
   47.5944   29.6693   41.8792 C   0  0  0  0  0  0  0  0  0  0  0  0
   46.9032   29.2722   43.0294 C   0  0  0  0  0  0  0  0  0  0  0  0
   45.7505   29.9947   43.3552 C   0  0  0  0  0  0  0  0  0  0  0  0
   45.3885   31.0293   42.5285 C   0  0  0  0  0  0  0  0  0  0  0  0
   46.0610   31.4245   41.3993 C   0  0  0  0  0  0  0  0  0  0  0  0
   47.9728   32.4350   38.3163 H   0  0  0  0  0  0  0  0  0  0  0  0
   48.7601   30.5690   39.6735 H   0  0  0  0  0  0  0  0  0  0  0  0
   48.5098   29.1685   41.5366 H   0  0  0  0  0  0  0  0  0  0  0  0
   47.2672   28.4516   43.6081 H   0  0  0  0  0  0  0  0  0  0  0  0
   45.1993   29.7065   44.2397 H   0  0  0  0  0  0  0  0  0  0  0  0
   44.4978   31.5298   42.8447 H   0  0  0  0  0  0  0  0  0  0  0  0
  1  6  2  0
  2  3  2  0
  2  1  1  0
  3  4  1  0
  4  5  2  0
  6  5  1  0
  7  2  1  0
  8  7  1  0
  9 10  1  0
  9  8  1  0
 10 11  1  0
 11 12  1  0
 12  7  1  0
  1 13  1  0
  3 14  1  0
  5 15  1  0
  8 16  1  1
  9 17  1  0
  9 18  1  0
 10 19  1  0
 11 20  1  0
 11 21  1  0
 12 22  1  0
 12 23  1  0
 24 25  2  0
 25 26  1  0
 25 27  1  0
 27 28  2  0
 28 29  1  0
 29 30  2  0
 30 31  1  0
 31 32  2  0
 32 33  1  0
 33 34  2  0
 34 24  1  0
 34 29  1  0
 27 35  1  0
 28 36  1  0
 30 37  1  0
 31 38  1  0
 32 39  1  0
 33 40  1  0
  8 24  1  0
M  ISO  8  13  14  14  14  15  14  16  13  17  13  18  13  19   5  20  13
M  ISO  4  21  13  22  13  23  13  26  15
M  END
>  <DihAtoms>  (1) 
6,7,23,24

>  <DihDeg>  (1) 
139.02395874092346

$$$$
