
 OpenBabel03242518483D

 47 51  0  0  1  0  0  0  0  0999 V2000
   39.7540   30.7450   39.9820 C   0  0  2  0  0  0  0  0  0  0  0  0
   39.5960   32.0440   39.2770 C   0  0  1  0  0  0  0  0  0  0  0  0
   38.5960   32.9660   39.9790 C   0  0  0  0  0  0  0  0  0  0  0  0
   37.4360   32.1910   40.0860 O   0  0  0  0  0  0  0  0  0  0  0  0
   37.5660   31.2150   41.0500 C   0  0  0  0  0  0  0  0  0  0  0  0
   38.9780   30.7940   41.3130 C   0  0  1  0  0  0  0  0  0  0  0  0
   39.3410   29.9360   39.3470 H   0  0  0  0  0  0  0  0  0  0  0  0
   39.2300   31.8770   38.2260 H   0  0  0  0  0  0  0  0  0  0  0  0
   38.9700   33.3180   40.9390 H   0  0  0  0  0  0  0  0  0  0  0  0
   38.3840   33.7880   39.2660 H   0  0  0  0  0  0  0  0  0  0  0  0
   36.9780   30.3080   40.7690 H   0  0  0  0  0  0  0  0  0  0  0  0
   37.1650   31.6140   42.0150 H   0  0  0  0  0  0  0  0  0  0  0  0
   39.5440   31.5320   41.9220 H   0  0  0  0  0  0  0  0  0  0  0  0
   42.3370   33.9450   37.7700 C   0  0  0  0  0  0  0  0  0  0  0  0
   43.1430   34.3350   38.8810 C   0  0  0  0  0  0  0  0  0  0  0  0
   42.6820   33.9070   40.1500 C   0  0  0  0  0  0  0  0  0  0  0  0
   41.5460   33.1790   40.2350 N   0  0  0  0  0  0  0  0  0  0  0  0
   40.8270   32.8430   39.1430 C   0  0  0  0  0  0  0  0  0  0  0  0
   41.2250   33.2270   37.9070 N   0  0  0  0  0  0  0  0  0  0  0  0
   44.0260   34.9100   38.7240 H   0  0  0  0  0  0  0  0  0  0  0  0
   43.2860   34.1970   40.9930 H   0  0  0  0  0  0  0  0  0  0  0  0
   42.7680   34.3490   36.5410 O   0  0  0  0  0  0  0  0  0  0  0  0
   42.1310   34.5700   35.7650 H   0  0  0  0  0  0  0  0  0  0  0  0
   41.0820   30.4180   40.2680 O   0  0  0  0  0  0  0  0  0  0  0  0
   41.5930   31.1790   40.6140 H   0  0  0  0  0  0  0  0  0  0  0  0
   39.0870   29.5450   41.8800 O   0  0  0  0  0  0  0  0  0  0  0  0
   38.9410   27.3630   40.2910 F   0  0  0  0  0  0  0  0  0  0  0  0
   38.2400   27.5390   41.4290 C   0  0  0  0  0  0  0  0  0  0  0  0
   38.2530   28.6110   42.2980 C   0  0  0  0  0  0  0  0  0  0  0  0
   37.4160   28.4870   43.3960 C   0  0  0  0  0  0  0  0  0  0  0  0
   36.6010   27.4160   43.6800 C   0  0  0  0  0  0  0  0  0  0  0  0
   36.6300   26.3880   42.7880 C   0  0  0  0  0  0  0  0  0  0  0  0
   37.4290   26.4120   41.6600 C   0  0  0  0  0  0  0  0  0  0  0  0
   37.4820   29.3810   44.0420 H   0  0  0  0  0  0  0  0  0  0  0  0
   36.0090   27.4710   44.5770 H   0  0  0  0  0  0  0  0  0  0  0  0
   35.9780   25.5320   43.0140 H   0  0  0  0  0  0  0  0  0  0  0  0
   37.3400   25.2300   40.8100 C   0  0  0  0  0  0  0  0  0  0  0  0
   37.9640   24.1100   41.3420 C   0  0  0  0  0  0  0  0  0  0  0  0
   38.4790   24.1150   42.3140 H   0  0  0  0  0  0  0  0  0  0  0  0
   38.0050   22.8850   40.7100 C   0  0  0  0  0  3  0  0  0  0  0  0
   37.3750   22.7880   39.4670 C   0  0  0  0  0  3  0  0  0  0  0  0
   36.7400   23.9070   38.9170 C   0  0  0  0  0  0  0  0  0  0  0  0
   36.1130   23.8290   37.6890 C   0  0  0  0  0  3  0  0  0  0  0  0
   35.5000   24.9850   37.2010 C   0  0  0  0  0  3  0  0  0  0  0  0
   35.4940   26.1910   37.8850 C   0  0  0  0  0  3  0  0  0  0  0  0
   36.1300   26.2590   39.1230 C   0  0  0  0  0  3  0  0  0  0  0  0
   36.7250   25.1130   39.5840 C   0  0  0  0  0  0  0  0  0  0  0  0
  1  7  1  6  0  0  0
  1 24  1  0  0  0  0
  1  6  1  0  0  0  0
  2  8  1  6  0  0  0
  2  3  1  0  0  0  0
  2  1  1  0  0  0  0
  3  4  1  0  0  0  0
  3  9  1  0  0  0  0
  4  5  1  0  0  0  0
  5  6  1  0  0  0  0
  5 12  1  0  0  0  0
  6 26  1  0  0  0  0
  6 13  1  1  0  0  0
 10  3  1  0  0  0  0
 11  5  1  0  0  0  0
 14 19  2  0  0  0  0
 14 15  1  0  0  0  0
 15 16  2  0  0  0  0
 16 17  1  0  0  0  0
 16 21  1  0  0  0  0
 18  2  1  0  0  0  0
 18 17  2  0  0  0  0
 19 18  1  0  0  0  0
 20 15  1  0  0  0  0
 22 14  1  0  0  0  0
 23 22  1  0  0  0  0
 24 25  1  0  0  0  0
 26 29  1  0  0  0  0
 27 28  1  0  0  0  0
 28 33  2  0  0  0  0
 28 29  1  0  0  0  0
 29 30  2  0  0  0  0
 30 31  1  0  0  0  0
 30 34  1  0  0  0  0
 31 35  1  0  0  0  0
 32 36  1  0  0  0  0
 32 31  2  0  0  0  0
 33 32  1  0  0  0  0
 37 38  1  0  0  0  0
 37 33  1  0  0  0  0
 38 39  1  0  0  0  0
 40 38  2  0  0  0  0
 41 40  1  0  0  0  0
 42 41  2  0  0  0  0
 42 47  1  0  0  0  0
 43 42  1  0  0  0  0
 44 43  2  0  0  0  0
 44 45  1  0  0  0  0
 45 46  2  0  0  0  0
 46 47  1  0  0  0  0
 47 37  2  0  0  0  0
M  END
>  <minimizedAffinity>
-7.55566072

$$$$

 OpenBabel03242518483D

 47 51  0  0  1  0  0  0  0  0999 V2000
   40.6390   32.3690   37.6060 C   0  0  2  0  0  0  0  0  0  0  0  0
   41.4780   33.4050   38.2630 C   0  0  1  0  0  0  0  0  0  0  0  0
   41.0890   33.6240   39.7270 C   0  0  0  0  0  0  0  0  0  0  0  0
   39.7190   33.8980   39.6760 O   0  0  0  0  0  0  0  0  0  0  0  0
   38.9840   32.7630   39.4090 C   0  0  0  0  0  0  0  0  0  0  0  0
   39.7360   31.7060   38.6640 C   0  0  1  0  0  0  0  0  0  0  0  0
   40.0070   32.8510   36.8340 H   0  0  0  0  0  0  0  0  0  0  0  0
   41.3730   34.3900   37.7280 H   0  0  0  0  0  0  0  0  0  0  0  0
   41.3350   32.7630   40.3460 H   0  0  0  0  0  0  0  0  0  0  0  0
   41.6050   34.5520   40.0460 H   0  0  0  0  0  0  0  0  0  0  0  0
   38.0680   33.0200   38.8240 H   0  0  0  0  0  0  0  0  0  0  0  0
   38.6680   32.3080   40.3820 H   0  0  0  0  0  0  0  0  0  0  0  0
   40.4480   31.1450   39.3070 H   0  0  0  0  0  0  0  0  0  0  0  0
   45.0120   33.3790   37.3090 C   0  0  0  0  0  0  0  0  0  0  0  0
   45.6400   32.5910   38.3190 C   0  0  0  0  0  0  0  0  0  0  0  0
   44.7790   32.0870   39.3240 C   0  0  0  0  0  0  0  0  0  0  0  0
   43.4580   32.3690   39.2710 N   0  0  0  0  0  0  0  0  0  0  0  0
   42.9250   33.1240   38.2870 C   0  0  0  0  0  0  0  0  0  0  0  0
   43.7050   33.6290   37.3020 N   0  0  0  0  0  0  0  0  0  0  0  0
   46.6910   32.4170   38.2840 H   0  0  0  0  0  0  0  0  0  0  0  0
   45.2460   31.4910   40.0900 H   0  0  0  0  0  0  0  0  0  0  0  0
   45.8280   33.8710   36.3340 O   0  0  0  0  0  0  0  0  0  0  0  0
   45.6630   34.7690   35.8600 H   0  0  0  0  0  0  0  0  0  0  0  0
   41.3770   31.3630   36.9770 O   0  0  0  0  0  0  0  0  0  0  0  0
   42.1300   31.0510   37.5200 H   0  0  0  0  0  0  0  0  0  0  0  0
   38.9240   30.8200   37.9920 O   0  0  0  0  0  0  0  0  0  0  0  0
   38.9920   29.1300   40.1000 F   0  0  0  0  0  0  0  0  0  0  0  0
   37.9130   29.3540   39.3220 C   0  0  0  0  0  0  0  0  0  0  0  0
   37.7880   30.1940   38.2340 C   0  0  0  0  0  0  0  0  0  0  0  0
   36.5330   30.2080   37.6450 C   0  0  0  0  0  0  0  0  0  0  0  0
   35.4400   29.4750   38.0430 C   0  0  0  0  0  0  0  0  0  0  0  0
   35.6220   28.6640   39.1200 C   0  0  0  0  0  0  0  0  0  0  0  0
   36.8340   28.5770   39.7810 C   0  0  0  0  0  0  0  0  0  0  0  0
   36.5120   30.9020   36.7850 H   0  0  0  0  0  0  0  0  0  0  0  0
   34.5320   29.5980   37.4790 H   0  0  0  0  0  0  0  0  0  0  0  0
   34.7480   28.0780   39.4400 H   0  0  0  0  0  0  0  0  0  0  0  0
   36.8570   27.6600   40.9160 C   0  0  0  0  0  0  0  0  0  0  0  0
   36.6000   28.2720   42.1350 C   0  0  0  0  0  0  0  0  0  0  0  0
   36.3990   29.3480   42.2360 H   0  0  0  0  0  0  0  0  0  0  0  0
   36.5740   27.5980   43.3390 C   0  0  0  0  0  3  0  0  0  0  0  0
   36.8200   26.2230   43.3050 C   0  0  0  0  0  3  0  0  0  0  0  0
   37.0800   25.5900   42.0840 C   0  0  0  0  0  0  0  0  0  0  0  0
   37.3270   24.2320   42.0320 C   0  0  0  0  0  3  0  0  0  0  0  0
   37.5780   23.6670   40.7800 C   0  0  0  0  0  3  0  0  0  0  0  0
   37.5920   24.4000   39.6030 C   0  0  0  0  0  3  0  0  0  0  0  0
   37.3420   25.7700   39.6660 C   0  0  0  0  0  3  0  0  0  0  0  0
   37.0980   26.3040   40.9040 C   0  0  0  0  0  0  0  0  0  0  0  0
  1  7  1  6  0  0  0
  1  2  1  0  0  0  0
  1  6  1  0  0  0  0
  2  8  1  6  0  0  0
  2 18  1  0  0  0  0
  2  3  1  0  0  0  0
  3 10  1  0  0  0  0
  3  9  1  0  0  0  0
  4  3  1  0  0  0  0
  5  4  1  0  0  0  0
  5 12  1  0  0  0  0
  6 13  1  1  0  0  0
  6  5  1  0  0  0  0
 11  5  1  0  0  0  0
 14 15  1  0  0  0  0
 15 16  2  0  0  0  0
 16 21  1  0  0  0  0
 17 16  1  0  0  0  0
 18 17  2  0  0  0  0
 19 14  2  0  0  0  0
 19 18  1  0  0  0  0
 20 15  1  0  0  0  0
 22 14  1  0  0  0  0
 23 22  1  0  0  0  0
 24 25  1  0  0  0  0
 24  1  1  0  0  0  0
 26 29  1  0  0  0  0
 26  6  1  0  0  0  0
 28 33  1  0  0  0  0
 28 27  1  0  0  0  0
 29 28  2  0  0  0  0
 30 31  2  0  0  0  0
 30 29  1  0  0  0  0
 31 32  1  0  0  0  0
 32 36  1  0  0  0  0
 32 33  2  0  0  0  0
 33 37  1  0  0  0  0
 34 30  1  0  0  0  0
 35 31  1  0  0  0  0
 37 38  1  0  0  0  0
 38 39  1  0  0  0  0
 38 40  2  0  0  0  0
 41 40  1  0  0  0  0
 42 41  2  0  0  0  0
 43 42  1  0  0  0  0
 44 43  2  0  0  0  0
 45 46  2  0  0  0  0
 45 44  1  0  0  0  0
 46 47  1  0  0  0  0
 47 37  2  0  0  0  0
 47 42  1  0  0  0  0
M  END
>  <minimizedAffinity>
-7.4477725

$$$$

 OpenBabel03242518483D

 47 51  0  0  1  0  0  0  0  0999 V2000
   40.6360   31.8000   37.4820 C   0  0  2  0  0  0  0  0  0  0  0  0
   41.8750   32.6110   37.6100 C   0  0  1  0  0  0  0  0  0  0  0  0
   41.9940   33.2750   38.9840 C   0  0  0  0  0  0  0  0  0  0  0  0
   40.7930   33.9780   39.1260 O   0  0  0  0  0  0  0  0  0  0  0  0
   39.7350   33.1300   39.3710 C   0  0  0  0  0  0  0  0  0  0  0  0
   39.9280   31.7400   38.8500 C   0  0  1  0  0  0  0  0  0  0  0  0
   39.9650   32.2790   36.7420 H   0  0  0  0  0  0  0  0  0  0  0  0
   41.8910   33.4250   36.8330 H   0  0  0  0  0  0  0  0  0  0  0  0
   42.1640   32.5470   39.7750 H   0  0  0  0  0  0  0  0  0  0  0  0
   42.8090   34.0210   38.8950 H   0  0  0  0  0  0  0  0  0  0  0  0
   38.7940   33.5420   38.9290 H   0  0  0  0  0  0  0  0  0  0  0  0
   39.5990   33.0420   40.4780 H   0  0  0  0  0  0  0  0  0  0  0  0
   40.6150   31.1340   39.4780 H   0  0  0  0  0  0  0  0  0  0  0  0
   44.5410   30.6510   36.0450 C   0  0  0  0  0  0  0  0  0  0  0  0
   45.4970   30.4690   37.0880 C   0  0  0  0  0  0  0  0  0  0  0  0
   45.1640   31.0560   38.3330 C   0  0  0  0  0  0  0  0  0  0  0  0
   44.0000   31.7320   38.4590 N   0  0  0  0  0  0  0  0  0  0  0  0
   43.1360   31.8700   37.4310 C   0  0  0  0  0  0  0  0  0  0  0  0
   43.4070   31.3270   36.2200 N   0  0  0  0  0  0  0  0  0  0  0  0
   46.3920   29.9200   36.9010 H   0  0  0  0  0  0  0  0  0  0  0  0
   45.8810   30.9210   39.1240 H   0  0  0  0  0  0  0  0  0  0  0  0
   44.8470   30.0910   34.8400 O   0  0  0  0  0  0  0  0  0  0  0  0
   44.5580   30.4950   33.9400 H   0  0  0  0  0  0  0  0  0  0  0  0
   40.8630   30.4890   37.0560 O   0  0  0  0  0  0  0  0  0  0  0  0
   41.6270   30.0720   37.5070 H   0  0  0  0  0  0  0  0  0  0  0  0
   38.7510   31.0540   38.6550 O   0  0  0  0  0  0  0  0  0  0  0  0
   39.1320   28.4450   39.2500 F   0  0  0  0  0  0  0  0  0  0  0  0
   38.0920   29.1910   39.6740 C   0  0  0  0  0  0  0  0  0  0  0  0
   37.8190   30.5200   39.4240 C   0  0  0  0  0  0  0  0  0  0  0  0
   36.6630   31.0030   40.0150 C   0  0  0  0  0  0  0  0  0  0  0  0
   35.7940   30.2890   40.8060 C   0  0  0  0  0  0  0  0  0  0  0  0
   36.1130   28.9830   41.0180 C   0  0  0  0  0  0  0  0  0  0  0  0
   37.2450   28.4020   40.4740 C   0  0  0  0  0  0  0  0  0  0  0  0
   36.5140   32.0710   39.7700 H   0  0  0  0  0  0  0  0  0  0  0  0
   34.9360   30.8100   41.1930 H   0  0  0  0  0  0  0  0  0  0  0  0
   35.4190   28.4100   41.6500 H   0  0  0  0  0  0  0  0  0  0  0  0
   37.4380   26.9930   40.8010 C   0  0  0  0  0  0  0  0  0  0  0  0
   36.6880   26.1290   40.0150 C   0  0  0  0  0  0  0  0  0  0  0  0
   36.0100   26.4750   39.2210 H   0  0  0  0  0  0  0  0  0  0  0  0
   36.7140   24.7560   40.1490 C   0  0  0  0  0  3  0  0  0  0  0  0
   37.5500   24.2280   41.1370 C   0  0  0  0  0  3  0  0  0  0  0  0
   38.3130   25.0860   41.9370 C   0  0  0  0  0  0  0  0  0  0  0  0
   39.1430   24.5810   42.9190 C   0  0  0  0  0  3  0  0  0  0  0  0
   39.8760   25.4950   43.6790 C   0  0  0  0  0  3  0  0  0  0  0  0
   39.8060   26.8670   43.4960 C   0  0  0  0  0  3  0  0  0  0  0  0
   38.9640   27.3660   42.5030 C   0  0  0  0  0  3  0  0  0  0  0  0
   38.2550   26.4530   41.7680 C   0  0  0  0  0  0  0  0  0  0  0  0
  1  7  1  6  0  0  0
  1  2  1  0  0  0  0
  1  6  1  0  0  0  0
  2  8  1  6  0  0  0
  2  3  1  0  0  0  0
  3  4  1  0  0  0  0
  3  9  1  0  0  0  0
  4  5  1  0  0  0  0
  5 12  1  0  0  0  0
  6  5  1  0  0  0  0
  6 13  1  1  0  0  0
 10  3  1  0  0  0  0
 11  5  1  0  0  0  0
 14 19  2  0  0  0  0
 14 15  1  0  0  0  0
 15 16  2  0  0  0  0
 16 17  1  0  0  0  0
 16 21  1  0  0  0  0
 18  2  1  0  0  0  0
 18 17  2  0  0  0  0
 19 18  1  0  0  0  0
 20 15  1  0  0  0  0
 22 14  1  0  0  0  0
 23 22  1  0  0  0  0
 24  1  1  0  0  0  0
 24 25  1  0  0  0  0
 26  6  1  0  0  0  0
 26 29  1  0  0  0  0
 27 28  1  0  0  0  0
 28 33  1  0  0  0  0
 29 28  2  0  0  0  0
 29 30  1  0  0  0  0
 30 31  2  0  0  0  0
 31 32  1  0  0  0  0
 31 35  1  0  0  0  0
 32 36  1  0  0  0  0
 33 37  1  0  0  0  0
 33 32  2  0  0  0  0
 34 30  1  0  0  0  0
 37 47  1  0  0  0  0
 38 40  1  0  0  0  0
 38 37  2  0  0  0  0
 39 38  1  0  0  0  0
 40 41  2  0  0  0  0
 41 42  1  0  0  0  0
 42 43  1  0  0  0  0
 43 44  2  0  0  0  0
 45 44  1  0  0  0  0
 46 45  2  0  0  0  0
 47 42  2  0  0  0  0
 47 46  1  0  0  0  0
M  END
>  <minimizedAffinity>
-7.27754927

$$$$

 OpenBabel03242518483D

 47 51  0  0  1  0  0  0  0  0999 V2000
   40.3900   31.3290   38.7480 C   0  0  2  0  0  0  0  0  0  0  0  0
   41.1160   32.3370   37.9320 C   0  0  1  0  0  0  0  0  0  0  0  0
   41.5020   33.5730   38.7470 C   0  0  0  0  0  0  0  0  0  0  0  0
   40.2930   34.0030   39.3050 O   0  0  0  0  0  0  0  0  0  0  0  0
   39.8830   33.1730   40.3260 C   0  0  0  0  0  0  0  0  0  0  0  0
   40.3990   31.7720   40.2240 C   0  0  1  0  0  0  0  0  0  0  0  0
   39.3430   31.2600   38.3930 H   0  0  0  0  0  0  0  0  0  0  0  0
   40.4740   32.6780   37.0720 H   0  0  0  0  0  0  0  0  0  0  0  0
   42.2650   33.3490   39.4900 H   0  0  0  0  0  0  0  0  0  0  0  0
   41.8210   34.3390   38.0110 H   0  0  0  0  0  0  0  0  0  0  0  0
   38.7670   33.1320   40.3700 H   0  0  0  0  0  0  0  0  0  0  0  0
   40.2630   33.5860   41.2940 H   0  0  0  0  0  0  0  0  0  0  0  0
   41.4670   31.6810   40.5210 H   0  0  0  0  0  0  0  0  0  0  0  0
   43.4510   30.4520   35.8360 C   0  0  0  0  0  0  0  0  0  0  0  0
   44.7310   30.9780   36.1810 C   0  0  0  0  0  0  0  0  0  0  0  0
   44.7280   32.0020   37.1600 C   0  0  0  0  0  0  0  0  0  0  0  0
   43.5540   32.4080   37.6940 N   0  0  0  0  0  0  0  0  0  0  0  0
   42.3730   31.8690   37.3230 C   0  0  0  0  0  0  0  0  0  0  0  0
   42.3220   30.8870   36.3920 N   0  0  0  0  0  0  0  0  0  0  0  0
   45.6090   30.5980   35.7100 H   0  0  0  0  0  0  0  0  0  0  0  0
   45.6910   32.4030   37.4260 H   0  0  0  0  0  0  0  0  0  0  0  0
   43.4380   29.4650   34.8960 O   0  0  0  0  0  0  0  0  0  0  0  0
   42.6660   29.3300   34.2300 H   0  0  0  0  0  0  0  0  0  0  0  0
   40.9410   30.0470   38.6790 O   0  0  0  0  0  0  0  0  0  0  0  0
   41.9190   30.0520   38.7400 H   0  0  0  0  0  0  0  0  0  0  0  0
   39.6460   30.8530   40.9180 O   0  0  0  0  0  0  0  0  0  0  0  0
   39.3390   28.1670   40.8880 F   0  0  0  0  0  0  0  0  0  0  0  0
   38.3300   29.0620   40.8850 C   0  0  0  0  0  0  0  0  0  0  0  0
   38.3920   30.4400   40.9010 C   0  0  0  0  0  0  0  0  0  0  0  0
   37.1640   31.0830   40.9000 C   0  0  0  0  0  0  0  0  0  0  0  0
   35.9300   30.4780   40.8840 C   0  0  0  0  0  0  0  0  0  0  0  0
   35.9290   29.1170   40.8680 C   0  0  0  0  0  0  0  0  0  0  0  0
   37.0990   28.3790   40.8680 C   0  0  0  0  0  0  0  0  0  0  0  0
   37.2960   32.1800   40.9140 H   0  0  0  0  0  0  0  0  0  0  0  0
   35.0650   31.1190   40.8870 H   0  0  0  0  0  0  0  0  0  0  0  0
   34.9430   28.6320   40.8560 H   0  0  0  0  0  0  0  0  0  0  0  0
   36.9200   26.9310   40.8500 C   0  0  0  0  0  0  0  0  0  0  0  0
   37.0910   26.3310   42.0900 C   0  0  0  0  0  0  0  0  0  0  0  0
   37.3400   26.8950   43.0000 H   0  0  0  0  0  0  0  0  0  0  0  0
   36.9710   24.9740   42.3060 C   0  0  0  0  0  3  0  0  0  0  0  0
   36.6560   24.1790   41.2010 C   0  0  0  0  0  3  0  0  0  0  0  0
   36.4790   24.7680   39.9440 C   0  0  0  0  0  0  0  0  0  0  0  0
   36.1680   23.9970   38.8410 C   0  0  0  0  0  3  0  0  0  0  0  0
   36.0050   24.6520   37.6190 C   0  0  0  0  0  3  0  0  0  0  0  0
   36.1420   26.0230   37.4660 C   0  0  0  0  0  3  0  0  0  0  0  0
   36.4560   26.7920   38.5850 C   0  0  0  0  0  3  0  0  0  0  0  0
   36.6100   26.1300   39.7740 C   0  0  0  0  0  0  0  0  0  0  0  0
  1  7  1  6  0  0  0
  1  6  1  0  0  0  0
  2  8  1  6  0  0  0
  2  3  1  0  0  0  0
  2  1  1  0  0  0  0
  3  4  1  0  0  0  0
  3  9  1  0  0  0  0
  4  5  1  0  0  0  0
  5 11  1  0  0  0  0
  5 12  1  0  0  0  0
  6  5  1  0  0  0  0
  6 13  1  1  0  0  0
  6 26  1  0  0  0  0
 10  3  1  0  0  0  0
 14 15  2  0  0  0  0
 14 19  1  0  0  0  0
 15 16  1  0  0  0  0
 16 21  1  0  0  0  0
 16 17  2  0  0  0  0
 18 17  1  0  0  0  0
 18  2  1  0  0  0  0
 19 18  2  0  0  0  0
 20 15  1  0  0  0  0
 22 14  1  0  0  0  0
 23 22  1  0  0  0  0
 24 25  1  0  0  0  0
 24  1  1  0  0  0  0
 28 27  1  0  0  0  0
 28 29  1  0  0  0  0
 29 26  1  0  0  0  0
 30 29  2  0  0  0  0
 30 34  1  0  0  0  0
 31 35  1  0  0  0  0
 31 30  1  0  0  0  0
 32 31  2  0  0  0  0
 33 32  1  0  0  0  0
 33 28  2  0  0  0  0
 36 32  1  0  0  0  0
 37 33  1  0  0  0  0
 37 38  1  0  0  0  0
 38 40  2  0  0  0  0
 38 39  1  0  0  0  0
 41 40  1  0  0  0  0
 42 41  2  0  0  0  0
 43 42  1  0  0  0  0
 44 43  2  0  0  0  0
 45 44  1  0  0  0  0
 45 46  2  0  0  0  0
 46 47  1  0  0  0  0
 47 42  1  0  0  0  0
 47 37  2  0  0  0  0
M  END
>  <minimizedAffinity>
-7.23045492

$$$$

 OpenBabel03242518483D

 47 51  0  0  1  0  0  0  0  0999 V2000
   40.8820   32.2000   41.2470 C   0  0  2  0  0  0  0  0  0  0  0  0
   42.3280   32.4240   40.9810 C   0  0  1  0  0  0  0  0  0  0  0  0
   43.2160   31.4300   41.7330 C   0  0  0  0  0  0  0  0  0  0  0  0
   42.8190   31.5630   43.0680 O   0  0  0  0  0  0  0  0  0  0  0  0
   41.5880   30.9850   43.2900 C   0  0  0  0  0  0  0  0  0  0  0  0
   40.7150   30.9120   42.0760 C   0  0  1  0  0  0  0  0  0  0  0  0
   40.4820   33.0600   41.8200 H   0  0  0  0  0  0  0  0  0  0  0  0
   42.6270   33.4610   41.2980 H   0  0  0  0  0  0  0  0  0  0  0  0
   43.1100   30.4170   41.3490 H   0  0  0  0  0  0  0  0  0  0  0  0
   44.2500   31.8210   41.6510 H   0  0  0  0  0  0  0  0  0  0  0  0
   41.0340   31.5410   44.0860 H   0  0  0  0  0  0  0  0  0  0  0  0
   41.7460   29.9330   43.6360 H   0  0  0  0  0  0  0  0  0  0  0  0
   41.0150   30.1040   41.3750 H   0  0  0  0  0  0  0  0  0  0  0  0
   42.9290   33.2920   37.4760 C   0  0  0  0  0  0  0  0  0  0  0  0
   43.4850   32.1050   36.9140 C   0  0  0  0  0  0  0  0  0  0  0  0
   43.6340   31.0160   37.8070 C   0  0  0  0  0  0  0  0  0  0  0  0
   43.2540   31.1580   39.0970 N   0  0  0  0  0  0  0  0  0  0  0  0
   42.7330   32.3110   39.5690 C   0  0  0  0  0  0  0  0  0  0  0  0
   42.5700   33.3810   38.7550 N   0  0  0  0  0  0  0  0  0  0  0  0
   43.7580   32.0790   35.8830 H   0  0  0  0  0  0  0  0  0  0  0  0
   44.0530   30.1170   37.3890 H   0  0  0  0  0  0  0  0  0  0  0  0
   42.7790   34.3490   36.6280 O   0  0  0  0  0  0  0  0  0  0  0  0
   42.8580   35.3290   36.9280 H   0  0  0  0  0  0  0  0  0  0  0  0
   40.1100   32.0710   40.0900 O   0  0  0  0  0  0  0  0  0  0  0  0
   40.5340   31.5020   39.4140 H   0  0  0  0  0  0  0  0  0  0  0  0
   39.3740   30.7990   42.3660 O   0  0  0  0  0  0  0  0  0  0  0  0
   37.8800   30.3010   40.1680 F   0  0  0  0  0  0  0  0  0  0  0  0
   37.7880   29.6300   41.3350 C   0  0  0  0  0  0  0  0  0  0  0  0
   38.5060   29.8140   42.4990 C   0  0  0  0  0  0  0  0  0  0  0  0
   38.1790   28.9500   43.5320 C   0  0  0  0  0  0  0  0  0  0  0  0
   37.2280   27.9580   43.4920 C   0  0  0  0  0  0  0  0  0  0  0  0
   36.5510   27.8230   42.3190 C   0  0  0  0  0  0  0  0  0  0  0  0
   36.8010   28.6340   41.2260 C   0  0  0  0  0  0  0  0  0  0  0  0
   38.7940   29.1580   44.4270 H   0  0  0  0  0  0  0  0  0  0  0  0
   37.0920   27.3670   44.3820 H   0  0  0  0  0  0  0  0  0  0  0  0
   35.7910   27.0300   42.2850 H   0  0  0  0  0  0  0  0  0  0  0  0
   35.9870   28.3560   40.0480 C   0  0  0  0  0  0  0  0  0  0  0  0
   34.8800   29.1830   39.9250 C   0  0  0  0  0  0  0  0  0  0  0  0
   34.6380   29.9740   40.6500 H   0  0  0  0  0  0  0  0  0  0  0  0
   33.9720   29.0990   38.8890 C   0  0  0  0  0  3  0  0  0  0  0  0
   34.2020   28.1190   37.9200 C   0  0  0  0  0  3  0  0  0  0  0  0
   35.3140   27.2770   38.0280 C   0  0  0  0  0  0  0  0  0  0  0  0
   35.5560   26.3030   37.0790 C   0  0  0  0  0  3  0  0  0  0  0  0
   36.6850   25.4990   37.2500 C   0  0  0  0  0  3  0  0  0  0  0  0
   37.5610   25.6330   38.3170 C   0  0  0  0  0  3  0  0  0  0  0  0
   37.3080   26.6190   39.2690 C   0  0  0  0  0  3  0  0  0  0  0  0
   36.1950   27.3970   39.0820 C   0  0  0  0  0  0  0  0  0  0  0  0
  1  7  1  1  0  0  0
  1  6  1  0  0  0  0
  2  1  1  0  0  0  0
  2  8  1  1  0  0  0
  2  3  1  0  0  0  0
  3  4  1  0  0  0  0
  4  5  1  0  0  0  0
  5 12  1  0  0  0  0
  5 11  1  0  0  0  0
  6 13  1  6  0  0  0
  6 26  1  0  0  0  0
  6  5  1  0  0  0  0
  9  3  1  0  0  0  0
 10  3  1  0  0  0  0
 14 19  1  0  0  0  0
 15 14  2  0  0  0  0
 15 16  1  0  0  0  0
 16 17  2  0  0  0  0
 17 18  1  0  0  0  0
 18  2  1  0  0  0  0
 19 18  2  0  0  0  0
 20 15  1  0  0  0  0
 21 16  1  0  0  0  0
 22 23  1  0  0  0  0
 22 14  1  0  0  0  0
 24  1  1  0  0  0  0
 25 24  1  0  0  0  0
 26 29  1  0  0  0  0
 27 28  1  0  0  0  0
 28 29  1  0  0  0  0
 29 30  2  0  0  0  0
 30 34  1  0  0  0  0
 31 30  1  0  0  0  0
 31 35  1  0  0  0  0
 32 31  2  0  0  0  0
 33 28  2  0  0  0  0
 33 32  1  0  0  0  0
 36 32  1  0  0  0  0
 37 33  1  0  0  0  0
 38 37  1  0  0  0  0
 38 39  1  0  0  0  0
 40 38  2  0  0  0  0
 41 42  2  0  0  0  0
 41 40  1  0  0  0  0
 42 47  1  0  0  0  0
 43 44  2  0  0  0  0
 43 42  1  0  0  0  0
 44 45  1  0  0  0  0
 45 46  2  0  0  0  0
 47 46  1  0  0  0  0
 47 37  2  0  0  0  0
M  END
>  <minimizedAffinity>
-7.0702486

$$$$

 OpenBabel03242518483D

 47 51  0  0  1  0  0  0  0  0999 V2000
   40.8960   31.3540   39.8940 C   0  0  2  0  0  0  0  0  0  0  0  0
   41.0540   32.7470   39.3980 C   0  0  1  0  0  0  0  0  0  0  0  0
   40.3610   33.7660   40.3050 C   0  0  0  0  0  0  0  0  0  0  0  0
   39.0450   33.3010   40.3940 O   0  0  0  0  0  0  0  0  0  0  0  0
   38.9550   32.1830   41.1940 C   0  0  0  0  0  0  0  0  0  0  0  0
   40.2180   31.3840   41.2770 C   0  0  1  0  0  0  0  0  0  0  0  0
   40.2600   30.7880   39.1850 H   0  0  0  0  0  0  0  0  0  0  0  0
   40.6130   32.8470   38.3680 H   0  0  0  0  0  0  0  0  0  0  0  0
   40.8550   33.8540   41.2710 H   0  0  0  0  0  0  0  0  0  0  0  0
   40.3420   34.7180   39.7370 H   0  0  0  0  0  0  0  0  0  0  0  0
   38.1390   31.5110   40.8350 H   0  0  0  0  0  0  0  0  0  0  0  0
   38.7140   32.5110   42.2360 H   0  0  0  0  0  0  0  0  0  0  0  0
   40.9820   31.8480   41.9370 H   0  0  0  0  0  0  0  0  0  0  0  0
   44.2840   33.6570   37.9350 C   0  0  0  0  0  0  0  0  0  0  0  0
   45.0580   34.0990   39.0480 C   0  0  0  0  0  0  0  0  0  0  0  0
   44.4020   34.0610   40.3030 C   0  0  0  0  0  0  0  0  0  0  0  0
   43.1250   33.6240   40.3730 N   0  0  0  0  0  0  0  0  0  0  0  0
   42.4450   33.2200   39.2790 C   0  0  0  0  0  0  0  0  0  0  0  0
   43.0260   33.2360   38.0560 N   0  0  0  0  0  0  0  0  0  0  0  0
   46.0620   34.4280   38.9030 H   0  0  0  0  0  0  0  0  0  0  0  0
   44.9820   34.3930   41.1480 H   0  0  0  0  0  0  0  0  0  0  0  0
   44.9010   33.6860   36.7200 O   0  0  0  0  0  0  0  0  0  0  0  0
   44.4040   33.8640   35.8380 H   0  0  0  0  0  0  0  0  0  0  0  0
   42.1030   30.6620   40.0200 O   0  0  0  0  0  0  0  0  0  0  0  0
   42.8100   31.2040   40.4280 H   0  0  0  0  0  0  0  0  0  0  0  0
   40.0190   30.0740   41.6490 O   0  0  0  0  0  0  0  0  0  0  0  0
   38.9250   28.5690   39.6870 F   0  0  0  0  0  0  0  0  0  0  0  0
   38.4980   28.6030   40.9660 C   0  0  0  0  0  0  0  0  0  0  0  0
   38.9940   29.3340   42.0270 C   0  0  0  0  0  0  0  0  0  0  0  0
   38.3340   29.1430   43.2310 C   0  0  0  0  0  0  0  0  0  0  0  0
   37.2610   28.3110   43.4460 C   0  0  0  0  0  0  0  0  0  0  0  0
   36.8150   27.6150   42.3650 C   0  0  0  0  0  0  0  0  0  0  0  0
   37.4020   27.7330   41.1190 C   0  0  0  0  0  0  0  0  0  0  0  0
   38.7870   29.7590   44.0280 H   0  0  0  0  0  0  0  0  0  0  0  0
   36.8590   28.2720   44.4440 H   0  0  0  0  0  0  0  0  0  0  0  0
   35.9570   26.9490   42.5360 H   0  0  0  0  0  0  0  0  0  0  0  0
   36.8010   26.9180   40.0690 C   0  0  0  0  0  0  0  0  0  0  0  0
   37.1840   25.5840   40.1090 C   0  0  0  0  0  0  0  0  0  0  0  0
   37.8770   25.1810   40.8610 H   0  0  0  0  0  0  0  0  0  0  0  0
   36.7390   24.6330   39.2130 C   0  0  0  0  0  3  0  0  0  0  0  0
   35.8530   25.0590   38.2190 C   0  0  0  0  0  3  0  0  0  0  0  0
   35.4570   26.4000   38.1650 C   0  0  0  0  0  0  0  0  0  0  0  0
   34.5830   26.8380   37.1900 C   0  0  0  0  0  3  0  0  0  0  0  0
   34.2300   28.1900   37.1970 C   0  0  0  0  0  3  0  0  0  0  0  0
   34.7140   29.0980   38.1260 C   0  0  0  0  0  3  0  0  0  0  0  0
   35.5950   28.6460   39.1060 C   0  0  0  0  0  3  0  0  0  0  0  0
   35.9280   27.3170   39.0820 C   0  0  0  0  0  0  0  0  0  0  0  0
  1  7  1  6  0  0  0
  1 24  1  0  0  0  0
  1  6  1  0  0  0  0
  2  8  1  6  0  0  0
  2  1  1  0  0  0  0
  2  3  1  0  0  0  0
  3  4  1  0  0  0  0
  3  9  1  0  0  0  0
  4  5  1  0  0  0  0
  5  6  1  0  0  0  0
  5 12  1  0  0  0  0
  6 26  1  0  0  0  0
  6 13  1  1  0  0  0
 10  3  1  0  0  0  0
 11  5  1  0  0  0  0
 14 19  2  0  0  0  0
 14 15  1  0  0  0  0
 15 16  2  0  0  0  0
 16 17  1  0  0  0  0
 16 21  1  0  0  0  0
 18  2  1  0  0  0  0
 18 17  2  0  0  0  0
 19 18  1  0  0  0  0
 20 15  1  0  0  0  0
 22 14  1  0  0  0  0
 23 22  1  0  0  0  0
 24 25  1  0  0  0  0
 26 29  1  0  0  0  0
 27 28  1  0  0  0  0
 28 33  2  0  0  0  0
 28 29  1  0  0  0  0
 29 30  2  0  0  0  0
 30 31  1  0  0  0  0
 30 34  1  0  0  0  0
 31 35  1  0  0  0  0
 32 36  1  0  0  0  0
 32 31  2  0  0  0  0
 33 32  1  0  0  0  0
 37 38  1  0  0  0  0
 37 33  1  0  0  0  0
 38 39  1  0  0  0  0
 40 38  2  0  0  0  0
 41 40  1  0  0  0  0
 42 41  2  0  0  0  0
 42 47  1  0  0  0  0
 43 44  2  0  0  0  0
 43 42  1  0  0  0  0
 44 45  1  0  0  0  0
 45 46  2  0  0  0  0
 47 46  1  0  0  0  0
 47 37  2  0  0  0  0
M  END
>  <minimizedAffinity>
-6.97529459

$$$$

 OpenBabel03242518483D

 47 51  0  0  1  0  0  0  0  0999 V2000
   38.3130   32.1610   38.3280 C   0  0  2  0  0  0  0  0  0  0  0  0
   39.3720   32.7340   39.1990 C   0  0  1  0  0  0  0  0  0  0  0  0
   39.3790   32.1050   40.5930 C   0  0  0  0  0  0  0  0  0  0  0  0
   38.0660   32.2720   41.0480 O   0  0  0  0  0  0  0  0  0  0  0  0
   37.1970   31.4130   40.4110 C   0  0  0  0  0  0  0  0  0  0  0  0
   37.6480   30.9750   39.0540 C   0  0  1  0  0  0  0  0  0  0  0  0
   37.5510   32.9400   38.1240 H   0  0  0  0  0  0  0  0  0  0  0  0
   39.2190   33.8430   39.3220 H   0  0  0  0  0  0  0  0  0  0  0  0
   39.6990   31.0650   40.5700 H   0  0  0  0  0  0  0  0  0  0  0  0
   40.0330   32.7480   41.2170 H   0  0  0  0  0  0  0  0  0  0  0  0
   36.1880   31.8840   40.3090 H   0  0  0  0  0  0  0  0  0  0  0  0
   37.0960   30.4870   41.0310 H   0  0  0  0  0  0  0  0  0  0  0  0
   38.4490   30.2050   39.0910 H   0  0  0  0  0  0  0  0  0  0  0  0
   42.5040   33.4070   37.4270 C   0  0  0  0  0  0  0  0  0  0  0  0
   43.3340   32.2930   37.7520 C   0  0  0  0  0  0  0  0  0  0  0  0
   42.7510   31.3240   38.6040 C   0  0  0  0  0  0  0  0  0  0  0  0
   41.4850   31.5010   39.0440 N   0  0  0  0  0  0  0  0  0  0  0  0
   40.7500   32.5800   38.7000 C   0  0  0  0  0  0  0  0  0  0  0  0
   41.2620   33.5350   37.8880 N   0  0  0  0  0  0  0  0  0  0  0  0
   44.3230   32.2320   37.3590 H   0  0  0  0  0  0  0  0  0  0  0  0
   43.3710   30.4800   38.8530 H   0  0  0  0  0  0  0  0  0  0  0  0
   43.0510   34.3480   36.6070 O   0  0  0  0  0  0  0  0  0  0  0  0
   42.8180   35.3480   36.6620 H   0  0  0  0  0  0  0  0  0  0  0  0
   38.7840   31.7030   37.0950 O   0  0  0  0  0  0  0  0  0  0  0  0
   39.6200   31.1980   37.1740 H   0  0  0  0  0  0  0  0  0  0  0  0
   36.6240   30.5390   38.2440 O   0  0  0  0  0  0  0  0  0  0  0  0
   38.0740   28.3180   38.7630 F   0  0  0  0  0  0  0  0  0  0  0  0
   36.7970   28.3250   38.3310 C   0  0  0  0  0  0  0  0  0  0  0  0
   35.9840   29.4020   38.0440 C   0  0  0  0  0  0  0  0  0  0  0  0
   34.7050   29.0760   37.6220 C   0  0  0  0  0  0  0  0  0  0  0  0
   34.1970   27.8080   37.4710 C   0  0  0  0  0  0  0  0  0  0  0  0
   35.0430   26.7840   37.7690 C   0  0  0  0  0  0  0  0  0  0  0  0
   36.3400   27.0000   38.1980 C   0  0  0  0  0  0  0  0  0  0  0  0
   34.1170   29.9890   37.4130 H   0  0  0  0  0  0  0  0  0  0  0  0
   33.1780   27.7210   37.1340 H   0  0  0  0  0  0  0  0  0  0  0  0
   34.6380   25.7690   37.6490 H   0  0  0  0  0  0  0  0  0  0  0  0
   37.1120   25.7930   38.4730 C   0  0  0  0  0  0  0  0  0  0  0  0
   37.6050   25.1730   37.3330 C   0  0  0  0  0  0  0  0  0  0  0  0
   37.4270   25.5550   36.3170 H   0  0  0  0  0  0  0  0  0  0  0  0
   38.3600   24.0190   37.3560 C   0  0  0  0  0  3  0  0  0  0  0  0
   38.6340   23.4620   38.6080 C   0  0  0  0  0  3  0  0  0  0  0  0
   38.1460   24.0750   39.7670 C   0  0  0  0  0  0  0  0  0  0  0  0
   38.4070   23.5380   41.0120 C   0  0  0  0  0  3  0  0  0  0  0  0
   37.8890   24.2040   42.1260 C   0  0  0  0  0  3  0  0  0  0  0  0
   37.1340   25.3630   42.0360 C   0  0  0  0  0  3  0  0  0  0  0  0
   36.8760   25.8970   40.7750 C   0  0  0  0  0  3  0  0  0  0  0  0
   37.3940   25.2290   39.6960 C   0  0  0  0  0  0  0  0  0  0  0  0
  1  7  1  6  0  0  0
  1  6  1  0  0  0  0
  1  2  1  0  0  0  0
  2  8  1  1  0  0  0
  2  3  1  0  0  0  0
  3  4  1  0  0  0  0
  3 10  1  0  0  0  0
  5 12  1  0  0  0  0
  5  4  1  0  0  0  0
  6 13  1  1  0  0  0
  6  5  1  0  0  0  0
  9  3  1  0  0  0  0
 11  5  1  0  0  0  0
 14 15  2  0  0  0  0
 14 19  1  0  0  0  0
 15 16  1  0  0  0  0
 16 21  1  0  0  0  0
 16 17  2  0  0  0  0
 18 17  1  0  0  0  0
 18  2  1  0  0  0  0
 19 18  2  0  0  0  0
 20 15  1  0  0  0  0
 22 23  1  0  0  0  0
 22 14  1  0  0  0  0
 24 25  1  0  0  0  0
 24  1  1  0  0  0  0
 26  6  1  0  0  0  0
 28 27  1  0  0  0  0
 29 26  1  0  0  0  0
 29 28  2  0  0  0  0
 30 29  1  0  0  0  0
 31 30  2  0  0  0  0
 31 32  1  0  0  0  0
 32 33  2  0  0  0  0
 33 28  1  0  0  0  0
 33 37  1  0  0  0  0
 34 30  1  0  0  0  0
 35 31  1  0  0  0  0
 36 32  1  0  0  0  0
 37 47  1  0  0  0  0
 38 40  1  0  0  0  0
 38 37  2  0  0  0  0
 39 38  1  0  0  0  0
 40 41  2  0  0  0  0
 41 42  1  0  0  0  0
 42 43  1  0  0  0  0
 43 44  2  0  0  0  0
 45 44  1  0  0  0  0
 46 45  2  0  0  0  0
 47 42  2  0  0  0  0
 47 46  1  0  0  0  0
M  END
>  <minimizedAffinity>
-6.88913584

$$$$

 OpenBabel03242518483D

 47 51  0  0  1  0  0  0  0  0999 V2000
   40.2780   32.6910   38.6750 C   0  0  2  0  0  0  0  0  0  0  0  0
   40.7110   33.8870   39.4450 C   0  0  1  0  0  0  0  0  0  0  0  0
   39.7330   34.2370   40.5690 C   0  0  0  0  0  0  0  0  0  0  0  0
   38.4980   34.3480   39.9220 O   0  0  0  0  0  0  0  0  0  0  0  0
   38.0020   33.1140   39.5610 C   0  0  0  0  0  0  0  0  0  0  0  0
   39.0500   32.0640   39.3630 C   0  0  1  0  0  0  0  0  0  0  0  0
   40.0050   33.0010   37.6470 H   0  0  0  0  0  0  0  0  0  0  0  0
   40.7890   34.7810   38.7660 H   0  0  0  0  0  0  0  0  0  0  0  0
   39.7400   33.4910   41.3620 H   0  0  0  0  0  0  0  0  0  0  0  0
   40.0190   35.2490   40.9200 H   0  0  0  0  0  0  0  0  0  0  0  0
   37.4040   33.1940   38.6200 H   0  0  0  0  0  0  0  0  0  0  0  0
   37.3310   32.7480   40.3780 H   0  0  0  0  0  0  0  0  0  0  0  0
   39.4540   31.6700   40.3200 H   0  0  0  0  0  0  0  0  0  0  0  0
   43.2620   33.2600   41.9940 C   0  0  0  0  0  0  0  0  0  0  0  0
   44.4920   33.5660   41.3390 C   0  0  0  0  0  0  0  0  0  0  0  0
   44.3780   33.9910   39.9920 C   0  0  0  0  0  0  0  0  0  0  0  0
   43.1540   34.0790   39.4240 N   0  0  0  0  0  0  0  0  0  0  0  0
   42.0260   33.7730   40.1000 C   0  0  0  0  0  0  0  0  0  0  0  0
   42.0810   33.3630   41.3890 N   0  0  0  0  0  0  0  0  0  0  0  0
   45.4150   33.4690   41.8630 H   0  0  0  0  0  0  0  0  0  0  0  0
   45.3020   34.2240   39.4920 H   0  0  0  0  0  0  0  0  0  0  0  0
   43.3550   32.8500   43.2910 O   0  0  0  0  0  0  0  0  0  0  0  0
   42.7020   32.1820   43.7200 H   0  0  0  0  0  0  0  0  0  0  0  0
   41.2620   31.7050   38.5670 O   0  0  0  0  0  0  0  0  0  0  0  0
   41.7330   31.5460   39.4120 H   0  0  0  0  0  0  0  0  0  0  0  0
   38.6410   31.0190   38.5660 O   0  0  0  0  0  0  0  0  0  0  0  0
   38.8730   28.9430   40.2820 F   0  0  0  0  0  0  0  0  0  0  0  0
   37.8320   29.1460   39.4510 C   0  0  0  0  0  0  0  0  0  0  0  0
   37.6290   30.1710   38.5490 C   0  0  0  0  0  0  0  0  0  0  0  0
   36.4410   30.1010   37.8380 C   0  0  0  0  0  0  0  0  0  0  0  0
   35.4800   29.1250   37.9550 C   0  0  0  0  0  0  0  0  0  0  0  0
   35.7330   28.1400   38.8590 C   0  0  0  0  0  0  0  0  0  0  0  0
   36.8880   28.1160   39.6190 C   0  0  0  0  0  0  0  0  0  0  0  0
   36.3520   30.9530   37.1400 H   0  0  0  0  0  0  0  0  0  0  0  0
   34.6090   29.2130   37.3300 H   0  0  0  0  0  0  0  0  0  0  0  0
   34.9650   27.3590   38.9530 H   0  0  0  0  0  0  0  0  0  0  0  0
   37.0020   26.9900   40.5400 C   0  0  0  0  0  0  0  0  0  0  0  0
   36.6610   27.3010   41.8490 C   0  0  0  0  0  0  0  0  0  0  0  0
   36.3370   28.3040   42.1630 H   0  0  0  0  0  0  0  0  0  0  0  0
   36.6960   26.3920   42.8860 C   0  0  0  0  0  3  0  0  0  0  0  0
   37.0990   25.0890   42.5770 C   0  0  0  0  0  3  0  0  0  0  0  0
   37.4450   24.7590   41.2630 C   0  0  0  0  0  0  0  0  0  0  0  0
   37.8460   23.4770   40.9400 C   0  0  0  0  0  3  0  0  0  0  0  0
   38.1760   23.2180   39.6080 C   0  0  0  0  0  3  0  0  0  0  0  0
   38.1220   24.1780   38.6100 C   0  0  0  0  0  3  0  0  0  0  0  0
   37.7160   25.4690   38.9460 C   0  0  0  0  0  3  0  0  0  0  0  0
   37.3960   25.7010   40.2570 C   0  0  0  0  0  0  0  0  0  0  0  0
  1  7  1  6  0  0  0
  1  6  1  0  0  0  0
  1  2  1  0  0  0  0
  2  8  1  6  0  0  0
  2 18  1  0  0  0  0
  2  3  1  0  0  0  0
  3 10  1  0  0  0  0
  3  9  1  0  0  0  0
  4  3  1  0  0  0  0
  5  4  1  0  0  0  0
  5 12  1  0  0  0  0
  6  5  1  0  0  0  0
  6 13  1  1  0  0  0
 11  5  1  0  0  0  0
 14 22  1  0  0  0  0
 15 20  1  0  0  0  0
 15 14  2  0  0  0  0
 16 15  1  0  0  0  0
 17 16  2  0  0  0  0
 17 18  1  0  0  0  0
 18 19  2  0  0  0  0
 19 14  1  0  0  0  0
 21 16  1  0  0  0  0
 22 23  1  0  0  0  0
 24  1  1  0  0  0  0
 24 25  1  0  0  0  0
 26  6  1  0  0  0  0
 28 33  1  0  0  0  0
 28 27  1  0  0  0  0
 29 26  1  0  0  0  0
 29 28  2  0  0  0  0
 30 31  2  0  0  0  0
 30 29  1  0  0  0  0
 31 32  1  0  0  0  0
 32 36  1  0  0  0  0
 32 33  2  0  0  0  0
 33 37  1  0  0  0  0
 34 30  1  0  0  0  0
 35 31  1  0  0  0  0
 37 38  1  0  0  0  0
 38 39  1  0  0  0  0
 38 40  2  0  0  0  0
 41 40  1  0  0  0  0
 42 41  2  0  0  0  0
 43 42  1  0  0  0  0
 44 43  2  0  0  0  0
 45 46  2  0  0  0  0
 45 44  1  0  0  0  0
 46 47  1  0  0  0  0
 47 37  2  0  0  0  0
 47 42  1  0  0  0  0
M  END
>  <minimizedAffinity>
-6.84799576

$$$$

 OpenBabel03242518483D

 47 51  0  0  1  0  0  0  0  0999 V2000
   39.2150   31.5300   39.4230 C   0  0  2  0  0  0  0  0  0  0  0  0
   39.5810   32.9620   39.2650 C   0  0  1  0  0  0  0  0  0  0  0  0
   38.7160   33.8800   40.1310 C   0  0  0  0  0  0  0  0  0  0  0  0
   37.4050   33.5470   39.7750 O   0  0  0  0  0  0  0  0  0  0  0  0
   37.0340   32.3250   40.2920 C   0  0  0  0  0  0  0  0  0  0  0  0
   38.1770   31.3960   40.5550 C   0  0  1  0  0  0  0  0  0  0  0  0
   38.7750   31.1610   38.4760 H   0  0  0  0  0  0  0  0  0  0  0  0
   39.4540   33.2800   38.1930 H   0  0  0  0  0  0  0  0  0  0  0  0
   38.9220   33.7510   41.1920 H   0  0  0  0  0  0  0  0  0  0  0  0
   38.9090   34.9110   39.7720 H   0  0  0  0  0  0  0  0  0  0  0  0
   36.3170   31.8120   39.6060 H   0  0  0  0  0  0  0  0  0  0  0  0
   36.5260   32.4960   41.2750 H   0  0  0  0  0  0  0  0  0  0  0  0
   38.7480   31.6590   41.4710 H   0  0  0  0  0  0  0  0  0  0  0  0
   42.5690   33.6900   41.2510 C   0  0  0  0  0  0  0  0  0  0  0  0
   43.5800   33.9430   40.2770 C   0  0  0  0  0  0  0  0  0  0  0  0
   43.1670   33.8450   38.9260 C   0  0  0  0  0  0  0  0  0  0  0  0
   41.8840   33.5290   38.6450 N   0  0  0  0  0  0  0  0  0  0  0  0
   40.9720   33.3000   39.6140 C   0  0  0  0  0  0  0  0  0  0  0  0
   41.3160   33.3810   40.9210 N   0  0  0  0  0  0  0  0  0  0  0  0
   44.5710   34.1870   40.5880 H   0  0  0  0  0  0  0  0  0  0  0  0
   43.9260   34.0360   38.1860 H   0  0  0  0  0  0  0  0  0  0  0  0
   42.9510   33.7810   42.5560 O   0  0  0  0  0  0  0  0  0  0  0  0
   42.5400   33.2090   43.3050 H   0  0  0  0  0  0  0  0  0  0  0  0
   40.2990   30.7030   39.7320 O   0  0  0  0  0  0  0  0  0  0  0  0
   40.8900   31.0920   40.4100 H   0  0  0  0  0  0  0  0  0  0  0  0
   37.8120   30.0700   40.6010 O   0  0  0  0  0  0  0  0  0  0  0  0
   37.5910   27.6440   39.4280 F   0  0  0  0  0  0  0  0  0  0  0  0
   37.9030   27.8520   40.7230 C   0  0  0  0  0  0  0  0  0  0  0  0
   38.0390   29.0450   41.4030 C   0  0  0  0  0  0  0  0  0  0  0  0
   38.3780   28.9240   42.7410 C   0  0  0  0  0  0  0  0  0  0  0  0
   38.5830   27.7480   43.4240 C   0  0  0  0  0  0  0  0  0  0  0  0
   38.4350   26.6030   42.7040 C   0  0  0  0  0  0  0  0  0  0  0  0
   38.0990   26.6130   41.3630 C   0  0  0  0  0  0  0  0  0  0  0  0
   38.4690   29.9180   43.2140 H   0  0  0  0  0  0  0  0  0  0  0  0
   38.8430   27.8220   44.4660 H   0  0  0  0  0  0  0  0  0  0  0  0
   38.5990   25.6620   43.2490 H   0  0  0  0  0  0  0  0  0  0  0  0
   37.9800   25.2980   40.7420 C   0  0  0  0  0  0  0  0  0  0  0  0
   36.7770   24.6600   41.0090 C   0  0  0  0  0  0  0  0  0  0  0  0
   35.9870   25.1040   41.6330 H   0  0  0  0  0  0  0  0  0  0  0  0
   36.4500   23.4100   40.5260 C   0  0  0  0  0  3  0  0  0  0  0  0
   37.3990   22.7690   39.7240 C   0  0  0  0  0  3  0  0  0  0  0  0
   38.6160   23.3990   39.4440 C   0  0  0  0  0  0  0  0  0  0  0  0
   39.5650   22.7810   38.6530 C   0  0  0  0  0  3  0  0  0  0  0  0
   40.7570   23.4680   38.4150 C   0  0  0  0  0  3  0  0  0  0  0  0
   41.0260   24.7260   38.9320 C   0  0  0  0  0  3  0  0  0  0  0  0
   40.0630   25.3410   39.7290 C   0  0  0  0  0  3  0  0  0  0  0  0
   38.9000   24.6500   39.9490 C   0  0  0  0  0  0  0  0  0  0  0  0
  1  7  1  6  0  0  0
  1 24  1  0  0  0  0
  1  6  1  0  0  0  0
  2  8  1  6  0  0  0
  2  1  1  0  0  0  0
  2 18  1  0  0  0  0
  2  3  1  0  0  0  0
  3  9  1  0  0  0  0
  4  3  1  0  0  0  0
  4  5  1  0  0  0  0
  5  6  1  0  0  0  0
  5 12  1  0  0  0  0
  6 26  1  0  0  0  0
  6 13  1  1  0  0  0
 10  3  1  0  0  0  0
 11  5  1  0  0  0  0
 14 22  1  0  0  0  0
 15 20  1  0  0  0  0
 15 14  2  0  0  0  0
 16 15  1  0  0  0  0
 17 16  2  0  0  0  0
 17 18  1  0  0  0  0
 18 19  2  0  0  0  0
 19 14  1  0  0  0  0
 21 16  1  0  0  0  0
 22 23  1  0  0  0  0
 24 25  1  0  0  0  0
 26 29  1  0  0  0  0
 27 28  1  0  0  0  0
 28 33  2  0  0  0  0
 28 29  1  0  0  0  0
 29 30  2  0  0  0  0
 30 34  1  0  0  0  0
 30 31  1  0  0  0  0
 31 35  1  0  0  0  0
 32 36  1  0  0  0  0
 32 31  2  0  0  0  0
 33 32  1  0  0  0  0
 37 38  1  0  0  0  0
 37 33  1  0  0  0  0
 38 39  1  0  0  0  0
 40 38  2  0  0  0  0
 41 40  1  0  0  0  0
 42 41  2  0  0  0  0
 42 47  1  0  0  0  0
 43 42  1  0  0  0  0
 44 43  2  0  0  0  0
 44 45  1  0  0  0  0
 45 46  2  0  0  0  0
 46 47  1  0  0  0  0
 47 37  2  0  0  0  0
M  END
>  <minimizedAffinity>
-6.74809933

$$$$
