
     RDKit          3D

 47 51  0  0  0  0  0  0  0  0999 V2000
   47.3791   33.7367   39.7639 C   0  0  0  0  0  0  0  0  0  0  0  0
   48.3041   34.4564   39.0078 C   0  0  0  0  0  0  0  0  0  0  0  0
   48.0303   34.2652   37.6698 C   0  0  0  0  0  0  0  0  0  0  0  0
   46.9522   33.4386   37.6686 C   0  0  0  0  0  0  0  0  0  0  0  0
   46.5780   33.1342   38.8981 O   0  0  0  0  0  0  0  0  0  0  0  0
   46.2645   32.9301   36.4578 C   0  0  2  0  0  0  0  0  0  0  0  0
   46.0897   31.4928   36.2489 C   0  0  0  0  0  0  0  0  0  0  0  0
   47.2013   32.1440   35.5069 C   0  0  1  0  0  0  0  0  0  0  0  0
   48.0548   32.6505   33.2332 C   0  0  0  0  0  0  0  0  0  0  0  0
   49.2588   32.6276   33.6239 O   0  0  0  0  0  0  0  0  0  0  0  0
   46.9522   32.4466   34.1030 N   0  0  0  0  0  0  0  0  0  0  0  0
   47.2154   33.5929   41.1630 O   0  0  0  0  0  0  0  0  0  0  0  0
   47.3423   34.7265   41.9824 C   0  0  0  0  0  0  0  0  0  0  0  0
   48.2426   35.5477   41.6628 O   0  0  0  0  0  0  0  0  0  0  0  0
   46.4399   34.8272   43.0874 C   0  0  0  0  0  0  0  0  0  0  0  0
   45.5827   35.8703   43.0799 C   0  0  0  0  0  0  0  0  0  0  0  0
   44.7095   35.9780   44.1535 C   0  0  0  0  0  0  0  0  0  0  0  0
   44.7442   35.0728   45.1303 N   0  0  0  0  0  0  0  0  0  0  0  0
   45.5915   34.0476   45.1296 C   0  0  0  0  0  0  0  0  0  0  0  0
   46.3938   33.9994   44.0865 N   0  0  0  0  0  0  0  0  0  0  0  0
   49.0803   35.0446   39.4952 H   0  0  0  0  0  0  0  0  0  0  0  0
   48.5925   34.7075   36.8650 H   0  0  0  0  0  0  0  0  0  0  0  0
   45.5520   33.6217   35.9756 H   0  0  0  0  0  0  0  0  0  0  0  0
   45.2608   31.0793   35.6586 H   0  0  0  0  0  0  0  0  0  0  0  0
   46.4226   30.7750   37.0515 H   0  0  0  0  0  0  0  0  0  0  0  0
   48.2503   32.0572   35.8058 H   0  0  0  0  0  0  0  0  0  0  0  0
   47.9430   32.8402   32.1734 H   0  0  0  0  0  0  0  0  0  0  0  0
   45.9767   32.5131   33.7398 H   0  0  0  0  0  0  0  0  0  0  0  0
   45.4824   36.6405   42.3452 H   0  0  0  0  0  0  0  0  0  0  0  0
   43.9811   36.7758   44.2477 H   0  0  0  0  0  0  0  0  0  0  0  0
   45.7999   32.9477   46.0834 C   0  0  0  0  0  0  0  0  0  0  0  0
   44.8675   32.6254   47.0791 C   0  0  0  0  0  0  0  0  0  0  0  0
   43.9626   33.2228   47.1309 H   0  0  0  0  0  0  0  0  0  0  0  0
   45.0410   31.6103   47.9742 C   0  0  0  0  0  0  0  0  0  0  0  0
   46.1749   30.8349   47.9361 C   0  0  0  0  0  0  0  0  0  0  0  0
   47.1209   31.1130   46.9749 C   0  0  0  0  0  0  0  0  0  0  0  0
   48.2396   30.3077   46.9789 C   0  0  0  0  0  0  0  0  0  0  0  0
   49.2339   30.5218   46.0484 C   0  0  0  0  0  0  0  0  0  0  0  0
   49.0387   31.5671   45.1387 C   0  0  0  0  0  0  0  0  0  0  0  0
   47.9027   32.3226   45.1973 C   0  0  0  0  0  0  0  0  0  0  0  0
   46.8930   32.1445   46.1029 C   0  0  0  0  0  0  0  0  0  0  0  0
   44.2703   31.4447   48.6959 H   0  0  0  0  0  0  0  0  0  0  0  0
   46.2284   30.0561   48.6802 H   0  0  0  0  0  0  0  0  0  0  0  0
   48.3652   29.5008   47.6992 H   0  0  0  0  0  0  0  0  0  0  0  0
   50.0931   29.8798   46.0749 H   0  0  0  0  0  0  0  0  0  0  0  0
   49.8572   31.6759   44.4404 H   0  0  0  0  0  0  0  0  0  0  0  0
   47.9096   33.0761   44.4359 H   0  0  0  0  0  0  0  0  0  0  0  0
  1 12  1  0
  2  1  2  0
  3  2  1  0
  4  3  2  0
  4  5  1  0
  5  1  1  0
  6  4  1  0
  7  6  1  0
  8  7  1  0
  8  6  1  0
  9 10  2  0
  9 11  1  0
 11  8  1  0
 12 13  1  0
 13 15  1  0
 14 13  2  0
 15 20  1  0
 16 15  2  0
 16 17  1  0
 17 18  2  0
 19 18  1  0
 20 19  2  0
  2 21  1  0
  3 22  1  0
  6 23  1  6
  7 24  1  0
  7 25  1  0
  8 26  1  1
  9 27  1  0
 11 28  1  0
 16 29  1  0
 17 30  1  0
 31 32  2  0
 32 33  1  0
 32 34  1  0
 34 35  2  0
 35 36  1  0
 36 37  2  0
 37 38  1  0
 38 39  2  0
 39 40  1  0
 40 41  2  0
 41 31  1  0
 41 36  1  0
 34 42  1  0
 35 43  1  0
 37 44  1  0
 38 45  1  0
 39 46  1  0
 40 47  1  0
 19 31  1  0
M  ISO  8  21  14  22  14  23  13  24  13  25  13  26  13  27   6  29  14
M  ISO  2  30  14  33  15
M  END
>  <DihAtoms>  (1) 
17,18,30,31

>  <DihDeg>  (1) 
-179.59144053845753

$$$$
