
 OpenBabel03252502103D

 50 55  0  0  0  0  0  0  0  0999 V2000
   35.5930   27.1720   38.3980 C   0  0  0  0  0  0  0  0  0  0  0  0
   36.0840   25.9610   38.6770 N   0  0  0  0  0  0  0  0  0  0  0  0
   35.6260   24.8180   38.1830 C   0  0  0  0  0  0  0  0  0  0  0  0
   34.5840   24.8240   37.3250 N   0  0  0  0  0  0  0  0  0  0  0  0
   33.9970   25.9750   36.9610 C   0  0  0  0  0  0  0  0  0  0  0  0
   32.9170   26.0010   36.0920 C   0  0  0  0  0  0  0  0  0  0  0  0
   32.3090   27.1620   35.7310 C   0  0  0  0  0  0  0  0  0  0  0  0
   32.8090   28.3220   36.2640 C   0  0  0  0  0  0  0  0  0  0  0  0
   33.8950   28.2570   37.1310 C   0  0  0  0  0  0  0  0  0  0  0  0
   34.5230   27.1240   37.5120 C   0  0  0  0  0  0  0  0  0  0  0  0
   36.0690   23.8600   38.4480 H   0  0  0  0  0  0  0  0  0  0  0  0
   32.5430   25.0670   35.6850 H   0  0  0  0  0  0  0  0  0  0  0  0
   31.4780   27.1250   35.0570 H   0  0  0  0  0  0  0  0  0  0  0  0
   35.6950   29.9400   40.7280 C   0  0  0  0  0  0  0  0  0  0  0  0
   36.7400   30.7710   40.3070 C   0  0  0  0  0  0  0  0  0  0  0  0
   37.4460   30.3660   39.2040 C   0  0  0  0  0  0  0  0  0  0  0  0
   37.1140   29.2250   38.5860 N   0  0  0  0  0  0  0  0  0  0  0  0
   36.1280   28.4310   38.9670 C   0  0  0  0  0  0  0  0  0  0  0  0
   35.4270   28.8130   40.0530 N   0  0  0  0  0  0  0  0  0  0  0  0
   38.5060   31.1170   38.7530 N   0  0  0  0  0  0  0  0  0  0  0  0
   39.4370   30.6850   37.6730 C   0  0  0  0  0  0  0  0  0  0  0  0
   40.2480   31.8980   37.3200 C   0  0  0  0  0  0  0  0  0  0  0  0
   40.2450   32.6820   38.5950 C   0  0  0  0  0  0  0  0  0  0  0  0
   38.9180   32.4050   39.2140 C   0  0  0  0  0  0  0  0  0  0  0  0
   35.1090   30.2230   41.6040 H   0  0  0  0  0  0  0  0  0  0  0  0
   40.0230   29.8180   37.9770 H   0  0  0  0  0  0  0  0  0  0  0  0
   38.7620   30.4790   36.8050 H   0  0  0  0  0  0  0  0  0  0  0  0
   41.2990   31.6150   37.0620 H   0  0  0  0  0  0  0  0  0  0  0  0
   39.7940   32.5230   36.5380 H   0  0  0  0  0  0  0  0  0  0  0  0
   40.4470   33.7670   38.4630 H   0  0  0  0  0  0  0  0  0  0  0  0
   41.0970   32.3060   39.1990 H   0  0  0  0  0  0  0  0  0  0  0  0
   39.1590   32.3400   40.3190 H   0  0  0  0  0  0  0  0  0  0  0  0
   38.2530   33.2340   38.9660 H   0  0  0  0  0  0  0  0  0  0  0  0
   36.9370   31.9440   40.9770 N   0  0  0  0  0  0  0  0  0  0  0  0
   36.6740   32.9280   40.7480 H   0  0  0  0  0  0  0  0  0  0  0  0
   37.4530   31.6370   41.8530 H   0  0  0  0  0  0  0  0  0  0  0  0
   32.1360   29.5560   35.8610 C   0  0  0  0  0  0  0  0  0  0  0  0
   32.4600   30.1360   34.6320 C   0  0  0  0  0  0  0  0  0  0  0  0
   33.2060   29.6880   33.9660 H   0  0  0  0  0  0  0  0  0  0  0  0
   31.8350   31.3020   34.2350 C   0  0  0  0  0  3  0  0  0  0  0  0
   30.8920   31.9340   34.9980 C   0  0  0  0  0  3  0  0  0  0  0  0
   30.5820   31.3540   36.2060 C   0  0  0  0  0  0  0  0  0  0  0  0
   29.6400   31.9440   37.0170 C   0  0  0  0  0  3  0  0  0  0  0  0
   29.2980   31.3980   38.2340 C   0  0  0  0  0  3  0  0  0  0  0  0
   29.8920   30.2380   38.6750 C   0  0  0  0  0  3  0  0  0  0  0  0
   30.8430   29.6440   37.8530 C   0  0  0  0  0  3  0  0  0  0  0  0
   31.1810   30.1880   36.6450 C   0  0  0  0  0  0  0  0  0  0  0  0
   34.2810   29.5710   37.5530 N   0  0  0  0  0  0  0  0  0  0  0  0
   34.0610   30.1840   38.3490 H   0  0  0  0  0  0  0  0  0  0  0  0
   34.9400   29.8890   36.7910 H   0  0  0  0  0  0  0  0  0  0  0  0
  1  2  1  0  0  0  0
  1 18  1  0  0  0  0
  3 11  1  0  0  0  0
  3  2  2  0  0  0  0
  4  3  1  0  0  0  0
  5  4  2  0  0  0  0
  5 10  1  0  0  0  0
  6  5  1  0  0  0  0
  7  6  2  0  0  0  0
  7  8  1  0  0  0  0
  8  9  2  0  0  0  0
  9 10  1  0  0  0  0
  9 48  1  0  0  0  0
 10  1  2  0  0  0  0
 12  6  1  0  0  0  0
 13  7  1  0  0  0  0
 14 25  1  0  0  0  0
 15 14  1  0  0  0  0
 15 34  1  0  0  0  0
 16 15  2  0  0  0  0
 17 18  2  0  0  0  0
 17 16  1  0  0  0  0
 18 19  1  0  0  0  0
 19 14  2  0  0  0  0
 20 16  1  0  0  0  0
 20 24  1  0  0  0  0
 21 26  1  0  0  0  0
 21 20  1  0  0  0  0
 22 21  1  0  0  0  0
 22 23  1  0  0  0  0
 23 31  1  0  0  0  0
 23 24  1  0  0  0  0
 24 32  1  0  0  0  0
 27 21  1  0  0  0  0
 28 22  1  0  0  0  0
 29 22  1  0  0  0  0
 30 23  1  0  0  0  0
 33 24  1  0  0  0  0
 34 36  1  0  0  0  0
 35 34  1  0  0  0  0
 37  8  1  0  0  0  0
 37 47  1  0  0  0  0
 38 37  2  0  0  0  0
 39 38  1  0  0  0  0
 40 38  1  0  0  0  0
 40 41  2  0  0  0  0
 41 42  1  0  0  0  0
 42 47  2  0  0  0  0
 42 43  1  0  0  0  0
 43 44  2  0  0  0  0
 44 45  1  0  0  0  0
 46 45  2  0  0  0  0
 47 46  1  0  0  0  0
 48 49  1  0  0  0  0
 50 48  1  0  0  0  0
M  END
>  <minimizedAffinity>
-7.37048292

$$$$

 OpenBabel03252502103D

 50 55  0  0  0  0  0  0  0  0999 V2000
   41.2810   31.4760   40.2060 C   0  0  0  0  0  0  0  0  0  0  0  0
   42.1640   32.4520   40.4400 N   0  0  0  0  0  0  0  0  0  0  0  0
   41.8740   33.7450   40.5040 C   0  0  0  0  0  0  0  0  0  0  0  0
   40.6020   34.1610   40.3250 N   0  0  0  0  0  0  0  0  0  0  0  0
   39.6180   33.2810   40.0810 C   0  0  0  0  0  0  0  0  0  0  0  0
   38.3070   33.6900   39.8820 C   0  0  0  0  0  0  0  0  0  0  0  0
   37.3090   32.8060   39.6200 C   0  0  0  0  0  0  0  0  0  0  0  0
   37.6460   31.4790   39.5590 C   0  0  0  0  0  0  0  0  0  0  0  0
   38.9720   31.1070   39.7670 C   0  0  0  0  0  0  0  0  0  0  0  0
   39.9890   31.9550   40.0280 C   0  0  0  0  0  0  0  0  0  0  0  0
   42.6380   34.4950   40.6990 H   0  0  0  0  0  0  0  0  0  0  0  0
   38.0680   34.7470   39.9370 H   0  0  0  0  0  0  0  0  0  0  0  0
   36.3140   33.1750   39.4730 H   0  0  0  0  0  0  0  0  0  0  0  0
   42.6140   28.4890   38.6550 C   0  0  0  0  0  0  0  0  0  0  0  0
   42.4050   27.4460   39.5650 C   0  0  0  0  0  0  0  0  0  0  0  0
   41.8070   27.7740   40.7530 C   0  0  0  0  0  0  0  0  0  0  0  0
   41.4510   29.0430   40.9900 N   0  0  0  0  0  0  0  0  0  0  0  0
   41.6370   30.0390   40.1400 C   0  0  0  0  0  0  0  0  0  0  0  0
   42.2280   29.7340   38.9690 N   0  0  0  0  0  0  0  0  0  0  0  0
   41.5980   26.8060   41.7070 N   0  0  0  0  0  0  0  0  0  0  0  0
   41.1120   27.0830   43.0880 C   0  0  0  0  0  0  0  0  0  0  0  0
   40.7690   25.7460   43.6790 C   0  0  0  0  0  0  0  0  0  0  0  0
   41.6790   24.8130   42.9420 C   0  0  0  0  0  0  0  0  0  0  0  0
   41.8040   25.3970   41.5770 C   0  0  0  0  0  0  0  0  0  0  0  0
   43.0910   28.2740   37.6970 H   0  0  0  0  0  0  0  0  0  0  0  0
   41.8410   27.6590   43.6580 H   0  0  0  0  0  0  0  0  0  0  0  0
   40.1480   27.6270   42.9280 H   0  0  0  0  0  0  0  0  0  0  0  0
   41.0140   25.7160   44.7700 H   0  0  0  0  0  0  0  0  0  0  0  0
   39.7340   25.4290   43.4880 H   0  0  0  0  0  0  0  0  0  0  0  0
   41.3380   23.7560   42.9340 H   0  0  0  0  0  0  0  0  0  0  0  0
   42.6370   24.7990   43.5010 H   0  0  0  0  0  0  0  0  0  0  0  0
   42.8900   25.2070   41.3150 H   0  0  0  0  0  0  0  0  0  0  0  0
   41.1050   24.8730   40.9220 H   0  0  0  0  0  0  0  0  0  0  0  0
   42.7460   26.1820   39.1800 N   0  0  0  0  0  0  0  0  0  0  0  0
   42.1730   25.3810   38.8330 H   0  0  0  0  0  0  0  0  0  0  0  0
   43.8000   26.1670   39.3130 H   0  0  0  0  0  0  0  0  0  0  0  0
   36.5540   30.5490   39.2740 C   0  0  0  0  0  0  0  0  0  0  0  0
   35.7610   30.0910   40.3290 C   0  0  0  0  0  0  0  0  0  0  0  0
   35.9390   30.4100   41.3610 H   0  0  0  0  0  0  0  0  0  0  0  0
   34.7250   29.2130   40.0780 C   0  0  0  0  0  3  0  0  0  0  0  0
   34.4260   28.7570   38.8240 C   0  0  0  0  0  3  0  0  0  0  0  0
   35.2140   29.2160   37.7940 C   0  0  0  0  0  0  0  0  0  0  0  0
   34.9620   28.7930   36.5090 C   0  0  0  0  0  3  0  0  0  0  0  0
   35.7250   29.2260   35.4480 C   0  0  0  0  0  3  0  0  0  0  0  0
   36.7680   30.1010   35.6440 C   0  0  0  0  0  3  0  0  0  0  0  0
   37.0210   30.5260   36.9440 C   0  0  0  0  0  3  0  0  0  0  0  0
   36.2610   30.0950   37.9960 C   0  0  0  0  0  0  0  0  0  0  0  0
   39.1120   29.6830   39.6900 N   0  0  0  0  0  0  0  0  0  0  0  0
   39.3470   29.0040   38.9540 H   0  0  0  0  0  0  0  0  0  0  0  0
   38.8940   29.3630   40.6730 H   0  0  0  0  0  0  0  0  0  0  0  0
  1  2  1  0  0  0  0
  2  3  2  0  0  0  0
  3 11  1  0  0  0  0
  4  3  1  0  0  0  0
  5  4  2  0  0  0  0
  6 12  1  0  0  0  0
  6  5  1  0  0  0  0
  7  6  2  0  0  0  0
  8  7  1  0  0  0  0
  8  9  2  0  0  0  0
  9 10  1  0  0  0  0
 10  5  1  0  0  0  0
 10  1  2  0  0  0  0
 13  7  1  0  0  0  0
 14 19  2  0  0  0  0
 14 15  1  0  0  0  0
 15 16  2  0  0  0  0
 16 17  1  0  0  0  0
 16 20  1  0  0  0  0
 18  1  1  0  0  0  0
 18 17  2  0  0  0  0
 19 18  1  0  0  0  0
 20 21  1  0  0  0  0
 21 26  1  0  0  0  0
 21 22  1  0  0  0  0
 22 28  1  0  0  0  0
 23 31  1  0  0  0  0
 23 22  1  0  0  0  0
 24 20  1  0  0  0  0
 24 23  1  0  0  0  0
 25 14  1  0  0  0  0
 27 21  1  0  0  0  0
 29 22  1  0  0  0  0
 30 23  1  0  0  0  0
 32 24  1  0  0  0  0
 33 24  1  0  0  0  0
 34 36  1  0  0  0  0
 34 15  1  0  0  0  0
 35 34  1  0  0  0  0
 37  8  1  0  0  0  0
 37 38  1  0  0  0  0
 38 39  1  0  0  0  0
 40 38  2  0  0  0  0
 41 40  1  0  0  0  0
 42 47  1  0  0  0  0
 42 41  2  0  0  0  0
 43 42  1  0  0  0  0
 44 45  1  0  0  0  0
 44 43  2  0  0  0  0
 45 46  2  0  0  0  0
 46 47  1  0  0  0  0
 47 37  2  0  0  0  0
 48  9  1  0  0  0  0
 48 50  1  0  0  0  0
 49 48  1  0  0  0  0
M  END
>  <minimizedAffinity>
-7.08194733

$$$$

 OpenBabel03252502103D

 50 55  0  0  0  0  0  0  0  0999 V2000
   37.4310   30.9150   38.7670 C   0  0  0  0  0  0  0  0  0  0  0  0
   37.5000   32.2420   38.6230 N   0  0  0  0  0  0  0  0  0  0  0  0
   37.9300   33.0890   39.5490 C   0  0  0  0  0  0  0  0  0  0  0  0
   38.3420   32.6260   40.7480 N   0  0  0  0  0  0  0  0  0  0  0  0
   38.3230   31.3110   41.0230 C   0  0  0  0  0  0  0  0  0  0  0  0
   38.7300   30.8170   42.2530 C   0  0  0  0  0  0  0  0  0  0  0  0
   38.6990   29.4900   42.5420 C   0  0  0  0  0  0  0  0  0  0  0  0
   38.2470   28.6450   41.5620 C   0  0  0  0  0  0  0  0  0  0  0  0
   37.8490   29.1780   40.3390 C   0  0  0  0  0  0  0  0  0  0  0  0
   37.8650   30.4880   40.0170 C   0  0  0  0  0  0  0  0  0  0  0  0
   37.9630   34.1620   39.3730 H   0  0  0  0  0  0  0  0  0  0  0  0
   39.0840   31.5090   43.0100 H   0  0  0  0  0  0  0  0  0  0  0  0
   39.0240   29.1620   43.5090 H   0  0  0  0  0  0  0  0  0  0  0  0
   37.7790   28.7000   35.9240 C   0  0  0  0  0  0  0  0  0  0  0  0
   36.4840   28.2930   35.5820 C   0  0  0  0  0  0  0  0  0  0  0  0
   35.4600   28.7740   36.3550 C   0  0  0  0  0  0  0  0  0  0  0  0
   35.7300   29.5960   37.3780 N   0  0  0  0  0  0  0  0  0  0  0  0
   36.9450   29.9940   37.7120 C   0  0  0  0  0  0  0  0  0  0  0  0
   37.9640   29.5260   36.9640 N   0  0  0  0  0  0  0  0  0  0  0  0
   34.1650   28.3910   36.0950 N   0  0  0  0  0  0  0  0  0  0  0  0
   33.0050   28.7190   36.9700 C   0  0  0  0  0  0  0  0  0  0  0  0
   31.7790   28.3560   36.1820 C   0  0  0  0  0  0  0  0  0  0  0  0
   32.2740   27.2670   35.2820 C   0  0  0  0  0  0  0  0  0  0  0  0
   33.6890   27.6260   34.9860 C   0  0  0  0  0  0  0  0  0  0  0  0
   38.6240   28.3380   35.3370 H   0  0  0  0  0  0  0  0  0  0  0  0
   33.0850   28.2260   37.9390 H   0  0  0  0  0  0  0  0  0  0  0  0
   33.0300   29.8360   37.0410 H   0  0  0  0  0  0  0  0  0  0  0  0
   30.9800   27.9500   36.8490 H   0  0  0  0  0  0  0  0  0  0  0  0
   31.4020   29.1720   35.5480 H   0  0  0  0  0  0  0  0  0  0  0  0
   31.6610   27.1190   34.3670 H   0  0  0  0  0  0  0  0  0  0  0  0
   32.1720   26.3190   35.8490 H   0  0  0  0  0  0  0  0  0  0  0  0
   34.2130   26.6210   34.9810 H   0  0  0  0  0  0  0  0  0  0  0  0
   33.7120   28.1280   34.0170 H   0  0  0  0  0  0  0  0  0  0  0  0
   36.3300   27.5100   34.4740 N   0  0  0  0  0  0  0  0  0  0  0  0
   36.0230   27.7330   33.5020 H   0  0  0  0  0  0  0  0  0  0  0  0
   36.6060   26.5460   34.8220 H   0  0  0  0  0  0  0  0  0  0  0  0
   38.2220   27.2220   41.9000 C   0  0  0  0  0  0  0  0  0  0  0  0
   36.9920   26.5630   41.9740 C   0  0  0  0  0  0  0  0  0  0  0  0
   36.0490   27.0880   41.7860 H   0  0  0  0  0  0  0  0  0  0  0  0
   36.9500   25.2200   42.2920 C   0  0  0  0  0  3  0  0  0  0  0  0
   38.0740   24.4820   42.5440 C   0  0  0  0  0  3  0  0  0  0  0  0
   39.2780   25.1430   42.4680 C   0  0  0  0  0  0  0  0  0  0  0  0
   40.4430   24.4520   42.7110 C   0  0  0  0  0  3  0  0  0  0  0  0
   41.6710   25.0720   42.6460 C   0  0  0  0  0  3  0  0  0  0  0  0
   41.7680   26.4080   42.3340 C   0  0  0  0  0  3  0  0  0  0  0  0
   40.5880   27.1030   42.0890 C   0  0  0  0  0  3  0  0  0  0  0  0
   39.3700   26.4850   42.1540 C   0  0  0  0  0  0  0  0  0  0  0  0
   37.4390   28.1340   39.4470 N   0  0  0  0  0  0  0  0  0  0  0  0
   36.5480   27.6810   39.2020 H   0  0  0  0  0  0  0  0  0  0  0  0
   38.3430   27.8320   38.9930 H   0  0  0  0  0  0  0  0  0  0  0  0
  1 10  1  0  0  0  0
  2  1  2  0  0  0  0
  2  3  1  0  0  0  0
  3  4  2  0  0  0  0
  4  5  1  0  0  0  0
  5  6  1  0  0  0  0
  6  7  2  0  0  0  0
  6 12  1  0  0  0  0
  7 13  1  0  0  0  0
  8 37  1  0  0  0  0
  8  7  1  0  0  0  0
  9  8  2  0  0  0  0
 10  9  1  0  0  0  0
 10  5  2  0  0  0  0
 11  3  1  0  0  0  0
 14 19  1  0  0  0  0
 15 14  2  0  0  0  0
 15 16  1  0  0  0  0
 16 17  2  0  0  0  0
 17 18  1  0  0  0  0
 18  1  1  0  0  0  0
 19 18  2  0  0  0  0
 20 16  1  0  0  0  0
 20 21  1  0  0  0  0
 21 27  1  0  0  0  0
 21 26  1  0  0  0  0
 22 28  1  0  0  0  0
 22 21  1  0  0  0  0
 23 31  1  0  0  0  0
 23 22  1  0  0  0  0
 24 23  1  0  0  0  0
 24 20  1  0  0  0  0
 25 14  1  0  0  0  0
 29 22  1  0  0  0  0
 30 23  1  0  0  0  0
 32 24  1  0  0  0  0
 33 24  1  0  0  0  0
 34 36  1  0  0  0  0
 34 15  1  0  0  0  0
 35 34  1  0  0  0  0
 37 38  2  0  0  0  0
 37 47  1  0  0  0  0
 38 40  1  0  0  0  0
 39 38  1  0  0  0  0
 40 41  2  0  0  0  0
 42 41  1  0  0  0  0
 42 43  1  0  0  0  0
 44 43  2  0  0  0  0
 45 44  1  0  0  0  0
 46 47  1  0  0  0  0
 46 45  2  0  0  0  0
 47 42  2  0  0  0  0
 48  9  1  0  0  0  0
 49 48  1  0  0  0  0
 50 48  1  0  0  0  0
M  END
>  <minimizedAffinity>
-6.94027233

$$$$

 OpenBabel03252502103D

 50 55  0  0  0  0  0  0  0  0999 V2000
   38.8770   29.0250   41.5080 C   0  0  0  0  0  0  0  0  0  0  0  0
   39.2770   28.6690   42.7330 N   0  0  0  0  0  0  0  0  0  0  0  0
   39.0030   27.5110   43.3200 C   0  0  0  0  0  0  0  0  0  0  0  0
   38.2660   26.5840   42.6720 N   0  0  0  0  0  0  0  0  0  0  0  0
   37.8020   26.8160   41.4340 C   0  0  0  0  0  0  0  0  0  0  0  0
   37.0320   25.8810   40.7570 C   0  0  0  0  0  0  0  0  0  0  0  0
   36.5460   26.1160   39.5100 C   0  0  0  0  0  0  0  0  0  0  0  0
   36.8470   27.3240   38.9360 C   0  0  0  0  0  0  0  0  0  0  0  0
   37.6240   28.2350   39.6450 C   0  0  0  0  0  0  0  0  0  0  0  0
   38.1230   28.0380   40.8840 C   0  0  0  0  0  0  0  0  0  0  0  0
   39.3580   27.2780   44.3220 H   0  0  0  0  0  0  0  0  0  0  0  0
   36.8100   24.9320   41.2350 H   0  0  0  0  0  0  0  0  0  0  0  0
   35.9560   25.3600   39.0320 H   0  0  0  0  0  0  0  0  0  0  0  0
   38.3520   32.5250   40.7490 C   0  0  0  0  0  0  0  0  0  0  0  0
   39.3780   32.8960   39.8720 C   0  0  0  0  0  0  0  0  0  0  0  0
   40.2900   31.9270   39.5430 C   0  0  0  0  0  0  0  0  0  0  0  0
   40.1650   30.6960   40.0550 N   0  0  0  0  0  0  0  0  0  0  0  0
   39.2000   30.3270   40.8800 C   0  0  0  0  0  0  0  0  0  0  0  0
   38.2980   31.2700   41.2170 N   0  0  0  0  0  0  0  0  0  0  0  0
   41.3430   32.2290   38.7110 N   0  0  0  0  0  0  0  0  0  0  0  0
   42.4750   31.3030   38.4250 C   0  0  0  0  0  0  0  0  0  0  0  0
   43.2280   31.9150   37.2800 C   0  0  0  0  0  0  0  0  0  0  0  0
   42.9450   33.3770   37.4390 C   0  0  0  0  0  0  0  0  0  0  0  0
   41.5620   33.4430   37.9890 C   0  0  0  0  0  0  0  0  0  0  0  0
   37.6060   33.2660   41.0400 H   0  0  0  0  0  0  0  0  0  0  0  0
   43.0740   31.1200   39.3170 H   0  0  0  0  0  0  0  0  0  0  0  0
   41.9750   30.3820   38.0330 H   0  0  0  0  0  0  0  0  0  0  0  0
   44.3270   31.7380   37.3830 H   0  0  0  0  0  0  0  0  0  0  0  0
   42.8590   31.6060   36.2910 H   0  0  0  0  0  0  0  0  0  0  0  0
   43.0730   33.9690   36.5080 H   0  0  0  0  0  0  0  0  0  0  0  0
   43.7120   33.7720   38.1370 H   0  0  0  0  0  0  0  0  0  0  0  0
   41.6180   34.3020   38.7250 H   0  0  0  0  0  0  0  0  0  0  0  0
   40.8790   33.6310   37.1580 H   0  0  0  0  0  0  0  0  0  0  0  0
   39.3590   34.1610   39.3610 N   0  0  0  0  0  0  0  0  0  0  0  0
   39.0560   34.5330   38.4340 H   0  0  0  0  0  0  0  0  0  0  0  0
   39.7460   34.7470   40.1580 H   0  0  0  0  0  0  0  0  0  0  0  0
   36.3100   27.5510   37.5950 C   0  0  0  0  0  0  0  0  0  0  0  0
   37.0590   27.1460   36.4870 C   0  0  0  0  0  0  0  0  0  0  0  0
   38.0360   26.6640   36.6000 H   0  0  0  0  0  0  0  0  0  0  0  0
   36.5680   27.3520   35.2130 C   0  0  0  0  0  3  0  0  0  0  0  0
   35.3600   27.9460   34.9710 C   0  0  0  0  0  3  0  0  0  0  0  0
   34.6330   28.3400   36.0700 C   0  0  0  0  0  0  0  0  0  0  0  0
   33.4090   28.9420   35.8890 C   0  0  0  0  0  3  0  0  0  0  0  0
   32.6460   29.3530   36.9600 C   0  0  0  0  0  3  0  0  0  0  0  0
   33.0900   29.1700   38.2490 C   0  0  0  0  0  3  0  0  0  0  0  0
   34.3280   28.5610   38.4280 C   0  0  0  0  0  3  0  0  0  0  0  0
   35.0830   28.1540   37.3630 C   0  0  0  0  0  0  0  0  0  0  0  0
   37.8480   29.4170   38.8670 N   0  0  0  0  0  0  0  0  0  0  0  0
   37.3910   30.3340   38.7700 H   0  0  0  0  0  0  0  0  0  0  0  0
   38.7010   29.1740   38.2940 H   0  0  0  0  0  0  0  0  0  0  0  0
  1  2  1  0  0  0  0
  2  3  2  0  0  0  0
  3 11  1  0  0  0  0
  4  3  1  0  0  0  0
  5  4  2  0  0  0  0
  6 12  1  0  0  0  0
  6  5  1  0  0  0  0
  7  6  2  0  0  0  0
  8  7  1  0  0  0  0
  8  9  2  0  0  0  0
  9 10  1  0  0  0  0
 10  5  1  0  0  0  0
 10  1  2  0  0  0  0
 13  7  1  0  0  0  0
 14 25  1  0  0  0  0
 14 19  1  0  0  0  0
 15 14  2  0  0  0  0
 16 15  1  0  0  0  0
 16 17  2  0  0  0  0
 17 18  1  0  0  0  0
 18 19  2  0  0  0  0
 18  1  1  0  0  0  0
 20 16  1  0  0  0  0
 21 20  1  0  0  0  0
 21 26  1  0  0  0  0
 22 28  1  0  0  0  0
 22 23  1  0  0  0  0
 22 21  1  0  0  0  0
 23 24  1  0  0  0  0
 23 31  1  0  0  0  0
 24 20  1  0  0  0  0
 24 32  1  0  0  0  0
 27 21  1  0  0  0  0
 29 22  1  0  0  0  0
 30 23  1  0  0  0  0
 33 24  1  0  0  0  0
 34 15  1  0  0  0  0
 34 36  1  0  0  0  0
 35 34  1  0  0  0  0
 37  8  1  0  0  0  0
 38 39  1  0  0  0  0
 38 37  2  0  0  0  0
 40 38  1  0  0  0  0
 41 40  2  0  0  0  0
 41 42  1  0  0  0  0
 42 47  1  0  0  0  0
 43 42  2  0  0  0  0
 43 44  1  0  0  0  0
 44 45  2  0  0  0  0
 45 46  1  0  0  0  0
 47 37  1  0  0  0  0
 47 46  2  0  0  0  0
 48  9  1  0  0  0  0
 49 48  1  0  0  0  0
 50 48  1  0  0  0  0
M  END
>  <minimizedAffinity>
-6.91866064

$$$$

 OpenBabel03252502103D

 50 55  0  0  0  0  0  0  0  0999 V2000
   36.7380   29.5600   38.4050 C   0  0  0  0  0  0  0  0  0  0  0  0
   35.8260   29.6630   37.4340 N   0  0  0  0  0  0  0  0  0  0  0  0
   35.1460   28.6500   36.9130 C   0  0  0  0  0  0  0  0  0  0  0  0
   35.3550   27.3950   37.3650 N   0  0  0  0  0  0  0  0  0  0  0  0
   36.2460   27.1520   38.3390 C   0  0  0  0  0  0  0  0  0  0  0  0
   36.4840   25.8690   38.8080 C   0  0  0  0  0  0  0  0  0  0  0  0
   37.3950   25.6150   39.7830 C   0  0  0  0  0  0  0  0  0  0  0  0
   38.0800   26.6870   40.2960 C   0  0  0  0  0  0  0  0  0  0  0  0
   37.8120   27.9600   39.8020 C   0  0  0  0  0  0  0  0  0  0  0  0
   36.9170   28.2500   38.8340 C   0  0  0  0  0  0  0  0  0  0  0  0
   34.4140   28.7970   36.1220 H   0  0  0  0  0  0  0  0  0  0  0  0
   35.9260   25.0390   38.3840 H   0  0  0  0  0  0  0  0  0  0  0  0
   37.5410   24.6050   40.1070 H   0  0  0  0  0  0  0  0  0  0  0  0
   37.3020   32.3030   40.6990 C   0  0  0  0  0  0  0  0  0  0  0  0
   38.4850   32.9260   40.2850 C   0  0  0  0  0  0  0  0  0  0  0  0
   39.1220   32.3830   39.1990 C   0  0  0  0  0  0  0  0  0  0  0  0
   38.5990   31.3100   38.5910 N   0  0  0  0  0  0  0  0  0  0  0  0
   37.4810   30.7130   38.9660 C   0  0  0  0  0  0  0  0  0  0  0  0
   36.8460   31.2310   40.0350 N   0  0  0  0  0  0  0  0  0  0  0  0
   40.3050   32.9250   38.7560 N   0  0  0  0  0  0  0  0  0  0  0  0
   41.1590   32.3160   37.6970 C   0  0  0  0  0  0  0  0  0  0  0  0
   42.1800   33.3580   37.3420 C   0  0  0  0  0  0  0  0  0  0  0  0
   42.2990   34.1510   38.6060 C   0  0  0  0  0  0  0  0  0  0  0  0
   40.9360   34.1260   39.2060 C   0  0  0  0  0  0  0  0  0  0  0  0
   36.7640   32.7000   41.5620 H   0  0  0  0  0  0  0  0  0  0  0  0
   41.5760   31.3630   38.0220 H   0  0  0  0  0  0  0  0  0  0  0  0
   40.4700   32.2200   36.8210 H   0  0  0  0  0  0  0  0  0  0  0  0
   43.1660   32.8880   37.1060 H   0  0  0  0  0  0  0  0  0  0  0  0
   41.8550   34.0420   36.5440 H   0  0  0  0  0  0  0  0  0  0  0  0
   42.6940   35.1790   38.4630 H   0  0  0  0  0  0  0  0  0  0  0  0
   43.0610   33.6380   39.2290 H   0  0  0  0  0  0  0  0  0  0  0  0
   41.1450   34.0370   40.3160 H   0  0  0  0  0  0  0  0  0  0  0  0
   40.4340   35.0570   38.9360 H   0  0  0  0  0  0  0  0  0  0  0  0
   38.8790   34.0550   40.9420 N   0  0  0  0  0  0  0  0  0  0  0  0
   38.8000   35.0670   40.6950 H   0  0  0  0  0  0  0  0  0  0  0  0
   39.3190   33.6750   41.8300 H   0  0  0  0  0  0  0  0  0  0  0  0
   39.0560   26.3860   41.3420 C   0  0  0  0  0  0  0  0  0  0  0  0
   38.6460   26.4040   42.6780 C   0  0  0  0  0  0  0  0  0  0  0  0
   37.6130   26.6390   42.9570 H   0  0  0  0  0  0  0  0  0  0  0  0
   39.5530   26.1220   43.6800 C   0  0  0  0  0  3  0  0  0  0  0  0
   40.8630   25.8190   43.4300 C   0  0  0  0  0  3  0  0  0  0  0  0
   41.2540   25.8050   42.1110 C   0  0  0  0  0  0  0  0  0  0  0  0
   42.5610   25.5060   41.7980 C   0  0  0  0  0  3  0  0  0  0  0  0
   42.9970   25.4790   40.4910 C   0  0  0  0  0  3  0  0  0  0  0  0
   42.1320   25.7520   39.4570 C   0  0  0  0  0  3  0  0  0  0  0  0
   40.8130   26.0540   39.7770 C   0  0  0  0  0  3  0  0  0  0  0  0
   40.3820   26.0790   41.0750 C   0  0  0  0  0  0  0  0  0  0  0  0
   38.6070   28.9400   40.4820 N   0  0  0  0  0  0  0  0  0  0  0  0
   39.5160   29.3920   40.3220 H   0  0  0  0  0  0  0  0  0  0  0  0
   38.0270   29.1750   41.3340 H   0  0  0  0  0  0  0  0  0  0  0  0
  1 10  1  0  0  0  0
  1 18  1  0  0  0  0
  2  1  2  0  0  0  0
  3  4  2  0  0  0  0
  3  2  1  0  0  0  0
  4  5  1  0  0  0  0
  5  6  2  0  0  0  0
  5 10  1  0  0  0  0
  6  7  1  0  0  0  0
  7 13  1  0  0  0  0
  7  8  2  0  0  0  0
  8 37  1  0  0  0  0
  9  8  1  0  0  0  0
  9 48  1  0  0  0  0
 10  9  2  0  0  0  0
 11  3  1  0  0  0  0
 12  6  1  0  0  0  0
 14 25  1  0  0  0  0
 15 14  1  0  0  0  0
 15 34  1  0  0  0  0
 16 15  2  0  0  0  0
 17 18  2  0  0  0  0
 17 16  1  0  0  0  0
 18 19  1  0  0  0  0
 19 14  2  0  0  0  0
 20 16  1  0  0  0  0
 20 24  1  0  0  0  0
 21 26  1  0  0  0  0
 21 20  1  0  0  0  0
 22 21  1  0  0  0  0
 22 23  1  0  0  0  0
 23 24  1  0  0  0  0
 23 31  1  0  0  0  0
 24 32  1  0  0  0  0
 27 21  1  0  0  0  0
 28 22  1  0  0  0  0
 29 22  1  0  0  0  0
 30 23  1  0  0  0  0
 33 24  1  0  0  0  0
 34 36  1  0  0  0  0
 35 34  1  0  0  0  0
 37 38  1  0  0  0  0
 38 39  1  0  0  0  0
 38 40  2  0  0  0  0
 41 40  1  0  0  0  0
 42 41  2  0  0  0  0
 43 42  1  0  0  0  0
 44 43  2  0  0  0  0
 45 46  2  0  0  0  0
 45 44  1  0  0  0  0
 46 47  1  0  0  0  0
 47 37  2  0  0  0  0
 47 42  1  0  0  0  0
 48 50  1  0  0  0  0
 49 48  1  0  0  0  0
M  END
>  <minimizedAffinity>
-6.91785383

$$$$

 OpenBabel03252502103D

 50 55  0  0  0  0  0  0  0  0999 V2000
   39.3240   31.9130   39.8910 C   0  0  0  0  0  0  0  0  0  0  0  0
   38.6710   33.0210   39.5250 N   0  0  0  0  0  0  0  0  0  0  0  0
   37.3760   33.2410   39.7110 C   0  0  0  0  0  0  0  0  0  0  0  0
   36.6120   32.3040   40.3130 N   0  0  0  0  0  0  0  0  0  0  0  0
   37.1450   31.1440   40.7290 C   0  0  0  0  0  0  0  0  0  0  0  0
   36.3740   30.1640   41.3370 C   0  0  0  0  0  0  0  0  0  0  0  0
   36.9030   28.9820   41.7470 C   0  0  0  0  0  0  0  0  0  0  0  0
   38.2440   28.7890   41.5360 C   0  0  0  0  0  0  0  0  0  0  0  0
   38.9860   29.7960   40.9250 C   0  0  0  0  0  0  0  0  0  0  0  0
   38.4950   30.9810   40.5040 C   0  0  0  0  0  0  0  0  0  0  0  0
   36.9000   34.1650   39.3910 H   0  0  0  0  0  0  0  0  0  0  0  0
   35.3150   30.3450   41.4920 H   0  0  0  0  0  0  0  0  0  0  0  0
   36.2630   28.2590   42.2100 H   0  0  0  0  0  0  0  0  0  0  0  0
   42.8340   32.0200   40.7710 C   0  0  0  0  0  0  0  0  0  0  0  0
   43.5330   31.5340   39.6600 C   0  0  0  0  0  0  0  0  0  0  0  0
   42.7840   31.1390   38.5830 C   0  0  0  0  0  0  0  0  0  0  0  0
   41.4490   31.2360   38.6310 N   0  0  0  0  0  0  0  0  0  0  0  0
   40.7730   31.6970   39.6690 C   0  0  0  0  0  0  0  0  0  0  0  0
   41.4950   32.0850   40.7390 N   0  0  0  0  0  0  0  0  0  0  0  0
   43.4020   30.6220   37.4680 N   0  0  0  0  0  0  0  0  0  0  0  0
   42.6790   30.0130   36.3170 C   0  0  0  0  0  0  0  0  0  0  0  0
   43.7020   29.8420   35.2320 C   0  0  0  0  0  0  0  0  0  0  0  0
   44.9790   29.6970   35.9990 C   0  0  0  0  0  0  0  0  0  0  0  0
   44.8050   30.5580   37.2020 C   0  0  0  0  0  0  0  0  0  0  0  0
   43.3910   32.3430   41.6520 H   0  0  0  0  0  0  0  0  0  0  0  0
   42.1680   29.0950   36.6090 H   0  0  0  0  0  0  0  0  0  0  0  0
   41.9790   30.8200   35.9840 H   0  0  0  0  0  0  0  0  0  0  0  0
   43.5130   28.9080   34.6480 H   0  0  0  0  0  0  0  0  0  0  0  0
   43.8010   30.7180   34.5750 H   0  0  0  0  0  0  0  0  0  0  0  0
   45.8910   29.9430   35.4150 H   0  0  0  0  0  0  0  0  0  0  0  0
   45.0790   28.6190   36.2430 H   0  0  0  0  0  0  0  0  0  0  0  0
   45.3070   29.9590   38.0220 H   0  0  0  0  0  0  0  0  0  0  0  0
   45.2960   31.5130   37.0050 H   0  0  0  0  0  0  0  0  0  0  0  0
   44.8970   31.5510   39.7030 N   0  0  0  0  0  0  0  0  0  0  0  0
   45.5990   32.2000   39.2850 H   0  0  0  0  0  0  0  0  0  0  0  0
   45.1280   30.7010   40.2970 H   0  0  0  0  0  0  0  0  0  0  0  0
   38.7880   27.5080   41.9850 C   0  0  0  0  0  0  0  0  0  0  0  0
   39.4030   27.4330   43.2380 C   0  0  0  0  0  0  0  0  0  0  0  0
   39.4860   28.3100   43.8890 H   0  0  0  0  0  0  0  0  0  0  0  0
   39.9220   26.2320   43.6780 C   0  0  0  0  0  3  0  0  0  0  0  0
   39.8660   25.0840   42.9360 C   0  0  0  0  0  3  0  0  0  0  0  0
   39.2600   25.1710   41.7050 C   0  0  0  0  0  0  0  0  0  0  0  0
   39.1730   24.0480   40.9140 C   0  0  0  0  0  3  0  0  0  0  0  0
   38.5740   24.0890   39.6740 C   0  0  0  0  0  3  0  0  0  0  0  0
   38.0420   25.2610   39.1900 C   0  0  0  0  0  3  0  0  0  0  0  0
   38.1310   26.3940   39.9920 C   0  0  0  0  0  3  0  0  0  0  0  0
   38.7260   26.3510   41.2230 C   0  0  0  0  0  0  0  0  0  0  0  0
   40.3630   29.4140   40.8220 N   0  0  0  0  0  0  0  0  0  0  0  0
   40.9510   28.9590   40.1110 H   0  0  0  0  0  0  0  0  0  0  0  0
   40.7690   29.7120   41.7500 H   0  0  0  0  0  0  0  0  0  0  0  0
  1 10  1  0  0  0  0
  2  3  1  0  0  0  0
  2  1  2  0  0  0  0
  3  4  2  0  0  0  0
  4  5  1  0  0  0  0
  5  6  1  0  0  0  0
  6 12  1  0  0  0  0
  6  7  2  0  0  0  0
  7 13  1  0  0  0  0
  8  7  1  0  0  0  0
  8 37  1  0  0  0  0
  9  8  2  0  0  0  0
 10  5  2  0  0  0  0
 10  9  1  0  0  0  0
 11  3  1  0  0  0  0
 14 25  1  0  0  0  0
 15 34  1  0  0  0  0
 15 14  2  0  0  0  0
 16 17  2  0  0  0  0
 16 15  1  0  0  0  0
 17 18  1  0  0  0  0
 18  1  1  0  0  0  0
 18 19  2  0  0  0  0
 19 14  1  0  0  0  0
 20 16  1  0  0  0  0
 21 26  1  0  0  0  0
 21 20  1  0  0  0  0
 22 23  1  0  0  0  0
 22 21  1  0  0  0  0
 23 31  1  0  0  0  0
 23 24  1  0  0  0  0
 24 20  1  0  0  0  0
 24 32  1  0  0  0  0
 27 21  1  0  0  0  0
 28 22  1  0  0  0  0
 29 22  1  0  0  0  0
 30 23  1  0  0  0  0
 33 24  1  0  0  0  0
 34 36  1  0  0  0  0
 35 34  1  0  0  0  0
 37 38  1  0  0  0  0
 38 40  2  0  0  0  0
 38 39  1  0  0  0  0
 41 40  1  0  0  0  0
 42 41  2  0  0  0  0
 43 42  1  0  0  0  0
 44 43  2  0  0  0  0
 45 44  1  0  0  0  0
 45 46  2  0  0  0  0
 46 47  1  0  0  0  0
 47 42  1  0  0  0  0
 47 37  2  0  0  0  0
 48  9  1  0  0  0  0
 48 50  1  0  0  0  0
 49 48  1  0  0  0  0
M  END
>  <minimizedAffinity>
-6.84193611

$$$$

 OpenBabel03252502103D

 50 55  0  0  0  0  0  0  0  0999 V2000
   37.2040   27.1310   40.2150 C   0  0  0  0  0  0  0  0  0  0  0  0
   36.9380   25.9800   40.8400 N   0  0  0  0  0  0  0  0  0  0  0  0
   37.2310   25.7130   42.1070 C   0  0  0  0  0  0  0  0  0  0  0  0
   37.8460   26.6440   42.8670 N   0  0  0  0  0  0  0  0  0  0  0  0
   38.1690   27.8440   42.3600 C   0  0  0  0  0  0  0  0  0  0  0  0
   38.8120   28.8080   43.1210 C   0  0  0  0  0  0  0  0  0  0  0  0
   39.1560   30.0190   42.6100 C   0  0  0  0  0  0  0  0  0  0  0  0
   38.8400   30.2580   41.2980 C   0  0  0  0  0  0  0  0  0  0  0  0
   38.1920   29.2670   40.5660 C   0  0  0  0  0  0  0  0  0  0  0  0
   37.8370   28.0540   41.0390 C   0  0  0  0  0  0  0  0  0  0  0  0
   36.9880   24.7550   42.5610 H   0  0  0  0  0  0  0  0  0  0  0  0
   39.0500   28.5920   44.1590 H   0  0  0  0  0  0  0  0  0  0  0  0
   39.6530   30.7280   43.2420 H   0  0  0  0  0  0  0  0  0  0  0  0
   37.8380   27.2600   36.6530 C   0  0  0  0  0  0  0  0  0  0  0  0
   36.6880   27.8030   36.0680 C   0  0  0  0  0  0  0  0  0  0  0  0
   35.6550   28.1170   36.9120 C   0  0  0  0  0  0  0  0  0  0  0  0
   35.7850   27.9050   38.2280 N   0  0  0  0  0  0  0  0  0  0  0  0
   36.8650   27.3980   38.7970 C   0  0  0  0  0  0  0  0  0  0  0  0
   37.8870   27.0790   37.9800 N   0  0  0  0  0  0  0  0  0  0  0  0
   34.4830   28.6260   36.4030 N   0  0  0  0  0  0  0  0  0  0  0  0
   33.2470   28.8430   37.2070 C   0  0  0  0  0  0  0  0  0  0  0  0
   32.3280   29.6520   36.3380 C   0  0  0  0  0  0  0  0  0  0  0  0
   32.7520   29.2650   34.9550 C   0  0  0  0  0  0  0  0  0  0  0  0
   34.2180   29.0220   35.0560 C   0  0  0  0  0  0  0  0  0  0  0  0
   38.6830   26.9910   36.0170 H   0  0  0  0  0  0  0  0  0  0  0  0
   32.8280   27.9000   37.5570 H   0  0  0  0  0  0  0  0  0  0  0  0
   33.5840   29.5120   38.0390 H   0  0  0  0  0  0  0  0  0  0  0  0
   31.2630   29.3540   36.4960 H   0  0  0  0  0  0  0  0  0  0  0  0
   32.4640   30.7390   36.4400 H   0  0  0  0  0  0  0  0  0  0  0  0
   32.4850   30.0060   34.1730 H   0  0  0  0  0  0  0  0  0  0  0  0
   32.1750   28.3540   34.6930 H   0  0  0  0  0  0  0  0  0  0  0  0
   34.3790   28.1330   34.3730 H   0  0  0  0  0  0  0  0  0  0  0  0
   34.7310   29.9240   34.7170 H   0  0  0  0  0  0  0  0  0  0  0  0
   36.7020   28.0380   34.7240 N   0  0  0  0  0  0  0  0  0  0  0  0
   36.8390   28.9140   34.1720 H   0  0  0  0  0  0  0  0  0  0  0  0
   36.5320   27.0750   34.3100 H   0  0  0  0  0  0  0  0  0  0  0  0
   39.2220   31.5680   40.7720 C   0  0  0  0  0  0  0  0  0  0  0  0
   38.3070   32.6220   40.8430 C   0  0  0  0  0  0  0  0  0  0  0  0
   37.3130   32.4880   41.2820 H   0  0  0  0  0  0  0  0  0  0  0  0
   38.6510   33.8650   40.3520 C   0  0  0  0  0  3  0  0  0  0  0  0
   39.8680   34.1280   39.7850 C   0  0  0  0  0  3  0  0  0  0  0  0
   40.7600   33.0830   39.7210 C   0  0  0  0  0  0  0  0  0  0  0  0
   42.0010   33.2870   39.1620 C   0  0  0  0  0  3  0  0  0  0  0  0
   42.9250   32.2700   39.0770 C   0  0  0  0  0  3  0  0  0  0  0  0
   42.6320   31.0130   39.5520 C   0  0  0  0  0  3  0  0  0  0  0  0
   41.3770   30.8100   40.1160 C   0  0  0  0  0  3  0  0  0  0  0  0
   40.4600   31.8220   40.2000 C   0  0  0  0  0  0  0  0  0  0  0  0
   37.9270   29.7200   39.2320 N   0  0  0  0  0  0  0  0  0  0  0  0
   38.4070   29.6610   38.3240 H   0  0  0  0  0  0  0  0  0  0  0  0
   37.0020   30.2210   39.3240 H   0  0  0  0  0  0  0  0  0  0  0  0
  1  2  2  0  0  0  0
  1 10  1  0  0  0  0
  2  3  1  0  0  0  0
  3 11  1  0  0  0  0
  3  4  2  0  0  0  0
  5  4  1  0  0  0  0
  5  6  1  0  0  0  0
  6 12  1  0  0  0  0
  7  6  2  0  0  0  0
  7 13  1  0  0  0  0
  8  7  1  0  0  0  0
  9 10  1  0  0  0  0
  9  8  2  0  0  0  0
 10  5  2  0  0  0  0
 14 19  1  0  0  0  0
 15 14  2  0  0  0  0
 15 16  1  0  0  0  0
 16 17  2  0  0  0  0
 17 18  1  0  0  0  0
 18  1  1  0  0  0  0
 19 18  2  0  0  0  0
 20 16  1  0  0  0  0
 20 21  1  0  0  0  0
 21 26  1  0  0  0  0
 21 27  1  0  0  0  0
 22 29  1  0  0  0  0
 22 28  1  0  0  0  0
 22 21  1  0  0  0  0
 23 24  1  0  0  0  0
 23 22  1  0  0  0  0
 24 20  1  0  0  0  0
 25 14  1  0  0  0  0
 30 23  1  0  0  0  0
 31 23  1  0  0  0  0
 32 24  1  0  0  0  0
 33 24  1  0  0  0  0
 34 15  1  0  0  0  0
 35 34  1  0  0  0  0
 36 34  1  0  0  0  0
 37 38  1  0  0  0  0
 37  8  1  0  0  0  0
 38 39  1  0  0  0  0
 40 38  2  0  0  0  0
 41 40  1  0  0  0  0
 42 41  2  0  0  0  0
 42 47  1  0  0  0  0
 43 42  1  0  0  0  0
 44 43  2  0  0  0  0
 44 45  1  0  0  0  0
 45 46  2  0  0  0  0
 46 47  1  0  0  0  0
 47 37  2  0  0  0  0
 48 50  1  0  0  0  0
 48  9  1  0  0  0  0
 49 48  1  0  0  0  0
M  END
>  <minimizedAffinity>
-6.83933687

$$$$

 OpenBabel03252502103D

 50 55  0  0  0  0  0  0  0  0999 V2000
   37.3710   30.3700   37.2280 C   0  0  0  0  0  0  0  0  0  0  0  0
   36.9350   30.7350   36.0180 N   0  0  0  0  0  0  0  0  0  0  0  0
   36.4420   29.9100   35.1040 C   0  0  0  0  0  0  0  0  0  0  0  0
   36.3520   28.5880   35.3650 N   0  0  0  0  0  0  0  0  0  0  0  0
   36.7570   28.0900   36.5450 C   0  0  0  0  0  0  0  0  0  0  0  0
   36.6850   26.7340   36.8270 C   0  0  0  0  0  0  0  0  0  0  0  0
   37.1070   26.2220   38.0130 C   0  0  0  0  0  0  0  0  0  0  0  0
   37.6130   27.1040   38.9330 C   0  0  0  0  0  0  0  0  0  0  0  0
   37.6670   28.4580   38.6140 C   0  0  0  0  0  0  0  0  0  0  0  0
   37.2580   29.0020   37.4480 C   0  0  0  0  0  0  0  0  0  0  0  0
   36.1010   30.2670   34.1340 H   0  0  0  0  0  0  0  0  0  0  0  0
   36.2800   26.0590   36.0810 H   0  0  0  0  0  0  0  0  0  0  0  0
   37.0300   25.1670   38.1790 H   0  0  0  0  0  0  0  0  0  0  0  0
   37.1850   32.6710   40.0170 C   0  0  0  0  0  0  0  0  0  0  0  0
   38.4810   33.1640   40.2070 C   0  0  0  0  0  0  0  0  0  0  0  0
   39.4540   32.6840   39.3700 C   0  0  0  0  0  0  0  0  0  0  0  0
   39.1360   31.7900   38.4250 N   0  0  0  0  0  0  0  0  0  0  0  0
   37.9170   31.3170   38.2290 C   0  0  0  0  0  0  0  0  0  0  0  0
   36.9500   31.7750   39.0470 N   0  0  0  0  0  0  0  0  0  0  0  0
   40.7560   33.1020   39.5190 N   0  0  0  0  0  0  0  0  0  0  0  0
   41.9110   32.5220   38.7780 C   0  0  0  0  0  0  0  0  0  0  0  0
   43.0690   33.4420   39.0350 C   0  0  0  0  0  0  0  0  0  0  0  0
   42.7340   34.0330   40.3690 C   0  0  0  0  0  0  0  0  0  0  0  0
   41.2480   34.1270   40.3850 C   0  0  0  0  0  0  0  0  0  0  0  0
   36.3800   33.0230   40.6640 H   0  0  0  0  0  0  0  0  0  0  0  0
   42.0840   31.4830   39.0600 H   0  0  0  0  0  0  0  0  0  0  0  0
   41.6270   32.6450   37.7020 H   0  0  0  0  0  0  0  0  0  0  0  0
   44.0250   32.8690   39.1130 H   0  0  0  0  0  0  0  0  0  0  0  0
   43.1490   34.2660   38.3110 H   0  0  0  0  0  0  0  0  0  0  0  0
   43.2350   35.0030   40.5750 H   0  0  0  0  0  0  0  0  0  0  0  0
   43.1370   33.3360   41.1320 H   0  0  0  0  0  0  0  0  0  0  0  0
   40.9850   33.8610   41.4550 H   0  0  0  0  0  0  0  0  0  0  0  0
   40.9730   35.1490   40.1160 H   0  0  0  0  0  0  0  0  0  0  0  0
   38.6680   34.1260   41.1570 N   0  0  0  0  0  0  0  0  0  0  0  0
   38.7780   35.1620   41.0860 H   0  0  0  0  0  0  0  0  0  0  0  0
   38.6820   33.5700   42.0620 H   0  0  0  0  0  0  0  0  0  0  0  0
   38.0610   26.5270   40.1990 C   0  0  0  0  0  0  0  0  0  0  0  0
   37.1380   26.3630   41.2350 C   0  0  0  0  0  0  0  0  0  0  0  0
   36.0890   26.6570   41.1200 H   0  0  0  0  0  0  0  0  0  0  0  0
   37.5440   25.8190   42.4380 C   0  0  0  0  0  3  0  0  0  0  0  0
   38.8310   25.4230   42.6760 C   0  0  0  0  0  3  0  0  0  0  0  0
   39.7300   25.5900   41.6480 C   0  0  0  0  0  0  0  0  0  0  0  0
   41.0400   25.2090   41.8290 C   0  0  0  0  0  3  0  0  0  0  0  0
   41.9740   25.3570   40.8280 C   0  0  0  0  0  3  0  0  0  0  0  0
   41.6210   25.8930   39.6110 C   0  0  0  0  0  3  0  0  0  0  0  0
   40.2960   26.2770   39.4320 C   0  0  0  0  0  3  0  0  0  0  0  0
   39.3700   26.1290   40.4280 C   0  0  0  0  0  0  0  0  0  0  0  0
   38.1980   29.2110   39.7110 N   0  0  0  0  0  0  0  0  0  0  0  0
   39.1280   29.5450   39.9950 H   0  0  0  0  0  0  0  0  0  0  0  0
   37.3470   29.4110   40.3050 H   0  0  0  0  0  0  0  0  0  0  0  0
  1 10  1  0  0  0  0
  1 18  1  0  0  0  0
  2  1  2  0  0  0  0
  3  4  2  0  0  0  0
  3  2  1  0  0  0  0
  4  5  1  0  0  0  0
  5  6  2  0  0  0  0
  5 10  1  0  0  0  0
  6  7  1  0  0  0  0
  7 13  1  0  0  0  0
  7  8  2  0  0  0  0
  8 37  1  0  0  0  0
  9  8  1  0  0  0  0
  9 48  1  0  0  0  0
 10  9  2  0  0  0  0
 11  3  1  0  0  0  0
 12  6  1  0  0  0  0
 14 15  1  0  0  0  0
 14 25  1  0  0  0  0
 15 34  1  0  0  0  0
 16 20  1  0  0  0  0
 16 15  2  0  0  0  0
 17 16  1  0  0  0  0
 18 17  2  0  0  0  0
 18 19  1  0  0  0  0
 19 14  2  0  0  0  0
 20 24  1  0  0  0  0
 21 22  1  0  0  0  0
 21 26  1  0  0  0  0
 21 20  1  0  0  0  0
 22 28  1  0  0  0  0
 22 23  1  0  0  0  0
 23 24  1  0  0  0  0
 23 30  1  0  0  0  0
 23 31  1  0  0  0  0
 24 32  1  0  0  0  0
 27 21  1  0  0  0  0
 29 22  1  0  0  0  0
 33 24  1  0  0  0  0
 34 36  1  0  0  0  0
 35 34  1  0  0  0  0
 37 47  2  0  0  0  0
 37 38  1  0  0  0  0
 38 40  2  0  0  0  0
 39 38  1  0  0  0  0
 40 41  1  0  0  0  0
 42 43  1  0  0  0  0
 42 41  2  0  0  0  0
 44 43  2  0  0  0  0
 45 44  1  0  0  0  0
 46 45  2  0  0  0  0
 46 47  1  0  0  0  0
 47 42  1  0  0  0  0
 48 49  1  0  0  0  0
 48 50  1  0  0  0  0
M  END
>  <minimizedAffinity>
-6.7804327

$$$$

 OpenBabel03252502103D

 50 55  0  0  0  0  0  0  0  0999 V2000
   41.3350   31.4780   40.2000 C   0  0  0  0  0  0  0  0  0  0  0  0
   42.2220   32.4520   40.4290 N   0  0  0  0  0  0  0  0  0  0  0  0
   41.9330   33.7440   40.5140 C   0  0  0  0  0  0  0  0  0  0  0  0
   40.6570   34.1610   40.3640 N   0  0  0  0  0  0  0  0  0  0  0  0
   39.6690   33.2840   40.1280 C   0  0  0  0  0  0  0  0  0  0  0  0
   38.3550   33.6940   39.9590 C   0  0  0  0  0  0  0  0  0  0  0  0
   37.3520   32.8130   39.7050 C   0  0  0  0  0  0  0  0  0  0  0  0
   37.6890   31.4860   39.6220 C   0  0  0  0  0  0  0  0  0  0  0  0
   39.0180   31.1130   39.8000 C   0  0  0  0  0  0  0  0  0  0  0  0
   40.0390   31.9580   40.0520 C   0  0  0  0  0  0  0  0  0  0  0  0
   42.7000   34.4920   40.7040 H   0  0  0  0  0  0  0  0  0  0  0  0
   38.1170   34.7500   40.0310 H   0  0  0  0  0  0  0  0  0  0  0  0
   36.3540   33.1830   39.5810 H   0  0  0  0  0  0  0  0  0  0  0  0
   42.0710   28.1880   41.5180 C   0  0  0  0  0  0  0  0  0  0  0  0
   42.3840   27.3830   40.4170 C   0  0  0  0  0  0  0  0  0  0  0  0
   42.3240   27.9760   39.1820 C   0  0  0  0  0  0  0  0  0  0  0  0
   41.9840   29.2670   39.0810 N   0  0  0  0  0  0  0  0  0  0  0  0
   41.6900   30.0420   40.1100 C   0  0  0  0  0  0  0  0  0  0  0  0
   41.7390   29.4740   41.3310 N   0  0  0  0  0  0  0  0  0  0  0  0
   42.5890   27.2370   38.0530 N   0  0  0  0  0  0  0  0  0  0  0  0
   42.3910   27.7350   36.6620 C   0  0  0  0  0  0  0  0  0  0  0  0
   43.0530   26.7280   35.7670 C   0  0  0  0  0  0  0  0  0  0  0  0
   42.9620   25.4640   36.5630 C   0  0  0  0  0  0  0  0  0  0  0  0
   43.0770   25.8950   37.9840 C   0  0  0  0  0  0  0  0  0  0  0  0
   42.1030   27.7560   42.5200 H   0  0  0  0  0  0  0  0  0  0  0  0
   41.3370   27.9100   36.4490 H   0  0  0  0  0  0  0  0  0  0  0  0
   43.0090   28.6660   36.6220 H   0  0  0  0  0  0  0  0  0  0  0  0
   42.4840   26.6060   34.8130 H   0  0  0  0  0  0  0  0  0  0  0  0
   44.1170   26.9330   35.5800 H   0  0  0  0  0  0  0  0  0  0  0  0
   43.7090   24.6920   36.2790 H   0  0  0  0  0  0  0  0  0  0  0  0
   41.9780   25.0100   36.3230 H   0  0  0  0  0  0  0  0  0  0  0  0
   42.3500   25.2120   38.5200 H   0  0  0  0  0  0  0  0  0  0  0  0
   44.1140   25.7500   38.2960 H   0  0  0  0  0  0  0  0  0  0  0  0
   42.7860   26.1010   40.6530 N   0  0  0  0  0  0  0  0  0  0  0  0
   43.7320   25.6590   40.6640 H   0  0  0  0  0  0  0  0  0  0  0  0
   41.8720   25.5940   40.8410 H   0  0  0  0  0  0  0  0  0  0  0  0
   36.5910   30.5600   39.3470 C   0  0  0  0  0  0  0  0  0  0  0  0
   35.8080   30.1000   40.4090 C   0  0  0  0  0  0  0  0  0  0  0  0
   35.9980   30.4180   41.4400 H   0  0  0  0  0  0  0  0  0  0  0  0
   34.7680   29.2250   40.1670 C   0  0  0  0  0  3  0  0  0  0  0  0
   34.4550   28.7730   38.9150 C   0  0  0  0  0  3  0  0  0  0  0  0
   35.2330   29.2320   37.8790 C   0  0  0  0  0  0  0  0  0  0  0  0
   34.9660   28.8120   36.5950 C   0  0  0  0  0  3  0  0  0  0  0  0
   35.7190   29.2460   35.5270 C   0  0  0  0  0  3  0  0  0  0  0  0
   36.7660   30.1180   35.7140 C   0  0  0  0  0  3  0  0  0  0  0  0
   37.0340   30.5410   37.0120 C   0  0  0  0  0  3  0  0  0  0  0  0
   36.2840   30.1080   38.0710 C   0  0  0  0  0  0  0  0  0  0  0  0
   39.1570   29.6900   39.7040 N   0  0  0  0  0  0  0  0  0  0  0  0
   39.3780   29.0200   38.9560 H   0  0  0  0  0  0  0  0  0  0  0  0
   38.9570   29.3580   40.6870 H   0  0  0  0  0  0  0  0  0  0  0  0
  1  2  1  0  0  0  0
  2  3  2  0  0  0  0
  3 11  1  0  0  0  0
  4  3  1  0  0  0  0
  5  4  2  0  0  0  0
  6 12  1  0  0  0  0
  6  5  1  0  0  0  0
  7  6  2  0  0  0  0
  8  7  1  0  0  0  0
  8  9  2  0  0  0  0
  9 10  1  0  0  0  0
 10  5  1  0  0  0  0
 10  1  2  0  0  0  0
 13  7  1  0  0  0  0
 14 25  1  0  0  0  0
 15 34  1  0  0  0  0
 15 14  2  0  0  0  0
 16 15  1  0  0  0  0
 17 16  2  0  0  0  0
 17 18  1  0  0  0  0
 18  1  1  0  0  0  0
 18 19  2  0  0  0  0
 19 14  1  0  0  0  0
 20 16  1  0  0  0  0
 21 20  1  0  0  0  0
 22 23  1  0  0  0  0
 22 21  1  0  0  0  0
 23 24  1  0  0  0  0
 24 20  1  0  0  0  0
 24 33  1  0  0  0  0
 24 32  1  0  0  0  0
 26 21  1  0  0  0  0
 27 21  1  0  0  0  0
 28 22  1  0  0  0  0
 29 22  1  0  0  0  0
 30 23  1  0  0  0  0
 31 23  1  0  0  0  0
 34 35  1  0  0  0  0
 34 36  1  0  0  0  0
 37  8  1  0  0  0  0
 37 38  1  0  0  0  0
 38 39  1  0  0  0  0
 40 38  2  0  0  0  0
 41 40  1  0  0  0  0
 42 47  1  0  0  0  0
 42 41  2  0  0  0  0
 43 42  1  0  0  0  0
 44 45  1  0  0  0  0
 44 43  2  0  0  0  0
 45 46  2  0  0  0  0
 46 47  1  0  0  0  0
 47 37  2  0  0  0  0
 48  9  1  0  0  0  0
 48 50  1  0  0  0  0
 49 48  1  0  0  0  0
M  END
>  <minimizedAffinity>
-6.77792931

$$$$
