REMARK  Name = 
REMARK  3 active torsions:
REMARK  status: ('A' for Active; 'I' for Inactive)
REMARK    1  A    between atoms: C_2  and  C_7
REMARK    2  A    between atoms: C_7  and  C_8
REMARK    3  A    between atoms: C_8  and  C_16
REMARK                            x       y       z     vdW  Elec       q    Type
REMARK                         _______ _______ _______ _____ _____    ______ ____
ROOT
ATOM      1  C   UNL     1      48.060  35.184  41.919  0.00  0.00    +0.000 C 
ATOM      2  H   UNL     1      48.527  34.186  42.114  0.00  0.00    +0.000 HD
ATOM      3  H   UNL     1      48.440  35.888  42.661  0.00  0.00    +0.000 HD
ENDROOT
BRANCH   1   4
ATOM      4  C   UNL     1      48.427  35.622  40.524  0.00  0.00    +0.000 A 
ATOM      5  C   UNL     1      49.585  36.353  40.274  0.00  0.00    +0.000 A 
ATOM      6  H   UNL     1      50.206  36.615  41.105  0.00  0.00    +0.000 HD
ATOM      7  C   UNL     1      49.915  36.726  38.991  0.00  0.00    +0.000 A 
ATOM      8  C   UNL     1      49.119  36.391  37.919  0.00  0.00    +0.000 A 
ATOM      9  C   UNL     1      47.979  35.669  38.177  0.00  0.00    +0.000 A 
ATOM     10  C   UNL     1      47.184  35.344  37.086  0.00  0.00    +0.000 A 
ATOM     11  C   UNL     1      46.012  34.621  37.277  0.00  0.00    +0.000 A 
ATOM     12  C   UNL     1      45.645  34.229  38.551  0.00  0.00    +0.000 A 
ATOM     13  C   UNL     1      46.472  34.576  39.616  0.00  0.00    +0.000 A 
ATOM     14  C   UNL     1      47.632  35.288  39.458  0.00  0.00    +0.000 A 
ENDBRANCH   1   4
BRANCH   1  15
ATOM     15  C   UNL     1      46.551  34.992  42.018  0.00  0.00    +0.000 C 
ATOM     16  H   UNL     1      45.980  35.864  41.728  0.00  0.00    +0.000 HD
ATOM     17  H   UNL     1      46.340  34.102  41.344  0.00  0.00    +0.000 HD
BRANCH  15  19
ATOM     18  C   UNL     1      45.190  35.210  44.057  0.00  0.00    +0.000 A 
ATOM     19  C   UNL     1      46.230  34.579  43.374  0.00  0.00    +0.000 A 
ATOM     20  C   UNL     1      46.900  33.570  44.066  0.00  0.00    +0.000 A 
ATOM     21  N   UNL     1      46.511  33.271  45.327  0.00  0.00    +0.000 NA
ATOM     22  C   UNL     1      45.507  33.903  45.944  0.00  0.00    +0.000 A 
ATOM     23  N   UNL     1      44.846  34.877  45.301  0.00  0.00    +0.000 NA
ATOM     24  H   UNL     1      44.653  36.007  43.525  0.00  0.00    +0.000 HD
ATOM     25  H   UNL     1      47.715  33.047  43.585  0.00  0.00    +0.000 HD
ATOM     26  H   UNL     1      45.236  33.624  46.953  0.00  0.00    +0.000 HD
ENDBRANCH  15  19
ENDBRANCH   1  15
TORSDOF 3
