
 OpenBabel03252506383D

 46 50  0  0  1  0  0  0  0  0999 V2000
   44.4850   35.7160   45.0230 C   0  0  0  0  0  0  0  0  0  0  0  0
   45.1250   35.6850   43.7760 C   0  0  0  0  0  0  0  0  0  0  0  0
   46.0150   34.7010   43.5130 C   0  0  0  0  0  0  0  0  0  0  0  0
   46.2360   33.7880   44.4930 N   0  0  0  0  0  0  0  0  0  0  0  0
   45.6290   33.8210   45.6700 C   0  0  0  0  0  0  0  0  0  0  0  0
   44.7480   34.7790   45.9560 N   0  0  0  0  0  0  0  0  0  0  0  0
   45.9430   32.8040   46.6370 N   0  0  0  0  0  0  0  0  0  0  0  0
   45.2090   32.5790   47.8320 C   0  0  0  0  0  0  0  0  0  0  0  0
   46.2890   32.2080   48.8330 C   0  0  0  0  0  0  0  0  0  0  0  0
   47.5570   32.0680   48.0490 C   0  0  0  0  0  0  0  0  0  0  0  0
   47.0380   31.8630   46.6270 C   0  0  1  0  0  0  0  0  0  0  0  0
   43.7600   36.4780   45.2980 H   0  0  0  0  0  0  0  0  0  0  0  0
   46.5080   34.6620   42.5730 H   0  0  0  0  0  0  0  0  0  0  0  0
   44.8850   33.6100   48.1910 H   0  0  0  0  0  0  0  0  0  0  0  0
   44.3590   31.9810   47.9200 H   0  0  0  0  0  0  0  0  0  0  0  0
   46.3410   32.8450   49.7120 H   0  0  0  0  0  0  0  0  0  0  0  0
   46.0250   31.1840   49.2120 H   0  0  0  0  0  0  0  0  0  0  0  0
   48.1770   31.2090   48.3770 H   0  0  0  0  0  0  0  0  0  0  0  0
   48.1100   33.0300   48.0730 H   0  0  0  0  0  0  0  0  0  0  0  0
   47.8430   32.1270   45.9180 H   0  0  0  0  0  0  0  0  0  0  0  0
   44.7790   36.7270   42.8480 N   0  0  0  0  0  0  0  0  0  0  0  0
   43.9620   36.3340   42.3340 H   0  0  0  0  0  0  0  0  0  0  0  0
   45.2940   37.6370   42.7810 H   0  0  0  0  0  0  0  0  0  0  0  0
   46.4790   30.1850   46.4540 S   0  0  0  0  0  0  0  0  0  0  0  0
   46.2040   30.6320   43.1590 O   0  0  0  0  0  0  0  0  0  0  0  0
   45.3770   30.1100   43.9230 C   0  0  0  0  0  0  0  0  0  0  0  0
   45.1410   29.9020   45.3720 C   0  0  1  0  0  0  0  0  0  0  0  0
   44.5680   28.5060   45.3970 C   0  0  0  0  0  0  0  0  0  0  0  0
   43.4610   28.7180   44.3580 C   0  0  0  0  0  0  0  0  0  0  0  0
   44.2240   29.4570   43.3590 N   0  0  0  0  0  0  0  0  0  0  0  0
   44.2080   30.5190   45.5020 H   0  0  0  0  0  0  0  0  0  0  0  0
   44.0950   28.2930   46.3710 H   0  0  0  0  0  0  0  0  0  0  0  0
   45.2620   27.7390   45.0520 H   0  0  0  0  0  0  0  0  0  0  0  0
   42.6190   29.2770   44.7770 H   0  0  0  0  0  0  0  0  0  0  0  0
   43.1810   27.7090   43.9860 H   0  0  0  0  0  0  0  0  0  0  0  0
   43.7340   29.4290   42.0040 C   0  0  0  0  0  0  0  0  0  0  0  0
   44.0070   28.2310   41.3500 C   0  0  0  0  0  0  0  0  0  0  0  0
   44.5300   27.3930   41.7850 H   0  0  0  0  0  0  0  0  0  0  0  0
   43.6100   28.0150   40.0310 C   0  0  0  0  0  3  0  0  0  0  0  0
   42.9320   29.0530   39.4050 C   0  0  0  0  0  3  0  0  0  0  0  0
   42.6640   30.2320   40.0540 C   0  0  0  0  0  0  0  0  0  0  0  0
   41.9900   31.2850   39.4580 C   0  0  0  0  0  3  0  0  0  0  0  0
   41.7480   32.4380   40.1430 C   0  0  0  0  0  3  0  0  0  0  0  0
   42.1580   32.6240   41.4660 C   0  0  0  0  0  3  0  0  0  0  0  0
   42.8400   31.5820   42.0920 C   0  0  0  0  0  3  0  0  0  0  0  0
   43.0630   30.4450   41.3750 C   0  0  0  0  0  0  0  0  0  0  0  0
  1 12  1  0  0  0  0
  1  6  1  0  0  0  0
  2  1  2  0  0  0  0
  3  2  1  0  0  0  0
  3  4  2  0  0  0  0
  4  5  1  0  0  0  0
  5  6  2  0  0  0  0
  5  7  1  0  0  0  0
  7  8  1  0  0  0  0
  8 15  1  0  0  0  0
  8 14  1  0  0  0  0
  8  9  1  0  0  0  0
  9 17  1  0  0  0  0
  9 16  1  0  0  0  0
 10 19  1  0  0  0  0
 10 18  1  0  0  0  0
 10  9  1  0  0  0  0
 11 20  1  6  0  0  0
 11  7  1  0  0  0  0
 11 10  1  0  0  0  0
 13  3  1  0  0  0  0
 21  2  1  0  0  0  0
 22 21  1  0  0  0  0
 23 21  1  0  0  0  0
 24 11  1  0  0  0  0
 25 26  2  0  0  0  0
 26 27  1  0  0  0  0
 27 28  1  0  0  0  0
 27 31  1  1  0  0  0
 27 24  1  0  0  0  0
 28 32  1  0  0  0  0
 29 34  1  0  0  0  0
 29 28  1  0  0  0  0
 30 26  1  0  0  0  0
 30 29  1  0  0  0  0
 33 28  1  0  0  0  0
 35 29  1  0  0  0  0
 36 30  1  0  0  0  0
 37 38  1  0  0  0  0
 37 36  2  0  0  0  0
 39 37  1  0  0  0  0
 40 39  2  0  0  0  0
 40 41  1  0  0  0  0
 41 46  1  0  0  0  0
 42 41  2  0  0  0  0
 42 43  1  0  0  0  0
 43 44  2  0  0  0  0
 44 45  1  0  0  0  0
 46 36  1  0  0  0  0
 46 45  2  0  0  0  0
M  END
>  <minimizedAffinity>
-5.58450699

>  <minimizedRMSD>
0.885398507

$$$$
