REMARK  Name = 
REMARK  4 active torsions:
REMARK  status: ('A' for Active; 'I' for Inactive)
REMARK    1  A    between atoms: C_2  and  C_7
REMARK    2  A    between atoms: C_5  and  O_11
REMARK    3  A    between atoms: O_11  and  C_19
REMARK    4  A    between atoms: S_15  and  C_18
REMARK                            x       y       z     vdW  Elec       q    Type
REMARK                         _______ _______ _______ _____ _____    ______ ____
ROOT
ATOM      1  O   UNL     1      45.621  32.795  47.574  0.00  0.00    +0.000 OA
ENDROOT
BRANCH   1   6
ATOM      2  C   UNL     1      44.921  35.119  44.942  0.00  0.00    +0.000 A 
ATOM      3  C   UNL     1      45.810  34.759  43.945  0.00  0.00    +0.000 A 
ATOM      4  C   UNL     1      46.670  33.680  44.207  0.00  0.00    +0.000 A 
ATOM      5  N   UNL     1      46.591  33.054  45.395  0.00  0.00    +0.000 NA
ATOM      6  C   UNL     1      45.716  33.428  46.340  0.00  0.00    +0.000 A 
ATOM      7  N   UNL     1      44.880  34.451  46.132  0.00  0.00    +0.000 NA
ATOM      8  H   UNL     1      44.232  35.948  44.792  0.00  0.00    +0.000 HD
ATOM      9  H   UNL     1      47.356  33.413  43.422  0.00  0.00    +0.000 HD
BRANCH   3  10
ATOM     10  C   UNL     1      45.785  35.544  42.687  0.00  0.00    +0.000 C 
ATOM     11  F   UNL     1      45.340  36.802  43.036  0.00  0.00    +0.000 F 
ATOM     12  F   UNL     1      44.928  34.933  41.812  0.00  0.00    +0.000 F 
ATOM     13  F   UNL     1      47.084  35.571  42.179  0.00  0.00    +0.000 F 
ENDBRANCH   3  10
ENDBRANCH   1   6
BRANCH   1  15
ATOM     14  C   UNL     1      46.085  30.410  47.997  0.00  0.00    +0.000 A 
ATOM     15  C   UNL     1      46.416  31.740  47.938  0.00  0.00    +0.000 A 
ATOM     16  C   UNL     1      47.730  32.047  48.296  0.00  0.00    +0.000 A 
ATOM     17  H   UNL     1      48.125  33.048  48.295  0.00  0.00    +0.000 HD
ATOM     18  C   UNL     1      48.624  31.077  48.680  0.00  0.00    +0.000 A 
ATOM     19  H   UNL     1      49.644  31.305  48.959  0.00  0.00    +0.000 HD
ATOM     20  C   UNL     1      48.277  29.738  48.736  0.00  0.00    +0.000 A 
ATOM     21  C   UNL     1      46.971  29.426  48.381  0.00  0.00    +0.000 A 
BRANCH  14  23
ATOM     22  H   UNL     1      43.615  29.823  48.596  0.00  0.00    +0.000 HD
ATOM     23  S   UNL     1      44.461  29.969  47.550  0.00  0.00    +0.000 S 
ATOM     24  O   UNL     1      43.916  30.997  46.568  0.00  0.00    +0.000 OA
ATOM     25  O   UNL     1      44.492  28.627  46.826  0.00  0.00    +0.000 OA
ENDBRANCH  14  23
ENDBRANCH   1  15
TORSDOF 4
