
 OpenBabel03252507323D

 52 55  0  0  1  0  0  0  0  0999 V2000
   47.0240   32.5550   45.4740 C   0  0  0  0  0  0  0  0  0  0  0  0
   45.9900   33.2610   46.0740 C   0  0  0  0  0  0  0  0  0  0  0  0
   45.3380   34.2910   45.3570 C   0  0  0  0  0  0  0  0  0  0  0  0
   45.7960   34.5320   44.0650 N   0  0  0  0  0  0  0  0  0  0  0  0
   46.8010   33.8160   43.5460 C   0  0  0  0  0  0  0  0  0  0  0  0
   47.4030   32.8460   44.2350 N   0  0  0  0  0  0  0  0  0  0  0  0
   45.5130   33.2720   47.0320 H   0  0  0  0  0  0  0  0  0  0  0  0
   44.5430   34.9240   45.6450 H   0  0  0  0  0  0  0  0  0  0  0  0
   47.6430   31.4950   46.2430 C   0  0  2  0  0  0  0  0  0  0  0  0
   47.3080   30.0910   45.6530 C   0  0  0  0  0  0  0  0  0  0  0  0
   48.0980   29.0530   46.3740 C   0  0  0  0  0  0  0  0  0  0  0  0
   48.1360   29.1770   47.8610 C   0  0  0  0  0  0  0  0  0  0  0  0
   48.2160   30.5330   48.3430 C   0  0  0  0  0  0  0  0  0  0  0  0
   47.2470   31.5060   47.6360 C   0  0  2  0  0  0  0  0  0  0  0  0
   48.7430   31.5500   46.1120 H   0  0  0  0  0  0  0  0  0  0  0  0
   46.2250   29.9370   45.6280 H   0  0  0  0  0  0  0  0  0  0  0  0
   47.6400   30.1660   44.5970 H   0  0  0  0  0  0  0  0  0  0  0  0
   49.0750   28.9920   45.8570 H   0  0  0  0  0  0  0  0  0  0  0  0
   47.6020   28.0640   46.1470 H   0  0  0  0  0  0  0  0  0  0  0  0
   49.2390   28.8520   48.0390 H   0  0  0  0  0  0  0  0  0  0  0  0
   47.7390   28.3540   48.4560 H   0  0  0  0  0  0  0  0  0  0  0  0
   49.2010   31.0600   48.3220 H   0  0  0  0  0  0  0  0  0  0  0  0
   47.8970   30.5760   49.4250 H   0  0  0  0  0  0  0  0  0  0  0  0
   47.4330   32.4260   48.1930 H   0  0  0  0  0  0  0  0  0  0  0  0
   45.8860   30.9850   47.7750 N   0  0  0  0  0  0  0  0  0  0  0  0
   45.1590   30.5560   48.8990 C   0  0  0  0  0  0  0  0  0  0  0  0
   44.6280   31.3700   49.7390 O   0  0  0  0  0  0  0  0  0  0  0  0
   45.0470   29.1410   49.0340 N   0  0  0  0  0  0  0  0  0  0  0  0
   45.2510   30.7970   46.9090 H   0  0  0  0  0  0  0  0  0  0  0  0
   44.5930   28.5150   48.3360 H   0  0  0  0  0  0  0  0  0  0  0  0
   45.2900   28.3480   49.6810 H   0  0  0  0  0  0  0  0  0  0  0  0
   47.2500   34.1350   42.1880 C   0  0  0  0  0  0  0  0  0  0  0  0
   48.2170   35.0800   41.9610 C   0  0  0  0  0  0  0  0  0  0  0  0
   48.6690   35.4110   40.7010 C   0  0  0  0  0  0  0  0  0  0  0  0
   48.0800   34.7220   39.6460 C   0  0  0  0  0  0  0  0  0  0  0  0
   47.1100   33.7720   39.8610 C   0  0  0  0  0  0  0  0  0  0  0  0
   46.7180   33.5010   41.1350 N   0  0  0  0  0  0  0  0  0  0  0  0
   48.6330   35.5780   42.8150 H   0  0  0  0  0  0  0  0  0  0  0  0
   49.4310   36.1620   40.5810 H   0  0  0  0  0  0  0  0  0  0  0  0
   48.4490   34.9980   38.6760 H   0  0  0  0  0  0  0  0  0  0  0  0
   45.1170   32.9980   38.6410 C   0  0  0  0  0  0  0  0  0  0  0  0
   46.4980   33.0550   38.7640 C   0  0  0  0  0  0  0  0  0  0  0  0
   47.2400   32.4050   37.8030 C   0  0  0  0  0  0  0  0  0  0  0  0
   48.3210   32.3960   37.8200 H   0  0  0  0  0  0  0  0  0  0  0  0
   46.7040   31.7080   36.7400 C   0  0  0  0  0  0  0  0  0  0  0  0
   47.3140   31.2040   35.9950 H   0  0  0  0  0  0  0  0  0  0  0  0
   45.3490   31.6390   36.6000 C   0  0  0  0  0  3  0  0  0  0  0  0
   44.5930   32.2850   37.5530 C   0  0  0  0  0  3  0  0  0  0  0  0
   44.6460   34.7980   40.4540 H   0  0  0  0  0  0  0  0  0  0  0  0
   44.0340   33.7700   39.7750 S   0  0  0  0  0  0  0  0  0  0  0  0
   42.9330   34.4460   38.9650 O   0  0  0  0  0  0  0  0  0  0  0  0
   43.3730   32.7880   40.7040 O   0  0  0  0  0  0  0  0  0  0  0  0
  1  2  1  0  0  0  0
  1  9  1  0  0  0  0
  2  7  1  0  0  0  0
  3  8  1  0  0  0  0
  3  2  2  0  0  0  0
  4  3  1  0  0  0  0
  5  4  2  0  0  0  0
  5  6  1  0  0  0  0
  6  1  2  0  0  0  0
  9 15  1  6  0  0  0
  9 14  1  0  0  0  0
 10  9  1  0  0  0  0
 10 11  1  0  0  0  0
 11 12  1  0  0  0  0
 12 20  1  0  0  0  0
 12 13  1  0  0  0  0
 12 21  1  0  0  0  0
 13 23  1  0  0  0  0
 14 25  1  0  0  0  0
 14 24  1  1  0  0  0
 14 13  1  0  0  0  0
 16 10  1  0  0  0  0
 17 10  1  0  0  0  0
 18 11  1  0  0  0  0
 19 11  1  0  0  0  0
 22 13  1  0  0  0  0
 25 26  1  0  0  0  0
 26 28  1  0  0  0  0
 26 27  2  0  0  0  0
 28 31  1  0  0  0  0
 29 25  1  0  0  0  0
 30 28  1  0  0  0  0
 32  5  1  0  0  0  0
 33 32  1  0  0  0  0
 33 38  1  0  0  0  0
 34 33  2  0  0  0  0
 35 36  2  0  0  0  0
 35 34  1  0  0  0  0
 36 37  1  0  0  0  0
 37 32  2  0  0  0  0
 39 34  1  0  0  0  0
 40 35  1  0  0  0  0
 41 42  1  0  0  0  0
 41 50  1  0  0  0  0
 42 36  1  0  0  0  0
 43 44  1  0  0  0  0
 43 42  2  0  0  0  0
 45 43  1  0  0  0  0
 46 45  1  0  0  0  0
 47 45  2  0  0  0  0
 47 48  1  0  0  0  0
 48 41  2  0  0  0  0
 50 49  1  0  0  0  0
 50 52  2  0  0  0  0
 51 50  2  0  0  0  0
M  END
>  <minimizedAffinity>
-6.37359762

>  <minimizedRMSD>
0.891202211

$$$$
