
 OpenBabel03252505133D

 47 50  0  0  1  0  0  0  0  0999 V2000
   40.1550   35.0990   39.8660 C   0  0  0  0  0  0  0  0  0  0  0  0
   39.1590   34.1860   40.2770 C   0  0  0  0  0  0  0  0  0  0  0  0
   39.4610   32.7880   40.1860 C   0  0  0  0  0  0  0  0  0  0  0  0
   40.6670   32.4150   39.7170 N   0  0  0  0  0  0  0  0  0  0  0  0
   41.5890   33.3150   39.3360 C   0  0  0  0  0  0  0  0  0  0  0  0
   41.3400   34.6630   39.4070 N   0  0  0  0  0  0  0  0  0  0  0  0
   39.9410   36.1630   39.9300 H   0  0  0  0  0  0  0  0  0  0  0  0
   38.2040   34.4890   40.6470 H   0  0  0  0  0  0  0  0  0  0  0  0
   42.8990   32.8540   38.8250 C   0  0  2  0  0  0  0  0  0  0  0  0
   43.7090   32.5220   40.0600 C   0  0  0  0  0  0  0  0  0  0  0  0
   44.7590   33.4990   40.4250 C   0  0  0  0  0  0  0  0  0  0  0  0
   45.6420   33.6000   39.1870 C   0  0  0  0  0  0  0  0  0  0  0  0
   44.9330   34.2220   38.0570 C   0  0  0  0  0  0  0  0  0  0  0  0
   43.5140   33.7920   37.9280 C   0  0  0  0  0  0  0  0  0  0  0  0
   42.6840   31.8940   38.2900 H   0  0  0  0  0  0  0  0  0  0  0  0
   43.0800   32.3520   40.9600 H   0  0  0  0  0  0  0  0  0  0  0  0
   44.2180   31.5500   39.8930 H   0  0  0  0  0  0  0  0  0  0  0  0
   44.4350   34.4820   40.7650 H   0  0  0  0  0  0  0  0  0  0  0  0
   45.3930   33.0260   41.1950 H   0  0  0  0  0  0  0  0  0  0  0  0
   46.1290   32.6490   38.9730 H   0  0  0  0  0  0  0  0  0  0  0  0
   46.4260   34.3330   39.4690 H   0  0  0  0  0  0  0  0  0  0  0  0
   45.2300   34.9200   37.3110 H   0  0  0  0  0  0  0  0  0  0  0  0
   42.7100   34.3200   36.8830 N   0  0  0  0  0  0  0  0  0  0  0  0
   42.4020   35.3240   36.8700 H   0  0  0  0  0  0  0  0  0  0  0  0
   42.3980   33.7240   36.0900 H   0  0  0  0  0  0  0  0  0  0  0  0
   38.4510   31.8300   40.6080 C   0  0  0  0  0  0  0  0  0  0  0  0
   37.1870   31.9900   40.1310 C   0  0  0  0  0  0  0  0  0  0  0  0
   36.2470   31.0410   40.5680 C   0  0  0  0  0  0  0  0  0  0  0  0
   36.7100   30.0540   41.4290 C   0  0  0  0  0  0  0  0  0  0  0  0
   37.9800   29.8900   41.9100 C   0  0  0  0  0  0  0  0  0  0  0  0
   38.8540   30.8460   41.4500 N   0  0  0  0  0  0  0  0  0  0  0  0
   36.9560   32.8060   39.4620 H   0  0  0  0  0  0  0  0  0  0  0  0
   35.2480   31.1720   40.1880 H   0  0  0  0  0  0  0  0  0  0  0  0
   35.8680   29.4210   41.6590 H   0  0  0  0  0  0  0  0  0  0  0  0
   38.3470   28.9050   42.7460 O   0  0  0  0  0  0  0  0  0  0  0  0
   38.8280   26.8220   42.9940 C   0  0  0  0  0  0  0  0  0  0  0  0
   39.3690   28.1270   43.0120 C   0  0  0  0  0  0  0  0  0  0  0  0
   40.7070   28.1760   43.2830 C   0  0  0  0  0  0  0  0  0  0  0  0
   41.0910   29.1640   43.2910 H   0  0  0  0  0  0  0  0  0  0  0  0
   41.5450   27.1180   43.5310 C   0  0  0  0  0  0  0  0  0  0  0  0
   42.5760   27.3320   43.7280 H   0  0  0  0  0  0  0  0  0  0  0  0
   40.9520   25.8800   43.4980 C   0  0  0  0  0  3  0  0  0  0  0  0
   39.5970   25.6870   43.2330 C   0  0  0  0  0  3  0  0  0  0  0  0
   37.0430   24.9550   42.9480 H   0  0  0  0  0  0  0  0  0  0  0  0
   37.1650   26.2980   42.6900 S   0  0  0  0  0  0  0  0  0  0  0  0
   36.2390   27.1100   43.5180 O   0  0  0  0  0  0  0  0  0  0  0  0
   36.8480   26.4970   41.2470 O   0  0  0  0  0  0  0  0  0  0  0  0
  1  7  1  0  0  0  0
  1  2  1  0  0  0  0
  2  8  1  0  0  0  0
  3  2  2  0  0  0  0
  3 26  1  0  0  0  0
  4  3  1  0  0  0  0
  5  6  1  0  0  0  0
  5  4  2  0  0  0  0
  6  1  2  0  0  0  0
  9 15  1  6  0  0  0
  9  5  1  0  0  0  0
  9 10  1  0  0  0  0
 10 11  1  0  0  0  0
 10 16  1  0  0  0  0
 11 18  1  0  0  0  0
 11 19  1  0  0  0  0
 12 21  1  0  0  0  0
 12 11  1  0  0  0  0
 13 12  1  0  0  0  0
 14 13  2  0  0  0  0
 14  9  1  0  0  0  0
 17 10  1  0  0  0  0
 20 12  1  0  0  0  0
 22 13  1  0  0  0  0
 23 14  1  0  0  0  0
 24 23  1  0  0  0  0
 25 23  1  0  0  0  0
 26 31  1  0  0  0  0
 27 28  1  0  0  0  0
 27 26  2  0  0  0  0
 28 29  2  0  0  0  0
 29 34  1  0  0  0  0
 29 30  1  0  0  0  0
 30 35  1  0  0  0  0
 31 30  2  0  0  0  0
 32 27  1  0  0  0  0
 33 28  1  0  0  0  0
 35 37  1  0  0  0  0
 36 37  2  0  0  0  0
 36 43  1  0  0  0  0
 37 38  1  0  0  0  0
 38 39  1  0  0  0  0
 38 40  2  0  0  0  0
 40 41  1  0  0  0  0
 42 40  1  0  0  0  0
 43 42  2  0  0  0  0
 45 44  1  0  0  0  0
 45 36  1  0  0  0  0
 45 46  2  0  0  0  0
 47 45  2  0  0  0  0
M  END
>  <minimizedAffinity>
-7.01564026

$$$$

 OpenBabel03252505133D

 47 50  0  0  1  0  0  0  0  0999 V2000
   40.1200   34.9700   39.9760 C   0  0  0  0  0  0  0  0  0  0  0  0
   39.1280   34.0430   40.3640 C   0  0  0  0  0  0  0  0  0  0  0  0
   39.4250   32.6500   40.2130 C   0  0  0  0  0  0  0  0  0  0  0  0
   40.6230   32.2930   39.7110 N   0  0  0  0  0  0  0  0  0  0  0  0
   41.5420   33.2070   39.3520 C   0  0  0  0  0  0  0  0  0  0  0  0
   41.2970   34.5510   39.4810 N   0  0  0  0  0  0  0  0  0  0  0  0
   39.9080   36.0310   40.0850 H   0  0  0  0  0  0  0  0  0  0  0  0
   38.1790   34.3330   40.7610 H   0  0  0  0  0  0  0  0  0  0  0  0
   42.8430   32.7640   38.8040 C   0  0  2  0  0  0  0  0  0  0  0  0
   43.6720   32.3870   40.0130 C   0  0  0  0  0  0  0  0  0  0  0  0
   44.7280   33.3490   40.3970 C   0  0  0  0  0  0  0  0  0  0  0  0
   45.5910   33.4960   39.1490 C   0  0  0  0  0  0  0  0  0  0  0  0
   44.8650   34.1590   38.0540 C   0  0  0  0  0  0  0  0  0  0  0  0
   43.4440   33.7350   37.9320 C   0  0  0  0  0  0  0  0  0  0  0  0
   42.6170   31.8250   38.2370 H   0  0  0  0  0  0  0  0  0  0  0  0
   43.0570   32.1840   40.9160 H   0  0  0  0  0  0  0  0  0  0  0  0
   44.1770   31.4210   39.8010 H   0  0  0  0  0  0  0  0  0  0  0  0
   44.4120   34.3180   40.7780 H   0  0  0  0  0  0  0  0  0  0  0  0
   45.3740   32.8470   41.1380 H   0  0  0  0  0  0  0  0  0  0  0  0
   46.0740   32.5530   38.8920 H   0  0  0  0  0  0  0  0  0  0  0  0
   46.3810   34.2180   39.4450 H   0  0  0  0  0  0  0  0  0  0  0  0
   45.1510   34.8850   37.3300 H   0  0  0  0  0  0  0  0  0  0  0  0
   42.6240   34.3020   36.9210 N   0  0  0  0  0  0  0  0  0  0  0  0
   42.3160   35.3060   36.9500 H   0  0  0  0  0  0  0  0  0  0  0  0
   42.2980   33.7360   36.1120 H   0  0  0  0  0  0  0  0  0  0  0  0
   38.4200   31.6770   40.6110 C   0  0  0  0  0  0  0  0  0  0  0  0
   37.1170   31.9680   40.3500 C   0  0  0  0  0  0  0  0  0  0  0  0
   36.1830   30.9990   40.7550 C   0  0  0  0  0  0  0  0  0  0  0  0
   36.6900   29.8620   41.3710 C   0  0  0  0  0  0  0  0  0  0  0  0
   38.0000   29.5660   41.6350 C   0  0  0  0  0  0  0  0  0  0  0  0
   38.8660   30.5480   41.2180 N   0  0  0  0  0  0  0  0  0  0  0  0
   36.8530   32.8950   39.8610 H   0  0  0  0  0  0  0  0  0  0  0  0
   35.1540   31.2340   40.5460 H   0  0  0  0  0  0  0  0  0  0  0  0
   35.8470   29.2350   41.6110 H   0  0  0  0  0  0  0  0  0  0  0  0
   38.4090   28.4380   42.2390 O   0  0  0  0  0  0  0  0  0  0  0  0
   39.3800   26.5980   42.7890 C   0  0  0  0  0  0  0  0  0  0  0  0
   38.2100   27.1420   42.2130 C   0  0  0  0  0  0  0  0  0  0  0  0
   37.2870   26.2110   41.8300 C   0  0  0  0  0  0  0  0  0  0  0  0
   36.4190   26.6420   41.4010 H   0  0  0  0  0  0  0  0  0  0  0  0
   37.3840   24.8470   41.9460 C   0  0  0  0  0  0  0  0  0  0  0  0
   36.5640   24.2550   41.5930 H   0  0  0  0  0  0  0  0  0  0  0  0
   38.5470   24.3870   42.5150 C   0  0  0  0  0  3  0  0  0  0  0  0
   39.5690   25.2280   42.9510 C   0  0  0  0  0  3  0  0  0  0  0  0
   40.4520   28.6170   43.9920 H   0  0  0  0  0  0  0  0  0  0  0  0
   40.8130   27.4240   43.4170 S   0  0  0  0  0  0  0  0  0  0  0  0
   41.5080   26.5310   44.3790 O   0  0  0  0  0  0  0  0  0  0  0  0
   41.7280   27.7430   42.2840 O   0  0  0  0  0  0  0  0  0  0  0  0
  1  7  1  0  0  0  0
  1  2  1  0  0  0  0
  2  8  1  0  0  0  0
  3  2  2  0  0  0  0
  3 26  1  0  0  0  0
  4  3  1  0  0  0  0
  5  6  1  0  0  0  0
  5  4  2  0  0  0  0
  6  1  2  0  0  0  0
  9 15  1  6  0  0  0
  9  5  1  0  0  0  0
  9 10  1  0  0  0  0
 10 11  1  0  0  0  0
 10 16  1  0  0  0  0
 11 18  1  0  0  0  0
 11 19  1  0  0  0  0
 12 21  1  0  0  0  0
 12 11  1  0  0  0  0
 13 12  1  0  0  0  0
 14 13  2  0  0  0  0
 14  9  1  0  0  0  0
 17 10  1  0  0  0  0
 20 12  1  0  0  0  0
 22 13  1  0  0  0  0
 23 24  1  0  0  0  0
 23 14  1  0  0  0  0
 25 23  1  0  0  0  0
 26 31  1  0  0  0  0
 27 26  2  0  0  0  0
 27 28  1  0  0  0  0
 28 29  2  0  0  0  0
 29 34  1  0  0  0  0
 29 30  1  0  0  0  0
 30 35  1  0  0  0  0
 31 30  2  0  0  0  0
 32 27  1  0  0  0  0
 33 28  1  0  0  0  0
 36 43  1  0  0  0  0
 36 45  1  0  0  0  0
 37 35  1  0  0  0  0
 37 36  2  0  0  0  0
 38 40  2  0  0  0  0
 38 37  1  0  0  0  0
 39 38  1  0  0  0  0
 40 42  1  0  0  0  0
 41 40  1  0  0  0  0
 42 43  2  0  0  0  0
 45 44  1  0  0  0  0
 45 46  2  0  0  0  0
 47 45  2  0  0  0  0
M  END
>  <minimizedAffinity>
-6.91373062

$$$$

 OpenBabel03252505133D

 47 50  0  0  1  0  0  0  0  0999 V2000
   39.0950   34.8200   40.5780 C   0  0  0  0  0  0  0  0  0  0  0  0
   38.3800   33.6460   40.2500 C   0  0  0  0  0  0  0  0  0  0  0  0
   38.9920   32.7300   39.3350 C   0  0  0  0  0  0  0  0  0  0  0  0
   40.2070   33.0280   38.8340 N   0  0  0  0  0  0  0  0  0  0  0  0
   40.8550   34.1570   39.1710 C   0  0  0  0  0  0  0  0  0  0  0  0
   40.3040   35.0610   40.0440 N   0  0  0  0  0  0  0  0  0  0  0  0
   38.6430   35.5250   41.2720 H   0  0  0  0  0  0  0  0  0  0  0  0
   37.4170   33.4160   40.6510 H   0  0  0  0  0  0  0  0  0  0  0  0
   42.1870   34.4400   38.5910 C   0  0  2  0  0  0  0  0  0  0  0  0
   42.2340   33.6420   37.3060 C   0  0  0  0  0  0  0  0  0  0  0  0
   43.0630   32.4160   37.3370 C   0  0  0  0  0  0  0  0  0  0  0  0
   44.4490   32.8950   37.7500 C   0  0  0  0  0  0  0  0  0  0  0  0
   44.4670   33.3920   39.1360 C   0  0  0  0  0  0  0  0  0  0  0  0
   43.2640   34.1840   39.5070 C   0  0  0  0  0  0  0  0  0  0  0  0
   42.1630   35.5260   38.3190 H   0  0  0  0  0  0  0  0  0  0  0  0
   41.2270   33.3580   36.9320 H   0  0  0  0  0  0  0  0  0  0  0  0
   42.6500   34.2920   36.5070 H   0  0  0  0  0  0  0  0  0  0  0  0
   42.7220   31.5940   37.9650 H   0  0  0  0  0  0  0  0  0  0  0  0
   43.1750   32.0710   36.2950 H   0  0  0  0  0  0  0  0  0  0  0  0
   44.8720   33.5670   37.0030 H   0  0  0  0  0  0  0  0  0  0  0  0
   45.0640   31.9710   37.7710 H   0  0  0  0  0  0  0  0  0  0  0  0
   45.1700   33.2970   39.9300 H   0  0  0  0  0  0  0  0  0  0  0  0
   43.1480   34.7180   40.8180 N   0  0  0  0  0  0  0  0  0  0  0  0
   42.9970   34.1050   41.6580 H   0  0  0  0  0  0  0  0  0  0  0  0
   43.2080   35.7420   40.9890 H   0  0  0  0  0  0  0  0  0  0  0  0
   38.2770   31.5130   38.9870 C   0  0  0  0  0  0  0  0  0  0  0  0
   37.6420   31.4730   37.7840 C   0  0  0  0  0  0  0  0  0  0  0  0
   36.9630   30.2770   37.4940 C   0  0  0  0  0  0  0  0  0  0  0  0
   37.0170   29.2780   38.4580 C   0  0  0  0  0  0  0  0  0  0  0  0
   37.6560   29.3140   39.6670 C   0  0  0  0  0  0  0  0  0  0  0  0
   38.3000   30.5060   39.8970 N   0  0  0  0  0  0  0  0  0  0  0  0
   37.6770   32.3250   37.1210 H   0  0  0  0  0  0  0  0  0  0  0  0
   36.4620   30.2500   36.5410 H   0  0  0  0  0  0  0  0  0  0  0  0
   36.4520   28.4430   38.0750 H   0  0  0  0  0  0  0  0  0  0  0  0
   37.6590   28.3000   40.5480 O   0  0  0  0  0  0  0  0  0  0  0  0
   37.6650   26.6820   41.9660 C   0  0  0  0  0  0  0  0  0  0  0  0
   37.3320   27.0330   40.6380 C   0  0  0  0  0  0  0  0  0  0  0  0
   36.8050   26.0110   39.9020 C   0  0  0  0  0  0  0  0  0  0  0  0
   36.5640   26.2970   38.9110 H   0  0  0  0  0  0  0  0  0  0  0  0
   36.5770   24.7220   40.3130 C   0  0  0  0  0  0  0  0  0  0  0  0
   36.1550   24.0380   39.6040 H   0  0  0  0  0  0  0  0  0  0  0  0
   36.9230   24.4500   41.6140 C   0  0  0  0  0  3  0  0  0  0  0  0
   37.4700   25.4010   42.4740 C   0  0  0  0  0  3  0  0  0  0  0  0
   39.0920   28.7040   42.7050 H   0  0  0  0  0  0  0  0  0  0  0  0
   38.3630   27.6770   43.2520 S   0  0  0  0  0  0  0  0  0  0  0  0
   37.2730   28.1750   44.1290 O   0  0  0  0  0  0  0  0  0  0  0  0
   39.3080   26.8470   44.0530 O   0  0  0  0  0  0  0  0  0  0  0  0
  1  7  1  0  0  0  0
  2  1  1  0  0  0  0
  2  8  1  0  0  0  0
  3  2  2  0  0  0  0
  4  5  2  0  0  0  0
  4  3  1  0  0  0  0
  5  6  1  0  0  0  0
  6  1  2  0  0  0  0
  9 15  1  6  0  0  0
  9  5  1  0  0  0  0
  9 14  1  0  0  0  0
 10 11  1  0  0  0  0
 10  9  1  0  0  0  0
 11 12  1  0  0  0  0
 11 18  1  0  0  0  0
 12 21  1  0  0  0  0
 12 13  1  0  0  0  0
 13 14  2  0  0  0  0
 13 22  1  0  0  0  0
 14 23  1  0  0  0  0
 16 10  1  0  0  0  0
 17 10  1  0  0  0  0
 19 11  1  0  0  0  0
 20 12  1  0  0  0  0
 23 25  1  0  0  0  0
 23 24  1  0  0  0  0
 26  3  1  0  0  0  0
 26 31  1  0  0  0  0
 27 26  2  0  0  0  0
 28 27  1  0  0  0  0
 28 29  2  0  0  0  0
 29 30  1  0  0  0  0
 30 31  2  0  0  0  0
 30 35  1  0  0  0  0
 32 27  1  0  0  0  0
 33 28  1  0  0  0  0
 34 29  1  0  0  0  0
 35 37  1  0  0  0  0
 36 43  1  0  0  0  0
 36 45  1  0  0  0  0
 37 36  2  0  0  0  0
 38 40  2  0  0  0  0
 38 37  1  0  0  0  0
 39 38  1  0  0  0  0
 40 42  1  0  0  0  0
 41 40  1  0  0  0  0
 42 43  2  0  0  0  0
 44 45  1  0  0  0  0
 45 47  2  0  0  0  0
 45 46  2  0  0  0  0
M  END
>  <minimizedAffinity>
-6.91252804

$$$$

 OpenBabel03252505133D

 47 50  0  0  1  0  0  0  0  0999 V2000
   36.3550   29.9470   38.7590 C   0  0  0  0  0  0  0  0  0  0  0  0
   36.9400   31.2310   38.8090 C   0  0  0  0  0  0  0  0  0  0  0  0
   37.9700   31.4540   39.7800 C   0  0  0  0  0  0  0  0  0  0  0  0
   38.3270   30.4400   40.5910 N   0  0  0  0  0  0  0  0  0  0  0  0
   37.7450   29.2300   40.5120 C   0  0  0  0  0  0  0  0  0  0  0  0
   36.7550   28.9750   39.5960 N   0  0  0  0  0  0  0  0  0  0  0  0
   35.5720   29.7620   38.0270 H   0  0  0  0  0  0  0  0  0  0  0  0
   36.6510   32.0320   38.1630 H   0  0  0  0  0  0  0  0  0  0  0  0
   38.1720   28.1490   41.4270 C   0  0  2  0  0  0  0  0  0  0  0  0
   38.2800   26.9150   40.5560 C   0  0  0  0  0  0  0  0  0  0  0  0
   37.1900   25.9250   40.7020 C   0  0  0  0  0  0  0  0  0  0  0  0
   37.1860   25.5670   42.1830 C   0  0  0  0  0  0  0  0  0  0  0  0
   36.7700   26.7030   43.0210 C   0  0  0  0  0  0  0  0  0  0  0  0
   37.3160   28.0120   42.5730 C   0  0  0  0  0  0  0  0  0  0  0  0
   39.2070   28.4300   41.7520 H   0  0  0  0  0  0  0  0  0  0  0  0
   38.3770   27.1530   39.4760 H   0  0  0  0  0  0  0  0  0  0  0  0
   39.2260   26.3920   40.8090 H   0  0  0  0  0  0  0  0  0  0  0  0
   36.1980   26.2160   40.3590 H   0  0  0  0  0  0  0  0  0  0  0  0
   37.5120   25.0060   40.1820 H   0  0  0  0  0  0  0  0  0  0  0  0
   38.1180   25.0830   42.4730 H   0  0  0  0  0  0  0  0  0  0  0  0
   36.3660   24.8240   42.2830 H   0  0  0  0  0  0  0  0  0  0  0  0
   36.1540   26.7780   43.8860 H   0  0  0  0  0  0  0  0  0  0  0  0
   36.9870   29.1950   43.2880 N   0  0  0  0  0  0  0  0  0  0  0  0
   36.0190   29.6010   43.2790 H   0  0  0  0  0  0  0  0  0  0  0  0
   37.7030   29.7010   43.8480 H   0  0  0  0  0  0  0  0  0  0  0  0
   38.5900   32.7680   39.8460 C   0  0  0  0  0  0  0  0  0  0  0  0
   37.7720   33.8500   39.9490 C   0  0  0  0  0  0  0  0  0  0  0  0
   38.4170   35.0980   40.0080 C   0  0  0  0  0  0  0  0  0  0  0  0
   39.8050   35.0860   39.9570 C   0  0  0  0  0  0  0  0  0  0  0  0
   40.6300   33.9990   39.8550 C   0  0  0  0  0  0  0  0  0  0  0  0
   39.9450   32.8100   39.8000 N   0  0  0  0  0  0  0  0  0  0  0  0
   36.6990   33.7230   39.9780 H   0  0  0  0  0  0  0  0  0  0  0  0
   37.7650   35.9510   40.0880 H   0  0  0  0  0  0  0  0  0  0  0  0
   40.1280   36.1130   40.0140 H   0  0  0  0  0  0  0  0  0  0  0  0
   41.9710   34.0740   39.8100 O   0  0  0  0  0  0  0  0  0  0  0  0
   44.1220   34.0230   39.7890 C   0  0  0  0  0  0  0  0  0  0  0  0
   42.9970   34.3730   40.5690 C   0  0  0  0  0  0  0  0  0  0  0  0
   43.3040   34.8850   41.7980 C   0  0  0  0  0  0  0  0  0  0  0  0
   42.4460   35.1400   42.3650 H   0  0  0  0  0  0  0  0  0  0  0  0
   44.5530   35.0830   42.3280 C   0  0  0  0  0  0  0  0  0  0  0  0
   44.6190   35.4960   43.3140 H   0  0  0  0  0  0  0  0  0  0  0  0
   45.6000   34.7210   41.5160 C   0  0  0  0  0  3  0  0  0  0  0  0
   45.4280   34.1870   40.2400 C   0  0  0  0  0  3  0  0  0  0  0  0
   43.3130   33.9950   37.3360 H   0  0  0  0  0  0  0  0  0  0  0  0
   44.1910   33.3350   38.1600 S   0  0  0  0  0  0  0  0  0  0  0  0
   45.5860   33.4090   37.6580 O   0  0  0  0  0  0  0  0  0  0  0  0
   43.7540   31.9110   38.2120 O   0  0  0  0  0  0  0  0  0  0  0  0
  1  2  2  0  0  0  0
  1  6  1  0  0  0  0
  2  3  1  0  0  0  0
  3 26  1  0  0  0  0
  3  4  2  0  0  0  0
  5  4  1  0  0  0  0
  5  9  1  0  0  0  0
  6  5  2  0  0  0  0
  7  1  1  0  0  0  0
  8  2  1  0  0  0  0
  9 15  1  1  0  0  0
  9 14  1  0  0  0  0
 10 11  1  0  0  0  0
 10 17  1  0  0  0  0
 10  9  1  0  0  0  0
 11 12  1  0  0  0  0
 12 21  1  0  0  0  0
 12 20  1  0  0  0  0
 12 13  1  0  0  0  0
 13 22  1  0  0  0  0
 14 13  2  0  0  0  0
 14 23  1  0  0  0  0
 16 10  1  0  0  0  0
 18 11  1  0  0  0  0
 19 11  1  0  0  0  0
 23 25  1  0  0  0  0
 24 23  1  0  0  0  0
 26 27  1  0  0  0  0
 27 32  1  0  0  0  0
 27 28  2  0  0  0  0
 28 33  1  0  0  0  0
 29 28  1  0  0  0  0
 29 34  1  0  0  0  0
 30 29  2  0  0  0  0
 31 26  2  0  0  0  0
 31 30  1  0  0  0  0
 35 30  1  0  0  0  0
 35 37  1  0  0  0  0
 36 43  2  0  0  0  0
 36 37  1  0  0  0  0
 37 38  2  0  0  0  0
 38 40  1  0  0  0  0
 38 39  1  0  0  0  0
 40 41  1  0  0  0  0
 42 40  2  0  0  0  0
 43 42  1  0  0  0  0
 44 45  1  0  0  0  0
 45 47  2  0  0  0  0
 45 36  1  0  0  0  0
 46 45  2  0  0  0  0
M  END
>  <minimizedAffinity>
-6.86721802

$$$$

 OpenBabel03252505133D

 47 50  0  0  1  0  0  0  0  0999 V2000
   36.1880   24.8320   39.0310 C   0  0  0  0  0  0  0  0  0  0  0  0
   36.3500   26.0530   38.3400 C   0  0  0  0  0  0  0  0  0  0  0  0
   36.9350   27.1480   39.0560 C   0  0  0  0  0  0  0  0  0  0  0  0
   37.2960   26.9640   40.3400 N   0  0  0  0  0  0  0  0  0  0  0  0
   37.1250   25.7850   40.9630 C   0  0  0  0  0  0  0  0  0  0  0  0
   36.5690   24.7110   40.3140 N   0  0  0  0  0  0  0  0  0  0  0  0
   35.7460   23.9920   38.5010 H   0  0  0  0  0  0  0  0  0  0  0  0
   36.0600   26.1930   37.3210 H   0  0  0  0  0  0  0  0  0  0  0  0
   37.5360   25.6340   42.3760 C   0  0  2  0  0  0  0  0  0  0  0  0
   37.6440   27.0470   42.9080 C   0  0  0  0  0  0  0  0  0  0  0  0
   39.0180   27.5670   43.0860 C   0  0  0  0  0  0  0  0  0  0  0  0
   39.6940   26.5660   44.0140 C   0  0  0  0  0  0  0  0  0  0  0  0
   39.8740   25.2550   43.3700 C   0  0  0  0  0  0  0  0  0  0  0  0
   38.7180   24.8320   42.5350 C   0  0  0  0  0  0  0  0  0  0  0  0
   36.6670   25.1430   42.8840 H   0  0  0  0  0  0  0  0  0  0  0  0
   37.0810   27.7860   42.2980 H   0  0  0  0  0  0  0  0  0  0  0  0
   37.1540   27.0830   43.9040 H   0  0  0  0  0  0  0  0  0  0  0  0
   39.6100   27.7410   42.1880 H   0  0  0  0  0  0  0  0  0  0  0  0
   38.9420   28.4990   43.6720 H   0  0  0  0  0  0  0  0  0  0  0  0
   39.2140   26.5490   44.9920 H   0  0  0  0  0  0  0  0  0  0  0  0
   40.7230   26.9630   44.1430 H   0  0  0  0  0  0  0  0  0  0  0  0
   40.6670   24.5450   43.3800 H   0  0  0  0  0  0  0  0  0  0  0  0
   38.7600   23.5890   41.8490 N   0  0  0  0  0  0  0  0  0  0  0  0
   39.4030   23.4230   41.0350 H   0  0  0  0  0  0  0  0  0  0  0  0
   38.1510   22.7960   42.1330 H   0  0  0  0  0  0  0  0  0  0  0  0
   37.1160   28.4140   38.3630 C   0  0  0  0  0  0  0  0  0  0  0  0
   36.3710   28.6380   37.2470 C   0  0  0  0  0  0  0  0  0  0  0  0
   36.5830   29.8740   36.6110 C   0  0  0  0  0  0  0  0  0  0  0  0
   37.5210   30.7210   37.1890 C   0  0  0  0  0  0  0  0  0  0  0  0
   38.2710   30.4980   38.3120 C   0  0  0  0  0  0  0  0  0  0  0  0
   38.0220   29.2760   38.8890 N   0  0  0  0  0  0  0  0  0  0  0  0
   35.6720   27.8910   36.8990 H   0  0  0  0  0  0  0  0  0  0  0  0
   35.9910   30.0460   35.7290 H   0  0  0  0  0  0  0  0  0  0  0  0
   37.5550   31.6100   36.5810 H   0  0  0  0  0  0  0  0  0  0  0  0
   39.1620   31.3730   38.8060 O   0  0  0  0  0  0  0  0  0  0  0  0
   40.0650   33.2770   39.2450 C   0  0  0  0  0  0  0  0  0  0  0  0
   40.1610   32.1320   38.4230 C   0  0  0  0  0  0  0  0  0  0  0  0
   41.1990   32.1630   37.5370 C   0  0  0  0  0  0  0  0  0  0  0  0
   41.2520   31.2950   36.9310 H   0  0  0  0  0  0  0  0  0  0  0  0
   42.1240   33.1630   37.3740 C   0  0  0  0  0  0  0  0  0  0  0  0
   42.8800   33.0290   36.6270 H   0  0  0  0  0  0  0  0  0  0  0  0
   41.9710   34.2460   38.2060 C   0  0  0  0  0  3  0  0  0  0  0  0
   40.9550   34.3420   39.1550 C   0  0  0  0  0  3  0  0  0  0  0  0
   38.9620   32.7150   41.5130 H   0  0  0  0  0  0  0  0  0  0  0  0
   38.8900   33.6550   40.5140 S   0  0  0  0  0  0  0  0  0  0  0  0
   39.1460   35.0260   41.0220 O   0  0  0  0  0  0  0  0  0  0  0  0
   37.5150   33.5830   39.9430 O   0  0  0  0  0  0  0  0  0  0  0  0
  1  6  1  0  0  0  0
  2  1  2  0  0  0  0
  2  3  1  0  0  0  0
  3  4  2  0  0  0  0
  4  5  1  0  0  0  0
  5  9  1  0  0  0  0
  6  5  2  0  0  0  0
  7  1  1  0  0  0  0
  8  2  1  0  0  0  0
  9 14  1  0  0  0  0
  9 15  1  1  0  0  0
  9 10  1  0  0  0  0
 10 11  1  0  0  0  0
 10 17  1  0  0  0  0
 11 19  1  0  0  0  0
 11 12  1  0  0  0  0
 12 21  1  0  0  0  0
 12 20  1  0  0  0  0
 13 22  1  0  0  0  0
 13 12  1  0  0  0  0
 14 13  2  0  0  0  0
 16 10  1  0  0  0  0
 18 11  1  0  0  0  0
 23 25  1  0  0  0  0
 23 14  1  0  0  0  0
 24 23  1  0  0  0  0
 26 31  1  0  0  0  0
 26  3  1  0  0  0  0
 27 26  2  0  0  0  0
 28 29  2  0  0  0  0
 28 27  1  0  0  0  0
 29 30  1  0  0  0  0
 30 35  1  0  0  0  0
 30 31  2  0  0  0  0
 32 27  1  0  0  0  0
 33 28  1  0  0  0  0
 34 29  1  0  0  0  0
 36 45  1  0  0  0  0
 37 35  1  0  0  0  0
 37 36  2  0  0  0  0
 38 37  1  0  0  0  0
 39 38  1  0  0  0  0
 40 38  2  0  0  0  0
 40 42  1  0  0  0  0
 41 40  1  0  0  0  0
 42 43  2  0  0  0  0
 43 36  1  0  0  0  0
 45 46  2  0  0  0  0
 45 44  1  0  0  0  0
 47 45  2  0  0  0  0
M  END
>  <minimizedAffinity>
-6.75233221

$$$$

 OpenBabel03252505133D

 47 50  0  0  1  0  0  0  0  0999 V2000
   36.1620   24.7690   39.0280 C   0  0  0  0  0  0  0  0  0  0  0  0
   36.2930   26.0080   38.3630 C   0  0  0  0  0  0  0  0  0  0  0  0
   36.8590   27.1000   39.0990 C   0  0  0  0  0  0  0  0  0  0  0  0
   37.2320   26.8950   40.3770 N   0  0  0  0  0  0  0  0  0  0  0  0
   37.0900   25.7000   40.9750 C   0  0  0  0  0  0  0  0  0  0  0  0
   36.5530   24.6290   40.3060 N   0  0  0  0  0  0  0  0  0  0  0  0
   35.7340   23.9310   38.4820 H   0  0  0  0  0  0  0  0  0  0  0  0
   35.9950   26.1640   37.3490 H   0  0  0  0  0  0  0  0  0  0  0  0
   37.5130   25.5270   42.3820 C   0  0  2  0  0  0  0  0  0  0  0  0
   37.5920   26.9300   42.9450 C   0  0  0  0  0  0  0  0  0  0  0  0
   38.9550   27.4770   43.1260 C   0  0  0  0  0  0  0  0  0  0  0  0
   39.6600   26.4710   44.0280 C   0  0  0  0  0  0  0  0  0  0  0  0
   39.8650   25.1780   43.3550 C   0  0  0  0  0  0  0  0  0  0  0  0
   38.7130   24.7490   42.5160 C   0  0  0  0  0  0  0  0  0  0  0  0
   36.6580   25.0050   42.8840 H   0  0  0  0  0  0  0  0  0  0  0  0
   37.0090   27.6690   42.3550 H   0  0  0  0  0  0  0  0  0  0  0  0
   37.1080   26.9330   43.9440 H   0  0  0  0  0  0  0  0  0  0  0  0
   39.5380   27.6840   42.2300 H   0  0  0  0  0  0  0  0  0  0  0  0
   38.8620   28.3940   43.7330 H   0  0  0  0  0  0  0  0  0  0  0  0
   39.1850   26.4210   45.0090 H   0  0  0  0  0  0  0  0  0  0  0  0
   40.6800   26.8880   44.1600 H   0  0  0  0  0  0  0  0  0  0  0  0
   40.6740   24.4870   43.3450 H   0  0  0  0  0  0  0  0  0  0  0  0
   38.7800   23.5220   41.8030 N   0  0  0  0  0  0  0  0  0  0  0  0
   39.4210   23.3890   40.9820 H   0  0  0  0  0  0  0  0  0  0  0  0
   38.1900   22.7100   42.0730 H   0  0  0  0  0  0  0  0  0  0  0  0
   37.0090   28.3840   38.4340 C   0  0  0  0  0  0  0  0  0  0  0  0
   36.2210   28.6330   37.3530 C   0  0  0  0  0  0  0  0  0  0  0  0
   36.4030   29.8860   36.7420 C   0  0  0  0  0  0  0  0  0  0  0  0
   37.3590   30.7220   37.3060 C   0  0  0  0  0  0  0  0  0  0  0  0
   38.1530   30.4740   38.3920 C   0  0  0  0  0  0  0  0  0  0  0  0
   37.9310   29.2370   38.9460 N   0  0  0  0  0  0  0  0  0  0  0  0
   35.5110   27.8930   37.0130 H   0  0  0  0  0  0  0  0  0  0  0  0
   35.7770   30.0790   35.8880 H   0  0  0  0  0  0  0  0  0  0  0  0
   37.3660   31.6270   36.7200 H   0  0  0  0  0  0  0  0  0  0  0  0
   39.0590   31.3400   38.8750 O   0  0  0  0  0  0  0  0  0  0  0  0
   40.3710   33.0450   38.9250 C   0  0  0  0  0  0  0  0  0  0  0  0
   39.1390   32.5410   39.3970 C   0  0  0  0  0  0  0  0  0  0  0  0
   38.4510   33.4030   40.2020 C   0  0  0  0  0  0  0  0  0  0  0  0
   37.5320   33.0040   40.5450 H   0  0  0  0  0  0  0  0  0  0  0  0
   38.8290   34.6660   40.5830 C   0  0  0  0  0  0  0  0  0  0  0  0
   38.1680   35.2140   41.2240 H   0  0  0  0  0  0  0  0  0  0  0  0
   40.0360   35.0930   40.0860 C   0  0  0  0  0  3  0  0  0  0  0  0
   40.8390   34.3140   39.2540 C   0  0  0  0  0  3  0  0  0  0  0  0
   40.9750   31.2930   37.1260 H   0  0  0  0  0  0  0  0  0  0  0  0
   41.5700   32.2810   37.8710 S   0  0  0  0  0  0  0  0  0  0  0  0
   42.2000   33.3180   37.0160 O   0  0  0  0  0  0  0  0  0  0  0  0
   42.6120   31.6260   38.7120 O   0  0  0  0  0  0  0  0  0  0  0  0
  1  6  1  0  0  0  0
  2  1  2  0  0  0  0
  2  3  1  0  0  0  0
  3  4  2  0  0  0  0
  4  5  1  0  0  0  0
  5  9  1  0  0  0  0
  6  5  2  0  0  0  0
  7  1  1  0  0  0  0
  8  2  1  0  0  0  0
  9 14  1  0  0  0  0
  9 15  1  1  0  0  0
  9 10  1  0  0  0  0
 10 11  1  0  0  0  0
 10 17  1  0  0  0  0
 11 19  1  0  0  0  0
 11 12  1  0  0  0  0
 12 21  1  0  0  0  0
 12 20  1  0  0  0  0
 13 12  1  0  0  0  0
 14 13  2  0  0  0  0
 16 10  1  0  0  0  0
 18 11  1  0  0  0  0
 22 13  1  0  0  0  0
 23 25  1  0  0  0  0
 23 14  1  0  0  0  0
 24 23  1  0  0  0  0
 26 31  1  0  0  0  0
 26  3  1  0  0  0  0
 27 26  2  0  0  0  0
 28 29  2  0  0  0  0
 28 27  1  0  0  0  0
 29 30  1  0  0  0  0
 30 35  1  0  0  0  0
 30 31  2  0  0  0  0
 32 27  1  0  0  0  0
 33 28  1  0  0  0  0
 34 29  1  0  0  0  0
 35 37  1  0  0  0  0
 36 43  2  0  0  0  0
 36 37  1  0  0  0  0
 37 38  2  0  0  0  0
 38 39  1  0  0  0  0
 38 40  1  0  0  0  0
 40 41  1  0  0  0  0
 42 40  2  0  0  0  0
 43 42  1  0  0  0  0
 44 45  1  0  0  0  0
 45 47  2  0  0  0  0
 45 36  1  0  0  0  0
 46 45  2  0  0  0  0
M  END
>  <minimizedAffinity>
-6.72612333

$$$$

 OpenBabel03252505133D

 47 50  0  0  1  0  0  0  0  0999 V2000
   36.4120   29.8260   38.6640 C   0  0  0  0  0  0  0  0  0  0  0  0
   36.9920   31.1100   38.7560 C   0  0  0  0  0  0  0  0  0  0  0  0
   37.9760   31.3230   39.7750 C   0  0  0  0  0  0  0  0  0  0  0  0
   38.2970   30.3000   40.5900 N   0  0  0  0  0  0  0  0  0  0  0  0
   37.7220   29.0910   40.4710 C   0  0  0  0  0  0  0  0  0  0  0  0
   36.7750   28.8450   39.5080 N   0  0  0  0  0  0  0  0  0  0  0  0
   35.6640   29.6490   37.8950 H   0  0  0  0  0  0  0  0  0  0  0  0
   36.7330   31.9170   38.1060 H   0  0  0  0  0  0  0  0  0  0  0  0
   38.1070   28.0000   41.3930 C   0  0  2  0  0  0  0  0  0  0  0  0
   38.1300   26.7510   40.5370 C   0  0  0  0  0  0  0  0  0  0  0  0
   36.9910   25.8240   40.7180 C   0  0  0  0  0  0  0  0  0  0  0  0
   36.9980   25.4860   42.2040 C   0  0  0  0  0  0  0  0  0  0  0  0
   36.6620   26.6540   43.0340 C   0  0  0  0  0  0  0  0  0  0  0  0
   37.2690   27.9250   42.5570 C   0  0  0  0  0  0  0  0  0  0  0  0
   39.1630   28.2280   41.6920 H   0  0  0  0  0  0  0  0  0  0  0  0
   38.2180   26.9690   39.4510 H   0  0  0  0  0  0  0  0  0  0  0  0
   39.0520   26.1800   40.7780 H   0  0  0  0  0  0  0  0  0  0  0  0
   36.0090   26.1640   40.3910 H   0  0  0  0  0  0  0  0  0  0  0  0
   37.2520   24.8820   40.2050 H   0  0  0  0  0  0  0  0  0  0  0  0
   37.9090   24.9560   42.4820 H   0  0  0  0  0  0  0  0  0  0  0  0
   36.1420   24.7900   42.3300 H   0  0  0  0  0  0  0  0  0  0  0  0
   36.0690   26.7730   43.9100 H   0  0  0  0  0  0  0  0  0  0  0  0
   37.0210   29.1330   43.2620 N   0  0  0  0  0  0  0  0  0  0  0  0
   36.0760   29.5920   43.2660 H   0  0  0  0  0  0  0  0  0  0  0  0
   37.7740   29.6060   43.8000 H   0  0  0  0  0  0  0  0  0  0  0  0
   38.5910   32.6370   39.8850 C   0  0  0  0  0  0  0  0  0  0  0  0
   37.7700   33.7220   39.8900 C   0  0  0  0  0  0  0  0  0  0  0  0
   38.4100   34.9690   39.9960 C   0  0  0  0  0  0  0  0  0  0  0  0
   39.7960   34.9540   40.0830 C   0  0  0  0  0  0  0  0  0  0  0  0
   40.6240   33.8650   40.0780 C   0  0  0  0  0  0  0  0  0  0  0  0
   39.9440   32.6750   39.9720 N   0  0  0  0  0  0  0  0  0  0  0  0
   36.6990   33.5960   39.8160 H   0  0  0  0  0  0  0  0  0  0  0  0
   37.7560   35.8240   40.0000 H   0  0  0  0  0  0  0  0  0  0  0  0
   40.1150   35.9810   40.1570 H   0  0  0  0  0  0  0  0  0  0  0  0
   41.9630   33.9370   40.1650 O   0  0  0  0  0  0  0  0  0  0  0  0
   44.1010   34.1400   40.2960 C   0  0  0  0  0  0  0  0  0  0  0  0
   43.0340   33.8600   39.4130 C   0  0  0  0  0  0  0  0  0  0  0  0
   43.4220   33.6110   38.1270 C   0  0  0  0  0  0  0  0  0  0  0  0
   42.6060   33.4050   37.4820 H   0  0  0  0  0  0  0  0  0  0  0  0
   44.7000   33.6070   37.6290 C   0  0  0  0  0  0  0  0  0  0  0  0
   44.8310   33.3910   36.5880 H   0  0  0  0  0  0  0  0  0  0  0  0
   45.6870   33.8860   38.5430 C   0  0  0  0  0  3  0  0  0  0  0  0
   45.4310   34.1580   39.8860 C   0  0  0  0  0  3  0  0  0  0  0  0
   43.1010   35.4630   42.2760 H   0  0  0  0  0  0  0  0  0  0  0  0
   44.0600   34.5130   42.0250 S   0  0  0  0  0  0  0  0  0  0  0  0
   43.8180   33.2630   42.7890 O   0  0  0  0  0  0  0  0  0  0  0  0
   45.3710   35.0970   42.4290 O   0  0  0  0  0  0  0  0  0  0  0  0
  1  2  2  0  0  0  0
  1  6  1  0  0  0  0
  2  3  1  0  0  0  0
  3 26  1  0  0  0  0
  3  4  2  0  0  0  0
  5  4  1  0  0  0  0
  5  9  1  0  0  0  0
  6  5  2  0  0  0  0
  7  1  1  0  0  0  0
  8  2  1  0  0  0  0
  9 15  1  1  0  0  0
  9 14  1  0  0  0  0
 10 11  1  0  0  0  0
 10 17  1  0  0  0  0
 10  9  1  0  0  0  0
 11 12  1  0  0  0  0
 12 21  1  0  0  0  0
 12 20  1  0  0  0  0
 12 13  1  0  0  0  0
 13 22  1  0  0  0  0
 14 13  2  0  0  0  0
 14 23  1  0  0  0  0
 16 10  1  0  0  0  0
 18 11  1  0  0  0  0
 19 11  1  0  0  0  0
 23 24  1  0  0  0  0
 23 25  1  0  0  0  0
 26 27  2  0  0  0  0
 26 31  1  0  0  0  0
 27 28  1  0  0  0  0
 28 33  1  0  0  0  0
 28 29  2  0  0  0  0
 29 34  1  0  0  0  0
 30 29  1  0  0  0  0
 30 35  1  0  0  0  0
 31 30  2  0  0  0  0
 32 27  1  0  0  0  0
 36 45  1  0  0  0  0
 37 35  1  0  0  0  0
 37 36  2  0  0  0  0
 38 37  1  0  0  0  0
 39 38  1  0  0  0  0
 40 38  2  0  0  0  0
 40 42  1  0  0  0  0
 41 40  1  0  0  0  0
 42 43  2  0  0  0  0
 43 36  1  0  0  0  0
 45 44  1  0  0  0  0
 45 47  2  0  0  0  0
 45 46  2  0  0  0  0
M  END
>  <minimizedAffinity>
-6.71634483

$$$$

 OpenBabel03252505133D

 47 50  0  0  1  0  0  0  0  0999 V2000
   36.1110   29.9610   38.6270 C   0  0  0  0  0  0  0  0  0  0  0  0
   36.8160   31.1720   38.7970 C   0  0  0  0  0  0  0  0  0  0  0  0
   37.8520   31.2040   39.7870 C   0  0  0  0  0  0  0  0  0  0  0  0
   38.1000   30.0890   40.5010 N   0  0  0  0  0  0  0  0  0  0  0  0
   37.4060   28.9550   40.3090 C   0  0  0  0  0  0  0  0  0  0  0  0
   36.4060   28.8820   39.3710 N   0  0  0  0  0  0  0  0  0  0  0  0
   35.3220   29.9220   37.8790 H   0  0  0  0  0  0  0  0  0  0  0  0
   36.6130   32.0530   38.2280 H   0  0  0  0  0  0  0  0  0  0  0  0
   37.7160   27.7570   41.1210 C   0  0  2  0  0  0  0  0  0  0  0  0
   36.7530   27.8130   42.2880 C   0  0  0  0  0  0  0  0  0  0  0  0
   37.3350   28.2260   43.5840 C   0  0  0  0  0  0  0  0  0  0  0  0
   38.4650   27.2350   43.8360 C   0  0  0  0  0  0  0  0  0  0  0  0
   39.5620   27.3960   42.8690 C   0  0  0  0  0  0  0  0  0  0  0  0
   39.1040   27.6660   41.4790 C   0  0  0  0  0  0  0  0  0  0  0  0
   37.4250   26.8850   40.4800 H   0  0  0  0  0  0  0  0  0  0  0  0
   35.8710   28.4590   42.0940 H   0  0  0  0  0  0  0  0  0  0  0  0
   36.3250   26.8000   42.4360 H   0  0  0  0  0  0  0  0  0  0  0  0
   37.6800   29.2550   43.6760 H   0  0  0  0  0  0  0  0  0  0  0  0
   36.5830   28.0120   44.3630 H   0  0  0  0  0  0  0  0  0  0  0  0
   38.0800   26.2210   43.9490 H   0  0  0  0  0  0  0  0  0  0  0  0
   38.8950   27.5510   44.8100 H   0  0  0  0  0  0  0  0  0  0  0  0
   40.6220   27.3590   42.9620 H   0  0  0  0  0  0  0  0  0  0  0  0
   40.0590   27.8490   40.4450 N   0  0  0  0  0  0  0  0  0  0  0  0
   40.6770   28.6980   40.4010 H   0  0  0  0  0  0  0  0  0  0  0  0
   40.1790   27.1430   39.6910 H   0  0  0  0  0  0  0  0  0  0  0  0
   38.5940   32.4400   39.9770 C   0  0  0  0  0  0  0  0  0  0  0  0
   37.8890   33.6020   40.0280 C   0  0  0  0  0  0  0  0  0  0  0  0
   38.6500   34.7700   40.2100 C   0  0  0  0  0  0  0  0  0  0  0  0
   40.0260   34.6070   40.3180 C   0  0  0  0  0  0  0  0  0  0  0  0
   40.7380   33.4400   40.2690 C   0  0  0  0  0  0  0  0  0  0  0  0
   39.9430   32.3340   40.0880 N   0  0  0  0  0  0  0  0  0  0  0  0
   36.8130   33.5920   39.9290 H   0  0  0  0  0  0  0  0  0  0  0  0
   38.0880   35.6860   40.2500 H   0  0  0  0  0  0  0  0  0  0  0  0
   40.4460   35.5910   40.4530 H   0  0  0  0  0  0  0  0  0  0  0  0
   42.0750   33.3690   40.3800 O   0  0  0  0  0  0  0  0  0  0  0  0
   44.0980   34.0010   40.0080 C   0  0  0  0  0  0  0  0  0  0  0  0
   43.0760   33.9630   40.9830 C   0  0  0  0  0  0  0  0  0  0  0  0
   43.4220   34.5230   42.1800 C   0  0  0  0  0  0  0  0  0  0  0  0
   42.6420   34.4830   42.8960 H   0  0  0  0  0  0  0  0  0  0  0  0
   44.6230   35.0960   42.5140 C   0  0  0  0  0  0  0  0  0  0  0  0
   44.7310   35.4910   43.5040 H   0  0  0  0  0  0  0  0  0  0  0  0
   45.5700   35.0990   41.5190 C   0  0  0  0  0  3  0  0  0  0  0  0
   45.3480   34.5620   40.2520 C   0  0  0  0  0  3  0  0  0  0  0  0
   43.6610   32.0950   38.3200 H   0  0  0  0  0  0  0  0  0  0  0  0
   44.0860   33.4000   38.3430 S   0  0  0  0  0  0  0  0  0  0  0  0
   43.2250   34.2810   37.5140 O   0  0  0  0  0  0  0  0  0  0  0  0
   45.4780   33.4170   37.8090 O   0  0  0  0  0  0  0  0  0  0  0  0
  1  2  2  0  0  0  0
  1  6  1  0  0  0  0
  2  3  1  0  0  0  0
  3 26  1  0  0  0  0
  3  4  2  0  0  0  0
  5  4  1  0  0  0  0
  5  9  1  0  0  0  0
  6  5  2  0  0  0  0
  7  1  1  0  0  0  0
  8  2  1  0  0  0  0
  9 15  1  6  0  0  0
  9 14  1  0  0  0  0
  9 10  1  0  0  0  0
 10 17  1  0  0  0  0
 10 11  1  0  0  0  0
 11 18  1  0  0  0  0
 11 12  1  0  0  0  0
 11 19  1  0  0  0  0
 12 20  1  0  0  0  0
 12 21  1  0  0  0  0
 13 22  1  0  0  0  0
 13 12  1  0  0  0  0
 14 13  2  0  0  0  0
 16 10  1  0  0  0  0
 23 14  1  0  0  0  0
 24 23  1  0  0  0  0
 25 23  1  0  0  0  0
 26 27  2  0  0  0  0
 26 31  1  0  0  0  0
 27 28  1  0  0  0  0
 28 33  1  0  0  0  0
 28 29  2  0  0  0  0
 29 34  1  0  0  0  0
 30 29  1  0  0  0  0
 30 35  1  0  0  0  0
 31 30  2  0  0  0  0
 32 27  1  0  0  0  0
 35 37  1  0  0  0  0
 36 43  2  0  0  0  0
 36 37  1  0  0  0  0
 37 38  2  0  0  0  0
 38 40  1  0  0  0  0
 38 39  1  0  0  0  0
 40 41  1  0  0  0  0
 42 40  2  0  0  0  0
 43 42  1  0  0  0  0
 44 45  1  0  0  0  0
 45 36  1  0  0  0  0
 46 45  2  0  0  0  0
 47 45  2  0  0  0  0
M  END
>  <minimizedAffinity>
-6.67839193

$$$$

 OpenBabel03252505133D

 47 50  0  0  1  0  0  0  0  0999 V2000
   33.6450   27.1970   36.3500 C   0  0  0  0  0  0  0  0  0  0  0  0
   34.5880   27.6860   37.2800 C   0  0  0  0  0  0  0  0  0  0  0  0
   34.2300   28.8450   38.0420 C   0  0  0  0  0  0  0  0  0  0  0  0
   33.0230   29.4080   37.8370 N   0  0  0  0  0  0  0  0  0  0  0  0
   32.1530   28.9120   36.9410 C   0  0  0  0  0  0  0  0  0  0  0  0
   32.4570   27.8040   36.1910 N   0  0  0  0  0  0  0  0  0  0  0  0
   33.9020   26.3170   35.7640 H   0  0  0  0  0  0  0  0  0  0  0  0
   35.5430   27.2340   37.4380 H   0  0  0  0  0  0  0  0  0  0  0  0
   30.8410   29.5690   36.7500 C   0  0  2  0  0  0  0  0  0  0  0  0
   30.9610   30.3160   35.4390 C   0  0  0  0  0  0  0  0  0  0  0  0
   31.1180   31.7840   35.5450 C   0  0  0  0  0  0  0  0  0  0  0  0
   29.9060   32.2470   36.3440 C   0  0  0  0  0  0  0  0  0  0  0  0
   29.9510   31.7680   37.7350 C   0  0  0  0  0  0  0  0  0  0  0  0
   30.4460   30.3720   37.8740 C   0  0  0  0  0  0  0  0  0  0  0  0
   30.1120   28.7310   36.6010 H   0  0  0  0  0  0  0  0  0  0  0  0
   31.7820   29.9350   34.7950 H   0  0  0  0  0  0  0  0  0  0  0  0
   30.0400   30.1320   34.8470 H   0  0  0  0  0  0  0  0  0  0  0  0
   32.0450   32.1610   35.9720 H   0  0  0  0  0  0  0  0  0  0  0  0
   30.9740   32.2020   34.5330 H   0  0  0  0  0  0  0  0  0  0  0  0
   28.9800   32.0470   35.8060 H   0  0  0  0  0  0  0  0  0  0  0  0
   30.0310   33.3480   36.4180 H   0  0  0  0  0  0  0  0  0  0  0  0
   29.7000   32.2200   38.6660 H   0  0  0  0  0  0  0  0  0  0  0  0
   30.5470   29.7850   39.1640 N   0  0  0  0  0  0  0  0  0  0  0  0
   31.2600   30.1030   39.8670 H   0  0  0  0  0  0  0  0  0  0  0  0
   29.9120   29.0140   39.4550 H   0  0  0  0  0  0  0  0  0  0  0  0
   35.1840   29.3630   39.0100 C   0  0  0  0  0  0  0  0  0  0  0  0
   35.1100   28.8950   40.2850 C   0  0  0  0  0  0  0  0  0  0  0  0
   36.0510   29.4270   41.1840 C   0  0  0  0  0  0  0  0  0  0  0  0
   36.9430   30.3620   40.6740 C   0  0  0  0  0  0  0  0  0  0  0  0
   37.0200   30.8340   39.3920 C   0  0  0  0  0  0  0  0  0  0  0  0
   36.0770   30.2800   38.5600 N   0  0  0  0  0  0  0  0  0  0  0  0
   34.3630   28.1620   40.5550 H   0  0  0  0  0  0  0  0  0  0  0  0
   35.9890   29.0530   42.1920 H   0  0  0  0  0  0  0  0  0  0  0  0
   37.5840   30.6580   41.4880 H   0  0  0  0  0  0  0  0  0  0  0  0
   37.9160   31.7440   38.9780 O   0  0  0  0  0  0  0  0  0  0  0  0
   39.8310   32.7210   38.8650 C   0  0  0  0  0  0  0  0  0  0  0  0
   38.5230   32.8320   39.3890 C   0  0  0  0  0  0  0  0  0  0  0  0
   38.3050   33.9670   40.1170 C   0  0  0  0  0  0  0  0  0  0  0  0
   37.3190   34.0280   40.4990 H   0  0  0  0  0  0  0  0  0  0  0  0
   39.2010   34.9720   40.3790 C   0  0  0  0  0  0  0  0  0  0  0  0
   38.8660   35.7990   40.9720 H   0  0  0  0  0  0  0  0  0  0  0  0
   40.4520   34.7990   39.8390 C   0  0  0  0  0  3  0  0  0  0  0  0
   40.8080   33.6880   39.0760 C   0  0  0  0  0  3  0  0  0  0  0  0
   39.5610   30.8090   37.1490 H   0  0  0  0  0  0  0  0  0  0  0  0
   40.5410   31.4350   37.8780 S   0  0  0  0  0  0  0  0  0  0  0  0
   41.5960   32.0150   37.0090 O   0  0  0  0  0  0  0  0  0  0  0  0
   41.1440   30.4080   38.7740 O   0  0  0  0  0  0  0  0  0  0  0  0
  1  2  1  0  0  0  0
  2  8  1  0  0  0  0
  2  3  2  0  0  0  0
  3 26  1  0  0  0  0
  4  3  1  0  0  0  0
  5  4  2  0  0  0  0
  6  1  2  0  0  0  0
  6  5  1  0  0  0  0
  7  1  1  0  0  0  0
  9 15  1  6  0  0  0
  9  5  1  0  0  0  0
  9 14  1  0  0  0  0
 10 11  1  0  0  0  0
 10  9  1  0  0  0  0
 11 18  1  0  0  0  0
 11 12  1  0  0  0  0
 12 21  1  0  0  0  0
 12 13  1  0  0  0  0
 13 14  2  0  0  0  0
 13 22  1  0  0  0  0
 14 23  1  0  0  0  0
 16 10  1  0  0  0  0
 17 10  1  0  0  0  0
 19 11  1  0  0  0  0
 20 12  1  0  0  0  0
 23 25  1  0  0  0  0
 23 24  1  0  0  0  0
 26 27  1  0  0  0  0
 27 32  1  0  0  0  0
 27 28  2  0  0  0  0
 28 33  1  0  0  0  0
 29 28  1  0  0  0  0
 29 34  1  0  0  0  0
 30 29  2  0  0  0  0
 31 26  2  0  0  0  0
 31 30  1  0  0  0  0
 35 37  1  0  0  0  0
 35 30  1  0  0  0  0
 36 43  2  0  0  0  0
 36 37  1  0  0  0  0
 37 38  2  0  0  0  0
 38 40  1  0  0  0  0
 38 39  1  0  0  0  0
 40 41  1  0  0  0  0
 42 40  2  0  0  0  0
 43 42  1  0  0  0  0
 44 45  1  0  0  0  0
 45 47  2  0  0  0  0
 45 36  1  0  0  0  0
 46 45  2  0  0  0  0
M  END
>  <minimizedAffinity>
-6.60973597

$$$$
