
     RDKit          3D

 55 58  0  0  0  0  0  0  0  0999 V2000
   46.3688   32.4620   46.9002 C   0  0  2  0  0  0  0  0  0  0  0  0
   47.0717   32.5477   45.6206 C   0  0  1  0  0  0  0  0  0  0  0  0
   46.8439   31.2064   45.0236 O   0  0  0  0  0  0  0  0  0  0  0  0
   47.3524   30.4653   46.0847 C   0  0  0  0  0  0  0  0  0  0  0  0
   46.3586   31.0135   47.2587 C   0  0  2  0  0  0  0  0  0  0  0  0
   44.9315   35.1482   44.2193 C   0  0  0  0  0  0  0  0  0  0  0  0
   45.5763   35.5149   43.0429 C   0  0  0  0  0  0  0  0  0  0  0  0
   46.7669   34.8569   42.7028 C   0  0  0  0  0  0  0  0  0  0  0  0
   47.2419   33.8967   43.5258 N   0  0  0  0  0  0  0  0  0  0  0  0
   46.6050   33.5519   44.6650 C   0  0  0  0  0  0  0  0  0  0  0  0
   45.4433   34.1737   45.0235 N   0  0  0  0  0  0  0  0  0  0  0  0
   43.7364   35.7675   44.6131 O   0  0  0  0  0  0  0  0  0  0  0  0
   44.9817   32.8532   46.6881 O   0  0  0  0  0  0  0  0  0  0  0  0
   45.2144   30.3814   46.9857 O   0  0  0  0  0  0  0  0  0  0  0  0
   44.9775   29.1018   47.2897 C   0  0  0  0  0  0  0  0  0  0  0  0
   44.8018   28.2120   46.0536 C   0  0  0  0  0  0  0  0  0  0  0  0
   42.4424   28.0750   45.4695 C   0  0  0  0  0  0  0  0  0  0  0  0
   43.5239   27.4970   46.1428 C   0  0  0  0  0  0  0  0  0  0  0  0
   43.2050   26.3360   46.8124 C   0  0  0  0  0  0  0  0  0  0  0  0
   41.9848   25.7538   46.8588 C   0  0  0  0  0  0  0  0  0  0  0  0
   40.9248   26.3556   46.1770 C   0  0  0  0  0  0  0  0  0  0  0  0
   41.1538   27.5616   45.4531 C   0  0  0  0  0  0  0  0  0  0  0  0
   42.4709   29.2306   44.7194 O   0  0  0  0  0  0  0  0  0  0  0  0
   40.0863   28.0164   44.8658 O   0  0  0  0  0  0  0  0  0  0  0  0
   46.7768   33.0898   47.7086 H   0  0  0  0  0  0  0  0  0  0  0  0
   48.1808   32.5386   45.7364 H   0  0  0  0  0  0  0  0  0  0  0  0
   47.1478   29.4044   45.9722 H   0  0  0  0  0  0  0  0  0  0  0  0
   48.3614   30.7614   46.3634 H   0  0  0  0  0  0  0  0  0  0  0  0
   46.9824   30.6530   48.0957 H   0  0  0  0  0  0  0  0  0  0  0  0
   45.1696   36.2932   42.3989 H   0  0  0  0  0  0  0  0  0  0  0  0
   47.3094   35.0980   41.8055 H   0  0  0  0  0  0  0  0  0  0  0  0
   43.8806   36.5535   45.2575 H   0  0  0  0  0  0  0  0  0  0  0  0
   44.3909   32.1533   47.0635 H   0  0  0  0  0  0  0  0  0  0  0  0
   45.2596   28.7204   48.2224 H   0  0  0  0  0  0  0  0  0  0  0  0
   43.7707   29.2359   47.5903 H   0  0  0  0  0  0  0  0  0  0  0  0
   44.8965   28.7643   45.1311 H   0  0  0  0  0  0  0  0  0  0  0  0
   45.6188   27.4541   46.0962 H   0  0  0  0  0  0  0  0  0  0  0  0
   44.0478   25.9113   47.3193 H   0  0  0  0  0  0  0  0  0  0  0  0
   41.8594   24.8376   47.4212 H   0  0  0  0  0  0  0  0  0  0  0  0
   39.9994   25.8464   46.2556 H   0  0  0  0  0  0  0  0  0  0  0  0
   42.9733   30.0415   45.0392 H   0  0  0  0  0  0  0  0  0  0  0  0
   35.9786   29.0179   46.3290 H   0  0  0  0  0  0  0  0  0  0  0  0
   37.3003   28.5507   46.2730 S   0  0  0  0  0  0  0  0  0  0  0  0
   37.2899   27.1296   46.6979 O   0  0  0  0  0  0  0  0  0  0  0  0
   38.0339   29.4779   47.2086 O   0  0  0  0  0  0  0  0  0  0  0  0
   37.7791   28.7730   44.6154 C   0  0  0  0  0  0  0  0  0  0  0  0
   39.0635   28.4523   44.3031 C   0  0  0  0  0  0  0  0  0  0  0  0
   39.4201   28.6442   42.9488 C   0  0  0  0  0  0  0  0  0  0  0  0
   40.3728   28.4762   42.4019 H   0  0  0  0  0  0  0  0  0  0  0  0
   38.5631   29.1276   41.9400 C   0  0  0  0  0  0  0  0  0  0  0  0
   38.7229   29.3116   40.8889 H   0  0  0  0  0  0  0  0  0  0  0  0
   37.2758   29.4300   42.3387 C   0  0  0  0  0  0  0  0  0  0  0  0
   36.9298   29.2431   43.6564 C   0  0  0  0  0  0  0  0  0  0  0  0
   36.5066   29.8085   41.6835 H   0  0  0  0  0  0  0  0  0  0  0  0
   35.9041   29.4866   43.9664 H   0  0  0  0  0  0  0  0  0  0  0  0
  1  5  1  0
  2  1  1  0
  3  2  1  0
  3  4  1  0
  4  5  1  0
  6 12  1  0
  6 11  2  0
  7  6  1  0
  8  7  2  0
  8  9  1  0
  9 10  2  0
 10 11  1  0
 10  2  1  0
 13  1  1  0
 14  5  1  0
 14 15  1  0
 16 18  1  0
 16 15  1  0
 17 22  2  0
 17 18  1  0
 18 19  2  0
 19 20  1  0
 21 20  2  0
 22 21  1  0
 23 17  1  0
 24 22  1  0
  1 25  1  1
  2 26  1  1
  4 27  1  0
  4 28  1  0
  5 29  1  1
  7 30  1  0
  8 31  1  0
 12 32  1  0
 13 33  1  0
 15 34  1  0
 15 35  1  0
 16 36  1  0
 16 37  1  0
 19 38  1  0
 20 39  1  0
 21 40  1  0
 23 41  1  0
 42 43  1  0
 43 44  2  0
 43 45  2  0
 43 46  1  0
 46 47  2  0
 47 48  1  0
 48 49  1  0
 48 50  2  0
 50 51  1  0
 50 52  1  0
 52 53  2  0
 53 46  1  0
 52 54  1  0
 53 55  1  0
 24 47  1  0
M  ISO  8  25  13  26  13  27  13  28  13  29  13  30  14  31  14  32   3
M  ISO  8  33   3  34   8  35   8  36   8  37   8  38  14  39  14  40  14
M  ISO  4  41   3  42  12  49  15  51  16
M  END
>  <DihAtoms>  (1) 
21,23,46,45

>  <DihDeg>  (1) 
60.22004074537341

$$$$
