
 OpenBabel03242517593D

 27 28  0  0  0  0  0  0  0  0999 V2000
   35.9230   30.2890   40.5310 C   0  0  0  0  0  0  0  0  0  0  0  0
   35.0070   30.8970   40.7160 H   0  0  0  0  0  0  0  0  0  0  0  0
   36.6720   30.7190   41.2580 H   0  0  0  0  0  0  0  0  0  0  0  0
   37.2170   31.4820   38.8100 C   0  0  0  0  0  0  0  0  0  0  0  0
   36.3830   30.4220   39.1390 C   0  0  0  0  0  0  0  0  0  0  0  0
   35.9620   29.4820   38.2230 C   0  0  0  0  0  0  0  0  0  0  0  0
   35.3100   28.6660   38.5140 H   0  0  0  0  0  0  0  0  0  0  0  0
   36.4000   29.6140   36.9220 C   0  0  0  0  0  0  0  0  0  0  0  0
   36.1050   28.9050   36.1360 H   0  0  0  0  0  0  0  0  0  0  0  0
   37.2150   30.6190   36.5090 C   0  0  0  0  0  3  0  0  0  0  0  0
   37.5990   31.5270   37.4840 C   0  0  0  0  0  3  0  0  0  0  0  0
   37.5040   32.3370   41.2220 H   0  0  0  0  0  0  0  0  0  0  0  0
   37.7690   32.6930   39.9450 S   0  0  0  0  0  0  0  0  0  0  0  0
   37.2560   34.0680   39.6170 O   0  0  0  0  0  0  0  0  0  0  0  0
   39.2780   32.7960   39.8280 O   0  0  0  0  0  0  0  0  0  0  0  0
   35.5900   28.8530   40.9220 C   0  0  0  0  0  0  0  0  0  0  0  0
   34.6270   28.7680   41.4090 H   0  0  0  0  0  0  0  0  0  0  0  0
   35.5510   28.2050   39.9980 H   0  0  0  0  0  0  0  0  0  0  0  0
   37.4320   29.2770   42.5160 C   0  0  0  0  0  0  0  0  0  0  0  0
   36.6520   28.3620   41.7710 C   0  0  0  0  0  0  0  0  0  0  0  0
   36.9690   27.0110   41.9120 C   0  0  0  0  0  0  0  0  0  0  0  0
   37.9870   26.6560   42.7380 N   0  0  0  0  0  0  0  0  0  0  0  0
   38.7100   27.5490   43.4310 C   0  0  0  0  0  0  0  0  0  0  0  0
   38.4310   28.8500   43.3170 N   0  0  0  0  0  0  0  0  0  0  0  0
   37.2640   30.3640   42.4750 H   0  0  0  0  0  0  0  0  0  0  0  0
   36.4090   26.2610   41.3710 H   0  0  0  0  0  0  0  0  0  0  0  0
   39.5100   27.2110   44.0730 H   0  0  0  0  0  0  0  0  0  0  0  0
  1  2  1  0  0  0  0
  1 16  1  0  0  0  0
  1  3  1  0  0  0  0
  4  5  1  0  0  0  0
  4 13  1  0  0  0  0
  5  1  1  0  0  0  0
  6  7  1  0  0  0  0
  6  5  2  0  0  0  0
  8  6  1  0  0  0  0
  9  8  1  0  0  0  0
 10  8  2  0  0  0  0
 10 11  1  0  0  0  0
 11  4  2  0  0  0  0
 13 12  1  0  0  0  0
 14 13  2  0  0  0  0
 15 13  2  0  0  0  0
 16 17  1  0  0  0  0
 16 20  1  0  0  0  0
 18 16  1  0  0  0  0
 19 24  1  0  0  0  0
 20 21  1  0  0  0  0
 20 19  2  0  0  0  0
 21 22  2  0  0  0  0
 22 23  1  0  0  0  0
 23 27  1  0  0  0  0
 24 23  2  0  0  0  0
 25 19  1  0  0  0  0
 26 21  1  0  0  0  0
M  END
>  <minimizedAffinity>
-4.8435688

$$$$

 OpenBabel03242517593D

 27 28  0  0  0  0  0  0  0  0999 V2000
   38.3960   27.5120   43.6740 C   0  0  0  0  0  0  0  0  0  0  0  0
   39.3410   28.0710   43.4890 H   0  0  0  0  0  0  0  0  0  0  0  0
   38.4280   27.3050   44.7830 H   0  0  0  0  0  0  0  0  0  0  0  0
   39.5320   25.5770   42.6580 C   0  0  0  0  0  0  0  0  0  0  0  0
   38.3480   26.2650   42.8930 C   0  0  0  0  0  0  0  0  0  0  0  0
   37.1230   25.8350   42.4290 C   0  0  0  0  0  0  0  0  0  0  0  0
   36.2170   26.3960   42.6300 H   0  0  0  0  0  0  0  0  0  0  0  0
   37.0880   24.6650   41.6990 C   0  0  0  0  0  0  0  0  0  0  0  0
   36.1500   24.2620   41.2960 H   0  0  0  0  0  0  0  0  0  0  0  0
   38.1940   23.9290   41.4200 C   0  0  0  0  0  3  0  0  0  0  0  0
   39.3920   24.4210   41.9180 C   0  0  0  0  0  3  0  0  0  0  0  0
   41.0940   26.3360   44.5590 H   0  0  0  0  0  0  0  0  0  0  0  0
   41.1020   26.0950   43.2290 S   0  0  0  0  0  0  0  0  0  0  0  0
   41.6500   27.2510   42.4400 O   0  0  0  0  0  0  0  0  0  0  0  0
   42.0830   24.9600   43.0000 O   0  0  0  0  0  0  0  0  0  0  0  0
   37.2470   28.4640   43.3600 C   0  0  0  0  0  0  0  0  0  0  0  0
   36.4140   27.9660   42.8810 H   0  0  0  0  0  0  0  0  0  0  0  0
   36.8540   28.9170   44.3170 H   0  0  0  0  0  0  0  0  0  0  0  0
   36.9400   30.1070   41.5380 C   0  0  0  0  0  0  0  0  0  0  0  0
   37.7620   29.5330   42.5350 C   0  0  0  0  0  0  0  0  0  0  0  0
   39.0510   30.0540   42.6570 C   0  0  0  0  0  0  0  0  0  0  0  0
   39.4360   31.0600   41.8310 N   0  0  0  0  0  0  0  0  0  0  0  0
   38.6310   31.5830   40.8930 C   0  0  0  0  0  0  0  0  0  0  0  0
   37.3910   31.1060   40.7510 N   0  0  0  0  0  0  0  0  0  0  0  0
   35.9080   29.7680   41.3590 H   0  0  0  0  0  0  0  0  0  0  0  0
   39.7290   29.6600   43.4020 H   0  0  0  0  0  0  0  0  0  0  0  0
   38.9890   32.3830   40.2620 H   0  0  0  0  0  0  0  0  0  0  0  0
  1  3  1  0  0  0  0
  2  1  1  0  0  0  0
  4  5  1  0  0  0  0
  4 13  1  0  0  0  0
  5  1  1  0  0  0  0
  6  7  1  0  0  0  0
  6  5  2  0  0  0  0
  8  6  1  0  0  0  0
  9  8  1  0  0  0  0
 10  8  2  0  0  0  0
 10 11  1  0  0  0  0
 11  4  2  0  0  0  0
 13 12  1  0  0  0  0
 14 13  2  0  0  0  0
 15 13  2  0  0  0  0
 16  1  1  0  0  0  0
 16 18  1  0  0  0  0
 17 16  1  0  0  0  0
 19 20  1  0  0  0  0
 20 21  2  0  0  0  0
 20 16  1  0  0  0  0
 21 26  1  0  0  0  0
 22 21  1  0  0  0  0
 23 22  2  0  0  0  0
 24 23  1  0  0  0  0
 24 19  2  0  0  0  0
 25 19  1  0  0  0  0
 27 23  1  0  0  0  0
M  END
>  <minimizedAffinity>
-4.61006212

$$$$

 OpenBabel03242517593D

 27 28  0  0  0  0  0  0  0  0999 V2000
   36.4400   30.2210   41.2810 C   0  0  0  0  0  0  0  0  0  0  0  0
   37.1240   30.8690   40.6870 H   0  0  0  0  0  0  0  0  0  0  0  0
   35.9150   30.9510   41.9630 H   0  0  0  0  0  0  0  0  0  0  0  0
   38.5190   29.4560   42.3570 C   0  0  0  0  0  0  0  0  0  0  0  0
   37.1880   29.2100   42.0460 C   0  0  0  0  0  0  0  0  0  0  0  0
   36.5280   28.0580   42.4200 C   0  0  0  0  0  0  0  0  0  0  0  0
   35.4880   27.8970   42.1610 H   0  0  0  0  0  0  0  0  0  0  0  0
   37.2370   27.1170   43.1370 C   0  0  0  0  0  0  0  0  0  0  0  0
   36.7800   26.1760   43.4680 H   0  0  0  0  0  0  0  0  0  0  0  0
   38.5400   27.2730   43.4840 C   0  0  0  0  0  3  0  0  0  0  0  0
   39.1400   28.4550   43.0750 C   0  0  0  0  0  3  0  0  0  0  0  0
   38.6150   32.0080   42.0170 H   0  0  0  0  0  0  0  0  0  0  0  0
   39.3870   30.9040   41.8970 S   0  0  0  0  0  0  0  0  0  0  0  0
   40.0170   30.7900   40.5370 O   0  0  0  0  0  0  0  0  0  0  0  0
   40.5480   31.0810   42.8570 O   0  0  0  0  0  0  0  0  0  0  0  0
   35.4370   29.6170   40.3030 C   0  0  0  0  0  0  0  0  0  0  0  0
   35.2270   28.5770   40.5140 H   0  0  0  0  0  0  0  0  0  0  0  0
   34.4570   30.1720   40.3710 H   0  0  0  0  0  0  0  0  0  0  0  0
   35.5530   28.9010   37.9400 C   0  0  0  0  0  0  0  0  0  0  0  0
   35.9580   29.7860   38.9660 C   0  0  0  0  0  0  0  0  0  0  0  0
   36.8580   30.7890   38.6050 C   0  0  0  0  0  0  0  0  0  0  0  0
   37.2850   30.8600   37.3180 N   0  0  0  0  0  0  0  0  0  0  0  0
   36.8820   30.0030   36.3670 C   0  0  0  0  0  0  0  0  0  0  0  0
   36.0210   29.0310   36.6810 N   0  0  0  0  0  0  0  0  0  0  0  0
   34.8480   28.0750   38.1190 H   0  0  0  0  0  0  0  0  0  0  0  0
   37.2050   31.5000   39.3430 H   0  0  0  0  0  0  0  0  0  0  0  0
   37.2550   30.1050   35.3590 H   0  0  0  0  0  0  0  0  0  0  0  0
  1  3  1  0  0  0  0
  1  5  1  0  0  0  0
  2  1  1  0  0  0  0
  4 11  1  0  0  0  0
  5  4  2  0  0  0  0
  5  6  1  0  0  0  0
  6  8  2  0  0  0  0
  7  6  1  0  0  0  0
  8  9  1  0  0  0  0
  8 10  1  0  0  0  0
 11 10  2  0  0  0  0
 13 12  1  0  0  0  0
 13  4  1  0  0  0  0
 13 15  2  0  0  0  0
 14 13  2  0  0  0  0
 16 18  1  0  0  0  0
 16 17  1  0  0  0  0
 16  1  1  0  0  0  0
 19 25  1  0  0  0  0
 19 20  1  0  0  0  0
 20 16  1  0  0  0  0
 21 20  2  0  0  0  0
 21 26  1  0  0  0  0
 22 21  1  0  0  0  0
 23 24  1  0  0  0  0
 23 22  2  0  0  0  0
 24 19  2  0  0  0  0
 27 23  1  0  0  0  0
M  END
>  <minimizedAffinity>
-4.52255344

$$$$

 OpenBabel03242517593D

 27 28  0  0  0  0  0  0  0  0999 V2000
   37.3150   29.0120   42.5540 C   0  0  0  0  0  0  0  0  0  0  0  0
   37.0070   29.7990   43.2800 H   0  0  0  0  0  0  0  0  0  0  0  0
   38.4400   29.0030   42.6410 H   0  0  0  0  0  0  0  0  0  0  0  0
   37.7010   30.1430   40.4010 C   0  0  0  0  0  0  0  0  0  0  0  0
   36.8810   29.3440   41.1870 C   0  0  0  0  0  0  0  0  0  0  0  0
   35.6740   28.8430   40.7480 C   0  0  0  0  0  0  0  0  0  0  0  0
   35.0570   28.2210   41.3880 H   0  0  0  0  0  0  0  0  0  0  0  0
   35.2770   29.1580   39.4660 C   0  0  0  0  0  0  0  0  0  0  0  0
   34.3280   28.7960   39.0470 H   0  0  0  0  0  0  0  0  0  0  0  0
   36.0130   29.9320   38.6280 C   0  0  0  0  0  3  0  0  0  0  0  0
   37.2160   30.4010   39.1350 C   0  0  0  0  0  3  0  0  0  0  0  0
   39.7740   30.0660   41.9280 H   0  0  0  0  0  0  0  0  0  0  0  0
   39.2360   30.7970   40.9260 S   0  0  0  0  0  0  0  0  0  0  0  0
   39.1540   32.2590   41.2640 O   0  0  0  0  0  0  0  0  0  0  0  0
   40.2060   30.7140   39.7610 O   0  0  0  0  0  0  0  0  0  0  0  0
   36.7470   27.6910   43.0630 C   0  0  0  0  0  0  0  0  0  0  0  0
   36.3430   27.7720   44.0640 H   0  0  0  0  0  0  0  0  0  0  0  0
   35.9030   27.3550   42.3930 H   0  0  0  0  0  0  0  0  0  0  0  0
   39.0170   26.9250   43.6750 C   0  0  0  0  0  0  0  0  0  0  0  0
   37.7950   26.6980   42.9990 C   0  0  0  0  0  0  0  0  0  0  0  0
   37.6830   25.4970   42.2980 C   0  0  0  0  0  0  0  0  0  0  0  0
   38.7290   24.6320   42.3030 N   0  0  0  0  0  0  0  0  0  0  0  0
   39.8760   24.8770   42.9540 C   0  0  0  0  0  0  0  0  0  0  0  0
   40.0150   26.0180   43.6340 N   0  0  0  0  0  0  0  0  0  0  0  0
   39.2070   27.8410   44.2550 H   0  0  0  0  0  0  0  0  0  0  0  0
   36.7730   25.2630   41.7620 H   0  0  0  0  0  0  0  0  0  0  0  0
   40.6770   24.1530   42.9240 H   0  0  0  0  0  0  0  0  0  0  0  0
  1  3  1  0  0  0  0
  1 16  1  0  0  0  0
  1  2  1  0  0  0  0
  4 13  1  0  0  0  0
  4  5  1  0  0  0  0
  5  1  1  0  0  0  0
  6  5  2  0  0  0  0
  6  7  1  0  0  0  0
  8  6  1  0  0  0  0
  9  8  1  0  0  0  0
 10 11  1  0  0  0  0
 10  8  2  0  0  0  0
 11  4  2  0  0  0  0
 13 14  2  0  0  0  0
 13 12  1  0  0  0  0
 15 13  2  0  0  0  0
 16 17  1  0  0  0  0
 18 16  1  0  0  0  0
 19 25  1  0  0  0  0
 20 16  1  0  0  0  0
 20 19  2  0  0  0  0
 21 22  2  0  0  0  0
 21 20  1  0  0  0  0
 22 23  1  0  0  0  0
 23 24  2  0  0  0  0
 24 19  1  0  0  0  0
 26 21  1  0  0  0  0
 27 23  1  0  0  0  0
M  END
>  <minimizedAffinity>
-4.51539516

$$$$

 OpenBabel03242517593D

 27 28  0  0  0  0  0  0  0  0999 V2000
   37.2920   27.8930   39.6410 C   0  0  0  0  0  0  0  0  0  0  0  0
   37.5430   27.8030   38.5600 H   0  0  0  0  0  0  0  0  0  0  0  0
   38.2000   28.4010   40.0780 H   0  0  0  0  0  0  0  0  0  0  0  0
   37.4320   26.3770   41.5770 C   0  0  0  0  0  0  0  0  0  0  0  0
   37.0650   26.5730   40.2520 C   0  0  0  0  0  0  0  0  0  0  0  0
   36.4970   25.5860   39.4750 C   0  0  0  0  0  0  0  0  0  0  0  0
   36.2220   25.7720   38.4420 H   0  0  0  0  0  0  0  0  0  0  0  0
   36.2880   24.3530   40.0560 C   0  0  0  0  0  0  0  0  0  0  0  0
   35.8410   23.5180   39.5000 H   0  0  0  0  0  0  0  0  0  0  0  0
   36.6160   24.0720   41.3430 C   0  0  0  0  0  3  0  0  0  0  0  0
   37.1830   25.1110   42.0650 C   0  0  0  0  0  3  0  0  0  0  0  0
   38.8140   28.5320   41.8580 H   0  0  0  0  0  0  0  0  0  0  0  0
   38.1570   27.6050   42.5900 S   0  0  0  0  0  0  0  0  0  0  0  0
   39.0150   27.0220   43.6790 O   0  0  0  0  0  0  0  0  0  0  0  0
   37.0420   28.3350   43.3150 O   0  0  0  0  0  0  0  0  0  0  0  0
   36.0840   28.8190   39.7420 C   0  0  0  0  0  0  0  0  0  0  0  0
   35.3040   28.5620   39.0380 H   0  0  0  0  0  0  0  0  0  0  0  0
   35.6340   28.7470   40.7750 H   0  0  0  0  0  0  0  0  0  0  0  0
   36.7030   31.0290   40.6620 C   0  0  0  0  0  0  0  0  0  0  0  0
   36.5420   30.1760   39.5460 C   0  0  0  0  0  0  0  0  0  0  0  0
   36.8450   30.7190   38.2970 C   0  0  0  0  0  0  0  0  0  0  0  0
   37.2690   32.0070   38.2230 N   0  0  0  0  0  0  0  0  0  0  0  0
   37.4100   32.7910   39.3030 C   0  0  0  0  0  0  0  0  0  0  0  0
   37.1280   32.3010   40.5120 N   0  0  0  0  0  0  0  0  0  0  0  0
   36.4900   30.7000   41.6910 H   0  0  0  0  0  0  0  0  0  0  0  0
   36.7440   30.1170   37.4030 H   0  0  0  0  0  0  0  0  0  0  0  0
   37.7500   33.8090   39.1860 H   0  0  0  0  0  0  0  0  0  0  0  0
  1 16  1  0  0  0  0
  1  3  1  0  0  0  0
  1  5  1  0  0  0  0
  2  1  1  0  0  0  0
  4 11  1  0  0  0  0
  4 13  1  0  0  0  0
  5  4  2  0  0  0  0
  6  8  2  0  0  0  0
  6  5  1  0  0  0  0
  7  6  1  0  0  0  0
  8 10  1  0  0  0  0
  9  8  1  0  0  0  0
 10 11  2  0  0  0  0
 12 13  1  0  0  0  0
 13 15  2  0  0  0  0
 13 14  2  0  0  0  0
 16 18  1  0  0  0  0
 17 16  1  0  0  0  0
 19 25  1  0  0  0  0
 20 16  1  0  0  0  0
 20 19  2  0  0  0  0
 21 20  1  0  0  0  0
 22 21  2  0  0  0  0
 22 23  1  0  0  0  0
 23 24  2  0  0  0  0
 24 19  1  0  0  0  0
 26 21  1  0  0  0  0
 27 23  1  0  0  0  0
M  END
>  <minimizedAffinity>
-4.47516012

$$$$

 OpenBabel03242517593D

 27 28  0  0  0  0  0  0  0  0999 V2000
   36.3180   27.8830   40.1630 C   0  0  0  0  0  0  0  0  0  0  0  0
   35.6680   26.9890   40.0250 H   0  0  0  0  0  0  0  0  0  0  0  0
   36.9260   27.9130   39.2130 H   0  0  0  0  0  0  0  0  0  0  0  0
   38.5560   27.8040   41.1880 C   0  0  0  0  0  0  0  0  0  0  0  0
   37.1780   27.7420   41.3500 C   0  0  0  0  0  0  0  0  0  0  0  0
   36.5720   27.5540   42.5740 C   0  0  0  0  0  0  0  0  0  0  0  0
   35.4920   27.5110   42.6650 H   0  0  0  0  0  0  0  0  0  0  0  0
   37.3850   27.4250   43.6800 C   0  0  0  0  0  0  0  0  0  0  0  0
   36.9750   27.2720   44.6860 H   0  0  0  0  0  0  0  0  0  0  0  0
   38.7410   27.4720   43.6150 C   0  0  0  0  0  3  0  0  0  0  0  0
   39.2820   27.6630   42.3530 C   0  0  0  0  0  3  0  0  0  0  0  0
   38.5450   27.7420   38.6130 H   0  0  0  0  0  0  0  0  0  0  0  0
   39.3580   28.0390   39.6510 S   0  0  0  0  0  0  0  0  0  0  0  0
   40.6750   27.3180   39.5730 O   0  0  0  0  0  0  0  0  0  0  0  0
   39.7060   29.5100   39.5220 O   0  0  0  0  0  0  0  0  0  0  0  0
   35.3980   29.0970   40.2260 C   0  0  0  0  0  0  0  0  0  0  0  0
   34.4940   28.9630   39.6460 H   0  0  0  0  0  0  0  0  0  0  0  0
   35.0800   29.2810   41.2930 H   0  0  0  0  0  0  0  0  0  0  0  0
   36.5330   31.2410   40.7060 C   0  0  0  0  0  0  0  0  0  0  0  0
   36.1450   30.2500   39.7740 C   0  0  0  0  0  0  0  0  0  0  0  0
   36.5190   30.4590   38.4470 C   0  0  0  0  0  0  0  0  0  0  0  0
   37.2210   31.5770   38.1290 N   0  0  0  0  0  0  0  0  0  0  0  0
   37.5750   32.4990   39.0370 C   0  0  0  0  0  0  0  0  0  0  0  0
   37.2310   32.3280   40.3160 N   0  0  0  0  0  0  0  0  0  0  0  0
   36.2870   31.1710   41.7760 H   0  0  0  0  0  0  0  0  0  0  0  0
   36.2540   29.7370   37.6860 H   0  0  0  0  0  0  0  0  0  0  0  0
   38.1330   33.3710   38.7290 H   0  0  0  0  0  0  0  0  0  0  0  0
  1 16  1  0  0  0  0
  1  5  1  0  0  0  0
  2  1  1  0  0  0  0
  3  1  1  0  0  0  0
  4  5  2  0  0  0  0
  4 11  1  0  0  0  0
  5  6  1  0  0  0  0
  6  7  1  0  0  0  0
  6  8  2  0  0  0  0
  8  9  1  0  0  0  0
 10  8  1  0  0  0  0
 11 10  2  0  0  0  0
 12 13  1  0  0  0  0
 13  4  1  0  0  0  0
 14 13  2  0  0  0  0
 15 13  2  0  0  0  0
 16 18  1  0  0  0  0
 17 16  1  0  0  0  0
 19 25  1  0  0  0  0
 20 16  1  0  0  0  0
 20 19  2  0  0  0  0
 21 20  1  0  0  0  0
 22 21  2  0  0  0  0
 22 23  1  0  0  0  0
 23 24  2  0  0  0  0
 24 19  1  0  0  0  0
 26 21  1  0  0  0  0
 27 23  1  0  0  0  0
M  END
>  <minimizedAffinity>
-4.45995617

$$$$

 OpenBabel03242517593D

 27 28  0  0  0  0  0  0  0  0999 V2000
   36.1870   28.1200   41.6510 C   0  0  0  0  0  0  0  0  0  0  0  0
   36.3950   27.1380   41.1670 H   0  0  0  0  0  0  0  0  0  0  0  0
   35.0990   28.0420   41.9400 H   0  0  0  0  0  0  0  0  0  0  0  0
   36.4620   28.9750   39.3580 C   0  0  0  0  0  0  0  0  0  0  0  0
   36.4200   29.2370   40.7210 C   0  0  0  0  0  0  0  0  0  0  0  0
   36.5870   30.4990   41.2510 C   0  0  0  0  0  0  0  0  0  0  0  0
   36.5480   30.6690   42.3210 H   0  0  0  0  0  0  0  0  0  0  0  0
   36.8040   31.5400   40.3720 C   0  0  0  0  0  0  0  0  0  0  0  0
   36.9470   32.5710   40.7200 H   0  0  0  0  0  0  0  0  0  0  0  0
   36.8620   31.3760   39.0260 C   0  0  0  0  0  3  0  0  0  0  0  0
   36.6850   30.0810   38.5630 C   0  0  0  0  0  3  0  0  0  0  0  0
   36.1530   26.4300   39.6010 H   0  0  0  0  0  0  0  0  0  0  0  0
   36.2570   27.3880   38.6530 S   0  0  0  0  0  0  0  0  0  0  0  0
   37.3130   27.0700   37.6310 O   0  0  0  0  0  0  0  0  0  0  0  0
   34.9490   27.3800   37.8840 O   0  0  0  0  0  0  0  0  0  0  0  0
   37.0500   28.1890   42.9060 C   0  0  0  0  0  0  0  0  0  0  0  0
   37.6450   29.0920   42.9510 H   0  0  0  0  0  0  0  0  0  0  0  0
   36.3920   28.1810   43.8230 H   0  0  0  0  0  0  0  0  0  0  0  0
   37.5030   25.8590   42.2140 C   0  0  0  0  0  0  0  0  0  0  0  0
   37.8850   27.0100   42.9420 C   0  0  0  0  0  0  0  0  0  0  0  0
   39.0760   26.9250   43.6640 C   0  0  0  0  0  0  0  0  0  0  0  0
   39.7860   25.7680   43.6280 N   0  0  0  0  0  0  0  0  0  0  0  0
   39.3950   24.6920   42.9280 C   0  0  0  0  0  0  0  0  0  0  0  0
   38.2600   24.7420   42.2260 N   0  0  0  0  0  0  0  0  0  0  0  0
   36.5810   25.8220   41.6130 H   0  0  0  0  0  0  0  0  0  0  0  0
   39.4250   27.7710   44.2390 H   0  0  0  0  0  0  0  0  0  0  0  0
   39.9990   23.7970   42.9360 H   0  0  0  0  0  0  0  0  0  0  0  0
  1  3  1  0  0  0  0
  1 16  1  0  0  0  0
  2  1  1  0  0  0  0
  4  5  1  0  0  0  0
  5  6  2  0  0  0  0
  5  1  1  0  0  0  0
  6  7  1  0  0  0  0
  8  9  1  0  0  0  0
  8  6  1  0  0  0  0
 10  8  2  0  0  0  0
 11 10  1  0  0  0  0
 11  4  2  0  0  0  0
 13  4  1  0  0  0  0
 13 12  1  0  0  0  0
 14 13  2  0  0  0  0
 15 13  2  0  0  0  0
 16 20  1  0  0  0  0
 16 17  1  0  0  0  0
 16 18  1  0  0  0  0
 19 24  2  0  0  0  0
 19 20  1  0  0  0  0
 20 21  2  0  0  0  0
 21 26  1  0  0  0  0
 22 21  1  0  0  0  0
 23 27  1  0  0  0  0
 23 22  2  0  0  0  0
 24 23  1  0  0  0  0
 25 19  1  0  0  0  0
M  END
>  <minimizedAffinity>
-4.42077255

$$$$

 OpenBabel03242517593D

 27 28  0  0  0  0  0  0  0  0999 V2000
   36.6470   27.7920   41.9450 C   0  0  0  0  0  0  0  0  0  0  0  0
   37.1420   28.7420   42.2490 H   0  0  0  0  0  0  0  0  0  0  0  0
   35.7390   27.7450   42.6130 H   0  0  0  0  0  0  0  0  0  0  0  0
   38.8660   26.8610   42.4690 C   0  0  0  0  0  0  0  0  0  0  0  0
   37.5320   26.6340   42.1550 C   0  0  0  0  0  0  0  0  0  0  0  0
   36.9930   25.3720   42.0290 C   0  0  0  0  0  0  0  0  0  0  0  0
   35.9470   25.2300   41.7820 H   0  0  0  0  0  0  0  0  0  0  0  0
   37.8300   24.2940   42.2280 C   0  0  0  0  0  0  0  0  0  0  0  0
   37.4730   23.2590   42.1430 H   0  0  0  0  0  0  0  0  0  0  0  0
   39.1460   24.4210   42.5370 C   0  0  0  0  0  3  0  0  0  0  0  0
   39.6200   25.7200   42.6480 C   0  0  0  0  0  3  0  0  0  0  0  0
   38.8740   29.2310   43.4790 H   0  0  0  0  0  0  0  0  0  0  0  0
   39.5830   28.4480   42.6350 S   0  0  0  0  0  0  0  0  0  0  0  0
   39.8280   29.1110   41.3080 O   0  0  0  0  0  0  0  0  0  0  0  0
   40.9590   28.2800   43.2520 O   0  0  0  0  0  0  0  0  0  0  0  0
   36.2110   27.9620   40.4930 C   0  0  0  0  0  0  0  0  0  0  0  0
   36.6890   27.2520   39.8310 H   0  0  0  0  0  0  0  0  0  0  0  0
   35.0980   27.7950   40.4070 H   0  0  0  0  0  0  0  0  0  0  0  0
   36.5160   30.3460   41.0730 C   0  0  0  0  0  0  0  0  0  0  0  0
   36.4930   29.3230   40.0970 C   0  0  0  0  0  0  0  0  0  0  0  0
   36.7520   29.7090   38.7820 C   0  0  0  0  0  0  0  0  0  0  0  0
   37.0070   31.0160   38.5170 N   0  0  0  0  0  0  0  0  0  0  0  0
   37.0200   31.9640   39.4670 C   0  0  0  0  0  0  0  0  0  0  0  0
   36.7760   31.6260   40.7350 N   0  0  0  0  0  0  0  0  0  0  0  0
   36.3230   30.1470   42.1390 H   0  0  0  0  0  0  0  0  0  0  0  0
   36.7510   28.9740   37.9880 H   0  0  0  0  0  0  0  0  0  0  0  0
   37.2280   32.9900   39.2000 H   0  0  0  0  0  0  0  0  0  0  0  0
  1  5  1  0  0  0  0
  1  2  1  0  0  0  0
  1  3  1  0  0  0  0
  4 13  1  0  0  0  0
  4 11  1  0  0  0  0
  5  4  2  0  0  0  0
  6  5  1  0  0  0  0
  6  8  2  0  0  0  0
  7  6  1  0  0  0  0
  8 10  1  0  0  0  0
  9  8  1  0  0  0  0
 10 11  2  0  0  0  0
 13 15  2  0  0  0  0
 13 12  1  0  0  0  0
 14 13  2  0  0  0  0
 16  1  1  0  0  0  0
 17 16  1  0  0  0  0
 18 16  1  0  0  0  0
 19 25  1  0  0  0  0
 20 16  1  0  0  0  0
 20 19  2  0  0  0  0
 21 20  1  0  0  0  0
 22 21  2  0  0  0  0
 22 23  1  0  0  0  0
 23 24  2  0  0  0  0
 24 19  1  0  0  0  0
 26 21  1  0  0  0  0
 27 23  1  0  0  0  0
M  END
>  <minimizedAffinity>
-4.41921902

$$$$

 OpenBabel03242517593D

 27 28  0  0  0  0  0  0  0  0999 V2000
   38.0810   28.5830   42.7030 C   0  0  0  0  0  0  0  0  0  0  0  0
   37.4910   28.7950   43.6240 H   0  0  0  0  0  0  0  0  0  0  0  0
   37.3330   28.7370   41.8730 H   0  0  0  0  0  0  0  0  0  0  0  0
   38.1630   26.3190   41.7400 C   0  0  0  0  0  0  0  0  0  0  0  0
   38.6090   27.2090   42.7080 C   0  0  0  0  0  0  0  0  0  0  0  0
   39.5260   26.8680   43.6790 C   0  0  0  0  0  0  0  0  0  0  0  0
   39.8530   27.5880   44.4210 H   0  0  0  0  0  0  0  0  0  0  0  0
   40.0150   25.5790   43.6750 C   0  0  0  0  0  0  0  0  0  0  0  0
   40.7470   25.2340   44.4180 H   0  0  0  0  0  0  0  0  0  0  0  0
   39.6350   24.6420   42.7690 C   0  0  0  0  0  3  0  0  0  0  0  0
   38.7100   25.0540   41.8210 C   0  0  0  0  0  3  0  0  0  0  0  0
   35.9740   27.4470   40.9870 H   0  0  0  0  0  0  0  0  0  0  0  0
   36.9990   26.7160   40.4960 S   0  0  0  0  0  0  0  0  0  0  0  0
   36.5290   25.5060   39.7380 O   0  0  0  0  0  0  0  0  0  0  0  0
   37.6940   27.5830   39.4620 O   0  0  0  0  0  0  0  0  0  0  0  0
   39.1710   29.6470   42.6190 C   0  0  0  0  0  0  0  0  0  0  0  0
   39.4610   30.0220   43.5920 H   0  0  0  0  0  0  0  0  0  0  0  0
   40.0960   29.2090   42.1440 H   0  0  0  0  0  0  0  0  0  0  0  0
   37.3970   30.6310   41.2050 C   0  0  0  0  0  0  0  0  0  0  0  0
   38.6920   30.7130   41.7680 C   0  0  0  0  0  0  0  0  0  0  0  0
   39.4370   31.8500   41.4560 C   0  0  0  0  0  0  0  0  0  0  0  0
   38.8910   32.7940   40.6460 N   0  0  0  0  0  0  0  0  0  0  0  0
   37.6590   32.6850   40.1260 C   0  0  0  0  0  0  0  0  0  0  0  0
   36.9200   31.6090   40.4060 N   0  0  0  0  0  0  0  0  0  0  0  0
   36.7290   29.7750   41.3870 H   0  0  0  0  0  0  0  0  0  0  0  0
   40.4340   31.9740   41.8570 H   0  0  0  0  0  0  0  0  0  0  0  0
   37.2750   33.4670   39.4870 H   0  0  0  0  0  0  0  0  0  0  0  0
  1  5  1  0  0  0  0
  1  2  1  0  0  0  0
  3  1  1  0  0  0  0
  4 11  2  0  0  0  0
  4  5  1  0  0  0  0
  5  6  2  0  0  0  0
  6  7  1  0  0  0  0
  8  6  1  0  0  0  0
  8  9  1  0  0  0  0
 10  8  2  0  0  0  0
 11 10  1  0  0  0  0
 13 12  1  0  0  0  0
 13  4  1  0  0  0  0
 14 13  2  0  0  0  0
 15 13  2  0  0  0  0
 16  1  1  0  0  0  0
 16 17  1  0  0  0  0
 18 16  1  0  0  0  0
 19 25  1  0  0  0  0
 19 20  1  0  0  0  0
 20 16  1  0  0  0  0
 21 20  2  0  0  0  0
 21 26  1  0  0  0  0
 22 21  1  0  0  0  0
 23 24  1  0  0  0  0
 23 22  2  0  0  0  0
 24 19  2  0  0  0  0
 27 23  1  0  0  0  0
M  END
>  <minimizedAffinity>
-4.41282511

$$$$
