
     RDKit          3D

 44 46  0  0  0  0  0  0  0  0999 V2000
   45.1941   33.4612   41.1662 F   0  0  0  0  0  0  0  0  0  0  0  0
   46.3585   34.0486   41.0387 C   0  0  0  0  0  0  0  0  0  0  0  0
   46.8400   34.7932   42.0996 C   0  0  0  0  0  0  0  0  0  0  0  0
   48.0794   35.4664   42.0729 C   0  0  0  0  0  0  0  0  0  0  0  0
   48.8628   35.3766   40.9146 C   0  0  0  0  0  0  0  0  0  0  0  0
   48.3456   34.6245   39.8816 C   0  0  0  0  0  0  0  0  0  0  0  0
   47.1580   33.9754   39.8967 C   0  0  0  0  0  0  0  0  0  0  0  0
   45.4777   33.9930   45.4080 C   0  0  0  0  0  0  0  0  0  0  0  0
   44.6243   35.0985   45.6472 C   0  0  0  0  0  0  0  0  0  0  0  0
   44.5227   36.1267   44.6526 C   0  0  0  0  0  0  0  0  0  0  0  0
   45.2733   35.9636   43.5187 N   0  0  0  0  0  0  0  0  0  0  0  0
   46.0574   34.9135   43.3382 C   0  0  0  0  0  0  0  0  0  0  0  0
   46.1614   33.9374   44.2690 N   0  0  0  0  0  0  0  0  0  0  0  0
   45.5477   33.0174   46.4037 N   0  0  0  0  0  0  0  0  0  0  0  0
   46.7511   33.2616   38.8108 O   0  0  0  0  0  0  0  0  0  0  0  0
   48.0436   34.7131   37.0160 O   0  0  0  0  0  0  0  0  0  0  0  0
   47.2942   33.4201   37.2300 P   0  0  2  0  0  0  0  0  0  0  0  0
   45.9715   33.3438   36.1616 O   0  0  0  0  0  0  0  0  0  0  0  0
   48.3010   32.1343   36.7631 O   0  0  0  0  0  0  0  0  0  0  0  0
   47.5535   30.9591   36.5687 C   0  0  0  0  0  0  0  0  0  0  0  0
   47.2103   30.9908   35.2148 F   0  0  0  0  0  0  0  0  0  0  0  0
   48.3287   29.8437   36.7703 F   0  0  0  0  0  0  0  0  0  0  0  0
   46.4532   30.8725   37.3768 F   0  0  0  0  0  0  0  0  0  0  0  0
   48.3838   36.0293   42.9471 H   0  0  0  0  0  0  0  0  0  0  0  0
   49.7829   35.9055   40.9595 H   0  0  0  0  0  0  0  0  0  0  0  0
   49.0647   34.6424   39.0589 H   0  0  0  0  0  0  0  0  0  0  0  0
   44.0521   35.1765   46.5645 H   0  0  0  0  0  0  0  0  0  0  0  0
   43.8840   36.9749   44.8078 H   0  0  0  0  0  0  0  0  0  0  0  0
   45.0824   32.0871   46.4982 H   0  0  0  0  0  0  0  0  0  0  0  0
   46.1526   33.1405   47.2642 H   0  0  0  0  0  0  0  0  0  0  0  0
   47.0987   34.4476   38.3967 H   0  0  0  0  0  0  0  0  0  0  0  0
   45.8079   34.8200   38.6589 S   0  0  0  0  0  0  0  0  0  0  0  0
   45.0239   33.7433   39.3662 O   0  0  0  0  0  0  0  0  0  0  0  0
   45.7527   36.0400   39.5368 O   0  0  0  0  0  0  0  0  0  0  0  0
   44.9314   35.2010   37.1717 C   0  0  0  0  0  0  0  0  0  0  0  0
   45.0940   34.4118   36.0282 C   0  0  0  0  0  0  0  0  0  0  0  0
   44.3887   34.7487   34.8916 C   0  0  0  0  0  0  0  0  0  0  0  0
   44.5320   34.1283   34.0322 H   0  0  0  0  0  0  0  0  0  0  0  0
   43.5420   35.8372   34.8776 C   0  0  0  0  0  0  0  0  0  0  0  0
   42.9901   36.0908   33.9680 H   0  0  0  0  0  0  0  0  0  0  0  0
   43.3554   36.6448   35.9956 C   0  0  0  0  0  0  0  0  0  0  0  0
   44.0793   36.2699   37.1053 C   0  0  0  0  0  0  0  0  0  0  0  0
   42.6876   37.4851   35.9490 H   0  0  0  0  0  0  0  0  0  0  0  0
   43.9355   36.9029   37.9880 H   0  0  0  0  0  0  0  0  0  0  0  0
  2  1  1  0
  2  3  2  0
  3 12  1  0
  4  3  1  0
  5  4  2  0
  6  7  2  0
  6  5  1  0
  7  2  1  0
  8  9  2  0
  8 14  1  0
 10  9  1  0
 11 10  2  0
 12 11  1  0
 12 13  2  0
 13  8  1  0
 15  7  1  0
 17 16  2  0
 17 15  1  1
 18 17  1  0
 19 17  1  0
 20 19  1  0
 20 22  1  0
 20 23  1  0
 21 20  1  0
  4 24  1  0
  5 25  1  0
  6 26  1  0
  9 27  1  0
 10 28  1  0
 14 29  1  0
 14 30  1  0
 31 32  1  0
 32 33  2  0
 32 34  2  0
 32 35  1  0
 35 36  2  0
 36 37  1  0
 37 38  1  0
 37 39  2  0
 39 40  1  0
 39 41  1  0
 41 42  2  0
 42 35  1  0
 41 43  1  0
 42 44  1  0
 18 36  1  0
M  ISO  8  24  14  25  14  26  14  27  14  28  14  31  12  38  15  40  16
M  END
>  <DihAtoms>  (1) 
16,17,35,34

>  <DihDeg>  (1) 
179.99943164527477

$$$$
