
 OpenBabel03242522003D

 36 38  0  0  0  0  0  0  0  0999 V2000
   39.1070   31.6810   38.3700 C   0  0  0  0  0  0  0  0  0  0  0  0
   38.2310   31.6450   37.2870 C   0  0  0  0  0  0  0  0  0  0  0  0
   37.2250   30.6970   37.1140 C   0  0  0  0  0  0  0  0  0  0  0  0
   37.0820   29.7220   38.0800 C   0  0  0  0  0  0  0  0  0  0  0  0
   37.9390   29.7730   39.1230 C   0  0  0  0  0  0  0  0  0  0  0  0
   38.8930   30.6940   39.2610 N   0  0  0  0  0  0  0  0  0  0  0  0
   38.4110   32.4550   36.5620 H   0  0  0  0  0  0  0  0  0  0  0  0
   36.6570   30.8560   36.1990 H   0  0  0  0  0  0  0  0  0  0  0  0
   36.2780   29.0810   37.7690 H   0  0  0  0  0  0  0  0  0  0  0  0
   41.3650   34.4680   39.4860 C   0  0  0  0  0  0  0  0  0  0  0  0
   40.2770   33.5800   39.5310 C   0  0  0  0  0  0  0  0  0  0  0  0
   40.1530   32.6750   38.5100 C   0  0  0  0  0  0  0  0  0  0  0  0
   41.0940   32.6890   37.5080 N   0  0  0  0  0  0  0  0  0  0  0  0
   42.1290   33.5520   37.4890 C   0  0  0  0  0  0  0  0  0  0  0  0
   42.2530   34.4380   38.4850 N   0  0  0  0  0  0  0  0  0  0  0  0
   41.3980   35.1500   40.3230 H   0  0  0  0  0  0  0  0  0  0  0  0
   39.5280   33.5430   40.2970 H   0  0  0  0  0  0  0  0  0  0  0  0
   42.8050   33.4680   36.6500 H   0  0  0  0  0  0  0  0  0  0  0  0
   37.8100   28.8060   40.1020 O   0  0  0  0  0  0  0  0  0  0  0  0
   37.7780   30.0020   42.4560 O   0  0  0  0  0  0  0  0  0  0  0  0
   36.9790   29.0670   41.5680 P   0  0  1  0  0  0  0  0  0  0  0  0
   35.4750   29.7590   41.2340 O   0  0  0  0  0  0  0  0  0  0  0  0
   35.5230   30.7330   41.1210 H   0  0  0  0  0  0  0  0  0  0  0  0
   36.8080   27.5660   42.3380 O   0  0  0  0  0  0  0  0  0  0  0  0
   38.1230   25.6910   41.8460 C   0  0  0  0  0  0  0  0  0  0  0  0
   37.9410   26.8260   42.6440 C   0  0  0  0  0  0  0  0  0  0  0  0
   38.8580   27.1170   43.6320 C   0  0  0  0  0  0  0  0  0  0  0  0
   38.6800   27.9930   44.2160 H   0  0  0  0  0  0  0  0  0  0  0  0
   39.9590   26.3190   43.8640 C   0  0  0  0  0  0  0  0  0  0  0  0
   40.6530   26.5890   44.6520 H   0  0  0  0  0  0  0  0  0  0  0  0
   40.1720   25.1770   43.0860 C   0  0  0  0  0  3  0  0  0  0  0  0
   39.2360   24.9170   42.1080 C   0  0  0  0  0  3  0  0  0  0  0  0
   36.2490   26.2040   40.1400 H   0  0  0  0  0  0  0  0  0  0  0  0
   37.0550   25.1810   40.5530 S   0  0  0  0  0  0  0  0  0  0  0  0
   37.9180   24.7280   39.4090 O   0  0  0  0  0  0  0  0  0  0  0  0
   36.2460   23.9900   40.9850 O   0  0  0  0  0  0  0  0  0  0  0  0
  1 12  1  0  0  0  0
  1  6  1  0  0  0  0
  2  1  2  0  0  0  0
  3  2  1  0  0  0  0
  3  4  2  0  0  0  0
  4  5  1  0  0  0  0
  5  6  2  0  0  0  0
  5 19  1  0  0  0  0
  7  2  1  0  0  0  0
  8  3  1  0  0  0  0
  9  4  1  0  0  0  0
 10 11  1  0  0  0  0
 10 16  1  0  0  0  0
 11 17  1  0  0  0  0
 12 11  2  0  0  0  0
 13 12  1  0  0  0  0
 14 13  2  0  0  0  0
 14 15  1  0  0  0  0
 15 10  2  0  0  0  0
 18 14  1  0  0  0  0
 19 21  1  0  0  0  0
 21 24  1  0  0  0  0
 21 20  2  1  0  0  0
 22 21  1  0  0  0  0
 23 22  1  0  0  0  0
 24 26  1  0  0  0  0
 25 32  2  0  0  0  0
 25 26  1  0  0  0  0
 26 27  2  0  0  0  0
 27 29  1  0  0  0  0
 27 28  1  0  0  0  0
 29 30  1  0  0  0  0
 31 29  2  0  0  0  0
 32 31  1  0  0  0  0
 33 34  1  0  0  0  0
 34 36  2  0  0  0  0
 34 25  1  0  0  0  0
 35 34  2  0  0  0  0
M  END
>  <minimizedAffinity>
-5.95756006

$$$$

 OpenBabel03242522003D

 36 38  0  0  0  0  0  0  0  0999 V2000
   36.8380   30.4100   37.9440 C   0  0  0  0  0  0  0  0  0  0  0  0
   37.3280   31.7120   37.8660 C   0  0  0  0  0  0  0  0  0  0  0  0
   37.5600   32.5370   38.9650 C   0  0  0  0  0  0  0  0  0  0  0  0
   37.2870   32.0340   40.2210 C   0  0  0  0  0  0  0  0  0  0  0  0
   36.8130   30.7710   40.2770 C   0  0  0  0  0  0  0  0  0  0  0  0
   36.6010   30.0040   39.2060 N   0  0  0  0  0  0  0  0  0  0  0  0
   37.5210   32.0370   36.8320 H   0  0  0  0  0  0  0  0  0  0  0  0
   37.9450   33.5130   38.6770 H   0  0  0  0  0  0  0  0  0  0  0  0
   37.5080   32.8090   40.9300 H   0  0  0  0  0  0  0  0  0  0  0  0
   36.3270   29.0510   34.4790 C   0  0  0  0  0  0  0  0  0  0  0  0
   36.5860   30.0090   35.4750 C   0  0  0  0  0  0  0  0  0  0  0  0
   36.5940   29.5850   36.7770 C   0  0  0  0  0  0  0  0  0  0  0  0
   36.3500   28.2570   37.0330 N   0  0  0  0  0  0  0  0  0  0  0  0
   36.1030   27.3590   36.0590 C   0  0  0  0  0  0  0  0  0  0  0  0
   36.0940   27.7690   34.7840 N   0  0  0  0  0  0  0  0  0  0  0  0
   36.3370   29.4580   33.4790 H   0  0  0  0  0  0  0  0  0  0  0  0
   36.7810   31.0500   35.3080 H   0  0  0  0  0  0  0  0  0  0  0  0
   35.9250   26.3420   36.3800 H   0  0  0  0  0  0  0  0  0  0  0  0
   36.5350   30.2480   41.5260 O   0  0  0  0  0  0  0  0  0  0  0  0
   38.8710   30.2000   42.7570 O   0  0  0  0  0  0  0  0  0  0  0  0
   37.6620   29.3440   42.4310 P   0  0  1  0  0  0  0  0  0  0  0  0
   36.9340   28.8330   43.8670 O   0  0  0  0  0  0  0  0  0  0  0  0
   36.9630   29.5170   44.5700 H   0  0  0  0  0  0  0  0  0  0  0  0
   38.1430   28.0230   41.4830 O   0  0  0  0  0  0  0  0  0  0  0  0
   38.1690   25.6840   41.6200 C   0  0  0  0  0  0  0  0  0  0  0  0
   38.6720   26.8990   42.1010 C   0  0  0  0  0  0  0  0  0  0  0  0
   39.6150   26.8940   43.1070 C   0  0  0  0  0  0  0  0  0  0  0  0
   39.9720   27.8430   43.4430 H   0  0  0  0  0  0  0  0  0  0  0  0
   40.0830   25.7220   43.6640 C   0  0  0  0  0  0  0  0  0  0  0  0
   40.8250   25.7680   44.4530 H   0  0  0  0  0  0  0  0  0  0  0  0
   39.6030   24.4900   43.2080 C   0  0  0  0  0  3  0  0  0  0  0  0
   38.6620   24.5330   42.2010 C   0  0  0  0  0  3  0  0  0  0  0  0
   36.0460   26.5190   40.4030 H   0  0  0  0  0  0  0  0  0  0  0  0
   36.9730   25.5160   40.3510 S   0  0  0  0  0  0  0  0  0  0  0  0
   37.7000   25.5720   39.0370 O   0  0  0  0  0  0  0  0  0  0  0  0
   36.3180   24.1650   40.4280 O   0  0  0  0  0  0  0  0  0  0  0  0
  1  6  1  0  0  0  0
  2  1  2  0  0  0  0
  2  3  1  0  0  0  0
  3  4  2  0  0  0  0
  4  5  1  0  0  0  0
  4  9  1  0  0  0  0
  5 19  1  0  0  0  0
  6  5  2  0  0  0  0
  7  2  1  0  0  0  0
  8  3  1  0  0  0  0
 10 15  2  0  0  0  0
 10 11  1  0  0  0  0
 11 12  2  0  0  0  0
 12 13  1  0  0  0  0
 12  1  1  0  0  0  0
 14 18  1  0  0  0  0
 14 13  2  0  0  0  0
 15 14  1  0  0  0  0
 16 10  1  0  0  0  0
 17 11  1  0  0  0  0
 19 21  1  0  0  0  0
 21 20  2  1  0  0  0
 21 22  1  0  0  0  0
 22 23  1  0  0  0  0
 24 26  1  0  0  0  0
 24 21  1  0  0  0  0
 25 26  2  0  0  0  0
 25 32  1  0  0  0  0
 26 27  1  0  0  0  0
 27 28  1  0  0  0  0
 27 29  2  0  0  0  0
 29 30  1  0  0  0  0
 31 29  1  0  0  0  0
 32 31  2  0  0  0  0
 34 33  1  0  0  0  0
 34 36  2  0  0  0  0
 34 25  1  0  0  0  0
 35 34  2  0  0  0  0
M  END
>  <minimizedAffinity>
-5.84570789

$$$$

 OpenBabel03242522003D

 36 38  0  0  0  0  0  0  0  0999 V2000
   37.6380   26.3520   41.8300 C   0  0  0  0  0  0  0  0  0  0  0  0
   37.4640   26.5680   43.1960 C   0  0  0  0  0  0  0  0  0  0  0  0
   37.4560   27.8210   43.8030 C   0  0  0  0  0  0  0  0  0  0  0  0
   37.6310   28.9310   43.0010 C   0  0  0  0  0  0  0  0  0  0  0  0
   37.7970   28.7020   41.6810 C   0  0  0  0  0  0  0  0  0  0  0  0
   37.8010   27.4890   41.1270 N   0  0  0  0  0  0  0  0  0  0  0  0
   37.3300   25.6340   43.7650 H   0  0  0  0  0  0  0  0  0  0  0  0
   37.3040   27.7600   44.8790 H   0  0  0  0  0  0  0  0  0  0  0  0
   37.6130   29.7920   43.6410 H   0  0  0  0  0  0  0  0  0  0  0  0
   38.5390   22.9260   40.5780 C   0  0  0  0  0  0  0  0  0  0  0  0
   38.7200   24.1680   41.2100 C   0  0  0  0  0  0  0  0  0  0  0  0
   37.6560   25.0300   41.2340 C   0  0  0  0  0  0  0  0  0  0  0  0
   36.4800   24.6320   40.6420 N   0  0  0  0  0  0  0  0  0  0  0  0
   36.3330   23.4350   40.0430 C   0  0  0  0  0  0  0  0  0  0  0  0
   37.3710   22.5890   40.0170 N   0  0  0  0  0  0  0  0  0  0  0  0
   39.4190   22.3010   40.5990 H   0  0  0  0  0  0  0  0  0  0  0  0
   39.6220   24.5070   41.6800 H   0  0  0  0  0  0  0  0  0  0  0  0
   35.3620   23.2320   39.6120 H   0  0  0  0  0  0  0  0  0  0  0  0
   37.9740   29.8010   40.8600 O   0  0  0  0  0  0  0  0  0  0  0  0
   35.8490   29.5080   39.3190 O   0  0  0  0  0  0  0  0  0  0  0  0
   36.6940   30.5530   40.0220 P   0  0  1  0  0  0  0  0  0  0  0  0
   35.7350   31.4010   41.1240 O   0  0  0  0  0  0  0  0  0  0  0  0
   35.0710   30.8290   41.5650 H   0  0  0  0  0  0  0  0  0  0  0  0
   37.3750   31.5970   38.8710 O   0  0  0  0  0  0  0  0  0  0  0  0
   39.6100   32.2960   38.8280 C   0  0  0  0  0  0  0  0  0  0  0  0
   38.3080   32.5410   39.2780 C   0  0  0  0  0  0  0  0  0  0  0  0
   38.0540   33.6500   40.0560 C   0  0  0  0  0  0  0  0  0  0  0  0
   37.0460   33.7980   40.3760 H   0  0  0  0  0  0  0  0  0  0  0  0
   39.0490   34.5360   40.4110 C   0  0  0  0  0  0  0  0  0  0  0  0
   38.8010   35.3950   41.0250 H   0  0  0  0  0  0  0  0  0  0  0  0
   40.3620   34.3230   39.9800 C   0  0  0  0  0  3  0  0  0  0  0  0
   40.5790   33.2050   39.2030 C   0  0  0  0  0  3  0  0  0  0  0  0
   39.1600   30.6490   36.8860 H   0  0  0  0  0  0  0  0  0  0  0  0
   40.1000   30.9380   37.8350 S   0  0  0  0  0  0  0  0  0  0  0  0
   41.3910   31.3130   37.1640 O   0  0  0  0  0  0  0  0  0  0  0  0
   40.3890   29.7400   38.6960 O   0  0  0  0  0  0  0  0  0  0  0  0
  1  2  1  0  0  0  0
  2  7  1  0  0  0  0
  2  3  2  0  0  0  0
  3  8  1  0  0  0  0
  4  9  1  0  0  0  0
  4  3  1  0  0  0  0
  5  4  2  0  0  0  0
  6  5  1  0  0  0  0
  6  1  2  0  0  0  0
 10 16  1  0  0  0  0
 10 11  1  0  0  0  0
 11 12  2  0  0  0  0
 11 17  1  0  0  0  0
 12  1  1  0  0  0  0
 13 12  1  0  0  0  0
 14 13  2  0  0  0  0
 15 14  1  0  0  0  0
 15 10  2  0  0  0  0
 18 14  1  0  0  0  0
 19  5  1  0  0  0  0
 21 20  2  6  0  0  0
 21 19  1  0  0  0  0
 21 22  1  0  0  0  0
 22 23  1  0  0  0  0
 24 26  1  0  0  0  0
 24 21  1  0  0  0  0
 25 32  2  0  0  0  0
 25 26  1  0  0  0  0
 26 27  2  0  0  0  0
 27 28  1  0  0  0  0
 27 29  1  0  0  0  0
 29 30  1  0  0  0  0
 31 29  2  0  0  0  0
 32 31  1  0  0  0  0
 33 34  1  0  0  0  0
 34 36  2  0  0  0  0
 34 25  1  0  0  0  0
 35 34  2  0  0  0  0
M  END
>  <minimizedAffinity>
-5.77310705

$$$$

 OpenBabel03242522003D

 36 38  0  0  0  0  0  0  0  0999 V2000
   38.7610   31.7930   38.7630 C   0  0  0  0  0  0  0  0  0  0  0  0
   38.1480   31.3130   37.6080 C   0  0  0  0  0  0  0  0  0  0  0  0
   37.0620   30.4410   37.5930 C   0  0  0  0  0  0  0  0  0  0  0  0
   36.5530   30.0200   38.8040 C   0  0  0  0  0  0  0  0  0  0  0  0
   37.1590   30.4960   39.9130 C   0  0  0  0  0  0  0  0  0  0  0  0
   38.1990   31.3310   39.8970 N   0  0  0  0  0  0  0  0  0  0  0  0
   38.6110   31.6960   36.6850 H   0  0  0  0  0  0  0  0  0  0  0  0
   36.7410   30.1950   36.5820 H   0  0  0  0  0  0  0  0  0  0  0  0
   35.7420   29.3480   38.5940 H   0  0  0  0  0  0  0  0  0  0  0  0
   41.3570   34.4120   39.4820 C   0  0  0  0  0  0  0  0  0  0  0  0
   40.2030   33.6360   39.6850 C   0  0  0  0  0  0  0  0  0  0  0  0
   39.9000   32.6900   38.7410 C   0  0  0  0  0  0  0  0  0  0  0  0
   40.7370   32.5560   37.6590 N   0  0  0  0  0  0  0  0  0  0  0  0
   41.8380   33.3150   37.4880 C   0  0  0  0  0  0  0  0  0  0  0  0
   42.1380   34.2400   38.4080 N   0  0  0  0  0  0  0  0  0  0  0  0
   41.5320   35.1340   40.2650 H   0  0  0  0  0  0  0  0  0  0  0  0
   39.5320   33.7150   40.5170 H   0  0  0  0  0  0  0  0  0  0  0  0
   42.4190   33.1190   36.5980 H   0  0  0  0  0  0  0  0  0  0  0  0
   36.6630   30.0870   41.1370 O   0  0  0  0  0  0  0  0  0  0  0  0
   38.3990   29.6410   43.0780 O   0  0  0  0  0  0  0  0  0  0  0  0
   37.4490   28.9400   42.1250 P   0  0  1  0  0  0  0  0  0  0  0  0
   36.2900   28.0900   43.0130 O   0  0  0  0  0  0  0  0  0  0  0  0
   36.0180   28.5630   43.8290 H   0  0  0  0  0  0  0  0  0  0  0  0
   38.3280   27.9030   41.1110 O   0  0  0  0  0  0  0  0  0  0  0  0
   38.7090   25.6470   41.6170 C   0  0  0  0  0  0  0  0  0  0  0  0
   37.9100   26.5890   40.9560 C   0  0  0  0  0  0  0  0  0  0  0  0
   36.8160   26.1650   40.2330 C   0  0  0  0  0  0  0  0  0  0  0  0
   36.2340   26.9170   39.7460 H   0  0  0  0  0  0  0  0  0  0  0  0
   36.4770   24.8310   40.1360 C   0  0  0  0  0  0  0  0  0  0  0  0
   35.6060   24.5460   39.5560 H   0  0  0  0  0  0  0  0  0  0  0  0
   37.2510   23.8630   40.7820 C   0  0  0  0  0  3  0  0  0  0  0  0
   38.3380   24.3230   41.4960 C   0  0  0  0  0  3  0  0  0  0  0  0
   40.9460   26.9040   41.9310 H   0  0  0  0  0  0  0  0  0  0  0  0
   40.1290   26.0180   42.5740 S   0  0  0  0  0  0  0  0  0  0  0  0
   39.6550   26.6190   43.8670 O   0  0  0  0  0  0  0  0  0  0  0  0
   40.8640   24.7550   42.9250 O   0  0  0  0  0  0  0  0  0  0  0  0
  1  6  1  0  0  0  0
  2  1  2  0  0  0  0
  3  2  1  0  0  0  0
  3  4  2  0  0  0  0
  4  5  1  0  0  0  0
  5 19  1  0  0  0  0
  6  5  2  0  0  0  0
  7  2  1  0  0  0  0
  8  3  1  0  0  0  0
  9  4  1  0  0  0  0
 10 11  1  0  0  0  0
 10 16  1  0  0  0  0
 11 17  1  0  0  0  0
 12  1  1  0  0  0  0
 12 11  2  0  0  0  0
 13 12  1  0  0  0  0
 14 13  2  0  0  0  0
 14 15  1  0  0  0  0
 15 10  2  0  0  0  0
 18 14  1  0  0  0  0
 19 21  1  0  0  0  0
 21 22  1  0  0  0  0
 21 20  2  1  0  0  0
 22 23  1  0  0  0  0
 24 21  1  0  0  0  0
 25 34  1  0  0  0  0
 26 24  1  0  0  0  0
 26 25  2  0  0  0  0
 27 26  1  0  0  0  0
 28 27  1  0  0  0  0
 29 27  2  0  0  0  0
 29 31  1  0  0  0  0
 30 29  1  0  0  0  0
 31 32  2  0  0  0  0
 32 25  1  0  0  0  0
 33 34  1  0  0  0  0
 34 36  2  0  0  0  0
 34 35  2  0  0  0  0
M  END
>  <minimizedAffinity>
-5.71360683

$$$$

 OpenBabel03242522003D

 36 38  0  0  0  0  0  0  0  0999 V2000
   36.9490   26.9250   39.5080 C   0  0  0  0  0  0  0  0  0  0  0  0
   35.8340   26.8360   38.6760 C   0  0  0  0  0  0  0  0  0  0  0  0
   35.2570   27.9140   38.0090 C   0  0  0  0  0  0  0  0  0  0  0  0
   35.8240   29.1610   38.1810 C   0  0  0  0  0  0  0  0  0  0  0  0
   36.9040   29.2280   38.9890 C   0  0  0  0  0  0  0  0  0  0  0  0
   37.4360   28.1770   39.6150 N   0  0  0  0  0  0  0  0  0  0  0  0
   35.4420   25.8100   38.5920 H   0  0  0  0  0  0  0  0  0  0  0  0
   34.3950   27.6200   37.4130 H   0  0  0  0  0  0  0  0  0  0  0  0
   35.2400   29.8580   37.6110 H   0  0  0  0  0  0  0  0  0  0  0  0
   37.6040   23.9400   41.6930 C   0  0  0  0  0  0  0  0  0  0  0  0
   36.8810   25.0080   41.1330 C   0  0  0  0  0  0  0  0  0  0  0  0
   37.5150   25.7830   40.1980 C   0  0  0  0  0  0  0  0  0  0  0  0
   38.8120   25.4720   39.8630 N   0  0  0  0  0  0  0  0  0  0  0  0
   39.4820   24.4420   40.4150 C   0  0  0  0  0  0  0  0  0  0  0  0
   38.8670   23.6820   41.3300 N   0  0  0  0  0  0  0  0  0  0  0  0
   37.0410   23.3750   42.4200 H   0  0  0  0  0  0  0  0  0  0  0  0
   35.8710   25.2750   41.3720 H   0  0  0  0  0  0  0  0  0  0  0  0
   40.4970   24.2950   40.0740 H   0  0  0  0  0  0  0  0  0  0  0  0
   37.4880   30.4670   39.1720 O   0  0  0  0  0  0  0  0  0  0  0  0
   37.2490   32.8930   40.1900 O   0  0  0  0  0  0  0  0  0  0  0  0
   37.2330   31.4220   40.5620 P   0  0  1  0  0  0  0  0  0  0  0  0
   35.7340   31.0290   41.2340 O   0  0  0  0  0  0  0  0  0  0  0  0
   34.9910   31.5060   40.8050 H   0  0  0  0  0  0  0  0  0  0  0  0
   38.4960   31.1000   41.6470 O   0  0  0  0  0  0  0  0  0  0  0  0
   39.7870   29.1610   41.9000 C   0  0  0  0  0  0  0  0  0  0  0  0
   38.6010   29.8360   42.2120 C   0  0  0  0  0  0  0  0  0  0  0  0
   37.6650   29.2290   43.0210 C   0  0  0  0  0  0  0  0  0  0  0  0
   36.7750   29.7800   43.2330 H   0  0  0  0  0  0  0  0  0  0  0  0
   37.8570   27.9640   43.5380 C   0  0  0  0  0  0  0  0  0  0  0  0
   37.0910   27.5270   44.1700 H   0  0  0  0  0  0  0  0  0  0  0  0
   39.0290   27.2600   43.2470 C   0  0  0  0  0  3  0  0  0  0  0  0
   39.9430   27.8990   42.4360 C   0  0  0  0  0  3  0  0  0  0  0  0
   41.3570   31.0910   41.1970 H   0  0  0  0  0  0  0  0  0  0  0  0
   41.0740   29.7890   40.8910 S   0  0  0  0  0  0  0  0  0  0  0  0
   42.2900   28.9410   41.1330 O   0  0  0  0  0  0  0  0  0  0  0  0
   40.7190   29.6360   39.4380 O   0  0  0  0  0  0  0  0  0  0  0  0
  1  6  1  0  0  0  0
  1 12  1  0  0  0  0
  2  1  2  0  0  0  0
  3  4  2  0  0  0  0
  3  2  1  0  0  0  0
  4  5  1  0  0  0  0
  5 19  1  0  0  0  0
  5  6  2  0  0  0  0
  7  2  1  0  0  0  0
  8  3  1  0  0  0  0
  9  4  1  0  0  0  0
 10 16  1  0  0  0  0
 11 17  1  0  0  0  0
 11 10  2  0  0  0  0
 12 11  1  0  0  0  0
 13 12  2  0  0  0  0
 13 14  1  0  0  0  0
 14 15  2  0  0  0  0
 15 10  1  0  0  0  0
 18 14  1  0  0  0  0
 19 21  1  0  0  0  0
 21 20  2  6  0  0  0
 21 22  1  0  0  0  0
 21 24  1  0  0  0  0
 23 22  1  0  0  0  0
 24 26  1  0  0  0  0
 25 26  2  0  0  0  0
 25 32  1  0  0  0  0
 26 27  1  0  0  0  0
 27 28  1  0  0  0  0
 27 29  2  0  0  0  0
 29 30  1  0  0  0  0
 31 29  1  0  0  0  0
 32 31  2  0  0  0  0
 34 35  2  0  0  0  0
 34 33  1  0  0  0  0
 34 25  1  0  0  0  0
 36 34  2  0  0  0  0
M  END
>  <minimizedAffinity>
-5.56263065

$$$$

 OpenBabel03242522003D

 36 38  0  0  0  0  0  0  0  0999 V2000
   37.4560   28.0270   41.3550 C   0  0  0  0  0  0  0  0  0  0  0  0
   36.5330   27.5060   40.4490 C   0  0  0  0  0  0  0  0  0  0  0  0
   35.6860   28.2740   39.6550 C   0  0  0  0  0  0  0  0  0  0  0  0
   35.7600   29.6480   39.7680 C   0  0  0  0  0  0  0  0  0  0  0  0
   36.6600   30.1340   40.6500 C   0  0  0  0  0  0  0  0  0  0  0  0
   37.4590   29.3730   41.3980 N   0  0  0  0  0  0  0  0  0  0  0  0
   36.5360   26.4050   40.4180 H   0  0  0  0  0  0  0  0  0  0  0  0
   35.0470   27.6650   39.0190 H   0  0  0  0  0  0  0  0  0  0  0  0
   35.0290   30.0630   39.1010 H   0  0  0  0  0  0  0  0  0  0  0  0
   39.8940   26.6630   43.8670 C   0  0  0  0  0  0  0  0  0  0  0  0
   39.1360   27.6290   43.1830 C   0  0  0  0  0  0  0  0  0  0  0  0
   38.3130   27.1960   42.1770 C   0  0  0  0  0  0  0  0  0  0  0  0
   38.2770   25.8500   41.8980 N   0  0  0  0  0  0  0  0  0  0  0  0
   39.0160   24.9450   42.5690 C   0  0  0  0  0  0  0  0  0  0  0  0
   39.8210   25.3640   43.5530 N   0  0  0  0  0  0  0  0  0  0  0  0
   40.5170   27.0780   44.6450 H   0  0  0  0  0  0  0  0  0  0  0  0
   39.1410   28.6840   43.3780 H   0  0  0  0  0  0  0  0  0  0  0  0
   38.9040   23.9140   42.2600 H   0  0  0  0  0  0  0  0  0  0  0  0
   36.7500   31.5080   40.7780 O   0  0  0  0  0  0  0  0  0  0  0  0
   37.4430   32.2990   38.3560 O   0  0  0  0  0  0  0  0  0  0  0  0
   37.7880   32.4670   39.8230 P   0  0  1  0  0  0  0  0  0  0  0  0
   37.6020   34.0870   40.2620 O   0  0  0  0  0  0  0  0  0  0  0  0
   36.8410   34.5150   39.8130 H   0  0  0  0  0  0  0  0  0  0  0  0
   39.3760   31.9350   40.0950 O   0  0  0  0  0  0  0  0  0  0  0  0
   40.9670   31.8980   38.3770 C   0  0  0  0  0  0  0  0  0  0  0  0
   40.0180   31.1860   39.1190 C   0  0  0  0  0  0  0  0  0  0  0  0
   39.7980   29.8540   38.8430 C   0  0  0  0  0  0  0  0  0  0  0  0
   39.0650   29.3490   39.4350 H   0  0  0  0  0  0  0  0  0  0  0  0
   40.4870   29.1900   37.8500 C   0  0  0  0  0  0  0  0  0  0  0  0
   40.2790   28.1410   37.6690 H   0  0  0  0  0  0  0  0  0  0  0  0
   41.4430   29.8690   37.0880 C   0  0  0  0  0  3  0  0  0  0  0  0
   41.6370   31.2000   37.3910 C   0  0  0  0  0  3  0  0  0  0  0  0
   40.2440   34.3440   38.7960 H   0  0  0  0  0  0  0  0  0  0  0  0
   41.3660   33.5890   38.6000 S   0  0  0  0  0  0  0  0  0  0  0  0
   42.2550   33.6870   39.8070 O   0  0  0  0  0  0  0  0  0  0  0  0
   42.1650   34.0940   37.4310 O   0  0  0  0  0  0  0  0  0  0  0  0
  1  6  1  0  0  0  0
  1 12  1  0  0  0  0
  2  1  2  0  0  0  0
  3  4  2  0  0  0  0
  3  2  1  0  0  0  0
  4  5  1  0  0  0  0
  5 19  1  0  0  0  0
  5  6  2  0  0  0  0
  7  2  1  0  0  0  0
  8  3  1  0  0  0  0
  9  4  1  0  0  0  0
 10 16  1  0  0  0  0
 11 17  1  0  0  0  0
 11 10  2  0  0  0  0
 12 11  1  0  0  0  0
 13 12  2  0  0  0  0
 13 14  1  0  0  0  0
 14 15  2  0  0  0  0
 15 10  1  0  0  0  0
 18 14  1  0  0  0  0
 21 20  2  6  0  0  0
 21 24  1  0  0  0  0
 21 22  1  0  0  0  0
 21 19  1  0  0  0  0
 23 22  1  0  0  0  0
 25 34  1  0  0  0  0
 25 26  1  0  0  0  0
 26 24  1  0  0  0  0
 27 26  2  0  0  0  0
 27 28  1  0  0  0  0
 29 27  1  0  0  0  0
 30 29  1  0  0  0  0
 31 32  1  0  0  0  0
 31 29  2  0  0  0  0
 32 25  2  0  0  0  0
 34 33  1  0  0  0  0
 34 35  2  0  0  0  0
 36 34  2  0  0  0  0
M  END
>  <minimizedAffinity>
-5.49845934

$$$$

 OpenBabel03242522003D

 36 38  0  0  0  0  0  0  0  0999 V2000
   37.5920   30.8740   39.8540 C   0  0  0  0  0  0  0  0  0  0  0  0
   36.2590   30.7840   40.2500 C   0  0  0  0  0  0  0  0  0  0  0  0
   35.5040   29.6140   40.2230 C   0  0  0  0  0  0  0  0  0  0  0  0
   36.1130   28.4600   39.7730 C   0  0  0  0  0  0  0  0  0  0  0  0
   37.4050   28.5660   39.3940 C   0  0  0  0  0  0  0  0  0  0  0  0
   38.1030   29.7020   39.4310 N   0  0  0  0  0  0  0  0  0  0  0  0
   35.8480   31.7450   40.5960 H   0  0  0  0  0  0  0  0  0  0  0  0
   34.4860   29.7680   40.5770 H   0  0  0  0  0  0  0  0  0  0  0  0
   35.3780   27.6780   39.8070 H   0  0  0  0  0  0  0  0  0  0  0  0
   38.8140   34.3890   40.3700 C   0  0  0  0  0  0  0  0  0  0  0  0
   37.9380   33.2930   40.4490 C   0  0  0  0  0  0  0  0  0  0  0  0
   38.3440   32.1130   39.8820 C   0  0  0  0  0  0  0  0  0  0  0  0
   39.5770   32.0710   39.2750 N   0  0  0  0  0  0  0  0  0  0  0  0
   40.3980   33.1380   39.2140 C   0  0  0  0  0  0  0  0  0  0  0  0
   40.0050   34.2930   39.7660 N   0  0  0  0  0  0  0  0  0  0  0  0
   38.4270   35.2820   40.8380 H   0  0  0  0  0  0  0  0  0  0  0  0
   36.9730   33.2930   40.9150 H   0  0  0  0  0  0  0  0  0  0  0  0
   41.3420   32.9850   38.7100 H   0  0  0  0  0  0  0  0  0  0  0  0
   38.0330   27.4210   38.9410 O   0  0  0  0  0  0  0  0  0  0  0  0
   40.1320   25.8700   38.5350 O   0  0  0  0  0  0  0  0  0  0  0  0
   39.5870   26.9440   39.4580 P   0  0  1  0  0  0  0  0  0  0  0  0
   40.6140   28.2840   39.4280 O   0  0  0  0  0  0  0  0  0  0  0  0
   40.9930   28.4500   38.5380 H   0  0  0  0  0  0  0  0  0  0  0  0
   39.4380   26.3180   41.0270 O   0  0  0  0  0  0  0  0  0  0  0  0
   37.5310   26.3440   42.3880 C   0  0  0  0  0  0  0  0  0  0  0  0
   38.6870   27.0120   41.9660 C   0  0  0  0  0  0  0  0  0  0  0  0
   38.9860   28.2520   42.4890 C   0  0  0  0  0  0  0  0  0  0  0  0
   39.8780   28.7240   42.1390 H   0  0  0  0  0  0  0  0  0  0  0  0
   38.1770   28.8650   43.4220 C   0  0  0  0  0  0  0  0  0  0  0  0
   38.4530   29.8420   43.8050 H   0  0  0  0  0  0  0  0  0  0  0  0
   37.0140   28.2280   43.8670 C   0  0  0  0  0  3  0  0  0  0  0  0
   36.7470   26.9900   43.3230 C   0  0  0  0  0  3  0  0  0  0  0  0
   35.9430   24.3110   42.5480 H   0  0  0  0  0  0  0  0  0  0  0  0
   37.0090   24.7690   41.8260 S   0  0  0  0  0  0  0  0  0  0  0  0
   36.6130   24.9150   40.3840 O   0  0  0  0  0  0  0  0  0  0  0  0
   38.1530   23.7960   41.8660 O   0  0  0  0  0  0  0  0  0  0  0  0
  1 12  1  0  0  0  0
  1  2  1  0  0  0  0
  2  7  1  0  0  0  0
  3  2  2  0  0  0  0
  3  8  1  0  0  0  0
  4  9  1  0  0  0  0
  4  3  1  0  0  0  0
  5  6  1  0  0  0  0
  5  4  2  0  0  0  0
  6  1  2  0  0  0  0
 10 11  1  0  0  0  0
 10 16  1  0  0  0  0
 11 17  1  0  0  0  0
 12 11  2  0  0  0  0
 13 12  1  0  0  0  0
 14 13  2  0  0  0  0
 14 15  1  0  0  0  0
 15 10  2  0  0  0  0
 18 14  1  0  0  0  0
 19  5  1  0  0  0  0
 19 21  1  0  0  0  0
 21 20  2  6  0  0  0
 21 24  1  0  0  0  0
 22 21  1  0  0  0  0
 23 22  1  0  0  0  0
 24 26  1  0  0  0  0
 25 32  1  0  0  0  0
 26 25  2  0  0  0  0
 26 27  1  0  0  0  0
 27 29  2  0  0  0  0
 28 27  1  0  0  0  0
 29 30  1  0  0  0  0
 29 31  1  0  0  0  0
 32 31  2  0  0  0  0
 34 36  2  0  0  0  0
 34 25  1  0  0  0  0
 34 33  1  0  0  0  0
 35 34  2  0  0  0  0
M  END
>  <minimizedAffinity>
-5.49736404

$$$$

 OpenBabel03242522003D

 36 38  0  0  0  0  0  0  0  0999 V2000
   39.6200   29.2670   42.4100 C   0  0  0  0  0  0  0  0  0  0  0  0
   39.9440   28.1230   43.1370 C   0  0  0  0  0  0  0  0  0  0  0  0
   39.0560   27.0880   43.4220 C   0  0  0  0  0  0  0  0  0  0  0  0
   37.7630   27.1980   42.9530 C   0  0  0  0  0  0  0  0  0  0  0  0
   37.4670   28.3120   42.2500 C   0  0  0  0  0  0  0  0  0  0  0  0
   38.3390   29.2880   41.9930 N   0  0  0  0  0  0  0  0  0  0  0  0
   40.9930   28.1120   43.4740 H   0  0  0  0  0  0  0  0  0  0  0  0
   39.5190   26.2920   44.0020 H   0  0  0  0  0  0  0  0  0  0  0  0
   37.2290   26.3260   43.2820 H   0  0  0  0  0  0  0  0  0  0  0  0
   42.4470   31.7400   42.4950 C   0  0  0  0  0  0  0  0  0  0  0  0
   41.6430   30.6690   42.9230 C   0  0  0  0  0  0  0  0  0  0  0  0
   40.5670   30.3320   42.1450 C   0  0  0  0  0  0  0  0  0  0  0  0
   40.3380   31.0550   40.9990 N   0  0  0  0  0  0  0  0  0  0  0  0
   41.1250   32.0780   40.6120 C   0  0  0  0  0  0  0  0  0  0  0  0
   42.1780   32.4110   41.3690 N   0  0  0  0  0  0  0  0  0  0  0  0
   43.2740   31.9470   43.1570 H   0  0  0  0  0  0  0  0  0  0  0  0
   41.7950   30.0850   43.8100 H   0  0  0  0  0  0  0  0  0  0  0  0
   40.8460   32.5740   39.6920 H   0  0  0  0  0  0  0  0  0  0  0  0
   36.1760   28.4400   41.7700 O   0  0  0  0  0  0  0  0  0  0  0  0
   34.3380   29.1930   40.0300 O   0  0  0  0  0  0  0  0  0  0  0  0
   35.7600   29.4720   40.4780 P   0  0  1  0  0  0  0  0  0  0  0  0
   35.8820   31.0760   40.9910 O   0  0  0  0  0  0  0  0  0  0  0  0
   35.0770   31.3860   41.4590 H   0  0  0  0  0  0  0  0  0  0  0  0
   36.8280   29.1530   39.1990 O   0  0  0  0  0  0  0  0  0  0  0  0
   36.7120   29.9480   36.9990 C   0  0  0  0  0  0  0  0  0  0  0  0
   36.3210   28.9690   37.9210 C   0  0  0  0  0  0  0  0  0  0  0  0
   35.4990   27.9400   37.5130 C   0  0  0  0  0  0  0  0  0  0  0  0
   35.2270   27.2160   38.2480 H   0  0  0  0  0  0  0  0  0  0  0  0
   35.0430   27.8400   36.2150 C   0  0  0  0  0  0  0  0  0  0  0  0
   34.3990   27.0120   35.9410 H   0  0  0  0  0  0  0  0  0  0  0  0
   35.4130   28.8000   35.2670 C   0  0  0  0  0  3  0  0  0  0  0  0
   36.2350   29.8140   35.7100 C   0  0  0  0  0  3  0  0  0  0  0  0
   37.8970   32.1240   36.2610 H   0  0  0  0  0  0  0  0  0  0  0  0
   37.7480   31.3160   37.3530 S   0  0  0  0  0  0  0  0  0  0  0  0
   37.1040   32.0920   38.4670 O   0  0  0  0  0  0  0  0  0  0  0  0
   39.0790   30.8420   37.8650 O   0  0  0  0  0  0  0  0  0  0  0  0
  1  2  1  0  0  0  0
  2  3  2  0  0  0  0
  2  7  1  0  0  0  0
  3  8  1  0  0  0  0
  4  9  1  0  0  0  0
  4  3  1  0  0  0  0
  5  4  2  0  0  0  0
  6  5  1  0  0  0  0
  6  1  2  0  0  0  0
 10 11  1  0  0  0  0
 10 16  1  0  0  0  0
 11 17  1  0  0  0  0
 12  1  1  0  0  0  0
 12 11  2  0  0  0  0
 13 12  1  0  0  0  0
 14 13  2  0  0  0  0
 14 15  1  0  0  0  0
 15 10  2  0  0  0  0
 18 14  1  0  0  0  0
 19  5  1  0  0  0  0
 21 20  2  6  0  0  0
 21 22  1  0  0  0  0
 21 19  1  0  0  0  0
 22 23  1  0  0  0  0
 24 21  1  0  0  0  0
 25 34  1  0  0  0  0
 25 26  1  0  0  0  0
 26 24  1  0  0  0  0
 27 26  2  0  0  0  0
 27 28  1  0  0  0  0
 29 27  1  0  0  0  0
 30 29  1  0  0  0  0
 31 32  1  0  0  0  0
 31 29  2  0  0  0  0
 32 25  2  0  0  0  0
 33 34  1  0  0  0  0
 34 36  2  0  0  0  0
 34 35  2  0  0  0  0
M  END
>  <minimizedAffinity>
-5.45988703

$$$$

 OpenBabel03242522003D

 36 38  0  0  0  0  0  0  0  0999 V2000
   38.6730   25.6520   41.8040 C   0  0  0  0  0  0  0  0  0  0  0  0
   39.6160   25.7440   42.8250 C   0  0  0  0  0  0  0  0  0  0  0  0
   39.6630   26.7670   43.7700 C   0  0  0  0  0  0  0  0  0  0  0  0
   38.7100   27.7630   43.6930 C   0  0  0  0  0  0  0  0  0  0  0  0
   37.8040   27.6570   42.6970 C   0  0  0  0  0  0  0  0  0  0  0  0
   37.7840   26.6640   41.8070 N   0  0  0  0  0  0  0  0  0  0  0  0
   40.3390   24.9130   42.8180 H   0  0  0  0  0  0  0  0  0  0  0  0
   40.4800   26.6420   44.4770 H   0  0  0  0  0  0  0  0  0  0  0  0
   38.9160   28.4620   44.4810 H   0  0  0  0  0  0  0  0  0  0  0  0
   39.2440   23.4020   38.8500 C   0  0  0  0  0  0  0  0  0  0  0  0
   39.3940   24.5340   39.6700 C   0  0  0  0  0  0  0  0  0  0  0  0
   38.6630   24.5800   40.8290 C   0  0  0  0  0  0  0  0  0  0  0  0
   37.8340   23.5230   41.1190 N   0  0  0  0  0  0  0  0  0  0  0  0
   37.7090   22.4490   40.3150 C   0  0  0  0  0  0  0  0  0  0  0  0
   38.4200   22.4000   39.1820 N   0  0  0  0  0  0  0  0  0  0  0  0
   39.8500   23.4360   37.9570 H   0  0  0  0  0  0  0  0  0  0  0  0
   40.0320   25.3720   39.4720 H   0  0  0  0  0  0  0  0  0  0  0  0
   37.0250   21.6800   40.6480 H   0  0  0  0  0  0  0  0  0  0  0  0
   36.8400   28.6440   42.6040 O   0  0  0  0  0  0  0  0  0  0  0  0
   35.2590   28.4870   40.4940 O   0  0  0  0  0  0  0  0  0  0  0  0
   36.3500   29.3320   41.1230 P   0  0  1  0  0  0  0  0  0  0  0  0
   35.7600   30.8890   41.4060 O   0  0  0  0  0  0  0  0  0  0  0  0
   34.8190   30.8920   41.6850 H   0  0  0  0  0  0  0  0  0  0  0  0
   37.7020   29.3650   40.0980 O   0  0  0  0  0  0  0  0  0  0  0  0
   38.2200   31.1570   38.6820 C   0  0  0  0  0  0  0  0  0  0  0  0
   37.5810   29.9200   38.8320 C   0  0  0  0  0  0  0  0  0  0  0  0
   36.9100   29.3660   37.7630 C   0  0  0  0  0  0  0  0  0  0  0  0
   36.4380   28.4220   37.9230 H   0  0  0  0  0  0  0  0  0  0  0  0
   36.8440   29.9950   36.5370 C   0  0  0  0  0  0  0  0  0  0  0  0
   36.3040   29.5200   35.7250 H   0  0  0  0  0  0  0  0  0  0  0  0
   37.4700   31.2320   36.3500 C   0  0  0  0  0  3  0  0  0  0  0  0
   38.1320   31.7550   37.4410 C   0  0  0  0  0  3  0  0  0  0  0  0
   39.9970   31.1600   40.5590 H   0  0  0  0  0  0  0  0  0  0  0  0
   39.1130   31.9950   39.9350 S   0  0  0  0  0  0  0  0  0  0  0  0
   39.8610   33.1200   39.2790 O   0  0  0  0  0  0  0  0  0  0  0  0
   38.1650   32.6190   40.9210 O   0  0  0  0  0  0  0  0  0  0  0  0
  1  6  2  0  0  0  0
  1  2  1  0  0  0  0
  2  3  2  0  0  0  0
  3  8  1  0  0  0  0
  4  3  1  0  0  0  0
  4  9  1  0  0  0  0
  5  4  2  0  0  0  0
  6  5  1  0  0  0  0
  7  2  1  0  0  0  0
 10 15  2  0  0  0  0
 10 11  1  0  0  0  0
 11 12  2  0  0  0  0
 12 13  1  0  0  0  0
 12  1  1  0  0  0  0
 14 18  1  0  0  0  0
 14 13  2  0  0  0  0
 15 14  1  0  0  0  0
 16 10  1  0  0  0  0
 17 11  1  0  0  0  0
 19  5  1  0  0  0  0
 21 20  2  6  0  0  0
 21 22  1  0  0  0  0
 21 19  1  0  0  0  0
 22 23  1  0  0  0  0
 24 21  1  0  0  0  0
 25 26  1  0  0  0  0
 25 34  1  0  0  0  0
 26 24  1  0  0  0  0
 27 28  1  0  0  0  0
 27 26  2  0  0  0  0
 29 27  1  0  0  0  0
 30 29  1  0  0  0  0
 31 29  2  0  0  0  0
 31 32  1  0  0  0  0
 32 25  2  0  0  0  0
 34 33  1  0  0  0  0
 34 36  2  0  0  0  0
 35 34  2  0  0  0  0
M  END
>  <minimizedAffinity>
-5.45874786

$$$$
