REMARK  Name = 
REMARK  5 active torsions:
REMARK  status: ('A' for Active; 'I' for Inactive)
REMARK    1  A    between atoms: C_1  and  C_10
REMARK    2  A    between atoms: C_8  and  C_21
REMARK    3  A    between atoms: C_11  and  C_15
REMARK    4  A    between atoms: C_21  and  C_44
REMARK    5  A    between atoms: S_40  and  C_43
REMARK                            x       y       z     vdW  Elec       q    Type
REMARK                         _______ _______ _______ _____ _____    ______ ____
ROOT
ATOM      1  C   UNL     1      47.319  33.625  42.839  0.00  0.00    +0.000 C 
ATOM      2  O   UNL     1      48.422  33.414  43.440  0.00  0.00    +0.000 OA
ATOM      3  N   UNL     1      47.022  33.118  41.546  0.00  0.00    +0.000 N 
ATOM      4  C   UNL     1      45.809  32.496  41.022  0.00  0.00    +0.000 C 
ATOM      5  C   UNL     1      45.381  33.188  39.735  0.00  0.00    +0.000 C 
ATOM      6  C   UNL     1      46.423  33.026  38.677  0.00  0.00    +0.000 C 
ATOM      7  C   UNL     1      47.697  32.465  39.306  0.00  0.00    +0.000 C 
ATOM      8  C   UNL     1      48.057  33.192  40.542  0.00  0.00    +0.000 C 
ATOM      9  H   UNL     1      44.988  32.611  41.770  0.00  0.00    +0.000 HD
ATOM     10  H   UNL     1      45.943  31.427  40.781  0.00  0.00    +0.000 HD
ATOM     11  H   UNL     1      45.240  34.276  39.993  0.00  0.00    +0.000 HD
ATOM     12  H   UNL     1      44.409  32.711  39.449  0.00  0.00    +0.000 HD
ATOM     13  H   UNL     1      46.137  32.314  37.890  0.00  0.00    +0.000 HD
ATOM     14  H   UNL     1      46.677  33.981  38.160  0.00  0.00    +0.000 HD
ATOM     15  H   UNL     1      47.483  31.398  39.464  0.00  0.00    +0.000 HD
ATOM     16  H   UNL     1      48.488  32.610  38.546  0.00  0.00    +0.000 HD
ATOM     17  H   UNL     1      48.131  34.290  40.248  0.00  0.00    +0.000 HD
ENDROOT
BRANCH   1  19
ATOM     18  C   UNL     1      45.965  35.654  42.924  0.00  0.00    +0.000 A 
ATOM     19  C   UNL     1      46.335  34.420  43.515  0.00  0.00    +0.000 A 
ATOM     20  C   UNL     1      45.747  34.028  44.703  0.00  0.00    +0.000 A 
ATOM     21  N   UNL     1      44.833  34.855  45.251  0.00  0.00    +0.000 NA
ATOM     22  C   UNL     1      44.466  36.034  44.706  0.00  0.00    +0.000 A 
ATOM     23  N   UNL     1      45.043  36.416  43.543  0.00  0.00    +0.000 NA
ATOM     24  H   UNL     1      46.431  35.948  41.997  0.00  0.00    +0.000 HD
ATOM     25  H   UNL     1      43.727  36.657  45.189  0.00  0.00    +0.000 HD
BRANCH  20  26
ATOM     26  C   UNL     1      46.145  32.771  45.282  0.00  0.00    +0.000 A 
ATOM     27  C   UNL     1      45.773  31.599  44.715  0.00  0.00    +0.000 A 
ATOM     28  C   UNL     1      46.173  30.414  45.293  0.00  0.00    +0.000 A 
ATOM     29  C   UNL     1      46.950  30.363  46.445  0.00  0.00    +0.000 A 
ATOM     30  C   UNL     1      47.302  31.590  46.984  0.00  0.00    +0.000 A 
ATOM     31  N   UNL     1      46.899  32.731  46.401  0.00  0.00    +0.000 NA
ATOM     32  H   UNL     1      45.172  31.477  43.828  0.00  0.00    +0.000 HD
ATOM     33  H   UNL     1      45.912  29.440  44.894  0.00  0.00    +0.000 HD
ATOM     34  H   UNL     1      47.252  29.407  46.884  0.00  0.00    +0.000 HD
ATOM     35  H   UNL     1      47.913  31.578  47.891  0.00  0.00    +0.000 HD
ENDBRANCH  20  26
ENDBRANCH   1  19
BRANCH   8  36
ATOM     36  C   UNL     1      49.419  32.800  41.036  0.00  0.00    +0.000 C 
ATOM     37  H   UNL     1      49.803  33.574  41.770  0.00  0.00    +0.000 HD
ATOM     38  H   UNL     1      49.490  31.799  41.473  0.00  0.00    +0.000 HD
BRANCH  36  40
ATOM     39  C   UNL     1      50.469  33.720  38.866  0.00  0.00    +0.000 A 
ATOM     40  C   UNL     1      50.441  32.865  39.937  0.00  0.00    +0.000 A 
ATOM     41  C   UNL     1      51.560  32.019  40.002  0.00  0.00    +0.000 A 
ATOM     42  H   UNL     1      51.623  31.296  40.830  0.00  0.00    +0.000 HD
ATOM     43  C   UNL     1      52.619  31.994  39.119  0.00  0.00    +0.000 A 
ATOM     44  H   UNL     1      53.434  31.300  39.261  0.00  0.00    +0.000 HD
ATOM     45  C   UNL     1      52.569  32.888  38.071  0.00  0.00    +0.000 A 
ATOM     46  C   UNL     1      51.502  33.729  37.965  0.00  0.00    +0.000 A 
BRANCH  39  48
ATOM     47  H   UNL     1      48.013  34.491  39.281  0.00  0.00    +0.000 HD
ATOM     48  S   UNL     1      49.146  34.785  38.557  0.00  0.00    +0.000 S 
ATOM     49  O   UNL     1      48.719  34.633  37.101  0.00  0.00    +0.000 OA
ATOM     50  O   UNL     1      49.526  36.248  38.672  0.00  0.00    +0.000 OA
ENDBRANCH  39  48
ENDBRANCH  36  40
ENDBRANCH   8  36
TORSDOF 5
