REMARK  Name = 
REMARK  6 active torsions:
REMARK  status: ('A' for Active; 'I' for Inactive)
REMARK    1  A    between atoms: C_1  and  C_3
REMARK    2  A    between atoms: C_1  and  C_11
REMARK    3  A    between atoms: C_2  and  S_8
REMARK    4  A    between atoms: C_11  and  C_13
REMARK    5  A    between atoms: C_16  and  C_34
REMARK    6  A    between atoms: S_30  and  C_33
REMARK                            x       y       z     vdW  Elec       q    Type
REMARK                         _______ _______ _______ _____ _____    ______ ____
ROOT
ATOM      1  C   UNL     1      46.335  31.603  45.587  0.00  0.00    +0.000 C 
ATOM      2  H   UNL     1      46.200  30.666  44.966  0.00  0.00    +0.000 HD
ATOM      3  H   UNL     1      45.315  31.877  45.879  0.00  0.00    +0.000 HD
ENDROOT
BRANCH   1   5
ATOM      4  C   UNL     1      47.393  32.153  47.777  0.00  0.00    +0.000 A 
ATOM      5  C   UNL     1      47.169  31.237  46.711  0.00  0.00    +0.000 A 
ATOM      6  C   UNL     1      47.795  29.991  46.819  0.00  0.00    +0.000 A 
ATOM      7  N   UNL     1      48.566  29.733  47.913  0.00  0.00    +0.000 NA
ATOM      8  C   UNL     1      48.748  30.619  48.886  0.00  0.00    +0.000 A 
ATOM      9  N   UNL     1      48.173  31.812  48.823  0.00  0.00    +0.000 NA
ATOM     10  H   UNL     1      46.946  33.142  47.775  0.00  0.00    +0.000 HD
ATOM     11  H   UNL     1      47.666  29.252  46.045  0.00  0.00    +0.000 HD
BRANCH   8  13
ATOM     12  C   UNL     1      50.940  30.526  50.068  0.00  0.00    +0.000 A 
ATOM     13  C   UNL     1      49.585  30.283  50.032  0.00  0.00    +0.000 A 
ATOM     14  C   UNL     1      49.041  29.691  51.156  0.00  0.00    +0.000 A 
ATOM     15  H   UNL     1      47.977  29.460  51.218  0.00  0.00    +0.000 HD
ATOM     16  C   UNL     1      49.769  29.346  52.275  0.00  0.00    +0.000 A 
ATOM     17  H   UNL     1      49.341  28.883  53.153  0.00  0.00    +0.000 HD
ATOM     18  C   UNL     1      51.126  29.594  52.302  0.00  0.00    +0.000 A 
ATOM     19  C   UNL     1      51.672  30.184  51.182  0.00  0.00    +0.000 A 
BRANCH  12  21
ATOM     20  H   UNL     1      51.197  32.493  48.373  0.00  0.00    +0.000 HD
ATOM     21  S   UNL     1      51.717  31.272  48.692  0.00  0.00    +0.000 S 
ATOM     22  O   UNL     1      51.809  30.339  47.508  0.00  0.00    +0.000 OA
ATOM     23  O   UNL     1      53.170  31.566  49.049  0.00  0.00    +0.000 OA
ENDBRANCH  12  21
ENDBRANCH   8  13
ENDBRANCH   1   5
BRANCH   1  24
ATOM     24  C   UNL     1      47.068  32.665  44.791  0.00  0.00    +0.000 C 
ATOM     25  H   UNL     1      47.477  32.165  43.891  0.00  0.00    +0.000 HD
ATOM     26  H   UNL     1      47.988  33.031  45.337  0.00  0.00    +0.000 HD
BRANCH  24  28
ATOM     27  C   UNL     1      46.481  34.522  43.295  0.00  0.00    +0.000 A 
ATOM     28  C   UNL     1      46.275  33.859  44.487  0.00  0.00    +0.000 A 
ATOM     29  C   UNL     1      45.350  34.260  45.413  0.00  0.00    +0.000 A 
ATOM     30  C   UNL     1      44.589  35.379  45.142  0.00  0.00    +0.000 A 
ATOM     31  C   UNL     1      44.731  36.092  43.985  0.00  0.00    +0.000 A 
ATOM     32  C   UNL     1      45.690  35.628  43.088  0.00  0.00    +0.000 A 
ATOM     33  H   UNL     1      45.122  33.823  46.350  0.00  0.00    +0.000 HD
ATOM     34  H   UNL     1      43.828  35.774  45.819  0.00  0.00    +0.000 HD
ATOM     35  H   UNL     1      44.168  36.975  43.712  0.00  0.00    +0.000 HD
ATOM     36  H   UNL     1      45.822  36.180  42.159  0.00  0.00    +0.000 HD
BRANCH  27  37
ATOM     37  S   UNL     1      47.655  34.048  42.085  0.00  0.00    +0.000 S 
ATOM     38  O   UNL     1      48.998  34.715  42.301  0.00  0.00    +0.000 OA
ATOM     39  O   UNL     1      47.195  34.557  40.740  0.00  0.00    +0.000 OA
ATOM     40  H   UNL     1      47.799  32.712  41.953  0.00  0.00    +0.000 HD
ENDBRANCH  27  37
ENDBRANCH  24  28
ENDBRANCH   1  24
TORSDOF 6
