
 OpenBabel03252503503D

 24 25  0  0  0  0  0  0  0  0999 V2000
   47.5650   34.9370   42.1940 C   0  0  0  0  0  0  0  0  0  0  0  0
   47.7780   34.0880   43.2850 C   0  0  0  0  0  0  0  0  0  0  0  0
   46.6910   33.6250   44.0200 C   0  0  0  0  0  0  0  0  0  0  0  0
   45.4670   34.0370   43.6230 N   0  0  0  0  0  0  0  0  0  0  0  0
   45.2610   34.8610   42.5640 C   0  0  0  0  0  0  0  0  0  0  0  0
   46.3110   35.3090   41.8520 N   0  0  0  0  0  0  0  0  0  0  0  0
   48.7770   33.8070   43.5360 H   0  0  0  0  0  0  0  0  0  0  0  0
   44.2760   35.1800   42.2600 H   0  0  0  0  0  0  0  0  0  0  0  0
   47.1650   31.4050   44.9370 C   0  0  0  0  0  0  0  0  0  0  0  0
   46.8440   32.7400   45.1660 C   0  0  0  0  0  0  0  0  0  0  0  0
   46.6810   33.1830   46.4630 C   0  0  0  0  0  0  0  0  0  0  0  0
   46.4360   34.1930   46.7010 H   0  0  0  0  0  0  0  0  0  0  0  0
   46.8230   32.3550   47.5670 C   0  0  0  0  0  0  0  0  0  0  0  0
   46.6920   32.7200   48.5890 H   0  0  0  0  0  0  0  0  0  0  0  0
   47.1400   31.0280   47.3840 C   0  0  0  0  0  0  0  0  0  0  0  0
   47.2960   30.6130   46.0820 C   0  0  0  0  0  0  0  0  0  0  0  0
   46.6040   31.3090   42.3940 H   0  0  0  0  0  0  0  0  0  0  0  0
   47.3940   30.7300   43.3450 S   0  0  0  0  0  0  0  0  0  0  0  0
   46.9370   29.2780   43.4110 O   0  0  0  0  0  0  0  0  0  0  0  0
   48.8490   30.6790   42.9470 O   0  0  0  0  0  0  0  0  0  0  0  0
   48.7640   35.4010   41.4450 C   0  0  0  0  0  0  0  0  0  0  0  0
   48.5630   35.3890   40.0880 F   0  0  0  0  0  0  0  0  0  0  0  0
   49.0940   36.6770   41.9120 F   0  0  0  0  0  0  0  0  0  0  0  0
   49.8540   34.6060   41.7780 F   0  0  0  0  0  0  0  0  0  0  0  0
  1  2  1  0  0  0  0
  2  7  1  0  0  0  0
  2  3  2  0  0  0  0
  3 10  1  0  0  0  0
  4  3  1  0  0  0  0
  5  4  2  0  0  0  0
  6  1  2  0  0  0  0
  6  5  1  0  0  0  0
  8  5  1  0  0  0  0
  9 10  2  0  0  0  0
  9 16  1  0  0  0  0
 10 11  1  0  0  0  0
 11 12  1  0  0  0  0
 11 13  2  0  0  0  0
 13 14  1  0  0  0  0
 15 13  1  0  0  0  0
 16 15  2  0  0  0  0
 17 18  1  0  0  0  0
 18 19  2  0  0  0  0
 18  9  1  0  0  0  0
 20 18  2  0  0  0  0
 21 24  1  0  0  0  0
 21 23  1  0  0  0  0
 21  1  1  0  0  0  0
 22 21  1  0  0  0  0
M  END
>  <minimizedAffinity>
-5.0034833

>  <minimizedRMSD>
0.581966579

$$$$
