
     RDKit          3D

 39 41  0  0  0  0  0  0  0  0999 V2000
   44.6140   36.1924   43.9865 C   0  0  0  0  0  0  0  0  0  0  0  0
   44.8190   35.3810   45.1071 C   0  0  0  0  0  0  0  0  0  0  0  0
   45.5339   34.2062   44.9261 C   0  0  0  0  0  0  0  0  0  0  0  0
   45.9983   33.8969   43.6878 N   0  0  0  0  0  0  0  0  0  0  0  0
   45.7805   34.7101   42.6181 C   0  0  0  0  0  0  0  0  0  0  0  0
   45.0921   35.8486   42.7742 N   0  0  0  0  0  0  0  0  0  0  0  0
   48.5214   35.7009   42.0068 Cl  0  0  0  0  0  0  0  0  0  0  0  0
   47.5576   34.7126   40.9296 C   0  0  0  0  0  0  0  0  0  0  0  0
   46.3099   34.3140   41.3138 C   0  0  0  0  0  0  0  0  0  0  0  0
   45.5129   33.5215   40.4731 C   0  0  0  0  0  0  0  0  0  0  0  0
   46.0614   33.1820   39.2649 C   0  0  0  0  0  0  0  0  0  0  0  0
   47.3005   33.5775   38.8827 C   0  0  0  0  0  0  0  0  0  0  0  0
   48.0662   34.3448   39.7022 C   0  0  0  0  0  0  0  0  0  0  0  0
   45.7514   33.3425   46.1209 C   0  0  0  0  0  0  0  0  0  0  0  0
   46.8899   32.3549   45.9191 C   0  0  0  0  0  0  0  0  0  0  0  0
   44.0716   37.1258   44.0201 H   0  0  0  0  0  0  0  0  0  0  0  0
   44.4091   35.7249   46.0250 H   0  0  0  0  0  0  0  0  0  0  0  0
   44.5109   33.2118   40.8027 H   0  0  0  0  0  0  0  0  0  0  0  0
   45.3903   32.5648   38.6581 H   0  0  0  0  0  0  0  0  0  0  0  0
   47.6026   33.2356   37.9045 H   0  0  0  0  0  0  0  0  0  0  0  0
   49.0408   34.6292   39.3477 H   0  0  0  0  0  0  0  0  0  0  0  0
   44.8008   32.8511   46.3195 H   0  0  0  0  0  0  0  0  0  0  0  0
   46.0456   34.0083   46.9508 H   0  0  0  0  0  0  0  0  0  0  0  0
   46.5152   31.6689   45.1078 H   0  0  0  0  0  0  0  0  0  0  0  0
   47.7986   32.8532   45.5381 H   0  0  0  0  0  0  0  0  0  0  0  0
   47.6880   34.5312   47.3053 H   0  0  0  0  0  0  0  0  0  0  0  0
   48.2619   33.7293   48.2472 S   0  0  0  0  0  0  0  0  0  0  0  0
   47.8824   34.3096   49.5931 O   0  0  0  0  0  0  0  0  0  0  0  0
   49.7487   33.7661   48.1241 O   0  0  0  0  0  0  0  0  0  0  0  0
   47.7285   32.0834   48.1806 C   0  0  0  0  0  0  0  0  0  0  0  0
   47.1076   31.5010   47.0971 C   0  0  0  0  0  0  0  0  0  0  0  0
   46.7132   30.1592   47.1424 C   0  0  0  0  0  0  0  0  0  0  0  0
   46.2314   29.7537   46.2664 H   0  0  0  0  0  0  0  0  0  0  0  0
   46.9409   29.3908   48.2804 C   0  0  0  0  0  0  0  0  0  0  0  0
   46.6284   28.3409   48.3062 H   0  0  0  0  0  0  0  0  0  0  0  0
   47.5705   29.9959   49.3681 C   0  0  0  0  0  0  0  0  0  0  0  0
   47.9558   31.3157   49.3172 C   0  0  0  0  0  0  0  0  0  0  0  0
   47.7310   29.3705   50.2335 H   0  0  0  0  0  0  0  0  0  0  0  0
   48.4414   31.6777   50.2353 H   0  0  0  0  0  0  0  0  0  0  0  0
  1  2  2  0
  3  2  1  0
  3 14  1  0
  4  3  2  0
  5  6  2  0
  5  4  1  0
  6  1  1  0
  8  9  2  0
  8  7  1  0
  9  5  1  0
 10  9  1  0
 11 10  2  0
 12 11  1  0
 12 13  2  0
 13  8  1  0
 15 14  1  0
  1 16  1  0
  2 17  1  0
 10 18  1  0
 11 19  1  0
 12 20  1  0
 13 21  1  0
 14 22  1  0
 14 23  1  0
 15 24  1  0
 15 25  1  0
 26 27  1  0
 27 28  2  0
 27 29  2  0
 27 30  1  0
 30 31  2  0
 31 32  1  0
 32 33  1  0
 32 34  2  0
 34 35  1  0
 34 36  1  0
 36 37  2  0
 37 30  1  0
 36 38  1  0
 37 39  1  0
 15 31  1  0
M  ISO  8  16  14  17  14  18  14  19  14  20  14  21  14  22   8  23   8
M  ISO  5  24   8  25   8  26  12  33  15  35  16
M  END
>  <DihAtoms>  (1) 
13,14,30,29

>  <DihDeg>  (1) 
-179.9995486170149

$$$$
