
 OpenBabel03252504513D

 37 39  0  0  0  0  0  0  0  0999 V2000
   35.6300   29.0050   36.5280 C   0  0  0  0  0  0  0  0  0  0  0  0
   34.2260   28.9960   36.5350 C   0  0  0  0  0  0  0  0  0  0  0  0
   33.5970   28.7160   37.7380 C   0  0  0  0  0  0  0  0  0  0  0  0
   34.3840   28.4710   38.8240 N   0  0  0  0  0  0  0  0  0  0  0  0
   35.7140   28.4850   38.7920 C   0  0  0  0  0  0  0  0  0  0  0  0
   36.3450   28.7550   37.6320 N   0  0  0  0  0  0  0  0  0  0  0  0
   36.2130   29.2100   35.6320 H   0  0  0  0  0  0  0  0  0  0  0  0
   32.5230   28.6970   37.7950 H   0  0  0  0  0  0  0  0  0  0  0  0
   36.1860   30.9110   40.5920 Cl  0  0  0  0  0  0  0  0  0  0  0  0
   36.7580   29.2540   40.8770 C   0  0  0  0  0  0  0  0  0  0  0  0
   36.4900   28.2130   39.9960 C   0  0  0  0  0  0  0  0  0  0  0  0
   36.9440   26.9450   40.2440 C   0  0  0  0  0  0  0  0  0  0  0  0
   37.6830   26.6990   41.3940 C   0  0  0  0  0  0  0  0  0  0  0  0
   37.9290   27.7510   42.2400 C   0  0  0  0  0  0  0  0  0  0  0  0
   38.8610   27.4300   43.6800 Cl  0  0  0  0  0  0  0  0  0  0  0  0
   37.4920   29.0310   42.0280 C   0  0  0  0  0  0  0  0  0  0  0  0
   36.7550   26.1100   39.5820 H   0  0  0  0  0  0  0  0  0  0  0  0
   38.0640   25.7110   41.6310 H   0  0  0  0  0  0  0  0  0  0  0  0
   37.7280   29.8210   42.7500 H   0  0  0  0  0  0  0  0  0  0  0  0
   33.5120   29.2720   35.3000 C   0  0  0  0  0  0  0  0  0  0  0  0
   33.7240   30.3060   34.9610 H   0  0  0  0  0  0  0  0  0  0  0  0
   33.8830   28.6050   34.5160 H   0  0  0  0  0  0  0  0  0  0  0  0
   32.0300   29.1920   35.5560 C   0  0  0  0  0  0  0  0  0  0  0  0
   31.9220   28.7420   36.5780 H   0  0  0  0  0  0  0  0  0  0  0  0
   31.6510   28.3910   34.8670 H   0  0  0  0  0  0  0  0  0  0  0  0
   30.4050   30.8410   36.3620 C   0  0  0  0  0  0  0  0  0  0  0  0
   31.3190   30.4640   35.4000 C   0  0  0  0  0  0  0  0  0  0  0  0
   31.5770   31.2710   34.3090 C   0  0  0  0  0  0  0  0  0  0  0  0
   32.3120   30.9430   33.5580 H   0  0  0  0  0  0  0  0  0  0  0  0
   30.9500   32.4800   34.1160 C   0  0  0  0  0  0  0  0  0  0  0  0
   31.1870   33.0730   33.2450 H   0  0  0  0  0  0  0  0  0  0  0  0
   30.0370   32.8340   35.0980 C   0  0  0  0  0  3  0  0  0  0  0  0
   29.7490   32.0650   36.1970 C   0  0  0  0  0  3  0  0  0  0  0  0
   31.0880   29.2080   38.2580 H   0  0  0  0  0  0  0  0  0  0  0  0
   30.0000   29.9070   37.7610 S   0  0  0  0  0  0  0  0  0  0  0  0
   29.2940   30.6910   38.8300 O   0  0  0  0  0  0  0  0  0  0  0  0
   29.0080   28.8340   37.3360 O   0  0  0  0  0  0  0  0  0  0  0  0
  1  2  2  0  0  0  0
  1  6  1  0  0  0  0
  2  3  1  0  0  0  0
  3  8  1  0  0  0  0
  3  4  2  0  0  0  0
  5  4  1  0  0  0  0
  5 11  1  0  0  0  0
  6  5  2  0  0  0  0
  7  1  1  0  0  0  0
  9 10  1  0  0  0  0
 10 16  1  0  0  0  0
 11 12  1  0  0  0  0
 11 10  2  0  0  0  0
 12 13  2  0  0  0  0
 13 18  1  0  0  0  0
 13 14  1  0  0  0  0
 14 15  1  0  0  0  0
 16 14  2  0  0  0  0
 16 19  1  0  0  0  0
 17 12  1  0  0  0  0
 20 23  1  0  0  0  0
 20  2  1  0  0  0  0
 21 20  1  0  0  0  0
 22 20  1  0  0  0  0
 23 24  1  0  0  0  0
 25 23  1  0  0  0  0
 26 35  1  0  0  0  0
 27 23  1  0  0  0  0
 27 26  2  0  0  0  0
 28 27  1  0  0  0  0
 29 28  1  0  0  0  0
 30 28  2  0  0  0  0
 30 32  1  0  0  0  0
 31 30  1  0  0  0  0
 32 33  2  0  0  0  0
 33 26  1  0  0  0  0
 35 34  1  0  0  0  0
 35 36  2  0  0  0  0
 37 35  2  0  0  0  0
M  END
>  <minimizedAffinity>
-5.56169605

$$$$

 OpenBabel03252504513D

 37 39  0  0  0  0  0  0  0  0999 V2000
   34.8760   28.3640   37.4850 C   0  0  0  0  0  0  0  0  0  0  0  0
   34.6440   26.9880   37.3280 C   0  0  0  0  0  0  0  0  0  0  0  0
   33.4740   26.6080   36.6890 C   0  0  0  0  0  0  0  0  0  0  0  0
   32.6360   27.5950   36.2600 N   0  0  0  0  0  0  0  0  0  0  0  0
   32.8780   28.8940   36.4210 C   0  0  0  0  0  0  0  0  0  0  0  0
   34.0100   29.2830   37.0400 N   0  0  0  0  0  0  0  0  0  0  0  0
   35.7640   28.7590   37.9760 H   0  0  0  0  0  0  0  0  0  0  0  0
   33.2490   25.5670   36.5460 H   0  0  0  0  0  0  0  0  0  0  0  0
   30.9260   29.9490   38.5240 Cl  0  0  0  0  0  0  0  0  0  0  0  0
   31.0050   30.4300   36.8170 C   0  0  0  0  0  0  0  0  0  0  0  0
   31.9340   29.8920   35.9340 C   0  0  0  0  0  0  0  0  0  0  0  0
   31.9710   30.2840   34.6230 C   0  0  0  0  0  0  0  0  0  0  0  0
   31.0640   31.2350   34.1710 C   0  0  0  0  0  0  0  0  0  0  0  0
   30.1610   31.7440   35.0690 C   0  0  0  0  0  0  0  0  0  0  0  0
   29.0270   32.9360   34.4890 Cl  0  0  0  0  0  0  0  0  0  0  0  0
   30.0930   31.3780   36.3870 C   0  0  0  0  0  0  0  0  0  0  0  0
   32.6790   29.8870   33.9070 H   0  0  0  0  0  0  0  0  0  0  0  0
   31.0560   31.5750   33.1400 H   0  0  0  0  0  0  0  0  0  0  0  0
   29.3430   31.8300   37.0460 H   0  0  0  0  0  0  0  0  0  0  0  0
   35.6220   26.0440   37.8380 C   0  0  0  0  0  0  0  0  0  0  0  0
   35.1260   25.2980   38.4920 H   0  0  0  0  0  0  0  0  0  0  0  0
   36.0520   25.4860   37.0010 H   0  0  0  0  0  0  0  0  0  0  0  0
   36.6210   26.7770   38.6940 C   0  0  0  0  0  0  0  0  0  0  0  0
   36.3060   27.8540   38.6750 H   0  0  0  0  0  0  0  0  0  0  0  0
   37.5790   26.7670   38.1110 H   0  0  0  0  0  0  0  0  0  0  0  0
   36.8510   27.1130   41.1120 C   0  0  0  0  0  0  0  0  0  0  0  0
   36.7700   26.2370   40.0490 C   0  0  0  0  0  0  0  0  0  0  0  0
   36.8150   24.8710   40.2480 C   0  0  0  0  0  0  0  0  0  0  0  0
   36.7470   24.1980   39.3800 H   0  0  0  0  0  0  0  0  0  0  0  0
   36.9400   24.3070   41.4960 C   0  0  0  0  0  0  0  0  0  0  0  0
   36.9720   23.2320   41.5970 H   0  0  0  0  0  0  0  0  0  0  0  0
   37.0200   25.2100   42.5460 C   0  0  0  0  0  3  0  0  0  0  0  0
   36.9800   26.5730   42.3960 C   0  0  0  0  0  3  0  0  0  0  0  0
   37.6670   29.3060   39.9950 H   0  0  0  0  0  0  0  0  0  0  0  0
   36.8130   28.8370   40.9780 S   0  0  0  0  0  0  0  0  0  0  0  0
   35.4290   29.4040   40.8430 O   0  0  0  0  0  0  0  0  0  0  0  0
   37.3540   29.4200   42.2760 O   0  0  0  0  0  0  0  0  0  0  0  0
  1  7  1  0  0  0  0
  2  1  1  0  0  0  0
  2 20  1  0  0  0  0
  3  2  2  0  0  0  0
  4  5  2  0  0  0  0
  4  3  1  0  0  0  0
  5  6  1  0  0  0  0
  6  1  2  0  0  0  0
  8  3  1  0  0  0  0
 10  9  1  0  0  0  0
 11  5  1  0  0  0  0
 11 10  2  0  0  0  0
 12 11  1  0  0  0  0
 13 12  2  0  0  0  0
 13 14  1  0  0  0  0
 14 16  2  0  0  0  0
 15 14  1  0  0  0  0
 16 10  1  0  0  0  0
 16 19  1  0  0  0  0
 17 12  1  0  0  0  0
 18 13  1  0  0  0  0
 20 21  1  0  0  0  0
 20 23  1  0  0  0  0
 22 20  1  0  0  0  0
 23 27  1  0  0  0  0
 24 23  1  0  0  0  0
 25 23  1  0  0  0  0
 26 33  1  0  0  0  0
 27 28  1  0  0  0  0
 27 26  2  0  0  0  0
 28 30  2  0  0  0  0
 29 28  1  0  0  0  0
 30 31  1  0  0  0  0
 30 32  1  0  0  0  0
 33 32  2  0  0  0  0
 34 35  1  0  0  0  0
 35 26  1  0  0  0  0
 35 37  2  0  0  0  0
 36 35  2  0  0  0  0
M  END
>  <minimizedAffinity>
-5.54146671

$$$$

 OpenBabel03252504513D

 37 39  0  0  0  0  0  0  0  0999 V2000
   37.6760   27.3120   40.6220 C   0  0  0  0  0  0  0  0  0  0  0  0
   36.9510   28.2390   41.3880 C   0  0  0  0  0  0  0  0  0  0  0  0
   37.5660   28.7490   42.5210 C   0  0  0  0  0  0  0  0  0  0  0  0
   38.8270   28.3170   42.8070 N   0  0  0  0  0  0  0  0  0  0  0  0
   39.4940   27.4360   42.0660 C   0  0  0  0  0  0  0  0  0  0  0  0
   38.9130   26.9290   40.9610 N   0  0  0  0  0  0  0  0  0  0  0  0
   37.2770   26.8540   39.7190 H   0  0  0  0  0  0  0  0  0  0  0  0
   37.0520   29.4610   43.1410 H   0  0  0  0  0  0  0  0  0  0  0  0
   39.6900   24.6320   43.2660 Cl  0  0  0  0  0  0  0  0  0  0  0  0
   41.0320   25.7620   42.9920 C   0  0  0  0  0  0  0  0  0  0  0  0
   40.8420   27.0210   42.4360 C   0  0  0  0  0  0  0  0  0  0  0  0
   41.8970   27.8710   42.2370 C   0  0  0  0  0  0  0  0  0  0  0  0
   43.1760   27.4640   42.5960 C   0  0  0  0  0  0  0  0  0  0  0  0
   43.3260   26.2150   43.1420 C   0  0  0  0  0  0  0  0  0  0  0  0
   44.9370   25.7170   43.5910 Cl  0  0  0  0  0  0  0  0  0  0  0  0
   42.2970   25.3380   43.3570 C   0  0  0  0  0  0  0  0  0  0  0  0
   41.7880   28.8580   41.8070 H   0  0  0  0  0  0  0  0  0  0  0  0
   44.0410   28.1040   42.4570 H   0  0  0  0  0  0  0  0  0  0  0  0
   42.4950   24.3540   43.7980 H   0  0  0  0  0  0  0  0  0  0  0  0
   35.6110   28.6090   40.9670 C   0  0  0  0  0  0  0  0  0  0  0  0
   35.3090   28.0050   40.0870 H   0  0  0  0  0  0  0  0  0  0  0  0
   34.9050   28.3680   41.7680 H   0  0  0  0  0  0  0  0  0  0  0  0
   35.6090   30.0490   40.5280 C   0  0  0  0  0  0  0  0  0  0  0  0
   36.1260   30.6170   41.3460 H   0  0  0  0  0  0  0  0  0  0  0  0
   34.5400   30.3830   40.6030 H   0  0  0  0  0  0  0  0  0  0  0  0
   37.0930   31.3070   39.0370 C   0  0  0  0  0  0  0  0  0  0  0  0
   36.1880   30.2790   39.2010 C   0  0  0  0  0  0  0  0  0  0  0  0
   35.8350   29.4660   38.1420 C   0  0  0  0  0  0  0  0  0  0  0  0
   35.1100   28.6540   38.3050 H   0  0  0  0  0  0  0  0  0  0  0  0
   36.3540   29.6260   36.8790 C   0  0  0  0  0  0  0  0  0  0  0  0
   36.0440   28.9640   36.0840 H   0  0  0  0  0  0  0  0  0  0  0  0
   37.2620   30.6660   36.7410 C   0  0  0  0  0  3  0  0  0  0  0  0
   37.6410   31.4980   37.7640 C   0  0  0  0  0  3  0  0  0  0  0  0
   36.7550   32.3550   41.3850 H   0  0  0  0  0  0  0  0  0  0  0  0
   37.6000   32.3880   40.2880 S   0  0  0  0  0  0  0  0  0  0  0  0
   39.0410   32.2290   40.6800 O   0  0  0  0  0  0  0  0  0  0  0  0
   37.4900   33.8090   39.7530 O   0  0  0  0  0  0  0  0  0  0  0  0
  1  6  2  0  0  0  0
  1  2  1  0  0  0  0
  2  3  2  0  0  0  0
  3  4  1  0  0  0  0
  3  8  1  0  0  0  0
  5 11  1  0  0  0  0
  5  4  2  0  0  0  0
  6  5  1  0  0  0  0
  7  1  1  0  0  0  0
 10  9  1  0  0  0  0
 10 16  1  0  0  0  0
 11 10  2  0  0  0  0
 12 11  1  0  0  0  0
 12 13  2  0  0  0  0
 13 14  1  0  0  0  0
 14 16  2  0  0  0  0
 14 15  1  0  0  0  0
 16 19  1  0  0  0  0
 17 12  1  0  0  0  0
 18 13  1  0  0  0  0
 20  2  1  0  0  0  0
 20 22  1  0  0  0  0
 21 20  1  0  0  0  0
 23 25  1  0  0  0  0
 23 20  1  0  0  0  0
 23 24  1  0  0  0  0
 26 27  1  0  0  0  0
 26 35  1  0  0  0  0
 27 23  1  0  0  0  0
 28 29  1  0  0  0  0
 28 27  2  0  0  0  0
 30 28  1  0  0  0  0
 31 30  1  0  0  0  0
 32 30  2  0  0  0  0
 32 33  1  0  0  0  0
 33 26  2  0  0  0  0
 35 36  2  0  0  0  0
 35 34  1  0  0  0  0
 37 35  2  0  0  0  0
M  END
>  <minimizedAffinity>
-5.4816761

$$$$

 OpenBabel03252504513D

 37 39  0  0  0  0  0  0  0  0999 V2000
   38.7150   30.4480   40.4590 C   0  0  0  0  0  0  0  0  0  0  0  0
   37.4580   30.6530   39.8690 C   0  0  0  0  0  0  0  0  0  0  0  0
   37.4190   30.8140   38.4930 C   0  0  0  0  0  0  0  0  0  0  0  0
   38.6000   30.7610   37.8140 N   0  0  0  0  0  0  0  0  0  0  0  0
   39.7810   30.5660   38.3960 C   0  0  0  0  0  0  0  0  0  0  0  0
   39.8390   30.4070   39.7330 N   0  0  0  0  0  0  0  0  0  0  0  0
   38.8480   30.3140   41.5320 H   0  0  0  0  0  0  0  0  0  0  0  0
   36.4800   30.9750   37.9940 H   0  0  0  0  0  0  0  0  0  0  0  0
   41.2320   33.2420   38.1200 Cl  0  0  0  0  0  0  0  0  0  0  0  0
   41.7320   31.6900   37.4190 C   0  0  0  0  0  0  0  0  0  0  0  0
   41.0030   30.5210   37.6030 C   0  0  0  0  0  0  0  0  0  0  0  0
   41.4150   29.3380   37.0500 C   0  0  0  0  0  0  0  0  0  0  0  0
   42.5810   29.3090   36.2950 C   0  0  0  0  0  0  0  0  0  0  0  0
   43.2750   30.4810   36.1340 C   0  0  0  0  0  0  0  0  0  0  0  0
   44.7350   30.4320   35.1810 Cl  0  0  0  0  0  0  0  0  0  0  0  0
   42.8960   31.6820   36.6710 C   0  0  0  0  0  0  0  0  0  0  0  0
   40.8730   28.4090   37.1720 H   0  0  0  0  0  0  0  0  0  0  0  0
   42.9450   28.3950   35.8380 H   0  0  0  0  0  0  0  0  0  0  0  0
   43.5030   32.5790   36.4990 H   0  0  0  0  0  0  0  0  0  0  0  0
   36.2780   30.6900   40.7150 C   0  0  0  0  0  0  0  0  0  0  0  0
   36.5770   30.7250   41.7830 H   0  0  0  0  0  0  0  0  0  0  0  0
   35.7240   31.6130   40.5170 H   0  0  0  0  0  0  0  0  0  0  0  0
   35.4900   29.4220   40.5250 C   0  0  0  0  0  0  0  0  0  0  0  0
   35.2780   29.3570   39.4250 H   0  0  0  0  0  0  0  0  0  0  0  0
   34.4850   29.6220   40.9810 H   0  0  0  0  0  0  0  0  0  0  0  0
   36.4550   27.1900   40.2070 C   0  0  0  0  0  0  0  0  0  0  0  0
   36.1340   28.2210   41.0660 C   0  0  0  0  0  0  0  0  0  0  0  0
   36.4210   28.1380   42.4140 C   0  0  0  0  0  0  0  0  0  0  0  0
   36.1520   28.9780   43.0740 H   0  0  0  0  0  0  0  0  0  0  0  0
   37.0350   27.0440   42.9770 C   0  0  0  0  0  0  0  0  0  0  0  0
   37.2360   27.0280   44.0380 H   0  0  0  0  0  0  0  0  0  0  0  0
   37.3470   26.0230   42.0910 C   0  0  0  0  0  3  0  0  0  0  0  0
   37.0810   26.0610   40.7460 C   0  0  0  0  0  3  0  0  0  0  0  0
   35.0780   28.0100   38.1680 H   0  0  0  0  0  0  0  0  0  0  0  0
   36.1370   27.1840   38.5070 S   0  0  0  0  0  0  0  0  0  0  0  0
   37.3500   27.4450   37.6610 O   0  0  0  0  0  0  0  0  0  0  0  0
   35.6780   25.7850   38.1210 O   0  0  0  0  0  0  0  0  0  0  0  0
  1  7  1  0  0  0  0
  2  1  1  0  0  0  0
  2 20  1  0  0  0  0
  3  2  2  0  0  0  0
  4  5  2  0  0  0  0
  4  3  1  0  0  0  0
  5  6  1  0  0  0  0
  6  1  2  0  0  0  0
  8  3  1  0  0  0  0
 10 11  1  0  0  0  0
 10  9  1  0  0  0  0
 11  5  1  0  0  0  0
 12 17  1  0  0  0  0
 12 11  2  0  0  0  0
 13 12  1  0  0  0  0
 14 13  2  0  0  0  0
 14 16  1  0  0  0  0
 15 14  1  0  0  0  0
 16 10  2  0  0  0  0
 18 13  1  0  0  0  0
 19 16  1  0  0  0  0
 20 21  1  0  0  0  0
 22 20  1  0  0  0  0
 23 20  1  0  0  0  0
 23 25  1  0  0  0  0
 23 27  1  0  0  0  0
 24 23  1  0  0  0  0
 26 33  2  0  0  0  0
 26 27  1  0  0  0  0
 27 28  2  0  0  0  0
 28 30  1  0  0  0  0
 28 29  1  0  0  0  0
 30 31  1  0  0  0  0
 32 30  2  0  0  0  0
 33 32  1  0  0  0  0
 34 35  1  0  0  0  0
 35 26  1  0  0  0  0
 36 35  2  0  0  0  0
 37 35  2  0  0  0  0
M  END
>  <minimizedAffinity>
-5.43706036

$$$$

 OpenBabel03252504513D

 37 39  0  0  0  0  0  0  0  0999 V2000
   35.7860   28.8910   41.1620 C   0  0  0  0  0  0  0  0  0  0  0  0
   36.5610   27.7670   41.4870 C   0  0  0  0  0  0  0  0  0  0  0  0
   37.2670   27.1620   40.4580 C   0  0  0  0  0  0  0  0  0  0  0  0
   37.1580   27.7000   39.2110 N   0  0  0  0  0  0  0  0  0  0  0  0
   36.4160   28.7680   38.9270 C   0  0  0  0  0  0  0  0  0  0  0  0
   35.7220   29.3700   39.9130 N   0  0  0  0  0  0  0  0  0  0  0  0
   35.1950   29.4320   41.8990 H   0  0  0  0  0  0  0  0  0  0  0  0
   37.8750   26.2970   40.6560 H   0  0  0  0  0  0  0  0  0  0  0  0
   34.2670   27.4890   37.1680 Cl  0  0  0  0  0  0  0  0  0  0  0  0
   35.4040   28.7660   36.6900 C   0  0  0  0  0  0  0  0  0  0  0  0
   36.3490   29.2870   37.5670 C   0  0  0  0  0  0  0  0  0  0  0  0
   37.2120   30.2730   37.1700 C   0  0  0  0  0  0  0  0  0  0  0  0
   37.1390   30.7590   35.8690 C   0  0  0  0  0  0  0  0  0  0  0  0
   36.1950   30.2210   35.0320 C   0  0  0  0  0  0  0  0  0  0  0  0
   36.1150   30.8370   33.4020 Cl  0  0  0  0  0  0  0  0  0  0  0  0
   35.3150   29.2360   35.3920 C   0  0  0  0  0  0  0  0  0  0  0  0
   37.9600   30.7020   37.8230 H   0  0  0  0  0  0  0  0  0  0  0  0
   37.8030   31.5380   35.5110 H   0  0  0  0  0  0  0  0  0  0  0  0
   34.5870   28.8560   34.6670 H   0  0  0  0  0  0  0  0  0  0  0  0
   36.5840   27.2970   42.8610 C   0  0  0  0  0  0  0  0  0  0  0  0
   35.5990   27.4760   43.3390 H   0  0  0  0  0  0  0  0  0  0  0  0
   36.7410   26.2140   42.8660 H   0  0  0  0  0  0  0  0  0  0  0  0
   37.5980   28.0910   43.6410 C   0  0  0  0  0  0  0  0  0  0  0  0
   37.2880   28.0070   44.7160 H   0  0  0  0  0  0  0  0  0  0  0  0
   37.3970   29.1650   43.3860 H   0  0  0  0  0  0  0  0  0  0  0  0
   39.8730   28.6360   42.9090 C   0  0  0  0  0  0  0  0  0  0  0  0
   38.9890   27.6980   43.4020 C   0  0  0  0  0  0  0  0  0  0  0  0
   39.4020   26.4090   43.6800 C   0  0  0  0  0  0  0  0  0  0  0  0
   38.6720   25.6840   44.0720 H   0  0  0  0  0  0  0  0  0  0  0  0
   40.6960   25.9860   43.4880 C   0  0  0  0  0  0  0  0  0  0  0  0
   40.9670   24.9670   43.7200 H   0  0  0  0  0  0  0  0  0  0  0  0
   41.5630   26.9490   42.9920 C   0  0  0  0  0  3  0  0  0  0  0  0
   41.1980   28.2390   42.7020 C   0  0  0  0  0  3  0  0  0  0  0  0
   38.3570   30.7170   43.2220 H   0  0  0  0  0  0  0  0  0  0  0  0
   39.4650   30.2710   42.5200 S   0  0  0  0  0  0  0  0  0  0  0  0
   40.6200   31.2250   42.6220 O   0  0  0  0  0  0  0  0  0  0  0  0
   39.0440   30.3130   41.0580 O   0  0  0  0  0  0  0  0  0  0  0  0
  1  2  1  0  0  0  0
  1  7  1  0  0  0  0
  2 20  1  0  0  0  0
  3  8  1  0  0  0  0
  3  2  2  0  0  0  0
  4  3  1  0  0  0  0
  5  4  2  0  0  0  0
  5  6  1  0  0  0  0
  6  1  2  0  0  0  0
 10  9  1  0  0  0  0
 10 11  1  0  0  0  0
 11  5  1  0  0  0  0
 12 11  2  0  0  0  0
 12 17  1  0  0  0  0
 13 12  1  0  0  0  0
 14 16  1  0  0  0  0
 14 13  2  0  0  0  0
 15 14  1  0  0  0  0
 16 10  2  0  0  0  0
 18 13  1  0  0  0  0
 19 16  1  0  0  0  0
 20 22  1  0  0  0  0
 20 21  1  0  0  0  0
 20 23  1  0  0  0  0
 23 24  1  0  0  0  0
 25 23  1  0  0  0  0
 26 27  1  0  0  0  0
 27 23  1  0  0  0  0
 27 28  2  0  0  0  0
 28 29  1  0  0  0  0
 30 28  1  0  0  0  0
 30 31  1  0  0  0  0
 32 30  2  0  0  0  0
 33 26  2  0  0  0  0
 33 32  1  0  0  0  0
 35 36  2  0  0  0  0
 35 26  1  0  0  0  0
 35 34  1  0  0  0  0
 37 35  2  0  0  0  0
M  END
>  <minimizedAffinity>
-5.40207148

$$$$

 OpenBabel03252504513D

 37 39  0  0  0  0  0  0  0  0999 V2000
   33.5980   26.6250   36.7410 C   0  0  0  0  0  0  0  0  0  0  0  0
   34.7920   27.0110   37.3700 C   0  0  0  0  0  0  0  0  0  0  0  0
   35.0370   28.3700   37.4920 C   0  0  0  0  0  0  0  0  0  0  0  0
   34.1030   29.2300   36.9950 N   0  0  0  0  0  0  0  0  0  0  0  0
   32.9780   28.8400   36.4010 C   0  0  0  0  0  0  0  0  0  0  0  0
   32.7220   27.5230   36.2730 N   0  0  0  0  0  0  0  0  0  0  0  0
   33.3200   25.5830   36.5960 H   0  0  0  0  0  0  0  0  0  0  0  0
   35.9380   28.7170   37.9660 H   0  0  0  0  0  0  0  0  0  0  0  0
   30.9760   29.8750   38.4660 Cl  0  0  0  0  0  0  0  0  0  0  0  0
   31.0740   30.3480   36.7580 C   0  0  0  0  0  0  0  0  0  0  0  0
   32.0260   29.8190   35.8930 C   0  0  0  0  0  0  0  0  0  0  0  0
   32.0770   30.2040   34.5800 C   0  0  0  0  0  0  0  0  0  0  0  0
   31.1630   31.1380   34.1080 C   0  0  0  0  0  0  0  0  0  0  0  0
   30.2380   31.6370   34.9890 C   0  0  0  0  0  0  0  0  0  0  0  0
   29.0930   32.8060   34.3830 Cl  0  0  0  0  0  0  0  0  0  0  0  0
   30.1540   31.2780   36.3070 C   0  0  0  0  0  0  0  0  0  0  0  0
   32.8030   29.8150   33.8780 H   0  0  0  0  0  0  0  0  0  0  0  0
   31.1660   31.4710   33.0750 H   0  0  0  0  0  0  0  0  0  0  0  0
   29.3870   31.7210   36.9520 H   0  0  0  0  0  0  0  0  0  0  0  0
   35.7010   25.9860   37.8520 C   0  0  0  0  0  0  0  0  0  0  0  0
   35.1920   25.3490   38.6040 H   0  0  0  0  0  0  0  0  0  0  0  0
   35.9720   25.3290   37.0200 H   0  0  0  0  0  0  0  0  0  0  0  0
   36.8630   26.6410   38.5500 C   0  0  0  0  0  0  0  0  0  0  0  0
   36.8160   27.7260   38.2670 H   0  0  0  0  0  0  0  0  0  0  0  0
   37.7790   26.2650   38.0230 H   0  0  0  0  0  0  0  0  0  0  0  0
   36.9380   27.5070   40.8420 C   0  0  0  0  0  0  0  0  0  0  0  0
   36.9050   26.4160   39.9980 C   0  0  0  0  0  0  0  0  0  0  0  0
   36.8990   25.1290   40.4990 C   0  0  0  0  0  0  0  0  0  0  0  0
   36.8720   24.2800   39.7990 H   0  0  0  0  0  0  0  0  0  0  0  0
   36.9240   24.8570   41.8470 C   0  0  0  0  0  0  0  0  0  0  0  0
   36.9190   23.8320   42.1870 H   0  0  0  0  0  0  0  0  0  0  0  0
   36.9560   25.9710   42.6730 C   0  0  0  0  0  3  0  0  0  0  0  0
   36.9640   27.2660   42.2200 C   0  0  0  0  0  3  0  0  0  0  0  0
   36.7550   29.2830   38.9610 H   0  0  0  0  0  0  0  0  0  0  0  0
   36.9560   29.1570   40.3260 S   0  0  0  0  0  0  0  0  0  0  0  0
   36.0440   30.0510   41.1160 O   0  0  0  0  0  0  0  0  0  0  0  0
   38.3550   29.7080   40.5660 O   0  0  0  0  0  0  0  0  0  0  0  0
  1  2  1  0  0  0  0
  2  3  2  0  0  0  0
  2 20  1  0  0  0  0
  3  8  1  0  0  0  0
  4  3  1  0  0  0  0
  5  4  2  0  0  0  0
  6  5  1  0  0  0  0
  6  1  2  0  0  0  0
  7  1  1  0  0  0  0
 10  9  1  0  0  0  0
 11  5  1  0  0  0  0
 11 10  2  0  0  0  0
 12 11  1  0  0  0  0
 13 12  2  0  0  0  0
 13 14  1  0  0  0  0
 14 16  2  0  0  0  0
 15 14  1  0  0  0  0
 16 10  1  0  0  0  0
 16 19  1  0  0  0  0
 17 12  1  0  0  0  0
 18 13  1  0  0  0  0
 20 23  1  0  0  0  0
 20 21  1  0  0  0  0
 22 20  1  0  0  0  0
 23 27  1  0  0  0  0
 24 23  1  0  0  0  0
 25 23  1  0  0  0  0
 26 33  1  0  0  0  0
 27 28  1  0  0  0  0
 27 26  2  0  0  0  0
 28 30  2  0  0  0  0
 29 28  1  0  0  0  0
 30 31  1  0  0  0  0
 30 32  1  0  0  0  0
 33 32  2  0  0  0  0
 34 35  1  0  0  0  0
 35 37  2  0  0  0  0
 35 26  1  0  0  0  0
 35 36  2  0  0  0  0
M  END
>  <minimizedAffinity>
-5.32759523

$$$$

 OpenBabel03252504513D

 37 39  0  0  0  0  0  0  0  0999 V2000
   33.7500   28.9010   38.2510 C   0  0  0  0  0  0  0  0  0  0  0  0
   35.1000   28.7050   37.9220 C   0  0  0  0  0  0  0  0  0  0  0  0
   35.4470   28.7850   36.5820 C   0  0  0  0  0  0  0  0  0  0  0  0
   34.4540   29.0480   35.6840 N   0  0  0  0  0  0  0  0  0  0  0  0
   33.1800   29.2290   36.0220 C   0  0  0  0  0  0  0  0  0  0  0  0
   32.8230   29.1560   37.3190 N   0  0  0  0  0  0  0  0  0  0  0  0
   33.3810   28.8550   39.2750 H   0  0  0  0  0  0  0  0  0  0  0  0
   36.4680   28.6410   36.2780 H   0  0  0  0  0  0  0  0  0  0  0  0
   32.0100   26.7540   34.6620 Cl  0  0  0  0  0  0  0  0  0  0  0  0
   31.5840   28.4450   34.3290 C   0  0  0  0  0  0  0  0  0  0  0  0
   32.1740   29.5070   35.0040 C   0  0  0  0  0  0  0  0  0  0  0  0
   31.8240   30.8020   34.7260 C   0  0  0  0  0  0  0  0  0  0  0  0
   30.8650   31.0530   33.7520 C   0  0  0  0  0  0  0  0  0  0  0  0
   30.3050   29.9810   33.1060 C   0  0  0  0  0  0  0  0  0  0  0  0
   29.1040   30.3100   31.8840 Cl  0  0  0  0  0  0  0  0  0  0  0  0
   30.6270   28.6740   33.3560 C   0  0  0  0  0  0  0  0  0  0  0  0
   32.2610   31.6540   35.2300 H   0  0  0  0  0  0  0  0  0  0  0  0
   30.5570   32.0620   33.4980 H   0  0  0  0  0  0  0  0  0  0  0  0
   30.1360   27.8690   32.7980 H   0  0  0  0  0  0  0  0  0  0  0  0
   36.0530   28.4290   38.9820 C   0  0  0  0  0  0  0  0  0  0  0  0
   35.9480   27.3790   39.3240 H   0  0  0  0  0  0  0  0  0  0  0  0
   37.0690   28.5260   38.5850 H   0  0  0  0  0  0  0  0  0  0  0  0
   35.7470   29.3060   40.1670 C   0  0  0  0  0  0  0  0  0  0  0  0
   34.6380   29.2350   40.3190 H   0  0  0  0  0  0  0  0  0  0  0  0
   35.9020   30.3580   39.8080 H   0  0  0  0  0  0  0  0  0  0  0  0
   37.5890   29.8020   41.7070 C   0  0  0  0  0  0  0  0  0  0  0  0
   36.5230   28.9930   41.3700 C   0  0  0  0  0  0  0  0  0  0  0  0
   36.1780   27.9090   42.1530 C   0  0  0  0  0  0  0  0  0  0  0  0
   35.3220   27.2820   41.8580 H   0  0  0  0  0  0  0  0  0  0  0  0
   36.8610   27.5740   43.2990 C   0  0  0  0  0  0  0  0  0  0  0  0
   36.5500   26.7150   43.8760 H   0  0  0  0  0  0  0  0  0  0  0  0
   37.9260   28.4030   43.6140 C   0  0  0  0  0  3  0  0  0  0  0  0
   38.3060   29.4890   42.8670 C   0  0  0  0  0  3  0  0  0  0  0  0
   37.0510   31.8960   40.2740 H   0  0  0  0  0  0  0  0  0  0  0  0
   38.1130   31.1760   40.7980 S   0  0  0  0  0  0  0  0  0  0  0  0
   39.0850   32.0550   41.5320 O   0  0  0  0  0  0  0  0  0  0  0  0
   38.8780   30.6700   39.5820 O   0  0  0  0  0  0  0  0  0  0  0  0
  1  7  1  0  0  0  0
  2  1  1  0  0  0  0
  2 20  1  0  0  0  0
  3  2  2  0  0  0  0
  4  5  2  0  0  0  0
  4  3  1  0  0  0  0
  5  6  1  0  0  0  0
  6  1  2  0  0  0  0
  8  3  1  0  0  0  0
 10  9  1  0  0  0  0
 10 11  1  0  0  0  0
 11  5  1  0  0  0  0
 12 11  2  0  0  0  0
 12 17  1  0  0  0  0
 13 12  1  0  0  0  0
 14 16  1  0  0  0  0
 14 13  2  0  0  0  0
 15 14  1  0  0  0  0
 16 10  2  0  0  0  0
 18 13  1  0  0  0  0
 19 16  1  0  0  0  0
 20 21  1  0  0  0  0
 20 23  1  0  0  0  0
 22 20  1  0  0  0  0
 23 24  1  0  0  0  0
 23 27  1  0  0  0  0
 25 23  1  0  0  0  0
 26 33  1  0  0  0  0
 27 26  2  0  0  0  0
 27 28  1  0  0  0  0
 28 30  2  0  0  0  0
 29 28  1  0  0  0  0
 30 32  1  0  0  0  0
 30 31  1  0  0  0  0
 33 32  2  0  0  0  0
 34 35  1  0  0  0  0
 35 36  2  0  0  0  0
 35 26  1  0  0  0  0
 37 35  2  0  0  0  0
M  END
>  <minimizedAffinity>
-5.30506706

$$$$

 OpenBabel03252504513D

 37 39  0  0  0  0  0  0  0  0999 V2000
   35.4050   29.3390   36.9720 C   0  0  0  0  0  0  0  0  0  0  0  0
   34.3960   28.8780   37.8310 C   0  0  0  0  0  0  0  0  0  0  0  0
   34.5340   29.1560   39.1830 C   0  0  0  0  0  0  0  0  0  0  0  0
   35.6360   29.8560   39.5770 N   0  0  0  0  0  0  0  0  0  0  0  0
   36.5800   30.2820   38.7420 C   0  0  0  0  0  0  0  0  0  0  0  0
   36.4640   30.0220   37.4250 N   0  0  0  0  0  0  0  0  0  0  0  0
   35.3870   29.1670   35.8970 H   0  0  0  0  0  0  0  0  0  0  0  0
   33.7890   28.8240   39.8820 H   0  0  0  0  0  0  0  0  0  0  0  0
   39.0060   28.5670   39.4630 Cl  0  0  0  0  0  0  0  0  0  0  0  0
   38.8820   30.3330   39.5940 C   0  0  0  0  0  0  0  0  0  0  0  0
   37.7310   31.0270   39.2390 C   0  0  0  0  0  0  0  0  0  0  0  0
   37.6660   32.3900   39.3510 C   0  0  0  0  0  0  0  0  0  0  0  0
   38.7700   33.0870   39.8270 C   0  0  0  0  0  0  0  0  0  0  0  0
   39.8880   32.3700   40.1680 C   0  0  0  0  0  0  0  0  0  0  0  0
   41.2660   33.2570   40.7680 Cl  0  0  0  0  0  0  0  0  0  0  0  0
   39.9910   31.0090   40.0710 C   0  0  0  0  0  0  0  0  0  0  0  0
   36.7880   32.9640   39.0840 H   0  0  0  0  0  0  0  0  0  0  0  0
   38.7630   34.1670   39.9330 H   0  0  0  0  0  0  0  0  0  0  0  0
   40.9200   30.5040   40.3630 H   0  0  0  0  0  0  0  0  0  0  0  0
   33.2770   28.1390   37.2750 C   0  0  0  0  0  0  0  0  0  0  0  0
   33.6410   27.2270   36.7600 H   0  0  0  0  0  0  0  0  0  0  0  0
   32.6310   27.7990   38.0910 H   0  0  0  0  0  0  0  0  0  0  0  0
   32.5930   28.9840   36.2330 C   0  0  0  0  0  0  0  0  0  0  0  0
   32.2060   28.2650   35.4640 H   0  0  0  0  0  0  0  0  0  0  0  0
   33.4180   29.5290   35.7010 H   0  0  0  0  0  0  0  0  0  0  0  0
   31.0790   30.8930   35.9550 C   0  0  0  0  0  0  0  0  0  0  0  0
   31.5640   29.8840   36.7620 C   0  0  0  0  0  0  0  0  0  0  0  0
   31.0840   29.7080   38.0450 C   0  0  0  0  0  0  0  0  0  0  0  0
   31.4910   28.8930   38.6640 H   0  0  0  0  0  0  0  0  0  0  0  0
   30.1110   30.5110   38.5900 C   0  0  0  0  0  0  0  0  0  0  0  0
   29.7710   30.3320   39.6000 H   0  0  0  0  0  0  0  0  0  0  0  0
   29.6410   31.5170   37.7580 C   0  0  0  0  0  3  0  0  0  0  0  0
   30.0880   31.7290   36.4780 C   0  0  0  0  0  3  0  0  0  0  0  0
   32.9780   31.0400   34.1940 H   0  0  0  0  0  0  0  0  0  0  0  0
   31.6110   31.2080   34.3400 S   0  0  0  0  0  0  0  0  0  0  0  0
   30.8350   30.4660   33.2900 O   0  0  0  0  0  0  0  0  0  0  0  0
   31.3660   32.6820   34.0450 O   0  0  0  0  0  0  0  0  0  0  0  0
  1  6  2  0  0  0  0
  1  2  1  0  0  0  0
  2  3  2  0  0  0  0
  3  4  1  0  0  0  0
  3  8  1  0  0  0  0
  5 11  1  0  0  0  0
  5  4  2  0  0  0  0
  6  5  1  0  0  0  0
  7  1  1  0  0  0  0
  9 10  1  0  0  0  0
 10 16  1  0  0  0  0
 11 12  1  0  0  0  0
 11 10  2  0  0  0  0
 12 13  2  0  0  0  0
 13 18  1  0  0  0  0
 13 14  1  0  0  0  0
 14 15  1  0  0  0  0
 16 14  2  0  0  0  0
 16 19  1  0  0  0  0
 17 12  1  0  0  0  0
 20  2  1  0  0  0  0
 20 22  1  0  0  0  0
 21 20  1  0  0  0  0
 23 27  1  0  0  0  0
 23 20  1  0  0  0  0
 24 23  1  0  0  0  0
 25 23  1  0  0  0  0
 26 33  2  0  0  0  0
 26 27  1  0  0  0  0
 27 28  2  0  0  0  0
 28 30  1  0  0  0  0
 28 29  1  0  0  0  0
 30 31  1  0  0  0  0
 32 30  2  0  0  0  0
 33 32  1  0  0  0  0
 34 35  1  0  0  0  0
 35 26  1  0  0  0  0
 36 35  2  0  0  0  0
 37 35  2  0  0  0  0
M  END
>  <minimizedAffinity>
-5.26663637

$$$$

 OpenBabel03252504513D

 37 39  0  0  0  0  0  0  0  0999 V2000
   36.2550   28.3040   38.9780 C   0  0  0  0  0  0  0  0  0  0  0  0
   36.4140   26.9140   38.8770 C   0  0  0  0  0  0  0  0  0  0  0  0
   35.5280   26.2290   38.0600 C   0  0  0  0  0  0  0  0  0  0  0  0
   34.5690   26.9540   37.4150 N   0  0  0  0  0  0  0  0  0  0  0  0
   34.4380   28.2730   37.5280 C   0  0  0  0  0  0  0  0  0  0  0  0
   35.2900   28.9570   38.3180 N   0  0  0  0  0  0  0  0  0  0  0  0
   36.8990   28.9280   39.5970 H   0  0  0  0  0  0  0  0  0  0  0  0
   35.6070   25.1620   37.9500 H   0  0  0  0  0  0  0  0  0  0  0  0
   35.0170   28.7600   34.5660 Cl  0  0  0  0  0  0  0  0  0  0  0  0
   33.5600   29.2500   35.4540 C   0  0  0  0  0  0  0  0  0  0  0  0
   33.3870   28.9800   36.8060 C   0  0  0  0  0  0  0  0  0  0  0  0
   32.2510   29.3710   37.4650 C   0  0  0  0  0  0  0  0  0  0  0  0
   31.2580   30.0460   36.7660 C   0  0  0  0  0  0  0  0  0  0  0  0
   31.4620   30.2950   35.4320 C   0  0  0  0  0  0  0  0  0  0  0  0
   30.2090   31.1450   34.5670 Cl  0  0  0  0  0  0  0  0  0  0  0  0
   32.5830   29.9210   34.7400 C   0  0  0  0  0  0  0  0  0  0  0  0
   32.0820   29.1780   38.5160 H   0  0  0  0  0  0  0  0  0  0  0  0
   30.3420   30.3740   37.2460 H   0  0  0  0  0  0  0  0  0  0  0  0
   32.6750   30.1550   33.6730 H   0  0  0  0  0  0  0  0  0  0  0  0
   37.4790   26.2680   39.6240 C   0  0  0  0  0  0  0  0  0  0  0  0
   37.5910   25.2160   39.2940 H   0  0  0  0  0  0  0  0  0  0  0  0
   38.4270   26.7670   39.4000 H   0  0  0  0  0  0  0  0  0  0  0  0
   37.1090   26.2300   41.0830 C   0  0  0  0  0  0  0  0  0  0  0  0
   36.2940   25.4640   41.1700 H   0  0  0  0  0  0  0  0  0  0  0  0
   36.5880   27.2020   41.2850 H   0  0  0  0  0  0  0  0  0  0  0  0
   38.8920   27.0670   42.5430 C   0  0  0  0  0  0  0  0  0  0  0  0
   38.2370   25.9870   41.9880 C   0  0  0  0  0  0  0  0  0  0  0  0
   38.6210   24.6940   42.2830 C   0  0  0  0  0  0  0  0  0  0  0  0
   38.0790   23.8530   41.8240 H   0  0  0  0  0  0  0  0  0  0  0  0
   39.6620   24.4050   43.1330 C   0  0  0  0  0  0  0  0  0  0  0  0
   39.9250   23.3760   43.3300 H   0  0  0  0  0  0  0  0  0  0  0  0
   40.3030   25.5080   43.6770 C   0  0  0  0  0  3  0  0  0  0  0  0
   39.9560   26.8090   43.4130 C   0  0  0  0  0  3  0  0  0  0  0  0
   38.4010   29.0010   40.8860 H   0  0  0  0  0  0  0  0  0  0  0  0
   38.5000   28.7240   42.2390 S   0  0  0  0  0  0  0  0  0  0  0  0
   37.3060   29.2160   43.0060 O   0  0  0  0  0  0  0  0  0  0  0  0
   39.6630   29.5770   42.7280 O   0  0  0  0  0  0  0  0  0  0  0  0
  1  7  1  0  0  0  0
  2  1  1  0  0  0  0
  2 20  1  0  0  0  0
  3  2  2  0  0  0  0
  4  5  2  0  0  0  0
  4  3  1  0  0  0  0
  5  6  1  0  0  0  0
  6  1  2  0  0  0  0
  8  3  1  0  0  0  0
  9 10  1  0  0  0  0
 10 11  1  0  0  0  0
 11 12  2  0  0  0  0
 11  5  1  0  0  0  0
 12 17  1  0  0  0  0
 13 18  1  0  0  0  0
 13 12  1  0  0  0  0
 14 13  2  0  0  0  0
 15 14  1  0  0  0  0
 16 14  1  0  0  0  0
 16 10  2  0  0  0  0
 19 16  1  0  0  0  0
 20 23  1  0  0  0  0
 21 20  1  0  0  0  0
 22 20  1  0  0  0  0
 23 24  1  0  0  0  0
 23 25  1  0  0  0  0
 23 27  1  0  0  0  0
 26 33  1  0  0  0  0
 27 28  1  0  0  0  0
 27 26  2  0  0  0  0
 28 30  2  0  0  0  0
 29 28  1  0  0  0  0
 30 31  1  0  0  0  0
 30 32  1  0  0  0  0
 33 32  2  0  0  0  0
 34 35  1  0  0  0  0
 35 26  1  0  0  0  0
 35 37  2  0  0  0  0
 35 36  2  0  0  0  0
M  END
>  <minimizedAffinity>
-5.22734451

$$$$
