
 OpenBabel03252506423D

 43 46  0  0  1  0  0  0  0  0999 V2000
   49.5000   33.4360   41.4670 N   0  0  1  0  0  0  0  0  0  0  0  0
   50.7210   33.1220   42.1410 C   0  0  0  0  0  0  0  0  0  0  0  0
   51.3130   31.7990   41.8260 C   0  0  0  0  0  0  0  0  0  0  0  0
   50.3820   30.7040   42.2490 C   0  0  0  0  0  0  0  0  0  0  0  0
   48.9670   31.1330   42.0880 C   0  0  0  0  0  0  0  0  0  0  0  0
   48.7980   32.2170   41.1050 C   0  0  2  0  0  0  0  0  0  0  0  0
   50.5480   33.1350   43.2540 H   0  0  0  0  0  0  0  0  0  0  0  0
   51.5270   33.8870   41.9410 H   0  0  0  0  0  0  0  0  0  0  0  0
   51.7670   31.6570   40.8510 H   0  0  0  0  0  0  0  0  0  0  0  0
   52.2020   31.7030   42.5410 H   0  0  0  0  0  0  0  0  0  0  0  0
   50.6000   29.7540   41.6780 H   0  0  0  0  0  0  0  0  0  0  0  0
   50.5510   30.4370   43.3150 H   0  0  0  0  0  0  0  0  0  0  0  0
   48.3950   30.2470   41.8660 H   0  0  0  0  0  0  0  0  0  0  0  0
   48.5660   31.5170   43.0680 H   0  0  0  0  0  0  0  0  0  0  0  0
   47.7240   32.5710   41.2760 H   0  0  0  0  0  0  0  0  0  0  0  0
   47.6090   31.7730   39.0010 C   0  0  0  0  0  0  0  0  0  0  0  0
   48.8340   31.9060   39.6780 C   0  0  0  0  0  0  0  0  0  0  0  0
   49.9960   31.7490   38.9060 C   0  0  0  0  0  0  0  0  0  0  0  0
   50.9570   31.8590   39.3910 H   0  0  0  0  0  0  0  0  0  0  0  0
   50.0350   31.4820   37.5760 C   0  0  0  0  0  0  0  0  0  0  0  0
   50.9690   31.3720   37.0420 H   0  0  0  0  0  0  0  0  0  0  0  0
   48.8540   31.3480   36.8970 C   0  0  0  0  0  3  0  0  0  0  0  0
   47.6910   31.4960   37.6260 C   0  0  0  0  0  3  0  0  0  0  0  0
   45.0520   31.2520   38.9920 H   0  0  0  0  0  0  0  0  0  0  0  0
   46.0510   31.9140   39.7060 S   0  0  0  0  0  0  0  0  0  0  0  0
   45.9360   31.6880   41.1600 O   0  0  0  0  0  0  0  0  0  0  0  0
   45.5820   33.3680   39.5600 O   0  0  0  0  0  0  0  0  0  0  0  0
   47.3550   34.7590   41.9830 C   0  0  1  0  0  0  0  0  0  0  0  0
   48.4740   35.6570   41.7910 C   0  0  0  0  0  0  0  0  0  0  0  0
   48.7610   34.3010   42.3470 C   0  0  2  0  0  0  0  0  0  0  0  0
   46.9410   34.1530   41.1380 H   0  0  0  0  0  0  0  0  0  0  0  0
   48.5440   36.5290   42.5000 H   0  0  0  0  0  0  0  0  0  0  0  0
   48.8510   35.9360   40.7970 H   0  0  0  0  0  0  0  0  0  0  0  0
   49.0040   34.2230   43.4210 H   0  0  0  0  0  0  0  0  0  0  0  0
   45.5700   36.1090   43.1510 C   0  0  0  0  0  0  0  0  0  0  0  0
   46.3870   34.9460   43.0920 C   0  0  0  0  0  0  0  0  0  0  0  0
   46.2390   34.0180   44.1060 C   0  0  0  0  0  0  0  0  0  0  0  0
   45.3270   34.2830   45.0770 N   0  0  0  0  0  0  0  0  0  0  0  0
   44.5650   35.3930   45.1080 C   0  0  0  0  0  0  0  0  0  0  0  0
   44.6800   36.3310   44.1310 N   0  0  0  0  0  0  0  0  0  0  0  0
   45.7330   36.8010   42.3250 H   0  0  0  0  0  0  0  0  0  0  0  0
   46.8330   33.1150   44.1150 H   0  0  0  0  0  0  0  0  0  0  0  0
   43.8540   35.5500   45.9100 H   0  0  0  0  0  0  0  0  0  0  0  0
  1  2  1  1  0  0  0
  1 30  1  0  0  0  0
  2  7  1  0  0  0  0
  3  2  1  0  0  0  0
  3  4  1  0  0  0  0
  3 10  1  0  0  0  0
  4 12  1  0  0  0  0
  5  4  1  0  0  0  0
  5 14  1  0  0  0  0
  6 15  1  1  0  0  0
  6  1  1  0  0  0  0
  6  5  1  0  0  0  0
  8  2  1  0  0  0  0
  9  3  1  0  0  0  0
 11  4  1  0  0  0  0
 13  5  1  0  0  0  0
 16 17  1  0  0  0  0
 16 25  1  0  0  0  0
 17  6  1  0  0  0  0
 18 19  1  0  0  0  0
 18 17  2  0  0  0  0
 20 18  1  0  0  0  0
 21 20  1  0  0  0  0
 22 20  2  0  0  0  0
 22 23  1  0  0  0  0
 23 16  2  0  0  0  0
 24 25  1  0  0  0  0
 25 26  2  0  0  0  0
 27 25  2  0  0  0  0
 28 31  1  6  0  0  0
 28 30  1  0  0  0  0
 28 36  1  0  0  0  0
 29 28  1  0  0  0  0
 29 30  1  0  0  0  0
 29 32  1  0  0  0  0
 30 34  1  1  0  0  0
 33 29  1  0  0  0  0
 35 40  1  0  0  0  0
 36 35  2  0  0  0  0
 36 37  1  0  0  0  0
 37 42  1  0  0  0  0
 37 38  2  0  0  0  0
 38 39  1  0  0  0  0
 39 43  1  0  0  0  0
 40 39  2  0  0  0  0
 41 35  1  0  0  0  0
M  END
>  <minimizedAffinity>
-5.07290077

>  <minimizedRMSD>
2.33667374

$$$$
