
     RDKit          3D

 52 55  0  0  0  0  0  0  0  0999 V2000
   43.2046   33.2292   41.1464 C   0  0  0  0  0  0  0  0  0  0  0  0
   44.2297   34.0778   41.7787 C   0  0  0  0  0  0  0  0  0  0  0  0
   43.8805   35.2538   42.4000 C   0  0  0  0  0  0  0  0  0  0  0  0
   44.8820   36.0228   42.9709 C   0  0  0  0  0  0  0  0  0  0  0  0
   46.1725   35.5688   42.8884 N   0  0  0  0  0  0  0  0  0  0  0  0
   46.4750   34.4305   42.2846 C   0  0  0  0  0  0  0  0  0  0  0  0
   45.4878   33.7077   41.7394 N   0  0  0  0  0  0  0  0  0  0  0  0
   47.8731   34.0057   42.2650 C   0  0  0  0  0  0  0  0  0  0  0  0
   48.2040   32.6740   42.0294 C   0  0  0  0  0  0  0  0  0  0  0  0
   49.5283   32.2896   42.0186 C   0  0  0  0  0  0  0  0  0  0  0  0
   50.4234   33.3056   42.2517 C   0  0  0  0  0  0  0  0  0  0  0  0
   50.1401   34.6506   42.4921 C   0  0  0  0  0  0  0  0  0  0  0  0
   48.8165   34.9466   42.4862 N   0  0  0  0  0  0  0  0  0  0  0  0
   41.9060   33.9482   41.2059 C   0  0  0  0  0  0  0  0  0  0  0  0
   41.0021   33.5107   40.3210 N   0  0  0  0  0  0  0  0  0  0  0  0
   40.3256   32.2503   40.3319 C   0  0  0  0  0  0  0  0  0  0  0  0
   38.9524   32.7207   40.8077 C   0  0  0  0  0  0  0  0  0  0  0  0
   38.3272   33.6916   39.9246 C   0  0  0  0  0  0  0  0  0  0  0  0
   39.1710   34.4994   39.0710 C   0  0  0  0  0  0  0  0  0  0  0  0
   40.6657   34.4690   39.2469 C   0  0  0  0  0  0  0  0  0  0  0  0
   41.7742   35.4065   38.3346 S   0  0  0  0  0  0  0  0  0  0  0  0
   43.4942   32.9197   40.1026 H   0  0  0  0  0  0  0  0  0  0  0  0
   43.1406   32.2858   41.7540 H   0  0  0  0  0  0  0  0  0  0  0  0
   42.9496   35.7624   42.5828 H   0  0  0  0  0  0  0  0  0  0  0  0
   44.8019   36.9685   43.4954 H   0  0  0  0  0  0  0  0  0  0  0  0
   47.4405   31.9269   41.8531 H   0  0  0  0  0  0  0  0  0  0  0  0
   49.8757   31.2985   41.8480 H   0  0  0  0  0  0  0  0  0  0  0  0
   51.4919   33.0620   42.2556 H   0  0  0  0  0  0  0  0  0  0  0  0
   50.9186   35.3663   42.6632 H   0  0  0  0  0  0  0  0  0  0  0  0
   42.1882   35.0479   41.0620 H   0  0  0  0  0  0  0  0  0  0  0  0
   41.5412   33.9168   42.2554 H   0  0  0  0  0  0  0  0  0  0  0  0
   40.2578   31.6802   39.4230 H   0  0  0  0  0  0  0  0  0  0  0  0
   40.7682   31.6020   41.1131 H   0  0  0  0  0  0  0  0  0  0  0  0
   38.3384   31.7747   40.8530 H   0  0  0  0  0  0  0  0  0  0  0  0
   39.0810   33.0211   41.8630 H   0  0  0  0  0  0  0  0  0  0  0  0
   37.6965   34.3851   40.5401 H   0  0  0  0  0  0  0  0  0  0  0  0
   37.5889   33.1740   39.2443 H   0  0  0  0  0  0  0  0  0  0  0  0
   38.8160   35.1475   38.3245 H   0  0  0  0  0  0  0  0  0  0  0  0
   39.6974   38.0949   40.4694 H   0  0  0  0  0  0  0  0  0  0  0  0
   39.5366   36.9972   39.6520 S   0  0  0  0  0  0  0  0  0  0  0  0
   40.2375   35.7988   40.2130 O   0  0  0  0  0  0  0  0  0  0  0  0
   38.0858   36.7335   39.4501 O   0  0  0  0  0  0  0  0  0  0  0  0
   40.2617   37.3677   38.0774 C   0  0  0  0  0  0  0  0  0  0  0  0
   41.2814   36.7212   37.3418 C   0  0  0  0  0  0  0  0  0  0  0  0
   41.5836   37.2959   36.1509 C   0  0  0  0  0  0  0  0  0  0  0  0
   42.3328   36.7580   35.6408 H   0  0  0  0  0  0  0  0  0  0  0  0
   41.0255   38.4058   35.5964 C   0  0  0  0  0  0  0  0  0  0  0  0
   41.3855   38.7213   34.6474 H   0  0  0  0  0  0  0  0  0  0  0  0
   40.0414   38.9954   36.3510 C   0  0  0  0  0  0  0  0  0  0  0  0
   39.6282   38.5179   37.5860 C   0  0  0  0  0  0  0  0  0  0  0  0
   39.6159   39.8846   35.8741 H   0  0  0  0  0  0  0  0  0  0  0  0
   38.8470   39.1329   37.9980 H   0  0  0  0  0  0  0  0  0  0  0  0
  1 14  1  0
  1  2  1  0
  2  3  2  0
  3  4  1  0
  5  4  2  0
  6  5  1  0
  7  2  1  0
  7  6  2  0
  8  6  1  0
  8 13  1  0
  9  8  2  0
 10  9  1  0
 10 11  2  0
 11 12  1  0
 13 12  2  0
 15 14  1  0
 16 15  1  0
 16 17  1  0
 18 17  1  0
 19 20  2  0
 19 18  1  0
 20 15  1  0
 21 20  1  0
  1 22  1  0
  1 23  1  0
  3 24  1  0
  4 25  1  0
  9 26  1  0
 10 27  1  0
 11 28  1  0
 12 29  1  0
 14 30  1  0
 14 31  1  0
 16 32  1  0
 16 33  1  0
 17 34  1  0
 17 35  1  0
 18 36  1  0
 18 37  1  0
 19 38  1  0
 39 40  1  0
 40 41  2  0
 40 42  2  0
 40 43  1  0
 43 44  2  0
 44 45  1  0
 45 46  1  0
 45 47  2  0
 47 48  1  0
 47 49  1  0
 49 50  2  0
 50 43  1  0
 49 51  1  0
 50 52  1  0
 21 44  1  0
M  ISO  8  22   8  23   8  24  14  25  14  26  14  27  14  28  14  29  14
M  ISO  8  30   8  31   8  32  13  33  13  34  13  35  13  36  13  37  13
M  ISO  4  38  13  39  12  46  15  48  16
M  END
>  <DihAtoms>  (1) 
19,20,43,42

>  <DihDeg>  (1) 
-170.8789670187465

$$$$
