
 OpenBabel03252508073D

 47 50  0  0  0  0  0  0  0  0999 V2000
   45.4160   35.7340   42.8410 C   0  0  0  0  0  0  0  0  0  0  0  0
   45.6490   34.3740   42.9520 C   0  0  0  0  0  0  0  0  0  0  0  0
   45.3700   33.7210   44.1280 C   0  0  0  0  0  0  0  0  0  0  0  0
   44.8550   34.4840   45.1570 N   0  0  0  0  0  0  0  0  0  0  0  0
   44.6320   35.7910   45.0460 C   0  0  0  0  0  0  0  0  0  0  0  0
   44.9180   36.4040   43.8780 N   0  0  0  0  0  0  0  0  0  0  0  0
   45.6230   36.2850   41.9300 H   0  0  0  0  0  0  0  0  0  0  0  0
   44.2270   36.3620   45.8750 H   0  0  0  0  0  0  0  0  0  0  0  0
   45.5500   32.3450   44.3990 C   0  0  0  0  0  0  0  0  0  0  0  0
   45.0710   31.3170   43.5810 C   0  0  0  0  0  0  0  0  0  0  0  0
   45.1850   29.9830   43.8760 C   0  0  0  0  0  0  0  0  0  0  0  0
   45.8040   29.5910   45.0410 C   0  0  0  0  0  0  0  0  0  0  0  0
   46.2960   30.6180   45.8800 C   0  0  0  0  0  0  0  0  0  0  0  0
   46.9120   30.2460   47.0500 C   0  0  0  0  0  0  0  0  0  0  0  0
   47.4150   31.1920   47.9190 C   0  0  0  0  0  0  0  0  0  0  0  0
   47.2950   32.5540   47.5960 C   0  0  0  0  0  0  0  0  0  0  0  0
   46.6570   32.8930   46.3890 C   0  0  0  0  0  0  0  0  0  0  0  0
   46.1650   31.9290   45.5520 C   0  0  0  0  0  0  0  0  0  0  0  0
   44.5830   31.6250   42.6610 H   0  0  0  0  0  0  0  0  0  0  0  0
   44.7910   29.2300   43.1970 H   0  0  0  0  0  0  0  0  0  0  0  0
   45.9260   28.5570   45.3360 H   0  0  0  0  0  0  0  0  0  0  0  0
   46.9970   29.1900   47.2820 H   0  0  0  0  0  0  0  0  0  0  0  0
   47.8870   30.8270   48.8240 H   0  0  0  0  0  0  0  0  0  0  0  0
   47.7170   33.2220   48.3300 H   0  0  0  0  0  0  0  0  0  0  0  0
   46.6830   33.9590   46.3130 H   0  0  0  0  0  0  0  0  0  0  0  0
   46.1570   33.7350   41.8540 O   0  0  0  0  0  0  0  0  0  0  0  0
   48.0840   31.9640   41.8360 O   0  0  0  0  0  0  0  0  0  0  0  0
   47.8010   33.4070   41.6080 P   0  0  1  0  0  0  0  0  0  0  0  0
   48.2520   33.7500   40.0110 O   0  0  0  0  0  0  0  0  0  0  0  0
   48.4790   32.0670   38.3750 C   0  0  0  0  0  0  0  0  0  0  0  0
   47.6780   33.0240   38.9760 C   0  0  0  0  0  0  0  0  0  0  0  0
   46.3890   33.2020   38.5290 C   0  0  0  0  0  0  0  0  0  0  0  0
   45.7730   33.9380   38.9910 H   0  0  0  0  0  0  0  0  0  0  0  0
   45.8990   32.4330   37.4900 C   0  0  0  0  0  0  0  0  0  0  0  0
   44.8770   32.5920   37.1540 H   0  0  0  0  0  0  0  0  0  0  0  0
   46.6820   31.4710   36.8750 C   0  0  0  0  0  3  0  0  0  0  0  0
   47.9740   31.2980   37.3310 C   0  0  0  0  0  3  0  0  0  0  0  0
   50.5600   32.5380   39.8390 H   0  0  0  0  0  0  0  0  0  0  0  0
   50.1310   31.7210   38.8270 S   0  0  0  0  0  0  0  0  0  0  0  0
   51.0180   31.8850   37.6090 O   0  0  0  0  0  0  0  0  0  0  0  0
   50.2700   30.3030   39.3010 O   0  0  0  0  0  0  0  0  0  0  0  0
   48.6940   34.3760   42.6440 O   0  0  0  0  0  0  0  0  0  0  0  0
   49.8050   35.1360   42.3170 C   0  0  0  0  0  0  0  0  0  0  0  0
   49.3390   36.2160   41.9070 O   0  0  0  0  0  0  0  0  0  0  0  0
   51.0200   34.4040   42.5700 N   0  0  0  0  0  0  0  0  0  0  0  0
   51.2510   34.2440   43.5960 H   0  0  0  0  0  0  0  0  0  0  0  0
   51.7090   34.0050   41.8860 H   0  0  0  0  0  0  0  0  0  0  0  0
  1  2  2  0  0  0  0
  1  6  1  0  0  0  0
  2  3  1  0  0  0  0
  3  9  1  0  0  0  0
  3  4  2  0  0  0  0
  5  4  1  0  0  0  0
  5  8  1  0  0  0  0
  6  5  2  0  0  0  0
  7  1  1  0  0  0  0
  9 18  1  0  0  0  0
 10 11  1  0  0  0  0
 10  9  2  0  0  0  0
 11 12  2  0  0  0  0
 12 21  1  0  0  0  0
 12 13  1  0  0  0  0
 13 14  1  0  0  0  0
 14 22  1  0  0  0  0
 14 15  2  0  0  0  0
 15 23  1  0  0  0  0
 16 15  1  0  0  0  0
 16 24  1  0  0  0  0
 17 16  2  0  0  0  0
 18 13  2  0  0  0  0
 18 17  1  0  0  0  0
 19 10  1  0  0  0  0
 20 11  1  0  0  0  0
 25 17  1  0  0  0  0
 26  2  1  0  0  0  0
 28 27  2  1  0  0  0
 28 26  1  0  0  0  0
 28 42  1  0  0  0  0
 29 28  1  0  0  0  0
 30 39  1  0  0  0  0
 30 31  1  0  0  0  0
 31 29  1  0  0  0  0
 32 31  2  0  0  0  0
 32 33  1  0  0  0  0
 34 32  1  0  0  0  0
 35 34  1  0  0  0  0
 36 37  1  0  0  0  0
 36 34  2  0  0  0  0
 37 30  2  0  0  0  0
 39 41  2  0  0  0  0
 39 38  1  0  0  0  0
 40 39  2  0  0  0  0
 43 45  1  0  0  0  0
 43 42  1  0  0  0  0
 44 43  2  0  0  0  0
 45 46  1  0  0  0  0
 47 45  1  0  0  0  0
M  END
>  <minimizedAffinity>
-5.78470182

>  <minimizedRMSD>
0.898279727

$$$$
