
 OpenBabel03252503503D

 24 25  0  0  0  0  0  0  0  0999 V2000
   47.2630   34.9270   42.5250 C   0  0  0  0  0  0  0  0  0  0  0  0
   47.3800   33.9210   43.4900 C   0  0  0  0  0  0  0  0  0  0  0  0
   46.3530   33.7250   44.4070 C   0  0  0  0  0  0  0  0  0  0  0  0
   45.2800   34.5390   44.3060 N   0  0  0  0  0  0  0  0  0  0  0  0
   45.1670   35.5150   43.3700 C   0  0  0  0  0  0  0  0  0  0  0  0
   46.1590   35.7070   42.4810 N   0  0  0  0  0  0  0  0  0  0  0  0
   48.2600   33.3180   43.5050 H   0  0  0  0  0  0  0  0  0  0  0  0
   44.3020   36.1580   43.3020 H   0  0  0  0  0  0  0  0  0  0  0  0
   45.9760   31.4120   45.1210 C   0  0  0  0  0  0  0  0  0  0  0  0
   46.4120   32.6960   45.4370 C   0  0  0  0  0  0  0  0  0  0  0  0
   46.8860   32.9550   46.7070 C   0  0  0  0  0  0  0  0  0  0  0  0
   47.2330   33.9180   47.0080 H   0  0  0  0  0  0  0  0  0  0  0  0
   46.9510   31.9880   47.6990 C   0  0  0  0  0  0  0  0  0  0  0  0
   47.3290   32.2070   48.7020 H   0  0  0  0  0  0  0  0  0  0  0  0
   46.5290   30.7070   47.4280 C   0  0  0  0  0  3  0  0  0  0  0  0
   46.0620   30.4750   46.1550 C   0  0  0  0  0  3  0  0  0  0  0  0
   44.5050   31.8930   43.0230 H   0  0  0  0  0  0  0  0  0  0  0  0
   45.3590   30.9650   43.5510 S   0  0  0  0  0  0  0  0  0  0  0  0
   44.5110   29.7150   43.7500 O   0  0  0  0  0  0  0  0  0  0  0  0
   46.4540   30.5650   42.5950 O   0  0  0  0  0  0  0  0  0  0  0  0
   48.3920   35.0930   41.5700 C   0  0  0  0  0  0  0  0  0  0  0  0
   47.9860   34.9740   40.2640 F   0  0  0  0  0  0  0  0  0  0  0  0
   48.9870   36.3330   41.8200 F   0  0  0  0  0  0  0  0  0  0  0  0
   49.3800   34.1580   41.8540 F   0  0  0  0  0  0  0  0  0  0  0  0
  1  2  1  0  0  0  0
  2  7  1  0  0  0  0
  2  3  2  0  0  0  0
  3 10  1  0  0  0  0
  4  3  1  0  0  0  0
  5  4  2  0  0  0  0
  6  1  2  0  0  0  0
  6  5  1  0  0  0  0
  8  5  1  0  0  0  0
  9 10  2  0  0  0  0
  9 16  1  0  0  0  0
 10 11  1  0  0  0  0
 11 12  1  0  0  0  0
 11 13  2  0  0  0  0
 13 14  1  0  0  0  0
 15 13  1  0  0  0  0
 16 15  2  0  0  0  0
 17 18  1  0  0  0  0
 18 19  2  0  0  0  0
 18  9  1  0  0  0  0
 20 18  2  0  0  0  0
 21 23  1  0  0  0  0
 21 24  1  0  0  0  0
 21  1  1  0  0  0  0
 22 21  1  0  0  0  0
M  END
>  <minimizedAffinity>
-4.94769192

>  <minimizedRMSD>
0.680483758

$$$$
