
 OpenBabel03252506343D

 36 38  0  0  1  0  0  0  0  0999 V2000
   44.4670   35.7410   44.9850 C   0  0  0  0  0  0  0  0  0  0  0  0
   45.1300   35.7280   43.7470 C   0  0  0  0  0  0  0  0  0  0  0  0
   46.0490   34.7550   43.5090 C   0  0  0  0  0  0  0  0  0  0  0  0
   46.2610   33.8590   44.4960 N   0  0  0  0  0  0  0  0  0  0  0  0
   45.6340   33.8710   45.6690 C   0  0  0  0  0  0  0  0  0  0  0  0
   44.7180   34.8120   45.9490 N   0  0  0  0  0  0  0  0  0  0  0  0
   45.9540   32.8690   46.6220 N   0  0  0  0  0  0  0  0  0  0  0  0
   45.1530   32.5580   47.8030 C   0  0  0  0  0  0  0  0  0  0  0  0
   46.2440   32.2710   48.8280 C   0  0  0  0  0  0  0  0  0  0  0  0
   47.5430   32.1460   48.0760 C   0  0  0  0  0  0  0  0  0  0  0  0
   47.0900   31.9730   46.6440 C   0  0  1  0  0  0  0  0  0  0  0  0
   43.7150   36.4890   45.2510 H   0  0  0  0  0  0  0  0  0  0  0  0
   46.5270   34.7760   42.5650 H   0  0  0  0  0  0  0  0  0  0  0  0
   44.4880   31.6960   47.6420 H   0  0  0  0  0  0  0  0  0  0  0  0
   44.5970   33.4320   48.1730 H   0  0  0  0  0  0  0  0  0  0  0  0
   45.9970   31.2990   49.2950 H   0  0  0  0  0  0  0  0  0  0  0  0
   46.2600   33.0140   49.6390 H   0  0  0  0  0  0  0  0  0  0  0  0
   48.1490   31.2740   48.4270 H   0  0  0  0  0  0  0  0  0  0  0  0
   48.0840   33.1050   48.1930 H   0  0  0  0  0  0  0  0  0  0  0  0
   47.9140   32.3070   46.0040 H   0  0  0  0  0  0  0  0  0  0  0  0
   44.7320   36.7880   42.8710 N   0  0  0  0  0  0  0  0  0  0  0  0
   43.7890   37.0130   42.5200 H   0  0  0  0  0  0  0  0  0  0  0  0
   45.6520   37.2690   42.6830 H   0  0  0  0  0  0  0  0  0  0  0  0
   46.6000   30.2540   46.4150 S   0  0  0  0  0  0  0  0  0  0  0  0
   44.7850   29.2650   44.4720 C   0  0  0  0  0  0  0  0  0  0  0  0
   45.9360   29.9500   44.7890 C   0  0  0  0  0  0  0  0  0  0  0  0
   46.7150   30.4940   43.7640 C   0  0  0  0  0  0  0  0  0  0  0  0
   47.6400   31.0500   43.9210 H   0  0  0  0  0  0  0  0  0  0  0  0
   46.3170   30.3350   42.4490 C   0  0  0  0  0  0  0  0  0  0  0  0
   46.9090   30.7490   41.6450 H   0  0  0  0  0  0  0  0  0  0  0  0
   45.1700   29.6530   42.1190 C   0  0  0  0  0  3  0  0  0  0  0  0
   44.4160   29.1250   43.1480 C   0  0  0  0  0  3  0  0  0  0  0  0
   43.9530   29.5070   46.8810 H   0  0  0  0  0  0  0  0  0  0  0  0
   43.8930   28.6320   45.8340 S   0  0  0  0  0  0  0  0  0  0  0  0
   42.4260   28.5180   45.4490 O   0  0  0  0  0  0  0  0  0  0  0  0
   44.3140   27.2480   46.2140 O   0  0  0  0  0  0  0  0  0  0  0  0
  1 12  1  0  0  0  0
  1  6  1  0  0  0  0
  2  1  2  0  0  0  0
  3  2  1  0  0  0  0
  3  4  2  0  0  0  0
  4  5  1  0  0  0  0
  5  6  2  0  0  0  0
  5  7  1  0  0  0  0
  7 11  1  0  0  0  0
  7  8  1  0  0  0  0
  8 15  1  0  0  0  0
  8  9  1  0  0  0  0
  9 16  1  0  0  0  0
  9 17  1  0  0  0  0
 10 19  1  0  0  0  0
 10 18  1  0  0  0  0
 10  9  1  0  0  0  0
 11 20  1  6  0  0  0
 11 10  1  0  0  0  0
 13  3  1  0  0  0  0
 14  8  1  0  0  0  0
 21  2  1  0  0  0  0
 22 21  1  0  0  0  0
 23 21  1  0  0  0  0
 24 11  1  0  0  0  0
 25 26  1  0  0  0  0
 25 34  1  0  0  0  0
 26 24  1  0  0  0  0
 27 28  1  0  0  0  0
 27 26  2  0  0  0  0
 29 27  1  0  0  0  0
 30 29  1  0  0  0  0
 31 29  2  0  0  0  0
 31 32  1  0  0  0  0
 32 25  2  0  0  0  0
 34 36  2  0  0  0  0
 34 33  1  0  0  0  0
 35 34  2  0  0  0  0
M  END
>  <minimizedAffinity>
-5.12928247

>  <minimizedRMSD>
1.04870546

$$$$
