
 OpenBabel03252502503D

 37 39  0  0  0  0  0  0  0  0999 V2000
   44.6100   36.2430   43.9770 C   0  0  0  0  0  0  0  0  0  0  0  0
   44.7950   35.4350   45.1040 C   0  0  0  0  0  0  0  0  0  0  0  0
   45.4960   34.2500   44.9340 C   0  0  0  0  0  0  0  0  0  0  0  0
   45.9650   33.9280   43.7020 N   0  0  0  0  0  0  0  0  0  0  0  0
   45.7670   34.7380   42.6260 C   0  0  0  0  0  0  0  0  0  0  0  0
   45.0920   35.8870   42.7710 N   0  0  0  0  0  0  0  0  0  0  0  0
   44.0800   37.1840   44.0020 H   0  0  0  0  0  0  0  0  0  0  0  0
   44.3830   35.7890   46.0170 H   0  0  0  0  0  0  0  0  0  0  0  0
   48.5280   35.6820   42.0350 Cl  0  0  0  0  0  0  0  0  0  0  0  0
   47.5590   34.7060   40.9530 C   0  0  0  0  0  0  0  0  0  0  0  0
   46.3010   34.3290   41.3280 C   0  0  0  0  0  0  0  0  0  0  0  0
   45.4990   33.5470   40.4830 C   0  0  0  0  0  0  0  0  0  0  0  0
   46.0510   33.1930   39.2810 C   0  0  0  0  0  0  0  0  0  0  0  0
   47.3000   33.5670   38.9080 C   0  0  0  0  0  0  0  0  0  0  0  0
   48.0710   34.3250   39.7310 C   0  0  0  0  0  0  0  0  0  0  0  0
   44.4890   33.2540   40.8050 H   0  0  0  0  0  0  0  0  0  0  0  0
   45.3760   32.5850   38.6710 H   0  0  0  0  0  0  0  0  0  0  0  0
   47.6060   33.2170   37.9330 H   0  0  0  0  0  0  0  0  0  0  0  0
   49.0540   34.5920   39.3850 H   0  0  0  0  0  0  0  0  0  0  0  0
   45.6920   33.3900   46.1350 C   0  0  0  0  0  0  0  0  0  0  0  0
   44.7210   33.3170   46.6210 H   0  0  0  0  0  0  0  0  0  0  0  0
   46.4330   33.8970   46.7780 H   0  0  0  0  0  0  0  0  0  0  0  0
   46.2720   32.0290   45.7810 C   0  0  0  0  0  0  0  0  0  0  0  0
   45.3700   31.3560   45.7200 H   0  0  0  0  0  0  0  0  0  0  0  0
   46.7480   32.0350   44.7850 H   0  0  0  0  0  0  0  0  0  0  0  0
   47.4260   30.1390   46.7750 C   0  0  0  0  0  0  0  0  0  0  0  0
   47.1100   31.4780   46.8570 C   0  0  0  0  0  0  0  0  0  0  0  0
   47.5770   32.2520   47.9250 C   0  0  0  0  0  0  0  0  0  0  0  0
   47.3000   33.2950   47.9400 H   0  0  0  0  0  0  0  0  0  0  0  0
   48.3680   31.6860   48.9200 C   0  0  0  0  0  0  0  0  0  0  0  0
   48.7290   32.3010   49.7520 H   0  0  0  0  0  0  0  0  0  0  0  0
   48.6790   30.3300   48.8210 C   0  0  0  0  0  3  0  0  0  0  0  0
   48.2160   29.5730   47.7690 C   0  0  0  0  0  3  0  0  0  0  0  0
   46.4220   29.7260   44.4130 H   0  0  0  0  0  0  0  0  0  0  0  0
   46.9110   29.0770   45.5080 S   0  0  0  0  0  0  0  0  0  0  0  0
   48.1020   28.2730   45.0330 O   0  0  0  0  0  0  0  0  0  0  0  0
   45.8920   28.1300   46.0480 O   0  0  0  0  0  0  0  0  0  0  0  0
  1  7  1  0  0  0  0
  1  2  1  0  0  0  0
  2  8  1  0  0  0  0
  3  2  2  0  0  0  0
  3 20  1  0  0  0  0
  4  3  1  0  0  0  0
  5  6  1  0  0  0  0
  5  4  2  0  0  0  0
  6  1  2  0  0  0  0
 10 11  1  0  0  0  0
 10  9  1  0  0  0  0
 11  5  1  0  0  0  0
 12 16  1  0  0  0  0
 12 11  2  0  0  0  0
 13 12  1  0  0  0  0
 14 13  2  0  0  0  0
 14 15  1  0  0  0  0
 15 10  2  0  0  0  0
 17 13  1  0  0  0  0
 18 14  1  0  0  0  0
 19 15  1  0  0  0  0
 20 21  1  0  0  0  0
 20 22  1  0  0  0  0
 23 20  1  0  0  0  0
 23 27  1  0  0  0  0
 24 23  1  0  0  0  0
 25 23  1  0  0  0  0
 26 27  2  0  0  0  0
 26 33  1  0  0  0  0
 27 28  1  0  0  0  0
 28 29  1  0  0  0  0
 28 30  2  0  0  0  0
 30 31  1  0  0  0  0
 32 30  1  0  0  0  0
 33 32  2  0  0  0  0
 34 35  1  0  0  0  0
 35 37  2  0  0  0  0
 35 26  1  0  0  0  0
 36 35  2  0  0  0  0
M  END
>  <minimizedAffinity>
-5.74931288

>  <minimizedRMSD>
1.31014347

$$$$
