REMARK  Name = 
REMARK  4 active torsions:
REMARK  status: ('A' for Active; 'I' for Inactive)
REMARK    1  A    between atoms: N_1  and  C_9
REMARK    2  A    between atoms: C_6  and  O_13
REMARK    3  A    between atoms: O_13  and  C_31
REMARK    4  A    between atoms: S_27  and  C_30
REMARK                            x       y       z     vdW  Elec       q    Type
REMARK                         _______ _______ _______ _____ _____    ______ ____
ROOT
ATOM      1  N   UNL     1      46.887  34.600  42.232  0.00  0.00    +0.000 N 
ATOM      2  C   UNL     1      48.329  34.769  42.266  0.00  0.00    +0.000 C 
ATOM      3  C   UNL     1      48.641  35.526  40.960  0.00  0.00    +0.000 C 
ATOM      4  C   UNL     1      48.342  34.654  39.782  0.00  0.00    +0.000 C 
ATOM      5  C   UNL     1      47.088  33.856  39.906  0.00  0.00    +0.000 C 
ATOM      6  C   UNL     1      46.187  34.240  41.026  0.00  0.00    +0.000 C 
ATOM      7  H   UNL     1      48.800  33.778  42.137  0.00  0.00    +0.000 HD
ATOM      8  H   UNL     1      48.662  35.332  43.137  0.00  0.00    +0.000 HD
ATOM      9  H   UNL     1      49.734  35.738  40.981  0.00  0.00    +0.000 HD
ATOM     10  H   UNL     1      48.105  36.491  40.950  0.00  0.00    +0.000 HD
ATOM     11  H   UNL     1      48.312  35.339  38.889  0.00  0.00    +0.000 HD
ATOM     12  H   UNL     1      49.246  34.026  39.597  0.00  0.00    +0.000 HD
ATOM     13  H   UNL     1      47.385  32.775  39.901  0.00  0.00    +0.000 HD
ATOM     14  H   UNL     1      46.513  33.983  38.965  0.00  0.00    +0.000 HD
ATOM     15  H   UNL     1      45.577  35.117  40.735  0.00  0.00    +0.000 HD
ENDROOT
BRANCH   1  18
ATOM     16  C   UNL     1      44.514  35.983  44.767  0.00  0.00    +0.000 A 
ATOM     17  C   UNL     1      45.231  35.895  43.560  0.00  0.00    +0.000 A 
ATOM     18  C   UNL     1      46.109  34.788  43.417  0.00  0.00    +0.000 A 
ATOM     19  N   UNL     1      46.199  33.896  44.443  0.00  0.00    +0.000 NA
ATOM     20  C   UNL     1      45.474  34.041  45.587  0.00  0.00    +0.000 A 
ATOM     21  N   UNL     1      44.634  35.092  45.734  0.00  0.00    +0.000 NA
ATOM     22  H   UNL     1      43.852  36.836  44.851  0.00  0.00    +0.000 HD
ATOM     23  H   UNL     1      45.154  36.609  42.748  0.00  0.00    +0.000 HD
ATOM     24  H   UNL     1      45.662  33.247  46.301  0.00  0.00    +0.000 HD
ENDBRANCH   1  18
BRANCH   6  25
ATOM     25  O   UNL     1      45.335  33.174  41.300  0.00  0.00    +0.000 OA
BRANCH  25  27
ATOM     26  C   UNL     1      43.449  32.232  42.167  0.00  0.00    +0.000 A 
ATOM     27  C   UNL     1      43.971  33.143  41.241  0.00  0.00    +0.000 A 
ATOM     28  C   UNL     1      43.097  33.848  40.441  0.00  0.00    +0.000 A 
ATOM     29  H   UNL     1      43.592  34.525  39.760  0.00  0.00    +0.000 HD
ATOM     30  C   UNL     1      41.730  33.683  40.524  0.00  0.00    +0.000 A 
ATOM     31  H   UNL     1      41.123  34.277  39.856  0.00  0.00    +0.000 HD
ATOM     32  C   UNL     1      41.232  32.770  41.453  0.00  0.00    +0.000 A 
ATOM     33  C   UNL     1      42.066  32.041  42.276  0.00  0.00    +0.000 A 
BRANCH  26  35
ATOM     34  H   UNL     1      45.615  31.815  43.536  0.00  0.00    +0.000 HD
ATOM     35  S   UNL     1      44.414  31.248  43.267  0.00  0.00    +0.000 S 
ATOM     36  O   UNL     1      43.680  31.048  44.536  0.00  0.00    +0.000 OA
ATOM     37  O   UNL     1      44.577  29.896  42.607  0.00  0.00    +0.000 OA
ENDBRANCH  26  35
ENDBRANCH  25  27
ENDBRANCH   6  25
TORSDOF 4
