
 OpenBabel03242517513D

 22 23  0  0  0  0  0  0  0  0999 V2000
   37.3980   31.6200   39.1340 C   0  0  0  0  0  0  0  0  0  0  0  0
   36.6380   30.5890   39.6160 C   0  0  0  0  0  0  0  0  0  0  0  0
   36.1670   29.6500   38.6930 C   0  0  0  0  0  0  0  0  0  0  0  0
   35.5580   28.7870   38.9360 H   0  0  0  0  0  0  0  0  0  0  0  0
   36.4490   29.7440   37.3460 C   0  0  0  0  0  0  0  0  0  0  0  0
   36.0990   29.0330   36.6080 H   0  0  0  0  0  0  0  0  0  0  0  0
   37.2200   30.7970   36.8870 C   0  0  0  0  0  3  0  0  0  0  0  0
   37.6930   31.7360   37.7920 C   0  0  0  0  0  3  0  0  0  0  0  0
   37.2650   32.6390   41.5300 H   0  0  0  0  0  0  0  0  0  0  0  0
   37.9450   32.7510   40.3520 S   0  0  0  0  0  0  0  0  0  0  0  0
   37.9450   34.1610   39.8430 O   0  0  0  0  0  0  0  0  0  0  0  0
   39.3900   32.3990   40.6720 O   0  0  0  0  0  0  0  0  0  0  0  0
   36.2410   30.3070   40.9020 O   0  0  0  0  0  0  0  0  0  0  0  0
   38.5710   28.8740   43.1680 C   0  0  0  0  0  0  0  0  0  0  0  0
   38.0280   27.6110   43.4350 C   0  0  0  0  0  0  0  0  0  0  0  0
   36.8280   27.2620   42.8100 C   0  0  0  0  0  0  0  0  0  0  0  0
   36.2730   28.1720   41.9870 N   0  0  0  0  0  0  0  0  0  0  0  0
   36.8090   29.3730   41.7450 C   0  0  0  0  0  0  0  0  0  0  0  0
   37.9570   29.7140   42.3410 N   0  0  0  0  0  0  0  0  0  0  0  0
   39.4970   29.0630   43.6910 H   0  0  0  0  0  0  0  0  0  0  0  0
   38.4220   26.8350   44.0840 H   0  0  0  0  0  0  0  0  0  0  0  0
   36.2810   26.3360   42.9050 H   0  0  0  0  0  0  0  0  0  0  0  0
  1  2  1  0  0  0  0
  1 10  1  0  0  0  0
  2 13  1  0  0  0  0
  3  4  1  0  0  0  0
  3  2  2  0  0  0  0
  5  3  1  0  0  0  0
  6  5  1  0  0  0  0
  7  5  2  0  0  0  0
  7  8  1  0  0  0  0
  8  1  2  0  0  0  0
 10 12  2  0  0  0  0
 10  9  1  0  0  0  0
 11 10  2  0  0  0  0
 13 18  1  0  0  0  0
 14 15  1  0  0  0  0
 14 20  1  0  0  0  0
 15 21  1  0  0  0  0
 16 22  1  0  0  0  0
 16 15  2  0  0  0  0
 17 16  1  0  0  0  0
 18 17  2  0  0  0  0
 18 19  1  0  0  0  0
 19 14  2  0  0  0  0
M  END
>  <minimizedAffinity>
-4.61457109

$$$$

 OpenBabel03242517513D

 22 23  0  0  0  0  0  0  0  0999 V2000
   37.7060   27.7730   41.0180 C   0  0  0  0  0  0  0  0  0  0  0  0
   38.2520   28.9320   41.5000 C   0  0  0  0  0  0  0  0  0  0  0  0
   38.0460   29.2280   42.8520 C   0  0  0  0  0  0  0  0  0  0  0  0
   38.4200   30.1070   43.3620 H   0  0  0  0  0  0  0  0  0  0  0  0
   37.3220   28.3960   43.6800 C   0  0  0  0  0  0  0  0  0  0  0  0
   37.1450   28.5970   44.7280 H   0  0  0  0  0  0  0  0  0  0  0  0
   36.7810   27.2310   43.1650 C   0  0  0  0  0  3  0  0  0  0  0  0
   36.9780   26.9250   41.8260 C   0  0  0  0  0  3  0  0  0  0  0  0
   39.2940   27.7510   38.9510 H   0  0  0  0  0  0  0  0  0  0  0  0
   38.0090   27.4790   39.3200 S   0  0  0  0  0  0  0  0  0  0  0  0
   37.0190   28.1890   38.4470 O   0  0  0  0  0  0  0  0  0  0  0  0
   37.8150   25.9890   39.0830 O   0  0  0  0  0  0  0  0  0  0  0  0
   38.9990   29.8930   40.8600 O   0  0  0  0  0  0  0  0  0  0  0  0
   38.8500   33.4410   40.7860 C   0  0  0  0  0  0  0  0  0  0  0  0
   37.8160   33.7030   39.8790 C   0  0  0  0  0  0  0  0  0  0  0  0
   37.1650   32.6170   39.2880 C   0  0  0  0  0  0  0  0  0  0  0  0
   37.5810   31.3840   39.6340 N   0  0  0  0  0  0  0  0  0  0  0  0
   38.5710   31.1560   40.5040 C   0  0  0  0  0  0  0  0  0  0  0  0
   39.1990   32.1910   41.0730 N   0  0  0  0  0  0  0  0  0  0  0  0
   39.3000   34.3340   41.1960 H   0  0  0  0  0  0  0  0  0  0  0  0
   37.4340   34.6670   39.5580 H   0  0  0  0  0  0  0  0  0  0  0  0
   36.3540   32.6440   38.5750 H   0  0  0  0  0  0  0  0  0  0  0  0
  1  2  2  0  0  0  0
  1  8  1  0  0  0  0
  2  3  1  0  0  0  0
  3  4  1  0  0  0  0
  3  5  2  0  0  0  0
  5  6  1  0  0  0  0
  7  5  1  0  0  0  0
  8  7  2  0  0  0  0
  9 10  1  0  0  0  0
 10  1  1  0  0  0  0
 11 10  2  0  0  0  0
 12 10  2  0  0  0  0
 13  2  1  0  0  0  0
 14 19  1  0  0  0  0
 14 20  1  0  0  0  0
 15 14  2  0  0  0  0
 16 17  2  0  0  0  0
 16 15  1  0  0  0  0
 17 18  1  0  0  0  0
 18 13  1  0  0  0  0
 18 19  2  0  0  0  0
 21 15  1  0  0  0  0
 22 16  1  0  0  0  0
M  END
>  <minimizedAffinity>
-4.34875822

$$$$

 OpenBabel03242517513D

 22 23  0  0  0  0  0  0  0  0999 V2000
   36.3640   29.8570   38.2980 C   0  0  0  0  0  0  0  0  0  0  0  0
   36.4700   30.4550   39.5240 C   0  0  0  0  0  0  0  0  0  0  0  0
   37.1630   31.6680   39.5930 C   0  0  0  0  0  0  0  0  0  0  0  0
   37.3210   32.2470   40.4940 H   0  0  0  0  0  0  0  0  0  0  0  0
   37.7230   32.2530   38.4760 C   0  0  0  0  0  0  0  0  0  0  0  0
   38.2640   33.1900   38.4960 H   0  0  0  0  0  0  0  0  0  0  0  0
   37.6010   31.6250   37.2480 C   0  0  0  0  0  3  0  0  0  0  0  0
   36.9160   30.4210   37.1680 C   0  0  0  0  0  3  0  0  0  0  0  0
   35.7600   27.5670   39.3880 H   0  0  0  0  0  0  0  0  0  0  0  0
   35.4850   28.3440   38.3010 S   0  0  0  0  0  0  0  0  0  0  0  0
   35.6700   27.5900   37.0190 O   0  0  0  0  0  0  0  0  0  0  0  0
   34.0060   28.6860   38.4000 O   0  0  0  0  0  0  0  0  0  0  0  0
   35.9940   30.0530   40.7510 O   0  0  0  0  0  0  0  0  0  0  0  0
   36.8290   27.2780   42.8040 C   0  0  0  0  0  0  0  0  0  0  0  0
   37.9480   27.7260   43.5150 C   0  0  0  0  0  0  0  0  0  0  0  0
   38.4130   29.0210   43.2670 C   0  0  0  0  0  0  0  0  0  0  0  0
   37.7460   29.7530   42.3550 N   0  0  0  0  0  0  0  0  0  0  0  0
   36.6780   29.3040   41.6870 C   0  0  0  0  0  0  0  0  0  0  0  0
   36.2280   28.0660   41.9180 N   0  0  0  0  0  0  0  0  0  0  0  0
   36.5360   26.2680   43.0550 H   0  0  0  0  0  0  0  0  0  0  0  0
   38.5290   27.1900   44.2600 H   0  0  0  0  0  0  0  0  0  0  0  0
   39.2560   29.5160   43.7250 H   0  0  0  0  0  0  0  0  0  0  0  0
  1 10  1  0  0  0  0
  1  2  1  0  0  0  0
  2  3  2  0  0  0  0
  2 13  1  0  0  0  0
  3  4  1  0  0  0  0
  5  6  1  0  0  0  0
  5  3  1  0  0  0  0
  7  5  2  0  0  0  0
  8  7  1  0  0  0  0
  8  1  2  0  0  0  0
 10 12  2  0  0  0  0
 10  9  1  0  0  0  0
 11 10  2  0  0  0  0
 13 18  1  0  0  0  0
 14 20  1  0  0  0  0
 14 15  1  0  0  0  0
 15 21  1  0  0  0  0
 16 15  2  0  0  0  0
 16 22  1  0  0  0  0
 17 16  1  0  0  0  0
 18 19  1  0  0  0  0
 18 17  2  0  0  0  0
 19 14  2  0  0  0  0
M  END
>  <minimizedAffinity>
-4.33727121

$$$$

 OpenBabel03242517513D

 22 23  0  0  0  0  0  0  0  0999 V2000
   36.6210   28.4930   41.1480 C   0  0  0  0  0  0  0  0  0  0  0  0
   37.2190   29.5950   41.6940 C   0  0  0  0  0  0  0  0  0  0  0  0
   37.9710   29.4100   42.8590 C   0  0  0  0  0  0  0  0  0  0  0  0
   38.4970   30.1910   43.3940 H   0  0  0  0  0  0  0  0  0  0  0  0
   38.1140   28.1700   43.4470 C   0  0  0  0  0  0  0  0  0  0  0  0
   38.6890   27.9940   44.3470 H   0  0  0  0  0  0  0  0  0  0  0  0
   37.4970   27.0720   42.8720 C   0  0  0  0  0  3  0  0  0  0  0  0
   36.7480   27.2430   41.7170 C   0  0  0  0  0  3  0  0  0  0  0  0
   36.2850   29.7370   38.8810 H   0  0  0  0  0  0  0  0  0  0  0  0
   35.6990   28.8120   39.6960 S   0  0  0  0  0  0  0  0  0  0  0  0
   34.2760   29.1690   40.0060 O   0  0  0  0  0  0  0  0  0  0  0  0
   35.6620   27.5190   38.8950 O   0  0  0  0  0  0  0  0  0  0  0  0
   37.2090   30.9070   41.2790 O   0  0  0  0  0  0  0  0  0  0  0  0
   39.9200   31.4690   39.0550 C   0  0  0  0  0  0  0  0  0  0  0  0
   40.3050   32.7840   39.3400 C   0  0  0  0  0  0  0  0  0  0  0  0
   39.6010   33.4800   40.3270 C   0  0  0  0  0  0  0  0  0  0  0  0
   38.5930   32.8310   40.9400 N   0  0  0  0  0  0  0  0  0  0  0  0
   38.2420   31.5730   40.6520 C   0  0  0  0  0  0  0  0  0  0  0  0
   38.9110   30.9020   39.7090 N   0  0  0  0  0  0  0  0  0  0  0  0
   40.5140   31.0040   38.2810 H   0  0  0  0  0  0  0  0  0  0  0  0
   41.1040   33.3630   38.8850 H   0  0  0  0  0  0  0  0  0  0  0  0
   39.7690   34.4910   40.6650 H   0  0  0  0  0  0  0  0  0  0  0  0
  1  2  2  0  0  0  0
  1  8  1  0  0  0  0
  2  3  1  0  0  0  0
  3  4  1  0  0  0  0
  3  5  2  0  0  0  0
  5  6  1  0  0  0  0
  7  5  1  0  0  0  0
  8  7  2  0  0  0  0
  9 10  1  0  0  0  0
 10 11  2  0  0  0  0
 10  1  1  0  0  0  0
 12 10  2  0  0  0  0
 13  2  1  0  0  0  0
 14 15  2  0  0  0  0
 14 19  1  0  0  0  0
 15 16  1  0  0  0  0
 16 22  1  0  0  0  0
 16 17  2  0  0  0  0
 18 17  1  0  0  0  0
 18 13  1  0  0  0  0
 19 18  2  0  0  0  0
 20 14  1  0  0  0  0
 21 15  1  0  0  0  0
M  END
>  <minimizedAffinity>
-4.26488972

$$$$

 OpenBabel03242517513D

 22 23  0  0  0  0  0  0  0  0999 V2000
   39.3010   26.3500   42.8080 C   0  0  0  0  0  0  0  0  0  0  0  0
   38.1440   27.0800   42.8320 C   0  0  0  0  0  0  0  0  0  0  0  0
   36.9640   26.4310   42.4550 C   0  0  0  0  0  0  0  0  0  0  0  0
   35.9810   26.8860   42.4290 H   0  0  0  0  0  0  0  0  0  0  0  0
   36.9500   25.1050   42.0710 C   0  0  0  0  0  0  0  0  0  0  0  0
   36.0540   24.5760   41.7750 H   0  0  0  0  0  0  0  0  0  0  0  0
   38.1350   24.3920   42.0560 C   0  0  0  0  0  3  0  0  0  0  0  0
   39.3130   25.0240   42.4280 C   0  0  0  0  0  3  0  0  0  0  0  0
   40.5330   28.0060   44.4010 H   0  0  0  0  0  0  0  0  0  0  0  0
   40.7290   27.2370   43.2920 S   0  0  0  0  0  0  0  0  0  0  0  0
   41.2990   28.0350   42.1580 O   0  0  0  0  0  0  0  0  0  0  0  0
   41.7830   26.2100   43.6800 O   0  0  0  0  0  0  0  0  0  0  0  0
   37.9320   28.3950   43.1770 O   0  0  0  0  0  0  0  0  0  0  0  0
   38.6780   31.1920   41.1190 C   0  0  0  0  0  0  0  0  0  0  0  0
   37.4310   31.5420   40.5860 C   0  0  0  0  0  0  0  0  0  0  0  0
   36.3170   30.7840   40.9560 C   0  0  0  0  0  0  0  0  0  0  0  0
   36.5210   29.7610   41.8070 N   0  0  0  0  0  0  0  0  0  0  0  0
   37.7210   29.4430   42.3050 C   0  0  0  0  0  0  0  0  0  0  0  0
   38.7920   30.1640   41.9540 N   0  0  0  0  0  0  0  0  0  0  0  0
   39.4840   31.8270   40.7820 H   0  0  0  0  0  0  0  0  0  0  0  0
   37.1990   32.3510   39.8990 H   0  0  0  0  0  0  0  0  0  0  0  0
   35.2940   30.9200   40.6390 H   0  0  0  0  0  0  0  0  0  0  0  0
  1  2  1  0  0  0  0
  1 10  1  0  0  0  0
  2 13  1  0  0  0  0
  3  2  2  0  0  0  0
  4  3  1  0  0  0  0
  5  3  1  0  0  0  0
  6  5  1  0  0  0  0
  7  5  2  0  0  0  0
  7  8  1  0  0  0  0
  8  1  2  0  0  0  0
 10 12  2  0  0  0  0
 10  9  1  0  0  0  0
 11 10  2  0  0  0  0
 14 19  1  0  0  0  0
 15 16  1  0  0  0  0
 15 14  2  0  0  0  0
 16 17  2  0  0  0  0
 17 18  1  0  0  0  0
 18 13  1  0  0  0  0
 19 18  2  0  0  0  0
 20 14  1  0  0  0  0
 21 15  1  0  0  0  0
 22 16  1  0  0  0  0
M  END
>  <minimizedAffinity>
-4.26319265

$$$$

 OpenBabel03242517513D

 22 23  0  0  0  0  0  0  0  0999 V2000
   36.8380   30.2600   38.9000 C   0  0  0  0  0  0  0  0  0  0  0  0
   36.2640   29.8960   40.0880 C   0  0  0  0  0  0  0  0  0  0  0  0
   35.0450   29.2120   40.0320 C   0  0  0  0  0  0  0  0  0  0  0  0
   34.4830   28.8660   40.8910 H   0  0  0  0  0  0  0  0  0  0  0  0
   34.4320   28.9080   38.8340 C   0  0  0  0  0  0  0  0  0  0  0  0
   33.4910   28.3800   38.7580 H   0  0  0  0  0  0  0  0  0  0  0  0
   35.0360   29.2890   37.6480 C   0  0  0  0  0  3  0  0  0  0  0  0
   36.2450   29.9680   37.6900 C   0  0  0  0  0  3  0  0  0  0  0  0
   39.2240   30.5060   39.9210 H   0  0  0  0  0  0  0  0  0  0  0  0
   38.3570   31.1130   39.0590 S   0  0  0  0  0  0  0  0  0  0  0  0
   38.1520   32.5570   39.4040 O   0  0  0  0  0  0  0  0  0  0  0  0
   39.0340   31.0780   37.6970 O   0  0  0  0  0  0  0  0  0  0  0  0
   36.6950   30.0950   41.3790 O   0  0  0  0  0  0  0  0  0  0  0  0
   37.3900   27.4120   43.6000 C   0  0  0  0  0  0  0  0  0  0  0  0
   38.7880   27.4090   43.6760 C   0  0  0  0  0  0  0  0  0  0  0  0
   39.4920   28.3620   42.9360 C   0  0  0  0  0  0  0  0  0  0  0  0
   38.7720   29.2250   42.1960 N   0  0  0  0  0  0  0  0  0  0  0  0
   37.4360   29.2110   42.1380 C   0  0  0  0  0  0  0  0  0  0  0  0
   36.7550   28.3010   42.8420 N   0  0  0  0  0  0  0  0  0  0  0  0
   36.9240   26.6440   44.2010 H   0  0  0  0  0  0  0  0  0  0  0  0
   39.4260   26.7440   44.2500 H   0  0  0  0  0  0  0  0  0  0  0  0
   40.5620   28.4960   42.8840 H   0  0  0  0  0  0  0  0  0  0  0  0
  1 10  1  0  0  0  0
  1  2  1  0  0  0  0
  2 13  1  0  0  0  0
  3  2  2  0  0  0  0
  3  4  1  0  0  0  0
  5  3  1  0  0  0  0
  6  5  1  0  0  0  0
  7  8  1  0  0  0  0
  7  5  2  0  0  0  0
  8  1  2  0  0  0  0
 10 11  2  0  0  0  0
 10  9  1  0  0  0  0
 12 10  2  0  0  0  0
 13 18  1  0  0  0  0
 14 15  1  0  0  0  0
 14 20  1  0  0  0  0
 15 21  1  0  0  0  0
 16 15  2  0  0  0  0
 17 16  1  0  0  0  0
 18 17  2  0  0  0  0
 18 19  1  0  0  0  0
 19 14  2  0  0  0  0
 22 16  1  0  0  0  0
M  END
>  <minimizedAffinity>
-4.215312

$$$$

 OpenBabel03242517513D

 22 23  0  0  0  0  0  0  0  0999 V2000
   36.5390   26.9090   40.1860 C   0  0  0  0  0  0  0  0  0  0  0  0
   36.2260   28.0680   40.8430 C   0  0  0  0  0  0  0  0  0  0  0  0
   36.5060   28.1280   42.2120 C   0  0  0  0  0  0  0  0  0  0  0  0
   36.3110   28.9800   42.8520 H   0  0  0  0  0  0  0  0  0  0  0  0
   37.0750   27.0690   42.8880 C   0  0  0  0  0  0  0  0  0  0  0  0
   37.3050   27.0850   43.9450 H   0  0  0  0  0  0  0  0  0  0  0  0
   37.3810   25.9100   42.1970 C   0  0  0  0  0  3  0  0  0  0  0  0
   37.1080   25.8370   40.8390 C   0  0  0  0  0  3  0  0  0  0  0  0
   35.3000   27.9200   38.1260 H   0  0  0  0  0  0  0  0  0  0  0  0
   36.1540   26.9170   38.4790 S   0  0  0  0  0  0  0  0  0  0  0  0
   35.6620   25.5800   38.0130 O   0  0  0  0  0  0  0  0  0  0  0  0
   37.4490   27.1930   37.7300 O   0  0  0  0  0  0  0  0  0  0  0  0
   35.6610   29.2300   40.3710 O   0  0  0  0  0  0  0  0  0  0  0  0
   37.3340   32.3630   40.3850 C   0  0  0  0  0  0  0  0  0  0  0  0
   37.6840   32.5490   39.0420 C   0  0  0  0  0  0  0  0  0  0  0  0
   37.3260   31.5590   38.1220 C   0  0  0  0  0  0  0  0  0  0  0  0
   36.6640   30.4860   38.5960 N   0  0  0  0  0  0  0  0  0  0  0  0
   36.3390   30.3290   39.8840 C   0  0  0  0  0  0  0  0  0  0  0  0
   36.6790   31.2720   40.7690 N   0  0  0  0  0  0  0  0  0  0  0  0
   37.6480   33.1730   41.0280 H   0  0  0  0  0  0  0  0  0  0  0  0
   38.2150   33.3850   38.5970 H   0  0  0  0  0  0  0  0  0  0  0  0
   37.5180   31.5470   37.0600 H   0  0  0  0  0  0  0  0  0  0  0  0
  1  8  2  0  0  0  0
  1  2  1  0  0  0  0
  2  3  2  0  0  0  0
  3  4  1  0  0  0  0
  3  5  1  0  0  0  0
  5  6  1  0  0  0  0
  7  5  2  0  0  0  0
  8  7  1  0  0  0  0
  9 10  1  0  0  0  0
 10  1  1  0  0  0  0
 11 10  2  0  0  0  0
 12 10  2  0  0  0  0
 13  2  1  0  0  0  0
 14 19  1  0  0  0  0
 14 20  1  0  0  0  0
 15 14  2  0  0  0  0
 16 17  2  0  0  0  0
 16 15  1  0  0  0  0
 17 18  1  0  0  0  0
 18 13  1  0  0  0  0
 18 19  2  0  0  0  0
 21 15  1  0  0  0  0
 22 16  1  0  0  0  0
M  END
>  <minimizedAffinity>
-4.17640209

$$$$

 OpenBabel03242517513D

 22 23  0  0  0  0  0  0  0  0999 V2000
   37.9600   25.6100   41.7370 C   0  0  0  0  0  0  0  0  0  0  0  0
   37.6080   26.8720   42.1320 C   0  0  0  0  0  0  0  0  0  0  0  0
   38.3920   27.4810   43.1180 C   0  0  0  0  0  0  0  0  0  0  0  0
   38.2280   28.4720   43.5210 H   0  0  0  0  0  0  0  0  0  0  0  0
   39.4810   26.8470   43.6790 C   0  0  0  0  0  0  0  0  0  0  0  0
   40.1070   27.2910   44.4420 H   0  0  0  0  0  0  0  0  0  0  0  0
   39.8130   25.5710   43.2600 C   0  0  0  0  0  3  0  0  0  0  0  0
   39.0440   24.9560   42.2830 C   0  0  0  0  0  3  0  0  0  0  0  0
   35.6660   25.4400   40.5100 H   0  0  0  0  0  0  0  0  0  0  0  0
   36.9280   24.9210   40.5030 S   0  0  0  0  0  0  0  0  0  0  0  0
   36.9120   23.4230   40.5630 O   0  0  0  0  0  0  0  0  0  0  0  0
   37.5250   25.3000   39.1570 O   0  0  0  0  0  0  0  0  0  0  0  0
   36.5750   27.6770   41.7110 O   0  0  0  0  0  0  0  0  0  0  0  0
   37.1910   29.7220   38.8730 C   0  0  0  0  0  0  0  0  0  0  0  0
   36.9530   31.0170   39.3500 C   0  0  0  0  0  0  0  0  0  0  0  0
   36.5720   31.1700   40.6860 C   0  0  0  0  0  0  0  0  0  0  0  0
   36.4590   30.0520   41.4270 N   0  0  0  0  0  0  0  0  0  0  0  0
   36.6910   28.8240   40.9520 C   0  0  0  0  0  0  0  0  0  0  0  0
   37.0550   28.6700   39.6740 N   0  0  0  0  0  0  0  0  0  0  0  0
   37.4800   29.6930   37.8320 H   0  0  0  0  0  0  0  0  0  0  0  0
   37.0260   31.9550   38.8080 H   0  0  0  0  0  0  0  0  0  0  0  0
   36.3540   32.0900   41.2060 H   0  0  0  0  0  0  0  0  0  0  0  0
  1  2  2  0  0  0  0
  1  8  1  0  0  0  0
  2  3  1  0  0  0  0
  3  4  1  0  0  0  0
  3  5  2  0  0  0  0
  5  6  1  0  0  0  0
  7  5  1  0  0  0  0
  8  7  2  0  0  0  0
 10  9  1  0  0  0  0
 10 11  2  0  0  0  0
 10  1  1  0  0  0  0
 12 10  2  0  0  0  0
 13  2  1  0  0  0  0
 14 15  2  0  0  0  0
 14 19  1  0  0  0  0
 15 16  1  0  0  0  0
 16 22  1  0  0  0  0
 16 17  2  0  0  0  0
 18 17  1  0  0  0  0
 18 13  1  0  0  0  0
 19 18  2  0  0  0  0
 20 14  1  0  0  0  0
 21 15  1  0  0  0  0
M  END
>  <minimizedAffinity>
-4.14864731

$$$$

 OpenBabel03242517513D

 22 23  0  0  0  0  0  0  0  0999 V2000
   38.8120   27.8280   42.7300 C   0  0  0  0  0  0  0  0  0  0  0  0
   38.7110   29.1410   42.3570 C   0  0  0  0  0  0  0  0  0  0  0  0
   39.8750   29.9160   42.4060 C   0  0  0  0  0  0  0  0  0  0  0  0
   39.9380   30.9640   42.1390 H   0  0  0  0  0  0  0  0  0  0  0  0
   41.0850   29.3910   42.8100 C   0  0  0  0  0  0  0  0  0  0  0  0
   42.0020   29.9640   42.8570 H   0  0  0  0  0  0  0  0  0  0  0  0
   41.1570   28.0600   43.1810 C   0  0  0  0  0  3  0  0  0  0  0  0
   40.0100   27.2810   43.1380 C   0  0  0  0  0  3  0  0  0  0  0  0
   37.4450   25.6260   43.0170 H   0  0  0  0  0  0  0  0  0  0  0  0
   37.3120   26.9320   42.6430 S   0  0  0  0  0  0  0  0  0  0  0  0
   36.6640   27.0600   41.2970 O   0  0  0  0  0  0  0  0  0  0  0  0
   36.3580   27.5560   43.6510 O   0  0  0  0  0  0  0  0  0  0  0  0
   37.6200   29.8590   41.9270 O   0  0  0  0  0  0  0  0  0  0  0  0
   37.5410   30.4590   38.4280 C   0  0  0  0  0  0  0  0  0  0  0  0
   37.3380   31.8420   38.3410 C   0  0  0  0  0  0  0  0  0  0  0  0
   37.2280   32.5700   39.5290 C   0  0  0  0  0  0  0  0  0  0  0  0
   37.3260   31.8850   40.6840 N   0  0  0  0  0  0  0  0  0  0  0  0
   37.5200   30.5630   40.7440 C   0  0  0  0  0  0  0  0  0  0  0  0
   37.6250   29.8600   39.6110 N   0  0  0  0  0  0  0  0  0  0  0  0
   37.6150   29.9740   37.4650 H   0  0  0  0  0  0  0  0  0  0  0  0
   37.2510   32.4520   37.4470 H   0  0  0  0  0  0  0  0  0  0  0  0
   37.0720   33.6320   39.6380 H   0  0  0  0  0  0  0  0  0  0  0  0
  1  8  1  0  0  0  0
  2  3  1  0  0  0  0
  2  1  2  0  0  0  0
  3  5  2  0  0  0  0
  4  3  1  0  0  0  0
  5  6  1  0  0  0  0
  5  7  1  0  0  0  0
  8  7  2  0  0  0  0
 10  1  1  0  0  0  0
 10  9  1  0  0  0  0
 10 12  2  0  0  0  0
 11 10  2  0  0  0  0
 13  2  1  0  0  0  0
 14 19  1  0  0  0  0
 15 14  2  0  0  0  0
 15 16  1  0  0  0  0
 16 22  1  0  0  0  0
 16 17  2  0  0  0  0
 17 18  1  0  0  0  0
 18 13  1  0  0  0  0
 19 18  2  0  0  0  0
 20 14  1  0  0  0  0
 21 15  1  0  0  0  0
M  END
>  <minimizedAffinity>
-4.14778185

$$$$
