
 OpenBabel03242519493D

 53 56  0  0  1  0  0  0  0  0999 V2000
   45.0790   28.1130   46.4720 C   0  0  0  0  0  0  0  0  0  0  0  0
   45.7400   28.2610   45.6310 H   0  0  0  0  0  0  0  0  0  0  0  0
   45.4840   27.2820   47.0960 H   0  0  0  0  0  0  0  0  0  0  0  0
   43.1610   28.4990   45.0220 C   0  0  0  0  0  0  0  0  0  0  0  0
   43.7240   27.7370   46.0520 C   0  0  0  0  0  0  0  0  0  0  0  0
   42.8920   26.7490   46.5290 C   0  0  0  0  0  0  0  0  0  0  0  0
   41.6390   26.4840   46.0950 C   0  0  0  0  0  0  0  0  0  0  0  0
   41.1050   27.2630   45.0660 C   0  0  0  0  0  0  0  0  0  0  0  0
   41.8880   28.3120   44.5040 C   0  0  0  0  0  0  0  0  0  0  0  0
   43.3450   26.1780   47.3160 H   0  0  0  0  0  0  0  0  0  0  0  0
   41.0820   25.6770   46.5520 H   0  0  0  0  0  0  0  0  0  0  0  0
   40.1200   27.0000   44.7750 H   0  0  0  0  0  0  0  0  0  0  0  0
   43.7630   29.5460   44.3570 O   0  0  0  0  0  0  0  0  0  0  0  0
   44.2970   30.2360   44.8580 H   0  0  0  0  0  0  0  0  0  0  0  0
   41.2730   28.9590   43.5580 O   0  0  0  0  0  0  0  0  0  0  0  0
   40.9780   30.4380   41.6390 C   0  0  0  0  0  0  0  0  0  0  0  0
   40.6840   29.5790   42.6510 C   0  0  0  0  0  0  0  0  0  0  0  0
   39.3170   29.2400   42.7770 C   0  0  0  0  0  0  0  0  0  0  0  0
   38.7800   28.5780   43.4890 H   0  0  0  0  0  0  0  0  0  0  0  0
   38.2800   29.7180   41.9520 C   0  0  0  0  0  0  0  0  0  0  0  0
   37.2170   29.5320   41.9550 H   0  0  0  0  0  0  0  0  0  0  0  0
   38.6610   30.5860   40.9480 C   0  0  0  0  0  0  0  0  0  0  0  0
   39.9900   30.9150   40.8270 C   0  0  0  0  0  0  0  0  0  0  0  0
   42.7150   31.5080   40.1970 H   0  0  0  0  0  0  0  0  0  0  0  0
   42.6500   30.8810   41.4500 S   0  0  0  0  0  0  0  0  0  0  0  0
   43.1180   31.8580   42.4630 O   0  0  0  0  0  0  0  0  0  0  0  0
   43.5430   29.6780   41.2820 O   0  0  0  0  0  0  0  0  0  0  0  0
   45.0080   29.3420   47.3860 C   0  0  0  0  0  0  0  0  0  0  0  0
   45.0610   29.2710   48.4280 H   0  0  0  0  0  0  0  0  0  0  0  0
   43.7720   29.5220   47.3530 H   0  0  0  0  0  0  0  0  0  0  0  0
   45.3560   30.4750   46.7690 O   0  0  0  0  0  0  0  0  0  0  0  0
   46.5160   32.5490   46.6170 C   0  0  2  0  0  0  0  0  0  0  0  0
   47.1020   32.6540   45.2820 C   0  0  1  0  0  0  0  0  0  0  0  0
   46.8100   31.3250   44.6840 O   0  0  0  0  0  0  0  0  0  0  0  0
   47.4050   30.5610   45.6810 C   0  0  0  0  0  0  0  0  0  0  0  0
   46.5260   31.0950   46.9490 C   0  0  2  0  0  0  0  0  0  0  0  0
   47.0000   33.1590   47.3970 H   0  0  0  0  0  0  0  0  0  0  0  0
   48.2170   32.6360   45.2970 H   0  0  0  0  0  0  0  0  0  0  0  0
   47.1830   29.5040   45.5680 H   0  0  0  0  0  0  0  0  0  0  0  0
   48.4370   30.8450   45.8730 H   0  0  0  0  0  0  0  0  0  0  0  0
   47.2180   30.7140   47.7200 H   0  0  0  0  0  0  0  0  0  0  0  0
   44.8180   35.2350   44.0860 C   0  0  0  0  0  0  0  0  0  0  0  0
   45.3950   35.6690   42.8980 C   0  0  0  0  0  0  0  0  0  0  0  0
   46.5900   35.0650   42.4780 C   0  0  0  0  0  0  0  0  0  0  0  0
   47.1320   34.0900   43.2380 N   0  0  0  0  0  0  0  0  0  0  0  0
   46.5600   33.6790   44.3900 C   0  0  0  0  0  0  0  0  0  0  0  0
   45.3970   34.2470   44.8250 N   0  0  0  0  0  0  0  0  0  0  0  0
   44.9360   36.4580   42.3050 H   0  0  0  0  0  0  0  0  0  0  0  0
   47.0820   35.3600   41.5680 H   0  0  0  0  0  0  0  0  0  0  0  0
   43.6230   35.7970   44.5580 O   0  0  0  0  0  0  0  0  0  0  0  0
   43.7730   36.5610   45.2280 H   0  0  0  0  0  0  0  0  0  0  0  0
   45.1190   32.9540   46.5380 O   0  0  0  0  0  0  0  0  0  0  0  0
   44.5580   32.2510   46.9510 H   0  0  0  0  0  0  0  0  0  0  0  0
  1  3  1  0  0  0  0
  1 28  1  0  0  0  0
  2  1  1  0  0  0  0
  4  5  1  0  0  0  0
  5  1  1  0  0  0  0
  5  6  2  0  0  0  0
  6 10  1  0  0  0  0
  7  6  1  0  0  0  0
  7 11  1  0  0  0  0
  8  7  2  0  0  0  0
  9  4  2  0  0  0  0
  9  8  1  0  0  0  0
 12  8  1  0  0  0  0
 13 14  1  0  0  0  0
 13  4  1  0  0  0  0
 15  9  1  0  0  0  0
 16 17  1  0  0  0  0
 17 18  2  0  0  0  0
 17 15  1  0  0  0  0
 18 19  1  0  0  0  0
 20 21  1  0  0  0  0
 20 18  1  0  0  0  0
 22 20  2  0  0  0  0
 23 22  1  0  0  0  0
 23 16  2  0  0  0  0
 24 25  1  0  0  0  0
 25 16  1  0  0  0  0
 25 26  2  0  0  0  0
 27 25  2  0  0  0  0
 28 29  1  0  0  0  0
 30 28  1  0  0  0  0
 31 36  1  0  0  0  0
 31 28  1  0  0  0  0
 32 36  1  0  0  0  0
 32 37  1  1  0  0  0
 33 38  1  1  0  0  0
 33 32  1  0  0  0  0
 34 33  1  0  0  0  0
 34 35  1  0  0  0  0
 35 40  1  0  0  0  0
 35 36  1  0  0  0  0
 36 41  1  1  0  0  0
 39 35  1  0  0  0  0
 42 50  1  0  0  0  0
 42 47  1  0  0  0  0
 43 42  2  0  0  0  0
 44 43  1  0  0  0  0
 44 45  2  0  0  0  0
 45 46  1  0  0  0  0
 46 47  2  0  0  0  0
 46 33  1  0  0  0  0
 48 43  1  0  0  0  0
 49 44  1  0  0  0  0
 50 51  1  0  0  0  0
 52 32  1  0  0  0  0
 52 53  1  0  0  0  0
M  END
>  <minimizedAffinity>
-6.05918694

>  <minimizedRMSD>
1.89469075

$$$$
