
 OpenBabel03242517323D

 50 53  0  0  1  0  0  0  0  0999 V2000
   45.3690   30.1990   47.1660 C   0  0  0  0  0  0  0  0  0  0  0  0
   46.4160   29.9450   46.8970 H   0  0  0  0  0  0  0  0  0  0  0  0
   44.7880   30.1340   46.2310 H   0  0  0  0  0  0  0  0  0  0  0  0
   44.9850   34.8150   44.9600 C   0  0  0  0  0  0  0  0  0  0  0  0
   45.8400   34.6510   43.8340 C   0  0  0  0  0  0  0  0  0  0  0  0
   46.8700   33.7240   43.9200 C   0  0  0  0  0  0  0  0  0  0  0  0
   47.0030   33.0240   45.0770 N   0  0  0  0  0  0  0  0  0  0  0  0
   46.2060   33.1760   46.1270 C   0  0  0  0  0  0  0  0  0  0  0  0
   45.2180   34.0720   46.0310 N   0  0  0  0  0  0  0  0  0  0  0  0
   46.4150   32.4190   47.2690 N   0  0  0  0  0  0  0  0  0  0  0  0
   47.6880   32.4720   47.9550 C   0  0  0  0  0  0  0  0  0  0  0  0
   47.9050   31.3400   48.8970 C   0  0  0  0  0  0  0  0  0  0  0  0
   46.7580   30.8000   49.5470 N   0  0  0  0  0  0  0  0  0  0  0  0
   45.5550   31.5390   49.2610 C   0  0  0  0  0  0  0  0  0  0  0  0
   45.3260   31.5600   47.7800 C   0  0  2  0  0  0  0  0  0  0  0  0
   44.2010   35.5470   44.8410 H   0  0  0  0  0  0  0  0  0  0  0  0
   45.7670   35.1850   42.9010 H   0  0  0  0  0  0  0  0  0  0  0  0
   47.5550   33.5610   43.0820 H   0  0  0  0  0  0  0  0  0  0  0  0
   47.6680   33.4090   48.5660 H   0  0  0  0  0  0  0  0  0  0  0  0
   48.5570   32.5530   47.2960 H   0  0  0  0  0  0  0  0  0  0  0  0
   48.4600   30.5380   48.3410 H   0  0  0  0  0  0  0  0  0  0  0  0
   48.6180   31.6810   49.6980 H   0  0  0  0  0  0  0  0  0  0  0  0
   46.8680   30.6590   50.5790 H   0  0  0  0  0  0  0  0  0  0  0  0
   44.7200   31.2280   49.8790 H   0  0  0  0  0  0  0  0  0  0  0  0
   45.7420   32.6180   49.5440 H   0  0  0  0  0  0  0  0  0  0  0  0
   44.3770   32.0500   47.4980 H   0  0  0  0  0  0  0  0  0  0  0  0
   44.8680   29.2300   48.1980 C   0  0  0  0  0  0  0  0  0  0  0  0
   45.0370   27.9190   48.0570 C   0  0  0  0  0  0  0  0  0  0  0  0
   44.5930   26.8740   49.0050 C   0  0  0  0  0  0  0  0  0  0  0  0
   45.4860   26.3560   49.4000 H   0  0  0  0  0  0  0  0  0  0  0  0
   44.0490   27.2830   49.8750 H   0  0  0  0  0  0  0  0  0  0  0  0
   43.7780   25.8330   48.2520 C   0  0  2  0  0  0  0  0  0  0  0  0
   44.5570   24.6910   47.6430 C   0  0  0  0  0  0  0  0  0  0  0  0
   43.8910   25.7400   46.7880 C   0  0  1  0  0  0  0  0  0  0  0  0
   42.8240   25.6090   48.7640 H   0  0  0  0  0  0  0  0  0  0  0  0
   45.6590   24.6900   47.7370 H   0  0  0  0  0  0  0  0  0  0  0  0
   44.0970   23.7040   47.7910 H   0  0  0  0  0  0  0  0  0  0  0  0
   44.6120   26.3800   46.2350 H   0  0  0  0  0  0  0  0  0  0  0  0
   42.7600   25.0470   44.7010 C   0  0  0  0  0  0  0  0  0  0  0  0
   42.6500   25.3960   46.0530 C   0  0  0  0  0  0  0  0  0  0  0  0
   41.3790   25.3910   46.5880 C   0  0  0  0  0  0  0  0  0  0  0  0
   41.2710   25.6530   47.6110 H   0  0  0  0  0  0  0  0  0  0  0  0
   40.2520   25.0660   45.8750 C   0  0  0  0  0  0  0  0  0  0  0  0
   39.2830   25.0720   46.3250 H   0  0  0  0  0  0  0  0  0  0  0  0
   40.3580   24.7260   44.5610 C   0  0  0  0  0  0  0  0  0  0  0  0
   41.6100   24.7190   43.9840 C   0  0  0  0  0  0  0  0  0  0  0  0
   45.3580   24.9290   44.8690 H   0  0  0  0  0  0  0  0  0  0  0  0
   44.3450   25.0370   43.9660 S   0  0  0  0  0  0  0  0  0  0  0  0
   44.4200   23.8280   43.0760 O   0  0  0  0  0  0  0  0  0  0  0  0
   44.4760   26.2740   43.1060 O   0  0  0  0  0  0  0  0  0  0  0  0
  1 15  1  0  0  0  0
  1 27  1  0  0  0  0
  2  1  1  0  0  0  0
  3  1  1  0  0  0  0
  4  9  1  0  0  0  0
  5  6  1  0  0  0  0
  5  4  2  0  0  0  0
  6  7  2  0  0  0  0
  7  8  1  0  0  0  0
  8 10  1  0  0  0  0
  9  8  2  0  0  0  0
 10 15  1  0  0  0  0
 10 11  1  0  0  0  0
 11 19  1  0  0  0  0
 11 12  1  0  0  0  0
 12 13  1  0  0  0  0
 12 22  1  0  0  0  0
 13 23  1  0  0  0  0
 14 25  1  0  0  0  0
 14 13  1  0  0  0  0
 14 24  1  0  0  0  0
 15 26  1  6  0  0  0
 15 14  1  0  0  0  0
 16  4  1  0  0  0  0
 17  5  1  0  0  0  0
 18  6  1  0  0  0  0
 20 11  1  0  0  0  0
 21 12  1  0  0  0  0
 28 27  2  0  0  0  0
 28 29  1  0  0  0  0
 29 30  1  0  0  0  0
 29 31  1  0  0  0  0
 32 35  1  1  0  0  0
 32 29  1  0  0  0  0
 33 36  1  0  0  0  0
 33 37  1  0  0  0  0
 33 32  1  0  0  0  0
 34 38  1  6  0  0  0
 34 33  1  0  0  0  0
 34 32  1  0  0  0  0
 39 40  1  0  0  0  0
 40 41  2  0  0  0  0
 40 34  1  0  0  0  0
 41 42  1  0  0  0  0
 43 44  1  0  0  0  0
 43 41  1  0  0  0  0
 45 43  2  0  0  0  0
 46 45  1  0  0  0  0
 46 39  2  0  0  0  0
 48 39  1  0  0  0  0
 48 47  1  0  0  0  0
 49 48  2  0  0  0  0
 50 48  2  0  0  0  0
M  END
>  <minimizedAffinity>
-5.84397793

>  <minimizedRMSD>
1.12786579

$$$$
