
 OpenBabel03252504343D

 43 45  0  0  0  0  0  0  0  0999 V2000
   37.3450   32.6900   40.0280 C   0  0  0  0  0  0  0  0  0  0  0  0
   36.2950   32.9220   40.2800 H   0  0  0  0  0  0  0  0  0  0  0  0
   37.4270   32.8490   38.9140 H   0  0  0  0  0  0  0  0  0  0  0  0
   36.2850   30.6300   40.7660 C   0  0  0  0  0  0  0  0  0  0  0  0
   37.4260   31.2000   40.1780 C   0  0  0  0  0  0  0  0  0  0  0  0
   38.4380   30.3890   39.8030 C   0  0  0  0  0  0  0  0  0  0  0  0
   38.2700   29.0900   40.0260 N   0  0  0  0  0  0  0  0  0  0  0  0
   37.2120   28.5260   40.5740 C   0  0  0  0  0  0  0  0  0  0  0  0
   36.1350   29.3200   40.9810 N   0  0  0  0  0  0  0  0  0  0  0  0
   35.4400   31.2230   41.0880 H   0  0  0  0  0  0  0  0  0  0  0  0
   39.2820   30.8600   39.3640 H   0  0  0  0  0  0  0  0  0  0  0  0
   37.4530   26.6020   42.0370 C   0  0  0  0  0  0  0  0  0  0  0  0
   37.0720   27.0900   40.7990 C   0  0  0  0  0  0  0  0  0  0  0  0
   36.5820   26.2310   39.8310 C   0  0  0  0  0  0  0  0  0  0  0  0
   36.2890   26.6460   38.8610 H   0  0  0  0  0  0  0  0  0  0  0  0
   36.4420   24.8720   40.0240 C   0  0  0  0  0  0  0  0  0  0  0  0
   36.0600   24.2350   39.2540 H   0  0  0  0  0  0  0  0  0  0  0  0
   36.8100   24.3420   41.2430 C   0  0  0  0  0  3  0  0  0  0  0  0
   37.2950   25.2200   42.1900 C   0  0  0  0  0  3  0  0  0  0  0  0
   38.4420   28.8600   42.8850 H   0  0  0  0  0  0  0  0  0  0  0  0
   38.0740   27.6060   43.3010 S   0  0  0  0  0  0  0  0  0  0  0  0
   36.9440   27.8440   44.2920 O   0  0  0  0  0  0  0  0  0  0  0  0
   39.1390   26.9060   44.0890 O   0  0  0  0  0  0  0  0  0  0  0  0
   38.3370   33.3640   40.6610 O   0  0  0  0  0  0  0  0  0  0  0  0
   39.4030   34.0420   40.0960 C   0  0  0  0  0  3  0  0  0  0  0  0
   40.5930   33.4560   40.2010 C   0  0  0  0  0  3  0  0  0  0  0  0
   41.8810   34.0470   39.6400 C   0  0  0  0  0  0  0  0  0  0  0  0
   42.4610   34.5250   40.4330 H   0  0  0  0  0  0  0  0  0  0  0  0
   41.6170   34.8170   38.8870 H   0  0  0  0  0  0  0  0  0  0  0  0
   42.5930   32.9940   39.0970 O   0  0  0  0  0  0  0  0  0  0  0  0
   40.9530   32.4920   37.0600 O   0  0  0  0  0  0  0  0  0  0  0  0
   42.3550   32.9220   37.4280 P   0  0  1  0  0  0  0  0  0  0  0  0
   42.6020   34.4630   36.7400 O   0  0  0  0  0  0  0  0  0  0  0  0
   43.4670   34.7780   37.0770 H   0  0  0  0  0  0  0  0  0  0  0  0
   43.4820   31.8840   36.7240 O   0  0  0  0  0  0  0  0  0  0  0  0
   42.9940   30.5990   36.5770 C   0  0  0  0  0  0  0  0  0  0  0  0
   43.9400   29.4430   36.6410 C   0  0  0  0  0  0  0  0  0  0  0  0
   43.4030   29.9050   35.2990 C   0  0  0  0  0  0  0  0  0  0  0  0
   41.9840   30.4480   37.0040 H   0  0  0  0  0  0  0  0  0  0  0  0
   44.9940   29.5780   36.8790 H   0  0  0  0  0  0  0  0  0  0  0  0
   43.4950   28.4860   36.9800 H   0  0  0  0  0  0  0  0  0  0  0  0
   42.5770   29.3070   34.8200 H   0  0  0  0  0  0  0  0  0  0  0  0
   44.1550   30.3580   34.6490 H   0  0  0  0  0  0  0  0  0  0  0  0
  1  5  1  0  0  0  0
  1  2  1  0  0  0  0
  1 24  1  0  0  0  0
  3  1  1  0  0  0  0
  4  9  1  0  0  0  0
  4 10  1  0  0  0  0
  5  4  2  0  0  0  0
  6  7  2  0  0  0  0
  6  5  1  0  0  0  0
  7  8  1  0  0  0  0
  8 13  1  0  0  0  0
  8  9  2  0  0  0  0
 11  6  1  0  0  0  0
 12 19  1  0  0  0  0
 12 21  1  0  0  0  0
 13 12  2  0  0  0  0
 14 16  2  0  0  0  0
 14 13  1  0  0  0  0
 15 14  1  0  0  0  0
 16 18  1  0  0  0  0
 17 16  1  0  0  0  0
 18 19  2  0  0  0  0
 20 21  1  0  0  0  0
 21 23  2  0  0  0  0
 21 22  2  0  0  0  0
 25 26  2  0  0  0  0
 25 24  1  0  0  0  0
 27 26  1  0  0  0  0
 27 28  1  0  0  0  0
 29 27  1  0  0  0  0
 30 27  1  0  0  0  0
 32 31  2  6  0  0  0
 32 30  1  0  0  0  0
 33 34  1  0  0  0  0
 33 32  1  0  0  0  0
 35 32  1  0  0  0  0
 36 37  1  0  0  0  0
 36 35  1  0  0  0  0
 36 39  1  0  0  0  0
 37 40  1  0  0  0  0
 37 41  1  0  0  0  0
 38 36  1  0  0  0  0
 38 37  1  0  0  0  0
 42 38  1  0  0  0  0
 43 38  1  0  0  0  0
M  END
>  <minimizedAffinity>
-5.99061012

$$$$

 OpenBabel03252504343D

 43 45  0  0  0  0  0  0  0  0999 V2000
   36.9960   32.2640   39.3080 C   0  0  0  0  0  0  0  0  0  0  0  0
   35.9430   32.3690   38.9930 H   0  0  0  0  0  0  0  0  0  0  0  0
   37.6040   32.4000   38.3670 H   0  0  0  0  0  0  0  0  0  0  0  0
   35.9770   30.2280   40.1620 C   0  0  0  0  0  0  0  0  0  0  0  0
   37.1330   30.8000   39.6070 C   0  0  0  0  0  0  0  0  0  0  0  0
   38.2070   30.0130   39.3880 C   0  0  0  0  0  0  0  0  0  0  0  0
   38.0830   28.7330   39.7220 N   0  0  0  0  0  0  0  0  0  0  0  0
   37.0110   28.1680   40.2440 C   0  0  0  0  0  0  0  0  0  0  0  0
   35.8710   28.9380   40.4920 N   0  0  0  0  0  0  0  0  0  0  0  0
   35.0830   30.8020   40.3630 H   0  0  0  0  0  0  0  0  0  0  0  0
   39.0610   30.4850   38.9670 H   0  0  0  0  0  0  0  0  0  0  0  0
   37.2700   26.3980   41.8870 C   0  0  0  0  0  0  0  0  0  0  0  0
   36.9200   26.7530   40.5960 C   0  0  0  0  0  0  0  0  0  0  0  0
   36.5050   25.7890   39.6940 C   0  0  0  0  0  0  0  0  0  0  0  0
   36.2350   26.1000   38.6800 H   0  0  0  0  0  0  0  0  0  0  0  0
   36.4120   24.4490   40.0080 C   0  0  0  0  0  0  0  0  0  0  0  0
   36.0870   23.7270   39.2870 H   0  0  0  0  0  0  0  0  0  0  0  0
   36.7510   24.0490   41.2840 C   0  0  0  0  0  3  0  0  0  0  0  0
   37.1620   25.0300   42.1620 C   0  0  0  0  0  3  0  0  0  0  0  0
   38.0550   28.7880   42.5690 H   0  0  0  0  0  0  0  0  0  0  0  0
   37.7990   27.5390   43.0740 S   0  0  0  0  0  0  0  0  0  0  0  0
   36.6500   27.7460   44.0510 O   0  0  0  0  0  0  0  0  0  0  0  0
   38.9200   26.9930   43.9040 O   0  0  0  0  0  0  0  0  0  0  0  0
   37.4750   33.0750   40.2830 O   0  0  0  0  0  0  0  0  0  0  0  0
   38.7490   33.6010   40.4070 C   0  0  0  0  0  3  0  0  0  0  0  0
   38.8840   34.8890   40.1020 C   0  0  0  0  0  3  0  0  0  0  0  0
   40.2050   35.6440   40.1810 C   0  0  0  0  0  0  0  0  0  0  0  0
   40.0510   36.6440   40.5930 H   0  0  0  0  0  0  0  0  0  0  0  0
   40.6150   35.7470   39.1560 H   0  0  0  0  0  0  0  0  0  0  0  0
   41.0300   34.9080   41.0120 O   0  0  0  0  0  0  0  0  0  0  0  0
   42.2490   32.8140   39.9100 O   0  0  0  0  0  0  0  0  0  0  0  0
   42.3460   34.3030   40.1470 P   0  0  1  0  0  0  0  0  0  0  0  0
   42.4270   35.0500   38.6160 O   0  0  0  0  0  0  0  0  0  0  0  0
   42.3780   36.0150   38.7790 H   0  0  0  0  0  0  0  0  0  0  0  0
   43.7850   34.6680   40.9480 O   0  0  0  0  0  0  0  0  0  0  0  0
   43.6260   34.7190   42.3200 C   0  0  0  0  0  0  0  0  0  0  0  0
   43.7210   36.0350   43.0230 C   0  0  0  0  0  0  0  0  0  0  0  0
   44.8790   35.0560   43.0940 C   0  0  0  0  0  0  0  0  0  0  0  0
   42.8960   33.9870   42.7170 H   0  0  0  0  0  0  0  0  0  0  0  0
   43.8340   36.9690   42.4740 H   0  0  0  0  0  0  0  0  0  0  0  0
   43.1540   36.1060   43.9720 H   0  0  0  0  0  0  0  0  0  0  0  0
   45.0090   34.4530   44.0370 H   0  0  0  0  0  0  0  0  0  0  0  0
   45.7750   35.3860   42.5640 H   0  0  0  0  0  0  0  0  0  0  0  0
  1  5  1  0  0  0  0
  1 24  1  0  0  0  0
  2  1  1  0  0  0  0
  3  1  1  0  0  0  0
  4 10  1  0  0  0  0
  4  9  1  0  0  0  0
  5  4  2  0  0  0  0
  6  5  1  0  0  0  0
  6  7  2  0  0  0  0
  7  8  1  0  0  0  0
  8  9  2  0  0  0  0
  8 13  1  0  0  0  0
 11  6  1  0  0  0  0
 12 19  1  0  0  0  0
 12 21  1  0  0  0  0
 13 12  2  0  0  0  0
 14 16  2  0  0  0  0
 14 13  1  0  0  0  0
 15 14  1  0  0  0  0
 16 18  1  0  0  0  0
 17 16  1  0  0  0  0
 18 19  2  0  0  0  0
 20 21  1  0  0  0  0
 21 23  2  0  0  0  0
 21 22  2  0  0  0  0
 24 25  1  0  0  0  0
 26 27  1  0  0  0  0
 26 25  2  0  0  0  0
 27 28  1  0  0  0  0
 27 30  1  0  0  0  0
 29 27  1  0  0  0  0
 32 31  2  6  0  0  0
 32 35  1  0  0  0  0
 32 30  1  0  0  0  0
 33 34  1  0  0  0  0
 33 32  1  0  0  0  0
 35 36  1  0  0  0  0
 36 39  1  0  0  0  0
 36 37  1  0  0  0  0
 36 38  1  0  0  0  0
 37 38  1  0  0  0  0
 37 41  1  0  0  0  0
 38 42  1  0  0  0  0
 40 37  1  0  0  0  0
 43 38  1  0  0  0  0
M  END
>  <minimizedAffinity>
-5.78195429

$$$$

 OpenBabel03252504343D

 43 45  0  0  0  0  0  0  0  0999 V2000
   37.2730   32.4480   39.6140 C   0  0  0  0  0  0  0  0  0  0  0  0
   36.2710   32.8020   39.3130 H   0  0  0  0  0  0  0  0  0  0  0  0
   37.8690   32.3950   38.6570 H   0  0  0  0  0  0  0  0  0  0  0  0
   38.1120   30.1660   39.6100 C   0  0  0  0  0  0  0  0  0  0  0  0
   37.0480   31.0080   39.9690 C   0  0  0  0  0  0  0  0  0  0  0  0
   35.9750   30.4720   40.5880 C   0  0  0  0  0  0  0  0  0  0  0  0
   36.0130   29.1630   40.8120 N   0  0  0  0  0  0  0  0  0  0  0  0
   36.9970   28.3480   40.4870 C   0  0  0  0  0  0  0  0  0  0  0  0
   38.1320   28.8510   39.8430 N   0  0  0  0  0  0  0  0  0  0  0  0
   39.0000   30.5320   39.1120 H   0  0  0  0  0  0  0  0  0  0  0  0
   35.1920   31.1430   40.8420 H   0  0  0  0  0  0  0  0  0  0  0  0
   37.4870   26.4950   41.9790 C   0  0  0  0  0  0  0  0  0  0  0  0
   36.9940   26.9120   40.7550 C   0  0  0  0  0  0  0  0  0  0  0  0
   36.5250   25.9860   39.8400 C   0  0  0  0  0  0  0  0  0  0  0  0
   36.1420   26.3460   38.8800 H   0  0  0  0  0  0  0  0  0  0  0  0
   36.5150   24.6270   40.0740 C   0  0  0  0  0  0  0  0  0  0  0  0
   36.1440   23.9360   39.3450 H   0  0  0  0  0  0  0  0  0  0  0  0
   36.9970   24.1660   41.2820 C   0  0  0  0  0  3  0  0  0  0  0  0
   37.4590   25.1100   42.1760 C   0  0  0  0  0  3  0  0  0  0  0  0
   38.5530   28.7720   42.6690 H   0  0  0  0  0  0  0  0  0  0  0  0
   38.0920   27.5850   43.1780 S   0  0  0  0  0  0  0  0  0  0  0  0
   36.9230   27.9760   44.0710 O   0  0  0  0  0  0  0  0  0  0  0  0
   39.0690   26.9130   44.0940 O   0  0  0  0  0  0  0  0  0  0  0  0
   37.9650   33.1470   40.5460 O   0  0  0  0  0  0  0  0  0  0  0  0
   38.9840   34.0610   40.3460 C   0  0  0  0  0  3  0  0  0  0  0  0
   40.2240   33.5810   40.4090 C   0  0  0  0  0  3  0  0  0  0  0  0
   41.4720   34.4310   40.2130 C   0  0  0  0  0  0  0  0  0  0  0  0
   42.3720   33.8370   40.3900 H   0  0  0  0  0  0  0  0  0  0  0  0
   41.4520   35.2630   40.9450 H   0  0  0  0  0  0  0  0  0  0  0  0
   41.4450   34.8740   38.9030 O   0  0  0  0  0  0  0  0  0  0  0  0
   41.0560   32.7630   37.3270 O   0  0  0  0  0  0  0  0  0  0  0  0
   42.1010   33.7080   37.8750 P   0  0  1  0  0  0  0  0  0  0  0  0
   42.8410   34.4660   36.5380 O   0  0  0  0  0  0  0  0  0  0  0  0
   43.4350   35.1530   36.9060 H   0  0  0  0  0  0  0  0  0  0  0  0
   43.3040   32.8380   38.6750 O   0  0  0  0  0  0  0  0  0  0  0  0
   43.1190   31.4720   38.5780 C   0  0  0  0  0  0  0  0  0  0  0  0
   42.6320   30.7100   39.7690 C   0  0  0  0  0  0  0  0  0  0  0  0
   44.0970   30.6400   39.3740 C   0  0  0  0  0  0  0  0  0  0  0  0
   42.7670   31.1340   37.5850 H   0  0  0  0  0  0  0  0  0  0  0  0
   42.3420   31.2130   40.6900 H   0  0  0  0  0  0  0  0  0  0  0  0
   42.0760   29.7800   39.5390 H   0  0  0  0  0  0  0  0  0  0  0  0
   44.4600   29.7200   38.8340 H   0  0  0  0  0  0  0  0  0  0  0  0
   44.7730   31.1220   40.0830 H   0  0  0  0  0  0  0  0  0  0  0  0
  1  5  1  0  0  0  0
  1 24  1  0  0  0  0
  2  1  1  0  0  0  0
  3  1  1  0  0  0  0
  4  9  2  0  0  0  0
  4  5  1  0  0  0  0
  5  6  2  0  0  0  0
  6  7  1  0  0  0  0
  6 11  1  0  0  0  0
  8 13  1  0  0  0  0
  8  7  2  0  0  0  0
  9  8  1  0  0  0  0
 10  4  1  0  0  0  0
 12 19  1  0  0  0  0
 12 21  1  0  0  0  0
 13 12  2  0  0  0  0
 14 16  2  0  0  0  0
 14 13  1  0  0  0  0
 15 14  1  0  0  0  0
 16 18  1  0  0  0  0
 17 16  1  0  0  0  0
 18 19  2  0  0  0  0
 20 21  1  0  0  0  0
 21 22  2  0  0  0  0
 21 23  2  0  0  0  0
 25 26  2  0  0  0  0
 25 24  1  0  0  0  0
 27 28  1  0  0  0  0
 27 26  1  0  0  0  0
 27 29  1  0  0  0  0
 30 27  1  0  0  0  0
 32 31  2  6  0  0  0
 32 35  1  0  0  0  0
 32 30  1  0  0  0  0
 33 34  1  0  0  0  0
 33 32  1  0  0  0  0
 36 35  1  0  0  0  0
 36 38  1  0  0  0  0
 36 37  1  0  0  0  0
 37 40  1  0  0  0  0
 38 37  1  0  0  0  0
 38 43  1  0  0  0  0
 39 36  1  0  0  0  0
 41 37  1  0  0  0  0
 42 38  1  0  0  0  0
M  END
>  <minimizedAffinity>
-5.77783298

$$$$

 OpenBabel03252504343D

 43 45  0  0  0  0  0  0  0  0999 V2000
   37.2120   32.3280   39.1410 C   0  0  0  0  0  0  0  0  0  0  0  0
   36.3810   32.5090   38.4360 H   0  0  0  0  0  0  0  0  0  0  0  0
   38.1360   32.2530   38.5000 H   0  0  0  0  0  0  0  0  0  0  0  0
   37.9800   30.0210   39.1770 C   0  0  0  0  0  0  0  0  0  0  0  0
   36.9860   30.9170   39.6000 C   0  0  0  0  0  0  0  0  0  0  0  0
   35.9730   30.4520   40.3600 C   0  0  0  0  0  0  0  0  0  0  0  0
   35.9970   29.1570   40.6530 N   0  0  0  0  0  0  0  0  0  0  0  0
   36.9160   28.2920   40.2710 C   0  0  0  0  0  0  0  0  0  0  0  0
   37.9880   28.7210   39.4810 N   0  0  0  0  0  0  0  0  0  0  0  0
   38.8180   30.3290   38.5660 H   0  0  0  0  0  0  0  0  0  0  0  0
   35.2410   31.1630   40.6590 H   0  0  0  0  0  0  0  0  0  0  0  0
   37.3330   26.5280   41.8880 C   0  0  0  0  0  0  0  0  0  0  0  0
   36.9020   26.8730   40.6190 C   0  0  0  0  0  0  0  0  0  0  0  0
   36.4800   25.8960   39.7350 C   0  0  0  0  0  0  0  0  0  0  0  0
   36.1450   26.2000   38.7380 H   0  0  0  0  0  0  0  0  0  0  0  0
   36.4600   24.5520   40.0450 C   0  0  0  0  0  0  0  0  0  0  0  0
   36.1270   23.8200   39.3380 H   0  0  0  0  0  0  0  0  0  0  0  0
   36.8810   24.1620   41.2990 C   0  0  0  0  0  3  0  0  0  0  0  0
   37.2970   25.1560   42.1600 C   0  0  0  0  0  3  0  0  0  0  0  0
   38.0660   28.9430   42.5390 H   0  0  0  0  0  0  0  0  0  0  0  0
   37.8760   27.6860   43.0520 S   0  0  0  0  0  0  0  0  0  0  0  0
   36.7670   27.8530   44.0810 O   0  0  0  0  0  0  0  0  0  0  0  0
   39.0510   27.1780   43.8300 O   0  0  0  0  0  0  0  0  0  0  0  0
   37.4230   33.2100   40.1480 O   0  0  0  0  0  0  0  0  0  0  0  0
   38.6320   33.6600   40.6490 C   0  0  0  0  0  3  0  0  0  0  0  0
   39.1090   34.7810   40.1140 C   0  0  0  0  0  3  0  0  0  0  0  0
   40.4200   35.4310   40.5370 C   0  0  0  0  0  0  0  0  0  0  0  0
   40.7350   35.0570   41.5140 H   0  0  0  0  0  0  0  0  0  0  0  0
   40.2620   36.5260   40.6170 H   0  0  0  0  0  0  0  0  0  0  0  0
   41.3540   35.0960   39.5750 O   0  0  0  0  0  0  0  0  0  0  0  0
   43.8270   34.1240   39.7470 O   0  0  0  0  0  0  0  0  0  0  0  0
   42.3890   33.8960   40.1530 P   0  0  1  0  0  0  0  0  0  0  0  0
   42.3490   33.8680   41.8580 O   0  0  0  0  0  0  0  0  0  0  0  0
   41.4030   33.8310   42.1100 H   0  0  0  0  0  0  0  0  0  0  0  0
   41.8730   32.3800   39.6250 O   0  0  0  0  0  0  0  0  0  0  0  0
   41.8750   32.2730   38.2480 C   0  0  0  0  0  0  0  0  0  0  0  0
   40.5760   32.2690   37.5090 C   0  0  0  0  0  0  0  0  0  0  0  0
   41.3330   30.9690   37.7090 C   0  0  0  0  0  0  0  0  0  0  0  0
   42.7320   32.7740   37.7580 H   0  0  0  0  0  0  0  0  0  0  0  0
   39.6270   32.4290   38.0190 H   0  0  0  0  0  0  0  0  0  0  0  0
   40.6240   32.6430   36.4660 H   0  0  0  0  0  0  0  0  0  0  0  0
   41.9190   30.5540   36.8410 H   0  0  0  0  0  0  0  0  0  0  0  0
   40.8400   30.2650   38.3820 H   0  0  0  0  0  0  0  0  0  0  0  0
  1  5  1  0  0  0  0
  1 24  1  0  0  0  0
  2  1  1  0  0  0  0
  3  1  1  0  0  0  0
  4  9  2  0  0  0  0
  4  5  1  0  0  0  0
  5  6  2  0  0  0  0
  6  7  1  0  0  0  0
  6 11  1  0  0  0  0
  8 13  1  0  0  0  0
  8  7  2  0  0  0  0
  9  8  1  0  0  0  0
 10  4  1  0  0  0  0
 12 19  1  0  0  0  0
 12 21  1  0  0  0  0
 13 12  2  0  0  0  0
 14 16  2  0  0  0  0
 14 13  1  0  0  0  0
 15 14  1  0  0  0  0
 16 18  1  0  0  0  0
 17 16  1  0  0  0  0
 18 19  2  0  0  0  0
 20 21  1  0  0  0  0
 21 23  2  0  0  0  0
 21 22  2  0  0  0  0
 24 25  1  0  0  0  0
 26 27  1  0  0  0  0
 26 25  2  0  0  0  0
 27 29  1  0  0  0  0
 27 28  1  0  0  0  0
 30 32  1  0  0  0  0
 30 27  1  0  0  0  0
 32 31  2  6  0  0  0
 32 33  1  0  0  0  0
 33 34  1  0  0  0  0
 35 32  1  0  0  0  0
 36 35  1  0  0  0  0
 37 38  1  0  0  0  0
 37 40  1  0  0  0  0
 37 36  1  0  0  0  0
 38 36  1  0  0  0  0
 38 43  1  0  0  0  0
 39 36  1  0  0  0  0
 41 37  1  0  0  0  0
 42 38  1  0  0  0  0
M  END
>  <minimizedAffinity>
-5.59056377

$$$$

 OpenBabel03252504343D

 43 45  0  0  0  0  0  0  0  0999 V2000
   37.2780   32.5510   39.4120 C   0  0  0  0  0  0  0  0  0  0  0  0
   36.3310   32.8360   38.9200 H   0  0  0  0  0  0  0  0  0  0  0  0
   38.0340   32.4720   38.5790 H   0  0  0  0  0  0  0  0  0  0  0  0
   38.0390   30.2420   39.3530 C   0  0  0  0  0  0  0  0  0  0  0  0
   37.0510   31.1240   39.8180 C   0  0  0  0  0  0  0  0  0  0  0  0
   36.0420   30.6330   40.5680 C   0  0  0  0  0  0  0  0  0  0  0  0
   36.0640   29.3280   40.8100 N   0  0  0  0  0  0  0  0  0  0  0  0
   36.9780   28.4750   40.3880 C   0  0  0  0  0  0  0  0  0  0  0  0
   38.0450   28.9310   39.6070 N   0  0  0  0  0  0  0  0  0  0  0  0
   38.8730   30.5700   38.7480 H   0  0  0  0  0  0  0  0  0  0  0  0
   35.3150   31.3340   40.8990 H   0  0  0  0  0  0  0  0  0  0  0  0
   37.4040   26.6480   41.9310 C   0  0  0  0  0  0  0  0  0  0  0  0
   36.9610   27.0440   40.6810 C   0  0  0  0  0  0  0  0  0  0  0  0
   36.5270   26.1030   39.7640 C   0  0  0  0  0  0  0  0  0  0  0  0
   36.1820   26.4460   38.7830 H   0  0  0  0  0  0  0  0  0  0  0  0
   36.5040   24.7480   40.0220 C   0  0  0  0  0  0  0  0  0  0  0  0
   36.1620   24.0450   39.2910 H   0  0  0  0  0  0  0  0  0  0  0  0
   36.9370   24.3080   41.2560 C   0  0  0  0  0  3  0  0  0  0  0  0
   37.3650   25.2670   42.1510 C   0  0  0  0  0  3  0  0  0  0  0  0
   38.2120   29.0190   42.6540 H   0  0  0  0  0  0  0  0  0  0  0  0
   37.9630   27.7580   43.1330 S   0  0  0  0  0  0  0  0  0  0  0  0
   36.8380   27.9440   44.1410 O   0  0  0  0  0  0  0  0  0  0  0  0
   39.1020   27.1890   43.9240 O   0  0  0  0  0  0  0  0  0  0  0  0
   37.7670   33.3370   40.4020 O   0  0  0  0  0  0  0  0  0  0  0  0
   38.9270   34.0910   40.3990 C   0  0  0  0  0  3  0  0  0  0  0  0
   39.9420   33.6050   39.6890 C   0  0  0  0  0  3  0  0  0  0  0  0
   41.2950   34.2940   39.5630 C   0  0  0  0  0  0  0  0  0  0  0  0
   41.1910   35.2510   39.0460 H   0  0  0  0  0  0  0  0  0  0  0  0
   41.9680   33.6450   38.9650 H   0  0  0  0  0  0  0  0  0  0  0  0
   41.7550   34.4950   40.8500 O   0  0  0  0  0  0  0  0  0  0  0  0
   44.0880   33.2800   40.4350 O   0  0  0  0  0  0  0  0  0  0  0  0
   42.8380   33.2760   41.2840 P   0  0  1  0  0  0  0  0  0  0  0  0
   43.3320   33.4880   42.9030 O   0  0  0  0  0  0  0  0  0  0  0  0
   42.5110   33.5940   43.4290 H   0  0  0  0  0  0  0  0  0  0  0  0
   42.0840   31.7700   41.1940 O   0  0  0  0  0  0  0  0  0  0  0  0
   41.5980   31.3500   42.4180 C   0  0  0  0  0  0  0  0  0  0  0  0
   41.0930   29.9510   42.5660 C   0  0  0  0  0  0  0  0  0  0  0  0
   40.1080   31.1010   42.4600 C   0  0  0  0  0  0  0  0  0  0  0  0
   42.1220   31.7920   43.2870 H   0  0  0  0  0  0  0  0  0  0  0  0
   41.1700   29.2260   41.7570 H   0  0  0  0  0  0  0  0  0  0  0  0
   41.1600   29.5310   43.5900 H   0  0  0  0  0  0  0  0  0  0  0  0
   39.6110   31.4660   43.4020 H   0  0  0  0  0  0  0  0  0  0  0  0
   39.5280   31.1070   41.5350 H   0  0  0  0  0  0  0  0  0  0  0  0
  1  5  1  0  0  0  0
  1 24  1  0  0  0  0
  2  1  1  0  0  0  0
  3  1  1  0  0  0  0
  4  9  2  0  0  0  0
  4  5  1  0  0  0  0
  5  6  2  0  0  0  0
  6  7  1  0  0  0  0
  6 11  1  0  0  0  0
  8 13  1  0  0  0  0
  8  7  2  0  0  0  0
  9  8  1  0  0  0  0
 10  4  1  0  0  0  0
 12 19  1  0  0  0  0
 12 21  1  0  0  0  0
 13 12  2  0  0  0  0
 14 16  2  0  0  0  0
 14 13  1  0  0  0  0
 15 14  1  0  0  0  0
 16 18  1  0  0  0  0
 17 16  1  0  0  0  0
 18 19  2  0  0  0  0
 20 21  1  0  0  0  0
 21 23  2  0  0  0  0
 21 22  2  0  0  0  0
 25 24  1  0  0  0  0
 26 25  2  0  0  0  0
 27 26  1  0  0  0  0
 27 30  1  0  0  0  0
 28 27  1  0  0  0  0
 29 27  1  0  0  0  0
 30 32  1  0  0  0  0
 32 31  2  6  0  0  0
 32 33  1  0  0  0  0
 33 34  1  0  0  0  0
 35 32  1  0  0  0  0
 35 36  1  0  0  0  0
 36 38  1  0  0  0  0
 36 37  1  0  0  0  0
 36 39  1  0  0  0  0
 37 41  1  0  0  0  0
 38 37  1  0  0  0  0
 38 42  1  0  0  0  0
 40 37  1  0  0  0  0
 43 38  1  0  0  0  0
M  END
>  <minimizedAffinity>
-5.50564623

$$$$

 OpenBabel03252504343D

 43 45  0  0  0  0  0  0  0  0999 V2000
   38.3990   32.4730   39.4990 C   0  0  0  0  0  0  0  0  0  0  0  0
   38.6390   31.5710   38.9090 H   0  0  0  0  0  0  0  0  0  0  0  0
   38.1730   33.2750   38.7390 H   0  0  0  0  0  0  0  0  0  0  0  0
   40.0860   34.2070   39.7480 C   0  0  0  0  0  0  0  0  0  0  0  0
   39.7250   32.8880   40.0650 C   0  0  0  0  0  0  0  0  0  0  0  0
   40.5590   32.1530   40.8300 C   0  0  0  0  0  0  0  0  0  0  0  0
   41.6780   32.7480   41.2290 N   0  0  0  0  0  0  0  0  0  0  0  0
   42.0420   33.9840   40.9470 C   0  0  0  0  0  0  0  0  0  0  0  0
   41.2150   34.7890   40.1580 N   0  0  0  0  0  0  0  0  0  0  0  0
   39.4630   34.8490   39.1390 H   0  0  0  0  0  0  0  0  0  0  0  0
   40.2500   31.1600   41.0470 H   0  0  0  0  0  0  0  0  0  0  0  0
   44.4390   34.2980   40.7080 C   0  0  0  0  0  0  0  0  0  0  0  0
   43.2850   34.5980   41.4100 C   0  0  0  0  0  0  0  0  0  0  0  0
   43.3320   35.4470   42.5010 C   0  0  0  0  0  0  0  0  0  0  0  0
   42.4020   35.6660   43.0360 H   0  0  0  0  0  0  0  0  0  0  0  0
   44.4950   36.0360   42.9530 C   0  0  0  0  0  0  0  0  0  0  0  0
   44.4980   36.6890   43.8010 H   0  0  0  0  0  0  0  0  0  0  0  0
   45.6700   35.7650   42.2830 C   0  0  0  0  0  3  0  0  0  0  0  0
   45.5950   34.9150   41.1990 C   0  0  0  0  0  3  0  0  0  0  0  0
   43.3140   32.5260   39.1620 H   0  0  0  0  0  0  0  0  0  0  0  0
   44.4670   33.2470   39.3350 S   0  0  0  0  0  0  0  0  0  0  0  0
   44.5650   34.1210   38.0930 O   0  0  0  0  0  0  0  0  0  0  0  0
   45.7040   32.4020   39.3110 O   0  0  0  0  0  0  0  0  0  0  0  0
   37.4010   32.4130   40.4140 O   0  0  0  0  0  0  0  0  0  0  0  0
   36.5290   31.3670   40.6600 C   0  0  0  0  0  3  0  0  0  0  0  0
   36.3860   30.4790   39.6790 C   0  0  0  0  0  3  0  0  0  0  0  0
   35.4760   29.2610   39.7660 C   0  0  0  0  0  0  0  0  0  0  0  0
   34.6090   29.3830   39.1110 H   0  0  0  0  0  0  0  0  0  0  0  0
   35.1140   29.1630   40.8100 H   0  0  0  0  0  0  0  0  0  0  0  0
   36.2300   28.1760   39.3600 O   0  0  0  0  0  0  0  0  0  0  0  0
   37.0770   25.9990   40.6390 O   0  0  0  0  0  0  0  0  0  0  0  0
   37.0550   27.5100   40.6730 P   0  0  1  0  0  0  0  0  0  0  0  0
   38.6780   28.0350   40.6650 O   0  0  0  0  0  0  0  0  0  0  0  0
   38.6500   29.0100   40.5760 H   0  0  0  0  0  0  0  0  0  0  0  0
   36.3730   28.0450   42.1200 O   0  0  0  0  0  0  0  0  0  0  0  0
   37.3280   28.3910   43.0570 C   0  0  0  0  0  0  0  0  0  0  0  0
   38.0680   27.3140   43.7820 C   0  0  0  0  0  0  0  0  0  0  0  0
   36.9600   28.0750   44.4870 C   0  0  0  0  0  0  0  0  0  0  0  0
   37.8910   29.3110   42.8080 H   0  0  0  0  0  0  0  0  0  0  0  0
   37.9330   26.2610   43.5370 H   0  0  0  0  0  0  0  0  0  0  0  0
   39.0800   27.5940   44.1380 H   0  0  0  0  0  0  0  0  0  0  0  0
   37.2480   28.8790   45.2220 H   0  0  0  0  0  0  0  0  0  0  0  0
   36.0740   27.4740   44.7020 H   0  0  0  0  0  0  0  0  0  0  0  0
  1  5  1  0  0  0  0
  1 24  1  0  0  0  0
  2  1  1  0  0  0  0
  3  1  1  0  0  0  0
  4  5  2  0  0  0  0
  4  9  1  0  0  0  0
  5  6  1  0  0  0  0
  6 11  1  0  0  0  0
  6  7  2  0  0  0  0
  8  7  1  0  0  0  0
  8 13  1  0  0  0  0
  9  8  2  0  0  0  0
 10  4  1  0  0  0  0
 12 19  2  0  0  0  0
 12 13  1  0  0  0  0
 13 14  2  0  0  0  0
 14 16  1  0  0  0  0
 14 15  1  0  0  0  0
 16 17  1  0  0  0  0
 18 16  2  0  0  0  0
 19 18  1  0  0  0  0
 20 21  1  0  0  0  0
 21 12  1  0  0  0  0
 22 21  2  0  0  0  0
 23 21  2  0  0  0  0
 24 25  1  0  0  0  0
 26 27  1  0  0  0  0
 26 25  2  0  0  0  0
 27 29  1  0  0  0  0
 28 27  1  0  0  0  0
 30 27  1  0  0  0  0
 30 32  1  0  0  0  0
 32 31  2  6  0  0  0
 32 35  1  0  0  0  0
 33 32  1  0  0  0  0
 34 33  1  0  0  0  0
 35 36  1  0  0  0  0
 36 37  1  0  0  0  0
 36 38  1  0  0  0  0
 37 41  1  0  0  0  0
 37 38  1  0  0  0  0
 38 43  1  0  0  0  0
 38 42  1  0  0  0  0
 39 36  1  0  0  0  0
 40 37  1  0  0  0  0
M  END
>  <minimizedAffinity>
-5.46293545

$$$$

 OpenBabel03252504343D

 43 45  0  0  0  0  0  0  0  0999 V2000
   37.5220   33.4460   39.7710 C   0  0  0  0  0  0  0  0  0  0  0  0
   37.1750   34.4930   39.7040 H   0  0  0  0  0  0  0  0  0  0  0  0
   37.0460   33.0340   40.7070 H   0  0  0  0  0  0  0  0  0  0  0  0
   39.4930   34.8610   39.9330 C   0  0  0  0  0  0  0  0  0  0  0  0
   38.9700   33.5740   40.1390 C   0  0  0  0  0  0  0  0  0  0  0  0
   39.7780   32.6180   40.6430 C   0  0  0  0  0  0  0  0  0  0  0  0
   41.0290   32.9770   40.9080 N   0  0  0  0  0  0  0  0  0  0  0  0
   41.5470   34.1760   40.7260 C   0  0  0  0  0  0  0  0  0  0  0  0
   40.7540   35.2040   40.2070 N   0  0  0  0  0  0  0  0  0  0  0  0
   38.8990   35.6720   39.5330 H   0  0  0  0  0  0  0  0  0  0  0  0
   39.3450   31.6580   40.7820 H   0  0  0  0  0  0  0  0  0  0  0  0
   43.9010   34.1350   40.1270 C   0  0  0  0  0  0  0  0  0  0  0  0
   42.9320   34.5270   41.0340 C   0  0  0  0  0  0  0  0  0  0  0  0
   43.2860   35.2200   42.1780 C   0  0  0  0  0  0  0  0  0  0  0  0
   42.4970   35.5160   42.8770 H   0  0  0  0  0  0  0  0  0  0  0  0
   44.5870   35.5590   42.4860 C   0  0  0  0  0  0  0  0  0  0  0  0
   44.8280   36.0970   43.3800 H   0  0  0  0  0  0  0  0  0  0  0  0
   45.5860   35.1890   41.6090 C   0  0  0  0  0  3  0  0  0  0  0  0
   45.2060   34.4990   40.4770 C   0  0  0  0  0  3  0  0  0  0  0  0
   42.4430   32.4540   38.7680 H   0  0  0  0  0  0  0  0  0  0  0  0
   43.5440   33.2670   38.6740 S   0  0  0  0  0  0  0  0  0  0  0  0
   43.1770   34.2900   37.6090 O   0  0  0  0  0  0  0  0  0  0  0  0
   44.7550   32.5660   38.1380 O   0  0  0  0  0  0  0  0  0  0  0  0
   37.2870   32.6090   38.7310 O   0  0  0  0  0  0  0  0  0  0  0  0
   36.8770   31.2880   38.7740 C   0  0  0  0  0  3  0  0  0  0  0  0
   36.5090   30.8260   39.9660 C   0  0  0  0  0  3  0  0  0  0  0  0
   36.0260   29.4020   40.2110 C   0  0  0  0  0  0  0  0  0  0  0  0
   35.3370   29.0900   39.4220 H   0  0  0  0  0  0  0  0  0  0  0  0
   35.4850   29.3740   41.1790 H   0  0  0  0  0  0  0  0  0  0  0  0
   37.1500   28.5980   40.2060 O   0  0  0  0  0  0  0  0  0  0  0  0
   38.8270   29.3560   42.1310 O   0  0  0  0  0  0  0  0  0  0  0  0
   37.7250   28.3820   41.7770 P   0  0  1  0  0  0  0  0  0  0  0  0
   36.4620   28.6280   42.8960 O   0  0  0  0  0  0  0  0  0  0  0  0
   35.7140   28.0730   42.5910 H   0  0  0  0  0  0  0  0  0  0  0  0
   38.2650   26.7990   41.9860 O   0  0  0  0  0  0  0  0  0  0  0  0
   37.2240   25.8990   42.1140 C   0  0  0  0  0  0  0  0  0  0  0  0
   37.5160   24.4330   42.1190 C   0  0  0  0  0  0  0  0  0  0  0  0
   36.9320   25.0830   40.8770 C   0  0  0  0  0  0  0  0  0  0  0  0
   36.4020   26.2520   42.7660 H   0  0  0  0  0  0  0  0  0  0  0  0
   38.5360   24.0530   42.1030 H   0  0  0  0  0  0  0  0  0  0  0  0
   36.7830   23.8070   42.6660 H   0  0  0  0  0  0  0  0  0  0  0  0
   35.8330   24.9450   40.6700 H   0  0  0  0  0  0  0  0  0  0  0  0
   37.6170   25.1160   40.0270 H   0  0  0  0  0  0  0  0  0  0  0  0
  1  5  1  0  0  0  0
  1  3  1  0  0  0  0
  2  1  1  0  0  0  0
  4  5  2  0  0  0  0
  4  9  1  0  0  0  0
  5  6  1  0  0  0  0
  6 11  1  0  0  0  0
  6  7  2  0  0  0  0
  8  7  1  0  0  0  0
  8 13  1  0  0  0  0
  9  8  2  0  0  0  0
 10  4  1  0  0  0  0
 12 19  2  0  0  0  0
 12 13  1  0  0  0  0
 13 14  2  0  0  0  0
 14 16  1  0  0  0  0
 14 15  1  0  0  0  0
 16 17  1  0  0  0  0
 18 16  2  0  0  0  0
 19 18  1  0  0  0  0
 21 20  1  0  0  0  0
 21 12  1  0  0  0  0
 22 21  2  0  0  0  0
 23 21  2  0  0  0  0
 24 25  1  0  0  0  0
 24  1  1  0  0  0  0
 25 26  2  0  0  0  0
 26 27  1  0  0  0  0
 27 29  1  0  0  0  0
 28 27  1  0  0  0  0
 30 27  1  0  0  0  0
 30 32  1  0  0  0  0
 32 35  1  0  0  0  0
 32 31  2  1  0  0  0
 32 33  1  0  0  0  0
 34 33  1  0  0  0  0
 35 36  1  0  0  0  0
 36 37  1  0  0  0  0
 36 39  1  0  0  0  0
 37 41  1  0  0  0  0
 38 36  1  0  0  0  0
 38 37  1  0  0  0  0
 40 37  1  0  0  0  0
 42 38  1  0  0  0  0
 43 38  1  0  0  0  0
M  END
>  <minimizedAffinity>
-5.44779253

$$$$

 OpenBabel03252504343D

 43 45  0  0  0  0  0  0  0  0999 V2000
   37.5340   31.5070   37.3920 C   0  0  0  0  0  0  0  0  0  0  0  0
   36.9360   32.3030   37.8690 H   0  0  0  0  0  0  0  0  0  0  0  0
   36.9780   31.2410   36.4480 H   0  0  0  0  0  0  0  0  0  0  0  0
   38.0820   29.1980   37.9270 C   0  0  0  0  0  0  0  0  0  0  0  0
   37.3110   30.3170   38.2790 C   0  0  0  0  0  0  0  0  0  0  0  0
   36.4870   30.2290   39.3450 C   0  0  0  0  0  0  0  0  0  0  0  0
   36.4720   29.0680   39.9890 N   0  0  0  0  0  0  0  0  0  0  0  0
   37.1850   28.0010   39.6830 C   0  0  0  0  0  0  0  0  0  0  0  0
   38.0540   28.0380   38.5870 N   0  0  0  0  0  0  0  0  0  0  0  0
   38.7610   29.2020   37.0850 H   0  0  0  0  0  0  0  0  0  0  0  0
   35.9200   31.0980   39.5770 H   0  0  0  0  0  0  0  0  0  0  0  0
   37.6870   26.7320   41.6910 C   0  0  0  0  0  0  0  0  0  0  0  0
   37.1360   26.7420   40.4220 C   0  0  0  0  0  0  0  0  0  0  0  0
   36.5690   25.5940   39.8970 C   0  0  0  0  0  0  0  0  0  0  0  0
   36.1410   25.6340   38.8900 H   0  0  0  0  0  0  0  0  0  0  0  0
   36.5140   24.3970   40.5800 C   0  0  0  0  0  0  0  0  0  0  0  0
   36.0680   23.5260   40.1460 H   0  0  0  0  0  0  0  0  0  0  0  0
   37.0510   24.3400   41.8490 C   0  0  0  0  0  3  0  0  0  0  0  0
   37.6100   25.4990   42.3480 C   0  0  0  0  0  3  0  0  0  0  0  0
   38.7450   29.1090   41.5290 H   0  0  0  0  0  0  0  0  0  0  0  0
   38.4140   28.1210   42.4210 S   0  0  0  0  0  0  0  0  0  0  0  0
   37.3730   28.7570   43.3310 O   0  0  0  0  0  0  0  0  0  0  0  0
   39.5430   27.7410   43.3300 O   0  0  0  0  0  0  0  0  0  0  0  0
   38.8370   31.7450   37.1050 O   0  0  0  0  0  0  0  0  0  0  0  0
   39.8960   31.8750   37.9850 C   0  0  0  0  0  3  0  0  0  0  0  0
   41.0880   32.1040   37.4410 C   0  0  0  0  0  3  0  0  0  0  0  0
   42.3690   32.2790   38.2470 C   0  0  0  0  0  0  0  0  0  0  0  0
   42.9270   33.1510   37.8970 H   0  0  0  0  0  0  0  0  0  0  0  0
   43.0020   31.3790   38.1040 H   0  0  0  0  0  0  0  0  0  0  0  0
   41.9840   32.4560   39.5630 O   0  0  0  0  0  0  0  0  0  0  0  0
   43.6330   33.7110   41.2350 O   0  0  0  0  0  0  0  0  0  0  0  0
   42.5890   33.9130   40.1600 P   0  0  1  0  0  0  0  0  0  0  0  0
   43.3300   34.7940   38.9010 O   0  0  0  0  0  0  0  0  0  0  0  0
   42.6810   34.8220   38.1670 H   0  0  0  0  0  0  0  0  0  0  0  0
   41.3300   34.8670   40.7510 O   0  0  0  0  0  0  0  0  0  0  0  0
   40.3280   35.0530   39.8170 C   0  0  0  0  0  0  0  0  0  0  0  0
   39.2350   36.0350   40.0980 C   0  0  0  0  0  0  0  0  0  0  0  0
   38.9670   34.5470   40.2340 C   0  0  0  0  0  0  0  0  0  0  0  0
   40.6670   34.9630   38.7680 H   0  0  0  0  0  0  0  0  0  0  0  0
   39.2480   36.6670   40.9850 H   0  0  0  0  0  0  0  0  0  0  0  0
   38.7590   36.4810   39.2020 H   0  0  0  0  0  0  0  0  0  0  0  0
   38.3990   34.0300   39.4100 H   0  0  0  0  0  0  0  0  0  0  0  0
   38.7990   34.2160   41.2620 H   0  0  0  0  0  0  0  0  0  0  0  0
  1  2  1  0  0  0  0
  1  5  1  0  0  0  0
  3  1  1  0  0  0  0
  4  5  2  0  0  0  0
  4  9  1  0  0  0  0
  5  6  1  0  0  0  0
  6 11  1  0  0  0  0
  6  7  2  0  0  0  0
  8  7  1  0  0  0  0
  8 13  1  0  0  0  0
  9  8  2  0  0  0  0
 10  4  1  0  0  0  0
 12 19  1  0  0  0  0
 12 21  1  0  0  0  0
 13 12  2  0  0  0  0
 14 13  1  0  0  0  0
 14 16  2  0  0  0  0
 15 14  1  0  0  0  0
 16 18  1  0  0  0  0
 17 16  1  0  0  0  0
 18 19  2  0  0  0  0
 20 21  1  0  0  0  0
 21 23  2  0  0  0  0
 21 22  2  0  0  0  0
 24  1  1  0  0  0  0
 24 25  1  0  0  0  0
 26 25  2  0  0  0  0
 26 27  1  0  0  0  0
 27 30  1  0  0  0  0
 28 27  1  0  0  0  0
 29 27  1  0  0  0  0
 30 32  1  0  0  0  0
 32 35  1  0  0  0  0
 32 31  2  1  0  0  0
 33 32  1  0  0  0  0
 34 33  1  0  0  0  0
 36 37  1  0  0  0  0
 36 38  1  0  0  0  0
 36 35  1  0  0  0  0
 37 38  1  0  0  0  0
 37 40  1  0  0  0  0
 38 43  1  0  0  0  0
 39 36  1  0  0  0  0
 41 37  1  0  0  0  0
 42 38  1  0  0  0  0
M  END
>  <minimizedAffinity>
-5.21322298

$$$$

 OpenBabel03252504343D

 43 45  0  0  0  0  0  0  0  0999 V2000
   35.6940   29.4350   38.4870 C   0  0  0  0  0  0  0  0  0  0  0  0
   35.9540   29.4180   37.4140 H   0  0  0  0  0  0  0  0  0  0  0  0
   34.6510   29.8630   38.5350 H   0  0  0  0  0  0  0  0  0  0  0  0
   37.4100   31.1130   38.0940 C   0  0  0  0  0  0  0  0  0  0  0  0
   36.5510   30.5340   39.0420 C   0  0  0  0  0  0  0  0  0  0  0  0
   36.5640   31.0090   40.3050 C   0  0  0  0  0  0  0  0  0  0  0  0
   37.4040   32.0060   40.5560 N   0  0  0  0  0  0  0  0  0  0  0  0
   38.2220   32.5690   39.6870 C   0  0  0  0  0  0  0  0  0  0  0  0
   38.2500   32.1150   38.3650 N   0  0  0  0  0  0  0  0  0  0  0  0
   37.4500   30.7790   37.0660 H   0  0  0  0  0  0  0  0  0  0  0  0
   35.8990   30.5430   40.9920 H   0  0  0  0  0  0  0  0  0  0  0  0
   40.4480   33.3400   40.2780 C   0  0  0  0  0  0  0  0  0  0  0  0
   39.1300   33.6670   40.0090 C   0  0  0  0  0  0  0  0  0  0  0  0
   38.7170   34.9870   40.0500 C   0  0  0  0  0  0  0  0  0  0  0  0
   37.6680   35.2140   39.8330 H   0  0  0  0  0  0  0  0  0  0  0  0
   39.5600   36.0360   40.3520 C   0  0  0  0  0  0  0  0  0  0  0  0
   39.2080   37.0470   40.3760 H   0  0  0  0  0  0  0  0  0  0  0  0
   40.8820   35.7560   40.6270 C   0  0  0  0  0  3  0  0  0  0  0  0
   41.2680   34.4330   40.5800 C   0  0  0  0  0  3  0  0  0  0  0  0
   40.0750   30.7620   40.4050 H   0  0  0  0  0  0  0  0  0  0  0  0
   41.0470   31.7170   40.2480 S   0  0  0  0  0  0  0  0  0  0  0  0
   41.6140   31.4660   38.8580 O   0  0  0  0  0  0  0  0  0  0  0  0
   42.2080   31.5400   41.1780 O   0  0  0  0  0  0  0  0  0  0  0  0
   35.7480   28.2800   39.1940 O   0  0  0  0  0  0  0  0  0  0  0  0
   36.8670   27.5490   39.5510 C   0  0  0  0  0  3  0  0  0  0  0  0
   36.7730   26.2280   39.4180 C   0  0  0  0  0  3  0  0  0  0  0  0
   37.8990   25.2600   39.7560 C   0  0  0  0  0  0  0  0  0  0  0  0
   38.2860   24.7900   38.8480 H   0  0  0  0  0  0  0  0  0  0  0  0
   37.4960   24.4650   40.4160 H   0  0  0  0  0  0  0  0  0  0  0  0
   38.8900   26.0060   40.3660 O   0  0  0  0  0  0  0  0  0  0  0  0
   39.0810   24.1060   42.2210 O   0  0  0  0  0  0  0  0  0  0  0  0
   39.0110   25.5990   41.9990 P   0  0  1  0  0  0  0  0  0  0  0  0
   40.4320   26.2710   42.6600 O   0  0  0  0  0  0  0  0  0  0  0  0
   40.4280   27.2190   42.4130 H   0  0  0  0  0  0  0  0  0  0  0  0
   37.7140   26.2500   42.8570 O   0  0  0  0  0  0  0  0  0  0  0  0
   38.0770   27.3570   43.6010 C   0  0  0  0  0  0  0  0  0  0  0  0
   37.0300   28.1090   44.3590 C   0  0  0  0  0  0  0  0  0  0  0  0
   37.5770   28.6780   43.0620 C   0  0  0  0  0  0  0  0  0  0  0  0
   39.0780   27.2790   44.0660 H   0  0  0  0  0  0  0  0  0  0  0  0
   35.9990   27.7620   44.4070 H   0  0  0  0  0  0  0  0  0  0  0  0
   37.3930   28.6480   45.2570 H   0  0  0  0  0  0  0  0  0  0  0  0
   38.3330   29.5110   43.1230 H   0  0  0  0  0  0  0  0  0  0  0  0
   36.8550   28.6940   42.2430 H   0  0  0  0  0  0  0  0  0  0  0  0
  1  3  1  0  0  0  0
  1  5  1  0  0  0  0
  1 24  1  0  0  0  0
  2  1  1  0  0  0  0
  4  9  2  0  0  0  0
  4  5  1  0  0  0  0
  5  6  2  0  0  0  0
  6  7  1  0  0  0  0
  6 11  1  0  0  0  0
  8 13  1  0  0  0  0
  8  7  2  0  0  0  0
  9  8  1  0  0  0  0
 10  4  1  0  0  0  0
 12 19  1  0  0  0  0
 13 14  1  0  0  0  0
 13 12  2  0  0  0  0
 14 16  2  0  0  0  0
 15 14  1  0  0  0  0
 16 17  1  0  0  0  0
 16 18  1  0  0  0  0
 19 18  2  0  0  0  0
 21 12  1  0  0  0  0
 21 20  1  0  0  0  0
 21 23  2  0  0  0  0
 22 21  2  0  0  0  0
 24 25  1  0  0  0  0
 26 25  2  0  0  0  0
 26 27  1  0  0  0  0
 27 30  1  0  0  0  0
 27 29  1  0  0  0  0
 28 27  1  0  0  0  0
 30 32  1  0  0  0  0
 32 31  2  1  0  0  0
 32 33  1  0  0  0  0
 32 35  1  0  0  0  0
 34 33  1  0  0  0  0
 35 36  1  0  0  0  0
 36 39  1  0  0  0  0
 36 37  1  0  0  0  0
 37 40  1  0  0  0  0
 37 41  1  0  0  0  0
 38 42  1  0  0  0  0
 38 36  1  0  0  0  0
 38 37  1  0  0  0  0
 43 38  1  0  0  0  0
M  END
>  <minimizedAffinity>
-5.20545149

$$$$
