
 OpenBabel03242519333D

 51 54  0  0  0  0  0  0  0  0999 V2000
   38.1870   31.9060   39.9030 C   0  0  0  0  0  0  0  0  0  0  0  0
   38.6070   30.9330   39.0800 N   0  0  0  0  0  0  0  0  0  0  0  0
   37.6660   29.9500   39.0330 C   0  0  0  0  0  0  0  0  0  0  0  0
   36.6630   30.3400   39.8440 N   0  0  0  0  0  0  0  0  0  0  0  0
   36.9740   31.5250   40.3740 N   0  0  0  0  0  0  0  0  0  0  0  0
   37.7190   29.0310   38.4520 H   0  0  0  0  0  0  0  0  0  0  0  0
   41.0310   34.1630   40.5090 C   0  0  0  0  0  0  0  0  0  0  0  0
   40.3590   35.4190   40.4640 C   0  0  0  0  0  0  0  0  0  0  0  0
   38.9770   35.4670   40.2350 C   0  0  0  0  0  0  0  0  0  0  0  0
   38.3450   34.2660   40.0630 N   0  0  0  0  0  0  0  0  0  0  0  0
   39.0330   33.0710   40.1140 C   0  0  0  0  0  0  0  0  0  0  0  0
   40.3350   33.0420   40.3320 N   0  0  0  0  0  0  0  0  0  0  0  0
   40.7960   36.3990   40.5910 H   0  0  0  0  0  0  0  0  0  0  0  0
   38.4290   36.3750   40.1910 H   0  0  0  0  0  0  0  0  0  0  0  0
   42.4690   34.2500   40.7510 C   0  0  0  0  0  0  0  0  0  0  0  0
   43.0930   33.0120   41.1500 C   0  0  0  0  0  0  0  0  0  0  0  0
   43.6120   32.9910   42.5340 C   0  0  0  0  0  0  0  0  0  0  0  0
   44.5670   34.1590   42.7820 C   0  0  0  0  0  0  0  0  0  0  0  0
   44.1060   35.4540   42.2050 C   0  0  0  0  0  0  0  0  0  0  0  0
   42.6380   35.3900   41.8120 C   0  0  0  0  0  0  0  0  0  0  0  0
   43.0010   34.7050   39.8640 H   0  0  0  0  0  0  0  0  0  0  0  0
   43.9390   32.7120   40.4750 H   0  0  0  0  0  0  0  0  0  0  0  0
   42.3600   32.1640   41.0610 H   0  0  0  0  0  0  0  0  0  0  0  0
   42.8730   33.0210   43.3430 H   0  0  0  0  0  0  0  0  0  0  0  0
   44.2360   32.0690   42.7100 H   0  0  0  0  0  0  0  0  0  0  0  0
   45.6000   33.8600   42.4520 H   0  0  0  0  0  0  0  0  0  0  0  0
   44.6630   34.2930   43.8930 H   0  0  0  0  0  0  0  0  0  0  0  0
   44.2270   36.3290   42.8490 H   0  0  0  0  0  0  0  0  0  0  0  0
   44.6580   35.6030   41.2400 H   0  0  0  0  0  0  0  0  0  0  0  0
   41.9950   35.1700   42.6900 H   0  0  0  0  0  0  0  0  0  0  0  0
   42.3520   36.3420   41.3520 H   0  0  0  0  0  0  0  0  0  0  0  0
   35.4540   29.6180   40.1410 C   0  0  0  0  0  0  0  0  0  0  0  0
   34.9530   29.1980   39.2810 H   0  0  0  0  0  0  0  0  0  0  0  0
   34.7240   30.3310   40.6050 H   0  0  0  0  0  0  0  0  0  0  0  0
   35.7380   28.5740   41.1280 C   0  0  0  0  0  3  0  0  0  0  0  0
   36.7270   28.3610   41.9930 C   0  0  0  0  0  3  0  0  0  0  0  0
   36.8070   27.2220   43.0250 C   0  0  0  0  0  0  0  0  0  0  0  0
   35.7940   27.0370   43.3730 H   0  0  0  0  0  0  0  0  0  0  0  0
   37.4280   27.6370   43.8690 H   0  0  0  0  0  0  0  0  0  0  0  0
   38.8300   25.8750   42.7450 C   0  0  0  0  0  0  0  0  0  0  0  0
   37.5030   26.0600   42.4750 C   0  0  0  0  0  0  0  0  0  0  0  0
   36.8350   25.1280   41.6760 C   0  0  0  0  0  0  0  0  0  0  0  0
   35.7770   25.3460   41.5060 H   0  0  0  0  0  0  0  0  0  0  0  0
   37.4450   24.0160   41.1360 C   0  0  0  0  0  0  0  0  0  0  0  0
   36.9090   23.3230   40.5310 H   0  0  0  0  0  0  0  0  0  0  0  0
   38.7720   23.8200   41.4000 C   0  0  0  0  0  3  0  0  0  0  0  0
   39.4240   24.7440   42.1890 C   0  0  0  0  0  3  0  0  0  0  0  0
   39.1590   27.2740   44.8510 H   0  0  0  0  0  0  0  0  0  0  0  0
   39.8370   26.9010   43.7010 S   0  0  0  0  0  0  0  0  0  0  0  0
   41.0950   26.1830   44.1310 O   0  0  0  0  0  0  0  0  0  0  0  0
   40.2730   28.1480   42.9910 O   0  0  0  0  0  0  0  0  0  0  0  0
  1 11  1  0  0  0  0
  1  5  2  0  0  0  0
  2  1  1  0  0  0  0
  3  2  2  0  0  0  0
  3  4  1  0  0  0  0
  4 32  1  0  0  0  0
  4  5  1  0  0  0  0
  6  3  1  0  0  0  0
  7 15  1  0  0  0  0
  8  7  1  0  0  0  0
  8 13  1  0  0  0  0
  9  8  2  0  0  0  0
 10 11  2  0  0  0  0
 10  9  1  0  0  0  0
 11 12  1  0  0  0  0
 12  7  2  0  0  0  0
 14  9  1  0  0  0  0
 15 16  1  0  0  0  0
 15 20  1  0  0  0  0
 16 17  1  0  0  0  0
 17 25  1  0  0  0  0
 17 18  1  0  0  0  0
 17 24  1  0  0  0  0
 18 27  1  0  0  0  0
 19 18  1  0  0  0  0
 19 28  1  0  0  0  0
 20 19  1  0  0  0  0
 20 30  1  0  0  0  0
 21 15  1  0  0  0  0
 22 16  1  0  0  0  0
 23 16  1  0  0  0  0
 26 18  1  0  0  0  0
 29 19  1  0  0  0  0
 31 20  1  0  0  0  0
 32 34  1  0  0  0  0
 32 35  1  0  0  0  0
 33 32  1  0  0  0  0
 35 36  2  0  0  0  0
 36 37  1  0  0  0  0
 37 38  1  0  0  0  0
 37 39  1  0  0  0  0
 40 49  1  0  0  0  0
 41 40  1  0  0  0  0
 41 37  1  0  0  0  0
 42 41  2  0  0  0  0
 43 42  1  0  0  0  0
 44 46  2  0  0  0  0
 44 42  1  0  0  0  0
 45 44  1  0  0  0  0
 46 47  1  0  0  0  0
 47 40  2  0  0  0  0
 49 50  2  0  0  0  0
 49 48  1  0  0  0  0
 51 49  2  0  0  0  0
M  END
>  <minimizedAffinity>
-6.88885641

$$$$

 OpenBabel03242519333D

 51 54  0  0  0  0  0  0  0  0999 V2000
   37.9390   31.8530   39.7680 C   0  0  0  0  0  0  0  0  0  0  0  0
   36.9930   31.7920   40.7170 N   0  0  0  0  0  0  0  0  0  0  0  0
   36.2650   30.6550   40.5500 C   0  0  0  0  0  0  0  0  0  0  0  0
   36.7830   30.0210   39.4800 N   0  0  0  0  0  0  0  0  0  0  0  0
   37.7980   30.7430   39.0020 N   0  0  0  0  0  0  0  0  0  0  0  0
   35.4270   30.3260   41.1640 H   0  0  0  0  0  0  0  0  0  0  0  0
   40.7800   34.1110   39.1500 C   0  0  0  0  0  0  0  0  0  0  0  0
   40.3360   35.2620   39.8650 C   0  0  0  0  0  0  0  0  0  0  0  0
   39.1030   35.2410   40.5300 C   0  0  0  0  0  0  0  0  0  0  0  0
   38.3830   34.0810   40.4470 N   0  0  0  0  0  0  0  0  0  0  0  0
   38.8490   32.9890   39.7440 C   0  0  0  0  0  0  0  0  0  0  0  0
   40.0130   33.0230   39.1230 N   0  0  0  0  0  0  0  0  0  0  0  0
   40.8530   36.2050   39.9710 H   0  0  0  0  0  0  0  0  0  0  0  0
   38.7260   36.0700   41.0760 H   0  0  0  0  0  0  0  0  0  0  0  0
   42.0780   34.2620   38.4980 C   0  0  0  0  0  0  0  0  0  0  0  0
   42.2470   33.4840   37.2950 C   0  0  0  0  0  0  0  0  0  0  0  0
   43.2510   32.4020   37.3860 C   0  0  0  0  0  0  0  0  0  0  0  0
   44.6030   32.9420   37.8510 C   0  0  0  0  0  0  0  0  0  0  0  0
   44.5130   33.9360   38.9590 C   0  0  0  0  0  0  0  0  0  0  0  0
   43.1350   33.9180   39.6030 C   0  0  0  0  0  0  0  0  0  0  0  0
   42.3120   35.3520   38.3130 H   0  0  0  0  0  0  0  0  0  0  0  0
   42.5170   34.1110   36.4040 H   0  0  0  0  0  0  0  0  0  0  0  0
   41.2720   33.0050   37.0060 H   0  0  0  0  0  0  0  0  0  0  0  0
   43.0140   31.5590   38.0450 H   0  0  0  0  0  0  0  0  0  0  0  0
   43.4530   31.9620   36.3690 H   0  0  0  0  0  0  0  0  0  0  0  0
   45.1720   33.3160   36.9550 H   0  0  0  0  0  0  0  0  0  0  0  0
   45.2110   32.0730   38.2180 H   0  0  0  0  0  0  0  0  0  0  0  0
   45.2430   33.8160   39.7630 H   0  0  0  0  0  0  0  0  0  0  0  0
   44.6050   34.9550   38.4990 H   0  0  0  0  0  0  0  0  0  0  0  0
   42.9030   32.9210   40.0310 H   0  0  0  0  0  0  0  0  0  0  0  0
   43.0950   34.6910   40.3780 H   0  0  0  0  0  0  0  0  0  0  0  0
   36.3300   28.7850   38.8970 C   0  0  0  0  0  0  0  0  0  0  0  0
   36.8830   28.4640   38.0260 H   0  0  0  0  0  0  0  0  0  0  0  0
   35.2720   28.9250   38.5540 H   0  0  0  0  0  0  0  0  0  0  0  0
   36.3270   27.7350   39.9180 C   0  0  0  0  0  3  0  0  0  0  0  0
   37.1760   26.7650   40.2510 C   0  0  0  0  0  3  0  0  0  0  0  0
   37.0270   25.7900   41.4330 C   0  0  0  0  0  0  0  0  0  0  0  0
   36.7240   24.8320   41.0200 H   0  0  0  0  0  0  0  0  0  0  0  0
   36.1900   26.2160   42.0560 H   0  0  0  0  0  0  0  0  0  0  0  0
   38.4710   26.7710   43.1470 C   0  0  0  0  0  0  0  0  0  0  0  0
   38.2380   25.7650   42.2530 C   0  0  0  0  0  0  0  0  0  0  0  0
   39.1650   24.7260   42.1400 C   0  0  0  0  0  0  0  0  0  0  0  0
   38.9080   23.9600   41.4030 H   0  0  0  0  0  0  0  0  0  0  0  0
   40.3200   24.6550   42.8900 C   0  0  0  0  0  0  0  0  0  0  0  0
   41.0080   23.8490   42.7810 H   0  0  0  0  0  0  0  0  0  0  0  0
   40.5640   25.6560   43.7890 C   0  0  0  0  0  3  0  0  0  0  0  0
   39.6440   26.6770   43.8940 C   0  0  0  0  0  3  0  0  0  0  0  0
   36.4430   28.1750   42.5010 H   0  0  0  0  0  0  0  0  0  0  0  0
   37.4620   28.1410   43.4400 S   0  0  0  0  0  0  0  0  0  0  0  0
   36.8180   28.0620   44.8040 O   0  0  0  0  0  0  0  0  0  0  0  0
   38.1920   29.4490   43.3830 O   0  0  0  0  0  0  0  0  0  0  0  0
  1  2  1  0  0  0  0
  3  2  2  0  0  0  0
  3  6  1  0  0  0  0
  4  3  1  0  0  0  0
  5  4  1  0  0  0  0
  5  1  2  0  0  0  0
  7  8  1  0  0  0  0
  8 13  1  0  0  0  0
  8  9  2  0  0  0  0
  9 14  1  0  0  0  0
 10  9  1  0  0  0  0
 11  1  1  0  0  0  0
 11 10  2  0  0  0  0
 12  7  2  0  0  0  0
 12 11  1  0  0  0  0
 15  7  1  0  0  0  0
 15 20  1  0  0  0  0
 16 17  1  0  0  0  0
 16 15  1  0  0  0  0
 17 18  1  0  0  0  0
 17 24  1  0  0  0  0
 18 27  1  0  0  0  0
 18 19  1  0  0  0  0
 19 20  1  0  0  0  0
 19 28  1  0  0  0  0
 20 30  1  0  0  0  0
 20 31  1  0  0  0  0
 21 15  1  0  0  0  0
 22 16  1  0  0  0  0
 23 16  1  0  0  0  0
 25 17  1  0  0  0  0
 26 18  1  0  0  0  0
 29 19  1  0  0  0  0
 32  4  1  0  0  0  0
 32 35  1  0  0  0  0
 33 32  1  0  0  0  0
 34 32  1  0  0  0  0
 35 36  2  0  0  0  0
 36 37  1  0  0  0  0
 37 39  1  0  0  0  0
 37 41  1  0  0  0  0
 38 37  1  0  0  0  0
 40 49  1  0  0  0  0
 40 47  1  0  0  0  0
 41 40  2  0  0  0  0
 42 41  1  0  0  0  0
 42 44  2  0  0  0  0
 43 42  1  0  0  0  0
 44 46  1  0  0  0  0
 45 44  1  0  0  0  0
 46 47  2  0  0  0  0
 48 49  1  0  0  0  0
 49 50  2  0  0  0  0
 51 49  2  0  0  0  0
M  END
>  <minimizedAffinity>
-6.86309576

$$$$

 OpenBabel03242519333D

 51 54  0  0  0  0  0  0  0  0999 V2000
   38.2180   31.8910   39.6320 C   0  0  0  0  0  0  0  0  0  0  0  0
   38.6940   30.7820   39.0470 N   0  0  0  0  0  0  0  0  0  0  0  0
   37.7610   29.7940   39.1360 C   0  0  0  0  0  0  0  0  0  0  0  0
   36.7060   30.3200   39.7880 N   0  0  0  0  0  0  0  0  0  0  0  0
   36.9770   31.5910   40.0920 N   0  0  0  0  0  0  0  0  0  0  0  0
   37.8550   28.7790   38.7540 H   0  0  0  0  0  0  0  0  0  0  0  0
   40.9490   34.3280   39.2390 C   0  0  0  0  0  0  0  0  0  0  0  0
   40.3470   35.4680   39.8470 C   0  0  0  0  0  0  0  0  0  0  0  0
   39.0490   35.3810   40.3700 C   0  0  0  0  0  0  0  0  0  0  0  0
   38.4260   34.1690   40.2570 N   0  0  0  0  0  0  0  0  0  0  0  0
   39.0430   33.0890   39.6610 C   0  0  0  0  0  0  0  0  0  0  0  0
   40.2670   33.1860   39.1740 N   0  0  0  0  0  0  0  0  0  0  0  0
   40.7820   36.4500   39.9690 H   0  0  0  0  0  0  0  0  0  0  0  0
   38.5550   36.2000   40.8320 H   0  0  0  0  0  0  0  0  0  0  0  0
   42.3000   34.5500   38.7320 C   0  0  0  0  0  0  0  0  0  0  0  0
   42.5540   34.0000   37.4220 C   0  0  0  0  0  0  0  0  0  0  0  0
   43.5250   32.8850   37.3910 C   0  0  0  0  0  0  0  0  0  0  0  0
   44.8440   33.2830   38.0530 C   0  0  0  0  0  0  0  0  0  0  0  0
   44.6800   34.0590   39.3160 C   0  0  0  0  0  0  0  0  0  0  0  0
   43.2520   33.9720   39.8340 C   0  0  0  0  0  0  0  0  0  0  0  0
   42.5700   35.6470   38.7710 H   0  0  0  0  0  0  0  0  0  0  0  0
   42.9110   34.7700   36.6870 H   0  0  0  0  0  0  0  0  0  0  0  0
   41.5980   33.6170   36.9720 H   0  0  0  0  0  0  0  0  0  0  0  0
   43.2160   31.9450   37.8600 H   0  0  0  0  0  0  0  0  0  0  0  0
   43.8030   32.6320   36.3280 H   0  0  0  0  0  0  0  0  0  0  0  0
   45.4930   33.7940   37.2900 H   0  0  0  0  0  0  0  0  0  0  0  0
   45.4010   32.3400   38.3000 H   0  0  0  0  0  0  0  0  0  0  0  0
   45.3370   33.7680   40.1390 H   0  0  0  0  0  0  0  0  0  0  0  0
   44.8310   35.1420   39.0620 H   0  0  0  0  0  0  0  0  0  0  0  0
   42.9650   32.9220   40.0500 H   0  0  0  0  0  0  0  0  0  0  0  0
   43.1620   34.5910   40.7330 H   0  0  0  0  0  0  0  0  0  0  0  0
   35.4820   29.6510   40.1450 C   0  0  0  0  0  0  0  0  0  0  0  0
   34.9030   29.2870   39.3090 H   0  0  0  0  0  0  0  0  0  0  0  0
   34.8240   30.3840   40.6800 H   0  0  0  0  0  0  0  0  0  0  0  0
   35.7750   28.5610   41.0780 C   0  0  0  0  0  3  0  0  0  0  0  0
   36.5260   28.4550   42.1730 C   0  0  0  0  0  3  0  0  0  0  0  0
   36.6440   27.2170   43.0800 C   0  0  0  0  0  0  0  0  0  0  0  0
   35.8430   26.5390   42.8000 H   0  0  0  0  0  0  0  0  0  0  0  0
   36.4660   27.6040   44.1230 H   0  0  0  0  0  0  0  0  0  0  0  0
   38.2180   25.5060   42.3180 C   0  0  0  0  0  0  0  0  0  0  0  0
   37.9920   26.6510   43.0280 C   0  0  0  0  0  0  0  0  0  0  0  0
   39.0580   27.2630   43.6910 C   0  0  0  0  0  0  0  0  0  0  0  0
   38.7980   28.1740   44.2370 H   0  0  0  0  0  0  0  0  0  0  0  0
   40.3470   26.7710   43.6710 C   0  0  0  0  0  0  0  0  0  0  0  0
   41.1390   27.2600   44.1870 H   0  0  0  0  0  0  0  0  0  0  0  0
   40.5850   25.6260   42.9640 C   0  0  0  0  0  3  0  0  0  0  0  0
   39.5270   25.0280   42.3120 C   0  0  0  0  0  3  0  0  0  0  0  0
   35.8730   24.5160   42.1680 H   0  0  0  0  0  0  0  0  0  0  0  0
   37.0470   24.5960   41.4340 S   0  0  0  0  0  0  0  0  0  0  0  0
   36.7150   25.2640   40.1210 O   0  0  0  0  0  0  0  0  0  0  0  0
   37.4900   23.2010   41.1090 O   0  0  0  0  0  0  0  0  0  0  0  0
  1 11  1  0  0  0  0
  1  5  2  0  0  0  0
  2  3  2  0  0  0  0
  2  1  1  0  0  0  0
  3  4  1  0  0  0  0
  4  5  1  0  0  0  0
  4 32  1  0  0  0  0
  6  3  1  0  0  0  0
  7  8  1  0  0  0  0
  8 13  1  0  0  0  0
  8  9  2  0  0  0  0
  9 14  1  0  0  0  0
 10  9  1  0  0  0  0
 11 10  2  0  0  0  0
 12  7  2  0  0  0  0
 12 11  1  0  0  0  0
 15 21  1  0  0  0  0
 15  7  1  0  0  0  0
 15 20  1  0  0  0  0
 16 15  1  0  0  0  0
 17 16  1  0  0  0  0
 17 24  1  0  0  0  0
 17 18  1  0  0  0  0
 18 27  1  0  0  0  0
 18 19  1  0  0  0  0
 19 20  1  0  0  0  0
 19 28  1  0  0  0  0
 20 30  1  0  0  0  0
 20 31  1  0  0  0  0
 22 16  1  0  0  0  0
 23 16  1  0  0  0  0
 25 17  1  0  0  0  0
 26 18  1  0  0  0  0
 29 19  1  0  0  0  0
 32 34  1  0  0  0  0
 32 35  1  0  0  0  0
 33 32  1  0  0  0  0
 35 36  2  0  0  0  0
 36 37  1  0  0  0  0
 37 39  1  0  0  0  0
 38 37  1  0  0  0  0
 40 41  1  0  0  0  0
 41 37  1  0  0  0  0
 41 42  2  0  0  0  0
 42 43  1  0  0  0  0
 44 42  1  0  0  0  0
 44 45  1  0  0  0  0
 46 44  2  0  0  0  0
 47 40  2  0  0  0  0
 47 46  1  0  0  0  0
 49 48  1  0  0  0  0
 49 40  1  0  0  0  0
 50 49  2  0  0  0  0
 51 49  2  0  0  0  0
M  END
>  <minimizedAffinity>
-6.76895285

$$$$

 OpenBabel03242519333D

 51 54  0  0  0  0  0  0  0  0999 V2000
   38.2590   31.9140   39.9360 C   0  0  0  0  0  0  0  0  0  0  0  0
   38.6350   30.9790   39.0500 N   0  0  0  0  0  0  0  0  0  0  0  0
   37.6980   29.9920   39.0180 C   0  0  0  0  0  0  0  0  0  0  0  0
   36.7430   30.3400   39.9030 N   0  0  0  0  0  0  0  0  0  0  0  0
   37.0780   31.5050   40.4620 N   0  0  0  0  0  0  0  0  0  0  0  0
   37.7210   29.0970   38.3970 H   0  0  0  0  0  0  0  0  0  0  0  0
   41.1110   34.1600   40.5470 C   0  0  0  0  0  0  0  0  0  0  0  0
   40.4460   35.4200   40.4860 C   0  0  0  0  0  0  0  0  0  0  0  0
   39.0660   35.4730   40.2450 C   0  0  0  0  0  0  0  0  0  0  0  0
   38.4290   34.2750   40.0780 N   0  0  0  0  0  0  0  0  0  0  0  0
   39.1090   33.0770   40.1440 C   0  0  0  0  0  0  0  0  0  0  0  0
   40.4090   33.0420   40.3730 N   0  0  0  0  0  0  0  0  0  0  0  0
   40.8870   36.3980   40.6090 H   0  0  0  0  0  0  0  0  0  0  0  0
   38.5230   36.3840   40.1890 H   0  0  0  0  0  0  0  0  0  0  0  0
   42.5470   34.2410   40.8010 C   0  0  0  0  0  0  0  0  0  0  0  0
   43.1610   33.0030   41.2140 C   0  0  0  0  0  0  0  0  0  0  0  0
   43.6680   32.9900   42.6020 C   0  0  0  0  0  0  0  0  0  0  0  0
   44.6270   34.1540   42.8500 C   0  0  0  0  0  0  0  0  0  0  0  0
   44.1790   35.4470   42.2600 C   0  0  0  0  0  0  0  0  0  0  0  0
   42.7130   35.3890   41.8550 C   0  0  0  0  0  0  0  0  0  0  0  0
   43.0880   34.6870   39.9140 H   0  0  0  0  0  0  0  0  0  0  0  0
   44.0100   32.6930   40.5490 H   0  0  0  0  0  0  0  0  0  0  0  0
   42.4240   32.1580   41.1250 H   0  0  0  0  0  0  0  0  0  0  0  0
   42.9230   33.0300   43.4040 H   0  0  0  0  0  0  0  0  0  0  0  0
   44.2850   32.0650   42.7900 H   0  0  0  0  0  0  0  0  0  0  0  0
   45.6610   33.8470   42.5300 H   0  0  0  0  0  0  0  0  0  0  0  0
   44.7150   34.2950   43.9600 H   0  0  0  0  0  0  0  0  0  0  0  0
   44.2980   36.3260   42.8980 H   0  0  0  0  0  0  0  0  0  0  0  0
   44.7400   35.5860   41.2980 H   0  0  0  0  0  0  0  0  0  0  0  0
   42.0620   35.1780   42.7280 H   0  0  0  0  0  0  0  0  0  0  0  0
   42.4360   36.3380   41.3850 H   0  0  0  0  0  0  0  0  0  0  0  0
   35.5570   29.5970   40.2410 C   0  0  0  0  0  0  0  0  0  0  0  0
   34.9890   29.2380   39.3940 H   0  0  0  0  0  0  0  0  0  0  0  0
   34.8680   30.2740   40.8090 H   0  0  0  0  0  0  0  0  0  0  0  0
   35.9120   28.4860   41.1270 C   0  0  0  0  0  3  0  0  0  0  0  0
   36.5350   28.4010   42.3010 C   0  0  0  0  0  3  0  0  0  0  0  0
   36.7460   27.1200   43.1290 C   0  0  0  0  0  0  0  0  0  0  0  0
   35.9500   26.4320   42.8590 H   0  0  0  0  0  0  0  0  0  0  0  0
   36.6210   27.4440   44.2010 H   0  0  0  0  0  0  0  0  0  0  0  0
   38.3180   25.4900   42.2030 C   0  0  0  0  0  0  0  0  0  0  0  0
   38.1050   26.6040   42.9640 C   0  0  0  0  0  0  0  0  0  0  0  0
   39.1950   27.2310   43.5730 C   0  0  0  0  0  0  0  0  0  0  0  0
   38.9430   28.1150   44.1650 H   0  0  0  0  0  0  0  0  0  0  0  0
   40.4940   26.7860   43.4470 C   0  0  0  0  0  0  0  0  0  0  0  0
   41.3040   27.2860   43.9230 H   0  0  0  0  0  0  0  0  0  0  0  0
   40.7190   25.6720   42.6870 C   0  0  0  0  0  3  0  0  0  0  0  0
   39.6390   25.0590   42.0900 C   0  0  0  0  0  3  0  0  0  0  0  0
   35.9620   24.5160   42.1350 H   0  0  0  0  0  0  0  0  0  0  0  0
   37.1180   24.5670   41.3720 S   0  0  0  0  0  0  0  0  0  0  0  0
   36.7590   25.2040   40.0500 O   0  0  0  0  0  0  0  0  0  0  0  0
   37.5420   23.1600   41.0720 O   0  0  0  0  0  0  0  0  0  0  0  0
  1 11  1  0  0  0  0
  1  5  2  0  0  0  0
  2  1  1  0  0  0  0
  3  2  2  0  0  0  0
  3  4  1  0  0  0  0
  4 32  1  0  0  0  0
  4  5  1  0  0  0  0
  6  3  1  0  0  0  0
  7 15  1  0  0  0  0
  8  7  1  0  0  0  0
  8 13  1  0  0  0  0
  9  8  2  0  0  0  0
 10 11  2  0  0  0  0
 10  9  1  0  0  0  0
 11 12  1  0  0  0  0
 12  7  2  0  0  0  0
 14  9  1  0  0  0  0
 15 16  1  0  0  0  0
 15 20  1  0  0  0  0
 16 17  1  0  0  0  0
 17 25  1  0  0  0  0
 17 18  1  0  0  0  0
 17 24  1  0  0  0  0
 18 27  1  0  0  0  0
 19 18  1  0  0  0  0
 19 28  1  0  0  0  0
 20 19  1  0  0  0  0
 20 30  1  0  0  0  0
 21 15  1  0  0  0  0
 22 16  1  0  0  0  0
 23 16  1  0  0  0  0
 26 18  1  0  0  0  0
 29 19  1  0  0  0  0
 31 20  1  0  0  0  0
 32 34  1  0  0  0  0
 32 35  1  0  0  0  0
 33 32  1  0  0  0  0
 35 36  2  0  0  0  0
 36 37  1  0  0  0  0
 37 39  1  0  0  0  0
 38 37  1  0  0  0  0
 40 41  1  0  0  0  0
 41 37  1  0  0  0  0
 41 42  2  0  0  0  0
 42 43  1  0  0  0  0
 44 42  1  0  0  0  0
 44 45  1  0  0  0  0
 46 44  2  0  0  0  0
 47 40  2  0  0  0  0
 47 46  1  0  0  0  0
 49 48  1  0  0  0  0
 49 40  1  0  0  0  0
 50 49  2  0  0  0  0
 51 49  2  0  0  0  0
M  END
>  <minimizedAffinity>
-6.65818739

$$$$

 OpenBabel03242519333D

 51 54  0  0  0  0  0  0  0  0999 V2000
   37.1730   30.1410   40.6960 C   0  0  0  0  0  0  0  0  0  0  0  0
   36.8590   30.0000   39.3990 N   0  0  0  0  0  0  0  0  0  0  0  0
   36.8940   31.2210   38.7970 C   0  0  0  0  0  0  0  0  0  0  0  0
   37.2350   32.1100   39.7500 N   0  0  0  0  0  0  0  0  0  0  0  0
   37.4040   31.4610   40.9040 N   0  0  0  0  0  0  0  0  0  0  0  0
   36.6870   31.4320   37.7490 H   0  0  0  0  0  0  0  0  0  0  0  0
   37.0530   26.7010   42.0010 C   0  0  0  0  0  0  0  0  0  0  0  0
   37.3260   26.9530   43.3780 C   0  0  0  0  0  0  0  0  0  0  0  0
   37.5390   28.2650   43.8210 C   0  0  0  0  0  0  0  0  0  0  0  0
   37.4690   29.2490   42.8730 N   0  0  0  0  0  0  0  0  0  0  0  0
   37.2020   28.9630   41.5500 C   0  0  0  0  0  0  0  0  0  0  0  0
   37.0020   27.7210   41.1480 N   0  0  0  0  0  0  0  0  0  0  0  0
   37.3950   26.2260   44.1740 H   0  0  0  0  0  0  0  0  0  0  0  0
   37.7470   28.5080   44.8340 H   0  0  0  0  0  0  0  0  0  0  0  0
   36.8540   25.2930   41.6680 C   0  0  0  0  0  0  0  0  0  0  0  0
   37.8690   24.4010   42.1720 C   0  0  0  0  0  0  0  0  0  0  0  0
   38.7080   23.7600   41.1370 C   0  0  0  0  0  0  0  0  0  0  0  0
   37.8490   23.0370   40.1000 C   0  0  0  0  0  0  0  0  0  0  0  0
   36.6380   23.7990   39.6770 C   0  0  0  0  0  0  0  0  0  0  0  0
   36.7260   25.2550   40.1070 C   0  0  0  0  0  0  0  0  0  0  0  0
   35.8220   24.9480   41.9740 H   0  0  0  0  0  0  0  0  0  0  0  0
   37.4500   23.5790   42.8130 H   0  0  0  0  0  0  0  0  0  0  0  0
   38.5630   24.9560   42.8610 H   0  0  0  0  0  0  0  0  0  0  0  0
   39.3860   24.4110   40.5740 H   0  0  0  0  0  0  0  0  0  0  0  0
   39.3500   22.9520   41.5910 H   0  0  0  0  0  0  0  0  0  0  0  0
   37.6220   22.0010   40.4750 H   0  0  0  0  0  0  0  0  0  0  0  0
   38.4820   22.8660   39.1890 H   0  0  0  0  0  0  0  0  0  0  0  0
   36.4280   23.7940   38.6040 H   0  0  0  0  0  0  0  0  0  0  0  0
   35.7670   23.3800   40.2460 H   0  0  0  0  0  0  0  0  0  0  0  0
   37.6080   25.7560   39.6570 H   0  0  0  0  0  0  0  0  0  0  0  0
   35.8010   25.7670   39.8190 H   0  0  0  0  0  0  0  0  0  0  0  0
   37.3740   33.5350   39.6010 C   0  0  0  0  0  0  0  0  0  0  0  0
   36.6000   34.1200   40.0780 H   0  0  0  0  0  0  0  0  0  0  0  0
   37.3170   33.7810   38.5090 H   0  0  0  0  0  0  0  0  0  0  0  0
   38.6950   33.9500   40.0770 C   0  0  0  0  0  3  0  0  0  0  0  0
   39.4200   35.0600   39.9490 C   0  0  0  0  0  3  0  0  0  0  0  0
   40.7840   35.3380   40.6060 C   0  0  0  0  0  0  0  0  0  0  0  0
   40.7290   34.9650   41.6250 H   0  0  0  0  0  0  0  0  0  0  0  0
   40.8770   36.4610   40.6170 H   0  0  0  0  0  0  0  0  0  0  0  0
   43.0390   34.4110   40.4050 C   0  0  0  0  0  0  0  0  0  0  0  0
   41.8780   34.7990   39.7990 C   0  0  0  0  0  0  0  0  0  0  0  0
   41.7570   34.6690   38.4130 C   0  0  0  0  0  0  0  0  0  0  0  0
   40.7990   35.0000   38.0030 H   0  0  0  0  0  0  0  0  0  0  0  0
   42.7570   34.1640   37.6090 C   0  0  0  0  0  0  0  0  0  0  0  0
   42.6350   34.0770   36.5540 H   0  0  0  0  0  0  0  0  0  0  0  0
   43.9240   33.7730   38.2040 C   0  0  0  0  0  3  0  0  0  0  0  0
   44.0350   33.9040   39.5720 C   0  0  0  0  0  3  0  0  0  0  0  0
   42.2750   34.9320   42.7820 H   0  0  0  0  0  0  0  0  0  0  0  0
   43.3940   34.4890   42.0930 S   0  0  0  0  0  0  0  0  0  0  0  0
   43.7510   33.1270   42.6390 O   0  0  0  0  0  0  0  0  0  0  0  0
   44.5370   35.4010   42.4270 O   0  0  0  0  0  0  0  0  0  0  0  0
  1  5  2  0  0  0  0
  1 11  1  0  0  0  0
  2  1  1  0  0  0  0
  3  2  2  0  0  0  0
  3  4  1  0  0  0  0
  4  5  1  0  0  0  0
  6  3  1  0  0  0  0
  7  8  1  0  0  0  0
  8  9  2  0  0  0  0
  8 13  1  0  0  0  0
  9 14  1  0  0  0  0
 10  9  1  0  0  0  0
 11 10  2  0  0  0  0
 12 11  1  0  0  0  0
 12  7  2  0  0  0  0
 15 21  1  0  0  0  0
 15  7  1  0  0  0  0
 15 16  1  0  0  0  0
 16 22  1  0  0  0  0
 16 23  1  0  0  0  0
 17 25  1  0  0  0  0
 17 16  1  0  0  0  0
 18 26  1  0  0  0  0
 18 17  1  0  0  0  0
 19 18  1  0  0  0  0
 19 20  1  0  0  0  0
 19 29  1  0  0  0  0
 20 15  1  0  0  0  0
 24 17  1  0  0  0  0
 27 18  1  0  0  0  0
 28 19  1  0  0  0  0
 30 20  1  0  0  0  0
 31 20  1  0  0  0  0
 32  4  1  0  0  0  0
 32 35  1  0  0  0  0
 32 33  1  0  0  0  0
 34 32  1  0  0  0  0
 36 35  2  0  0  0  0
 36 37  1  0  0  0  0
 37 39  1  0  0  0  0
 37 38  1  0  0  0  0
 40 49  1  0  0  0  0
 41 40  1  0  0  0  0
 41 37  1  0  0  0  0
 42 41  2  0  0  0  0
 43 42  1  0  0  0  0
 44 46  2  0  0  0  0
 44 42  1  0  0  0  0
 45 44  1  0  0  0  0
 46 47  1  0  0  0  0
 47 40  2  0  0  0  0
 49 51  2  0  0  0  0
 49 50  2  0  0  0  0
 49 48  1  0  0  0  0
M  END
>  <minimizedAffinity>
-6.59621286

$$$$

 OpenBabel03242519333D

 51 54  0  0  0  0  0  0  0  0999 V2000
   40.7940   31.3760   41.7050 C   0  0  0  0  0  0  0  0  0  0  0  0
   41.8500   32.1790   41.9000 N   0  0  0  0  0  0  0  0  0  0  0  0
   42.8270   31.4840   42.5440 C   0  0  0  0  0  0  0  0  0  0  0  0
   42.3490   30.2400   42.7380 N   0  0  0  0  0  0  0  0  0  0  0  0
   41.1160   30.1680   42.2320 N   0  0  0  0  0  0  0  0  0  0  0  0
   43.8040   31.8640   42.8410 H   0  0  0  0  0  0  0  0  0  0  0  0
   37.5450   31.7540   40.0150 C   0  0  0  0  0  0  0  0  0  0  0  0
   37.5450   33.1640   39.8010 C   0  0  0  0  0  0  0  0  0  0  0  0
   38.6330   33.9380   40.2280 C   0  0  0  0  0  0  0  0  0  0  0  0
   39.6550   33.2680   40.8420 N   0  0  0  0  0  0  0  0  0  0  0  0
   39.6170   31.9020   41.0300 C   0  0  0  0  0  0  0  0  0  0  0  0
   38.5850   31.1850   40.6220 N   0  0  0  0  0  0  0  0  0  0  0  0
   36.7740   33.7520   39.3250 H   0  0  0  0  0  0  0  0  0  0  0  0
   38.6830   34.9900   40.0930 H   0  0  0  0  0  0  0  0  0  0  0  0
   36.3540   31.0640   39.5280 C   0  0  0  0  0  0  0  0  0  0  0  0
   35.7730   30.1270   40.4580 C   0  0  0  0  0  0  0  0  0  0  0  0
   35.8560   28.7080   40.0490 C   0  0  0  0  0  0  0  0  0  0  0  0
   35.2570   28.5000   38.6590 C   0  0  0  0  0  0  0  0  0  0  0  0
   35.6270   29.5560   37.6730 C   0  0  0  0  0  0  0  0  0  0  0  0
   36.7890   30.3980   38.1780 C   0  0  0  0  0  0  0  0  0  0  0  0
   35.5810   31.8030   39.1610 H   0  0  0  0  0  0  0  0  0  0  0  0
   34.6940   30.3440   40.6820 H   0  0  0  0  0  0  0  0  0  0  0  0
   36.2800   30.2110   41.4580 H   0  0  0  0  0  0  0  0  0  0  0  0
   36.8530   28.2550   40.0260 H   0  0  0  0  0  0  0  0  0  0  0  0
   35.2310   28.0620   40.7300 H   0  0  0  0  0  0  0  0  0  0  0  0
   34.1470   28.3460   38.7600 H   0  0  0  0  0  0  0  0  0  0  0  0
   35.6350   27.5180   38.2670 H   0  0  0  0  0  0  0  0  0  0  0  0
   35.9010   29.1990   36.6770 H   0  0  0  0  0  0  0  0  0  0  0  0
   34.7610   30.2660   37.6070 H   0  0  0  0  0  0  0  0  0  0  0  0
   37.6910   29.7750   38.3530 H   0  0  0  0  0  0  0  0  0  0  0  0
   36.9980   31.1880   37.4500 H   0  0  0  0  0  0  0  0  0  0  0  0
   43.0100   29.1470   43.4030 C   0  0  0  0  0  0  0  0  0  0  0  0
   43.2420   29.3220   44.4440 H   0  0  0  0  0  0  0  0  0  0  0  0
   43.9940   28.9710   42.8950 H   0  0  0  0  0  0  0  0  0  0  0  0
   42.2120   27.9280   43.2540 C   0  0  0  0  0  3  0  0  0  0  0  0
   41.4740   27.1960   44.0860 C   0  0  0  0  0  3  0  0  0  0  0  0
   40.6280   25.9660   43.7120 C   0  0  0  0  0  0  0  0  0  0  0  0
   40.7740   25.2280   44.4960 H   0  0  0  0  0  0  0  0  0  0  0  0
   41.0750   25.5890   42.7490 H   0  0  0  0  0  0  0  0  0  0  0  0
   38.4890   25.6030   42.5820 C   0  0  0  0  0  0  0  0  0  0  0  0
   39.2380   26.3400   43.4540 C   0  0  0  0  0  0  0  0  0  0  0  0
   38.6580   27.4420   44.0870 C   0  0  0  0  0  0  0  0  0  0  0  0
   39.3210   27.9810   44.7690 H   0  0  0  0  0  0  0  0  0  0  0  0
   37.3520   27.8350   43.8800 C   0  0  0  0  0  0  0  0  0  0  0  0
   36.9380   28.6810   44.3780 H   0  0  0  0  0  0  0  0  0  0  0  0
   36.5920   27.1040   43.0100 C   0  0  0  0  0  3  0  0  0  0  0  0
   37.1730   26.0190   42.3890 C   0  0  0  0  0  3  0  0  0  0  0  0
   39.7860   23.4090   42.5160 H   0  0  0  0  0  0  0  0  0  0  0  0
   39.0100   24.2150   41.6970 S   0  0  0  0  0  0  0  0  0  0  0  0
   37.8330   23.3890   41.2340 O   0  0  0  0  0  0  0  0  0  0  0  0
   39.8120   24.5470   40.4740 O   0  0  0  0  0  0  0  0  0  0  0  0
  1  2  1  0  0  0  0
  1  5  2  0  0  0  0
  2  3  2  0  0  0  0
  3  4  1  0  0  0  0
  3  6  1  0  0  0  0
  4 32  1  0  0  0  0
  5  4  1  0  0  0  0
  7 12  1  0  0  0  0
  8  7  2  0  0  0  0
  8  9  1  0  0  0  0
  9 10  2  0  0  0  0
 10 11  1  0  0  0  0
 11  1  1  0  0  0  0
 12 11  2  0  0  0  0
 13  8  1  0  0  0  0
 14  9  1  0  0  0  0
 15  7  1  0  0  0  0
 15 16  1  0  0  0  0
 16 22  1  0  0  0  0
 16 23  1  0  0  0  0
 17 16  1  0  0  0  0
 17 25  1  0  0  0  0
 18 26  1  0  0  0  0
 18 17  1  0  0  0  0
 19 20  1  0  0  0  0
 19 18  1  0  0  0  0
 20 30  1  0  0  0  0
 20 15  1  0  0  0  0
 21 15  1  0  0  0  0
 24 17  1  0  0  0  0
 27 18  1  0  0  0  0
 28 19  1  0  0  0  0
 29 19  1  0  0  0  0
 31 20  1  0  0  0  0
 32 33  1  0  0  0  0
 34 32  1  0  0  0  0
 35 32  1  0  0  0  0
 35 36  2  0  0  0  0
 37 36  1  0  0  0  0
 37 38  1  0  0  0  0
 39 37  1  0  0  0  0
 40 41  1  0  0  0  0
 41 37  1  0  0  0  0
 41 42  2  0  0  0  0
 42 43  1  0  0  0  0
 44 42  1  0  0  0  0
 44 45  1  0  0  0  0
 46 44  2  0  0  0  0
 47 40  2  0  0  0  0
 47 46  1  0  0  0  0
 49 48  1  0  0  0  0
 49 40  1  0  0  0  0
 50 49  2  0  0  0  0
 51 49  2  0  0  0  0
M  END
>  <minimizedAffinity>
-6.51941442

$$$$

 OpenBabel03242519333D

 51 54  0  0  0  0  0  0  0  0999 V2000
   37.7800   31.8050   40.7130 C   0  0  0  0  0  0  0  0  0  0  0  0
   36.9490   32.3950   39.8400 N   0  0  0  0  0  0  0  0  0  0  0  0
   37.4140   33.6430   39.5550 C   0  0  0  0  0  0  0  0  0  0  0  0
   38.5450   33.8040   40.2700 N   0  0  0  0  0  0  0  0  0  0  0  0
   38.7710   32.6930   40.9740 N   0  0  0  0  0  0  0  0  0  0  0  0
   36.9580   34.3650   38.8800 H   0  0  0  0  0  0  0  0  0  0  0  0
   37.9180   28.4910   42.3100 C   0  0  0  0  0  0  0  0  0  0  0  0
   36.6700   27.9580   41.8720 C   0  0  0  0  0  0  0  0  0  0  0  0
   35.8280   28.7240   41.0570 C   0  0  0  0  0  0  0  0  0  0  0  0
   36.2720   29.9750   40.7240 N   0  0  0  0  0  0  0  0  0  0  0  0
   37.4870   30.4540   41.1690 C   0  0  0  0  0  0  0  0  0  0  0  0
   38.2710   29.7200   41.9370 N   0  0  0  0  0  0  0  0  0  0  0  0
   36.2620   26.9830   42.0970 H   0  0  0  0  0  0  0  0  0  0  0  0
   34.8890   28.3750   40.7040 H   0  0  0  0  0  0  0  0  0  0  0  0
   38.7000   27.5950   43.1580 C   0  0  0  0  0  0  0  0  0  0  0  0
   40.0890   27.9570   43.3040 C   0  0  0  0  0  0  0  0  0  0  0  0
   41.0480   27.0120   42.6940 C   0  0  0  0  0  0  0  0  0  0  0  0
   40.8240   25.5900   43.2070 C   0  0  0  0  0  0  0  0  0  0  0  0
   39.3890   25.1970   43.3030 C   0  0  0  0  0  0  0  0  0  0  0  0
   38.5000   26.1690   42.5400 C   0  0  0  0  0  0  0  0  0  0  0  0
   38.2070   27.4610   44.1660 H   0  0  0  0  0  0  0  0  0  0  0  0
   40.3950   28.0920   44.3760 H   0  0  0  0  0  0  0  0  0  0  0  0
   40.2760   28.9630   42.8400 H   0  0  0  0  0  0  0  0  0  0  0  0
   41.0540   26.9470   41.6000 H   0  0  0  0  0  0  0  0  0  0  0  0
   42.1030   27.2640   43.0010 H   0  0  0  0  0  0  0  0  0  0  0  0
   41.3930   25.4570   44.1680 H   0  0  0  0  0  0  0  0  0  0  0  0
   41.3260   24.8850   42.4920 H   0  0  0  0  0  0  0  0  0  0  0  0
   39.1480   24.1940   42.9420 H   0  0  0  0  0  0  0  0  0  0  0  0
   39.0850   25.3090   44.3770 H   0  0  0  0  0  0  0  0  0  0  0  0
   38.7660   26.1980   41.4630 H   0  0  0  0  0  0  0  0  0  0  0  0
   37.4550   25.8730   42.6730 H   0  0  0  0  0  0  0  0  0  0  0  0
   39.3840   34.9730   40.3200 C   0  0  0  0  0  0  0  0  0  0  0  0
   39.2480   35.5920   41.1940 H   0  0  0  0  0  0  0  0  0  0  0  0
   39.1330   35.6220   39.4410 H   0  0  0  0  0  0  0  0  0  0  0  0
   40.7870   34.5740   40.1870 C   0  0  0  0  0  3  0  0  0  0  0  0
   41.9190   34.9590   40.7730 C   0  0  0  0  0  3  0  0  0  0  0  0
   43.3140   34.3490   40.5490 C   0  0  0  0  0  0  0  0  0  0  0  0
   43.7710   34.8940   39.7270 H   0  0  0  0  0  0  0  0  0  0  0  0
   43.1180   33.2850   40.2350 H   0  0  0  0  0  0  0  0  0  0  0  0
   44.1170   33.1850   42.5450 C   0  0  0  0  0  0  0  0  0  0  0  0
   44.0850   34.3230   41.7910 C   0  0  0  0  0  0  0  0  0  0  0  0
   44.7950   35.4460   42.2230 C   0  0  0  0  0  0  0  0  0  0  0  0
   44.7200   36.3170   41.5670 H   0  0  0  0  0  0  0  0  0  0  0  0
   45.5380   35.4730   43.3850 C   0  0  0  0  0  0  0  0  0  0  0  0
   46.0700   36.3450   43.6880 H   0  0  0  0  0  0  0  0  0  0  0  0
   45.5780   34.3390   44.1470 C   0  0  0  0  0  3  0  0  0  0  0  0
   44.8750   33.2350   43.7140 C   0  0  0  0  0  3  0  0  0  0  0  0
   43.4850   31.3810   40.8560 H   0  0  0  0  0  0  0  0  0  0  0  0
   43.3130   31.6970   42.1950 S   0  0  0  0  0  0  0  0  0  0  0  0
   43.8910   30.5610   43.0060 O   0  0  0  0  0  0  0  0  0  0  0  0
   41.8420   31.7260   42.4820 O   0  0  0  0  0  0  0  0  0  0  0  0
  1  5  2  0  0  0  0
  1 11  1  0  0  0  0
  2  1  1  0  0  0  0
  3  2  2  0  0  0  0
  3  4  1  0  0  0  0
  4 32  1  0  0  0  0
  4  5  1  0  0  0  0
  6  3  1  0  0  0  0
  7 15  1  0  0  0  0
  8 13  1  0  0  0  0
  8  7  2  0  0  0  0
  9  8  1  0  0  0  0
 10  9  2  0  0  0  0
 10 11  1  0  0  0  0
 11 12  2  0  0  0  0
 12  7  1  0  0  0  0
 14  9  1  0  0  0  0
 15 16  1  0  0  0  0
 15 21  1  0  0  0  0
 16 22  1  0  0  0  0
 17 25  1  0  0  0  0
 17 18  1  0  0  0  0
 17 16  1  0  0  0  0
 18 19  1  0  0  0  0
 18 26  1  0  0  0  0
 19 29  1  0  0  0  0
 20 31  1  0  0  0  0
 20 15  1  0  0  0  0
 20 19  1  0  0  0  0
 23 16  1  0  0  0  0
 24 17  1  0  0  0  0
 27 18  1  0  0  0  0
 28 19  1  0  0  0  0
 30 20  1  0  0  0  0
 32 33  1  0  0  0  0
 34 32  1  0  0  0  0
 35 32  1  0  0  0  0
 35 36  2  0  0  0  0
 37 36  1  0  0  0  0
 37 41  1  0  0  0  0
 38 37  1  0  0  0  0
 39 37  1  0  0  0  0
 40 47  1  0  0  0  0
 41 42  1  0  0  0  0
 41 40  2  0  0  0  0
 42 44  2  0  0  0  0
 43 42  1  0  0  0  0
 44 45  1  0  0  0  0
 44 46  1  0  0  0  0
 47 46  2  0  0  0  0
 48 49  1  0  0  0  0
 49 51  2  0  0  0  0
 49 40  1  0  0  0  0
 49 50  2  0  0  0  0
M  END
>  <minimizedAffinity>
-6.33436489

$$$$

 OpenBabel03242519333D

 51 54  0  0  0  0  0  0  0  0999 V2000
   43.1580   30.8600   43.1610 C   0  0  0  0  0  0  0  0  0  0  0  0
   43.9940   31.0210   44.1980 N   0  0  0  0  0  0  0  0  0  0  0  0
   44.1890   29.8180   44.8050 C   0  0  0  0  0  0  0  0  0  0  0  0
   43.4580   28.9180   44.1180 N   0  0  0  0  0  0  0  0  0  0  0  0
   42.8300   29.5450   43.1210 N   0  0  0  0  0  0  0  0  0  0  0  0
   44.8160   29.6250   45.6740 H   0  0  0  0  0  0  0  0  0  0  0  0
   41.5100   33.1880   40.8340 C   0  0  0  0  0  0  0  0  0  0  0  0
   42.3640   34.3200   40.9770 C   0  0  0  0  0  0  0  0  0  0  0  0
   43.4630   34.2650   41.8450 C   0  0  0  0  0  0  0  0  0  0  0  0
   43.6480   33.0890   42.5200 N   0  0  0  0  0  0  0  0  0  0  0  0
   42.7980   32.0160   42.3540 C   0  0  0  0  0  0  0  0  0  0  0  0
   41.7670   32.0830   41.5320 N   0  0  0  0  0  0  0  0  0  0  0  0
   42.2750   35.2740   40.4760 H   0  0  0  0  0  0  0  0  0  0  0  0
   44.1290   35.0790   41.9880 H   0  0  0  0  0  0  0  0  0  0  0  0
   40.4000   33.3760   39.9040 C   0  0  0  0  0  0  0  0  0  0  0  0
   39.8700   34.7160   39.8540 C   0  0  0  0  0  0  0  0  0  0  0  0
   38.4910   34.8630   40.3670 C   0  0  0  0  0  0  0  0  0  0  0  0
   37.5360   33.8990   39.6630 C   0  0  0  0  0  0  0  0  0  0  0  0
   38.0890   32.5290   39.4680 C   0  0  0  0  0  0  0  0  0  0  0  0
   39.3300   32.3090   40.3210 C   0  0  0  0  0  0  0  0  0  0  0  0
   40.6740   33.0080   38.8700 H   0  0  0  0  0  0  0  0  0  0  0  0
   39.8860   35.1540   38.8200 H   0  0  0  0  0  0  0  0  0  0  0  0
   40.5200   35.4100   40.4530 H   0  0  0  0  0  0  0  0  0  0  0  0
   38.3430   34.7130   41.4420 H   0  0  0  0  0  0  0  0  0  0  0  0
   38.0880   35.8890   40.1320 H   0  0  0  0  0  0  0  0  0  0  0  0
   37.1720   34.3780   38.7130 H   0  0  0  0  0  0  0  0  0  0  0  0
   36.6130   33.8090   40.2960 H   0  0  0  0  0  0  0  0  0  0  0  0
   37.4040   31.7060   39.6850 H   0  0  0  0  0  0  0  0  0  0  0  0
   38.4510   32.4650   38.4080 H   0  0  0  0  0  0  0  0  0  0  0  0
   39.1020   32.4250   41.4010 H   0  0  0  0  0  0  0  0  0  0  0  0
   39.7310   31.3120   40.1140 H   0  0  0  0  0  0  0  0  0  0  0  0
   43.3220   27.5120   44.3980 C   0  0  0  0  0  0  0  0  0  0  0  0
   43.8620   27.1680   45.2680 H   0  0  0  0  0  0  0  0  0  0  0  0
   43.7410   26.9400   43.5290 H   0  0  0  0  0  0  0  0  0  0  0  0
   41.9030   27.1700   44.5080 C   0  0  0  0  0  3  0  0  0  0  0  0
   40.9960   26.6900   43.6580 C   0  0  0  0  0  3  0  0  0  0  0  0
   39.5420   26.3140   43.9930 C   0  0  0  0  0  0  0  0  0  0  0  0
   39.4210   26.4350   45.0660 H   0  0  0  0  0  0  0  0  0  0  0  0
   39.4550   25.2240   43.7230 H   0  0  0  0  0  0  0  0  0  0  0  0
   37.7590   26.4000   42.3200 C   0  0  0  0  0  0  0  0  0  0  0  0
   38.5990   27.0660   43.1670 C   0  0  0  0  0  0  0  0  0  0  0  0
   38.5380   28.4610   43.2280 C   0  0  0  0  0  0  0  0  0  0  0  0
   39.2410   28.9210   43.9280 H   0  0  0  0  0  0  0  0  0  0  0  0
   37.6650   29.2160   42.4720 C   0  0  0  0  0  0  0  0  0  0  0  0
   37.6430   30.2780   42.5410 H   0  0  0  0  0  0  0  0  0  0  0  0
   36.8200   28.5590   41.6220 C   0  0  0  0  0  3  0  0  0  0  0  0
   36.8870   27.1830   41.5670 C   0  0  0  0  0  3  0  0  0  0  0  0
   37.4400   24.0710   43.3090 H   0  0  0  0  0  0  0  0  0  0  0  0
   37.6740   24.6910   42.0910 S   0  0  0  0  0  0  0  0  0  0  0  0
   36.5360   24.3200   41.1700 O   0  0  0  0  0  0  0  0  0  0  0  0
   38.9190   24.1000   41.4990 O   0  0  0  0  0  0  0  0  0  0  0  0
  1  2  1  0  0  0  0
  2  3  2  0  0  0  0
  3  6  1  0  0  0  0
  4 32  1  0  0  0  0
  4  3  1  0  0  0  0
  5  1  2  0  0  0  0
  5  4  1  0  0  0  0
  7  8  2  0  0  0  0
  7 12  1  0  0  0  0
  8  9  1  0  0  0  0
  9 14  1  0  0  0  0
  9 10  2  0  0  0  0
 11 10  1  0  0  0  0
 11  1  1  0  0  0  0
 12 11  2  0  0  0  0
 13  8  1  0  0  0  0
 15 20  1  0  0  0  0
 15  7  1  0  0  0  0
 16 15  1  0  0  0  0
 16 17  1  0  0  0  0
 16 23  1  0  0  0  0
 17 24  1  0  0  0  0
 18 27  1  0  0  0  0
 18 17  1  0  0  0  0
 19 18  1  0  0  0  0
 19 28  1  0  0  0  0
 19 20  1  0  0  0  0
 20 30  1  0  0  0  0
 21 15  1  0  0  0  0
 22 16  1  0  0  0  0
 25 17  1  0  0  0  0
 26 18  1  0  0  0  0
 29 19  1  0  0  0  0
 31 20  1  0  0  0  0
 32 35  1  0  0  0  0
 32 33  1  0  0  0  0
 34 32  1  0  0  0  0
 36 37  1  0  0  0  0
 36 35  2  0  0  0  0
 37 38  1  0  0  0  0
 39 37  1  0  0  0  0
 40 41  1  0  0  0  0
 41 42  2  0  0  0  0
 41 37  1  0  0  0  0
 42 43  1  0  0  0  0
 44 45  1  0  0  0  0
 44 42  1  0  0  0  0
 46 44  2  0  0  0  0
 47 46  1  0  0  0  0
 47 40  2  0  0  0  0
 49 40  1  0  0  0  0
 49 48  1  0  0  0  0
 50 49  2  0  0  0  0
 51 49  2  0  0  0  0
M  END
>  <minimizedAffinity>
-6.20733976

$$$$

 OpenBabel03242519333D

 51 54  0  0  0  0  0  0  0  0999 V2000
   36.5560   25.9740   39.1420 C   0  0  0  0  0  0  0  0  0  0  0  0
   35.9890   24.8360   38.7140 N   0  0  0  0  0  0  0  0  0  0  0  0
   36.5110   23.7880   39.4090 C   0  0  0  0  0  0  0  0  0  0  0  0
   37.4090   24.3070   40.2690 N   0  0  0  0  0  0  0  0  0  0  0  0
   37.4400   25.6320   40.1120 N   0  0  0  0  0  0  0  0  0  0  0  0
   36.2510   22.7370   39.2880 H   0  0  0  0  0  0  0  0  0  0  0  0
   36.2510   29.5220   38.2110 C   0  0  0  0  0  0  0  0  0  0  0  0
   35.1990   29.4330   37.2530 C   0  0  0  0  0  0  0  0  0  0  0  0
   34.6270   28.1890   36.9530 C   0  0  0  0  0  0  0  0  0  0  0  0
   35.1330   27.1080   37.6210 N   0  0  0  0  0  0  0  0  0  0  0  0
   36.1520   27.2370   38.5420 C   0  0  0  0  0  0  0  0  0  0  0  0
   36.6810   28.4160   38.8140 N   0  0  0  0  0  0  0  0  0  0  0  0
   34.7550   30.2430   36.6920 H   0  0  0  0  0  0  0  0  0  0  0  0
   33.8430   28.0670   36.2490 H   0  0  0  0  0  0  0  0  0  0  0  0
   36.7630   30.8720   38.4300 C   0  0  0  0  0  0  0  0  0  0  0  0
   38.0540   31.1340   37.8440 C   0  0  0  0  0  0  0  0  0  0  0  0
   39.1460   31.3630   38.8140 C   0  0  0  0  0  0  0  0  0  0  0  0
   38.7860   32.4760   39.7970 C   0  0  0  0  0  0  0  0  0  0  0  0
   37.3810   32.4180   40.2940 C   0  0  0  0  0  0  0  0  0  0  0  0
   36.7430   31.0710   39.9840 C   0  0  0  0  0  0  0  0  0  0  0  0
   36.0060   31.6480   38.1070 H   0  0  0  0  0  0  0  0  0  0  0  0
   38.0470   32.0110   37.1420 H   0  0  0  0  0  0  0  0  0  0  0  0
   38.3660   30.2700   37.1950 H   0  0  0  0  0  0  0  0  0  0  0  0
   39.4590   30.5060   39.4210 H   0  0  0  0  0  0  0  0  0  0  0  0
   40.0720   31.7330   38.2890 H   0  0  0  0  0  0  0  0  0  0  0  0
   39.0620   33.4670   39.3410 H   0  0  0  0  0  0  0  0  0  0  0  0
   39.4670   32.3840   40.6840 H   0  0  0  0  0  0  0  0  0  0  0  0
   37.2500   32.5940   41.3650 H   0  0  0  0  0  0  0  0  0  0  0  0
   36.7880   33.1630   39.7010 H   0  0  0  0  0  0  0  0  0  0  0  0
   37.3010   30.2410   40.4650 H   0  0  0  0  0  0  0  0  0  0  0  0
   35.7020   31.0850   40.3220 H   0  0  0  0  0  0  0  0  0  0  0  0
   38.2400   23.5870   41.1990 C   0  0  0  0  0  0  0  0  0  0  0  0
   39.1090   23.1170   40.7630 H   0  0  0  0  0  0  0  0  0  0  0  0
   37.6310   22.7560   41.6430 H   0  0  0  0  0  0  0  0  0  0  0  0
   38.6340   24.4770   42.2930 C   0  0  0  0  0  3  0  0  0  0  0  0
   39.7420   25.1580   42.5810 C   0  0  0  0  0  3  0  0  0  0  0  0
   39.9370   26.1230   43.7640 C   0  0  0  0  0  0  0  0  0  0  0  0
   40.8220   25.7940   44.3010 H   0  0  0  0  0  0  0  0  0  0  0  0
   39.0260   25.9780   44.4100 H   0  0  0  0  0  0  0  0  0  0  0  0
   38.7850   28.2030   43.1860 C   0  0  0  0  0  0  0  0  0  0  0  0
   39.9580   27.5140   43.3120 C   0  0  0  0  0  0  0  0  0  0  0  0
   41.1610   28.1560   43.0050 C   0  0  0  0  0  0  0  0  0  0  0  0
   42.0550   27.5380   43.1300 H   0  0  0  0  0  0  0  0  0  0  0  0
   41.2350   29.4650   42.5780 C   0  0  0  0  0  0  0  0  0  0  0  0
   42.1680   29.9260   42.3520 H   0  0  0  0  0  0  0  0  0  0  0  0
   40.0680   30.1650   42.4500 C   0  0  0  0  0  3  0  0  0  0  0  0
   38.8850   29.5240   42.7530 C   0  0  0  0  0  3  0  0  0  0  0  0
   37.2450   26.2210   43.6360 H   0  0  0  0  0  0  0  0  0  0  0  0
   37.2000   27.6010   43.5080 S   0  0  0  0  0  0  0  0  0  0  0  0
   36.6570   28.1580   44.8030 O   0  0  0  0  0  0  0  0  0  0  0  0
   36.2000   27.9380   42.4420 O   0  0  0  0  0  0  0  0  0  0  0  0
  1  5  2  0  0  0  0
  2  1  1  0  0  0  0
  2  3  2  0  0  0  0
  3  4  1  0  0  0  0
  4 32  1  0  0  0  0
  5  4  1  0  0  0  0
  6  3  1  0  0  0  0
  7 15  1  0  0  0  0
  7 12  1  0  0  0  0
  8  7  2  0  0  0  0
  9  8  1  0  0  0  0
  9 10  2  0  0  0  0
 10 11  1  0  0  0  0
 11 12  2  0  0  0  0
 11  1  1  0  0  0  0
 13  8  1  0  0  0  0
 14  9  1  0  0  0  0
 15 20  1  0  0  0  0
 16 15  1  0  0  0  0
 16 17  1  0  0  0  0
 17 24  1  0  0  0  0
 17 18  1  0  0  0  0
 18 19  1  0  0  0  0
 18 27  1  0  0  0  0
 19 28  1  0  0  0  0
 20 19  1  0  0  0  0
 20 31  1  0  0  0  0
 20 30  1  0  0  0  0
 21 15  1  0  0  0  0
 22 16  1  0  0  0  0
 23 16  1  0  0  0  0
 25 17  1  0  0  0  0
 26 18  1  0  0  0  0
 29 19  1  0  0  0  0
 32 34  1  0  0  0  0
 32 35  1  0  0  0  0
 33 32  1  0  0  0  0
 35 36  2  0  0  0  0
 36 37  1  0  0  0  0
 37 38  1  0  0  0  0
 37 39  1  0  0  0  0
 40 41  1  0  0  0  0
 40 49  1  0  0  0  0
 41 37  1  0  0  0  0
 42 43  1  0  0  0  0
 42 41  2  0  0  0  0
 44 42  1  0  0  0  0
 45 44  1  0  0  0  0
 46 44  2  0  0  0  0
 46 47  1  0  0  0  0
 47 40  2  0  0  0  0
 49 48  1  0  0  0  0
 49 50  2  0  0  0  0
 51 49  2  0  0  0  0
M  END
>  <minimizedAffinity>
-6.13996983

$$$$
