
 OpenBabel03252501443D

 48 51  0  0  0  0  0  0  0  0999 V2000
   38.9290   30.9360   38.7000 C   0  0  0  0  0  0  0  0  0  0  0  0
   39.2570   31.9020   37.9210 O   0  0  0  0  0  0  0  0  0  0  0  0
   38.8780   31.3490   40.0590 N   0  0  0  0  0  0  0  0  0  0  0  0
   38.5990   30.7340   40.8200 H   0  0  0  0  0  0  0  0  0  0  0  0
   39.2760   32.7370   40.1630 C   0  0  0  0  0  0  0  0  0  0  0  0
   38.4490   33.8180   40.1040 C   0  0  0  0  0  0  0  0  0  0  0  0
   39.0420   35.0490   40.2250 C   0  0  0  0  0  0  0  0  0  0  0  0
   40.3850   35.0990   40.3930 N   0  0  0  0  0  0  0  0  0  0  0  0
   41.1700   34.0190   40.4460 C   0  0  0  0  0  0  0  0  0  0  0  0
   40.6020   32.8040   40.3280 N   0  0  0  0  0  0  0  0  0  0  0  0
   38.4010   35.9250   40.1820 H   0  0  0  0  0  0  0  0  0  0  0  0
   43.5580   33.9470   39.6820 C   0  0  0  0  0  0  0  0  0  0  0  0
   42.6000   34.2370   40.6300 C   0  0  0  0  0  0  0  0  0  0  0  0
   43.0370   34.7670   41.8250 C   0  0  0  0  0  0  0  0  0  0  0  0
   42.3630   35.0170   42.6050 H   0  0  0  0  0  0  0  0  0  0  0  0
   44.3780   35.0080   42.0880 C   0  0  0  0  0  0  0  0  0  0  0  0
   44.7300   35.4250   43.0240 H   0  0  0  0  0  0  0  0  0  0  0  0
   45.3390   34.7200   41.1420 C   0  0  0  0  0  3  0  0  0  0  0  0
   44.8970   34.1890   39.9480 C   0  0  0  0  0  3  0  0  0  0  0  0
   42.1770   32.2730   38.3680 H   0  0  0  0  0  0  0  0  0  0  0  0
   43.0620   33.2730   38.1490 S   0  0  0  0  0  0  0  0  0  0  0  0
   42.4220   34.3200   37.2590 O   0  0  0  0  0  0  0  0  0  0  0  0
   44.2450   32.6740   37.4460 O   0  0  0  0  0  0  0  0  0  0  0  0
   37.0710   33.5790   39.9270 N   0  0  0  0  0  0  0  0  0  0  0  0
   36.6100   32.7360   40.3150 H   0  0  0  0  0  0  0  0  0  0  0  0
   36.4230   34.2270   39.3950 H   0  0  0  0  0  0  0  0  0  0  0  0
   38.6440   29.6260   38.3290 O   0  0  0  0  0  0  0  0  0  0  0  0
   40.8720   28.4990   39.9420 Cl  0  0  0  0  0  0  0  0  0  0  0  0
   39.1590   28.1630   40.1330 C   0  0  0  0  0  0  0  0  0  0  0  0
   38.1850   28.7430   39.3230 C   0  0  0  0  0  0  0  0  0  0  0  0
   36.8680   28.4480   39.5120 C   0  0  0  0  0  0  0  0  0  0  0  0
   36.4220   27.5790   40.4900 C   0  0  0  0  0  0  0  0  0  0  0  0
   37.3880   26.9810   41.3200 C   0  0  0  0  0  0  0  0  0  0  0  0
   36.9170   25.8640   42.5910 Cl  0  0  0  0  0  0  0  0  0  0  0  0
   38.7140   27.3030   41.1000 C   0  0  0  0  0  0  0  0  0  0  0  0
   36.1590   28.9330   38.8480 H   0  0  0  0  0  0  0  0  0  0  0  0
   35.3670   27.3540   40.6300 H   0  0  0  0  0  0  0  0  0  0  0  0
   39.4510   28.5190   43.4190 F   0  0  0  0  0  0  0  0  0  0  0  0
   40.0750   27.3310   43.1250 C   0  0  0  0  0  0  0  0  0  0  0  0
   39.7260   26.6870   41.9580 C   0  0  0  0  0  0  0  0  0  0  0  0
   40.3800   25.4800   41.6900 C   0  0  0  0  0  0  0  0  0  0  0  0
   41.3210   25.0070   42.5880 C   0  0  0  0  0  0  0  0  0  0  0  0
   41.6300   25.7110   43.7580 C   0  0  0  0  0  0  0  0  0  0  0  0
   40.9980   26.9140   44.0550 C   0  0  0  0  0  0  0  0  0  0  0  0
   40.1050   24.9780   40.7750 H   0  0  0  0  0  0  0  0  0  0  0  0
   41.8050   24.0700   42.3450 H   0  0  0  0  0  0  0  0  0  0  0  0
   42.3770   25.3200   44.4540 H   0  0  0  0  0  0  0  0  0  0  0  0
   41.2090   27.4870   44.9460 H   0  0  0  0  0  0  0  0  0  0  0  0
  1  3  1  0  0  0  0
  2  1  2  0  0  0  0
  3  5  1  0  0  0  0
  3  4  1  0  0  0  0
  5 10  1  0  0  0  0
  6  5  2  0  0  0  0
  6  7  1  0  0  0  0
  7  8  2  0  0  0  0
  8  9  1  0  0  0  0
  9 13  1  0  0  0  0
 10  9  2  0  0  0  0
 11  7  1  0  0  0  0
 12 19  2  0  0  0  0
 12 13  1  0  0  0  0
 13 14  2  0  0  0  0
 14 16  1  0  0  0  0
 14 15  1  0  0  0  0
 16 17  1  0  0  0  0
 18 16  2  0  0  0  0
 19 18  1  0  0  0  0
 21 20  1  0  0  0  0
 21 12  1  0  0  0  0
 22 21  2  0  0  0  0
 23 21  2  0  0  0  0
 24  6  1  0  0  0  0
 24 25  1  0  0  0  0
 26 24  1  0  0  0  0
 27  1  1  0  0  0  0
 27 30  1  0  0  0  0
 28 29  1  0  0  0  0
 29 35  1  0  0  0  0
 30 31  1  0  0  0  0
 30 29  2  0  0  0  0
 31 32  2  0  0  0  0
 32 37  1  0  0  0  0
 32 33  1  0  0  0  0
 33 34  1  0  0  0  0
 35 33  2  0  0  0  0
 35 40  1  0  0  0  0
 36 31  1  0  0  0  0
 39 38  1  0  0  0  0
 39 44  1  0  0  0  0
 40 39  2  0  0  0  0
 41 40  1  0  0  0  0
 41 42  2  0  0  0  0
 42 43  1  0  0  0  0
 43 44  2  0  0  0  0
 43 47  1  0  0  0  0
 44 48  1  0  0  0  0
 45 41  1  0  0  0  0
 46 42  1  0  0  0  0
M  END
>  <minimizedAffinity>
-7.40931797

$$$$

 OpenBabel03252501443D

 48 51  0  0  0  0  0  0  0  0999 V2000
   38.5970   31.1740   41.3200 C   0  0  0  0  0  0  0  0  0  0  0  0
   38.3300   31.4410   40.0940 O   0  0  0  0  0  0  0  0  0  0  0  0
   39.6400   31.9980   41.8240 N   0  0  0  0  0  0  0  0  0  0  0  0
   39.9660   31.9610   42.7880 H   0  0  0  0  0  0  0  0  0  0  0  0
   40.1330   32.8590   40.7710 C   0  0  0  0  0  0  0  0  0  0  0  0
   39.7700   34.1540   40.5530 C   0  0  0  0  0  0  0  0  0  0  0  0
   40.3650   34.7860   39.4910 C   0  0  0  0  0  0  0  0  0  0  0  0
   41.2580   34.0880   38.7490 N   0  0  0  0  0  0  0  0  0  0  0  0
   41.5940   32.8170   38.9890 C   0  0  0  0  0  0  0  0  0  0  0  0
   41.0170   32.1840   40.0270 N   0  0  0  0  0  0  0  0  0  0  0  0
   40.0910   35.8190   39.3000 H   0  0  0  0  0  0  0  0  0  0  0  0
   43.9260   32.4490   38.1450 C   0  0  0  0  0  0  0  0  0  0  0  0
   42.5710   32.2020   38.0980 C   0  0  0  0  0  0  0  0  0  0  0  0
   42.1250   31.3150   37.1420 C   0  0  0  0  0  0  0  0  0  0  0  0
   41.0980   31.0720   37.0410 H   0  0  0  0  0  0  0  0  0  0  0  0
   42.9830   30.6830   36.2520 C   0  0  0  0  0  0  0  0  0  0  0  0
   42.6410   29.9850   35.4980 H   0  0  0  0  0  0  0  0  0  0  0  0
   44.3390   30.9270   36.2970 C   0  0  0  0  0  3  0  0  0  0  0  0
   44.7810   31.8160   37.2540 C   0  0  0  0  0  3  0  0  0  0  0  0
   43.6150   34.5100   39.5900 H   0  0  0  0  0  0  0  0  0  0  0  0
   44.5490   33.5640   39.3360 S   0  0  0  0  0  0  0  0  0  0  0  0
   44.9090   32.8580   40.6290 O   0  0  0  0  0  0  0  0  0  0  0  0
   45.7590   34.2680   38.7960 O   0  0  0  0  0  0  0  0  0  0  0  0
   38.8240   34.7240   41.4300 N   0  0  0  0  0  0  0  0  0  0  0  0
   38.7720   34.4500   42.4270 H   0  0  0  0  0  0  0  0  0  0  0  0
   38.1150   35.4550   41.1380 H   0  0  0  0  0  0  0  0  0  0  0  0
   37.9830   30.2130   42.1170 O   0  0  0  0  0  0  0  0  0  0  0  0
   36.5400   28.2440   40.4210 Cl  0  0  0  0  0  0  0  0  0  0  0  0
   37.9570   27.9410   41.4120 C   0  0  0  0  0  0  0  0  0  0  0  0
   38.5660   28.9340   42.1770 C   0  0  0  0  0  0  0  0  0  0  0  0
   39.6650   28.6460   42.9300 C   0  0  0  0  0  0  0  0  0  0  0  0
   40.2330   27.3870   42.9850 C   0  0  0  0  0  0  0  0  0  0  0  0
   39.6360   26.3680   42.2210 C   0  0  0  0  0  0  0  0  0  0  0  0
   40.2880   24.7370   42.2280 Cl  0  0  0  0  0  0  0  0  0  0  0  0
   38.5230   26.6960   41.4690 C   0  0  0  0  0  0  0  0  0  0  0  0
   40.0920   29.4640   43.5030 H   0  0  0  0  0  0  0  0  0  0  0  0
   41.1110   27.1730   43.5910 H   0  0  0  0  0  0  0  0  0  0  0  0
   36.5740   25.1440   42.5620 F   0  0  0  0  0  0  0  0  0  0  0  0
   36.9110   24.8760   41.2570 C   0  0  0  0  0  0  0  0  0  0  0  0
   37.8950   25.6430   40.6710 C   0  0  0  0  0  0  0  0  0  0  0  0
   38.2130   25.3440   39.3420 C   0  0  0  0  0  0  0  0  0  0  0  0
   37.5410   24.3180   38.7000 C   0  0  0  0  0  0  0  0  0  0  0  0
   36.5490   23.5760   39.3540 C   0  0  0  0  0  0  0  0  0  0  0  0
   36.2090   23.8480   40.6750 C   0  0  0  0  0  0  0  0  0  0  0  0
   38.9840   25.9460   38.8860 H   0  0  0  0  0  0  0  0  0  0  0  0
   37.8150   24.1170   37.6740 H   0  0  0  0  0  0  0  0  0  0  0  0
   36.0300   22.7700   38.8290 H   0  0  0  0  0  0  0  0  0  0  0  0
   35.4500   23.2990   41.2140 H   0  0  0  0  0  0  0  0  0  0  0  0
  1  3  1  0  0  0  0
  1 27  1  0  0  0  0
  2  1  2  0  0  0  0
  3  4  1  0  0  0  0
  5  3  1  0  0  0  0
  6  5  1  0  0  0  0
  6 24  1  0  0  0  0
  7  6  2  0  0  0  0
  8  9  2  0  0  0  0
  8  7  1  0  0  0  0
  9 10  1  0  0  0  0
 10  5  2  0  0  0  0
 11  7  1  0  0  0  0
 12 21  1  0  0  0  0
 13 12  1  0  0  0  0
 13  9  1  0  0  0  0
 14 13  2  0  0  0  0
 15 14  1  0  0  0  0
 16 18  2  0  0  0  0
 16 14  1  0  0  0  0
 17 16  1  0  0  0  0
 18 19  1  0  0  0  0
 19 12  2  0  0  0  0
 21 20  1  0  0  0  0
 21 22  2  0  0  0  0
 23 21  2  0  0  0  0
 24 25  1  0  0  0  0
 26 24  1  0  0  0  0
 27 30  1  0  0  0  0
 28 29  1  0  0  0  0
 29 35  2  0  0  0  0
 29 30  1  0  0  0  0
 30 31  2  0  0  0  0
 31 32  1  0  0  0  0
 31 36  1  0  0  0  0
 32 37  1  0  0  0  0
 33 34  1  0  0  0  0
 33 32  2  0  0  0  0
 35 33  1  0  0  0  0
 39 38  1  0  0  0  0
 40 39  2  0  0  0  0
 40 35  1  0  0  0  0
 41 40  1  0  0  0  0
 42 41  2  0  0  0  0
 42 43  1  0  0  0  0
 43 44  2  0  0  0  0
 44 48  1  0  0  0  0
 44 39  1  0  0  0  0
 45 41  1  0  0  0  0
 46 42  1  0  0  0  0
 47 43  1  0  0  0  0
M  END
>  <minimizedAffinity>
-7.04306364

$$$$

 OpenBabel03252501443D

 48 51  0  0  0  0  0  0  0  0999 V2000
   37.9130   30.5500   41.1050 C   0  0  0  0  0  0  0  0  0  0  0  0
   37.6420   30.9280   39.9090 O   0  0  0  0  0  0  0  0  0  0  0  0
   39.1010   31.1610   41.5940 N   0  0  0  0  0  0  0  0  0  0  0  0
   39.4570   31.0160   42.5370 H   0  0  0  0  0  0  0  0  0  0  0  0
   39.6850   31.9880   40.5610 C   0  0  0  0  0  0  0  0  0  0  0  0
   39.5530   33.3390   40.4390 C   0  0  0  0  0  0  0  0  0  0  0  0
   40.1950   33.9230   39.3780 C   0  0  0  0  0  0  0  0  0  0  0  0
   40.9040   33.1270   38.5410 N   0  0  0  0  0  0  0  0  0  0  0  0
   41.0150   31.8040   38.6880 C   0  0  0  0  0  0  0  0  0  0  0  0
   40.3900   31.2170   39.7250 N   0  0  0  0  0  0  0  0  0  0  0  0
   40.1040   34.9990   39.2620 H   0  0  0  0  0  0  0  0  0  0  0  0
   41.4830   29.8510   37.1850 C   0  0  0  0  0  0  0  0  0  0  0  0
   41.8140   31.0850   37.7020 C   0  0  0  0  0  0  0  0  0  0  0  0
   42.9800   31.6650   37.2500 C   0  0  0  0  0  0  0  0  0  0  0  0
   43.3060   32.6120   37.5990 H   0  0  0  0  0  0  0  0  0  0  0  0
   43.8030   31.0540   36.3150 C   0  0  0  0  0  0  0  0  0  0  0  0
   44.7210   31.5020   35.9540 H   0  0  0  0  0  0  0  0  0  0  0  0
   43.4740   29.8190   35.7950 C   0  0  0  0  0  3  0  0  0  0  0  0
   42.3070   29.2430   36.2500 C   0  0  0  0  0  3  0  0  0  0  0  0
   39.1810   29.9980   38.2420 H   0  0  0  0  0  0  0  0  0  0  0  0
   40.0170   29.0690   37.7220 S   0  0  0  0  0  0  0  0  0  0  0  0
   39.3180   28.3490   36.5840 O   0  0  0  0  0  0  0  0  0  0  0  0
   40.3290   28.0890   38.8160 O   0  0  0  0  0  0  0  0  0  0  0  0
   38.7750   34.0090   41.4060 N   0  0  0  0  0  0  0  0  0  0  0  0
   38.7280   33.6840   42.3880 H   0  0  0  0  0  0  0  0  0  0  0  0
   38.1970   34.8730   41.2020 H   0  0  0  0  0  0  0  0  0  0  0  0
   37.1820   29.6590   41.8840 O   0  0  0  0  0  0  0  0  0  0  0  0
   36.8530   27.5460   39.8200 Cl  0  0  0  0  0  0  0  0  0  0  0  0
   37.6970   27.3980   41.3530 C   0  0  0  0  0  0  0  0  0  0  0  0
   37.7980   28.4510   42.2600 C   0  0  0  0  0  0  0  0  0  0  0  0
   38.4640   28.2840   43.4370 C   0  0  0  0  0  0  0  0  0  0  0  0
   39.0670   27.0950   43.8010 C   0  0  0  0  0  0  0  0  0  0  0  0
   38.9780   26.0170   42.9010 C   0  0  0  0  0  0  0  0  0  0  0  0
   39.7130   24.4660   43.2770 Cl  0  0  0  0  0  0  0  0  0  0  0  0
   38.2950   26.2220   41.7170 C   0  0  0  0  0  0  0  0  0  0  0  0
   38.5070   29.1430   44.1000 H   0  0  0  0  0  0  0  0  0  0  0  0
   39.5960   26.9770   44.7450 H   0  0  0  0  0  0  0  0  0  0  0  0
   36.2710   24.4200   41.9510 F   0  0  0  0  0  0  0  0  0  0  0  0
   37.1590   24.2130   40.9230 C   0  0  0  0  0  0  0  0  0  0  0  0
   38.1980   25.1080   40.7750 C   0  0  0  0  0  0  0  0  0  0  0  0
   39.0830   24.8680   39.7190 C   0  0  0  0  0  0  0  0  0  0  0  0
   38.8760   23.7720   38.8980 C   0  0  0  0  0  0  0  0  0  0  0  0
   37.7990   22.9020   39.1030 C   0  0  0  0  0  0  0  0  0  0  0  0
   36.9000   23.1110   40.1440 C   0  0  0  0  0  0  0  0  0  0  0  0
   39.8960   25.5690   39.6050 H   0  0  0  0  0  0  0  0  0  0  0  0
   39.5830   23.6210   38.0930 H   0  0  0  0  0  0  0  0  0  0  0  0
   37.6540   22.0420   38.4440 H   0  0  0  0  0  0  0  0  0  0  0  0
   36.0580   22.4630   40.3360 H   0  0  0  0  0  0  0  0  0  0  0  0
  1  3  1  0  0  0  0
  1 27  1  0  0  0  0
  2  1  2  0  0  0  0
  3  4  1  0  0  0  0
  5  3  1  0  0  0  0
  6  5  1  0  0  0  0
  6 24  1  0  0  0  0
  7  6  2  0  0  0  0
  8  9  2  0  0  0  0
  8  7  1  0  0  0  0
  9 10  1  0  0  0  0
 10  5  2  0  0  0  0
 11  7  1  0  0  0  0
 12 13  1  0  0  0  0
 12 21  1  0  0  0  0
 13  9  1  0  0  0  0
 14 15  1  0  0  0  0
 14 13  2  0  0  0  0
 16 14  1  0  0  0  0
 17 16  1  0  0  0  0
 18 19  1  0  0  0  0
 18 16  2  0  0  0  0
 19 12  2  0  0  0  0
 21 20  1  0  0  0  0
 21 23  2  0  0  0  0
 22 21  2  0  0  0  0
 24 25  1  0  0  0  0
 26 24  1  0  0  0  0
 27 30  1  0  0  0  0
 28 29  1  0  0  0  0
 29 35  2  0  0  0  0
 29 30  1  0  0  0  0
 30 31  2  0  0  0  0
 31 32  1  0  0  0  0
 31 36  1  0  0  0  0
 32 37  1  0  0  0  0
 33 34  1  0  0  0  0
 33 32  2  0  0  0  0
 35 33  1  0  0  0  0
 39 38  1  0  0  0  0
 40 39  1  0  0  0  0
 40 35  1  0  0  0  0
 41 40  2  0  0  0  0
 42 43  2  0  0  0  0
 42 41  1  0  0  0  0
 43 44  1  0  0  0  0
 44 48  1  0  0  0  0
 44 39  2  0  0  0  0
 45 41  1  0  0  0  0
 46 42  1  0  0  0  0
 47 43  1  0  0  0  0
M  END
>  <minimizedAffinity>
-7.03382254

$$$$

 OpenBabel03252501443D

 48 51  0  0  0  0  0  0  0  0999 V2000
   38.6490   31.0130   38.8460 C   0  0  0  0  0  0  0  0  0  0  0  0
   38.8950   31.8660   37.9200 O   0  0  0  0  0  0  0  0  0  0  0  0
   39.0570   31.4880   40.1220 N   0  0  0  0  0  0  0  0  0  0  0  0
   38.9100   30.9690   40.9850 H   0  0  0  0  0  0  0  0  0  0  0  0
   39.6890   32.7820   39.9820 C   0  0  0  0  0  0  0  0  0  0  0  0
   39.0710   33.9940   40.0640 C   0  0  0  0  0  0  0  0  0  0  0  0
   39.8660   35.0990   39.8980 C   0  0  0  0  0  0  0  0  0  0  0  0
   41.1880   34.9080   39.6700 N   0  0  0  0  0  0  0  0  0  0  0  0
   41.7640   33.7060   39.5930 C   0  0  0  0  0  0  0  0  0  0  0  0
   40.9960   32.6130   39.7540 N   0  0  0  0  0  0  0  0  0  0  0  0
   39.3940   36.0750   39.9610 H   0  0  0  0  0  0  0  0  0  0  0  0
   44.1620   33.6700   40.3270 C   0  0  0  0  0  0  0  0  0  0  0  0
   43.2000   33.6650   39.3400 C   0  0  0  0  0  0  0  0  0  0  0  0
   43.6380   33.6200   38.0340 C   0  0  0  0  0  0  0  0  0  0  0  0
   42.9610   33.6140   37.2170 H   0  0  0  0  0  0  0  0  0  0  0  0
   44.9840   33.5800   37.7000 C   0  0  0  0  0  0  0  0  0  0  0  0
   45.3370   33.5440   36.6760 H   0  0  0  0  0  0  0  0  0  0  0  0
   45.9490   33.5840   38.6840 C   0  0  0  0  0  3  0  0  0  0  0  0
   45.5070   33.6290   39.9900 C   0  0  0  0  0  3  0  0  0  0  0  0
   42.3350   33.4910   42.0790 H   0  0  0  0  0  0  0  0  0  0  0  0
   43.6660   33.7270   42.0010 S   0  0  0  0  0  0  0  0  0  0  0  0
   44.4050   32.7010   42.8380 O   0  0  0  0  0  0  0  0  0  0  0  0
   43.9090   35.0980   42.5610 O   0  0  0  0  0  0  0  0  0  0  0  0
   37.6830   34.0040   40.3110 N   0  0  0  0  0  0  0  0  0  0  0  0
   37.2270   33.2760   40.8890 H   0  0  0  0  0  0  0  0  0  0  0  0
   37.0210   34.7390   39.9310 H   0  0  0  0  0  0  0  0  0  0  0  0
   38.0600   29.7620   38.6920 O   0  0  0  0  0  0  0  0  0  0  0  0
   40.1410   28.1230   40.0410 Cl  0  0  0  0  0  0  0  0  0  0  0  0
   38.4710   28.3250   40.5440 C   0  0  0  0  0  0  0  0  0  0  0  0
   37.5650   29.1190   39.8420 C   0  0  0  0  0  0  0  0  0  0  0  0
   36.2790   29.2420   40.2750 C   0  0  0  0  0  0  0  0  0  0  0  0
   35.7990   28.6080   41.4040 C   0  0  0  0  0  0  0  0  0  0  0  0
   36.6950   27.8010   42.1300 C   0  0  0  0  0  0  0  0  0  0  0  0
   36.1750   26.9560   43.5790 Cl  0  0  0  0  0  0  0  0  0  0  0  0
   37.9910   27.6990   41.6630 C   0  0  0  0  0  0  0  0  0  0  0  0
   35.6240   29.8750   39.6830 H   0  0  0  0  0  0  0  0  0  0  0  0
   34.7680   28.7170   41.7380 H   0  0  0  0  0  0  0  0  0  0  0  0
   38.2180   25.0530   41.0740 F   0  0  0  0  0  0  0  0  0  0  0  0
   39.0190   25.5260   42.0850 C   0  0  0  0  0  0  0  0  0  0  0  0
   38.9300   26.8630   42.4090 C   0  0  0  0  0  0  0  0  0  0  0  0
   39.7600   27.3110   43.4430 C   0  0  0  0  0  0  0  0  0  0  0  0
   40.6050   26.4120   44.0700 C   0  0  0  0  0  0  0  0  0  0  0  0
   40.6460   25.0650   43.6910 C   0  0  0  0  0  0  0  0  0  0  0  0
   39.8350   24.5860   42.6670 C   0  0  0  0  0  0  0  0  0  0  0  0
   39.6880   28.3580   43.6950 H   0  0  0  0  0  0  0  0  0  0  0  0
   41.2300   26.7970   44.8640 H   0  0  0  0  0  0  0  0  0  0  0  0
   41.3210   24.3700   44.1990 H   0  0  0  0  0  0  0  0  0  0  0  0
   39.8370   23.5550   42.3460 H   0  0  0  0  0  0  0  0  0  0  0  0
  1  3  1  0  0  0  0
  2  1  2  0  0  0  0
  3  4  1  0  0  0  0
  5  6  1  0  0  0  0
  5  3  1  0  0  0  0
  6 24  1  0  0  0  0
  7 11  1  0  0  0  0
  7  6  2  0  0  0  0
  8  7  1  0  0  0  0
  9  8  2  0  0  0  0
  9 10  1  0  0  0  0
 10  5  2  0  0  0  0
 12 21  1  0  0  0  0
 13  9  1  0  0  0  0
 13 12  2  0  0  0  0
 14 13  1  0  0  0  0
 15 14  1  0  0  0  0
 16 14  2  0  0  0  0
 16 18  1  0  0  0  0
 17 16  1  0  0  0  0
 18 19  2  0  0  0  0
 19 12  1  0  0  0  0
 21 20  1  0  0  0  0
 21 23  2  0  0  0  0
 21 22  2  0  0  0  0
 24 25  1  0  0  0  0
 26 24  1  0  0  0  0
 27  1  1  0  0  0  0
 27 30  1  0  0  0  0
 28 29  1  0  0  0  0
 29 35  1  0  0  0  0
 30 31  1  0  0  0  0
 30 29  2  0  0  0  0
 31 32  2  0  0  0  0
 32 37  1  0  0  0  0
 32 33  1  0  0  0  0
 33 34  1  0  0  0  0
 35 33  2  0  0  0  0
 35 40  1  0  0  0  0
 36 31  1  0  0  0  0
 38 39  1  0  0  0  0
 39 40  2  0  0  0  0
 39 44  1  0  0  0  0
 40 41  1  0  0  0  0
 41 45  1  0  0  0  0
 41 42  2  0  0  0  0
 42 46  1  0  0  0  0
 43 42  1  0  0  0  0
 43 47  1  0  0  0  0
 44 43  2  0  0  0  0
 48 44  1  0  0  0  0
M  END
>  <minimizedAffinity>
-6.91330433

$$$$

 OpenBabel03252501443D

 48 51  0  0  0  0  0  0  0  0999 V2000
   37.7320   31.7810   40.5700 C   0  0  0  0  0  0  0  0  0  0  0  0
   37.6970   32.4530   39.4770 O   0  0  0  0  0  0  0  0  0  0  0  0
   38.9590   31.9690   41.2650 N   0  0  0  0  0  0  0  0  0  0  0  0
   39.1580   31.5490   42.1700 H   0  0  0  0  0  0  0  0  0  0  0  0
   39.8320   32.8240   40.4900 C   0  0  0  0  0  0  0  0  0  0  0  0
   39.8090   34.1860   40.4630 C   0  0  0  0  0  0  0  0  0  0  0  0
   40.7320   34.7970   39.6540 C   0  0  0  0  0  0  0  0  0  0  0  0
   41.5870   34.0150   38.9530 N   0  0  0  0  0  0  0  0  0  0  0  0
   41.5850   32.6800   39.0010 C   0  0  0  0  0  0  0  0  0  0  0  0
   40.6840   32.0660   39.7910 N   0  0  0  0  0  0  0  0  0  0  0  0
   40.7320   35.8830   39.6180 H   0  0  0  0  0  0  0  0  0  0  0  0
   43.8960   31.8290   38.5290 C   0  0  0  0  0  0  0  0  0  0  0  0
   42.5700   31.9780   38.1860 C   0  0  0  0  0  0  0  0  0  0  0  0
   42.1620   31.4220   36.9930 C   0  0  0  0  0  0  0  0  0  0  0  0
   41.1580   31.4930   36.6570 H   0  0  0  0  0  0  0  0  0  0  0  0
   43.0290   30.7370   36.1540 C   0  0  0  0  0  0  0  0  0  0  0  0
   42.7170   30.2970   35.2140 H   0  0  0  0  0  0  0  0  0  0  0  0
   44.3570   30.5860   36.4940 C   0  0  0  0  0  3  0  0  0  0  0  0
   44.7610   31.1430   37.6890 C   0  0  0  0  0  3  0  0  0  0  0  0
   43.4510   32.5500   40.9210 H   0  0  0  0  0  0  0  0  0  0  0  0
   44.4700   32.5130   40.0300 S   0  0  0  0  0  0  0  0  0  0  0  0
   45.6130   31.7030   40.6130 O   0  0  0  0  0  0  0  0  0  0  0  0
   44.9210   33.9270   39.8100 O   0  0  0  0  0  0  0  0  0  0  0  0
   38.8480   34.8390   41.2620 N   0  0  0  0  0  0  0  0  0  0  0  0
   38.5330   34.4460   42.1660 H   0  0  0  0  0  0  0  0  0  0  0  0
   38.3880   35.7570   40.9990 H   0  0  0  0  0  0  0  0  0  0  0  0
   36.7330   30.9540   41.0730 O   0  0  0  0  0  0  0  0  0  0  0  0
   38.2010   28.7050   42.3480 Cl  0  0  0  0  0  0  0  0  0  0  0  0
   37.1450   28.6140   40.9470 C   0  0  0  0  0  0  0  0  0  0  0  0
   36.4980   29.7300   40.4200 C   0  0  0  0  0  0  0  0  0  0  0  0
   35.6900   29.6050   39.3300 C   0  0  0  0  0  0  0  0  0  0  0  0
   35.4630   28.4000   38.6920 C   0  0  0  0  0  0  0  0  0  0  0  0
   36.1050   27.2590   39.2070 C   0  0  0  0  0  0  0  0  0  0  0  0
   35.8780   25.6840   38.4630 Cl  0  0  0  0  0  0  0  0  0  0  0  0
   36.9180   27.4220   40.3130 C   0  0  0  0  0  0  0  0  0  0  0  0
   35.2150   30.5120   38.9690 H   0  0  0  0  0  0  0  0  0  0  0  0
   34.8130   28.3170   37.8230 H   0  0  0  0  0  0  0  0  0  0  0  0
   39.3960   26.7420   39.4200 F   0  0  0  0  0  0  0  0  0  0  0  0
   38.8460   25.9270   40.3800 C   0  0  0  0  0  0  0  0  0  0  0  0
   37.5910   26.2430   40.8550 C   0  0  0  0  0  0  0  0  0  0  0  0
   37.0610   25.3930   41.8320 C   0  0  0  0  0  0  0  0  0  0  0  0
   37.8040   24.3060   42.2590 C   0  0  0  0  0  0  0  0  0  0  0  0
   39.0750   24.0420   41.7340 C   0  0  0  0  0  0  0  0  0  0  0  0
   39.6320   24.8670   40.7620 C   0  0  0  0  0  0  0  0  0  0  0  0
   36.0780   25.6420   42.2030 H   0  0  0  0  0  0  0  0  0  0  0  0
   37.3600   23.6730   43.0150 H   0  0  0  0  0  0  0  0  0  0  0  0
   39.6460   23.1770   42.0850 H   0  0  0  0  0  0  0  0  0  0  0  0
   40.6080   24.6960   40.3330 H   0  0  0  0  0  0  0  0  0  0  0  0
  1 27  1  0  0  0  0
  1  3  1  0  0  0  0
  2  1  2  0  0  0  0
  3  4  1  0  0  0  0
  5  3  1  0  0  0  0
  6  5  1  0  0  0  0
  6 24  1  0  0  0  0
  7  6  2  0  0  0  0
  8  9  2  0  0  0  0
  8  7  1  0  0  0  0
  9 10  1  0  0  0  0
 10  5  2  0  0  0  0
 11  7  1  0  0  0  0
 12 21  1  0  0  0  0
 13 12  1  0  0  0  0
 13  9  1  0  0  0  0
 14 13  2  0  0  0  0
 15 14  1  0  0  0  0
 16 18  2  0  0  0  0
 16 14  1  0  0  0  0
 17 16  1  0  0  0  0
 18 19  1  0  0  0  0
 19 12  2  0  0  0  0
 21 22  2  0  0  0  0
 21 20  1  0  0  0  0
 23 21  2  0  0  0  0
 24 25  1  0  0  0  0
 26 24  1  0  0  0  0
 29 28  1  0  0  0  0
 30 29  1  0  0  0  0
 30 27  1  0  0  0  0
 31 30  2  0  0  0  0
 32 33  2  0  0  0  0
 32 31  1  0  0  0  0
 33 35  1  0  0  0  0
 34 33  1  0  0  0  0
 35 40  1  0  0  0  0
 35 29  2  0  0  0  0
 36 31  1  0  0  0  0
 37 32  1  0  0  0  0
 38 39  1  0  0  0  0
 39 44  2  0  0  0  0
 39 40  1  0  0  0  0
 40 41  2  0  0  0  0
 41 45  1  0  0  0  0
 41 42  1  0  0  0  0
 42 46  1  0  0  0  0
 43 47  1  0  0  0  0
 43 42  2  0  0  0  0
 44 43  1  0  0  0  0
 48 44  1  0  0  0  0
M  END
>  <minimizedAffinity>
-6.87203121

$$$$

 OpenBabel03252501443D

 48 51  0  0  0  0  0  0  0  0999 V2000
   37.8550   30.4710   41.1950 C   0  0  0  0  0  0  0  0  0  0  0  0
   38.2620   31.2550   42.1260 O   0  0  0  0  0  0  0  0  0  0  0  0
   38.2660   30.9210   39.9100 N   0  0  0  0  0  0  0  0  0  0  0  0
   38.0710   30.4100   39.0510 H   0  0  0  0  0  0  0  0  0  0  0  0
   38.9780   32.1740   40.0370 C   0  0  0  0  0  0  0  0  0  0  0  0
   38.4220   33.4170   40.0600 C   0  0  0  0  0  0  0  0  0  0  0  0
   39.2890   34.4720   40.1870 C   0  0  0  0  0  0  0  0  0  0  0  0
   40.6140   34.2050   40.2810 N   0  0  0  0  0  0  0  0  0  0  0  0
   41.1280   32.9730   40.2550 C   0  0  0  0  0  0  0  0  0  0  0  0
   40.2900   31.9280   40.1300 N   0  0  0  0  0  0  0  0  0  0  0  0
   38.8670   35.4730   40.2090 H   0  0  0  0  0  0  0  0  0  0  0  0
   43.4280   32.6990   39.2930 C   0  0  0  0  0  0  0  0  0  0  0  0
   42.5770   32.8490   40.3660 C   0  0  0  0  0  0  0  0  0  0  0  0
   43.1470   32.8820   41.6210 C   0  0  0  0  0  0  0  0  0  0  0  0
   42.5610   32.9940   42.4980 H   0  0  0  0  0  0  0  0  0  0  0  0
   44.5160   32.7710   41.8220 C   0  0  0  0  0  0  0  0  0  0  0  0
   44.9720   32.7960   42.8040 H   0  0  0  0  0  0  0  0  0  0  0  0
   45.3700   32.6210   40.7500 C   0  0  0  0  0  3  0  0  0  0  0  0
   44.7960   32.5880   39.4960 C   0  0  0  0  0  3  0  0  0  0  0  0
   41.5770   31.9970   37.7060 H   0  0  0  0  0  0  0  0  0  0  0  0
   42.7620   32.6500   37.6790 S   0  0  0  0  0  0  0  0  0  0  0  0
   42.5510   34.0440   37.1180 O   0  0  0  0  0  0  0  0  0  0  0  0
   43.6750   31.8790   36.7710 O   0  0  0  0  0  0  0  0  0  0  0  0
   37.0190   33.5080   39.9520 N   0  0  0  0  0  0  0  0  0  0  0  0
   36.3950   32.7780   40.3370 H   0  0  0  0  0  0  0  0  0  0  0  0
   36.5150   34.3110   39.4790 H   0  0  0  0  0  0  0  0  0  0  0  0
   37.1020   29.3120   41.3510 O   0  0  0  0  0  0  0  0  0  0  0  0
   37.0450   27.0330   39.4440 Cl  0  0  0  0  0  0  0  0  0  0  0  0
   37.7690   27.0490   41.0440 C   0  0  0  0  0  0  0  0  0  0  0  0
   37.7440   28.1720   41.8690 C   0  0  0  0  0  0  0  0  0  0  0  0
   38.3200   28.1320   43.1030 C   0  0  0  0  0  0  0  0  0  0  0  0
   38.9490   27.0090   43.6060 C   0  0  0  0  0  0  0  0  0  0  0  0
   38.9870   25.8630   42.7920 C   0  0  0  0  0  0  0  0  0  0  0  0
   39.7650   24.3880   43.3460 Cl  0  0  0  0  0  0  0  0  0  0  0  0
   38.3930   25.9390   41.5460 C   0  0  0  0  0  0  0  0  0  0  0  0
   38.2670   29.0400   43.6960 H   0  0  0  0  0  0  0  0  0  0  0  0
   39.4060   26.9930   44.5940 H   0  0  0  0  0  0  0  0  0  0  0  0
   36.3810   24.1130   41.6780 F   0  0  0  0  0  0  0  0  0  0  0  0
   37.3910   23.8480   40.7850 C   0  0  0  0  0  0  0  0  0  0  0  0
   38.4270   24.7530   40.6920 C   0  0  0  0  0  0  0  0  0  0  0  0
   39.4370   24.4520   39.7720 C   0  0  0  0  0  0  0  0  0  0  0  0
   39.3480   23.2910   39.0230 C   0  0  0  0  0  0  0  0  0  0  0  0
   38.2660   22.4140   39.1670 C   0  0  0  0  0  0  0  0  0  0  0  0
   37.2440   22.6830   40.0720 C   0  0  0  0  0  0  0  0  0  0  0  0
   40.2480   25.1620   39.7020 H   0  0  0  0  0  0  0  0  0  0  0  0
   40.1490   23.0950   38.3240 H   0  0  0  0  0  0  0  0  0  0  0  0
   38.2150   21.5020   38.5660 H   0  0  0  0  0  0  0  0  0  0  0  0
   36.3940   22.0310   40.2120 H   0  0  0  0  0  0  0  0  0  0  0  0
  1 27  1  0  0  0  0
  1  2  2  0  0  0  0
  3  5  1  0  0  0  0
  3  1  1  0  0  0  0
  4  3  1  0  0  0  0
  5  6  2  0  0  0  0
  5 10  1  0  0  0  0
  6  7  1  0  0  0  0
  7 11  1  0  0  0  0
  7  8  2  0  0  0  0
  9  8  1  0  0  0  0
  9 13  1  0  0  0  0
 10  9  2  0  0  0  0
 12 19  2  0  0  0  0
 12 13  1  0  0  0  0
 13 14  2  0  0  0  0
 14 16  1  0  0  0  0
 14 15  1  0  0  0  0
 16 17  1  0  0  0  0
 18 16  2  0  0  0  0
 19 18  1  0  0  0  0
 21 20  1  0  0  0  0
 21 12  1  0  0  0  0
 22 21  2  0  0  0  0
 23 21  2  0  0  0  0
 24  6  1  0  0  0  0
 24 25  1  0  0  0  0
 26 24  1  0  0  0  0
 27 30  1  0  0  0  0
 28 29  1  0  0  0  0
 29 35  2  0  0  0  0
 29 30  1  0  0  0  0
 30 31  2  0  0  0  0
 31 32  1  0  0  0  0
 31 36  1  0  0  0  0
 32 37  1  0  0  0  0
 33 34  1  0  0  0  0
 33 32  2  0  0  0  0
 35 33  1  0  0  0  0
 39 38  1  0  0  0  0
 40 39  1  0  0  0  0
 40 35  1  0  0  0  0
 41 40  2  0  0  0  0
 42 43  2  0  0  0  0
 42 41  1  0  0  0  0
 43 44  1  0  0  0  0
 44 48  1  0  0  0  0
 44 39  2  0  0  0  0
 45 41  1  0  0  0  0
 46 42  1  0  0  0  0
 47 43  1  0  0  0  0
M  END
>  <minimizedAffinity>
-6.86272383

$$$$

 OpenBabel03252501443D

 48 51  0  0  0  0  0  0  0  0999 V2000
   39.8420   31.2330   38.1910 C   0  0  0  0  0  0  0  0  0  0  0  0
   40.2910   32.3250   37.6870 O   0  0  0  0  0  0  0  0  0  0  0  0
   39.4350   31.4060   39.5420 N   0  0  0  0  0  0  0  0  0  0  0  0
   39.0160   30.6630   40.0990 H   0  0  0  0  0  0  0  0  0  0  0  0
   39.7090   32.7620   39.9660 C   0  0  0  0  0  0  0  0  0  0  0  0
   38.7940   33.7610   40.1080 C   0  0  0  0  0  0  0  0  0  0  0  0
   39.2760   34.9760   40.5230 C   0  0  0  0  0  0  0  0  0  0  0  0
   40.6050   35.0920   40.7590 N   0  0  0  0  0  0  0  0  0  0  0  0
   41.4780   34.0910   40.6090 C   0  0  0  0  0  0  0  0  0  0  0  0
   41.0190   32.8930   40.2020 N   0  0  0  0  0  0  0  0  0  0  0  0
   38.5640   35.7880   40.6440 H   0  0  0  0  0  0  0  0  0  0  0  0
   43.9040   34.2360   39.9920 C   0  0  0  0  0  0  0  0  0  0  0  0
   42.8780   34.3730   40.9020 C   0  0  0  0  0  0  0  0  0  0  0  0
   43.2130   34.8060   42.1670 C   0  0  0  0  0  0  0  0  0  0  0  0
   42.4820   34.9370   42.9250 H   0  0  0  0  0  0  0  0  0  0  0  0
   44.5190   35.0980   42.5350 C   0  0  0  0  0  0  0  0  0  0  0  0
   44.7900   35.4390   43.5270 H   0  0  0  0  0  0  0  0  0  0  0  0
   45.5470   34.9620   41.6270 C   0  0  0  0  0  3  0  0  0  0  0  0
   45.2090   34.5290   40.3620 C   0  0  0  0  0  3  0  0  0  0  0  0
   42.8240   32.5440   38.4400 H   0  0  0  0  0  0  0  0  0  0  0  0
   43.5400   33.6910   38.3730 S   0  0  0  0  0  0  0  0  0  0  0  0
   42.7490   34.7280   37.5990 O   0  0  0  0  0  0  0  0  0  0  0  0
   44.8110   33.3800   37.6380 O   0  0  0  0  0  0  0  0  0  0  0  0
   37.4470   33.4610   39.8200 N   0  0  0  0  0  0  0  0  0  0  0  0
   37.0500   32.5210   39.9920 H   0  0  0  0  0  0  0  0  0  0  0  0
   36.7610   34.1590   39.4140 H   0  0  0  0  0  0  0  0  0  0  0  0
   39.7380   30.0010   37.5530 O   0  0  0  0  0  0  0  0  0  0  0  0
   39.8720   27.8320   39.5810 Cl  0  0  0  0  0  0  0  0  0  0  0  0
   38.4870   28.2630   38.5910 C   0  0  0  0  0  0  0  0  0  0  0  0
   38.5220   29.3020   37.6620 C   0  0  0  0  0  0  0  0  0  0  0  0
   37.4200   29.5960   36.9170 C   0  0  0  0  0  0  0  0  0  0  0  0
   36.2280   28.9050   37.0280 C   0  0  0  0  0  0  0  0  0  0  0  0
   36.1690   27.8520   37.9590 C   0  0  0  0  0  0  0  0  0  0  0  0
   34.6960   26.9170   38.1700 Cl  0  0  0  0  0  0  0  0  0  0  0  0
   37.3050   27.5810   38.6970 C   0  0  0  0  0  0  0  0  0  0  0  0
   37.5120   30.4160   36.2120 H   0  0  0  0  0  0  0  0  0  0  0  0
   35.3550   29.1520   36.4260 H   0  0  0  0  0  0  0  0  0  0  0  0
   36.6840   28.1010   41.2940 F   0  0  0  0  0  0  0  0  0  0  0  0
   36.9360   26.7890   40.9750 C   0  0  0  0  0  0  0  0  0  0  0  0
   37.2540   26.4890   39.6680 C   0  0  0  0  0  0  0  0  0  0  0  0
   37.5050   25.1430   39.3790 C   0  0  0  0  0  0  0  0  0  0  0  0
   37.4240   24.2060   40.3940 C   0  0  0  0  0  0  0  0  0  0  0  0
   37.0950   24.5780   41.7030 C   0  0  0  0  0  0  0  0  0  0  0  0
   36.8390   25.9070   42.0250 C   0  0  0  0  0  0  0  0  0  0  0  0
   37.7540   24.9120   38.3540 H   0  0  0  0  0  0  0  0  0  0  0  0
   37.6250   23.1770   40.1300 H   0  0  0  0  0  0  0  0  0  0  0  0
   37.0360   23.8220   42.4910 H   0  0  0  0  0  0  0  0  0  0  0  0
   36.5830   26.2340   43.0220 H   0  0  0  0  0  0  0  0  0  0  0  0
  1  3  1  0  0  0  0
  2  1  2  0  0  0  0
  3  5  1  0  0  0  0
  3  4  1  0  0  0  0
  5  6  2  0  0  0  0
  5 10  1  0  0  0  0
  6  7  1  0  0  0  0
  7 11  1  0  0  0  0
  7  8  2  0  0  0  0
  9  8  1  0  0  0  0
  9 13  1  0  0  0  0
 10  9  2  0  0  0  0
 12 19  2  0  0  0  0
 12 13  1  0  0  0  0
 13 14  2  0  0  0  0
 14 16  1  0  0  0  0
 14 15  1  0  0  0  0
 16 17  1  0  0  0  0
 18 16  2  0  0  0  0
 19 18  1  0  0  0  0
 21 20  1  0  0  0  0
 21 12  1  0  0  0  0
 22 21  2  0  0  0  0
 23 21  2  0  0  0  0
 24 25  1  0  0  0  0
 24  6  1  0  0  0  0
 26 24  1  0  0  0  0
 27 30  1  0  0  0  0
 27  1  1  0  0  0  0
 29 35  1  0  0  0  0
 29 28  1  0  0  0  0
 30 29  2  0  0  0  0
 31 32  2  0  0  0  0
 31 30  1  0  0  0  0
 32 33  1  0  0  0  0
 33 34  1  0  0  0  0
 33 35  2  0  0  0  0
 35 40  1  0  0  0  0
 36 31  1  0  0  0  0
 37 32  1  0  0  0  0
 39 38  1  0  0  0  0
 39 44  1  0  0  0  0
 40 39  2  0  0  0  0
 41 40  1  0  0  0  0
 41 42  2  0  0  0  0
 42 43  1  0  0  0  0
 43 44  2  0  0  0  0
 43 47  1  0  0  0  0
 44 48  1  0  0  0  0
 45 41  1  0  0  0  0
 46 42  1  0  0  0  0
M  END
>  <minimizedAffinity>
-6.68337297

$$$$

 OpenBabel03252501443D

 48 51  0  0  0  0  0  0  0  0999 V2000
   38.9110   31.3580   41.3250 C   0  0  0  0  0  0  0  0  0  0  0  0
   38.7230   31.6680   40.0940 O   0  0  0  0  0  0  0  0  0  0  0  0
   39.9250   32.1580   41.9210 N   0  0  0  0  0  0  0  0  0  0  0  0
   40.1880   32.0870   42.9010 H   0  0  0  0  0  0  0  0  0  0  0  0
   40.4870   33.0510   40.9310 C   0  0  0  0  0  0  0  0  0  0  0  0
   39.9880   34.2650   40.5650 C   0  0  0  0  0  0  0  0  0  0  0  0
   40.6850   34.9470   39.6010 C   0  0  0  0  0  0  0  0  0  0  0  0
   41.8010   34.3740   39.0910 N   0  0  0  0  0  0  0  0  0  0  0  0
   42.2650   33.1800   39.4700 C   0  0  0  0  0  0  0  0  0  0  0  0
   41.5910   32.4990   40.4160 N   0  0  0  0  0  0  0  0  0  0  0  0
   40.3050   35.9180   39.2950 H   0  0  0  0  0  0  0  0  0  0  0  0
   43.5100   31.7090   37.8660 C   0  0  0  0  0  0  0  0  0  0  0  0
   43.4810   32.6970   38.8260 C   0  0  0  0  0  0  0  0  0  0  0  0
   44.6870   33.2550   39.1910 C   0  0  0  0  0  0  0  0  0  0  0  0
   44.7490   34.0210   39.9240 H   0  0  0  0  0  0  0  0  0  0  0  0
   45.8930   32.8580   38.6320 C   0  0  0  0  0  0  0  0  0  0  0  0
   46.8450   33.2920   38.9140 H   0  0  0  0  0  0  0  0  0  0  0  0
   45.9260   31.8700   37.6710 C   0  0  0  0  0  3  0  0  0  0  0  0
   44.7170   31.3140   37.3080 C   0  0  0  0  0  3  0  0  0  0  0  0
   41.4670   30.3090   38.4140 H   0  0  0  0  0  0  0  0  0  0  0  0
   42.0120   30.9640   37.3630 S   0  0  0  0  0  0  0  0  0  0  0  0
   41.0230   31.9920   36.8470 O   0  0  0  0  0  0  0  0  0  0  0  0
   42.2790   29.9470   36.2930 O   0  0  0  0  0  0  0  0  0  0  0  0
   38.8120   34.7080   41.2050 N   0  0  0  0  0  0  0  0  0  0  0  0
   38.6020   34.4630   42.1880 H   0  0  0  0  0  0  0  0  0  0  0  0
   38.0760   35.3090   40.7360 H   0  0  0  0  0  0  0  0  0  0  0  0
   38.2440   30.3750   42.0480 O   0  0  0  0  0  0  0  0  0  0  0  0
   36.5790   28.3060   40.7130 Cl  0  0  0  0  0  0  0  0  0  0  0  0
   38.1190   28.0580   41.5200 C   0  0  0  0  0  0  0  0  0  0  0  0
   38.8280   29.0970   42.1210 C   0  0  0  0  0  0  0  0  0  0  0  0
   40.0190   28.8520   42.7360 C   0  0  0  0  0  0  0  0  0  0  0  0
   40.5880   27.5940   42.8040 C   0  0  0  0  0  0  0  0  0  0  0  0
   39.8910   26.5300   42.2050 C   0  0  0  0  0  0  0  0  0  0  0  0
   40.5360   24.8960   42.2410 Cl  0  0  0  0  0  0  0  0  0  0  0  0
   38.6860   26.8140   41.5900 C   0  0  0  0  0  0  0  0  0  0  0  0
   40.5220   29.7040   43.1830 H   0  0  0  0  0  0  0  0  0  0  0  0
   41.5410   27.4140   43.2980 H   0  0  0  0  0  0  0  0  0  0  0  0
   39.1280   26.2020   38.9770 F   0  0  0  0  0  0  0  0  0  0  0  0
   38.2020   25.4320   39.6380 C   0  0  0  0  0  0  0  0  0  0  0  0
   37.9530   25.7150   40.9650 C   0  0  0  0  0  0  0  0  0  0  0  0
   37.0050   24.9110   41.6070 C   0  0  0  0  0  0  0  0  0  0  0  0
   36.3810   23.9000   40.8970 C   0  0  0  0  0  0  0  0  0  0  0  0
   36.6810   23.6660   39.5490 C   0  0  0  0  0  0  0  0  0  0  0  0
   37.6180   24.4460   38.8800 C   0  0  0  0  0  0  0  0  0  0  0  0
   36.8120   25.1350   42.6460 H   0  0  0  0  0  0  0  0  0  0  0  0
   35.6550   23.3020   41.4290 H   0  0  0  0  0  0  0  0  0  0  0  0
   36.1760   22.8620   39.0050 H   0  0  0  0  0  0  0  0  0  0  0  0
   37.8770   24.2970   37.8420 H   0  0  0  0  0  0  0  0  0  0  0  0
  1  3  1  0  0  0  0
  1 27  1  0  0  0  0
  2  1  2  0  0  0  0
  3  4  1  0  0  0  0
  5  3  1  0  0  0  0
  6  5  1  0  0  0  0
  6 24  1  0  0  0  0
  7  6  2  0  0  0  0
  8  9  2  0  0  0  0
  8  7  1  0  0  0  0
  9 10  1  0  0  0  0
 10  5  2  0  0  0  0
 11  7  1  0  0  0  0
 12 13  1  0  0  0  0
 13 14  2  0  0  0  0
 13  9  1  0  0  0  0
 14 15  1  0  0  0  0
 16 17  1  0  0  0  0
 16 14  1  0  0  0  0
 18 16  2  0  0  0  0
 19 18  1  0  0  0  0
 19 12  2  0  0  0  0
 21 12  1  0  0  0  0
 21 20  1  0  0  0  0
 22 21  2  0  0  0  0
 23 21  2  0  0  0  0
 24 25  1  0  0  0  0
 26 24  1  0  0  0  0
 27 30  1  0  0  0  0
 28 29  1  0  0  0  0
 29 35  2  0  0  0  0
 29 30  1  0  0  0  0
 30 31  2  0  0  0  0
 31 32  1  0  0  0  0
 31 36  1  0  0  0  0
 32 37  1  0  0  0  0
 33 34  1  0  0  0  0
 33 32  2  0  0  0  0
 35 33  1  0  0  0  0
 38 39  1  0  0  0  0
 39 40  1  0  0  0  0
 40 35  1  0  0  0  0
 40 41  2  0  0  0  0
 41 45  1  0  0  0  0
 42 46  1  0  0  0  0
 42 41  1  0  0  0  0
 43 42  2  0  0  0  0
 44 43  1  0  0  0  0
 44 39  2  0  0  0  0
 47 43  1  0  0  0  0
 48 44  1  0  0  0  0
M  END
>  <minimizedAffinity>
-6.67508221

$$$$

 OpenBabel03252501443D

 48 51  0  0  0  0  0  0  0  0999 V2000
   36.6010   29.3810   40.3590 C   0  0  0  0  0  0  0  0  0  0  0  0
   36.1770   30.5750   40.1590 O   0  0  0  0  0  0  0  0  0  0  0  0
   37.5760   29.0000   39.3950 N   0  0  0  0  0  0  0  0  0  0  0  0
   38.0570   28.1030   39.4120 H   0  0  0  0  0  0  0  0  0  0  0  0
   37.7530   30.0660   38.4330 C   0  0  0  0  0  0  0  0  0  0  0  0
   36.9490   30.3290   37.3650 C   0  0  0  0  0  0  0  0  0  0  0  0
   37.3060   31.3950   36.5790 C   0  0  0  0  0  0  0  0  0  0  0  0
   38.4140   32.0980   36.9170 N   0  0  0  0  0  0  0  0  0  0  0  0
   39.1820   31.8140   37.9730 C   0  0  0  0  0  0  0  0  0  0  0  0
   38.8440   30.7710   38.7530 N   0  0  0  0  0  0  0  0  0  0  0  0
   36.6790   31.6230   35.7220 H   0  0  0  0  0  0  0  0  0  0  0  0
   40.4460   33.5720   39.2380 C   0  0  0  0  0  0  0  0  0  0  0  0
   40.3430   32.6660   38.2050 C   0  0  0  0  0  0  0  0  0  0  0  0
   41.4140   32.5690   37.3430 C   0  0  0  0  0  0  0  0  0  0  0  0
   41.4130   31.8960   36.5230 H   0  0  0  0  0  0  0  0  0  0  0  0
   42.5600   33.3390   37.4870 C   0  0  0  0  0  0  0  0  0  0  0  0
   43.4060   33.2700   36.8140 H   0  0  0  0  0  0  0  0  0  0  0  0
   42.6660   34.2470   38.5190 C   0  0  0  0  0  3  0  0  0  0  0  0
   41.5930   34.3410   39.3790 C   0  0  0  0  0  3  0  0  0  0  0  0
   37.9500   33.6350   39.6880 H   0  0  0  0  0  0  0  0  0  0  0  0
   39.1200   33.7380   40.3610 S   0  0  0  0  0  0  0  0  0  0  0  0
   39.1670   32.6760   41.4440 O   0  0  0  0  0  0  0  0  0  0  0  0
   39.1510   35.0980   40.9950 O   0  0  0  0  0  0  0  0  0  0  0  0
   35.8330   29.4910   37.1650 N   0  0  0  0  0  0  0  0  0  0  0  0
   35.3260   29.0610   37.9580 H   0  0  0  0  0  0  0  0  0  0  0  0
   35.4440   29.2450   36.2100 H   0  0  0  0  0  0  0  0  0  0  0  0
   36.2030   28.5120   41.3700 O   0  0  0  0  0  0  0  0  0  0  0  0
   36.3420   26.1010   39.6370 Cl  0  0  0  0  0  0  0  0  0  0  0  0
   37.2760   26.4070   41.0920 C   0  0  0  0  0  0  0  0  0  0  0  0
   37.1390   27.5740   41.8420 C   0  0  0  0  0  0  0  0  0  0  0  0
   37.8870   27.7620   42.9650 C   0  0  0  0  0  0  0  0  0  0  0  0
   38.8050   26.8360   43.4240 C   0  0  0  0  0  0  0  0  0  0  0  0
   38.9610   25.6500   42.6840 C   0  0  0  0  0  0  0  0  0  0  0  0
   40.1030   24.4160   43.1900 Cl  0  0  0  0  0  0  0  0  0  0  0  0
   38.1860   25.4930   41.5500 C   0  0  0  0  0  0  0  0  0  0  0  0
   37.7330   28.6930   43.5030 H   0  0  0  0  0  0  0  0  0  0  0  0
   39.3960   27.0020   44.3230 H   0  0  0  0  0  0  0  0  0  0  0  0
   40.0110   25.3790   39.5370 F   0  0  0  0  0  0  0  0  0  0  0  0
   39.2740   24.2410   39.7600 C   0  0  0  0  0  0  0  0  0  0  0  0
   38.3400   24.2630   40.7740 C   0  0  0  0  0  0  0  0  0  0  0  0
   37.6080   23.0880   40.9750 C   0  0  0  0  0  0  0  0  0  0  0  0
   37.8530   21.9910   40.1660 C   0  0  0  0  0  0  0  0  0  0  0  0
   38.8180   22.0350   39.1530 C   0  0  0  0  0  0  0  0  0  0  0  0
   39.5640   23.1880   38.9270 C   0  0  0  0  0  0  0  0  0  0  0  0
   36.8770   23.1080   41.7690 H   0  0  0  0  0  0  0  0  0  0  0  0
   37.2670   21.1020   40.3530 H   0  0  0  0  0  0  0  0  0  0  0  0
   38.9970   21.1580   38.5250 H   0  0  0  0  0  0  0  0  0  0  0  0
   40.3170   23.2620   38.1550 H   0  0  0  0  0  0  0  0  0  0  0  0
  1 27  1  0  0  0  0
  2  1  2  0  0  0  0
  3  4  1  0  0  0  0
  3  1  1  0  0  0  0
  5 10  1  0  0  0  0
  5  3  1  0  0  0  0
  6  5  2  0  0  0  0
  7  8  2  0  0  0  0
  7  6  1  0  0  0  0
  8  9  1  0  0  0  0
  9 13  1  0  0  0  0
  9 10  2  0  0  0  0
 11  7  1  0  0  0  0
 12 19  1  0  0  0  0
 12 21  1  0  0  0  0
 13 12  2  0  0  0  0
 14 16  2  0  0  0  0
 14 13  1  0  0  0  0
 15 14  1  0  0  0  0
 16 18  1  0  0  0  0
 17 16  1  0  0  0  0
 18 19  2  0  0  0  0
 20 21  1  0  0  0  0
 21 23  2  0  0  0  0
 21 22  2  0  0  0  0
 24  6  1  0  0  0  0
 24 25  1  0  0  0  0
 26 24  1  0  0  0  0
 27 30  1  0  0  0  0
 28 29  1  0  0  0  0
 29 35  2  0  0  0  0
 29 30  1  0  0  0  0
 30 31  2  0  0  0  0
 31 32  1  0  0  0  0
 31 36  1  0  0  0  0
 32 37  1  0  0  0  0
 33 34  1  0  0  0  0
 33 32  2  0  0  0  0
 35 33  1  0  0  0  0
 38 39  1  0  0  0  0
 39 40  1  0  0  0  0
 40 41  2  0  0  0  0
 40 35  1  0  0  0  0
 41 45  1  0  0  0  0
 42 46  1  0  0  0  0
 42 41  1  0  0  0  0
 43 42  2  0  0  0  0
 44 43  1  0  0  0  0
 44 39  2  0  0  0  0
 47 43  1  0  0  0  0
 48 44  1  0  0  0  0
M  END
>  <minimizedAffinity>
-6.6655817

$$$$
