
 OpenBabel03252505073D

 46 49  0  0  1  0  0  0  0  0999 V2000
   44.5770   35.5330   44.5570 C   0  0  0  0  0  0  0  0  0  0  0  0
   45.2690   35.5580   43.3210 C   0  0  0  0  0  0  0  0  0  0  0  0
   46.3790   34.6710   43.1660 C   0  0  0  0  0  0  0  0  0  0  0  0
   46.7090   33.8600   44.2010 N   0  0  0  0  0  0  0  0  0  0  0  0
   46.0260   33.8680   45.3560 C   0  0  0  0  0  0  0  0  0  0  0  0
   44.9590   34.7000   45.5450 N   0  0  0  0  0  0  0  0  0  0  0  0
   43.7290   36.1820   44.7300 H   0  0  0  0  0  0  0  0  0  0  0  0
   44.9570   36.2190   42.5500 H   0  0  0  0  0  0  0  0  0  0  0  0
   46.4320   32.9660   46.4490 C   0  0  2  0  0  0  0  0  0  0  0  0
   46.9760   31.7350   45.7830 C   0  0  0  0  0  0  0  0  0  0  0  0
   46.0960   30.5430   45.8030 C   0  0  0  0  0  0  0  0  0  0  0  0
   45.7950   30.2950   47.2790 C   0  0  0  0  0  0  0  0  0  0  0  0
   45.0080   31.3680   47.8730 C   0  0  0  0  0  0  0  0  0  0  0  0
   45.3740   32.7420   47.4100 C   0  0  0  0  0  0  0  0  0  0  0  0
   47.2750   33.5050   46.9710 H   0  0  0  0  0  0  0  0  0  0  0  0
   47.9160   31.4570   46.3070 H   0  0  0  0  0  0  0  0  0  0  0  0
   47.2870   31.9170   44.7300 H   0  0  0  0  0  0  0  0  0  0  0  0
   45.1970   30.5770   45.1920 H   0  0  0  0  0  0  0  0  0  0  0  0
   46.7030   29.6710   45.4900 H   0  0  0  0  0  0  0  0  0  0  0  0
   45.1390   29.3980   47.2720 H   0  0  0  0  0  0  0  0  0  0  0  0
   46.7170   30.0270   47.8070 H   0  0  0  0  0  0  0  0  0  0  0  0
   44.2160   31.4470   48.5680 H   0  0  0  0  0  0  0  0  0  0  0  0
   44.6840   33.8840   47.9060 N   0  0  0  0  0  0  0  0  0  0  0  0
   45.3700   34.4030   48.5200 H   0  0  0  0  0  0  0  0  0  0  0  0
   43.7100   33.9860   47.5960 H   0  0  0  0  0  0  0  0  0  0  0  0
   47.1000   34.6790   41.9120 C   0  0  0  0  0  0  0  0  0  0  0  0
   48.1690   35.5100   41.7850 C   0  0  0  0  0  0  0  0  0  0  0  0
   48.8330   35.4760   40.5430 C   0  0  0  0  0  0  0  0  0  0  0  0
   48.3350   34.6130   39.5920 C   0  0  0  0  0  0  0  0  0  0  0  0
   47.2630   33.7820   39.7230 C   0  0  0  0  0  0  0  0  0  0  0  0
   46.6820   33.8740   40.9440 N   0  0  0  0  0  0  0  0  0  0  0  0
   48.4810   36.1490   42.5920 H   0  0  0  0  0  0  0  0  0  0  0  0
   49.6770   36.1140   40.4040 H   0  0  0  0  0  0  0  0  0  0  0  0
   48.8980   34.6470   38.6710 H   0  0  0  0  0  0  0  0  0  0  0  0
   47.2920   31.6060   38.6060 C   0  0  0  0  0  0  0  0  0  0  0  0
   46.7780   32.8870   38.6820 C   0  0  0  0  0  0  0  0  0  0  0  0
   45.8220   33.3080   37.7840 C   0  0  0  0  0  0  0  0  0  0  0  0
   45.3830   34.2960   37.7920 H   0  0  0  0  0  0  0  0  0  0  0  0
   45.3400   32.4890   36.7860 C   0  0  0  0  0  0  0  0  0  0  0  0
   44.5870   32.8170   36.0770 H   0  0  0  0  0  0  0  0  0  0  0  0
   45.8100   31.2000   36.6560 C   0  0  0  0  0  3  0  0  0  0  0  0
   46.7650   30.8220   37.5750 C   0  0  0  0  0  3  0  0  0  0  0  0
   48.2730   31.2940   40.9840 H   0  0  0  0  0  0  0  0  0  0  0  0
   48.4900   30.9760   39.6770 S   0  0  0  0  0  0  0  0  0  0  0  0
   48.5280   29.4720   39.5180 O   0  0  0  0  0  0  0  0  0  0  0  0
   49.8680   31.4510   39.2390 O   0  0  0  0  0  0  0  0  0  0  0  0
  1  7  1  0  0  0  0
  1  6  1  0  0  0  0
  2  1  2  0  0  0  0
  3  2  1  0  0  0  0
  3  4  2  0  0  0  0
  4  5  1  0  0  0  0
  5  6  2  0  0  0  0
  5  9  1  0  0  0  0
  8  2  1  0  0  0  0
  9 15  1  1  0  0  0
  9 14  1  0  0  0  0
 10 11  1  0  0  0  0
 10 16  1  0  0  0  0
 10  9  1  0  0  0  0
 11 12  1  0  0  0  0
 12 21  1  0  0  0  0
 12 13  1  0  0  0  0
 13 22  1  0  0  0  0
 14 13  2  0  0  0  0
 14 23  1  0  0  0  0
 17 10  1  0  0  0  0
 18 11  1  0  0  0  0
 19 11  1  0  0  0  0
 20 12  1  0  0  0  0
 23 24  1  0  0  0  0
 25 23  1  0  0  0  0
 26  3  1  0  0  0  0
 27 26  1  0  0  0  0
 27 32  1  0  0  0  0
 28 27  2  0  0  0  0
 29 30  2  0  0  0  0
 29 28  1  0  0  0  0
 30 31  1  0  0  0  0
 31 26  2  0  0  0  0
 33 28  1  0  0  0  0
 34 29  1  0  0  0  0
 35 36  1  0  0  0  0
 35 44  1  0  0  0  0
 36 30  1  0  0  0  0
 37 38  1  0  0  0  0
 37 36  2  0  0  0  0
 39 37  1  0  0  0  0
 40 39  1  0  0  0  0
 41 39  2  0  0  0  0
 41 42  1  0  0  0  0
 42 35  2  0  0  0  0
 44 43  1  0  0  0  0
 45 44  2  0  0  0  0
 46 44  2  0  0  0  0
M  END
>  <minimizedAffinity>
-7.02676964

>  <minimizedRMSD>
0.377761185

$$$$
