
 OpenBabel03252506343D

 36 38  0  0  1  0  0  0  0  0999 V2000
   44.4620   35.7330   44.9520 C   0  0  0  0  0  0  0  0  0  0  0  0
   45.1440   35.7150   43.7240 C   0  0  0  0  0  0  0  0  0  0  0  0
   46.0750   34.7480   43.5090 C   0  0  0  0  0  0  0  0  0  0  0  0
   46.2810   33.8640   44.5080 N   0  0  0  0  0  0  0  0  0  0  0  0
   45.6370   33.8800   45.6710 C   0  0  0  0  0  0  0  0  0  0  0  0
   44.7080   34.8150   45.9290 N   0  0  0  0  0  0  0  0  0  0  0  0
   45.9510   32.8900   46.6390 N   0  0  0  0  0  0  0  0  0  0  0  0
   45.1350   32.5830   47.8100 C   0  0  0  0  0  0  0  0  0  0  0  0
   46.2140   32.3160   48.8540 C   0  0  0  0  0  0  0  0  0  0  0  0
   47.5240   32.1970   48.1230 C   0  0  0  0  0  0  0  0  0  0  0  0
   47.0940   32.0050   46.6860 C   0  0  1  0  0  0  0  0  0  0  0  0
   43.7000   36.4760   45.1990 H   0  0  0  0  0  0  0  0  0  0  0  0
   46.5670   34.7650   42.5730 H   0  0  0  0  0  0  0  0  0  0  0  0
   44.4810   31.7130   47.6470 H   0  0  0  0  0  0  0  0  0  0  0  0
   44.5660   33.4560   48.1630 H   0  0  0  0  0  0  0  0  0  0  0  0
   45.9690   31.3460   49.3270 H   0  0  0  0  0  0  0  0  0  0  0  0
   46.2100   33.0670   49.6590 H   0  0  0  0  0  0  0  0  0  0  0  0
   48.1330   31.3330   48.4920 H   0  0  0  0  0  0  0  0  0  0  0  0
   48.0550   33.1620   48.2390 H   0  0  0  0  0  0  0  0  0  0  0  0
   47.9250   32.3410   46.0560 H   0  0  0  0  0  0  0  0  0  0  0  0
   44.7500   36.7620   42.8320 N   0  0  0  0  0  0  0  0  0  0  0  0
   43.8100   36.9750   42.4660 H   0  0  0  0  0  0  0  0  0  0  0  0
   45.6680   37.2500   42.6540 H   0  0  0  0  0  0  0  0  0  0  0  0
   46.6240   30.2800   46.4660 S   0  0  0  0  0  0  0  0  0  0  0  0
   48.2510   28.0920   45.6820 C   0  0  0  0  0  0  0  0  0  0  0  0
   47.8020   29.3770   45.4780 C   0  0  0  0  0  0  0  0  0  0  0  0
   48.2870   30.1100   44.3920 C   0  0  0  0  0  0  0  0  0  0  0  0
   47.9890   31.1310   44.1530 H   0  0  0  0  0  0  0  0  0  0  0  0
   49.2090   29.5320   43.5380 C   0  0  0  0  0  0  0  0  0  0  0  0
   49.5940   30.0850   42.6930 H   0  0  0  0  0  0  0  0  0  0  0  0
   49.6650   28.2490   43.7310 C   0  0  0  0  0  3  0  0  0  0  0  0
   49.1730   27.5450   44.8100 C   0  0  0  0  0  3  0  0  0  0  0  0
   46.4610   27.9350   47.5030 H   0  0  0  0  0  0  0  0  0  0  0  0
   47.5760   27.2760   47.0690 S   0  0  0  0  0  0  0  0  0  0  0  0
   47.1210   25.8870   46.6490 O   0  0  0  0  0  0  0  0  0  0  0  0
   48.5750   27.0560   48.1610 O   0  0  0  0  0  0  0  0  0  0  0  0
  1 12  1  0  0  0  0
  1  6  1  0  0  0  0
  2  1  2  0  0  0  0
  3  2  1  0  0  0  0
  3  4  2  0  0  0  0
  4  5  1  0  0  0  0
  5  6  2  0  0  0  0
  5  7  1  0  0  0  0
  7 11  1  0  0  0  0
  7  8  1  0  0  0  0
  8 15  1  0  0  0  0
  8  9  1  0  0  0  0
  9 16  1  0  0  0  0
  9 17  1  0  0  0  0
 10 19  1  0  0  0  0
 10 18  1  0  0  0  0
 10  9  1  0  0  0  0
 11 20  1  6  0  0  0
 11 10  1  0  0  0  0
 13  3  1  0  0  0  0
 14  8  1  0  0  0  0
 21  2  1  0  0  0  0
 22 21  1  0  0  0  0
 23 21  1  0  0  0  0
 24 11  1  0  0  0  0
 25 34  1  0  0  0  0
 26 25  1  0  0  0  0
 26 24  1  0  0  0  0
 27 26  2  0  0  0  0
 28 27  1  0  0  0  0
 29 31  2  0  0  0  0
 29 27  1  0  0  0  0
 30 29  1  0  0  0  0
 31 32  1  0  0  0  0
 32 25  2  0  0  0  0
 34 33  1  0  0  0  0
 34 36  2  0  0  0  0
 35 34  2  0  0  0  0
M  END
>  <minimizedAffinity>
-4.99261522

>  <minimizedRMSD>
3.32300544

$$$$
