
 OpenBabel03252504283D

 25 26  0  0  0  0  0  0  0  0999 V2000
   35.7820   30.1510   40.4020 O   0  0  0  0  0  0  0  0  0  0  0  0
   37.1310   31.4050   38.8800 C   0  0  0  0  0  0  0  0  0  0  0  0
   36.2830   30.3180   39.1180 C   0  0  0  0  0  0  0  0  0  0  0  0
   35.9750   29.4540   38.0830 C   0  0  0  0  0  0  0  0  0  0  0  0
   35.3200   28.6160   38.2730 H   0  0  0  0  0  0  0  0  0  0  0  0
   36.4790   29.6230   36.7970 C   0  0  0  0  0  0  0  0  0  0  0  0
   36.2510   28.9590   35.9750 H   0  0  0  0  0  0  0  0  0  0  0  0
   37.3030   30.7170   36.6520 C   0  0  0  0  0  3  0  0  0  0  0  0
   37.6640   31.6210   37.6120 C   0  0  0  0  0  3  0  0  0  0  0  0
   36.5190   32.3510   41.1440 H   0  0  0  0  0  0  0  0  0  0  0  0
   37.5040   32.4830   40.2110 S   0  0  0  0  0  0  0  0  0  0  0  0
   37.5560   33.9200   39.7540 O   0  0  0  0  0  0  0  0  0  0  0  0
   38.8260   32.1230   40.8310 O   0  0  0  0  0  0  0  0  0  0  0  0
   35.5460   28.8700   40.8770 C   0  0  0  0  0  0  0  0  0  0  0  0
   35.3280   28.1910   40.0410 H   0  0  0  0  0  0  0  0  0  0  0  0
   34.6490   28.8620   41.5450 H   0  0  0  0  0  0  0  0  0  0  0  0
   37.3420   29.3020   42.4550 C   0  0  0  0  0  0  0  0  0  0  0  0
   36.6580   28.3410   41.7080 C   0  0  0  0  0  0  0  0  0  0  0  0
   37.0700   27.0230   41.8100 C   0  0  0  0  0  0  0  0  0  0  0  0
   38.0970   26.7540   42.6170 N   0  0  0  0  0  0  0  0  0  0  0  0
   38.7510   27.6820   43.3340 C   0  0  0  0  0  0  0  0  0  0  0  0
   38.3940   28.9980   43.2780 N   0  0  0  0  0  0  0  0  0  0  0  0
   37.1180   30.3660   42.4650 H   0  0  0  0  0  0  0  0  0  0  0  0
   36.5030   26.3440   41.2100 H   0  0  0  0  0  0  0  0  0  0  0  0
   39.5640   27.2840   43.9400 H   0  0  0  0  0  0  0  0  0  0  0  0
  1 14  1  0  0  0  0
  2  3  1  0  0  0  0
  2 11  1  0  0  0  0
  3  1  1  0  0  0  0
  4  5  1  0  0  0  0
  4  3  2  0  0  0  0
  6  4  1  0  0  0  0
  7  6  1  0  0  0  0
  8  6  2  0  0  0  0
  8  9  1  0  0  0  0
  9  2  2  0  0  0  0
 11 13  2  0  0  0  0
 11 10  1  0  0  0  0
 12 11  2  0  0  0  0
 14 16  1  0  0  0  0
 14 18  1  0  0  0  0
 15 14  1  0  0  0  0
 17 23  1  0  0  0  0
 17 22  1  0  0  0  0
 18 19  1  0  0  0  0
 18 17  2  0  0  0  0
 19 20  2  0  0  0  0
 20 21  1  0  0  0  0
 21 25  1  0  0  0  0
 22 21  2  0  0  0  0
 24 19  1  0  0  0  0
M  END
>  <minimizedAffinity>
-4.54358912

$$$$

 OpenBabel03252504283D

 25 26  0  0  0  0  0  0  0  0999 V2000
   36.7010   30.2990   41.8120 O   0  0  0  0  0  0  0  0  0  0  0  0
   38.7720   29.3260   42.5050 C   0  0  0  0  0  0  0  0  0  0  0  0
   37.3890   29.2080   42.3290 C   0  0  0  0  0  0  0  0  0  0  0  0
   36.7560   28.0260   42.6700 C   0  0  0  0  0  0  0  0  0  0  0  0
   35.6880   27.9410   42.5320 H   0  0  0  0  0  0  0  0  0  0  0  0
   37.4470   26.9350   43.1870 C   0  0  0  0  0  0  0  0  0  0  0  0
   36.9720   26.0030   43.4610 H   0  0  0  0  0  0  0  0  0  0  0  0
   38.8020   27.1380   43.3270 C   0  0  0  0  0  3  0  0  0  0  0  0
   39.5110   28.2650   43.0190 C   0  0  0  0  0  3  0  0  0  0  0  0
   38.6460   31.8400   42.2600 H   0  0  0  0  0  0  0  0  0  0  0  0
   39.5450   30.8360   42.0630 S   0  0  0  0  0  0  0  0  0  0  0  0
   39.9670   30.8320   40.6140 O   0  0  0  0  0  0  0  0  0  0  0  0
   40.7570   31.0810   42.9190 O   0  0  0  0  0  0  0  0  0  0  0  0
   35.9300   30.1370   40.6720 C   0  0  0  0  0  0  0  0  0  0  0  0
   34.9330   30.5720   40.8250 H   0  0  0  0  0  0  0  0  0  0  0  0
   35.7810   29.0500   40.4550 H   0  0  0  0  0  0  0  0  0  0  0  0
   36.7380   29.7840   38.4080 C   0  0  0  0  0  0  0  0  0  0  0  0
   36.5660   30.6960   39.4520 C   0  0  0  0  0  0  0  0  0  0  0  0
   36.9940   31.9980   39.2550 C   0  0  0  0  0  0  0  0  0  0  0  0
   37.5440   32.2990   38.0770 N   0  0  0  0  0  0  0  0  0  0  0  0
   37.7060   31.4190   37.0770 C   0  0  0  0  0  0  0  0  0  0  0  0
   37.3050   30.1200   37.2080 N   0  0  0  0  0  0  0  0  0  0  0  0
   36.4460   28.7370   38.4350 H   0  0  0  0  0  0  0  0  0  0  0  0
   36.8320   32.6390   40.0950 H   0  0  0  0  0  0  0  0  0  0  0  0
   38.1730   31.8380   36.1870 H   0  0  0  0  0  0  0  0  0  0  0  0
  1  3  1  0  0  0  0
  2  9  1  0  0  0  0
  3  2  2  0  0  0  0
  3  4  1  0  0  0  0
  4  6  2  0  0  0  0
  5  4  1  0  0  0  0
  6  8  1  0  0  0  0
  6  7  1  0  0  0  0
  9  8  2  0  0  0  0
 11 10  1  0  0  0  0
 11  2  1  0  0  0  0
 11 13  2  0  0  0  0
 12 11  2  0  0  0  0
 14 15  1  0  0  0  0
 14  1  1  0  0  0  0
 16 14  1  0  0  0  0
 17 23  1  0  0  0  0
 17 18  1  0  0  0  0
 18 14  1  0  0  0  0
 19 18  2  0  0  0  0
 19 24  1  0  0  0  0
 20 19  1  0  0  0  0
 21 22  1  0  0  0  0
 21 20  2  0  0  0  0
 22 17  2  0  0  0  0
 25 21  1  0  0  0  0
M  END
>  <minimizedAffinity>
-4.45944738

$$$$

 OpenBabel03252504283D

 25 26  0  0  0  0  0  0  0  0999 V2000
   39.1720   29.9510   41.2800 O   0  0  0  0  0  0  0  0  0  0  0  0
   37.1480   28.7740   41.7610 C   0  0  0  0  0  0  0  0  0  0  0  0
   38.5120   28.9690   42.0070 C   0  0  0  0  0  0  0  0  0  0  0  0
   39.1530   28.1900   42.9520 C   0  0  0  0  0  0  0  0  0  0  0  0
   40.2050   28.3440   43.1380 H   0  0  0  0  0  0  0  0  0  0  0  0
   38.4890   27.2060   43.6800 C   0  0  0  0  0  0  0  0  0  0  0  0
   38.9710   26.5860   44.4220 H   0  0  0  0  0  0  0  0  0  0  0  0
   37.1520   27.0820   43.3740 C   0  0  0  0  0  3  0  0  0  0  0  0
   36.4360   27.8040   42.4600 C   0  0  0  0  0  3  0  0  0  0  0  0
   37.1420   29.7770   39.4390 H   0  0  0  0  0  0  0  0  0  0  0  0
   36.3630   29.7780   40.5570 S   0  0  0  0  0  0  0  0  0  0  0  0
   36.2070   31.1970   41.0450 O   0  0  0  0  0  0  0  0  0  0  0  0
   35.0050   29.2310   40.2150 O   0  0  0  0  0  0  0  0  0  0  0  0
   39.6730   31.0620   41.9390 C   0  0  0  0  0  0  0  0  0  0  0  0
   40.5390   30.7790   42.5530 H   0  0  0  0  0  0  0  0  0  0  0  0
   38.9040   31.4810   42.6350 H   0  0  0  0  0  0  0  0  0  0  0  0
   41.2950   32.0970   40.4560 C   0  0  0  0  0  0  0  0  0  0  0  0
   40.0210   32.1780   41.0230 C   0  0  0  0  0  0  0  0  0  0  0  0
   39.2270   33.2620   40.6860 C   0  0  0  0  0  0  0  0  0  0  0  0
   39.7310   34.1610   39.8400 N   0  0  0  0  0  0  0  0  0  0  0  0
   40.9560   34.0780   39.2970 C   0  0  0  0  0  0  0  0  0  0  0  0
   41.7870   33.0350   39.5880 N   0  0  0  0  0  0  0  0  0  0  0  0
   42.0130   31.3010   40.6370 H   0  0  0  0  0  0  0  0  0  0  0  0
   38.2680   33.2580   41.1570 H   0  0  0  0  0  0  0  0  0  0  0  0
   41.2020   34.9010   38.6270 H   0  0  0  0  0  0  0  0  0  0  0  0
  1 14  1  0  0  0  0
  1  3  1  0  0  0  0
  2  3  2  0  0  0  0
  2  9  1  0  0  0  0
  3  4  1  0  0  0  0
  4  5  1  0  0  0  0
  4  6  2  0  0  0  0
  6  7  1  0  0  0  0
  8  6  1  0  0  0  0
  9  8  2  0  0  0  0
 10 11  1  0  0  0  0
 11 12  2  0  0  0  0
 11  2  1  0  0  0  0
 13 11  2  0  0  0  0
 14 15  1  0  0  0  0
 14 16  1  0  0  0  0
 17 23  1  0  0  0  0
 17 18  1  0  0  0  0
 18 14  1  0  0  0  0
 19 18  2  0  0  0  0
 19 24  1  0  0  0  0
 20 19  1  0  0  0  0
 21 22  1  0  0  0  0
 21 20  2  0  0  0  0
 22 17  2  0  0  0  0
 25 21  1  0  0  0  0
M  END
>  <minimizedAffinity>
-4.42007446

$$$$

 OpenBabel03252504283D

 25 26  0  0  0  0  0  0  0  0999 V2000
   38.8190   27.9040   42.9480 O   0  0  0  0  0  0  0  0  0  0  0  0
   39.5500   25.6680   42.5250 C   0  0  0  0  0  0  0  0  0  0  0  0
   38.5030   26.5910   42.6210 C   0  0  0  0  0  0  0  0  0  0  0  0
   37.2040   26.1760   42.3920 C   0  0  0  0  0  0  0  0  0  0  0  0
   36.4000   26.8930   42.4680 H   0  0  0  0  0  0  0  0  0  0  0  0
   36.8900   24.8600   42.0650 C   0  0  0  0  0  0  0  0  0  0  0  0
   35.8820   24.5140   41.8830 H   0  0  0  0  0  0  0  0  0  0  0  0
   37.9800   24.0200   41.9920 C   0  0  0  0  0  3  0  0  0  0  0  0
   39.2920   24.3380   42.2010 C   0  0  0  0  0  3  0  0  0  0  0  0
   41.1490   27.0940   43.8680 H   0  0  0  0  0  0  0  0  0  0  0  0
   41.1860   26.2240   42.8200 S   0  0  0  0  0  0  0  0  0  0  0  0
   41.7490   26.9330   41.6130 O   0  0  0  0  0  0  0  0  0  0  0  0
   42.0850   25.0690   43.1660 O   0  0  0  0  0  0  0  0  0  0  0  0
   37.7960   28.8030   43.2030 C   0  0  0  0  0  0  0  0  0  0  0  0
   37.9160   29.2370   44.2060 H   0  0  0  0  0  0  0  0  0  0  0  0
   36.8070   28.2820   43.1910 H   0  0  0  0  0  0  0  0  0  0  0  0
   38.8720   30.5700   41.9300 C   0  0  0  0  0  0  0  0  0  0  0  0
   37.6880   29.8730   42.1790 C   0  0  0  0  0  0  0  0  0  0  0  0
   36.5580   30.2350   41.4650 C   0  0  0  0  0  0  0  0  0  0  0  0
   36.6730   31.2300   40.5840 N   0  0  0  0  0  0  0  0  0  0  0  0
   37.8140   31.8970   40.3490 C   0  0  0  0  0  0  0  0  0  0  0  0
   38.9630   31.5880   41.0180 N   0  0  0  0  0  0  0  0  0  0  0  0
   39.8250   30.3840   42.4200 H   0  0  0  0  0  0  0  0  0  0  0  0
   35.6900   29.6600   41.7070 H   0  0  0  0  0  0  0  0  0  0  0  0
   37.7240   32.6790   39.5960 H   0  0  0  0  0  0  0  0  0  0  0  0
  1 14  1  0  0  0  0
  2  3  1  0  0  0  0
  2 11  1  0  0  0  0
  3  1  1  0  0  0  0
  4  5  1  0  0  0  0
  4  3  2  0  0  0  0
  6  4  1  0  0  0  0
  7  6  1  0  0  0  0
  8  6  2  0  0  0  0
  8  9  1  0  0  0  0
  9  2  2  0  0  0  0
 11 13  2  0  0  0  0
 11 10  1  0  0  0  0
 12 11  2  0  0  0  0
 14 15  1  0  0  0  0
 16 14  1  0  0  0  0
 17 18  1  0  0  0  0
 17 23  1  0  0  0  0
 18 14  1  0  0  0  0
 19 24  1  0  0  0  0
 19 18  2  0  0  0  0
 20 19  1  0  0  0  0
 21 20  2  0  0  0  0
 21 22  1  0  0  0  0
 22 17  2  0  0  0  0
 25 21  1  0  0  0  0
M  END
>  <minimizedAffinity>
-4.35131359

$$$$

 OpenBabel03252504283D

 25 26  0  0  0  0  0  0  0  0999 V2000
   37.9210   29.3170   42.4050 O   0  0  0  0  0  0  0  0  0  0  0  0
   37.7270   30.3520   40.2600 C   0  0  0  0  0  0  0  0  0  0  0  0
   37.1810   29.5270   41.2490 C   0  0  0  0  0  0  0  0  0  0  0  0
   35.9390   28.9520   41.0480 C   0  0  0  0  0  0  0  0  0  0  0  0
   35.5230   28.3150   41.8140 H   0  0  0  0  0  0  0  0  0  0  0  0
   35.2000   29.1630   39.8880 C   0  0  0  0  0  0  0  0  0  0  0  0
   34.2280   28.7240   39.7110 H   0  0  0  0  0  0  0  0  0  0  0  0
   35.8120   29.9880   38.9700 C   0  0  0  0  0  3  0  0  0  0  0  0
   37.0300   30.5970   39.0800 C   0  0  0  0  0  3  0  0  0  0  0  0
   40.0750   30.1400   41.1760 H   0  0  0  0  0  0  0  0  0  0  0  0
   39.3030   31.0670   40.5430 S   0  0  0  0  0  0  0  0  0  0  0  0
   39.1980   32.2960   41.4120 O   0  0  0  0  0  0  0  0  0  0  0  0
   39.9540   31.4480   39.2420 O   0  0  0  0  0  0  0  0  0  0  0  0
   37.5100   28.3470   43.3060 C   0  0  0  0  0  0  0  0  0  0  0  0
   36.4200   28.2160   43.2500 H   0  0  0  0  0  0  0  0  0  0  0  0
   37.7470   28.6630   44.3520 H   0  0  0  0  0  0  0  0  0  0  0  0
   39.4830   26.9800   43.6790 C   0  0  0  0  0  0  0  0  0  0  0  0
   38.2040   27.0470   43.1230 C   0  0  0  0  0  0  0  0  0  0  0  0
   37.7200   25.9260   42.4700 C   0  0  0  0  0  0  0  0  0  0  0  0
   38.5070   24.8500   42.4150 N   0  0  0  0  0  0  0  0  0  0  0  0
   39.7360   24.7910   42.9530 C   0  0  0  0  0  0  0  0  0  0  0  0
   40.2710   25.8620   43.6090 N   0  0  0  0  0  0  0  0  0  0  0  0
   39.9770   27.7870   44.2160 H   0  0  0  0  0  0  0  0  0  0  0  0
   36.7370   26.0490   42.0690 H   0  0  0  0  0  0  0  0  0  0  0  0
   40.2370   23.8350   42.8130 H   0  0  0  0  0  0  0  0  0  0  0  0
  1 14  1  0  0  0  0
  2 11  1  0  0  0  0
  2  3  1  0  0  0  0
  3  1  1  0  0  0  0
  4  3  2  0  0  0  0
  4  5  1  0  0  0  0
  6  4  1  0  0  0  0
  7  6  1  0  0  0  0
  8  9  1  0  0  0  0
  8  6  2  0  0  0  0
  9  2  2  0  0  0  0
 11 10  1  0  0  0  0
 11 12  2  0  0  0  0
 13 11  2  0  0  0  0
 14 16  1  0  0  0  0
 15 14  1  0  0  0  0
 17 23  1  0  0  0  0
 18 14  1  0  0  0  0
 18 17  2  0  0  0  0
 19 18  1  0  0  0  0
 20 19  2  0  0  0  0
 20 21  1  0  0  0  0
 21 22  2  0  0  0  0
 22 17  1  0  0  0  0
 24 19  1  0  0  0  0
 25 21  1  0  0  0  0
M  END
>  <minimizedAffinity>
-4.31647205

$$$$

 OpenBabel03252504283D

 25 26  0  0  0  0  0  0  0  0999 V2000
   37.3840   27.8560   39.7790 O   0  0  0  0  0  0  0  0  0  0  0  0
   37.4070   26.2710   41.5680 C   0  0  0  0  0  0  0  0  0  0  0  0
   37.0960   26.5780   40.2380 C   0  0  0  0  0  0  0  0  0  0  0  0
   36.5190   25.6130   39.4330 C   0  0  0  0  0  0  0  0  0  0  0  0
   36.2800   25.8560   38.4080 H   0  0  0  0  0  0  0  0  0  0  0  0
   36.2300   24.3330   39.8950 C   0  0  0  0  0  0  0  0  0  0  0  0
   35.7790   23.5640   39.2830 H   0  0  0  0  0  0  0  0  0  0  0  0
   36.5690   24.1170   41.2130 C   0  0  0  0  0  3  0  0  0  0  0  0
   37.1400   25.0050   42.0820 C   0  0  0  0  0  3  0  0  0  0  0  0
   38.9570   28.2590   41.7690 H   0  0  0  0  0  0  0  0  0  0  0  0
   38.1390   27.5140   42.5640 S   0  0  0  0  0  0  0  0  0  0  0  0
   38.9560   26.9110   43.6800 O   0  0  0  0  0  0  0  0  0  0  0  0
   37.0840   28.4030   43.1630 O   0  0  0  0  0  0  0  0  0  0  0  0
   36.3460   28.6850   39.3840 C   0  0  0  0  0  0  0  0  0  0  0  0
   35.4400   28.4580   39.9630 H   0  0  0  0  0  0  0  0  0  0  0  0
   36.0970   28.5100   38.3080 H   0  0  0  0  0  0  0  0  0  0  0  0
   36.9870   30.7420   38.2610 C   0  0  0  0  0  0  0  0  0  0  0  0
   36.6820   30.1280   39.4780 C   0  0  0  0  0  0  0  0  0  0  0  0
   36.7220   30.9040   40.6240 C   0  0  0  0  0  0  0  0  0  0  0  0
   37.0490   32.1900   40.4930 N   0  0  0  0  0  0  0  0  0  0  0  0
   37.3410   32.7750   39.3200 C   0  0  0  0  0  0  0  0  0  0  0  0
   37.3200   32.0660   38.1540 N   0  0  0  0  0  0  0  0  0  0  0  0
   36.9920   30.2470   37.2930 H   0  0  0  0  0  0  0  0  0  0  0  0
   36.4780   30.3690   41.5180 H   0  0  0  0  0  0  0  0  0  0  0  0
   37.5860   33.8330   39.4000 H   0  0  0  0  0  0  0  0  0  0  0  0
  1  3  1  0  0  0  0
  2  9  1  0  0  0  0
  2 11  1  0  0  0  0
  3  2  2  0  0  0  0
  4  6  2  0  0  0  0
  4  3  1  0  0  0  0
  5  4  1  0  0  0  0
  6  8  1  0  0  0  0
  7  6  1  0  0  0  0
  8  9  2  0  0  0  0
 10 11  1  0  0  0  0
 11 13  2  0  0  0  0
 11 12  2  0  0  0  0
 14 18  1  0  0  0  0
 14  1  1  0  0  0  0
 14 15  1  0  0  0  0
 16 14  1  0  0  0  0
 17 18  1  0  0  0  0
 18 19  2  0  0  0  0
 19 24  1  0  0  0  0
 20 19  1  0  0  0  0
 21 25  1  0  0  0  0
 21 20  2  0  0  0  0
 22 17  2  0  0  0  0
 22 21  1  0  0  0  0
 23 17  1  0  0  0  0
M  END
>  <minimizedAffinity>
-4.3028264

$$$$

 OpenBabel03252504283D

 25 26  0  0  0  0  0  0  0  0999 V2000
   37.9270   27.7630   41.3310 O   0  0  0  0  0  0  0  0  0  0  0  0
   38.1980   25.4190   41.7160 C   0  0  0  0  0  0  0  0  0  0  0  0
   38.5580   26.7360   42.0220 C   0  0  0  0  0  0  0  0  0  0  0  0
   39.5200   26.9740   42.9880 C   0  0  0  0  0  0  0  0  0  0  0  0
   39.7940   27.9930   43.2190 H   0  0  0  0  0  0  0  0  0  0  0  0
   40.1520   25.9450   43.6780 C   0  0  0  0  0  0  0  0  0  0  0  0
   40.9050   26.1090   44.4360 H   0  0  0  0  0  0  0  0  0  0  0  0
   39.7370   24.6820   43.3150 C   0  0  0  0  0  3  0  0  0  0  0  0
   38.8000   24.3510   42.3770 C   0  0  0  0  0  3  0  0  0  0  0  0
   36.1070   26.1970   40.5260 H   0  0  0  0  0  0  0  0  0  0  0  0
   36.9770   25.1490   40.4880 S   0  0  0  0  0  0  0  0  0  0  0  0
   36.2170   23.8710   40.7430 O   0  0  0  0  0  0  0  0  0  0  0  0
   37.6050   25.0750   39.1230 O   0  0  0  0  0  0  0  0  0  0  0  0
   37.2680   28.7530   42.0420 C   0  0  0  0  0  0  0  0  0  0  0  0
   37.5330   28.6940   43.1070 H   0  0  0  0  0  0  0  0  0  0  0  0
   36.1610   28.6100   41.9740 H   0  0  0  0  0  0  0  0  0  0  0  0
   38.8240   30.5850   41.6900 C   0  0  0  0  0  0  0  0  0  0  0  0
   37.5200   30.1180   41.5130 C   0  0  0  0  0  0  0  0  0  0  0  0
   36.6120   30.9490   40.8800 C   0  0  0  0  0  0  0  0  0  0  0  0
   37.0420   32.1460   40.4780 N   0  0  0  0  0  0  0  0  0  0  0  0
   38.2970   32.5900   40.6490 C   0  0  0  0  0  0  0  0  0  0  0  0
   39.2390   31.8190   41.2660 N   0  0  0  0  0  0  0  0  0  0  0  0
   39.6290   30.0330   42.1690 H   0  0  0  0  0  0  0  0  0  0  0  0
   35.6350   30.5270   40.7800 H   0  0  0  0  0  0  0  0  0  0  0  0
   38.4710   33.5920   40.2590 H   0  0  0  0  0  0  0  0  0  0  0  0
  1  3  1  0  0  0  0
  1 14  1  0  0  0  0
  2  3  2  0  0  0  0
  2  9  1  0  0  0  0
  3  4  1  0  0  0  0
  4  5  1  0  0  0  0
  4  6  2  0  0  0  0
  6  7  1  0  0  0  0
  8  6  1  0  0  0  0
  9  8  2  0  0  0  0
 11 10  1  0  0  0  0
 11 12  2  0  0  0  0
 11  2  1  0  0  0  0
 13 11  2  0  0  0  0
 14 15  1  0  0  0  0
 16 14  1  0  0  0  0
 17 23  1  0  0  0  0
 18 17  1  0  0  0  0
 18 14  1  0  0  0  0
 19 18  2  0  0  0  0
 20 21  2  0  0  0  0
 20 19  1  0  0  0  0
 21 22  1  0  0  0  0
 22 17  2  0  0  0  0
 24 19  1  0  0  0  0
 25 21  1  0  0  0  0
M  END
>  <minimizedAffinity>
-4.25274324

$$$$

 OpenBabel03252504283D

 25 26  0  0  0  0  0  0  0  0999 V2000
   36.5620   29.7500   41.2060 O   0  0  0  0  0  0  0  0  0  0  0  0
   36.8900   27.3870   41.0640 C   0  0  0  0  0  0  0  0  0  0  0  0
   36.4900   28.5830   40.4570 C   0  0  0  0  0  0  0  0  0  0  0  0
   36.0400   28.5670   39.1490 C   0  0  0  0  0  0  0  0  0  0  0  0
   35.7320   29.4930   38.6860 H   0  0  0  0  0  0  0  0  0  0  0  0
   35.9670   27.3960   38.4010 C   0  0  0  0  0  0  0  0  0  0  0  0
   35.6180   27.3610   37.3790 H   0  0  0  0  0  0  0  0  0  0  0  0
   36.3800   26.2670   39.0750 C   0  0  0  0  0  3  0  0  0  0  0  0
   36.8370   26.1860   40.3610 C   0  0  0  0  0  3  0  0  0  0  0  0
   38.1480   28.5990   42.8910 H   0  0  0  0  0  0  0  0  0  0  0  0
   37.4560   27.4380   42.7220 S   0  0  0  0  0  0  0  0  0  0  0  0
   38.3670   26.2750   43.0260 O   0  0  0  0  0  0  0  0  0  0  0  0
   36.2960   27.4080   43.6790 O   0  0  0  0  0  0  0  0  0  0  0  0
   36.2690   30.9620   40.6010 C   0  0  0  0  0  0  0  0  0  0  0  0
   35.4440   31.4590   41.1300 H   0  0  0  0  0  0  0  0  0  0  0  0
   35.9300   30.8000   39.5480 H   0  0  0  0  0  0  0  0  0  0  0  0
   38.6150   31.3730   41.0840 C   0  0  0  0  0  0  0  0  0  0  0  0
   37.4450   31.8640   40.5000 C   0  0  0  0  0  0  0  0  0  0  0  0
   37.4920   33.1110   39.9000 C   0  0  0  0  0  0  0  0  0  0  0  0
   38.6550   33.7650   39.9170 N   0  0  0  0  0  0  0  0  0  0  0  0
   39.7770   33.2880   40.4790 C   0  0  0  0  0  0  0  0  0  0  0  0
   39.7960   32.0660   41.0860 N   0  0  0  0  0  0  0  0  0  0  0  0
   38.7110   30.4130   41.5840 H   0  0  0  0  0  0  0  0  0  0  0  0
   36.5620   33.4230   39.4750 H   0  0  0  0  0  0  0  0  0  0  0  0
   40.6330   33.9560   40.3990 H   0  0  0  0  0  0  0  0  0  0  0  0
  2 11  1  0  0  0  0
  3  2  1  0  0  0  0
  3  1  1  0  0  0  0
  4  3  2  0  0  0  0
  5  4  1  0  0  0  0
  6  8  2  0  0  0  0
  6  4  1  0  0  0  0
  7  6  1  0  0  0  0
  8  9  1  0  0  0  0
  9  2  2  0  0  0  0
 11 10  1  0  0  0  0
 11 12  2  0  0  0  0
 11 13  2  0  0  0  0
 14 15  1  0  0  0  0
 14  1  1  0  0  0  0
 16 14  1  0  0  0  0
 17 22  1  0  0  0  0
 17 23  1  0  0  0  0
 18 14  1  0  0  0  0
 18 17  2  0  0  0  0
 19 20  2  0  0  0  0
 19 18  1  0  0  0  0
 20 21  1  0  0  0  0
 21 22  2  0  0  0  0
 24 19  1  0  0  0  0
 25 21  1  0  0  0  0
M  END
>  <minimizedAffinity>
-4.24433708

$$$$

 OpenBabel03252504283D

 25 26  0  0  0  0  0  0  0  0999 V2000
   38.9110   28.8770   39.9010 O   0  0  0  0  0  0  0  0  0  0  0  0
   37.0630   28.2290   41.2710 C   0  0  0  0  0  0  0  0  0  0  0  0
   38.4390   28.4390   41.1320 C   0  0  0  0  0  0  0  0  0  0  0  0
   39.2770   28.2090   42.2080 C   0  0  0  0  0  0  0  0  0  0  0  0
   40.3380   28.3720   42.0950 H   0  0  0  0  0  0  0  0  0  0  0  0
   38.8020   27.7700   43.4400 C   0  0  0  0  0  0  0  0  0  0  0  0
   39.4390   27.5830   44.2940 H   0  0  0  0  0  0  0  0  0  0  0  0
   37.4370   27.5890   43.4890 C   0  0  0  0  0  3  0  0  0  0  0  0
   36.5340   27.7900   42.4820 C   0  0  0  0  0  3  0  0  0  0  0  0
   36.6370   29.4610   39.1040 H   0  0  0  0  0  0  0  0  0  0  0  0
   36.0260   28.5300   39.8900 S   0  0  0  0  0  0  0  0  0  0  0  0
   34.6800   29.0580   40.3210 O   0  0  0  0  0  0  0  0  0  0  0  0
   35.8200   27.2690   39.0960 O   0  0  0  0  0  0  0  0  0  0  0  0
   39.7050   30.0110   39.8440 C   0  0  0  0  0  0  0  0  0  0  0  0
   40.4140   29.9340   39.0080 H   0  0  0  0  0  0  0  0  0  0  0  0
   40.3120   30.1090   40.7770 H   0  0  0  0  0  0  0  0  0  0  0  0
   39.2470   32.2350   40.7070 C   0  0  0  0  0  0  0  0  0  0  0  0
   38.9210   31.2690   39.7530 C   0  0  0  0  0  0  0  0  0  0  0  0
   37.9250   31.5690   38.8390 C   0  0  0  0  0  0  0  0  0  0  0  0
   37.3390   32.7640   38.9280 N   0  0  0  0  0  0  0  0  0  0  0  0
   37.6570   33.6890   39.8470 C   0  0  0  0  0  0  0  0  0  0  0  0
   38.6300   33.4550   40.7760 N   0  0  0  0  0  0  0  0  0  0  0  0
   40.0070   32.1250   41.4770 H   0  0  0  0  0  0  0  0  0  0  0  0
   37.7290   30.7850   38.1400 H   0  0  0  0  0  0  0  0  0  0  0  0
   37.0770   34.6080   39.7730 H   0  0  0  0  0  0  0  0  0  0  0  0
  1  3  1  0  0  0  0
  2  9  1  0  0  0  0
  3  2  2  0  0  0  0
  3  4  1  0  0  0  0
  4  6  2  0  0  0  0
  5  4  1  0  0  0  0
  6  8  1  0  0  0  0
  6  7  1  0  0  0  0
  9  8  2  0  0  0  0
 10 11  1  0  0  0  0
 11 12  2  0  0  0  0
 11  2  1  0  0  0  0
 13 11  2  0  0  0  0
 14  1  1  0  0  0  0
 14 16  1  0  0  0  0
 15 14  1  0  0  0  0
 17 22  1  0  0  0  0
 17 23  1  0  0  0  0
 18 14  1  0  0  0  0
 18 17  2  0  0  0  0
 19 20  2  0  0  0  0
 19 18  1  0  0  0  0
 20 21  1  0  0  0  0
 21 22  2  0  0  0  0
 24 19  1  0  0  0  0
 25 21  1  0  0  0  0
M  END
>  <minimizedAffinity>
-4.19847059

$$$$
