
 OpenBabel03242513063D

 38 41  0  0  0  0  0  0  0  0999 V2000
   37.2530   27.9460   40.0760 C   0  0  0  0  0  0  0  0  0  0  0  0
   37.1440   27.4570   41.3710 C   0  0  0  0  0  0  0  0  0  0  0  0
   37.2940   28.3840   42.3970 C   0  0  0  0  0  0  0  0  0  0  0  0
   37.5320   29.6870   42.0530 N   0  0  0  0  0  0  0  0  0  0  0  0
   37.6290   30.1190   40.7860 C   0  0  0  0  0  0  0  0  0  0  0  0
   37.4870   29.2380   39.7860 N   0  0  0  0  0  0  0  0  0  0  0  0
   37.1480   27.3280   39.1960 H   0  0  0  0  0  0  0  0  0  0  0  0
   36.9680   32.2800   39.8050 C   0  0  0  0  0  0  0  0  0  0  0  0
   37.8830   31.5200   40.5280 C   0  0  0  0  0  0  0  0  0  0  0  0
   39.0660   32.0510   41.0320 C   0  0  0  0  0  0  0  0  0  0  0  0
   39.3590   33.3990   40.8110 C   0  0  0  0  0  0  0  0  0  0  0  0
   40.3930   34.2260   41.1490 N   0  0  0  0  0  0  0  0  0  0  0  0
   40.0840   35.4730   40.6220 C   0  0  0  0  0  0  0  0  0  0  0  0
   38.8790   35.3740   39.9830 N   0  0  0  0  0  0  0  0  0  0  0  0
   38.4270   34.1160   40.0910 C   0  0  0  0  0  0  0  0  0  0  0  0
   37.2580   33.6230   39.5840 C   0  0  0  0  0  0  0  0  0  0  0  0
   36.0690   31.8000   39.4440 H   0  0  0  0  0  0  0  0  0  0  0  0
   39.7730   31.4560   41.5930 H   0  0  0  0  0  0  0  0  0  0  0  0
   41.1720   33.8410   41.6900 H   0  0  0  0  0  0  0  0  0  0  0  0
   40.7850   36.2830   40.7800 H   0  0  0  0  0  0  0  0  0  0  0  0
   36.5610   34.2050   39.0330 H   0  0  0  0  0  0  0  0  0  0  0  0
   37.1950   27.9570   43.8120 C   0  0  0  0  0  0  0  0  0  0  0  0
   37.1420   29.0750   44.6540 F   0  0  0  0  0  0  0  0  0  0  0  0
   36.0500   27.2500   44.0320 F   0  0  0  0  0  0  0  0  0  0  0  0
   38.3020   27.2070   44.1200 F   0  0  0  0  0  0  0  0  0  0  0  0
   36.9070   26.1440   41.6160 O   0  0  0  0  0  0  0  0  0  0  0  0
   38.5230   24.6940   40.8620 C   0  0  0  0  0  0  0  0  0  0  0  0
   37.2240   25.1440   40.7450 C   0  0  0  0  0  0  0  0  0  0  0  0
   36.4140   24.5560   39.7960 C   0  0  0  0  0  0  0  0  0  0  0  0
   35.4100   24.9710   39.7750 H   0  0  0  0  0  0  0  0  0  0  0  0
   36.8080   23.5510   38.9550 C   0  0  0  0  0  0  0  0  0  0  0  0
   36.0830   23.1540   38.2380 H   0  0  0  0  0  0  0  0  0  0  0  0
   38.1070   23.1010   39.0720 C   0  0  0  0  0  3  0  0  0  0  0  0
   38.9660   23.6670   40.0190 C   0  0  0  0  0  3  0  0  0  0  0  0
   39.7080   26.4490   42.3880 H   0  0  0  0  0  0  0  0  0  0  0  0
   39.8020   25.1770   41.9550 S   0  0  0  0  0  0  0  0  0  0  0  0
   39.8410   24.2350   43.1450 O   0  0  0  0  0  0  0  0  0  0  0  0
   41.1460   25.0150   41.2760 O   0  0  0  0  0  0  0  0  0  0  0  0
  1  2  1  0  0  0  0
  2 26  1  0  0  0  0
  2  3  2  0  0  0  0
  3 22  1  0  0  0  0
  4  3  1  0  0  0  0
  5  4  2  0  0  0  0
  6  1  2  0  0  0  0
  6  5  1  0  0  0  0
  7  1  1  0  0  0  0
  8  9  1  0  0  0  0
  9  5  1  0  0  0  0
  9 10  2  0  0  0  0
 10 18  1  0  0  0  0
 11 10  1  0  0  0  0
 11 12  1  0  0  0  0
 12 19  1  0  0  0  0
 13 20  1  0  0  0  0
 13 12  1  0  0  0  0
 14 15  1  0  0  0  0
 14 13  2  0  0  0  0
 15 11  2  0  0  0  0
 16  8  2  0  0  0  0
 16 15  1  0  0  0  0
 17  8  1  0  0  0  0
 21 16  1  0  0  0  0
 22 24  1  0  0  0  0
 22 25  1  0  0  0  0
 22 23  1  0  0  0  0
 27 36  1  0  0  0  0
 28 27  1  0  0  0  0
 28 26  1  0  0  0  0
 29 28  2  0  0  0  0
 30 29  1  0  0  0  0
 31 33  2  0  0  0  0
 31 29  1  0  0  0  0
 32 31  1  0  0  0  0
 33 34  1  0  0  0  0
 34 27  2  0  0  0  0
 36 35  1  0  0  0  0
 36 37  2  0  0  0  0
 38 36  2  0  0  0  0
M  END
>  <minimizedAffinity>
-7.26376009

$$$$

 OpenBabel03242513063D

 38 41  0  0  0  0  0  0  0  0999 V2000
   36.8150   28.1210   40.1930 C   0  0  0  0  0  0  0  0  0  0  0  0
   36.9590   28.5200   41.5160 C   0  0  0  0  0  0  0  0  0  0  0  0
   37.1260   27.5060   42.4530 C   0  0  0  0  0  0  0  0  0  0  0  0
   37.1360   26.2140   42.0050 N   0  0  0  0  0  0  0  0  0  0  0  0
   36.9940   25.8710   40.7150 C   0  0  0  0  0  0  0  0  0  0  0  0
   36.8320   26.8350   39.7990 N   0  0  0  0  0  0  0  0  0  0  0  0
   36.6860   28.8130   39.3740 H   0  0  0  0  0  0  0  0  0  0  0  0
   38.0820   23.6600   40.7280 C   0  0  0  0  0  0  0  0  0  0  0  0
   37.0190   24.4720   40.3440 C   0  0  0  0  0  0  0  0  0  0  0  0
   35.9460   23.9970   39.5960 C   0  0  0  0  0  0  0  0  0  0  0  0
   35.9210   22.6550   39.2110 C   0  0  0  0  0  0  0  0  0  0  0  0
   35.0540   21.8740   38.4990 N   0  0  0  0  0  0  0  0  0  0  0  0
   35.6110   20.6030   38.4650 C   0  0  0  0  0  0  0  0  0  0  0  0
   36.7920   20.6410   39.1530 N   0  0  0  0  0  0  0  0  0  0  0  0
   36.9920   21.8850   39.6130 C   0  0  0  0  0  0  0  0  0  0  0  0
   38.0590   22.3230   40.3460 C   0  0  0  0  0  0  0  0  0  0  0  0
   38.8820   24.0980   41.3080 H   0  0  0  0  0  0  0  0  0  0  0  0
   35.1220   24.6320   39.3000 H   0  0  0  0  0  0  0  0  0  0  0  0
   34.2010   22.3020   38.1280 H   0  0  0  0  0  0  0  0  0  0  0  0
   35.0730   19.8230   37.9420 H   0  0  0  0  0  0  0  0  0  0  0  0
   38.8690   21.7010   40.6380 H   0  0  0  0  0  0  0  0  0  0  0  0
   37.2870   27.8340   43.8890 C   0  0  0  0  0  0  0  0  0  0  0  0
   38.3630   27.1200   44.4320 F   0  0  0  0  0  0  0  0  0  0  0  0
   37.5710   29.1570   44.0620 F   0  0  0  0  0  0  0  0  0  0  0  0
   36.1330   27.4900   44.5480 F   0  0  0  0  0  0  0  0  0  0  0  0
   36.9340   29.8300   41.8680 O   0  0  0  0  0  0  0  0  0  0  0  0
   38.6910   31.1890   41.2770 C   0  0  0  0  0  0  0  0  0  0  0  0
   37.3750   30.8370   41.0610 C   0  0  0  0  0  0  0  0  0  0  0  0
   36.6700   31.5150   40.0880 C   0  0  0  0  0  0  0  0  0  0  0  0
   35.6440   31.1720   39.9860 H   0  0  0  0  0  0  0  0  0  0  0  0
   37.1870   32.5200   39.3150 C   0  0  0  0  0  0  0  0  0  0  0  0
   36.5390   32.9910   38.5690 H   0  0  0  0  0  0  0  0  0  0  0  0
   38.5030   32.8710   39.5320 C   0  0  0  0  0  3  0  0  0  0  0  0
   39.2570   32.2130   40.5070 C   0  0  0  0  0  3  0  0  0  0  0  0
   39.4440   30.4320   43.6590 H   0  0  0  0  0  0  0  0  0  0  0  0
   39.8770   30.5380   42.3890 S   0  0  0  0  0  0  0  0  0  0  0  0
   40.3480   29.1810   41.8960 O   0  0  0  0  0  0  0  0  0  0  0  0
   41.1140   31.4120   42.3890 O   0  0  0  0  0  0  0  0  0  0  0  0
  1  2  1  0  0  0  0
  2 26  1  0  0  0  0
  2  3  2  0  0  0  0
  3 22  1  0  0  0  0
  4  3  1  0  0  0  0
  5  4  2  0  0  0  0
  6  1  2  0  0  0  0
  6  5  1  0  0  0  0
  7  1  1  0  0  0  0
  8 17  1  0  0  0  0
  9  5  1  0  0  0  0
  9  8  2  0  0  0  0
 10  9  1  0  0  0  0
 11 10  2  0  0  0  0
 11 15  1  0  0  0  0
 12 11  1  0  0  0  0
 13 12  1  0  0  0  0
 13 14  2  0  0  0  0
 14 15  1  0  0  0  0
 15 16  2  0  0  0  0
 16 21  1  0  0  0  0
 16  8  1  0  0  0  0
 18 10  1  0  0  0  0
 19 12  1  0  0  0  0
 20 13  1  0  0  0  0
 22 24  1  0  0  0  0
 22 23  1  0  0  0  0
 22 25  1  0  0  0  0
 27 36  1  0  0  0  0
 28 27  1  0  0  0  0
 28 26  1  0  0  0  0
 29 28  2  0  0  0  0
 30 29  1  0  0  0  0
 31 33  2  0  0  0  0
 31 29  1  0  0  0  0
 32 31  1  0  0  0  0
 33 34  1  0  0  0  0
 34 27  2  0  0  0  0
 36 38  2  0  0  0  0
 36 35  1  0  0  0  0
 37 36  2  0  0  0  0
M  END
>  <minimizedAffinity>
-6.58849907

$$$$

 OpenBabel03242513063D

 38 41  0  0  0  0  0  0  0  0999 V2000
   37.2730   28.0810   39.4040 C   0  0  0  0  0  0  0  0  0  0  0  0
   37.2010   27.4470   40.6380 C   0  0  0  0  0  0  0  0  0  0  0  0
   37.3920   28.2480   41.7570 C   0  0  0  0  0  0  0  0  0  0  0  0
   37.6320   29.5800   41.5590 N   0  0  0  0  0  0  0  0  0  0  0  0
   37.6930   30.1550   40.3470 C   0  0  0  0  0  0  0  0  0  0  0  0
   37.5110   29.3960   39.2580 N   0  0  0  0  0  0  0  0  0  0  0  0
   37.1350   27.5690   38.4620 H   0  0  0  0  0  0  0  0  0  0  0  0
   37.0140   32.4220   39.6610 C   0  0  0  0  0  0  0  0  0  0  0  0
   37.9520   31.5750   40.2440 C   0  0  0  0  0  0  0  0  0  0  0  0
   39.1650   32.0340   40.7490 C   0  0  0  0  0  0  0  0  0  0  0  0
   39.4640   33.3970   40.6740 C   0  0  0  0  0  0  0  0  0  0  0  0
   40.5240   34.1710   41.0560 N   0  0  0  0  0  0  0  0  0  0  0  0
   40.2060   35.4740   40.6950 C   0  0  0  0  0  0  0  0  0  0  0  0
   38.9710   35.4590   40.1080 N   0  0  0  0  0  0  0  0  0  0  0  0
   38.5080   34.2000   40.0890 C   0  0  0  0  0  0  0  0  0  0  0  0
   37.3110   33.7790   39.5850 C   0  0  0  0  0  0  0  0  0  0  0  0
   36.0930   31.9930   39.2900 H   0  0  0  0  0  0  0  0  0  0  0  0
   39.8900   31.3720   41.2010 H   0  0  0  0  0  0  0  0  0  0  0  0
   41.3220   33.7190   41.5100 H   0  0  0  0  0  0  0  0  0  0  0  0
   40.9240   36.2540   40.9130 H   0  0  0  0  0  0  0  0  0  0  0  0
   36.5960   34.4270   39.1410 H   0  0  0  0  0  0  0  0  0  0  0  0
   37.3340   27.6620   43.1170 C   0  0  0  0  0  0  0  0  0  0  0  0
   37.4330   28.6690   44.0850 F   0  0  0  0  0  0  0  0  0  0  0  0
   36.1420   27.0340   43.3290 F   0  0  0  0  0  0  0  0  0  0  0  0
   38.3820   26.7870   43.2600 F   0  0  0  0  0  0  0  0  0  0  0  0
   36.9590   26.1150   40.7370 O   0  0  0  0  0  0  0  0  0  0  0  0
   37.1680   24.3050   39.3360 C   0  0  0  0  0  0  0  0  0  0  0  0
   37.7850   25.1570   40.2290 C   0  0  0  0  0  0  0  0  0  0  0  0
   39.1230   24.9570   40.5010 C   0  0  0  0  0  0  0  0  0  0  0  0
   39.5260   25.6730   41.2120 H   0  0  0  0  0  0  0  0  0  0  0  0
   39.8870   23.9670   39.9450 C   0  0  0  0  0  0  0  0  0  0  0  0
   40.9420   23.8990   40.2310 H   0  0  0  0  0  0  0  0  0  0  0  0
   39.2690   23.1160   39.0530 C   0  0  0  0  0  3  0  0  0  0  0  0
   37.9160   23.2790   38.7470 C   0  0  0  0  0  3  0  0  0  0  0  0
   34.5940   24.0620   39.6920 H   0  0  0  0  0  0  0  0  0  0  0  0
   35.5210   24.2780   38.7410 S   0  0  0  0  0  0  0  0  0  0  0  0
   35.2170   25.5780   38.0180 O   0  0  0  0  0  0  0  0  0  0  0  0
   35.3740   23.1950   37.6920 O   0  0  0  0  0  0  0  0  0  0  0  0
  1  2  1  0  0  0  0
  2 26  1  0  0  0  0
  2  3  2  0  0  0  0
  3 22  1  0  0  0  0
  4  3  1  0  0  0  0
  5  4  2  0  0  0  0
  6  1  2  0  0  0  0
  6  5  1  0  0  0  0
  7  1  1  0  0  0  0
  8  9  1  0  0  0  0
  9  5  1  0  0  0  0
  9 10  2  0  0  0  0
 10 18  1  0  0  0  0
 11 10  1  0  0  0  0
 11 12  1  0  0  0  0
 12 19  1  0  0  0  0
 13 20  1  0  0  0  0
 13 12  1  0  0  0  0
 14 13  2  0  0  0  0
 15 14  1  0  0  0  0
 15 11  2  0  0  0  0
 16  8  2  0  0  0  0
 16 15  1  0  0  0  0
 17  8  1  0  0  0  0
 21 16  1  0  0  0  0
 22 25  1  0  0  0  0
 22 24  1  0  0  0  0
 22 23  1  0  0  0  0
 27 28  1  0  0  0  0
 28 29  2  0  0  0  0
 28 26  1  0  0  0  0
 29 30  1  0  0  0  0
 31 32  1  0  0  0  0
 31 29  1  0  0  0  0
 33 31  2  0  0  0  0
 34 33  1  0  0  0  0
 34 27  2  0  0  0  0
 36 27  1  0  0  0  0
 36 35  1  0  0  0  0
 37 36  2  0  0  0  0
 38 36  2  0  0  0  0
M  END
>  <minimizedAffinity>
-6.3113203

$$$$

 OpenBabel03242513063D

 38 41  0  0  0  0  0  0  0  0999 V2000
   37.5870   28.2150   40.2090 C   0  0  0  0  0  0  0  0  0  0  0  0
   37.5300   28.5660   41.5520 C   0  0  0  0  0  0  0  0  0  0  0  0
   37.3140   27.5290   42.4530 C   0  0  0  0  0  0  0  0  0  0  0  0
   37.1770   26.2640   41.9540 N   0  0  0  0  0  0  0  0  0  0  0  0
   37.2400   25.9660   40.6460 C   0  0  0  0  0  0  0  0  0  0  0  0
   37.4470   26.9530   39.7640 N   0  0  0  0  0  0  0  0  0  0  0  0
   37.7570   28.9270   39.4140 H   0  0  0  0  0  0  0  0  0  0  0  0
   37.9570   23.6090   40.6730 C   0  0  0  0  0  0  0  0  0  0  0  0
   37.0830   24.5930   40.2190 C   0  0  0  0  0  0  0  0  0  0  0  0
   36.0320   24.3170   39.3490 C   0  0  0  0  0  0  0  0  0  0  0  0
   35.8370   23.0070   38.9070 C   0  0  0  0  0  0  0  0  0  0  0  0
   34.9370   22.3950   38.0790 N   0  0  0  0  0  0  0  0  0  0  0  0
   35.2870   21.0520   38.0470 C   0  0  0  0  0  0  0  0  0  0  0  0
   36.3800   20.8810   38.8500 N   0  0  0  0  0  0  0  0  0  0  0  0
   36.7250   22.0640   39.3800 C   0  0  0  0  0  0  0  0  0  0  0  0
   37.7640   22.3040   40.2330 C   0  0  0  0  0  0  0  0  0  0  0  0
   38.7510   23.8970   41.3480 H   0  0  0  0  0  0  0  0  0  0  0  0
   35.3550   25.0840   39.0000 H   0  0  0  0  0  0  0  0  0  0  0  0
   34.2070   22.9650   37.6440 H   0  0  0  0  0  0  0  0  0  0  0  0
   34.6900   20.3830   37.4390 H   0  0  0  0  0  0  0  0  0  0  0  0
   38.4300   21.5520   40.5780 H   0  0  0  0  0  0  0  0  0  0  0  0
   37.2380   27.8060   43.9070 C   0  0  0  0  0  0  0  0  0  0  0  0
   37.3000   29.1850   44.1430 F   0  0  0  0  0  0  0  0  0  0  0  0
   36.0530   27.3760   44.4270 F   0  0  0  0  0  0  0  0  0  0  0  0
   38.2970   27.1900   44.5240 F   0  0  0  0  0  0  0  0  0  0  0  0
   37.6750   29.8530   41.9550 O   0  0  0  0  0  0  0  0  0  0  0  0
   38.6220   31.6580   40.8920 C   0  0  0  0  0  0  0  0  0  0  0  0
   38.8040   30.5880   41.7430 C   0  0  0  0  0  0  0  0  0  0  0  0
   40.0620   30.3830   42.2710 C   0  0  0  0  0  0  0  0  0  0  0  0
   40.1140   29.5190   42.9290 H   0  0  0  0  0  0  0  0  0  0  0  0
   41.1510   31.1700   42.0090 C   0  0  0  0  0  0  0  0  0  0  0  0
   42.1050   30.9170   42.4830 H   0  0  0  0  0  0  0  0  0  0  0  0
   40.9670   32.2400   41.1580 C   0  0  0  0  0  3  0  0  0  0  0  0
   39.7110   32.4880   40.5990 C   0  0  0  0  0  3  0  0  0  0  0  0
   36.0540   32.1180   40.8000 H   0  0  0  0  0  0  0  0  0  0  0  0
   37.1830   32.2310   40.0750 S   0  0  0  0  0  0  0  0  0  0  0  0
   37.3750   33.6760   39.6530 O   0  0  0  0  0  0  0  0  0  0  0  0
   36.9870   31.4620   38.7850 O   0  0  0  0  0  0  0  0  0  0  0  0
  1  2  1  0  0  0  0
  2 26  1  0  0  0  0
  2  3  2  0  0  0  0
  3 22  1  0  0  0  0
  4  3  1  0  0  0  0
  5  4  2  0  0  0  0
  6  1  2  0  0  0  0
  6  5  1  0  0  0  0
  7  1  1  0  0  0  0
  8 17  1  0  0  0  0
  9  5  1  0  0  0  0
  9  8  2  0  0  0  0
 10  9  1  0  0  0  0
 11 10  2  0  0  0  0
 11 15  1  0  0  0  0
 12 11  1  0  0  0  0
 13 12  1  0  0  0  0
 13 14  2  0  0  0  0
 14 15  1  0  0  0  0
 15 16  2  0  0  0  0
 16 21  1  0  0  0  0
 16  8  1  0  0  0  0
 18 10  1  0  0  0  0
 19 12  1  0  0  0  0
 20 13  1  0  0  0  0
 22 23  1  0  0  0  0
 22 24  1  0  0  0  0
 22 25  1  0  0  0  0
 27 28  1  0  0  0  0
 28 26  1  0  0  0  0
 28 29  2  0  0  0  0
 29 30  1  0  0  0  0
 31 29  1  0  0  0  0
 31 32  1  0  0  0  0
 33 31  2  0  0  0  0
 34 27  2  0  0  0  0
 34 33  1  0  0  0  0
 36 35  1  0  0  0  0
 36 27  1  0  0  0  0
 37 36  2  0  0  0  0
 38 36  2  0  0  0  0
M  END
>  <minimizedAffinity>
-6.26895666

$$$$

 OpenBabel03242513063D

 38 41  0  0  0  0  0  0  0  0999 V2000
   38.0660   27.6720   39.7830 C   0  0  0  0  0  0  0  0  0  0  0  0
   37.6190   27.3910   41.0680 C   0  0  0  0  0  0  0  0  0  0  0  0
   37.9630   28.3060   42.0570 C   0  0  0  0  0  0  0  0  0  0  0  0
   38.7030   29.3960   41.6920 N   0  0  0  0  0  0  0  0  0  0  0  0
   39.1160   29.6320   40.4360 C   0  0  0  0  0  0  0  0  0  0  0  0
   38.7930   28.7600   39.4710 N   0  0  0  0  0  0  0  0  0  0  0  0
   37.8590   27.0430   38.9290 H   0  0  0  0  0  0  0  0  0  0  0  0
   40.4820   31.5390   41.1890 C   0  0  0  0  0  0  0  0  0  0  0  0
   39.8960   30.8170   40.1530 C   0  0  0  0  0  0  0  0  0  0  0  0
   40.0250   31.1860   38.8180 C   0  0  0  0  0  0  0  0  0  0  0  0
   40.7680   32.3220   38.4900 C   0  0  0  0  0  0  0  0  0  0  0  0
   41.0930   32.9550   37.3230 N   0  0  0  0  0  0  0  0  0  0  0  0
   41.8690   34.0510   37.6760 C   0  0  0  0  0  0  0  0  0  0  0  0
   41.9960   34.0560   39.0380 N   0  0  0  0  0  0  0  0  0  0  0  0
   41.3310   33.0080   39.5450 C   0  0  0  0  0  0  0  0  0  0  0  0
   41.2220   32.6710   40.8650 C   0  0  0  0  0  0  0  0  0  0  0  0
   40.3390   31.1940   42.2040 H   0  0  0  0  0  0  0  0  0  0  0  0
   39.5680   30.6210   38.0160 H   0  0  0  0  0  0  0  0  0  0  0  0
   40.7470   32.5660   36.4420 H   0  0  0  0  0  0  0  0  0  0  0  0
   42.2350   34.6950   36.8870 H   0  0  0  0  0  0  0  0  0  0  0  0
   41.6700   33.2240   41.6540 H   0  0  0  0  0  0  0  0  0  0  0  0
   37.5300   28.0910   43.4580 C   0  0  0  0  0  0  0  0  0  0  0  0
   37.5940   29.2930   44.1750 F   0  0  0  0  0  0  0  0  0  0  0  0
   36.2340   27.6740   43.5130 F   0  0  0  0  0  0  0  0  0  0  0  0
   38.3680   27.1700   44.0360 F   0  0  0  0  0  0  0  0  0  0  0  0
   36.8880   26.2800   41.3360 O   0  0  0  0  0  0  0  0  0  0  0  0
   38.2810   24.4780   41.0290 C   0  0  0  0  0  0  0  0  0  0  0  0
   37.0800   25.0810   40.7160 C   0  0  0  0  0  0  0  0  0  0  0  0
   36.2320   24.4310   39.8430 C   0  0  0  0  0  0  0  0  0  0  0  0
   35.3120   24.9770   39.6550 H   0  0  0  0  0  0  0  0  0  0  0  0
   36.4990   23.2220   39.2600 C   0  0  0  0  0  0  0  0  0  0  0  0
   35.7550   22.7940   38.5810 H   0  0  0  0  0  0  0  0  0  0  0  0
   37.7000   22.6200   39.5730 C   0  0  0  0  0  3  0  0  0  0  0  0
   38.5910   23.2400   40.4520 C   0  0  0  0  0  3  0  0  0  0  0  0
   39.3700   26.1960   42.6630 H   0  0  0  0  0  0  0  0  0  0  0  0
   39.5660   24.9880   42.1030 S   0  0  0  0  0  0  0  0  0  0  0  0
   39.7670   23.9480   43.1900 O   0  0  0  0  0  0  0  0  0  0  0  0
   40.8780   25.0320   41.3470 O   0  0  0  0  0  0  0  0  0  0  0  0
  1  2  1  0  0  0  0
  2 26  1  0  0  0  0
  2  3  2  0  0  0  0
  3 22  1  0  0  0  0
  4  3  1  0  0  0  0
  5  4  2  0  0  0  0
  6  1  2  0  0  0  0
  6  5  1  0  0  0  0
  7  1  1  0  0  0  0
  8 17  1  0  0  0  0
  9  5  1  0  0  0  0
  9  8  2  0  0  0  0
 10  9  1  0  0  0  0
 11 10  2  0  0  0  0
 11 15  1  0  0  0  0
 12 13  1  0  0  0  0
 12 11  1  0  0  0  0
 13 14  2  0  0  0  0
 14 15  1  0  0  0  0
 15 16  2  0  0  0  0
 16  8  1  0  0  0  0
 16 21  1  0  0  0  0
 18 10  1  0  0  0  0
 19 12  1  0  0  0  0
 20 13  1  0  0  0  0
 22 24  1  0  0  0  0
 22 25  1  0  0  0  0
 22 23  1  0  0  0  0
 27 36  1  0  0  0  0
 28 27  1  0  0  0  0
 28 26  1  0  0  0  0
 29 28  2  0  0  0  0
 30 29  1  0  0  0  0
 31 33  2  0  0  0  0
 31 29  1  0  0  0  0
 32 31  1  0  0  0  0
 33 34  1  0  0  0  0
 34 27  2  0  0  0  0
 36 35  1  0  0  0  0
 36 37  2  0  0  0  0
 38 36  2  0  0  0  0
M  END
>  <minimizedAffinity>
-6.1089344

$$$$

 OpenBabel03242513063D

 38 41  0  0  0  0  0  0  0  0999 V2000
   39.7600   29.1030   39.1790 C   0  0  0  0  0  0  0  0  0  0  0  0
   38.8390   30.0680   39.5630 C   0  0  0  0  0  0  0  0  0  0  0  0
   39.1920   31.3910   39.3240 C   0  0  0  0  0  0  0  0  0  0  0  0
   40.4020   31.6350   38.7360 N   0  0  0  0  0  0  0  0  0  0  0  0
   41.2660   30.6720   38.3790 C   0  0  0  0  0  0  0  0  0  0  0  0
   40.9410   29.3920   38.6020 N   0  0  0  0  0  0  0  0  0  0  0  0
   39.5990   28.0420   39.3040 H   0  0  0  0  0  0  0  0  0  0  0  0
   43.3210   32.0300   38.3210 C   0  0  0  0  0  0  0  0  0  0  0  0
   42.5230   31.0360   37.7620 C   0  0  0  0  0  0  0  0  0  0  0  0
   42.8810   30.3510   36.6040 C   0  0  0  0  0  0  0  0  0  0  0  0
   44.0850   30.6640   35.9700 C   0  0  0  0  0  0  0  0  0  0  0  0
   44.7310   30.2090   34.8540 N   0  0  0  0  0  0  0  0  0  0  0  0
   45.9090   30.9380   34.7590 C   0  0  0  0  0  0  0  0  0  0  0  0
   45.9490   31.8110   35.8110 N   0  0  0  0  0  0  0  0  0  0  0  0
   44.8450   31.6540   36.5560 C   0  0  0  0  0  0  0  0  0  0  0  0
   44.5210   32.3430   37.6900 C   0  0  0  0  0  0  0  0  0  0  0  0
   42.9780   32.5200   39.2220 H   0  0  0  0  0  0  0  0  0  0  0  0
   42.2580   29.5790   36.1740 H   0  0  0  0  0  0  0  0  0  0  0  0
   44.2920   29.4660   34.3030 H   0  0  0  0  0  0  0  0  0  0  0  0
   46.5750   30.7290   33.9320 H   0  0  0  0  0  0  0  0  0  0  0  0
   45.1310   33.1010   38.1150 H   0  0  0  0  0  0  0  0  0  0  0  0
   38.2720   32.4910   39.7000 C   0  0  0  0  0  0  0  0  0  0  0  0
   37.0640   32.3730   39.0030 F   0  0  0  0  0  0  0  0  0  0  0  0
   37.9620   32.4390   41.0270 F   0  0  0  0  0  0  0  0  0  0  0  0
   38.8680   33.6860   39.3810 F   0  0  0  0  0  0  0  0  0  0  0  0
   37.6590   29.7300   40.1430 O   0  0  0  0  0  0  0  0  0  0  0  0
   37.0540   27.7740   41.1870 C   0  0  0  0  0  0  0  0  0  0  0  0
   37.5630   29.0490   41.3200 C   0  0  0  0  0  0  0  0  0  0  0  0
   37.9100   29.4830   42.5830 C   0  0  0  0  0  0  0  0  0  0  0  0
   38.3010   30.4970   42.5940 H   0  0  0  0  0  0  0  0  0  0  0  0
   37.7830   28.7340   43.7220 C   0  0  0  0  0  0  0  0  0  0  0  0
   38.0900   29.1760   44.6750 H   0  0  0  0  0  0  0  0  0  0  0  0
   37.2740   27.4590   43.5870 C   0  0  0  0  0  3  0  0  0  0  0  0
   36.9090   26.9760   42.3280 C   0  0  0  0  0  3  0  0  0  0  0  0
   35.7200   25.8610   40.0140 H   0  0  0  0  0  0  0  0  0  0  0  0
   36.5450   26.8940   39.7600 S   0  0  0  0  0  0  0  0  0  0  0  0
   35.8830   27.8470   38.7810 O   0  0  0  0  0  0  0  0  0  0  0  0
   37.7580   26.3540   39.0320 O   0  0  0  0  0  0  0  0  0  0  0  0
  1  7  1  0  0  0  0
  1  2  1  0  0  0  0
  2 26  1  0  0  0  0
  3  2  2  0  0  0  0
  3 22  1  0  0  0  0
  4  3  1  0  0  0  0
  5  6  1  0  0  0  0
  5  4  2  0  0  0  0
  6  1  2  0  0  0  0
  8 17  1  0  0  0  0
  9  8  1  0  0  0  0
  9  5  1  0  0  0  0
 10  9  2  0  0  0  0
 11 15  2  0  0  0  0
 11 10  1  0  0  0  0
 12 11  1  0  0  0  0
 13 12  1  0  0  0  0
 13 14  2  0  0  0  0
 14 15  1  0  0  0  0
 15 16  1  0  0  0  0
 16 21  1  0  0  0  0
 16  8  2  0  0  0  0
 18 10  1  0  0  0  0
 19 12  1  0  0  0  0
 20 13  1  0  0  0  0
 22 24  1  0  0  0  0
 23 22  1  0  0  0  0
 25 22  1  0  0  0  0
 26 28  1  0  0  0  0
 27 28  2  0  0  0  0
 27 34  1  0  0  0  0
 28 29  1  0  0  0  0
 29 30  1  0  0  0  0
 29 31  2  0  0  0  0
 31 32  1  0  0  0  0
 33 31  1  0  0  0  0
 34 33  2  0  0  0  0
 36 35  1  0  0  0  0
 36 27  1  0  0  0  0
 37 36  2  0  0  0  0
 38 36  2  0  0  0  0
M  END
>  <minimizedAffinity>
-6.00997639

$$$$

 OpenBabel03242513063D

 38 41  0  0  0  0  0  0  0  0999 V2000
   38.0600   28.0880   38.4090 C   0  0  0  0  0  0  0  0  0  0  0  0
   37.8970   27.2770   39.5250 C   0  0  0  0  0  0  0  0  0  0  0  0
   37.8450   27.9210   40.7560 C   0  0  0  0  0  0  0  0  0  0  0  0
   37.9550   29.2840   40.7710 N   0  0  0  0  0  0  0  0  0  0  0  0
   38.1120   30.0330   39.6680 C   0  0  0  0  0  0  0  0  0  0  0  0
   38.1640   29.4270   38.4730 N   0  0  0  0  0  0  0  0  0  0  0  0
   38.1080   27.7080   37.3990 H   0  0  0  0  0  0  0  0  0  0  0  0
   37.1490   32.2900   39.4410 C   0  0  0  0  0  0  0  0  0  0  0  0
   38.2190   31.4700   39.7910 C   0  0  0  0  0  0  0  0  0  0  0  0
   39.4240   31.9760   40.2680 C   0  0  0  0  0  0  0  0  0  0  0  0
   39.5800   33.3570   40.4050 C   0  0  0  0  0  0  0  0  0  0  0  0
   40.5910   34.1740   40.8290 N   0  0  0  0  0  0  0  0  0  0  0  0
   40.1130   35.4740   40.7260 C   0  0  0  0  0  0  0  0  0  0  0  0
   38.8330   35.4150   40.2470 N   0  0  0  0  0  0  0  0  0  0  0  0
   38.4970   34.1320   40.0480 C   0  0  0  0  0  0  0  0  0  0  0  0
   37.3020   33.6650   39.5770 C   0  0  0  0  0  0  0  0  0  0  0  0
   36.2420   31.8260   39.0770 H   0  0  0  0  0  0  0  0  0  0  0  0
   40.2520   31.3360   40.5390 H   0  0  0  0  0  0  0  0  0  0  0  0
   41.4710   33.7470   41.1310 H   0  0  0  0  0  0  0  0  0  0  0  0
   40.7680   36.2840   41.0170 H   0  0  0  0  0  0  0  0  0  0  0  0
   36.4870   34.2920   39.3110 H   0  0  0  0  0  0  0  0  0  0  0  0
   37.6720   27.1400   42.0030 C   0  0  0  0  0  0  0  0  0  0  0  0
   37.4770   27.9990   43.0910 F   0  0  0  0  0  0  0  0  0  0  0  0
   36.5680   26.3430   41.9340 F   0  0  0  0  0  0  0  0  0  0  0  0
   38.8060   26.3930   42.2090 F   0  0  0  0  0  0  0  0  0  0  0  0
   37.7980   25.9280   39.4120 O   0  0  0  0  0  0  0  0  0  0  0  0
   36.6290   23.9560   39.2480 C   0  0  0  0  0  0  0  0  0  0  0  0
   36.7030   25.2910   38.9080 C   0  0  0  0  0  0  0  0  0  0  0  0
   35.6980   25.8200   38.1250 C   0  0  0  0  0  0  0  0  0  0  0  0
   35.8370   26.8760   37.9070 H   0  0  0  0  0  0  0  0  0  0  0  0
   34.6250   25.1110   37.6560 C   0  0  0  0  0  0  0  0  0  0  0  0
   33.8830   25.6300   37.0420 H   0  0  0  0  0  0  0  0  0  0  0  0
   34.5520   23.7760   37.9970 C   0  0  0  0  0  3  0  0  0  0  0  0
   35.5470   23.1960   38.7890 C   0  0  0  0  0  3  0  0  0  0  0  0
   37.3190   21.6800   40.3230 H   0  0  0  0  0  0  0  0  0  0  0  0
   37.6890   22.9720   40.2350 S   0  0  0  0  0  0  0  0  0  0  0  0
   39.1090   23.0600   39.7050 O   0  0  0  0  0  0  0  0  0  0  0  0
   37.7530   23.5360   41.6390 O   0  0  0  0  0  0  0  0  0  0  0  0
  1  6  2  0  0  0  0
  1  2  1  0  0  0  0
  2  3  2  0  0  0  0
  3  4  1  0  0  0  0
  3 22  1  0  0  0  0
  5  9  1  0  0  0  0
  5  4  2  0  0  0  0
  6  5  1  0  0  0  0
  7  1  1  0  0  0  0
  8 16  2  0  0  0  0
  8  9  1  0  0  0  0
  9 10  2  0  0  0  0
 10 11  1  0  0  0  0
 10 18  1  0  0  0  0
 11 12  1  0  0  0  0
 12 19  1  0  0  0  0
 13 12  1  0  0  0  0
 13 20  1  0  0  0  0
 14 13  2  0  0  0  0
 15 14  1  0  0  0  0
 15 11  2  0  0  0  0
 16 15  1  0  0  0  0
 17  8  1  0  0  0  0
 21 16  1  0  0  0  0
 22 25  1  0  0  0  0
 22 23  1  0  0  0  0
 24 22  1  0  0  0  0
 26  2  1  0  0  0  0
 27 36  1  0  0  0  0
 28 27  1  0  0  0  0
 28 26  1  0  0  0  0
 29 28  2  0  0  0  0
 30 29  1  0  0  0  0
 31 33  2  0  0  0  0
 31 29  1  0  0  0  0
 32 31  1  0  0  0  0
 33 34  1  0  0  0  0
 34 27  2  0  0  0  0
 36 35  1  0  0  0  0
 36 38  2  0  0  0  0
 37 36  2  0  0  0  0
M  END
>  <minimizedAffinity>
-5.98067284

$$$$

 OpenBabel03242513063D

 38 41  0  0  0  0  0  0  0  0999 V2000
   37.8830   28.1260   39.5510 C   0  0  0  0  0  0  0  0  0  0  0  0
   37.4010   27.6160   40.7490 C   0  0  0  0  0  0  0  0  0  0  0  0
   37.7340   28.3210   41.9000 C   0  0  0  0  0  0  0  0  0  0  0  0
   38.5000   29.4460   41.7640 N   0  0  0  0  0  0  0  0  0  0  0  0
   38.9460   29.9070   40.5840 C   0  0  0  0  0  0  0  0  0  0  0  0
   38.6340   29.2390   39.4650 N   0  0  0  0  0  0  0  0  0  0  0  0
   37.6870   27.6740   38.5890 H   0  0  0  0  0  0  0  0  0  0  0  0
   41.0900   31.0730   40.9260 C   0  0  0  0  0  0  0  0  0  0  0  0
   39.7510   31.1090   40.5470 C   0  0  0  0  0  0  0  0  0  0  0  0
   39.1250   32.2760   40.1210 C   0  0  0  0  0  0  0  0  0  0  0  0
   39.8570   33.4640   40.0660 C   0  0  0  0  0  0  0  0  0  0  0  0
   39.5740   34.7530   39.7080 N   0  0  0  0  0  0  0  0  0  0  0  0
   40.7490   35.4730   39.8790 C   0  0  0  0  0  0  0  0  0  0  0  0
   41.7090   34.6110   40.3320 N   0  0  0  0  0  0  0  0  0  0  0  0
   41.1790   33.3850   40.4500 C   0  0  0  0  0  0  0  0  0  0  0  0
   41.8210   32.2550   40.8730 C   0  0  0  0  0  0  0  0  0  0  0  0
   41.5090   30.1290   41.2470 H   0  0  0  0  0  0  0  0  0  0  0  0
   38.0840   32.2990   39.8270 H   0  0  0  0  0  0  0  0  0  0  0  0
   38.6260   34.9770   39.3960 H   0  0  0  0  0  0  0  0  0  0  0  0
   40.7400   36.5300   39.6470 H   0  0  0  0  0  0  0  0  0  0  0  0
   42.8430   32.2300   41.1610 H   0  0  0  0  0  0  0  0  0  0  0  0
   37.2660   27.8540   43.2260 C   0  0  0  0  0  0  0  0  0  0  0  0
   37.3730   28.8840   44.1690 F   0  0  0  0  0  0  0  0  0  0  0  0
   35.9500   27.5010   43.1840 F   0  0  0  0  0  0  0  0  0  0  0  0
   38.0470   26.7950   43.6170 F   0  0  0  0  0  0  0  0  0  0  0  0
   36.6470   26.4890   40.7870 O   0  0  0  0  0  0  0  0  0  0  0  0
   36.6890   24.6800   39.3700 C   0  0  0  0  0  0  0  0  0  0  0  0
   37.1410   25.2410   40.5470 C   0  0  0  0  0  0  0  0  0  0  0  0
   38.0130   24.5080   41.3250 C   0  0  0  0  0  0  0  0  0  0  0  0
   38.3160   25.0270   42.2310 H   0  0  0  0  0  0  0  0  0  0  0  0
   38.4650   23.2550   41.0130 C   0  0  0  0  0  0  0  0  0  0  0  0
   39.1580   22.7620   41.7020 H   0  0  0  0  0  0  0  0  0  0  0  0
   38.0130   22.6950   39.8360 C   0  0  0  0  0  3  0  0  0  0  0  0
   37.1280   23.3990   39.0150 C   0  0  0  0  0  3  0  0  0  0  0  0
   34.6580   26.1350   38.6150 H   0  0  0  0  0  0  0  0  0  0  0  0
   35.6190   25.3190   38.1410 S   0  0  0  0  0  0  0  0  0  0  0  0
   36.4310   26.0480   37.0850 O   0  0  0  0  0  0  0  0  0  0  0  0
   34.9430   24.1800   37.4070 O   0  0  0  0  0  0  0  0  0  0  0  0
  1  2  1  0  0  0  0
  2 26  1  0  0  0  0
  2  3  2  0  0  0  0
  3 22  1  0  0  0  0
  4  3  1  0  0  0  0
  5  4  2  0  0  0  0
  6  1  2  0  0  0  0
  6  5  1  0  0  0  0
  7  1  1  0  0  0  0
  8 17  1  0  0  0  0
  9  5  1  0  0  0  0
  9  8  2  0  0  0  0
 10  9  1  0  0  0  0
 11 10  2  0  0  0  0
 11 15  1  0  0  0  0
 12 13  1  0  0  0  0
 12 11  1  0  0  0  0
 13 14  2  0  0  0  0
 14 15  1  0  0  0  0
 15 16  2  0  0  0  0
 16  8  1  0  0  0  0
 16 21  1  0  0  0  0
 18 10  1  0  0  0  0
 19 12  1  0  0  0  0
 20 13  1  0  0  0  0
 22 25  1  0  0  0  0
 22 23  1  0  0  0  0
 24 22  1  0  0  0  0
 27 28  1  0  0  0  0
 28 26  1  0  0  0  0
 28 29  2  0  0  0  0
 29 30  1  0  0  0  0
 31 29  1  0  0  0  0
 31 32  1  0  0  0  0
 33 31  2  0  0  0  0
 34 27  2  0  0  0  0
 34 33  1  0  0  0  0
 36 35  1  0  0  0  0
 36 27  1  0  0  0  0
 37 36  2  0  0  0  0
 38 36  2  0  0  0  0
M  END
>  <minimizedAffinity>
-5.83915997

$$$$

 OpenBabel03242513063D

 38 41  0  0  0  0  0  0  0  0999 V2000
   39.7930   29.2870   40.6020 C   0  0  0  0  0  0  0  0  0  0  0  0
   38.5170   29.6620   40.2010 C   0  0  0  0  0  0  0  0  0  0  0  0
   38.4400   30.6560   39.2330 C   0  0  0  0  0  0  0  0  0  0  0  0
   39.6110   31.1800   38.7580 N   0  0  0  0  0  0  0  0  0  0  0  0
   40.8260   30.7880   39.1720 C   0  0  0  0  0  0  0  0  0  0  0  0
   40.9180   29.8300   40.1050 N   0  0  0  0  0  0  0  0  0  0  0  0
   39.9840   28.5210   41.3410 H   0  0  0  0  0  0  0  0  0  0  0  0
   42.4420   31.0540   37.3310 C   0  0  0  0  0  0  0  0  0  0  0  0
   42.0060   31.4060   38.6060 C   0  0  0  0  0  0  0  0  0  0  0  0
   42.6650   32.3480   39.3890 C   0  0  0  0  0  0  0  0  0  0  0  0
   43.8090   32.9740   38.8890 C   0  0  0  0  0  0  0  0  0  0  0  0
   44.6770   33.9160   39.3670 N   0  0  0  0  0  0  0  0  0  0  0  0
   45.6240   34.1150   38.3710 C   0  0  0  0  0  0  0  0  0  0  0  0
   45.3100   33.2970   37.3210 N   0  0  0  0  0  0  0  0  0  0  0  0
   44.2060   32.5980   37.6240 C   0  0  0  0  0  0  0  0  0  0  0  0
   43.5820   31.6760   36.8320 C   0  0  0  0  0  0  0  0  0  0  0  0
   41.8800   30.3130   36.7800 H   0  0  0  0  0  0  0  0  0  0  0  0
   42.3220   32.6180   40.3780 H   0  0  0  0  0  0  0  0  0  0  0  0
   44.5170   34.3000   40.3020 H   0  0  0  0  0  0  0  0  0  0  0  0
   46.4130   34.8340   38.5520 H   0  0  0  0  0  0  0  0  0  0  0  0
   43.9160   31.4100   35.8590 H   0  0  0  0  0  0  0  0  0  0  0  0
   37.1230   31.1230   38.7420 C   0  0  0  0  0  0  0  0  0  0  0  0
   37.2910   32.0940   37.7470 F   0  0  0  0  0  0  0  0  0  0  0  0
   36.4210   30.1010   38.1730 F   0  0  0  0  0  0  0  0  0  0  0  0
   36.4310   31.6660   39.7960 F   0  0  0  0  0  0  0  0  0  0  0  0
   37.4090   29.0850   40.7320 O   0  0  0  0  0  0  0  0  0  0  0  0
   37.3760   27.1430   41.9600 C   0  0  0  0  0  0  0  0  0  0  0  0
   37.1830   27.7400   40.7310 C   0  0  0  0  0  0  0  0  0  0  0  0
   36.7960   26.9440   39.6730 C   0  0  0  0  0  0  0  0  0  0  0  0
   36.6680   27.4980   38.7470 H   0  0  0  0  0  0  0  0  0  0  0  0
   36.5880   25.5940   39.7540 C   0  0  0  0  0  0  0  0  0  0  0  0
   36.2810   25.0570   38.8510 H   0  0  0  0  0  0  0  0  0  0  0  0
   36.7810   24.9970   40.9830 C   0  0  0  0  0  3  0  0  0  0  0  0
   37.1740   25.7630   42.0840 C   0  0  0  0  0  3  0  0  0  0  0  0
   38.2560   29.1080   43.4340 H   0  0  0  0  0  0  0  0  0  0  0  0
   37.8300   27.8330   43.5040 S   0  0  0  0  0  0  0  0  0  0  0  0
   36.6640   27.7370   44.4700 O   0  0  0  0  0  0  0  0  0  0  0  0
   38.9350   27.0060   44.1290 O   0  0  0  0  0  0  0  0  0  0  0  0
  1  7  1  0  0  0  0
  2  1  1  0  0  0  0
  2 26  1  0  0  0  0
  3  2  2  0  0  0  0
  4  5  2  0  0  0  0
  4  3  1  0  0  0  0
  5  6  1  0  0  0  0
  6  1  2  0  0  0  0
  8  9  1  0  0  0  0
  9  5  1  0  0  0  0
  9 10  2  0  0  0  0
 10 18  1  0  0  0  0
 11 12  1  0  0  0  0
 11 10  1  0  0  0  0
 12 19  1  0  0  0  0
 13 20  1  0  0  0  0
 13 12  1  0  0  0  0
 14 15  1  0  0  0  0
 14 13  2  0  0  0  0
 15 11  2  0  0  0  0
 16  8  2  0  0  0  0
 16 15  1  0  0  0  0
 17  8  1  0  0  0  0
 21 16  1  0  0  0  0
 22  3  1  0  0  0  0
 22 25  1  0  0  0  0
 23 22  1  0  0  0  0
 24 22  1  0  0  0  0
 27 34  1  0  0  0  0
 27 36  1  0  0  0  0
 28 26  1  0  0  0  0
 28 27  2  0  0  0  0
 29 31  2  0  0  0  0
 29 28  1  0  0  0  0
 30 29  1  0  0  0  0
 31 33  1  0  0  0  0
 32 31  1  0  0  0  0
 33 34  2  0  0  0  0
 35 36  1  0  0  0  0
 36 38  2  0  0  0  0
 36 37  2  0  0  0  0
M  END
>  <minimizedAffinity>
-5.80083513

$$$$
