
     RDKit          3D

 38 40  0  0  0  0  0  0  0  0999 V2000
   44.4999   35.7472   44.9872 C   0  0  0  0  0  0  0  0  0  0  0  0
   45.1346   35.7078   43.7348 C   0  0  0  0  0  0  0  0  0  0  0  0
   46.0179   34.7052   43.4828 C   0  0  0  0  0  0  0  0  0  0  0  0
   46.2231   33.8081   44.4698 N   0  0  0  0  0  0  0  0  0  0  0  0
   45.6226   33.8447   45.6563 C   0  0  0  0  0  0  0  0  0  0  0  0
   44.7432   34.8147   45.9509 N   0  0  0  0  0  0  0  0  0  0  0  0
   45.9318   32.8382   46.6082 N   0  0  0  0  0  0  0  0  0  0  0  0
   45.1470   32.5582   47.8069 C   0  0  0  0  0  0  0  0  0  0  0  0
   46.2514   32.2420   48.8099 C   0  0  0  0  0  0  0  0  0  0  0  0
   47.5280   32.0734   48.0309 C   0  0  0  0  0  0  0  0  0  0  0  0
   47.0390   31.9072   46.6100 C   0  0  1  0  0  0  0  0  0  0  0  0
   44.7522   36.7749   42.8619 N   0  0  0  0  0  0  0  0  0  0  0  0
   46.4913   30.2025   46.4013 S   0  0  0  0  0  0  0  0  0  0  0  0
   43.7784   36.5196   45.2648 H   0  0  0  0  0  0  0  0  0  0  0  0
   46.4763   34.7074   42.5291 H   0  0  0  0  0  0  0  0  0  0  0  0
   44.4518   31.7160   47.6648 H   0  0  0  0  0  0  0  0  0  0  0  0
   44.6266   33.4514   48.1842 H   0  0  0  0  0  0  0  0  0  0  0  0
   45.9845   31.2803   49.2879 H   0  0  0  0  0  0  0  0  0  0  0  0
   46.3068   32.9883   49.6167 H   0  0  0  0  0  0  0  0  0  0  0  0
   48.1143   31.1843   48.3736 H   0  0  0  0  0  0  0  0  0  0  0  0
   48.1017   33.0147   48.1306 H   0  0  0  0  0  0  0  0  0  0  0  0
   47.8590   32.2118   45.9510 H   0  0  0  0  0  0  0  0  0  0  0  0
   43.8093   37.0277   42.5310 H   0  0  0  0  0  0  0  0  0  0  0  0
   45.6823   37.2262   42.6517 H   0  0  0  0  0  0  0  0  0  0  0  0
   48.6786   29.0255   44.5881 H   0  0  0  0  0  0  0  0  0  0  0  0
   48.1831   29.9275   43.6896 S   0  0  0  0  0  0  0  0  0  0  0  0
   48.7782   29.5633   42.3383 O   0  0  0  0  0  0  0  0  0  0  0  0
   48.6409   31.3243   43.9641 O   0  0  0  0  0  0  0  0  0  0  0  0
   46.4452   29.7857   43.5955 C   0  0  0  0  0  0  0  0  0  0  0  0
   45.7786   29.9133   44.7929 C   0  0  0  0  0  0  0  0  0  0  0  0
   44.3846   29.8140   44.8169 C   0  0  0  0  0  0  0  0  0  0  0  0
   43.7747   29.9019   45.7159 H   0  0  0  0  0  0  0  0  0  0  0  0
   43.6987   29.5890   43.6372 C   0  0  0  0  0  0  0  0  0  0  0  0
   42.6206   29.5094   43.6383 H   0  0  0  0  0  0  0  0  0  0  0  0
   44.3528   29.4597   42.4352 C   0  0  0  0  0  0  0  0  0  0  0  0
   45.7288   29.5615   42.4356 C   0  0  0  0  0  0  0  0  0  0  0  0
   43.8309   29.2821   41.4967 H   0  0  0  0  0  0  0  0  0  0  0  0
   46.3098   29.4679   41.5084 H   0  0  0  0  0  0  0  0  0  0  0  0
  1  6  2  0
  2  1  1  0
  3  2  2  0
  3  4  1  0
  4  5  2  0
  5  6  1  0
  5  7  1  0
  7 11  1  0
  7  8  1  0
  8  9  1  0
 10  9  1  0
 11 10  1  0
 12  2  1  0
 13 11  1  0
  1 14  1  0
  3 15  1  0
  8 16  1  0
  8 17  1  0
  9 18  1  0
  9 19  1  0
 10 20  1  0
 10 21  1  0
 11 22  1  6
 12 23  1  0
 12 24  1  0
 25 26  1  0
 26 27  2  0
 26 28  2  0
 26 29  1  0
 29 30  2  0
 30 31  1  0
 31 32  1  0
 31 33  2  0
 33 34  1  0
 33 35  1  0
 35 36  2  0
 36 29  1  0
 35 37  1  0
 36 38  1  0
 13 30  1  0
M  ISO  8  14  14  15  14  16  13  17  13  18  13  19  13  20  13  21  13
M  ISO  4  22  13  25  12  32  15  34  16
M  END
>  <DihAtoms>  (1) 
10,12,29,28

>  <DihDeg>  (1) 
90.13711653863395

$$$$
