
     RDKit          3D

 26 27  0  0  0  0  0  0  0  0999 V2000
   47.6768   34.9551   42.3450 C   0  0  0  0  0  0  0  0  0  0  0  0
   47.9144   33.9169   43.2521 C   0  0  0  0  0  0  0  0  0  0  0  0
   46.9095   33.5313   44.1344 C   0  0  0  0  0  0  0  0  0  0  0  0
   45.7385   34.2006   44.0574 N   0  0  0  0  0  0  0  0  0  0  0  0
   45.5099   35.2084   43.1758 C   0  0  0  0  0  0  0  0  0  0  0  0
   46.4798   35.5827   42.3223 N   0  0  0  0  0  0  0  0  0  0  0  0
   48.7871   35.3260   41.4257 C   0  0  0  0  0  0  0  0  0  0  0  0
   48.4150   35.2479   40.1071 F   0  0  0  0  0  0  0  0  0  0  0  0
   49.2185   36.6107   41.7711 F   0  0  0  0  0  0  0  0  0  0  0  0
   49.8824   34.5051   41.6670 F   0  0  0  0  0  0  0  0  0  0  0  0
   48.8674   33.4363   43.2515 H   0  0  0  0  0  0  0  0  0  0  0  0
   44.5678   35.7332   43.1274 H   0  0  0  0  0  0  0  0  0  0  0  0
   44.9900   31.3963   42.8334 H   0  0  0  0  0  0  0  0  0  0  0  0
   46.1457   30.7408   43.1501 S   0  0  0  0  0  0  0  0  0  0  0  0
   45.7642   29.2673   43.2023 O   0  0  0  0  0  0  0  0  0  0  0  0
   47.1967   30.8505   42.0724 O   0  0  0  0  0  0  0  0  0  0  0  0
   46.7653   31.1593   44.7264 C   0  0  0  0  0  0  0  0  0  0  0  0
   47.0918   32.4589   45.1030 C   0  0  0  0  0  0  0  0  0  0  0  0
   47.5758   32.6927   46.3744 C   0  0  0  0  0  0  0  0  0  0  0  0
   47.8428   33.6658   46.7198 H   0  0  0  0  0  0  0  0  0  0  0  0
   47.7566   31.6849   47.3102 C   0  0  0  0  0  0  0  0  0  0  0  0
   48.1409   31.8844   48.3136 H   0  0  0  0  0  0  0  0  0  0  0  0
   47.4456   30.3858   46.9774 C   0  0  0  0  0  0  0  0  0  0  0  0
   46.9654   30.1812   45.7046 C   0  0  0  0  0  0  0  0  0  0  0  0
   47.5554   29.5402   47.6442 H   0  0  0  0  0  0  0  0  0  0  0  0
   46.7149   29.1518   45.4291 H   0  0  0  0  0  0  0  0  0  0  0  0
  1  2  2  0
  2  3  1  0
  4  3  2  0
  5  4  1  0
  6  1  1  0
  6  5  2  0
  7 10  1  0
  7  9  1  0
  7  1  1  0
  8  7  1  0
  2 11  1  0
  5 12  1  0
 13 14  1  0
 14 15  2  0
 14 16  2  0
 14 17  1  0
 17 18  2  0
 18 19  1  0
 19 20  1  0
 19 21  2  0
 21 22  1  0
 21 23  1  0
 23 24  2  0
 24 17  1  0
 23 25  1  0
 24 26  1  0
  3 18  1  0
M  ISO  5  11  14  12  14  13  12  20  15  22  16
M  END
>  <DihAtoms>  (1) 
1,2,17,16

>  <DihDeg>  (1) 
179.95139450992335

$$$$
