
 OpenBabel03252509103D

 44 47  0  0  0  0  0  0  0  0999 V2000
   36.1240   27.5720   39.0930 C   0  0  0  0  0  0  0  0  0  0  0  0
   35.8040   28.4080   40.1210 C   0  0  0  0  0  0  0  0  0  0  0  0
   34.6610   29.1860   40.0410 C   0  0  0  0  0  0  0  0  0  0  0  0
   33.8460   29.1290   38.9420 C   0  0  0  0  0  0  0  0  0  0  0  0
   34.1340   28.2930   37.8710 C   0  0  0  0  0  0  0  0  0  0  0  0
   35.2900   27.5160   37.9690 C   0  0  0  0  0  0  0  0  0  0  0  0
   34.3810   29.8530   40.8320 H   0  0  0  0  0  0  0  0  0  0  0  0
   32.9610   29.7020   38.8280 H   0  0  0  0  0  0  0  0  0  0  0  0
   33.5670   28.1760   36.9750 H   0  0  0  0  0  0  0  0  0  0  0  0
   35.5530   26.8380   37.1430 H   0  0  0  0  0  0  0  0  0  0  0  0
   39.5040   30.8350   42.7840 Cl  0  0  0  0  0  0  0  0  0  0  0  0
   38.2780   29.6090   42.5710 C   0  0  0  0  0  0  0  0  0  0  0  0
   37.5540   29.5390   41.4230 C   0  0  0  0  0  0  0  0  0  0  0  0
   36.5910   28.5430   41.3420 C   0  0  0  0  0  0  0  0  0  0  0  0
   36.3790   27.6810   42.3670 C   0  0  0  0  0  0  0  0  0  0  0  0
   37.0980   27.7460   43.5130 C   0  0  0  0  0  0  0  0  0  0  0  0
   38.0610   28.7290   43.6050 C   0  0  0  0  0  0  0  0  0  0  0  0
   35.6240   26.9240   42.2820 H   0  0  0  0  0  0  0  0  0  0  0  0
   36.9070   27.0420   44.3110 H   0  0  0  0  0  0  0  0  0  0  0  0
   38.6340   28.7720   44.5300 H   0  0  0  0  0  0  0  0  0  0  0  0
   37.3350   32.6060   39.2110 C   0  0  0  0  0  0  0  0  0  0  0  0
   37.0890   31.6870   40.2370 C   0  0  0  0  0  0  0  0  0  0  0  0
   37.8030   30.5030   40.3550 C   0  0  0  0  0  0  0  0  0  0  0  0
   38.7350   30.3200   39.4150 N   0  0  0  0  0  0  0  0  0  0  0  0
   38.9780   31.1920   38.4280 C   0  0  0  0  0  0  0  0  0  0  0  0
   38.2850   32.3250   38.3270 N   0  0  0  0  0  0  0  0  0  0  0  0
   36.7520   33.4960   39.1740 H   0  0  0  0  0  0  0  0  0  0  0  0
   36.3120   31.9030   40.9710 H   0  0  0  0  0  0  0  0  0  0  0  0
   39.7790   30.8310   37.7850 H   0  0  0  0  0  0  0  0  0  0  0  0
   37.5430   26.6520   39.0950 S   0  0  0  0  0  0  0  0  0  0  0  0
   37.2970   25.4020   38.1830 O   0  0  0  0  0  0  0  0  0  0  0  0
   38.5860   27.4270   38.3410 O   0  0  0  0  0  0  0  0  0  0  0  0
   39.4410   26.0050   41.0280 C   0  0  0  0  0  0  0  0  0  0  0  0
   38.1650   25.7930   40.4500 C   0  0  0  0  0  0  0  0  0  0  0  0
   37.5050   24.7950   41.1550 C   0  0  0  0  0  0  0  0  0  0  0  0
   36.5030   24.5340   40.8400 H   0  0  0  0  0  0  0  0  0  0  0  0
   37.9620   24.0870   42.2430 C   0  0  0  0  0  0  0  0  0  0  0  0
   37.3640   23.3260   42.7180 H   0  0  0  0  0  0  0  0  0  0  0  0
   39.2080   24.3980   42.6860 C   0  0  0  0  0  3  0  0  0  0  0  0
   39.9940   25.3570   42.1080 C   0  0  0  0  0  3  0  0  0  0  0  0
   39.7440   28.0770   39.4700 H   0  0  0  0  0  0  0  0  0  0  0  0
   40.4360   27.2980   40.3260 S   0  0  0  0  0  0  0  0  0  0  0  0
   41.5670   26.6800   39.5170 O   0  0  0  0  0  0  0  0  0  0  0  0
   41.0830   28.0070   41.4580 O   0  0  0  0  0  0  0  0  0  0  0  0
  1 30  1  0  0  0  0
  1  2  1  0  0  0  0
  2 14  1  0  0  0  0
  3  2  2  0  0  0  0
  3  7  1  0  0  0  0
  4  3  1  0  0  0  0
  5  6  1  0  0  0  0
  5  4  2  0  0  0  0
  6  1  2  0  0  0  0
  8  4  1  0  0  0  0
  9  5  1  0  0  0  0
 10  6  1  0  0  0  0
 12 11  1  0  0  0  0
 12 17  1  0  0  0  0
 13 12  2  0  0  0  0
 14 13  1  0  0  0  0
 14 15  2  0  0  0  0
 15 16  1  0  0  0  0
 16 17  2  0  0  0  0
 16 19  1  0  0  0  0
 17 20  1  0  0  0  0
 18 15  1  0  0  0  0
 21 22  1  0  0  0  0
 22 23  2  0  0  0  0
 22 28  1  0  0  0  0
 23 13  1  0  0  0  0
 24 23  1  0  0  0  0
 25 24  2  0  0  0  0
 26 25  1  0  0  0  0
 26 21  2  0  0  0  0
 27 21  1  0  0  0  0
 29 25  1  0  0  0  0
 30 34  1  0  0  0  0
 31 30  2  0  0  0  0
 32 30  2  0  0  0  0
 33 40  1  0  0  0  0
 34 33  2  0  0  0  0
 34 35  1  0  0  0  0
 35 37  2  0  0  0  0
 36 35  1  0  0  0  0
 37 39  1  0  0  0  0
 37 38  1  0  0  0  0
 40 39  2  0  0  0  0
 41 42  1  0  0  0  0
 42 33  1  0  0  0  0
 42 44  2  0  0  0  0
 43 42  2  0  0  0  0
M  END
>  <minimizedAffinity>
-6.80825853

$$$$

 OpenBabel03252509103D

 44 47  0  0  0  0  0  0  0  0999 V2000
   36.4180   27.7350   38.9410 C   0  0  0  0  0  0  0  0  0  0  0  0
   35.9830   28.4030   40.0470 C   0  0  0  0  0  0  0  0  0  0  0  0
   34.7570   29.0470   40.0200 C   0  0  0  0  0  0  0  0  0  0  0  0
   33.9740   29.0250   38.8970 C   0  0  0  0  0  0  0  0  0  0  0  0
   34.3780   28.3570   37.7470 C   0  0  0  0  0  0  0  0  0  0  0  0
   35.6160   27.7130   37.7930 C   0  0  0  0  0  0  0  0  0  0  0  0
   34.3860   29.5800   40.8720 H   0  0  0  0  0  0  0  0  0  0  0  0
   33.0290   29.5000   38.8210 H   0  0  0  0  0  0  0  0  0  0  0  0
   33.8450   28.2810   36.8270 H   0  0  0  0  0  0  0  0  0  0  0  0
   35.9730   27.1710   36.9040 H   0  0  0  0  0  0  0  0  0  0  0  0
   39.4920   30.7920   42.9890 Cl  0  0  0  0  0  0  0  0  0  0  0  0
   38.3280   29.5330   42.6520 C   0  0  0  0  0  0  0  0  0  0  0  0
   37.6420   29.5130   41.4800 C   0  0  0  0  0  0  0  0  0  0  0  0
   36.7260   28.4860   41.2990 C   0  0  0  0  0  0  0  0  0  0  0  0
   36.5230   27.5460   42.2560 C   0  0  0  0  0  0  0  0  0  0  0  0
   37.2040   27.5620   43.4260 C   0  0  0  0  0  0  0  0  0  0  0  0
   38.1190   28.5750   43.6170 C   0  0  0  0  0  0  0  0  0  0  0  0
   35.8040   26.7660   42.0950 H   0  0  0  0  0  0  0  0  0  0  0  0
   37.0200   26.7970   44.1680 H   0  0  0  0  0  0  0  0  0  0  0  0
   38.6620   28.5780   44.5610 H   0  0  0  0  0  0  0  0  0  0  0  0
   37.2980   32.6710   39.4180 C   0  0  0  0  0  0  0  0  0  0  0  0
   37.0620   31.6740   40.3690 C   0  0  0  0  0  0  0  0  0  0  0  0
   37.8790   30.5590   40.4890 C   0  0  0  0  0  0  0  0  0  0  0  0
   38.8990   30.5230   39.6260 N   0  0  0  0  0  0  0  0  0  0  0  0
   39.1340   31.4720   38.7110 C   0  0  0  0  0  0  0  0  0  0  0  0
   38.3410   32.5360   38.6080 N   0  0  0  0  0  0  0  0  0  0  0  0
   36.6330   33.5030   39.3750 H   0  0  0  0  0  0  0  0  0  0  0  0
   36.2090   31.7700   41.0420 H   0  0  0  0  0  0  0  0  0  0  0  0
   40.0180   31.2280   38.1220 H   0  0  0  0  0  0  0  0  0  0  0  0
   37.9360   26.9920   38.8830 S   0  0  0  0  0  0  0  0  0  0  0  0
   37.8360   25.7920   37.8810 O   0  0  0  0  0  0  0  0  0  0  0  0
   38.8770   27.9380   38.1940 O   0  0  0  0  0  0  0  0  0  0  0  0
   38.1680   24.8980   40.7040 C   0  0  0  0  0  0  0  0  0  0  0  0
   38.6600   26.1160   40.1750 C   0  0  0  0  0  0  0  0  0  0  0  0
   39.8140   26.4770   40.8580 C   0  0  0  0  0  0  0  0  0  0  0  0
   40.3190   27.3830   40.5500 H   0  0  0  0  0  0  0  0  0  0  0  0
   40.4280   25.8060   41.8910 C   0  0  0  0  0  0  0  0  0  0  0  0
   41.3270   26.1780   42.3560 H   0  0  0  0  0  0  0  0  0  0  0  0
   39.8390   24.6510   42.2950 C   0  0  0  0  0  3  0  0  0  0  0  0
   38.6990   24.1490   41.7290 C   0  0  0  0  0  3  0  0  0  0  0  0
   36.1250   25.0740   39.0900 H   0  0  0  0  0  0  0  0  0  0  0  0
   36.7290   24.2060   39.9260 S   0  0  0  0  0  0  0  0  0  0  0  0
   35.6990   23.8580   40.9910 O   0  0  0  0  0  0  0  0  0  0  0  0
   37.1430   22.9160   39.3210 O   0  0  0  0  0  0  0  0  0  0  0  0
  1  2  1  0  0  0  0
  2 14  1  0  0  0  0
  3  2  2  0  0  0  0
  3  7  1  0  0  0  0
  4  3  1  0  0  0  0
  5  6  1  0  0  0  0
  5  4  2  0  0  0  0
  6  1  2  0  0  0  0
  8  4  1  0  0  0  0
  9  5  1  0  0  0  0
 10  6  1  0  0  0  0
 12 11  1  0  0  0  0
 12 17  1  0  0  0  0
 13 12  2  0  0  0  0
 14 13  1  0  0  0  0
 14 15  2  0  0  0  0
 15 16  1  0  0  0  0
 16 17  2  0  0  0  0
 16 19  1  0  0  0  0
 17 20  1  0  0  0  0
 18 15  1  0  0  0  0
 21 22  1  0  0  0  0
 22 23  2  0  0  0  0
 22 28  1  0  0  0  0
 23 13  1  0  0  0  0
 24 23  1  0  0  0  0
 25 24  2  0  0  0  0
 26 25  1  0  0  0  0
 26 21  2  0  0  0  0
 27 21  1  0  0  0  0
 29 25  1  0  0  0  0
 30  1  1  0  0  0  0
 30 34  1  0  0  0  0
 31 30  2  0  0  0  0
 32 30  2  0  0  0  0
 33 40  1  0  0  0  0
 34 33  2  0  0  0  0
 34 35  1  0  0  0  0
 35 37  2  0  0  0  0
 36 35  1  0  0  0  0
 37 39  1  0  0  0  0
 37 38  1  0  0  0  0
 40 39  2  0  0  0  0
 41 42  1  0  0  0  0
 42 33  1  0  0  0  0
 42 43  2  0  0  0  0
 44 42  2  0  0  0  0
M  END
>  <minimizedAffinity>
-6.46094418

$$$$

 OpenBabel03252509103D

 44 47  0  0  0  0  0  0  0  0999 V2000
   36.3140   29.8230   38.6090 C   0  0  0  0  0  0  0  0  0  0  0  0
   37.1860   30.7350   38.0920 C   0  0  0  0  0  0  0  0  0  0  0  0
   37.3600   30.8140   36.7200 C   0  0  0  0  0  0  0  0  0  0  0  0
   36.6710   29.9880   35.8730 C   0  0  0  0  0  0  0  0  0  0  0  0
   35.7730   29.0430   36.3560 C   0  0  0  0  0  0  0  0  0  0  0  0
   35.6100   28.9780   37.7410 C   0  0  0  0  0  0  0  0  0  0  0  0
   38.0370   31.5200   36.2820 H   0  0  0  0  0  0  0  0  0  0  0  0
   36.7660   30.0060   34.8180 H   0  0  0  0  0  0  0  0  0  0  0  0
   35.1910   28.3570   35.7830 H   0  0  0  0  0  0  0  0  0  0  0  0
   34.9070   28.2440   38.1650 H   0  0  0  0  0  0  0  0  0  0  0  0
   41.6620   32.0370   40.3120 Cl  0  0  0  0  0  0  0  0  0  0  0  0
   39.9740   32.2820   39.9330 C   0  0  0  0  0  0  0  0  0  0  0  0
   39.2980   31.3930   39.1600 C   0  0  0  0  0  0  0  0  0  0  0  0
   37.9640   31.6700   38.8960 C   0  0  0  0  0  0  0  0  0  0  0  0
   37.3640   32.7840   39.3860 C   0  0  0  0  0  0  0  0  0  0  0  0
   38.0340   33.6730   40.1570 C   0  0  0  0  0  0  0  0  0  0  0  0
   39.3590   33.4070   40.4300 C   0  0  0  0  0  0  0  0  0  0  0  0
   36.3340   32.9790   39.1610 H   0  0  0  0  0  0  0  0  0  0  0  0
   37.5270   34.5500   40.5340 H   0  0  0  0  0  0  0  0  0  0  0  0
   39.8880   34.1280   41.0520 H   0  0  0  0  0  0  0  0  0  0  0  0
   40.6900   27.8890   38.8010 C   0  0  0  0  0  0  0  0  0  0  0  0
   40.0240   29.0080   39.3110 C   0  0  0  0  0  0  0  0  0  0  0  0
   39.9920   30.2200   38.6360 C   0  0  0  0  0  0  0  0  0  0  0  0
   40.6460   30.2240   37.4700 N   0  0  0  0  0  0  0  0  0  0  0  0
   41.2870   29.1590   36.9730 C   0  0  0  0  0  0  0  0  0  0  0  0
   41.3090   28.0020   37.6320 N   0  0  0  0  0  0  0  0  0  0  0  0
   40.6790   26.9870   39.3670 H   0  0  0  0  0  0  0  0  0  0  0  0
   39.5100   28.9310   40.2700 H   0  0  0  0  0  0  0  0  0  0  0  0
   41.7440   29.4000   36.0140 H   0  0  0  0  0  0  0  0  0  0  0  0
   36.1090   29.6240   40.2750 S   0  0  0  0  0  0  0  0  0  0  0  0
   35.9320   31.0480   40.9040 O   0  0  0  0  0  0  0  0  0  0  0  0
   34.7680   28.9830   40.4930 O   0  0  0  0  0  0  0  0  0  0  0  0
   37.6880   27.7180   41.5520 C   0  0  0  0  0  0  0  0  0  0  0  0
   37.3230   29.0730   41.3640 C   0  0  0  0  0  0  0  0  0  0  0  0
   38.1030   29.8750   42.1880 C   0  0  0  0  0  0  0  0  0  0  0  0
   37.9510   30.9450   42.1390 H   0  0  0  0  0  0  0  0  0  0  0  0
   39.0840   29.4780   43.0670 C   0  0  0  0  0  0  0  0  0  0  0  0
   39.6320   30.1880   43.6660 H   0  0  0  0  0  0  0  0  0  0  0  0
   39.3230   28.1430   43.1430 C   0  0  0  0  0  3  0  0  0  0  0  0
   38.6470   27.2140   42.4000 C   0  0  0  0  0  3  0  0  0  0  0  0
   35.5420   26.7550   40.4210 H   0  0  0  0  0  0  0  0  0  0  0  0
   36.8640   26.5150   40.5380 S   0  0  0  0  0  0  0  0  0  0  0  0
   36.9880   25.1420   41.1840 O   0  0  0  0  0  0  0  0  0  0  0  0
   37.6170   26.4360   39.2620 O   0  0  0  0  0  0  0  0  0  0  0  0
  1 30  1  0  0  0  0
  2  1  1  0  0  0  0
  2 14  1  0  0  0  0
  3  2  2  0  0  0  0
  4  5  2  0  0  0  0
  4  3  1  0  0  0  0
  5  6  1  0  0  0  0
  6 10  1  0  0  0  0
  6  1  2  0  0  0  0
  7  3  1  0  0  0  0
  8  4  1  0  0  0  0
  9  5  1  0  0  0  0
 12 11  1  0  0  0  0
 12 17  1  0  0  0  0
 13 12  2  0  0  0  0
 14 13  1  0  0  0  0
 14 15  2  0  0  0  0
 15 16  1  0  0  0  0
 16 17  2  0  0  0  0
 16 19  1  0  0  0  0
 17 20  1  0  0  0  0
 18 15  1  0  0  0  0
 21 22  1  0  0  0  0
 21 27  1  0  0  0  0
 22 28  1  0  0  0  0
 23 13  1  0  0  0  0
 23 22  2  0  0  0  0
 24 23  1  0  0  0  0
 25 24  2  0  0  0  0
 25 26  1  0  0  0  0
 26 21  2  0  0  0  0
 29 25  1  0  0  0  0
 30 32  2  0  0  0  0
 30 31  2  0  0  0  0
 30 34  1  0  0  0  0
 33 40  1  0  0  0  0
 34 33  2  0  0  0  0
 34 35  1  0  0  0  0
 35 37  2  0  0  0  0
 36 35  1  0  0  0  0
 37 39  1  0  0  0  0
 37 38  1  0  0  0  0
 40 39  2  0  0  0  0
 41 42  1  0  0  0  0
 42 43  2  0  0  0  0
 42 33  1  0  0  0  0
 44 42  2  0  0  0  0
M  END
>  <minimizedAffinity>
-6.29919863

$$$$

 OpenBabel03252509103D

 44 47  0  0  0  0  0  0  0  0999 V2000
   36.1400   27.2290   39.2110 C   0  0  0  0  0  0  0  0  0  0  0  0
   35.8870   28.2270   40.1050 C   0  0  0  0  0  0  0  0  0  0  0  0
   34.8730   29.1350   39.8490 C   0  0  0  0  0  0  0  0  0  0  0  0
   34.1190   29.0470   38.7090 C   0  0  0  0  0  0  0  0  0  0  0  0
   34.3420   28.0480   37.7710 C   0  0  0  0  0  0  0  0  0  0  0  0
   35.3680   27.1410   38.0450 C   0  0  0  0  0  0  0  0  0  0  0  0
   34.6480   29.9300   40.5320 H   0  0  0  0  0  0  0  0  0  0  0  0
   33.3330   29.7140   38.4650 H   0  0  0  0  0  0  0  0  0  0  0  0
   33.8140   27.8930   36.8570 H   0  0  0  0  0  0  0  0  0  0  0  0
   35.5770   26.3330   37.3270 H   0  0  0  0  0  0  0  0  0  0  0  0
   39.4310   30.7930   42.8490 Cl  0  0  0  0  0  0  0  0  0  0  0  0
   38.2340   29.5410   42.6210 C   0  0  0  0  0  0  0  0  0  0  0  0
   37.5620   29.4240   41.4460 C   0  0  0  0  0  0  0  0  0  0  0  0
   36.6180   28.4110   41.3530 C   0  0  0  0  0  0  0  0  0  0  0  0
   36.3740   27.5770   42.3950 C   0  0  0  0  0  0  0  0  0  0  0  0
   37.0410   27.6900   43.5680 C   0  0  0  0  0  0  0  0  0  0  0  0
   37.9840   28.6890   43.6720 C   0  0  0  0  0  0  0  0  0  0  0  0
   35.6340   26.8070   42.3010 H   0  0  0  0  0  0  0  0  0  0  0  0
   36.8250   27.0070   44.3790 H   0  0  0  0  0  0  0  0  0  0  0  0
   38.5160   28.7700   44.6190 H   0  0  0  0  0  0  0  0  0  0  0  0
   37.4370   32.4500   39.1700 C   0  0  0  0  0  0  0  0  0  0  0  0
   37.1600   31.5590   40.2120 C   0  0  0  0  0  0  0  0  0  0  0  0
   37.8430   30.3600   40.3600 C   0  0  0  0  0  0  0  0  0  0  0  0
   38.7760   30.1340   39.4300 N   0  0  0  0  0  0  0  0  0  0  0  0
   39.0490   30.9780   38.4280 C   0  0  0  0  0  0  0  0  0  0  0  0
   38.3860   32.1260   38.2990 N   0  0  0  0  0  0  0  0  0  0  0  0
   36.8780   33.3540   39.1090 H   0  0  0  0  0  0  0  0  0  0  0  0
   36.3840   31.8100   40.9360 H   0  0  0  0  0  0  0  0  0  0  0  0
   39.8440   30.5830   37.7980 H   0  0  0  0  0  0  0  0  0  0  0  0
   37.4100   26.1340   39.4250 S   0  0  0  0  0  0  0  0  0  0  0  0
   37.1240   25.3300   40.7390 O   0  0  0  0  0  0  0  0  0  0  0  0
   37.2950   25.0910   38.3510 O   0  0  0  0  0  0  0  0  0  0  0  0
   39.9850   27.0360   38.8650 C   0  0  0  0  0  0  0  0  0  0  0  0
   39.0340   26.5620   39.8010 C   0  0  0  0  0  0  0  0  0  0  0  0
   39.6210   26.5070   41.0590 C   0  0  0  0  0  0  0  0  0  0  0  0
   39.0060   26.1800   41.8870 H   0  0  0  0  0  0  0  0  0  0  0  0
   40.9100   26.8420   41.4040 C   0  0  0  0  0  0  0  0  0  0  0  0
   41.2670   26.7600   42.4190 H   0  0  0  0  0  0  0  0  0  0  0  0
   41.7100   27.2800   40.3970 C   0  0  0  0  0  3  0  0  0  0  0  0
   41.2920   27.3960   39.1000 C   0  0  0  0  0  3  0  0  0  0  0  0
   38.0910   27.4270   37.1120 H   0  0  0  0  0  0  0  0  0  0  0  0
   39.4260   27.2570   37.1930 S   0  0  0  0  0  0  0  0  0  0  0  0
   39.7420   26.0060   36.3870 O   0  0  0  0  0  0  0  0  0  0  0  0
   40.2470   28.3420   36.6030 O   0  0  0  0  0  0  0  0  0  0  0  0
  1 30  1  0  0  0  0
  1  2  1  0  0  0  0
  2 14  1  0  0  0  0
  3  2  2  0  0  0  0
  3  7  1  0  0  0  0
  4  3  1  0  0  0  0
  5  6  1  0  0  0  0
  5  4  2  0  0  0  0
  6  1  2  0  0  0  0
  8  4  1  0  0  0  0
  9  5  1  0  0  0  0
 10  6  1  0  0  0  0
 12 11  1  0  0  0  0
 12 17  1  0  0  0  0
 13 12  2  0  0  0  0
 14 13  1  0  0  0  0
 14 15  2  0  0  0  0
 15 16  1  0  0  0  0
 16 17  2  0  0  0  0
 16 19  1  0  0  0  0
 17 20  1  0  0  0  0
 18 15  1  0  0  0  0
 21 22  1  0  0  0  0
 22 23  2  0  0  0  0
 22 28  1  0  0  0  0
 23 13  1  0  0  0  0
 24 23  1  0  0  0  0
 25 24  2  0  0  0  0
 26 25  1  0  0  0  0
 26 21  2  0  0  0  0
 27 21  1  0  0  0  0
 29 25  1  0  0  0  0
 30 34  1  0  0  0  0
 30 31  2  0  0  0  0
 32 30  2  0  0  0  0
 33 40  2  0  0  0  0
 33 34  1  0  0  0  0
 34 35  2  0  0  0  0
 35 37  1  0  0  0  0
 35 36  1  0  0  0  0
 37 38  1  0  0  0  0
 39 37  2  0  0  0  0
 40 39  1  0  0  0  0
 41 42  1  0  0  0  0
 42 33  1  0  0  0  0
 43 42  2  0  0  0  0
 44 42  2  0  0  0  0
M  END
>  <minimizedAffinity>
-6.16033745

$$$$

 OpenBabel03252509103D

 44 47  0  0  0  0  0  0  0  0999 V2000
   36.6670   29.4260   39.3880 C   0  0  0  0  0  0  0  0  0  0  0  0
   36.7040   28.1600   39.8930 C   0  0  0  0  0  0  0  0  0  0  0  0
   36.2130   27.1070   39.1380 C   0  0  0  0  0  0  0  0  0  0  0  0
   35.6890   27.3190   37.8910 C   0  0  0  0  0  0  0  0  0  0  0  0
   35.6300   28.5920   37.3380 C   0  0  0  0  0  0  0  0  0  0  0  0
   36.1290   29.6410   38.1120 C   0  0  0  0  0  0  0  0  0  0  0  0
   36.2290   26.1010   39.5050 H   0  0  0  0  0  0  0  0  0  0  0  0
   35.3000   26.5510   37.2720 H   0  0  0  0  0  0  0  0  0  0  0  0
   35.2420   28.8610   36.3810 H   0  0  0  0  0  0  0  0  0  0  0  0
   36.1030   30.6650   37.7110 H   0  0  0  0  0  0  0  0  0  0  0  0
   40.5630   26.2500   42.7440 Cl  0  0  0  0  0  0  0  0  0  0  0  0
   38.9720   26.9370   42.5240 C   0  0  0  0  0  0  0  0  0  0  0  0
   38.5180   27.2630   41.2860 C   0  0  0  0  0  0  0  0  0  0  0  0
   37.2480   27.8160   41.2010 C   0  0  0  0  0  0  0  0  0  0  0  0
   36.4950   28.0260   42.3100 C   0  0  0  0  0  0  0  0  0  0  0  0
   36.9430   27.7030   43.5470 C   0  0  0  0  0  0  0  0  0  0  0  0
   38.2010   27.1490   43.6430 C   0  0  0  0  0  0  0  0  0  0  0  0
   35.5190   28.4620   42.2190 H   0  0  0  0  0  0  0  0  0  0  0  0
   36.3170   27.8800   44.4100 H   0  0  0  0  0  0  0  0  0  0  0  0
   38.5510   26.8920   44.6430 H   0  0  0  0  0  0  0  0  0  0  0  0
   41.1050   27.7580   38.5630 C   0  0  0  0  0  0  0  0  0  0  0  0
   40.2880   27.9820   39.6760 C   0  0  0  0  0  0  0  0  0  0  0  0
   39.3740   27.0390   40.1230 C   0  0  0  0  0  0  0  0  0  0  0  0
   39.3420   25.9120   39.4060 N   0  0  0  0  0  0  0  0  0  0  0  0
   40.1180   25.6870   38.3380 C   0  0  0  0  0  0  0  0  0  0  0  0
   40.9920   26.6020   37.9210 N   0  0  0  0  0  0  0  0  0  0  0  0
   41.7870   28.5210   38.2690 H   0  0  0  0  0  0  0  0  0  0  0  0
   40.3690   28.9270   40.2160 H   0  0  0  0  0  0  0  0  0  0  0  0
   39.9170   24.7030   37.9170 H   0  0  0  0  0  0  0  0  0  0  0  0
   37.1800   30.7630   40.2860 S   0  0  0  0  0  0  0  0  0  0  0  0
   37.1080   32.0170   39.3490 O   0  0  0  0  0  0  0  0  0  0  0  0
   36.1280   31.0450   41.3200 O   0  0  0  0  0  0  0  0  0  0  0  0
   39.8600   31.4830   40.0450 C   0  0  0  0  0  0  0  0  0  0  0  0
   38.7860   31.0230   40.8460 C   0  0  0  0  0  0  0  0  0  0  0  0
   39.2380   30.8250   42.1450 C   0  0  0  0  0  0  0  0  0  0  0  0
   38.5210   30.4910   42.8820 H   0  0  0  0  0  0  0  0  0  0  0  0
   40.5080   31.0230   42.6350 C   0  0  0  0  0  0  0  0  0  0  0  0
   40.7540   30.8370   43.6690 H   0  0  0  0  0  0  0  0  0  0  0  0
   41.4360   31.4660   41.7480 C   0  0  0  0  0  3  0  0  0  0  0  0
   41.1600   31.7130   40.4310 C   0  0  0  0  0  3  0  0  0  0  0  0
   38.2580   32.4000   38.2000 H   0  0  0  0  0  0  0  0  0  0  0  0
   39.4900   31.8740   38.3520 S   0  0  0  0  0  0  0  0  0  0  0  0
   39.5090   30.5970   37.5250 O   0  0  0  0  0  0  0  0  0  0  0  0
   40.6090   32.7060   37.8460 O   0  0  0  0  0  0  0  0  0  0  0  0
  1  2  1  0  0  0  0
  1 30  1  0  0  0  0
  2 14  1  0  0  0  0
  3  7  1  0  0  0  0
  3  2  2  0  0  0  0
  4  3  1  0  0  0  0
  5  4  2  0  0  0  0
  5  6  1  0  0  0  0
  6  1  2  0  0  0  0
  8  4  1  0  0  0  0
  9  5  1  0  0  0  0
 10  6  1  0  0  0  0
 12 11  1  0  0  0  0
 12 17  1  0  0  0  0
 13 12  2  0  0  0  0
 14 13  1  0  0  0  0
 14 15  2  0  0  0  0
 15 16  1  0  0  0  0
 16 17  2  0  0  0  0
 16 19  1  0  0  0  0
 17 20  1  0  0  0  0
 18 15  1  0  0  0  0
 21 22  1  0  0  0  0
 22 23  2  0  0  0  0
 22 28  1  0  0  0  0
 23 13  1  0  0  0  0
 24 23  1  0  0  0  0
 25 24  2  0  0  0  0
 26 25  1  0  0  0  0
 26 21  2  0  0  0  0
 27 21  1  0  0  0  0
 29 25  1  0  0  0  0
 30 34  1  0  0  0  0
 30 32  2  0  0  0  0
 31 30  2  0  0  0  0
 33 40  2  0  0  0  0
 33 34  1  0  0  0  0
 34 35  2  0  0  0  0
 35 37  1  0  0  0  0
 35 36  1  0  0  0  0
 37 38  1  0  0  0  0
 39 37  2  0  0  0  0
 40 39  1  0  0  0  0
 41 42  1  0  0  0  0
 42 33  1  0  0  0  0
 43 42  2  0  0  0  0
 44 42  2  0  0  0  0
M  END
>  <minimizedAffinity>
-5.99263859

$$$$

 OpenBabel03252509103D

 44 47  0  0  0  0  0  0  0  0999 V2000
   37.1640   29.0820   38.5380 C   0  0  0  0  0  0  0  0  0  0  0  0
   36.3640   28.4980   39.4760 C   0  0  0  0  0  0  0  0  0  0  0  0
   35.0100   28.3520   39.2250 C   0  0  0  0  0  0  0  0  0  0  0  0
   34.4600   28.7870   38.0490 C   0  0  0  0  0  0  0  0  0  0  0  0
   35.2360   29.3880   37.0670 C   0  0  0  0  0  0  0  0  0  0  0  0
   36.5990   29.5270   37.3350 C   0  0  0  0  0  0  0  0  0  0  0  0
   34.3550   27.8960   39.9410 H   0  0  0  0  0  0  0  0  0  0  0  0
   33.4310   28.7010   37.8070 H   0  0  0  0  0  0  0  0  0  0  0  0
   34.9060   29.7590   36.1230 H   0  0  0  0  0  0  0  0  0  0  0  0
   37.2500   29.9970   36.5830 H   0  0  0  0  0  0  0  0  0  0  0  0
   38.1950   24.5840   42.3040 Cl  0  0  0  0  0  0  0  0  0  0  0  0
   37.6550   26.2300   42.0740 C   0  0  0  0  0  0  0  0  0  0  0  0
   37.2410   26.6640   40.8550 C   0  0  0  0  0  0  0  0  0  0  0  0
   36.8420   27.9890   40.7560 C   0  0  0  0  0  0  0  0  0  0  0  0
   36.8690   28.8160   41.8310 C   0  0  0  0  0  0  0  0  0  0  0  0
   37.2810   28.3880   43.0480 C   0  0  0  0  0  0  0  0  0  0  0  0
   37.6770   27.0730   43.1600 C   0  0  0  0  0  0  0  0  0  0  0  0
   36.5620   29.8380   41.7270 H   0  0  0  0  0  0  0  0  0  0  0  0
   37.2880   29.0720   43.8860 H   0  0  0  0  0  0  0  0  0  0  0  0
   38.0050   26.7390   44.1440 H   0  0  0  0  0  0  0  0  0  0  0  0
   36.1520   24.1340   38.2540 C   0  0  0  0  0  0  0  0  0  0  0  0
   36.1330   25.0130   39.3420 C   0  0  0  0  0  0  0  0  0  0  0  0
   37.2510   25.7430   39.7210 C   0  0  0  0  0  0  0  0  0  0  0  0
   38.3330   25.5350   38.9650 N   0  0  0  0  0  0  0  0  0  0  0  0
   38.3620   24.6960   37.9220 C   0  0  0  0  0  0  0  0  0  0  0  0
   37.2820   24.0020   37.5700 N   0  0  0  0  0  0  0  0  0  0  0  0
   35.2610   23.6020   38.0140 H   0  0  0  0  0  0  0  0  0  0  0  0
   35.2130   25.1330   39.9150 H   0  0  0  0  0  0  0  0  0  0  0  0
   39.3490   24.6910   37.4600 H   0  0  0  0  0  0  0  0  0  0  0  0
   38.8100   29.3580   38.8100 S   0  0  0  0  0  0  0  0  0  0  0  0
   39.5560   27.9940   38.6140 O   0  0  0  0  0  0  0  0  0  0  0  0
   39.3210   30.1970   37.6750 O   0  0  0  0  0  0  0  0  0  0  0  0
   39.3550   30.9940   40.9970 C   0  0  0  0  0  0  0  0  0  0  0  0
   39.5090   29.7530   40.3320 C   0  0  0  0  0  0  0  0  0  0  0  0
   40.3040   28.9160   41.1050 C   0  0  0  0  0  0  0  0  0  0  0  0
   40.4950   27.9180   40.7330 H   0  0  0  0  0  0  0  0  0  0  0  0
   40.8790   29.1890   42.3250 C   0  0  0  0  0  0  0  0  0  0  0  0
   41.4840   28.4620   42.8440 H   0  0  0  0  0  0  0  0  0  0  0  0
   40.6450   30.4240   42.8400 C   0  0  0  0  0  3  0  0  0  0  0  0
   39.8840   31.3700   42.2100 C   0  0  0  0  0  3  0  0  0  0  0  0
   38.4910   32.2570   38.8830 H   0  0  0  0  0  0  0  0  0  0  0  0
   38.3090   32.1990   40.2180 S   0  0  0  0  0  0  0  0  0  0  0  0
   38.6510   33.5830   40.7520 O   0  0  0  0  0  0  0  0  0  0  0  0
   36.9220   31.9200   40.6640 O   0  0  0  0  0  0  0  0  0  0  0  0
  1 30  1  0  0  0  0
  1  2  1  0  0  0  0
  2 14  1  0  0  0  0
  3  2  2  0  0  0  0
  3  7  1  0  0  0  0
  4  3  1  0  0  0  0
  5  6  1  0  0  0  0
  5  4  2  0  0  0  0
  6  1  2  0  0  0  0
  8  4  1  0  0  0  0
  9  5  1  0  0  0  0
 10  6  1  0  0  0  0
 12 11  1  0  0  0  0
 12 17  1  0  0  0  0
 13 12  2  0  0  0  0
 14 13  1  0  0  0  0
 14 15  2  0  0  0  0
 15 16  1  0  0  0  0
 16 17  2  0  0  0  0
 16 19  1  0  0  0  0
 17 20  1  0  0  0  0
 18 15  1  0  0  0  0
 21 22  1  0  0  0  0
 22 23  2  0  0  0  0
 22 28  1  0  0  0  0
 23 13  1  0  0  0  0
 24 23  1  0  0  0  0
 25 24  2  0  0  0  0
 26 25  1  0  0  0  0
 26 21  2  0  0  0  0
 27 21  1  0  0  0  0
 29 25  1  0  0  0  0
 30 34  1  0  0  0  0
 31 30  2  0  0  0  0
 32 30  2  0  0  0  0
 33 40  1  0  0  0  0
 34 33  2  0  0  0  0
 34 35  1  0  0  0  0
 35 37  2  0  0  0  0
 36 35  1  0  0  0  0
 37 39  1  0  0  0  0
 37 38  1  0  0  0  0
 40 39  2  0  0  0  0
 41 42  1  0  0  0  0
 42 44  2  0  0  0  0
 42 43  2  0  0  0  0
 42 33  1  0  0  0  0
M  END
>  <minimizedAffinity>
-5.9220562

$$$$

 OpenBabel03252509103D

 44 47  0  0  0  0  0  0  0  0999 V2000
   38.4950   29.1860   40.7280 C   0  0  0  0  0  0  0  0  0  0  0  0
   38.8930   29.2460   42.0310 C   0  0  0  0  0  0  0  0  0  0  0  0
   38.0010   28.9120   43.0360 C   0  0  0  0  0  0  0  0  0  0  0  0
   36.7210   28.5220   42.7410 C   0  0  0  0  0  0  0  0  0  0  0  0
   36.2720   28.4480   41.4280 C   0  0  0  0  0  0  0  0  0  0  0  0
   37.1860   28.7880   40.4280 C   0  0  0  0  0  0  0  0  0  0  0  0
   38.2820   28.9470   44.0690 H   0  0  0  0  0  0  0  0  0  0  0  0
   35.9980   28.2570   43.4690 H   0  0  0  0  0  0  0  0  0  0  0  0
   35.3010   28.1590   41.0950 H   0  0  0  0  0  0  0  0  0  0  0  0
   36.8710   28.7420   39.3740 H   0  0  0  0  0  0  0  0  0  0  0  0
   43.6340   27.9080   43.5830 Cl  0  0  0  0  0  0  0  0  0  0  0  0
   42.3850   29.0640   43.1870 C   0  0  0  0  0  0  0  0  0  0  0  0
   41.1600   28.6520   42.7680 C   0  0  0  0  0  0  0  0  0  0  0  0
   40.2310   29.6360   42.4610 C   0  0  0  0  0  0  0  0  0  0  0  0
   40.5360   30.9530   42.5710 C   0  0  0  0  0  0  0  0  0  0  0  0
   41.7560   31.3690   42.9880 C   0  0  0  0  0  0  0  0  0  0  0  0
   42.6860   30.4020   43.3000 C   0  0  0  0  0  0  0  0  0  0  0  0
   39.8030   31.6940   42.3200 H   0  0  0  0  0  0  0  0  0  0  0  0
   41.9660   32.4270   43.0670 H   0  0  0  0  0  0  0  0  0  0  0  0
   43.6630   30.7470   43.6350 H   0  0  0  0  0  0  0  0  0  0  0  0
   40.0790   25.1060   43.5480 C   0  0  0  0  0  0  0  0  0  0  0  0
   40.3400   26.4740   43.6770 C   0  0  0  0  0  0  0  0  0  0  0  0
   40.8850   27.2230   42.6440 C   0  0  0  0  0  0  0  0  0  0  0  0
   41.1370   26.5300   41.5290 N   0  0  0  0  0  0  0  0  0  0  0  0
   40.8910   25.2210   41.3940 C   0  0  0  0  0  0  0  0  0  0  0  0
   40.3670   24.5150   42.3950 N   0  0  0  0  0  0  0  0  0  0  0  0
   39.6600   24.5870   44.3780 H   0  0  0  0  0  0  0  0  0  0  0  0
   40.1080   26.9760   44.6180 H   0  0  0  0  0  0  0  0  0  0  0  0
   41.1760   24.8760   40.4010 H   0  0  0  0  0  0  0  0  0  0  0  0
   39.5110   29.6520   39.4590 S   0  0  0  0  0  0  0  0  0  0  0  0
   40.7530   28.6980   39.4730 O   0  0  0  0  0  0  0  0  0  0  0  0
   38.8190   29.2970   38.1740 O   0  0  0  0  0  0  0  0  0  0  0  0
   39.8120   32.4200   39.4080 C   0  0  0  0  0  0  0  0  0  0  0  0
   40.3910   31.1280   39.3860 C   0  0  0  0  0  0  0  0  0  0  0  0
   41.7730   31.2490   39.3020 C   0  0  0  0  0  0  0  0  0  0  0  0
   42.3590   30.3400   39.2960 H   0  0  0  0  0  0  0  0  0  0  0  0
   42.5160   32.4060   39.2450 C   0  0  0  0  0  0  0  0  0  0  0  0
   43.5930   32.3870   39.1800 H   0  0  0  0  0  0  0  0  0  0  0  0
   41.8210   33.5720   39.2740 C   0  0  0  0  0  3  0  0  0  0  0  0
   40.4570   33.6340   39.3560 C   0  0  0  0  0  3  0  0  0  0  0  0
   37.5600   31.5350   40.3860 H   0  0  0  0  0  0  0  0  0  0  0  0
   38.0470   32.5060   39.5880 S   0  0  0  0  0  0  0  0  0  0  0  0
   37.3930   32.3020   38.2280 O   0  0  0  0  0  0  0  0  0  0  0  0
   37.7210   33.8950   39.9940 O   0  0  0  0  0  0  0  0  0  0  0  0
  1  2  1  0  0  0  0
  2 14  1  0  0  0  0
  2  3  2  0  0  0  0
  3  7  1  0  0  0  0
  4  3  1  0  0  0  0
  4  8  1  0  0  0  0
  5  4  2  0  0  0  0
  6  1  2  0  0  0  0
  6  5  1  0  0  0  0
  9  5  1  0  0  0  0
 10  6  1  0  0  0  0
 12 17  1  0  0  0  0
 12 11  1  0  0  0  0
 13 12  2  0  0  0  0
 14 15  2  0  0  0  0
 14 13  1  0  0  0  0
 15 16  1  0  0  0  0
 16 19  1  0  0  0  0
 16 17  2  0  0  0  0
 17 20  1  0  0  0  0
 18 15  1  0  0  0  0
 21 22  1  0  0  0  0
 21 27  1  0  0  0  0
 22 28  1  0  0  0  0
 23 13  1  0  0  0  0
 23 22  2  0  0  0  0
 24 23  1  0  0  0  0
 25 24  2  0  0  0  0
 25 26  1  0  0  0  0
 26 21  2  0  0  0  0
 29 25  1  0  0  0  0
 30 31  2  0  0  0  0
 30  1  1  0  0  0  0
 32 30  2  0  0  0  0
 33 42  1  0  0  0  0
 34 33  1  0  0  0  0
 34 30  1  0  0  0  0
 35 34  2  0  0  0  0
 36 35  1  0  0  0  0
 37 39  2  0  0  0  0
 37 35  1  0  0  0  0
 38 37  1  0  0  0  0
 39 40  1  0  0  0  0
 40 33  2  0  0  0  0
 42 44  2  0  0  0  0
 42 41  1  0  0  0  0
 43 42  2  0  0  0  0
M  END
>  <minimizedAffinity>
-5.8933363

$$$$

 OpenBabel03252509103D

 44 47  0  0  0  0  0  0  0  0999 V2000
   36.7310   25.7820   39.7090 C   0  0  0  0  0  0  0  0  0  0  0  0
   36.5530   27.0840   40.0730 C   0  0  0  0  0  0  0  0  0  0  0  0
   35.8620   27.9410   39.2330 C   0  0  0  0  0  0  0  0  0  0  0  0
   35.3550   27.5020   38.0390 C   0  0  0  0  0  0  0  0  0  0  0  0
   35.5140   26.1840   37.6280 C   0  0  0  0  0  0  0  0  0  0  0  0
   36.2120   25.3340   38.4870 C   0  0  0  0  0  0  0  0  0  0  0  0
   35.7040   28.9690   39.4900 H   0  0  0  0  0  0  0  0  0  0  0  0
   34.8200   28.1140   37.3590 H   0  0  0  0  0  0  0  0  0  0  0  0
   35.1600   25.7460   36.7220 H   0  0  0  0  0  0  0  0  0  0  0  0
   36.3590   24.2810   38.2000 H   0  0  0  0  0  0  0  0  0  0  0  0
   39.8880   30.1400   42.5640 Cl  0  0  0  0  0  0  0  0  0  0  0  0
   38.5490   29.0210   42.4860 C   0  0  0  0  0  0  0  0  0  0  0  0
   38.1170   28.5310   41.2950 C   0  0  0  0  0  0  0  0  0  0  0  0
   37.0390   27.6580   41.3230 C   0  0  0  0  0  0  0  0  0  0  0  0
   36.4390   27.3140   42.4890 C   0  0  0  0  0  0  0  0  0  0  0  0
   36.8660   27.7990   43.6800 C   0  0  0  0  0  0  0  0  0  0  0  0
   37.9380   28.6640   43.6670 C   0  0  0  0  0  0  0  0  0  0  0  0
   35.6030   26.6430   42.4830 H   0  0  0  0  0  0  0  0  0  0  0  0
   36.3680   27.5030   44.5920 H   0  0  0  0  0  0  0  0  0  0  0  0
   38.2740   29.0480   44.6290 H   0  0  0  0  0  0  0  0  0  0  0  0
   40.4560   28.6410   38.3170 C   0  0  0  0  0  0  0  0  0  0  0  0
   39.8280   28.2340   39.4990 C   0  0  0  0  0  0  0  0  0  0  0  0
   38.7800   28.9480   40.0630 C   0  0  0  0  0  0  0  0  0  0  0  0
   38.4290   30.0460   39.3860 N   0  0  0  0  0  0  0  0  0  0  0  0
   39.0230   30.4450   38.2540 C   0  0  0  0  0  0  0  0  0  0  0  0
   40.0270   29.7490   37.7250 N   0  0  0  0  0  0  0  0  0  0  0  0
   41.2550   28.0500   37.9350 H   0  0  0  0  0  0  0  0  0  0  0  0
   40.1680   27.3260   39.9980 H   0  0  0  0  0  0  0  0  0  0  0  0
   38.5680   31.3630   37.8840 H   0  0  0  0  0  0  0  0  0  0  0  0
   37.6280   24.7030   40.6530 S   0  0  0  0  0  0  0  0  0  0  0  0
   36.8860   24.5440   42.0230 O   0  0  0  0  0  0  0  0  0  0  0  0
   37.4960   23.3420   40.0310 O   0  0  0  0  0  0  0  0  0  0  0  0
   40.3960   24.9920   40.5640 C   0  0  0  0  0  0  0  0  0  0  0  0
   39.1890   25.0170   41.3040 C   0  0  0  0  0  0  0  0  0  0  0  0
   39.4700   25.3400   42.6250 C   0  0  0  0  0  0  0  0  0  0  0  0
   38.6390   25.4170   43.3130 H   0  0  0  0  0  0  0  0  0  0  0  0
   40.6990   25.6020   43.1860 C   0  0  0  0  0  0  0  0  0  0  0  0
   40.8080   25.8430   44.2320 H   0  0  0  0  0  0  0  0  0  0  0  0
   41.7700   25.5380   42.3520 C   0  0  0  0  0  3  0  0  0  0  0  0
   41.6700   25.2350   41.0220 C   0  0  0  0  0  3  0  0  0  0  0  0
   39.0620   25.0170   38.3210 H   0  0  0  0  0  0  0  0  0  0  0  0
   40.2640   24.6700   38.8220 S   0  0  0  0  0  0  0  0  0  0  0  0
   40.4100   23.1750   38.5740 O   0  0  0  0  0  0  0  0  0  0  0  0
   41.4370   25.3080   38.1750 O   0  0  0  0  0  0  0  0  0  0  0  0
  1  2  1  0  0  0  0
  1 30  1  0  0  0  0
  2 14  1  0  0  0  0
  3  7  1  0  0  0  0
  3  2  2  0  0  0  0
  4  3  1  0  0  0  0
  5  4  2  0  0  0  0
  5  6  1  0  0  0  0
  6  1  2  0  0  0  0
  8  4  1  0  0  0  0
  9  5  1  0  0  0  0
 10  6  1  0  0  0  0
 12 11  1  0  0  0  0
 12 17  1  0  0  0  0
 13 14  1  0  0  0  0
 13 12  2  0  0  0  0
 14 15  2  0  0  0  0
 15 16  1  0  0  0  0
 16 19  1  0  0  0  0
 17 16  2  0  0  0  0
 17 20  1  0  0  0  0
 18 15  1  0  0  0  0
 21 22  1  0  0  0  0
 22 28  1  0  0  0  0
 22 23  2  0  0  0  0
 23 13  1  0  0  0  0
 24 23  1  0  0  0  0
 25 24  2  0  0  0  0
 26 25  1  0  0  0  0
 26 21  2  0  0  0  0
 27 21  1  0  0  0  0
 29 25  1  0  0  0  0
 30 34  1  0  0  0  0
 30 31  2  0  0  0  0
 32 30  2  0  0  0  0
 33 40  2  0  0  0  0
 33 34  1  0  0  0  0
 34 35  2  0  0  0  0
 35 37  1  0  0  0  0
 35 36  1  0  0  0  0
 37 38  1  0  0  0  0
 39 37  2  0  0  0  0
 40 39  1  0  0  0  0
 41 42  1  0  0  0  0
 42 33  1  0  0  0  0
 43 42  2  0  0  0  0
 44 42  2  0  0  0  0
M  END
>  <minimizedAffinity>
-5.852355

$$$$

 OpenBabel03252509103D

 44 47  0  0  0  0  0  0  0  0999 V2000
   41.0320   28.7970   39.7500 C   0  0  0  0  0  0  0  0  0  0  0  0
   40.2900   29.5700   38.9060 C   0  0  0  0  0  0  0  0  0  0  0  0
   40.6320   29.6420   37.5660 C   0  0  0  0  0  0  0  0  0  0  0  0
   41.7060   28.9490   37.0740 C   0  0  0  0  0  0  0  0  0  0  0  0
   42.4900   28.1510   37.8980 C   0  0  0  0  0  0  0  0  0  0  0  0
   42.1310   28.0890   39.2460 C   0  0  0  0  0  0  0  0  0  0  0  0
   40.0700   30.2380   36.8760 H   0  0  0  0  0  0  0  0  0  0  0  0
   42.0120   28.9680   36.0590 H   0  0  0  0  0  0  0  0  0  0  0  0
   43.3420   27.5750   37.6150 H   0  0  0  0  0  0  0  0  0  0  0  0
   42.7250   27.4670   39.9320 H   0  0  0  0  0  0  0  0  0  0  0  0
   38.2070   34.0830   40.3070 Cl  0  0  0  0  0  0  0  0  0  0  0  0
   38.1490   32.3690   39.9740 C   0  0  0  0  0  0  0  0  0  0  0  0
   39.2590   31.6980   39.5720 C   0  0  0  0  0  0  0  0  0  0  0  0
   39.1220   30.3410   39.3160 C   0  0  0  0  0  0  0  0  0  0  0  0
   37.9280   29.7140   39.4560 C   0  0  0  0  0  0  0  0  0  0  0  0
   36.8180   30.3780   39.8570 C   0  0  0  0  0  0  0  0  0  0  0  0
   36.9420   31.7250   40.1190 C   0  0  0  0  0  0  0  0  0  0  0  0
   37.8470   28.6650   39.2450 H   0  0  0  0  0  0  0  0  0  0  0  0
   35.8810   29.8480   39.9620 H   0  0  0  0  0  0  0  0  0  0  0  0
   36.0430   32.2490   40.4410 H   0  0  0  0  0  0  0  0  0  0  0  0
   42.1040   33.6990   38.0710 C   0  0  0  0  0  0  0  0  0  0  0  0
   40.8970   33.0080   38.2140 C   0  0  0  0  0  0  0  0  0  0  0  0
   40.5190   32.4210   39.4130 C   0  0  0  0  0  0  0  0  0  0  0  0
   41.3990   32.5720   40.4070 N   0  0  0  0  0  0  0  0  0  0  0  0
   42.5570   33.2310   40.2820 C   0  0  0  0  0  0  0  0  0  0  0  0
   42.9070   33.7900   39.1250 N   0  0  0  0  0  0  0  0  0  0  0  0
   42.3380   34.1270   37.1250 H   0  0  0  0  0  0  0  0  0  0  0  0
   40.2260   32.9240   37.3580 H   0  0  0  0  0  0  0  0  0  0  0  0
   43.1070   33.2240   41.2220 H   0  0  0  0  0  0  0  0  0  0  0  0
   40.7140   28.7240   41.4090 S   0  0  0  0  0  0  0  0  0  0  0  0
   41.5840   27.5660   42.0070 O   0  0  0  0  0  0  0  0  0  0  0  0
   41.3020   29.9550   42.0370 O   0  0  0  0  0  0  0  0  0  0  0  0
   38.5180   27.0520   41.7810 C   0  0  0  0  0  0  0  0  0  0  0  0
   39.2210   28.2360   42.1110 C   0  0  0  0  0  0  0  0  0  0  0  0
   38.5170   28.9270   43.0890 C   0  0  0  0  0  0  0  0  0  0  0  0
   38.9430   29.8490   43.4600 H   0  0  0  0  0  0  0  0  0  0  0  0
   37.3250   28.5730   43.6800 C   0  0  0  0  0  0  0  0  0  0  0  0
   36.8600   29.1870   44.4350 H   0  0  0  0  0  0  0  0  0  0  0  0
   36.7660   27.4090   43.2600 C   0  0  0  0  0  3  0  0  0  0  0  0
   37.3270   26.6050   42.3050 C   0  0  0  0  0  3  0  0  0  0  0  0
   40.5320   26.3520   40.2750 H   0  0  0  0  0  0  0  0  0  0  0  0
   39.2790   25.9700   40.5950 S   0  0  0  0  0  0  0  0  0  0  0  0
   38.4830   26.0050   39.2990 O   0  0  0  0  0  0  0  0  0  0  0  0
   39.1440   24.5900   41.1210 O   0  0  0  0  0  0  0  0  0  0  0  0
  1 30  1  0  0  0  0
  2 14  1  0  0  0  0
  2  1  2  0  0  0  0
  3  2  1  0  0  0  0
  4  3  2  0  0  0  0
  4  5  1  0  0  0  0
  5  6  2  0  0  0  0
  6  1  1  0  0  0  0
  6 10  1  0  0  0  0
  7  3  1  0  0  0  0
  8  4  1  0  0  0  0
  9  5  1  0  0  0  0
 12 17  1  0  0  0  0
 12 11  1  0  0  0  0
 13 12  2  0  0  0  0
 14 15  2  0  0  0  0
 14 13  1  0  0  0  0
 15 16  1  0  0  0  0
 16 19  1  0  0  0  0
 16 17  2  0  0  0  0
 17 20  1  0  0  0  0
 18 15  1  0  0  0  0
 21 22  2  0  0  0  0
 21 26  1  0  0  0  0
 22 23  1  0  0  0  0
 23 13  1  0  0  0  0
 23 24  2  0  0  0  0
 25 24  1  0  0  0  0
 25 29  1  0  0  0  0
 26 25  2  0  0  0  0
 27 21  1  0  0  0  0
 28 22  1  0  0  0  0
 30 31  2  0  0  0  0
 30 32  2  0  0  0  0
 30 34  1  0  0  0  0
 33 34  2  0  0  0  0
 33 40  1  0  0  0  0
 34 35  1  0  0  0  0
 35 36  1  0  0  0  0
 35 37  2  0  0  0  0
 37 38  1  0  0  0  0
 39 37  1  0  0  0  0
 40 39  2  0  0  0  0
 41 42  1  0  0  0  0
 42 44  2  0  0  0  0
 42 33  1  0  0  0  0
 43 42  2  0  0  0  0
M  END
>  <minimizedAffinity>
-5.83667469

$$$$
