
 OpenBabel03242511483D

 47 49  0  0  0  0  0  0  0  0999 V2000
   37.8290   31.0140   40.3470 C   0  0  0  0  0  0  0  0  0  0  0  0
   36.6570   30.5850   39.7020 C   0  0  0  0  0  0  0  0  0  0  0  0
   35.9080   29.6170   40.3590 C   0  0  0  0  0  0  0  0  0  0  0  0
   36.3170   29.1360   41.5560 N   0  0  0  0  0  0  0  0  0  0  0  0
   37.4550   29.5940   42.1170 C   0  0  0  0  0  0  0  0  0  0  0  0
   38.2030   30.5090   41.5420 N   0  0  0  0  0  0  0  0  0  0  0  0
   38.4370   31.7530   39.8870 H   0  0  0  0  0  0  0  0  0  0  0  0
   36.3850   30.9970   38.7640 H   0  0  0  0  0  0  0  0  0  0  0  0
   37.8500   29.0370   43.4170 C   0  0  0  0  0  0  0  0  0  0  0  0
   38.9610   29.1420   43.5350 H   0  0  0  0  0  0  0  0  0  0  0  0
   37.3280   29.6090   44.2110 H   0  0  0  0  0  0  0  0  0  0  0  0
   37.4020   27.6040   43.5070 C   0  0  0  0  0  0  0  0  0  0  0  0
   36.8810   27.3910   44.4770 H   0  0  0  0  0  0  0  0  0  0  0  0
   36.6160   27.3970   42.7300 H   0  0  0  0  0  0  0  0  0  0  0  0
   38.4970   26.6810   43.3220 C   0  0  0  0  0  0  0  0  0  0  0  0
   39.7470   26.6820   43.9130 C   0  0  0  0  0  0  0  0  0  0  0  0
   40.7050   25.7660   43.6740 C   0  0  0  0  0  0  0  0  0  0  0  0
   40.4230   24.7570   42.7790 C   0  0  0  0  0  0  0  0  0  0  0  0
   39.1870   24.7350   42.1780 C   0  0  0  0  0  0  0  0  0  0  0  0
   38.2250   25.6830   42.4410 C   0  0  0  0  0  0  0  0  0  0  0  0
   39.9130   27.5100   44.6170 H   0  0  0  0  0  0  0  0  0  0  0  0
   41.6410   25.8670   44.1910 H   0  0  0  0  0  0  0  0  0  0  0  0
   41.2370   24.0350   42.6160 H   0  0  0  0  0  0  0  0  0  0  0  0
   39.1270   23.8710   41.4970 H   0  0  0  0  0  0  0  0  0  0  0  0
   37.0710   25.9190   40.3300 C   0  0  0  0  0  0  0  0  0  0  0  0
   37.8170   26.6770   39.5930 O   0  0  0  0  0  0  0  0  0  0  0  0
   37.0680   25.3660   41.6490 N   0  0  0  0  0  0  0  0  0  0  0  0
   36.3670   25.8390   39.5050 H   0  0  0  0  0  0  0  0  0  0  0  0
   36.2240   24.8190   41.8290 H   0  0  0  0  0  0  0  0  0  0  0  0
   34.6550   29.1430   39.6950 C   0  0  0  0  0  0  0  0  0  0  0  0
   34.2390   28.3540   40.3890 H   0  0  0  0  0  0  0  0  0  0  0  0
   33.9400   29.9580   39.6620 H   0  0  0  0  0  0  0  0  0  0  0  0
   34.9490   28.4390   38.4130 C   0  0  0  0  0  0  0  0  0  0  0  0
   36.0560   28.5890   38.2330 H   0  0  0  0  0  0  0  0  0  0  0  0
   34.8900   27.3380   38.6430 H   0  0  0  0  0  0  0  0  0  0  0  0
   34.7020   29.0350   36.0170 C   0  0  0  0  0  0  0  0  0  0  0  0
   34.1440   28.8370   37.2590 C   0  0  0  0  0  0  0  0  0  0  0  0
   32.7740   29.0170   37.4180 C   0  0  0  0  0  0  0  0  0  0  0  0
   32.3450   28.8580   38.4060 H   0  0  0  0  0  0  0  0  0  0  0  0
   31.9250   29.3890   36.3960 C   0  0  0  0  0  0  0  0  0  0  0  0
   30.8590   29.5190   36.5680 H   0  0  0  0  0  0  0  0  0  0  0  0
   32.4670   29.5920   35.1410 C   0  0  0  0  0  3  0  0  0  0  0  0
   33.8240   29.4120   34.9920 C   0  0  0  0  0  3  0  0  0  0  0  0
   36.8860   27.6070   36.0500 H   0  0  0  0  0  0  0  0  0  0  0  0
   36.4110   28.8390   35.7060 S   0  0  0  0  0  0  0  0  0  0  0  0
   37.1510   29.9760   36.3220 O   0  0  0  0  0  0  0  0  0  0  0  0
   36.6170   28.9410   34.2060 O   0  0  0  0  0  0  0  0  0  0  0  0
  1  6  1  0  0  0  0
  2  1  2  0  0  0  0
  2  3  1  0  0  0  0
  3  4  2  0  0  0  0
  4  5  1  0  0  0  0
  5  9  1  0  0  0  0
  6  5  2  0  0  0  0
  7  1  1  0  0  0  0
  8  2  1  0  0  0  0
  9 12  1  0  0  0  0
  9 10  1  0  0  0  0
  9 11  1  0  0  0  0
 12 13  1  0  0  0  0
 14 12  1  0  0  0  0
 15 12  1  0  0  0  0
 15 16  1  0  0  0  0
 16 21  1  0  0  0  0
 17 16  2  0  0  0  0
 17 22  1  0  0  0  0
 18 17  1  0  0  0  0
 19 20  1  0  0  0  0
 19 18  2  0  0  0  0
 20 15  2  0  0  0  0
 23 18  1  0  0  0  0
 24 19  1  0  0  0  0
 25 27  1  0  0  0  0
 26 25  2  0  0  0  0
 27 29  1  0  0  0  0
 27 20  1  0  0  0  0
 28 25  1  0  0  0  0
 30  3  1  0  0  0  0
 30 31  1  0  0  0  0
 32 30  1  0  0  0  0
 33 35  1  0  0  0  0
 33 30  1  0  0  0  0
 34 33  1  0  0  0  0
 36 37  1  0  0  0  0
 37 38  2  0  0  0  0
 37 33  1  0  0  0  0
 38 39  1  0  0  0  0
 40 41  1  0  0  0  0
 40 38  1  0  0  0  0
 42 40  2  0  0  0  0
 43 42  1  0  0  0  0
 43 36  2  0  0  0  0
 45 36  1  0  0  0  0
 45 44  1  0  0  0  0
 45 46  2  0  0  0  0
 47 45  2  0  0  0  0
M  END
>  <minimizedAffinity>
-5.96571112

$$$$

 OpenBabel03242511483D

 47 49  0  0  0  0  0  0  0  0999 V2000
   36.3500   30.7990   41.0760 C   0  0  0  0  0  0  0  0  0  0  0  0
   36.9720   31.7410   40.2390 C   0  0  0  0  0  0  0  0  0  0  0  0
   38.3610   31.7760   40.2720 C   0  0  0  0  0  0  0  0  0  0  0  0
   39.0440   30.9320   41.0790 N   0  0  0  0  0  0  0  0  0  0  0  0
   38.3800   30.0520   41.8570 C   0  0  0  0  0  0  0  0  0  0  0  0
   37.0690   29.9740   41.8680 N   0  0  0  0  0  0  0  0  0  0  0  0
   35.2910   30.7310   41.0880 H   0  0  0  0  0  0  0  0  0  0  0  0
   36.3860   32.3770   39.6270 H   0  0  0  0  0  0  0  0  0  0  0  0
   39.1740   29.1620   42.7130 C   0  0  0  0  0  0  0  0  0  0  0  0
   39.9420   28.6400   42.0830 H   0  0  0  0  0  0  0  0  0  0  0  0
   39.6750   29.7810   43.4860 H   0  0  0  0  0  0  0  0  0  0  0  0
   38.2620   28.1940   43.4150 C   0  0  0  0  0  0  0  0  0  0  0  0
   38.4500   28.1710   44.5200 H   0  0  0  0  0  0  0  0  0  0  0  0
   37.1950   28.5390   43.3320 H   0  0  0  0  0  0  0  0  0  0  0  0
   38.3650   26.8600   42.8710 C   0  0  0  0  0  0  0  0  0  0  0  0
   37.6090   26.2630   41.8790 C   0  0  0  0  0  0  0  0  0  0  0  0
   37.7880   25.0030   41.4370 C   0  0  0  0  0  0  0  0  0  0  0  0
   38.7930   24.2550   42.0120 C   0  0  0  0  0  0  0  0  0  0  0  0
   39.5570   24.8270   43.0010 C   0  0  0  0  0  0  0  0  0  0  0  0
   39.3540   26.1170   43.4340 C   0  0  0  0  0  0  0  0  0  0  0  0
   36.8240   26.9080   41.4600 H   0  0  0  0  0  0  0  0  0  0  0  0
   37.1400   24.6430   40.6600 H   0  0  0  0  0  0  0  0  0  0  0  0
   38.8990   23.2330   41.6190 H   0  0  0  0  0  0  0  0  0  0  0  0
   40.3080   24.1000   43.3490 H   0  0  0  0  0  0  0  0  0  0  0  0
   41.6100   26.7780   43.9960 C   0  0  0  0  0  0  0  0  0  0  0  0
   42.2280   26.9470   42.8720 O   0  0  0  0  0  0  0  0  0  0  0  0
   40.3150   26.3900   44.4670 N   0  0  0  0  0  0  0  0  0  0  0  0
   42.5180   27.0670   44.5200 H   0  0  0  0  0  0  0  0  0  0  0  0
   40.2750   26.3650   45.4870 H   0  0  0  0  0  0  0  0  0  0  0  0
   39.0480   32.7680   39.3900 C   0  0  0  0  0  0  0  0  0  0  0  0
   39.4990   32.1530   38.5570 H   0  0  0  0  0  0  0  0  0  0  0  0
   38.3070   33.4240   38.9470 H   0  0  0  0  0  0  0  0  0  0  0  0
   40.2010   33.4100   40.0860 C   0  0  0  0  0  0  0  0  0  0  0  0
   39.8160   34.4120   40.4460 H   0  0  0  0  0  0  0  0  0  0  0  0
   40.3350   32.8450   41.0500 H   0  0  0  0  0  0  0  0  0  0  0  0
   42.6240   33.9110   39.8920 C   0  0  0  0  0  0  0  0  0  0  0  0
   41.4340   33.5410   39.3090 C   0  0  0  0  0  0  0  0  0  0  0  0
   41.4040   33.2810   37.9430 C   0  0  0  0  0  0  0  0  0  0  0  0
   40.4560   32.9900   37.4950 H   0  0  0  0  0  0  0  0  0  0  0  0
   42.5080   33.3710   37.1210 C   0  0  0  0  0  0  0  0  0  0  0  0
   42.4370   33.1580   36.0570 H   0  0  0  0  0  0  0  0  0  0  0  0
   43.7130   33.7410   37.6880 C   0  0  0  0  0  3  0  0  0  0  0  0
   43.7330   33.9970   39.0400 C   0  0  0  0  0  3  0  0  0  0  0  0
   41.5960   34.6380   42.1760 H   0  0  0  0  0  0  0  0  0  0  0  0
   42.7730   34.2640   41.5970 S   0  0  0  0  0  0  0  0  0  0  0  0
   43.8900   35.2270   41.7990 O   0  0  0  0  0  0  0  0  0  0  0  0
   43.1700   32.9770   42.2970 O   0  0  0  0  0  0  0  0  0  0  0  0
  1  7  1  0  0  0  0
  1  6  1  0  0  0  0
  2  3  1  0  0  0  0
  2  1  2  0  0  0  0
  3  4  2  0  0  0  0
  4  5  1  0  0  0  0
  5  6  2  0  0  0  0
  5  9  1  0  0  0  0
  8  2  1  0  0  0  0
  9 12  1  0  0  0  0
  9 11  1  0  0  0  0
 10  9  1  0  0  0  0
 12 13  1  0  0  0  0
 14 12  1  0  0  0  0
 15 12  1  0  0  0  0
 15 20  1  0  0  0  0
 16 15  2  0  0  0  0
 17 16  1  0  0  0  0
 17 18  2  0  0  0  0
 18 19  1  0  0  0  0
 19 24  1  0  0  0  0
 19 20  2  0  0  0  0
 20 27  1  0  0  0  0
 21 16  1  0  0  0  0
 22 17  1  0  0  0  0
 23 18  1  0  0  0  0
 25 27  1  0  0  0  0
 25 28  1  0  0  0  0
 26 25  2  0  0  0  0
 27 29  1  0  0  0  0
 30 33  1  0  0  0  0
 30  3  1  0  0  0  0
 31 30  1  0  0  0  0
 32 30  1  0  0  0  0
 33 34  1  0  0  0  0
 33 35  1  0  0  0  0
 36 45  1  0  0  0  0
 37 36  1  0  0  0  0
 37 33  1  0  0  0  0
 38 37  2  0  0  0  0
 39 38  1  0  0  0  0
 40 42  2  0  0  0  0
 40 38  1  0  0  0  0
 41 40  1  0  0  0  0
 42 43  1  0  0  0  0
 43 36  2  0  0  0  0
 45 46  2  0  0  0  0
 45 44  1  0  0  0  0
 45 47  2  0  0  0  0
M  END
>  <minimizedAffinity>
-5.95117807

$$$$

 OpenBabel03242511483D

 47 49  0  0  0  0  0  0  0  0999 V2000
   35.9560   28.2310   39.1890 C   0  0  0  0  0  0  0  0  0  0  0  0
   36.0120   29.6340   39.2360 C   0  0  0  0  0  0  0  0  0  0  0  0
   36.4030   30.1980   40.4440 C   0  0  0  0  0  0  0  0  0  0  0  0
   36.7050   29.4060   41.4990 N   0  0  0  0  0  0  0  0  0  0  0  0
   36.6290   28.0640   41.3820 C   0  0  0  0  0  0  0  0  0  0  0  0
   36.2650   27.4750   40.2650 N   0  0  0  0  0  0  0  0  0  0  0  0
   35.6630   27.7510   38.2890 H   0  0  0  0  0  0  0  0  0  0  0  0
   35.7640   30.2050   38.3770 H   0  0  0  0  0  0  0  0  0  0  0  0
   36.9680   27.2540   42.5590 C   0  0  0  0  0  0  0  0  0  0  0  0
   36.0200   26.9010   43.0430 H   0  0  0  0  0  0  0  0  0  0  0  0
   37.5680   26.3850   42.2180 H   0  0  0  0  0  0  0  0  0  0  0  0
   37.8190   28.0630   43.4980 C   0  0  0  0  0  0  0  0  0  0  0  0
   37.7240   29.1630   43.3040 H   0  0  0  0  0  0  0  0  0  0  0  0
   37.4490   27.9440   44.5530 H   0  0  0  0  0  0  0  0  0  0  0  0
   39.2090   27.6720   43.4440 C   0  0  0  0  0  0  0  0  0  0  0  0
   39.8290   26.5790   44.0210 C   0  0  0  0  0  0  0  0  0  0  0  0
   41.1420   26.2990   43.9070 C   0  0  0  0  0  0  0  0  0  0  0  0
   41.9230   27.1600   43.1670 C   0  0  0  0  0  0  0  0  0  0  0  0
   41.3290   28.2540   42.5850 C   0  0  0  0  0  0  0  0  0  0  0  0
   39.9840   28.5170   42.7150 C   0  0  0  0  0  0  0  0  0  0  0  0
   39.1560   25.9300   44.5980 H   0  0  0  0  0  0  0  0  0  0  0  0
   41.5160   25.4210   44.3990 H   0  0  0  0  0  0  0  0  0  0  0  0
   42.9880   26.8900   43.1050 H   0  0  0  0  0  0  0  0  0  0  0  0
   42.0870   28.8330   42.0340 H   0  0  0  0  0  0  0  0  0  0  0  0
   40.4700   30.8630   42.3950 C   0  0  0  0  0  0  0  0  0  0  0  0
   41.3730   31.1680   43.2710 O   0  0  0  0  0  0  0  0  0  0  0  0
   39.7010   29.7260   41.9920 N   0  0  0  0  0  0  0  0  0  0  0  0
   40.5020   31.8870   42.0300 H   0  0  0  0  0  0  0  0  0  0  0  0
   39.0540   29.9560   41.2350 H   0  0  0  0  0  0  0  0  0  0  0  0
   36.4730   31.6890   40.5210 C   0  0  0  0  0  0  0  0  0  0  0  0
   35.3970   32.0320   40.5190 H   0  0  0  0  0  0  0  0  0  0  0  0
   36.9060   31.9760   41.4730 H   0  0  0  0  0  0  0  0  0  0  0  0
   37.0840   32.2710   39.2900 C   0  0  0  0  0  0  0  0  0  0  0  0
   37.1770   31.4100   38.5620 H   0  0  0  0  0  0  0  0  0  0  0  0
   36.2810   32.9010   38.8140 H   0  0  0  0  0  0  0  0  0  0  0  0
   39.5380   32.4790   38.9870 C   0  0  0  0  0  0  0  0  0  0  0  0
   38.3510   32.9800   39.4700 C   0  0  0  0  0  0  0  0  0  0  0  0
   38.3560   34.1960   40.1450 C   0  0  0  0  0  0  0  0  0  0  0  0
   37.4100   34.5800   40.5220 H   0  0  0  0  0  0  0  0  0  0  0  0
   39.4930   34.9450   40.3670 C   0  0  0  0  0  0  0  0  0  0  0  0
   39.4490   35.8910   40.9010 H   0  0  0  0  0  0  0  0  0  0  0  0
   40.6960   34.4590   39.8900 C   0  0  0  0  0  3  0  0  0  0  0  0
   40.6810   33.2550   39.2220 C   0  0  0  0  0  3  0  0  0  0  0  0
   38.6990   30.8220   37.1550 H   0  0  0  0  0  0  0  0  0  0  0  0
   39.6450   30.9610   38.1290 S   0  0  0  0  0  0  0  0  0  0  0  0
   39.6800   29.8460   39.1150 O   0  0  0  0  0  0  0  0  0  0  0  0
   40.9750   30.9430   37.3980 O   0  0  0  0  0  0  0  0  0  0  0  0
  1  2  2  0  0  0  0
  1  6  1  0  0  0  0
  2  3  1  0  0  0  0
  3 30  1  0  0  0  0
  3  4  2  0  0  0  0
  5  4  1  0  0  0  0
  5  9  1  0  0  0  0
  6  5  2  0  0  0  0
  7  1  1  0  0  0  0
  8  2  1  0  0  0  0
  9 10  1  0  0  0  0
  9 12  1  0  0  0  0
 11  9  1  0  0  0  0
 12 14  1  0  0  0  0
 13 12  1  0  0  0  0
 15 12  1  0  0  0  0
 15 16  1  0  0  0  0
 16 21  1  0  0  0  0
 17 16  2  0  0  0  0
 17 22  1  0  0  0  0
 18 17  1  0  0  0  0
 19 20  1  0  0  0  0
 19 18  2  0  0  0  0
 20 15  2  0  0  0  0
 23 18  1  0  0  0  0
 24 19  1  0  0  0  0
 25 26  2  0  0  0  0
 27 25  1  0  0  0  0
 27 20  1  0  0  0  0
 28 25  1  0  0  0  0
 29 27  1  0  0  0  0
 30 32  1  0  0  0  0
 31 30  1  0  0  0  0
 33 37  1  0  0  0  0
 33 30  1  0  0  0  0
 34 33  1  0  0  0  0
 35 33  1  0  0  0  0
 36 43  2  0  0  0  0
 36 37  1  0  0  0  0
 37 38  2  0  0  0  0
 38 40  1  0  0  0  0
 38 39  1  0  0  0  0
 40 41  1  0  0  0  0
 42 40  2  0  0  0  0
 43 42  1  0  0  0  0
 44 45  1  0  0  0  0
 45 36  1  0  0  0  0
 45 46  2  0  0  0  0
 47 45  2  0  0  0  0
M  END
>  <minimizedAffinity>
-5.93095922

$$$$

 OpenBabel03242511483D

 47 49  0  0  0  0  0  0  0  0999 V2000
   37.0440   29.0080   39.3900 C   0  0  0  0  0  0  0  0  0  0  0  0
   36.7590   28.3000   40.5700 C   0  0  0  0  0  0  0  0  0  0  0  0
   37.2070   28.8670   41.7560 C   0  0  0  0  0  0  0  0  0  0  0  0
   37.8790   30.0420   41.7370 N   0  0  0  0  0  0  0  0  0  0  0  0
   38.1170   30.6680   40.5660 C   0  0  0  0  0  0  0  0  0  0  0  0
   37.7170   30.1780   39.4140 N   0  0  0  0  0  0  0  0  0  0  0  0
   36.7230   28.6170   38.4570 H   0  0  0  0  0  0  0  0  0  0  0  0
   36.2280   27.3830   40.5240 H   0  0  0  0  0  0  0  0  0  0  0  0
   38.8500   31.9390   40.6060 C   0  0  0  0  0  0  0  0  0  0  0  0
   38.5120   32.5810   39.7500 H   0  0  0  0  0  0  0  0  0  0  0  0
   38.6210   32.4390   41.5700 H   0  0  0  0  0  0  0  0  0  0  0  0
   40.3290   31.6690   40.5650 C   0  0  0  0  0  0  0  0  0  0  0  0
   40.8230   31.9050   41.5430 H   0  0  0  0  0  0  0  0  0  0  0  0
   40.5160   30.5680   40.4280 H   0  0  0  0  0  0  0  0  0  0  0  0
   40.9820   32.3900   39.4970 C   0  0  0  0  0  0  0  0  0  0  0  0
   41.4600   31.9140   38.2890 C   0  0  0  0  0  0  0  0  0  0  0  0
   42.0560   32.6750   37.3510 C   0  0  0  0  0  0  0  0  0  0  0  0
   42.2010   34.0210   37.6100 C   0  0  0  0  0  0  0  0  0  0  0  0
   41.7350   34.5170   38.8040 C   0  0  0  0  0  0  0  0  0  0  0  0
   41.1280   33.7170   39.7460 C   0  0  0  0  0  0  0  0  0  0  0  0
   41.3160   30.8340   38.1400 H   0  0  0  0  0  0  0  0  0  0  0  0
   42.3890   32.1970   36.4490 H   0  0  0  0  0  0  0  0  0  0  0  0
   42.6940   34.6000   36.8150 H   0  0  0  0  0  0  0  0  0  0  0  0
   41.9280   35.6000   38.8500 H   0  0  0  0  0  0  0  0  0  0  0  0
   39.4950   35.1910   40.7480 C   0  0  0  0  0  0  0  0  0  0  0  0
   38.5230   35.2830   39.9000 O   0  0  0  0  0  0  0  0  0  0  0  0
   40.7690   34.5480   40.8620 N   0  0  0  0  0  0  0  0  0  0  0  0
   38.9480   35.8450   41.4220 H   0  0  0  0  0  0  0  0  0  0  0  0
   41.2360   34.7870   41.7380 H   0  0  0  0  0  0  0  0  0  0  0  0
   36.9160   28.1360   43.0260 C   0  0  0  0  0  0  0  0  0  0  0  0
   37.7550   28.4210   43.7250 H   0  0  0  0  0  0  0  0  0  0  0  0
   35.9930   28.5150   43.4520 H   0  0  0  0  0  0  0  0  0  0  0  0
   37.0280   26.6590   42.8440 C   0  0  0  0  0  0  0  0  0  0  0  0
   36.3300   26.2060   43.6110 H   0  0  0  0  0  0  0  0  0  0  0  0
   36.5030   26.4250   41.8760 H   0  0  0  0  0  0  0  0  0  0  0  0
   38.7490   24.9930   42.1960 C   0  0  0  0  0  0  0  0  0  0  0  0
   38.3760   26.0980   42.9270 C   0  0  0  0  0  0  0  0  0  0  0  0
   39.3090   26.6990   43.7650 C   0  0  0  0  0  0  0  0  0  0  0  0
   39.0000   27.5720   44.3370 H   0  0  0  0  0  0  0  0  0  0  0  0
   40.6060   26.2530   43.9140 C   0  0  0  0  0  0  0  0  0  0  0  0
   41.3010   26.7550   44.5820 H   0  0  0  0  0  0  0  0  0  0  0  0
   41.0000   25.1440   43.1890 C   0  0  0  0  0  3  0  0  0  0  0  0
   40.0700   24.5550   42.3620 C   0  0  0  0  0  3  0  0  0  0  0  0
   36.3510   24.2330   41.5070 H   0  0  0  0  0  0  0  0  0  0  0  0
   37.6570   24.1590   41.1170 S   0  0  0  0  0  0  0  0  0  0  0  0
   38.1540   22.7730   40.8960 O   0  0  0  0  0  0  0  0  0  0  0  0
   37.7120   24.8670   39.7750 O   0  0  0  0  0  0  0  0  0  0  0  0
  1  6  2  0  0  0  0
  1  2  1  0  0  0  0
  2  3  2  0  0  0  0
  3 30  1  0  0  0  0
  4  3  1  0  0  0  0
  5  9  1  0  0  0  0
  5  4  2  0  0  0  0
  6  5  1  0  0  0  0
  7  1  1  0  0  0  0
  8  2  1  0  0  0  0
  9 11  1  0  0  0  0
 10  9  1  0  0  0  0
 12  9  1  0  0  0  0
 12 13  1  0  0  0  0
 14 12  1  0  0  0  0
 15 20  1  0  0  0  0
 15 12  1  0  0  0  0
 16 15  2  0  0  0  0
 17 18  2  0  0  0  0
 17 16  1  0  0  0  0
 18 19  1  0  0  0  0
 19 24  1  0  0  0  0
 19 20  2  0  0  0  0
 20 27  1  0  0  0  0
 21 16  1  0  0  0  0
 22 17  1  0  0  0  0
 23 18  1  0  0  0  0
 25 27  1  0  0  0  0
 25 28  1  0  0  0  0
 26 25  2  0  0  0  0
 27 29  1  0  0  0  0
 30 32  1  0  0  0  0
 30 31  1  0  0  0  0
 33 37  1  0  0  0  0
 33 30  1  0  0  0  0
 33 34  1  0  0  0  0
 35 33  1  0  0  0  0
 36 43  2  0  0  0  0
 36 37  1  0  0  0  0
 37 38  2  0  0  0  0
 38 40  1  0  0  0  0
 38 39  1  0  0  0  0
 40 41  1  0  0  0  0
 42 40  2  0  0  0  0
 43 42  1  0  0  0  0
 45 44  1  0  0  0  0
 45 36  1  0  0  0  0
 46 45  2  0  0  0  0
 47 45  2  0  0  0  0
M  END
>  <minimizedAffinity>
-5.81415415

$$$$

 OpenBabel03242511483D

 47 49  0  0  0  0  0  0  0  0999 V2000
   41.2910   27.2360   43.0280 C   0  0  0  0  0  0  0  0  0  0  0  0
   39.9920   27.0550   43.5320 C   0  0  0  0  0  0  0  0  0  0  0  0
   39.0720   28.0560   43.2470 C   0  0  0  0  0  0  0  0  0  0  0  0
   39.4440   29.1350   42.5190 N   0  0  0  0  0  0  0  0  0  0  0  0
   40.7100   29.2430   42.0670 C   0  0  0  0  0  0  0  0  0  0  0  0
   41.6220   28.3280   42.3050 N   0  0  0  0  0  0  0  0  0  0  0  0
   42.0320   26.4990   43.2180 H   0  0  0  0  0  0  0  0  0  0  0  0
   39.7570   26.1880   44.0970 H   0  0  0  0  0  0  0  0  0  0  0  0
   41.0570   30.4350   41.2830 C   0  0  0  0  0  0  0  0  0  0  0  0
   41.9970   30.8830   41.6990 H   0  0  0  0  0  0  0  0  0  0  0  0
   41.2190   30.1200   40.2310 H   0  0  0  0  0  0  0  0  0  0  0  0
   39.9070   31.4030   41.3040 C   0  0  0  0  0  0  0  0  0  0  0  0
   39.2110   31.2050   42.1600 H   0  0  0  0  0  0  0  0  0  0  0  0
   40.2840   32.4450   41.5000 H   0  0  0  0  0  0  0  0  0  0  0  0
   39.1710   31.3990   40.0610 C   0  0  0  0  0  0  0  0  0  0  0  0
   39.2180   30.4850   39.0240 C   0  0  0  0  0  0  0  0  0  0  0  0
   38.4830   30.5700   37.8980 C   0  0  0  0  0  0  0  0  0  0  0  0
   37.6240   31.6410   37.7680 C   0  0  0  0  0  0  0  0  0  0  0  0
   37.5620   32.5630   38.7850 C   0  0  0  0  0  0  0  0  0  0  0  0
   38.3230   32.4520   39.9260 C   0  0  0  0  0  0  0  0  0  0  0  0
   39.9190   29.6540   39.1850 H   0  0  0  0  0  0  0  0  0  0  0  0
   38.6010   29.8010   37.1580 H   0  0  0  0  0  0  0  0  0  0  0  0
   37.0480   31.6670   36.8320 H   0  0  0  0  0  0  0  0  0  0  0  0
   36.8340   33.3470   38.5230 H   0  0  0  0  0  0  0  0  0  0  0  0
   38.8140   34.7390   40.5380 C   0  0  0  0  0  0  0  0  0  0  0  0
   39.7960   35.1120   39.7830 O   0  0  0  0  0  0  0  0  0  0  0  0
   38.0160   33.5740   40.7700 N   0  0  0  0  0  0  0  0  0  0  0  0
   38.8050   35.7290   40.9860 H   0  0  0  0  0  0  0  0  0  0  0  0
   37.3360   33.7240   41.5180 H   0  0  0  0  0  0  0  0  0  0  0  0
   37.6820   27.8870   43.7700 C   0  0  0  0  0  0  0  0  0  0  0  0
   37.8050   27.3420   44.7520 H   0  0  0  0  0  0  0  0  0  0  0  0
   37.2640   28.8630   43.9890 H   0  0  0  0  0  0  0  0  0  0  0  0
   36.8780   26.9790   42.9020 C   0  0  0  0  0  0  0  0  0  0  0  0
   37.4550   26.0060   42.8670 H   0  0  0  0  0  0  0  0  0  0  0  0
   35.9700   26.6970   43.5050 H   0  0  0  0  0  0  0  0  0  0  0  0
   36.8190   26.7400   40.4330 C   0  0  0  0  0  0  0  0  0  0  0  0
   36.5590   27.4780   41.5650 C   0  0  0  0  0  0  0  0  0  0  0  0
   35.9730   28.7320   41.4330 C   0  0  0  0  0  0  0  0  0  0  0  0
   35.7730   29.3050   42.3360 H   0  0  0  0  0  0  0  0  0  0  0  0
   35.6300   29.2950   40.2200 C   0  0  0  0  0  0  0  0  0  0  0  0
   35.1730   30.2800   40.1660 H   0  0  0  0  0  0  0  0  0  0  0  0
   35.8840   28.5690   39.0720 C   0  0  0  0  0  3  0  0  0  0  0  0
   36.4640   27.3290   39.2110 C   0  0  0  0  0  3  0  0  0  0  0  0
   36.9780   24.3210   41.3940 H   0  0  0  0  0  0  0  0  0  0  0  0
   37.5560   25.1570   40.4840 S   0  0  0  0  0  0  0  0  0  0  0  0
   39.0290   25.3100   40.6400 O   0  0  0  0  0  0  0  0  0  0  0  0
   37.3220   24.5010   39.1350 O   0  0  0  0  0  0  0  0  0  0  0  0
  1  7  1  0  0  0  0
  1  2  1  0  0  0  0
  2  8  1  0  0  0  0
  3  2  2  0  0  0  0
  3 30  1  0  0  0  0
  4  3  1  0  0  0  0
  5  6  1  0  0  0  0
  5  4  2  0  0  0  0
  6  1  2  0  0  0  0
  9 12  1  0  0  0  0
  9 10  1  0  0  0  0
  9  5  1  0  0  0  0
 11  9  1  0  0  0  0
 12 14  1  0  0  0  0
 12 13  1  0  0  0  0
 15 12  1  0  0  0  0
 16 21  1  0  0  0  0
 16 15  2  0  0  0  0
 17 16  1  0  0  0  0
 18 17  2  0  0  0  0
 18 19  1  0  0  0  0
 19 20  2  0  0  0  0
 20 15  1  0  0  0  0
 20 27  1  0  0  0  0
 22 17  1  0  0  0  0
 23 18  1  0  0  0  0
 24 19  1  0  0  0  0
 25 27  1  0  0  0  0
 25 28  1  0  0  0  0
 26 25  2  0  0  0  0
 27 29  1  0  0  0  0
 30 32  1  0  0  0  0
 30 31  1  0  0  0  0
 33 35  1  0  0  0  0
 33 30  1  0  0  0  0
 34 33  1  0  0  0  0
 36 45  1  0  0  0  0
 36 37  1  0  0  0  0
 37 33  1  0  0  0  0
 38 37  2  0  0  0  0
 38 39  1  0  0  0  0
 40 38  1  0  0  0  0
 41 40  1  0  0  0  0
 42 43  1  0  0  0  0
 42 40  2  0  0  0  0
 43 36  2  0  0  0  0
 45 46  2  0  0  0  0
 45 44  1  0  0  0  0
 47 45  2  0  0  0  0
M  END
>  <minimizedAffinity>
-5.79634428

$$$$

 OpenBabel03242511483D

 47 49  0  0  0  0  0  0  0  0999 V2000
   41.3630   33.0600   40.4610 C   0  0  0  0  0  0  0  0  0  0  0  0
   41.5510   31.9770   41.3350 C   0  0  0  0  0  0  0  0  0  0  0  0
   40.4030   31.3340   41.7800 C   0  0  0  0  0  0  0  0  0  0  0  0
   39.1840   31.7580   41.3710 N   0  0  0  0  0  0  0  0  0  0  0  0
   39.0780   32.8070   40.5290 C   0  0  0  0  0  0  0  0  0  0  0  0
   40.1290   33.4530   40.0760 N   0  0  0  0  0  0  0  0  0  0  0  0
   42.2090   33.5860   40.0920 H   0  0  0  0  0  0  0  0  0  0  0  0
   42.5310   31.6890   41.6220 H   0  0  0  0  0  0  0  0  0  0  0  0
   37.7310   33.2220   40.1200 C   0  0  0  0  0  0  0  0  0  0  0  0
   37.0270   33.0730   40.9810 H   0  0  0  0  0  0  0  0  0  0  0  0
   37.7710   34.2960   39.8430 H   0  0  0  0  0  0  0  0  0  0  0  0
   37.3130   32.4450   38.9020 C   0  0  0  0  0  0  0  0  0  0  0  0
   36.5060   32.9710   38.3290 H   0  0  0  0  0  0  0  0  0  0  0  0
   38.1660   32.3850   38.1720 H   0  0  0  0  0  0  0  0  0  0  0  0
   36.8870   31.1050   39.2340 C   0  0  0  0  0  0  0  0  0  0  0  0
   36.0350   30.6860   40.2400 C   0  0  0  0  0  0  0  0  0  0  0  0
   35.6960   29.4020   40.4670 C   0  0  0  0  0  0  0  0  0  0  0  0
   36.2340   28.4370   39.6410 C   0  0  0  0  0  0  0  0  0  0  0  0
   37.0830   28.8310   38.6350 C   0  0  0  0  0  0  0  0  0  0  0  0
   37.4130   30.1500   38.4240 C   0  0  0  0  0  0  0  0  0  0  0  0
   35.6390   31.4990   40.8650 H   0  0  0  0  0  0  0  0  0  0  0  0
   35.0250   29.1920   41.2790 H   0  0  0  0  0  0  0  0  0  0  0  0
   35.9280   27.4050   39.8660 H   0  0  0  0  0  0  0  0  0  0  0  0
   37.4200   27.9440   38.0740 H   0  0  0  0  0  0  0  0  0  0  0  0
   39.6970   30.0410   37.6380 C   0  0  0  0  0  0  0  0  0  0  0  0
   40.4330   29.8760   38.6890 O   0  0  0  0  0  0  0  0  0  0  0  0
   38.3140   30.2040   37.3060 N   0  0  0  0  0  0  0  0  0  0  0  0
   40.5940   30.0100   37.0250 H   0  0  0  0  0  0  0  0  0  0  0  0
   38.1800   30.3370   36.3020 H   0  0  0  0  0  0  0  0  0  0  0  0
   40.5740   30.1760   42.7100 C   0  0  0  0  0  0  0  0  0  0  0  0
   41.6830   30.1330   42.9190 H   0  0  0  0  0  0  0  0  0  0  0  0
   40.0740   30.3960   43.6460 H   0  0  0  0  0  0  0  0  0  0  0  0
   40.2380   28.8850   42.0420 C   0  0  0  0  0  0  0  0  0  0  0  0
   40.2420   29.1090   40.9330 H   0  0  0  0  0  0  0  0  0  0  0  0
   41.1470   28.2310   42.1580 H   0  0  0  0  0  0  0  0  0  0  0  0
   38.5970   27.0250   41.9640 C   0  0  0  0  0  0  0  0  0  0  0  0
   38.9970   28.2410   42.4690 C   0  0  0  0  0  0  0  0  0  0  0  0
   38.1970   28.8720   43.4160 C   0  0  0  0  0  0  0  0  0  0  0  0
   38.5240   29.8340   43.8080 H   0  0  0  0  0  0  0  0  0  0  0  0
   37.0100   28.3510   43.8890 C   0  0  0  0  0  0  0  0  0  0  0  0
   36.4180   28.8810   44.6300 H   0  0  0  0  0  0  0  0  0  0  0  0
   36.5930   27.1300   43.3930 C   0  0  0  0  0  3  0  0  0  0  0  0
   37.3900   26.5120   42.4560 C   0  0  0  0  0  3  0  0  0  0  0  0
   40.5160   26.8910   40.2010 H   0  0  0  0  0  0  0  0  0  0  0  0
   39.5230   26.1480   40.7690 S   0  0  0  0  0  0  0  0  0  0  0  0
   38.5890   25.5240   39.7910 O   0  0  0  0  0  0  0  0  0  0  0  0
   40.2330   25.0130   41.4840 O   0  0  0  0  0  0  0  0  0  0  0  0
  1  2  1  0  0  0  0
  2  8  1  0  0  0  0
  2  3  2  0  0  0  0
  3 30  1  0  0  0  0
  4  3  1  0  0  0  0
  5  4  2  0  0  0  0
  6  1  2  0  0  0  0
  6  5  1  0  0  0  0
  7  1  1  0  0  0  0
  9  5  1  0  0  0  0
  9 10  1  0  0  0  0
 11  9  1  0  0  0  0
 12 15  1  0  0  0  0
 12  9  1  0  0  0  0
 13 12  1  0  0  0  0
 14 12  1  0  0  0  0
 15 16  1  0  0  0  0
 16 17  2  0  0  0  0
 16 21  1  0  0  0  0
 17 22  1  0  0  0  0
 18 23  1  0  0  0  0
 18 17  1  0  0  0  0
 19 18  2  0  0  0  0
 20 19  1  0  0  0  0
 20 15  2  0  0  0  0
 24 19  1  0  0  0  0
 25 26  2  0  0  0  0
 27 25  1  0  0  0  0
 27 20  1  0  0  0  0
 28 25  1  0  0  0  0
 29 27  1  0  0  0  0
 30 31  1  0  0  0  0
 30 32  1  0  0  0  0
 33 35  1  0  0  0  0
 33 37  1  0  0  0  0
 33 30  1  0  0  0  0
 34 33  1  0  0  0  0
 36 43  2  0  0  0  0
 36 37  1  0  0  0  0
 37 38  2  0  0  0  0
 38 39  1  0  0  0  0
 38 40  1  0  0  0  0
 40 41  1  0  0  0  0
 42 40  2  0  0  0  0
 43 42  1  0  0  0  0
 44 45  1  0  0  0  0
 45 47  2  0  0  0  0
 45 36  1  0  0  0  0
 46 45  2  0  0  0  0
M  END
>  <minimizedAffinity>
-5.76105785

$$$$

 OpenBabel03242511483D

 47 49  0  0  0  0  0  0  0  0999 V2000
   41.0440   33.0690   40.0760 C   0  0  0  0  0  0  0  0  0  0  0  0
   41.0740   32.2860   41.2420 C   0  0  0  0  0  0  0  0  0  0  0  0
   39.9390   31.5310   41.5090 C   0  0  0  0  0  0  0  0  0  0  0  0
   38.8800   31.5720   40.6670 N   0  0  0  0  0  0  0  0  0  0  0  0
   38.9210   32.3480   39.5630 C   0  0  0  0  0  0  0  0  0  0  0  0
   39.9670   33.0830   39.2610 N   0  0  0  0  0  0  0  0  0  0  0  0
   41.8870   33.6650   39.8260 H   0  0  0  0  0  0  0  0  0  0  0  0
   41.9310   32.2930   41.8650 H   0  0  0  0  0  0  0  0  0  0  0  0
   37.7440   32.3540   38.6870 C   0  0  0  0  0  0  0  0  0  0  0  0
   36.8250   32.5060   39.3120 H   0  0  0  0  0  0  0  0  0  0  0  0
   37.8550   33.1900   37.9650 H   0  0  0  0  0  0  0  0  0  0  0  0
   37.6930   31.0710   37.9040 C   0  0  0  0  0  0  0  0  0  0  0  0
   37.6980   31.2560   36.7980 H   0  0  0  0  0  0  0  0  0  0  0  0
   38.6300   30.4740   38.0800 H   0  0  0  0  0  0  0  0  0  0  0  0
   36.5500   30.2630   38.2620 C   0  0  0  0  0  0  0  0  0  0  0  0
   36.0020   30.0340   39.5110 C   0  0  0  0  0  0  0  0  0  0  0  0
   34.9240   29.2600   39.7410 C   0  0  0  0  0  0  0  0  0  0  0  0
   34.3240   28.6510   38.6580 C   0  0  0  0  0  0  0  0  0  0  0  0
   34.8520   28.8630   37.4070 C   0  0  0  0  0  0  0  0  0  0  0  0
   35.9550   29.6610   37.1990 C   0  0  0  0  0  0  0  0  0  0  0  0
   36.5220   30.5450   40.3330 H   0  0  0  0  0  0  0  0  0  0  0  0
   34.5840   29.1530   40.7540 H   0  0  0  0  0  0  0  0  0  0  0  0
   33.4490   28.0290   38.8960 H   0  0  0  0  0  0  0  0  0  0  0  0
   34.2600   28.3100   36.6620 H   0  0  0  0  0  0  0  0  0  0  0  0
   37.0640   28.5820   35.3420 C   0  0  0  0  0  0  0  0  0  0  0  0
   37.6910   27.5650   35.8370 O   0  0  0  0  0  0  0  0  0  0  0  0
   36.2370   29.6610   35.7900 N   0  0  0  0  0  0  0  0  0  0  0  0
   37.4230   28.3020   34.3550 H   0  0  0  0  0  0  0  0  0  0  0  0
   35.9710   30.2780   35.0220 H   0  0  0  0  0  0  0  0  0  0  0  0
   39.9440   30.6870   42.7420 C   0  0  0  0  0  0  0  0  0  0  0  0
   40.9350   30.9020   43.2380 H   0  0  0  0  0  0  0  0  0  0  0  0
   39.1630   31.0310   43.4110 H   0  0  0  0  0  0  0  0  0  0  0  0
   39.9670   29.2330   42.4090 C   0  0  0  0  0  0  0  0  0  0  0  0
   40.3260   29.1740   41.3380 H   0  0  0  0  0  0  0  0  0  0  0  0
   40.8360   28.7980   42.9780 H   0  0  0  0  0  0  0  0  0  0  0  0
   38.1530   27.7350   41.6170 C   0  0  0  0  0  0  0  0  0  0  0  0
   38.7150   28.5040   42.6110 C   0  0  0  0  0  0  0  0  0  0  0  0
   38.0740   28.5860   43.8420 C   0  0  0  0  0  0  0  0  0  0  0  0
   38.5290   29.1980   44.6200 H   0  0  0  0  0  0  0  0  0  0  0  0
   36.8930   27.9370   44.1380 C   0  0  0  0  0  0  0  0  0  0  0  0
   36.4280   28.0320   45.1160 H   0  0  0  0  0  0  0  0  0  0  0  0
   36.3130   27.1610   43.1520 C   0  0  0  0  0  3  0  0  0  0  0  0
   36.9540   27.0840   41.9360 C   0  0  0  0  0  3  0  0  0  0  0  0
   39.5220   28.6880   39.6100 H   0  0  0  0  0  0  0  0  0  0  0  0
   38.8720   27.5650   40.0330 S   0  0  0  0  0  0  0  0  0  0  0  0
   37.8430   27.0580   39.0840 O   0  0  0  0  0  0  0  0  0  0  0  0
   39.9450   26.4970   40.1310 O   0  0  0  0  0  0  0  0  0  0  0  0
  1  2  1  0  0  0  0
  2  3  2  0  0  0  0
  2  8  1  0  0  0  0
  3 30  1  0  0  0  0
  4  3  1  0  0  0  0
  5  4  2  0  0  0  0
  6  5  1  0  0  0  0
  6  1  2  0  0  0  0
  7  1  1  0  0  0  0
  9 10  1  0  0  0  0
  9  5  1  0  0  0  0
 11  9  1  0  0  0  0
 12 14  1  0  0  0  0
 12 15  1  0  0  0  0
 12  9  1  0  0  0  0
 13 12  1  0  0  0  0
 15 16  1  0  0  0  0
 16 17  2  0  0  0  0
 16 21  1  0  0  0  0
 17 22  1  0  0  0  0
 18 23  1  0  0  0  0
 18 17  1  0  0  0  0
 19 18  2  0  0  0  0
 20 19  1  0  0  0  0
 20 15  2  0  0  0  0
 24 19  1  0  0  0  0
 25 27  1  0  0  0  0
 25 26  2  0  0  0  0
 27 20  1  0  0  0  0
 28 25  1  0  0  0  0
 29 27  1  0  0  0  0
 30 31  1  0  0  0  0
 30 32  1  0  0  0  0
 33 37  1  0  0  0  0
 33 30  1  0  0  0  0
 33 35  1  0  0  0  0
 34 33  1  0  0  0  0
 36 43  2  0  0  0  0
 36 37  1  0  0  0  0
 37 38  2  0  0  0  0
 38 40  1  0  0  0  0
 38 39  1  0  0  0  0
 40 41  1  0  0  0  0
 42 40  2  0  0  0  0
 43 42  1  0  0  0  0
 44 45  1  0  0  0  0
 45 47  2  0  0  0  0
 45 36  1  0  0  0  0
 46 45  2  0  0  0  0
M  END
>  <minimizedAffinity>
-5.74615479

$$$$

 OpenBabel03242511483D

 47 49  0  0  0  0  0  0  0  0999 V2000
   37.6810   30.3010   37.5140 C   0  0  0  0  0  0  0  0  0  0  0  0
   37.8190   31.6550   37.8640 C   0  0  0  0  0  0  0  0  0  0  0  0
   37.1470   32.0700   39.0070 C   0  0  0  0  0  0  0  0  0  0  0  0
   36.4090   31.1890   39.7210 N   0  0  0  0  0  0  0  0  0  0  0  0
   36.3210   29.9020   39.3260 C   0  0  0  0  0  0  0  0  0  0  0  0
   36.9340   29.4530   38.2540 N   0  0  0  0  0  0  0  0  0  0  0  0
   38.1740   29.9330   36.6490 H   0  0  0  0  0  0  0  0  0  0  0  0
   38.4110   32.3010   37.2660 H   0  0  0  0  0  0  0  0  0  0  0  0
   35.5060   28.9910   40.1390 C   0  0  0  0  0  0  0  0  0  0  0  0
   35.2830   29.4820   41.1220 H   0  0  0  0  0  0  0  0  0  0  0  0
   34.5620   28.7910   39.5910 H   0  0  0  0  0  0  0  0  0  0  0  0
   36.2290   27.6830   40.3080 C   0  0  0  0  0  0  0  0  0  0  0  0
   35.5220   26.8130   40.3120 H   0  0  0  0  0  0  0  0  0  0  0  0
   36.8870   27.4890   39.4170 H   0  0  0  0  0  0  0  0  0  0  0  0
   37.0420   27.6630   41.5020 C   0  0  0  0  0  0  0  0  0  0  0  0
   36.6430   27.6510   42.8260 C   0  0  0  0  0  0  0  0  0  0  0  0
   37.4870   27.6300   43.8760 C   0  0  0  0  0  0  0  0  0  0  0  0
   38.8410   27.6190   43.6160 C   0  0  0  0  0  0  0  0  0  0  0  0
   39.2600   27.6310   42.3070 C   0  0  0  0  0  0  0  0  0  0  0  0
   38.3770   27.6530   41.2520 C   0  0  0  0  0  0  0  0  0  0  0  0
   35.5540   27.6610   42.9710 H   0  0  0  0  0  0  0  0  0  0  0  0
   37.0650   27.6220   44.8640 H   0  0  0  0  0  0  0  0  0  0  0  0
   39.4880   27.6020   44.5050 H   0  0  0  0  0  0  0  0  0  0  0  0
   40.3610   27.6200   42.2760 H   0  0  0  0  0  0  0  0  0  0  0  0
   39.5140   26.3700   39.5470 C   0  0  0  0  0  0  0  0  0  0  0  0
   39.3870   25.1280   39.8850 O   0  0  0  0  0  0  0  0  0  0  0  0
   39.1450   27.6630   40.0370 N   0  0  0  0  0  0  0  0  0  0  0  0
   40.0600   26.0570   38.6610 H   0  0  0  0  0  0  0  0  0  0  0  0
   39.4940   28.4100   39.4340 H   0  0  0  0  0  0  0  0  0  0  0  0
   37.2780   33.5060   39.4030 C   0  0  0  0  0  0  0  0  0  0  0  0
   37.8360   33.9930   38.5500 H   0  0  0  0  0  0  0  0  0  0  0  0
   36.2920   33.9540   39.4450 H   0  0  0  0  0  0  0  0  0  0  0  0
   38.1520   33.6640   40.6010 C   0  0  0  0  0  0  0  0  0  0  0  0
   37.7250   34.5420   41.1730 H   0  0  0  0  0  0  0  0  0  0  0  0
   37.9110   32.7980   41.2780 H   0  0  0  0  0  0  0  0  0  0  0  0
   40.4780   32.7990   40.5620 C   0  0  0  0  0  0  0  0  0  0  0  0
   39.5830   33.8200   40.3410 C   0  0  0  0  0  0  0  0  0  0  0  0
   40.0540   35.0350   39.8530 C   0  0  0  0  0  0  0  0  0  0  0  0
   39.3360   35.8350   39.6820 H   0  0  0  0  0  0  0  0  0  0  0  0
   41.3810   35.2860   39.5710 C   0  0  0  0  0  0  0  0  0  0  0  0
   41.7030   36.2520   39.1910 H   0  0  0  0  0  0  0  0  0  0  0  0
   42.2950   34.2720   39.7880 C   0  0  0  0  0  3  0  0  0  0  0  0
   41.8210   33.0740   40.2710 C   0  0  0  0  0  3  0  0  0  0  0  0
   38.7020   30.9160   40.8840 H   0  0  0  0  0  0  0  0  0  0  0  0
   39.9950   31.2360   41.1770 S   0  0  0  0  0  0  0  0  0  0  0  0
   40.3360   31.1550   42.6240 O   0  0  0  0  0  0  0  0  0  0  0  0
   40.8350   30.1880   40.4680 O   0  0  0  0  0  0  0  0  0  0  0  0
  1  2  2  0  0  0  0
  1  6  1  0  0  0  0
  2  3  1  0  0  0  0
  3 30  1  0  0  0  0
  3  4  2  0  0  0  0
  5  4  1  0  0  0  0
  5  9  1  0  0  0  0
  6  5  2  0  0  0  0
  7  1  1  0  0  0  0
  8  2  1  0  0  0  0
  9 12  1  0  0  0  0
  9 10  1  0  0  0  0
 11  9  1  0  0  0  0
 12 13  1  0  0  0  0
 12 15  1  0  0  0  0
 14 12  1  0  0  0  0
 15 16  1  0  0  0  0
 16 21  1  0  0  0  0
 16 17  2  0  0  0  0
 17 22  1  0  0  0  0
 18 17  1  0  0  0  0
 18 23  1  0  0  0  0
 19 18  2  0  0  0  0
 20 15  2  0  0  0  0
 20 19  1  0  0  0  0
 24 19  1  0  0  0  0
 25 26  2  0  0  0  0
 25 27  1  0  0  0  0
 27 20  1  0  0  0  0
 28 25  1  0  0  0  0
 29 27  1  0  0  0  0
 30 32  1  0  0  0  0
 30 33  1  0  0  0  0
 31 30  1  0  0  0  0
 33 34  1  0  0  0  0
 33 35  1  0  0  0  0
 36 45  1  0  0  0  0
 37 36  1  0  0  0  0
 37 33  1  0  0  0  0
 38 37  2  0  0  0  0
 39 38  1  0  0  0  0
 40 42  2  0  0  0  0
 40 38  1  0  0  0  0
 41 40  1  0  0  0  0
 42 43  1  0  0  0  0
 43 36  2  0  0  0  0
 44 45  1  0  0  0  0
 45 46  2  0  0  0  0
 47 45  2  0  0  0  0
M  END
>  <minimizedAffinity>
-5.7344594

$$$$

 OpenBabel03242511483D

 47 49  0  0  0  0  0  0  0  0999 V2000
   37.3280   30.7720   37.5380 C   0  0  0  0  0  0  0  0  0  0  0  0
   36.6490   29.8570   38.3600 C   0  0  0  0  0  0  0  0  0  0  0  0
   36.3010   30.3050   39.6280 C   0  0  0  0  0  0  0  0  0  0  0  0
   36.6160   31.5620   40.0160 N   0  0  0  0  0  0  0  0  0  0  0  0
   37.2710   32.3880   39.1730 C   0  0  0  0  0  0  0  0  0  0  0  0
   37.6250   32.0190   37.9630 N   0  0  0  0  0  0  0  0  0  0  0  0
   37.6160   30.4790   36.5580 H   0  0  0  0  0  0  0  0  0  0  0  0
   36.4280   28.8840   38.0020 H   0  0  0  0  0  0  0  0  0  0  0  0
   37.5870   33.7400   39.6480 C   0  0  0  0  0  0  0  0  0  0  0  0
   38.0080   34.3360   38.7960 H   0  0  0  0  0  0  0  0  0  0  0  0
   36.6470   34.2070   40.0100 H   0  0  0  0  0  0  0  0  0  0  0  0
   38.5390   33.6570   40.8090 C   0  0  0  0  0  0  0  0  0  0  0  0
   38.4030   34.5110   41.5220 H   0  0  0  0  0  0  0  0  0  0  0  0
   38.3090   32.7490   41.4310 H   0  0  0  0  0  0  0  0  0  0  0  0
   39.9160   33.5900   40.3770 C   0  0  0  0  0  0  0  0  0  0  0  0
   40.5760   34.3730   39.4470 C   0  0  0  0  0  0  0  0  0  0  0  0
   41.8730   34.2310   39.1140 C   0  0  0  0  0  0  0  0  0  0  0  0
   42.5960   33.2390   39.7420 C   0  0  0  0  0  0  0  0  0  0  0  0
   41.9610   32.4490   40.6700 C   0  0  0  0  0  0  0  0  0  0  0  0
   40.6330   32.6140   40.9930 C   0  0  0  0  0  0  0  0  0  0  0  0
   39.9480   35.1450   38.9800 H   0  0  0  0  0  0  0  0  0  0  0  0
   42.2810   34.8960   38.3760 H   0  0  0  0  0  0  0  0  0  0  0  0
   43.6490   33.1620   39.4370 H   0  0  0  0  0  0  0  0  0  0  0  0
   42.6750   31.7130   41.0730 H   0  0  0  0  0  0  0  0  0  0  0  0
   39.8740   30.3670   41.4590 C   0  0  0  0  0  0  0  0  0  0  0  0
   39.6670   29.8100   40.3100 O   0  0  0  0  0  0  0  0  0  0  0  0
   40.2960   31.6300   41.9840 N   0  0  0  0  0  0  0  0  0  0  0  0
   39.5850   29.4380   41.9430 H   0  0  0  0  0  0  0  0  0  0  0  0
   40.2900   31.6360   43.0050 H   0  0  0  0  0  0  0  0  0  0  0  0
   35.5760   29.3520   40.5230 C   0  0  0  0  0  0  0  0  0  0  0  0
   35.7830   29.7210   41.5700 H   0  0  0  0  0  0  0  0  0  0  0  0
   34.5090   29.4430   40.3500 H   0  0  0  0  0  0  0  0  0  0  0  0
   36.1640   27.9830   40.4540 C   0  0  0  0  0  0  0  0  0  0  0  0
   35.2810   27.2760   40.4220 H   0  0  0  0  0  0  0  0  0  0  0  0
   36.5910   27.8800   39.4180 H   0  0  0  0  0  0  0  0  0  0  0  0
   38.2010   26.8270   41.2740 C   0  0  0  0  0  0  0  0  0  0  0  0
   37.1120   27.6330   41.5120 C   0  0  0  0  0  0  0  0  0  0  0  0
   36.9080   28.1310   42.7950 C   0  0  0  0  0  0  0  0  0  0  0  0
   36.0430   28.7670   42.9690 H   0  0  0  0  0  0  0  0  0  0  0  0
   37.7420   27.8650   43.8620 C   0  0  0  0  0  0  0  0  0  0  0  0
   37.5430   28.2770   44.8480 H   0  0  0  0  0  0  0  0  0  0  0  0
   38.8420   27.0570   43.6430 C   0  0  0  0  0  3  0  0  0  0  0  0
   39.0350   26.5680   42.3710 C   0  0  0  0  0  3  0  0  0  0  0  0
   37.7070   26.5870   38.7240 H   0  0  0  0  0  0  0  0  0  0  0  0
   38.5480   26.1450   39.7030 S   0  0  0  0  0  0  0  0  0  0  0  0
   38.6270   24.6620   39.8230 O   0  0  0  0  0  0  0  0  0  0  0  0
   39.9280   26.6260   39.2920 O   0  0  0  0  0  0  0  0  0  0  0  0
  1  6  2  0  0  0  0
  1  2  1  0  0  0  0
  2  3  2  0  0  0  0
  3  4  1  0  0  0  0
  3 30  1  0  0  0  0
  5  9  1  0  0  0  0
  5  4  2  0  0  0  0
  6  5  1  0  0  0  0
  7  1  1  0  0  0  0
  8  2  1  0  0  0  0
  9 11  1  0  0  0  0
  9 12  1  0  0  0  0
 10  9  1  0  0  0  0
 12 14  1  0  0  0  0
 12 13  1  0  0  0  0
 15 12  1  0  0  0  0
 15 20  1  0  0  0  0
 16 15  2  0  0  0  0
 17 16  1  0  0  0  0
 17 18  2  0  0  0  0
 18 19  1  0  0  0  0
 19 20  2  0  0  0  0
 19 24  1  0  0  0  0
 20 27  1  0  0  0  0
 21 16  1  0  0  0  0
 22 17  1  0  0  0  0
 23 18  1  0  0  0  0
 25 28  1  0  0  0  0
 25 27  1  0  0  0  0
 26 25  2  0  0  0  0
 27 29  1  0  0  0  0
 30 31  1  0  0  0  0
 32 30  1  0  0  0  0
 33 30  1  0  0  0  0
 33 37  1  0  0  0  0
 34 33  1  0  0  0  0
 35 33  1  0  0  0  0
 36 37  2  0  0  0  0
 36 43  1  0  0  0  0
 37 38  1  0  0  0  0
 38 39  1  0  0  0  0
 38 40  2  0  0  0  0
 40 41  1  0  0  0  0
 42 40  1  0  0  0  0
 43 42  2  0  0  0  0
 44 45  1  0  0  0  0
 45 46  2  0  0  0  0
 45 36  1  0  0  0  0
 47 45  2  0  0  0  0
M  END
>  <minimizedAffinity>
-5.72049713

$$$$
