
 OpenBabel03252505513D

 28 29  0  0  0  0  0  0  0  0999 V2000
   46.1700   32.2140   48.2780 C   0  0  0  0  0  0  0  0  0  0  0  0
   46.0670   32.3130   49.3750 H   0  0  0  0  0  0  0  0  0  0  0  0
   47.1950   32.5450   47.9420 H   0  0  0  0  0  0  0  0  0  0  0  0
   47.2440   30.0460   47.9730 C   0  0  0  0  0  0  0  0  0  0  0  0
   46.0650   30.7800   47.9100 C   0  0  0  0  0  0  0  0  0  0  0  0
   44.8980   30.1600   47.5160 C   0  0  0  0  0  0  0  0  0  0  0  0
   44.0150   30.8190   47.4980 H   0  0  0  0  0  0  0  0  0  0  0  0
   44.8140   28.8290   47.1700 C   0  0  0  0  0  0  0  0  0  0  0  0
   43.8720   28.3930   46.8670 H   0  0  0  0  0  0  0  0  0  0  0  0
   45.9850   28.0660   47.2230 C   0  0  0  0  0  3  0  0  0  0  0  0
   47.1320   28.7160   47.6210 C   0  0  0  0  0  3  0  0  0  0  0  0
   49.0000   31.8760   48.0120 H   0  0  0  0  0  0  0  0  0  0  0  0
   48.8090   30.6120   48.4420 S   0  0  0  0  0  0  0  0  0  0  0  0
   49.9130   29.7710   47.8600 O   0  0  0  0  0  0  0  0  0  0  0  0
   48.9520   30.5630   49.9570 O   0  0  0  0  0  0  0  0  0  0  0  0
   45.1660   33.0160   47.6860 O   0  0  0  0  0  0  0  0  0  0  0  0
   44.7210   35.3660   45.0510 C   0  0  0  0  0  0  0  0  0  0  0  0
   45.6000   34.9300   44.0660 C   0  0  0  0  0  0  0  0  0  0  0  0
   46.3660   33.7800   44.3380 C   0  0  0  0  0  0  0  0  0  0  0  0
   46.2150   33.1600   45.5310 N   0  0  0  0  0  0  0  0  0  0  0  0
   45.3440   33.6260   46.4570 C   0  0  0  0  0  0  0  0  0  0  0  0
   44.6080   34.7110   46.2230 N   0  0  0  0  0  0  0  0  0  0  0  0
   44.1250   36.2320   44.8810 H   0  0  0  0  0  0  0  0  0  0  0  0
   47.0440   33.4540   43.5620 H   0  0  0  0  0  0  0  0  0  0  0  0
   45.6720   35.7070   42.7880 C   0  0  0  0  0  0  0  0  0  0  0  0
   45.2670   36.9810   43.1280 F   0  0  0  0  0  0  0  0  0  0  0  0
   44.7860   35.1180   41.9130 F   0  0  0  0  0  0  0  0  0  0  0  0
   46.9680   35.6480   42.3220 F   0  0  0  0  0  0  0  0  0  0  0  0
  1  2  1  0  0  0  0
  3  1  1  0  0  0  0
  4 13  1  0  0  0  0
  5  4  1  0  0  0  0
  5  1  1  0  0  0  0
  6  5  2  0  0  0  0
  7  6  1  0  0  0  0
  8 10  2  0  0  0  0
  8  6  1  0  0  0  0
  9  8  1  0  0  0  0
 10 11  1  0  0  0  0
 11  4  2  0  0  0  0
 12 13  1  0  0  0  0
 13 15  2  0  0  0  0
 14 13  2  0  0  0  0
 16  1  1  0  0  0  0
 17 22  1  0  0  0  0
 18 19  1  0  0  0  0
 18 17  2  0  0  0  0
 19 20  2  0  0  0  0
 20 21  1  0  0  0  0
 21 16  1  0  0  0  0
 22 21  2  0  0  0  0
 23 17  1  0  0  0  0
 24 19  1  0  0  0  0
 25 26  1  0  0  0  0
 25 18  1  0  0  0  0
 27 25  1  0  0  0  0
 28 25  1  0  0  0  0
M  END
>  <minimizedAffinity>
-5.27413225

>  <minimizedRMSD>
0.976133764

$$$$
