
 OpenBabel03252508593D

 48 50  0  0  1  0  0  0  0  0999 V2000
   47.2270   33.8860   43.2260 N   0  0  0  0  0  0  0  0  0  0  0  0
   46.9330   35.1900   42.7350 C   0  0  0  0  0  0  0  0  0  0  0  0
   45.4940   35.6040   42.8100 C   0  0  0  0  0  0  0  0  0  0  0  0
   44.7360   35.0280   43.9720 C   0  0  0  0  0  0  0  0  0  0  0  0
   45.6340   34.2250   44.8850 C   0  0  0  0  0  0  0  0  0  0  0  0
   46.2760   33.1610   43.9230 C   0  0  2  0  0  0  0  0  0  0  0  0
   47.2820   35.4190   41.7270 H   0  0  0  0  0  0  0  0  0  0  0  0
   47.5020   35.9090   43.3980 H   0  0  0  0  0  0  0  0  0  0  0  0
   45.4110   36.7060   42.8740 H   0  0  0  0  0  0  0  0  0  0  0  0
   45.0170   35.3440   41.8260 H   0  0  0  0  0  0  0  0  0  0  0  0
   44.0030   34.3020   43.5550 H   0  0  0  0  0  0  0  0  0  0  0  0
   44.1540   35.7870   44.5170 H   0  0  0  0  0  0  0  0  0  0  0  0
   44.9860   33.6830   45.6020 H   0  0  0  0  0  0  0  0  0  0  0  0
   46.4350   34.8120   45.3550 H   0  0  0  0  0  0  0  0  0  0  0  0
   45.4150   32.7350   43.3710 H   0  0  0  0  0  0  0  0  0  0  0  0
   48.2150   33.1780   42.4560 C   0  0  0  0  0  0  0  0  0  0  0  0
   48.8590   33.9530   41.9670 H   0  0  0  0  0  0  0  0  0  0  0  0
   48.8860   32.5440   43.0360 H   0  0  0  0  0  0  0  0  0  0  0  0
   47.5140   32.3360   41.4320 C   0  0  0  0  0  0  0  0  0  0  0  0
   46.4260   32.5550   41.4240 H   0  0  0  0  0  0  0  0  0  0  0  0
   47.6310   31.2440   41.5910 H   0  0  0  0  0  0  0  0  0  0  0  0
   49.4050   32.2040   38.1870 C   0  0  0  0  0  0  0  0  0  0  0  0
   48.9180   31.8750   39.4670 C   0  0  0  0  0  0  0  0  0  0  0  0
   48.0160   32.7000   40.0830 C   0  0  0  0  0  0  0  0  0  0  0  0
   47.6340   33.7990   39.4230 N   0  0  0  0  0  0  0  0  0  0  0  0
   48.0980   34.1180   38.1990 C   0  0  0  0  0  0  0  0  0  0  0  0
   48.9830   33.3250   37.5750 N   0  0  0  0  0  0  0  0  0  0  0  0
   50.1210   31.5520   37.6970 H   0  0  0  0  0  0  0  0  0  0  0  0
   49.3080   30.9580   39.8870 H   0  0  0  0  0  0  0  0  0  0  0  0
   47.7290   35.0320   37.7430 H   0  0  0  0  0  0  0  0  0  0  0  0
   46.8600   32.2820   44.8220 O   0  0  0  0  0  0  0  0  0  0  0  0
   44.9720   30.6940   43.8400 O   0  0  0  0  0  0  0  0  0  0  0  0
   46.0640   30.8100   44.9130 P   0  0  2  0  0  0  0  0  0  0  0  0
   45.2060   30.8170   46.3960 O   0  0  0  0  0  0  0  0  0  0  0  0
   44.7630   29.9170   46.4320 H   0  0  0  0  0  0  0  0  0  0  0  0
   47.0660   29.4940   44.9260 O   0  0  0  0  0  0  0  0  0  0  0  0
   49.0550   29.2300   46.0010 C   0  0  0  0  0  0  0  0  0  0  0  0
   48.4300   29.4200   44.7630 C   0  0  0  0  0  0  0  0  0  0  0  0
   49.2250   29.4990   43.6380 C   0  0  0  0  0  0  0  0  0  0  0  0
   48.6350   29.6460   42.7450 H   0  0  0  0  0  0  0  0  0  0  0  0
   50.5960   29.3930   43.7400 C   0  0  0  0  0  0  0  0  0  0  0  0
   51.1470   29.4660   42.8080 H   0  0  0  0  0  0  0  0  0  0  0  0
   51.2250   29.2060   44.9540 C   0  0  0  0  0  3  0  0  0  0  0  0
   50.4470   29.1240   46.0920 C   0  0  0  0  0  3  0  0  0  0  0  0
   47.8300   30.3380   47.9890 H   0  0  0  0  0  0  0  0  0  0  0  0
   48.2310   29.1020   47.5570 S   0  0  0  0  0  0  0  0  0  0  0  0
   46.9910   28.2570   47.4270 O   0  0  0  0  0  0  0  0  0  0  0  0
   49.1940   28.4580   48.5360 O   0  0  0  0  0  0  0  0  0  0  0  0
  1  6  1  0  0  0  0
  2  3  1  0  0  0  0
  2  1  1  0  0  0  0
  2  8  1  0  0  0  0
  3  9  1  0  0  0  0
  3  4  1  0  0  0  0
  4 12  1  0  0  0  0
  4  5  1  0  0  0  0
  5 14  1  0  0  0  0
  5 13  1  0  0  0  0
  6 15  1  6  0  0  0
  6 31  1  0  0  0  0
  6  5  1  0  0  0  0
  7  2  1  0  0  0  0
 10  3  1  0  0  0  0
 11  4  1  0  0  0  0
 16 18  1  0  0  0  0
 16  1  1  0  0  0  0
 17 16  1  0  0  0  0
 19 21  1  0  0  0  0
 19 16  1  0  0  0  0
 20 19  1  0  0  0  0
 22 23  1  0  0  0  0
 23 29  1  0  0  0  0
 23 24  2  0  0  0  0
 24 19  1  0  0  0  0
 25 24  1  0  0  0  0
 26 25  2  0  0  0  0
 27 22  2  0  0  0  0
 27 26  1  0  0  0  0
 28 22  1  0  0  0  0
 30 26  1  0  0  0  0
 31 33  1  0  0  0  0
 33 32  2  6  0  0  0
 33 36  1  0  0  0  0
 33 34  1  0  0  0  0
 34 35  1  0  0  0  0
 37 44  1  0  0  0  0
 37 46  1  0  0  0  0
 38 36  1  0  0  0  0
 38 37  2  0  0  0  0
 39 41  2  0  0  0  0
 39 38  1  0  0  0  0
 40 39  1  0  0  0  0
 41 43  1  0  0  0  0
 42 41  1  0  0  0  0
 43 44  2  0  0  0  0
 46 45  1  0  0  0  0
 46 48  2  0  0  0  0
 47 46  2  0  0  0  0
M  END
>  <minimizedAffinity>
-4.04742956

>  <minimizedRMSD>
1.50089717

$$$$
