
     RDKit          3D

 49 52  0  0  0  0  0  0  0  0999 V2000
   45.1296   36.0149   42.9153 C   0  0  0  0  0  0  0  0  0  0  0  0
   45.3713   34.6506   42.9097 C   0  0  0  0  0  0  0  0  0  0  0  0
   45.2157   33.9202   44.0622 C   0  0  0  0  0  0  0  0  0  0  0  0
   44.8139   34.6108   45.1884 N   0  0  0  0  0  0  0  0  0  0  0  0
   44.5828   35.9206   45.1886 C   0  0  0  0  0  0  0  0  0  0  0  0
   44.7457   36.6125   44.0407 N   0  0  0  0  0  0  0  0  0  0  0  0
   45.4207   32.5301   44.2209 C   0  0  0  0  0  0  0  0  0  0  0  0
   44.9413   31.5618   43.3334 C   0  0  0  0  0  0  0  0  0  0  0  0
   45.0796   30.2110   43.5187 C   0  0  0  0  0  0  0  0  0  0  0  0
   45.7260   29.7394   44.6391 C   0  0  0  0  0  0  0  0  0  0  0  0
   46.2186   30.7045   45.5466 C   0  0  0  0  0  0  0  0  0  0  0  0
   46.8626   30.2509   46.6735 C   0  0  0  0  0  0  0  0  0  0  0  0
   47.3686   31.1345   47.6047 C   0  0  0  0  0  0  0  0  0  0  0  0
   47.2227   32.5153   47.3927 C   0  0  0  0  0  0  0  0  0  0  0  0
   46.5570   32.9373   46.2280 C   0  0  0  0  0  0  0  0  0  0  0  0
   46.0633   32.0353   45.3263 C   0  0  0  0  0  0  0  0  0  0  0  0
   45.7597   34.0888   41.7240 O   0  0  0  0  0  0  0  0  0  0  0  0
   47.6807   32.4297   41.0875 O   0  0  0  0  0  0  0  0  0  0  0  0
   47.3701   33.8769   41.2439 P   0  0  1  0  0  0  0  0  0  0  0  0
   47.6516   34.6060   39.7405 O   0  0  0  0  0  0  0  0  0  0  0  0
   48.3620   34.5949   42.3885 O   0  0  0  0  0  0  0  0  0  0  0  0
   49.5348   35.2923   42.1490 C   0  0  0  0  0  0  0  0  0  0  0  0
   49.2035   36.2116   41.3774 O   0  0  0  0  0  0  0  0  0  0  0  0
   50.6392   34.7001   42.8623 N   0  0  0  0  0  0  0  0  0  0  0  0
   45.2422   36.6258   42.0264 H   0  0  0  0  0  0  0  0  0  0  0  0
   44.2680   36.4340   46.0919 H   0  0  0  0  0  0  0  0  0  0  0  0
   44.4308   31.9337   42.4491 H   0  0  0  0  0  0  0  0  0  0  0  0
   44.6840   29.5076   42.7897 H   0  0  0  0  0  0  0  0  0  0  0  0
   45.8690   28.6874   44.8487 H   0  0  0  0  0  0  0  0  0  0  0  0
   46.9668   29.1824   46.8189 H   0  0  0  0  0  0  0  0  0  0  0  0
   47.8629   30.7061   48.4696 H   0  0  0  0  0  0  0  0  0  0  0  0
   47.6491   33.1294   48.1687 H   0  0  0  0  0  0  0  0  0  0  0  0
   46.5673   34.0062   46.2357 H   0  0  0  0  0  0  0  0  0  0  0  0
   50.6149   34.8174   43.9188 H   0  0  0  0  0  0  0  0  0  0  0  0
   51.4632   34.1698   42.4861 H   0  0  0  0  0  0  0  0  0  0  0  0
   49.9130   33.3943   39.1847 H   0  0  0  0  0  0  0  0  0  0  0  0
   49.4628   32.9998   37.9534 S   0  0  0  0  0  0  0  0  0  0  0  0
   50.2528   33.6933   36.8602 O   0  0  0  0  0  0  0  0  0  0  0  0
   49.7147   31.5246   37.8307 O   0  0  0  0  0  0  0  0  0  0  0  0
   47.7651   33.3600   37.7409 C   0  0  0  0  0  0  0  0  0  0  0  0
   47.0007   34.1119   38.6171 C   0  0  0  0  0  0  0  0  0  0  0  0
   45.6706   34.3263   38.3388 C   0  0  0  0  0  0  0  0  0  0  0  0
   45.0821   34.9044   39.0121 H   0  0  0  0  0  0  0  0  0  0  0  0
   45.1041   33.7954   37.1950 C   0  0  0  0  0  0  0  0  0  0  0  0
   44.0501   33.9779   36.9952 H   0  0  0  0  0  0  0  0  0  0  0  0
   45.8496   33.0411   36.3057 C   0  0  0  0  0  0  0  0  0  0  0  0
   47.1837   32.8308   36.5926 C   0  0  0  0  0  0  0  0  0  0  0  0
   45.3525   32.6527   35.4295 H   0  0  0  0  0  0  0  0  0  0  0  0
   47.7193   32.2277   35.8530 H   0  0  0  0  0  0  0  0  0  0  0  0
  1  6  2  0
  2  1  1  0
  2  3  2  0
  3  7  1  0
  3  4  1  0
  5  4  2  0
  6  5  1  0
  7 16  2  0
  8  9  2  0
  8  7  1  0
  9 10  1  0
 10 11  2  0
 11 12  1  0
 12 13  2  0
 14 13  1  0
 15 14  2  0
 16 11  1  0
 16 15  1  0
 17  2  1  0
 19 18  2  0
 19 17  1  1
 19 21  1  0
 20 19  1  0
 22 21  1  0
 22 24  1  0
 23 22  2  0
  1 25  1  0
  5 26  1  0
  8 27  1  0
  9 28  1  0
 10 29  1  0
 12 30  1  0
 13 31  1  0
 14 32  1  0
 15 33  1  0
 24 34  1  0
 24 35  1  0
 36 37  1  0
 37 38  2  0
 37 39  2  0
 37 40  1  0
 40 41  2  0
 41 42  1  0
 42 43  1  0
 42 44  2  0
 44 45  1  0
 44 46  1  0
 46 47  2  0
 47 40  1  0
 46 48  1  0
 47 49  1  0
 20 41  1  0
M  ISO  8  25  14  26  14  27  14  28  14  29  14  30  14  31  14  32  14
M  ISO  4  33  14  36  12  43  15  45  16
M  END
>  <DihAtoms>  (1) 
18,19,40,39

>  <DihDeg>  (1) 
-179.99963825154796

$$$$
