
 OpenBabel03242513043D

 38 41  0  0  0  0  0  0  0  0999 V2000
   45.5210   32.8110   41.6480 C   0  0  0  0  0  0  0  0  0  0  0  0
   46.6030   33.4690   41.0780 C   0  0  0  0  0  0  0  0  0  0  0  0
   47.7150   33.6540   41.8920 C   0  0  0  0  0  0  0  0  0  0  0  0
   47.6570   33.1780   43.1730 N   0  0  0  0  0  0  0  0  0  0  0  0
   46.5900   32.5450   43.6870 C   0  0  0  0  0  0  0  0  0  0  0  0
   45.5110   32.3590   42.9150 N   0  0  0  0  0  0  0  0  0  0  0  0
   44.6040   32.6010   41.1170 H   0  0  0  0  0  0  0  0  0  0  0  0
   47.3670   30.9470   45.3940 C   0  0  0  0  0  0  0  0  0  0  0  0
   46.6290   32.0780   45.0560 C   0  0  0  0  0  0  0  0  0  0  0  0
   45.9040   32.8070   45.9930 C   0  0  0  0  0  0  0  0  0  0  0  0
   45.9080   32.3990   47.3290 C   0  0  0  0  0  0  0  0  0  0  0  0
   45.3290   32.8620   48.4780 N   0  0  0  0  0  0  0  0  0  0  0  0
   45.7280   31.9990   49.4910 C   0  0  0  0  0  0  0  0  0  0  0  0
   46.5330   31.0420   48.9370 N   0  0  0  0  0  0  0  0  0  0  0  0
   46.6510   31.2750   47.6210 C   0  0  0  0  0  0  0  0  0  0  0  0
   47.3720   30.5390   46.7240 C   0  0  0  0  0  0  0  0  0  0  0  0
   47.9060   30.4300   44.6120 H   0  0  0  0  0  0  0  0  0  0  0  0
   45.3330   33.6860   45.7260 H   0  0  0  0  0  0  0  0  0  0  0  0
   44.7410   33.6980   48.4280 H   0  0  0  0  0  0  0  0  0  0  0  0
   45.3740   32.1920   50.4950 H   0  0  0  0  0  0  0  0  0  0  0  0
   47.9340   29.6760   46.9850 H   0  0  0  0  0  0  0  0  0  0  0  0
   48.9170   34.3460   41.3720 C   0  0  0  0  0  0  0  0  0  0  0  0
   48.5490   35.5180   40.7000 F   0  0  0  0  0  0  0  0  0  0  0  0
   49.7440   34.7240   42.3890 F   0  0  0  0  0  0  0  0  0  0  0  0
   49.5630   33.5040   40.5010 F   0  0  0  0  0  0  0  0  0  0  0  0
   46.5690   33.9090   39.7950 O   0  0  0  0  0  0  0  0  0  0  0  0
   46.7130   33.0200   37.6800 C   0  0  0  0  0  0  0  0  0  0  0  0
   45.9250   33.2520   38.7880 C   0  0  0  0  0  0  0  0  0  0  0  0
   44.6180   32.8110   38.7620 C   0  0  0  0  0  0  0  0  0  0  0  0
   44.0730   33.0360   39.6740 H   0  0  0  0  0  0  0  0  0  0  0  0
   44.0430   32.1550   37.7070 C   0  0  0  0  0  0  0  0  0  0  0  0
   42.9960   31.8470   37.7920 H   0  0  0  0  0  0  0  0  0  0  0  0
   44.8320   31.9230   36.6000 C   0  0  0  0  0  0  0  0  0  0  0  0
   46.1620   32.3520   36.5800 C   0  0  0  0  0  0  0  0  0  0  0  0
   49.2610   32.7660   38.1870 H   0  0  0  0  0  0  0  0  0  0  0  0
   48.3950   33.4040   37.3780 S   0  0  0  0  0  0  0  0  0  0  0  0
   48.7350   33.1060   35.9290 O   0  0  0  0  0  0  0  0  0  0  0  0
   48.6170   34.8940   37.5400 O   0  0  0  0  0  0  0  0  0  0  0  0
  1  6  1  0  0  0  0
  2  1  2  0  0  0  0
  2  3  1  0  0  0  0
  3  4  2  0  0  0  0
  4  5  1  0  0  0  0
  5  9  1  0  0  0  0
  6  5  2  0  0  0  0
  7  1  1  0  0  0  0
  8 16  1  0  0  0  0
  9  8  2  0  0  0  0
  9 10  1  0  0  0  0
 10 11  2  0  0  0  0
 11 15  1  0  0  0  0
 11 12  1  0  0  0  0
 12 13  1  0  0  0  0
 13 20  1  0  0  0  0
 14 13  2  0  0  0  0
 15 14  1  0  0  0  0
 16 21  1  0  0  0  0
 16 15  2  0  0  0  0
 17  8  1  0  0  0  0
 18 10  1  0  0  0  0
 19 12  1  0  0  0  0
 22  3  1  0  0  0  0
 22 24  1  0  0  0  0
 23 22  1  0  0  0  0
 25 22  1  0  0  0  0
 26  2  1  0  0  0  0
 27 28  1  0  0  0  0
 28 26  1  0  0  0  0
 29 28  2  0  0  0  0
 29 30  1  0  0  0  0
 31 32  1  0  0  0  0
 31 29  1  0  0  0  0
 33 31  2  0  0  0  0
 34 33  1  0  0  0  0
 34 27  2  0  0  0  0
 36 38  2  0  0  0  0
 36 27  1  0  0  0  0
 36 35  1  0  0  0  0
 37 36  2  0  0  0  0
M  END
>  <minimizedAffinity>
-5.95424843

>  <minimizedRMSD>
1.17730689

$$$$
