REMARK  Name = 
REMARK  5 active torsions:
REMARK  status: ('A' for Active; 'I' for Inactive)
REMARK    1  A    between atoms: C_2  and  C_15
REMARK    2  A    between atoms: C_5  and  C_9
REMARK    3  A    between atoms: C_15  and  C_16
REMARK    4  A    between atoms: C_16  and  C_31
REMARK    5  A    between atoms: S_27  and  C_30
REMARK                            x       y       z     vdW  Elec       q    Type
REMARK                         _______ _______ _______ _____ _____    ______ ____
ROOT
ATOM      1  C   UNL     1      46.849  34.873  42.702  0.00  0.00    +0.000 A 
ATOM      2  C   UNL     1      48.060  34.536  42.078  0.00  0.00    +0.000 A 
ATOM      3  C   UNL     1      48.766  33.461  42.596  0.00  0.00    +0.000 A 
ATOM      4  N   UNL     1      48.234  32.811  43.670  0.00  0.00    +0.000 NA
ATOM      5  C   UNL     1      47.083  33.150  44.245  0.00  0.00    +0.000 A 
ATOM      6  N   UNL     1      46.382  34.192  43.756  0.00  0.00    +0.000 NA
ATOM      7  H   UNL     1      46.226  35.702  42.370  0.00  0.00    +0.000 HD
ATOM      8  H   UNL     1      49.700  33.164  42.154  0.00  0.00    +0.000 HD
ENDROOT
BRANCH   5  11
ATOM      9 CL   UNL     1      46.000  30.366  43.595  0.00  0.00    +0.000 Cl
ATOM     10  C   UNL     1      46.062  31.130  45.196  0.00  0.00    +0.000 A 
ATOM     11  C   UNL     1      46.577  32.406  45.392  0.00  0.00    +0.000 A 
ATOM     12  C   UNL     1      46.612  32.969  46.640  0.00  0.00    +0.000 A 
ATOM     13  C   UNL     1      46.125  32.250  47.725  0.00  0.00    +0.000 A 
ATOM     14  C   UNL     1      45.624  30.994  47.494  0.00  0.00    +0.000 A 
ATOM     15 CL   UNL     1      45.013  30.103  48.864  0.00  0.00    +0.000 Cl
ATOM     16  C   UNL     1      45.572  30.398  46.263  0.00  0.00    +0.000 A 
ATOM     17  H   UNL     1      47.005  33.959  46.831  0.00  0.00    +0.000 HD
ATOM     18  H   UNL     1      46.132  32.656  48.731  0.00  0.00    +0.000 HD
ATOM     19  H   UNL     1      45.157  29.389  46.156  0.00  0.00    +0.000 HD
ENDBRANCH   5  11
BRANCH   2  20
ATOM     20  C   UNL     1      48.511  35.319  40.941  0.00  0.00    +0.000 C 
ATOM     21  H   UNL     1      47.998  36.302  40.929  0.00  0.00    +0.000 HD
ATOM     22  H   UNL     1      49.580  35.527  41.051  0.00  0.00    +0.000 HD
BRANCH  20  23
ATOM     23  C   UNL     1      48.128  34.612  39.668  0.00  0.00    +0.000 C 
ATOM     24  H   UNL     1      48.405  35.312  38.836  0.00  0.00    +0.000 HD
ATOM     25  H   UNL     1      47.006  34.608  39.654  0.00  0.00    +0.000 HD
BRANCH  23  27
ATOM     26  C   UNL     1      48.225  32.248  40.309  0.00  0.00    +0.000 A 
ATOM     27  C   UNL     1      48.706  33.273  39.521  0.00  0.00    +0.000 A 
ATOM     28  C   UNL     1      49.706  33.049  38.596  0.00  0.00    +0.000 A 
ATOM     29  H   UNL     1      50.069  33.888  37.981  0.00  0.00    +0.000 HD
ATOM     30  C   UNL     1      50.277  31.813  38.405  0.00  0.00    +0.000 A 
ATOM     31  H   UNL     1      51.059  31.692  37.668  0.00  0.00    +0.000 HD
ATOM     32  C   UNL     1      49.776  30.801  39.209  0.00  0.00    +0.000 A 
ATOM     33  C   UNL     1      48.784  30.977  40.141  0.00  0.00    +0.000 A 
BRANCH  26  35
ATOM     34  H   UNL     1      46.965  33.679  42.066  0.00  0.00    +0.000 HD
ATOM     35  S   UNL     1      46.984  32.415  41.501  0.00  0.00    +0.000 S 
ATOM     36  O   UNL     1      45.624  31.989  41.025  0.00  0.00    +0.000 OA
ATOM     37  O   UNL     1      47.310  31.477  42.654  0.00  0.00    +0.000 OA
ENDBRANCH  26  35
ENDBRANCH  23  27
ENDBRANCH  20  23
ENDBRANCH   2  20
TORSDOF 5
