REMARK  Name = 
REMARK  4 active torsions:
REMARK  status: ('A' for Active; 'I' for Inactive)
REMARK    1  A    between atoms: C_1  and  C_5
REMARK    2  A    between atoms: C_3  and  N_10
REMARK    3  A    between atoms: C_15  and  C_37
REMARK    4  A    between atoms: S_33  and  C_36
REMARK                            x       y       z     vdW  Elec       q    Type
REMARK                         _______ _______ _______ _____ _____    ______ ____
ROOT
ATOM      1  N   UNL     1      49.306  33.192  41.495  0.00  0.00    +0.000 NA
ATOM      2  C   UNL     1      50.646  33.118  41.988  0.00  0.00    +0.000 C 
ATOM      3  C   UNL     1      51.339  31.822  41.788  0.00  0.00    +0.000 C 
ATOM      4  C   UNL     1      50.626  30.736  42.535  0.00  0.00    +0.000 C 
ATOM      5  C   UNL     1      49.161  30.995  42.556  0.00  0.00    +0.000 C 
ATOM      6  C   UNL     1      48.710  31.868  41.458  0.00  0.00    +0.000 C 
ATOM      7  H   UNL     1      50.648  33.311  43.098  0.00  0.00    +0.000 HD
ATOM      8  H   UNL     1      51.312  33.908  41.533  0.00  0.00    +0.000 HD
ATOM      9  H   UNL     1      51.650  31.554  40.784  0.00  0.00    +0.000 HD
ATOM     10  H   UNL     1      52.333  31.938  42.344  0.00  0.00    +0.000 HD
ATOM     11  H   UNL     1      50.866  29.725  42.092  0.00  0.00    +0.000 HD
ATOM     12  H   UNL     1      50.989  30.679  43.584  0.00  0.00    +0.000 HD
ATOM     13  H   UNL     1      48.674  30.034  42.580  0.00  0.00    +0.000 HD
ATOM     14  H   UNL     1      48.873  31.507  43.517  0.00  0.00    +0.000 HD
ATOM     15  H   UNL     1      47.641  32.144  41.755  0.00  0.00    +0.000 HD
ENDROOT
BRANCH   6  17
ATOM     16  C   UNL     1      48.318  29.935  39.993  0.00  0.00    +0.000 A 
ATOM     17  C   UNL     1      48.562  31.315  40.114  0.00  0.00    +0.000 A 
ATOM     18  C   UNL     1      48.618  32.048  38.918  0.00  0.00    +0.000 A 
ATOM     19  H   UNL     1      48.790  33.114  38.974  0.00  0.00    +0.000 HD
ATOM     20  C   UNL     1      48.460  31.542  37.669  0.00  0.00    +0.000 A 
ATOM     21  H   UNL     1      48.516  32.166  36.788  0.00  0.00    +0.000 HD
ATOM     22  C   UNL     1      48.222  30.202  37.528  0.00  0.00    +0.000 A 
ATOM     23  C   UNL     1      48.160  29.450  38.683  0.00  0.00    +0.000 A 
BRANCH  16  25
ATOM     24  H   UNL     1      49.437  28.305  41.695  0.00  0.00    +0.000 HD
ATOM     25  S   UNL     1      48.205  28.816  41.289  0.00  0.00    +0.000 S 
ATOM     26  O   UNL     1      47.350  29.184  42.435  0.00  0.00    +0.000 OA
ATOM     27  O   UNL     1      47.529  27.540  40.770  0.00  0.00    +0.000 OA
ENDBRANCH  16  25
ENDBRANCH   6  17
BRANCH   1  30
ATOM     28  C   UNL     1      47.191  34.561  42.014  0.00  0.00    +0.000 C 
ATOM     29  C   UNL     1      48.299  35.436  41.698  0.00  0.00    +0.000 C 
ATOM     30  C   UNL     1      48.613  34.126  42.342  0.00  0.00    +0.000 C 
ATOM     31  H   UNL     1      46.734  33.893  41.240  0.00  0.00    +0.000 HD
ATOM     32  H   UNL     1      48.405  36.360  42.333  0.00  0.00    +0.000 HD
ATOM     33  H   UNL     1      48.626  35.636  40.668  0.00  0.00    +0.000 HD
ATOM     34  H   UNL     1      48.909  34.130  43.405  0.00  0.00    +0.000 HD
BRANCH  28  36
ATOM     35  C   UNL     1      45.512  36.034  43.191  0.00  0.00    +0.000 A 
ATOM     36  C   UNL     1      46.280  34.837  43.153  0.00  0.00    +0.000 A 
ATOM     37  C   UNL     1      46.140  33.962  44.214  0.00  0.00    +0.000 A 
ATOM     38  N   UNL     1      45.282  34.308  45.209  0.00  0.00    +0.000 NA
ATOM     39  C   UNL     1      44.566  35.448  45.220  0.00  0.00    +0.000 A 
ATOM     40  N   UNL     1      44.675  36.336  44.196  0.00  0.00    +0.000 NA
ATOM     41  H   UNL     1      45.666  36.681  42.328  0.00  0.00    +0.000 HD
ATOM     42  H   UNL     1      46.698  33.037  44.241  0.00  0.00    +0.000 HD
ATOM     43  H   UNL     1      43.897  35.670  46.042  0.00  0.00    +0.000 HD
ENDBRANCH  28  36
ENDBRANCH   1  30
TORSDOF 4
