
     RDKit          3D

 39 42  0  0  0  0  0  0  0  0999 V2000
   45.9073   33.7101   45.4132 C   0  0  0  0  0  0  0  0  0  0  0  0
   44.9238   34.6202   45.6631 N   0  0  0  0  0  0  0  0  0  0  0  0
   44.5398   35.5975   44.8562 C   0  0  0  0  0  0  0  0  0  0  0  0
   45.1552   35.7435   43.6596 N   0  0  0  0  0  0  0  0  0  0  0  0
   46.1435   34.9080   43.2936 C   0  0  0  0  0  0  0  0  0  0  0  0
   46.7655   35.0696   42.0640 C   0  0  0  0  0  0  0  0  0  0  0  0
   47.7754   34.2262   41.6751 C   0  0  0  0  0  0  0  0  0  0  0  0
   48.1412   33.2256   42.5449 C   0  0  0  0  0  0  0  0  0  0  0  0
   47.4909   33.1064   43.7581 C   0  0  0  0  0  0  0  0  0  0  0  0
   46.4817   33.9203   44.1888 C   0  0  0  0  0  0  0  0  0  0  0  0
   47.6721   32.2839   48.1920 C   0  0  0  0  0  0  0  0  0  0  0  0
   47.2643   30.9466   48.2751 C   0  0  0  0  0  0  0  0  0  0  0  0
   46.3564   30.5114   47.3535 C   0  0  0  0  0  0  0  0  0  0  0  0
   45.9167   31.3855   46.4351 N   0  0  0  0  0  0  0  0  0  0  0  0
   46.2927   32.6475   46.3459 C   0  0  0  0  0  0  0  0  0  0  0  0
   47.1737   33.0647   47.2425 N   0  0  0  0  0  0  0  0  0  0  0  0
   47.8156   30.1521   49.2952 N   0  0  0  0  0  0  0  0  0  0  0  0
   43.7464   36.2777   45.1363 H   0  0  0  0  0  0  0  0  0  0  0  0
   46.4034   35.8921   41.4472 H   0  0  0  0  0  0  0  0  0  0  0  0
   48.1972   34.4325   40.7006 H   0  0  0  0  0  0  0  0  0  0  0  0
   48.9352   32.5750   42.2209 H   0  0  0  0  0  0  0  0  0  0  0  0
   47.8283   32.2888   44.4073 H   0  0  0  0  0  0  0  0  0  0  0  0
   48.4058   32.6420   48.9340 H   0  0  0  0  0  0  0  0  0  0  0  0
   47.0964   30.3512   50.0535 H   0  0  0  0  0  0  0  0  0  0  0  0
   48.6553   29.7809   48.7568 H   0  0  0  0  0  0  0  0  0  0  0  0
   44.1514   30.7650   49.6138 H   0  0  0  0  0  0  0  0  0  0  0  0
   44.8246   29.5775   49.8401 S   0  0  0  0  0  0  0  0  0  0  0  0
   46.0397   29.7523   50.6936 O   0  0  0  0  0  0  0  0  0  0  0  0
   43.8525   28.7751   50.6970 O   0  0  0  0  0  0  0  0  0  0  0  0
   45.1135   28.6721   48.3844 C   0  0  0  0  0  0  0  0  0  0  0  0
   45.8220   29.1666   47.2832 C   0  0  0  0  0  0  0  0  0  0  0  0
   45.9333   28.2884   46.2364 C   0  0  0  0  0  0  0  0  0  0  0  0
   46.4617   28.5902   45.3546 H   0  0  0  0  0  0  0  0  0  0  0  0
   45.4382   27.0093   46.1523 C   0  0  0  0  0  0  0  0  0  0  0  0
   45.5666   26.3768   45.2926 H   0  0  0  0  0  0  0  0  0  0  0  0
   44.7412   26.5215   47.2347 C   0  0  0  0  0  0  0  0  0  0  0  0
   44.6023   27.3672   48.3123 C   0  0  0  0  0  0  0  0  0  0  0  0
   44.3271   25.5293   47.2358 H   0  0  0  0  0  0  0  0  0  0  0  0
   44.0444   26.9428   49.1486 H   0  0  0  0  0  0  0  0  0  0  0  0
  1  2  2  0
  1 15  1  0
  3  2  1  0
  4  3  2  0
  5  4  1  0
  5 10  2  0
  6  5  1  0
  7  6  2  0
  7  8  1  0
  8  9  2  0
  9 10  1  0
 10  1  1  0
 11 12  2  0
 12 17  1  0
 13 12  1  0
 14 13  2  0
 15 14  1  0
 15 16  2  0
 16 11  1  0
  3 18  1  0
  6 19  1  0
  7 20  1  0
  8 21  1  0
  9 22  1  0
 11 23  1  0
 17 24  1  0
 17 25  1  0
 26 27  1  0
 27 28  2  0
 27 29  2  0
 27 30  1  0
 30 31  2  0
 31 32  1  0
 32 33  1  0
 32 34  2  0
 34 35  1  0
 34 36  1  0
 36 37  2  0
 37 30  1  0
 36 38  1  0
 37 39  1  0
 13 31  1  0
M  ISO  8  18  14  19  14  20  14  21  14  22  14  23  14  26  12  33  15
M  ISO  1  35  16
M  END
>  <DihAtoms>  (1) 
11,12,30,29

>  <DihDeg>  (1) 
-179.58237377966637

$$$$
