
 OpenBabel03252506333D

 36 38  0  0  1  0  0  0  0  0999 V2000
   44.4730   35.7560   44.9580 C   0  0  0  0  0  0  0  0  0  0  0  0
   45.1410   35.7180   43.7240 C   0  0  0  0  0  0  0  0  0  0  0  0
   46.0500   34.7310   43.5040 C   0  0  0  0  0  0  0  0  0  0  0  0
   46.2470   33.8470   44.5050 N   0  0  0  0  0  0  0  0  0  0  0  0
   45.6160   33.8830   45.6740 C   0  0  0  0  0  0  0  0  0  0  0  0
   44.7090   34.8370   45.9370 N   0  0  0  0  0  0  0  0  0  0  0  0
   45.9200   32.8910   46.6440 N   0  0  0  0  0  0  0  0  0  0  0  0
   45.1100   32.6060   47.8250 C   0  0  0  0  0  0  0  0  0  0  0  0
   46.1930   32.3220   48.8590 C   0  0  0  0  0  0  0  0  0  0  0  0
   47.4930   32.1720   48.1150 C   0  0  0  0  0  0  0  0  0  0  0  0
   47.0450   31.9830   46.6830 C   0  0  1  0  0  0  0  0  0  0  0  0
   43.7280   36.5160   45.2100 H   0  0  0  0  0  0  0  0  0  0  0  0
   46.5330   34.7340   42.5620 H   0  0  0  0  0  0  0  0  0  0  0  0
   44.4360   31.7490   47.6730 H   0  0  0  0  0  0  0  0  0  0  0  0
   44.5620   33.4920   48.1790 H   0  0  0  0  0  0  0  0  0  0  0  0
   45.9330   31.3590   49.3390 H   0  0  0  0  0  0  0  0  0  0  0  0
   46.2130   33.0760   49.6600 H   0  0  0  0  0  0  0  0  0  0  0  0
   48.0880   31.2980   48.4820 H   0  0  0  0  0  0  0  0  0  0  0  0
   48.0460   33.1260   48.2210 H   0  0  0  0  0  0  0  0  0  0  0  0
   47.8760   32.2980   46.0430 H   0  0  0  0  0  0  0  0  0  0  0  0
   44.7600   36.7690   42.8310 N   0  0  0  0  0  0  0  0  0  0  0  0
   43.8210   37.0000   42.4730 H   0  0  0  0  0  0  0  0  0  0  0  0
   45.6860   37.2370   42.6410 H   0  0  0  0  0  0  0  0  0  0  0  0
   46.5370   30.2660   46.4770 S   0  0  0  0  0  0  0  0  0  0  0  0
   48.0070   27.9990   45.6130 C   0  0  0  0  0  0  0  0  0  0  0  0
   47.6910   29.3330   45.4900 C   0  0  0  0  0  0  0  0  0  0  0  0
   48.3110   30.0960   44.4970 C   0  0  0  0  0  0  0  0  0  0  0  0
   48.1240   31.1570   44.3250 H   0  0  0  0  0  0  0  0  0  0  0  0
   49.2310   29.4990   43.6550 C   0  0  0  0  0  0  0  0  0  0  0  0
   49.7200   30.0750   42.8810 H   0  0  0  0  0  0  0  0  0  0  0  0
   49.5560   28.1680   43.7680 C   0  0  0  0  0  3  0  0  0  0  0  0
   48.9320   27.4340   44.7560 C   0  0  0  0  0  3  0  0  0  0  0  0
   46.1000   27.8810   47.3160 H   0  0  0  0  0  0  0  0  0  0  0  0
   47.1710   27.1480   46.8880 S   0  0  0  0  0  0  0  0  0  0  0  0
   46.6090   25.8520   46.3260 O   0  0  0  0  0  0  0  0  0  0  0  0
   48.0730   26.7400   48.0080 O   0  0  0  0  0  0  0  0  0  0  0  0
  1 12  1  0  0  0  0
  1  6  1  0  0  0  0
  2  1  2  0  0  0  0
  3  2  1  0  0  0  0
  3  4  2  0  0  0  0
  4  5  1  0  0  0  0
  5  6  2  0  0  0  0
  5  7  1  0  0  0  0
  7 11  1  0  0  0  0
  7  8  1  0  0  0  0
  8 15  1  0  0  0  0
  8  9  1  0  0  0  0
  9 16  1  0  0  0  0
  9 17  1  0  0  0  0
 10 19  1  0  0  0  0
 10 18  1  0  0  0  0
 10  9  1  0  0  0  0
 11 20  1  6  0  0  0
 11 10  1  0  0  0  0
 13  3  1  0  0  0  0
 14  8  1  0  0  0  0
 21  2  1  0  0  0  0
 22 21  1  0  0  0  0
 23 21  1  0  0  0  0
 24 11  1  0  0  0  0
 25 34  1  0  0  0  0
 26 25  1  0  0  0  0
 26 24  1  0  0  0  0
 27 26  2  0  0  0  0
 28 27  1  0  0  0  0
 29 31  2  0  0  0  0
 29 27  1  0  0  0  0
 30 29  1  0  0  0  0
 31 32  1  0  0  0  0
 32 25  2  0  0  0  0
 34 33  1  0  0  0  0
 34 36  2  0  0  0  0
 35 34  2  0  0  0  0
M  END
>  <minimizedAffinity>
-5.00641155

>  <minimizedRMSD>
2.30558014

$$$$
