
     RDKit          3D

 38 40  0  0  0  0  0  0  0  0999 V2000
   46.7139   34.7731   42.0563 C   0  0  0  0  0  0  0  0  0  0  0  0
   47.9509   35.3712   41.8238 C   0  0  0  0  0  0  0  0  0  0  0  0
   48.7038   35.2061   40.6643 C   0  0  0  0  0  0  0  0  0  0  0  0
   48.1945   34.3938   39.6712 C   0  0  0  0  0  0  0  0  0  0  0  0
   46.9938   33.8236   39.9129 C   0  0  0  0  0  0  0  0  0  0  0  0
   46.2954   34.0006   41.0347 N   0  0  0  0  0  0  0  0  0  0  0  0
   44.4646   35.9841   44.8109 C   0  0  0  0  0  0  0  0  0  0  0  0
   45.0976   35.9823   43.5559 C   0  0  0  0  0  0  0  0  0  0  0  0
   45.9637   34.9561   43.2835 C   0  0  0  0  0  0  0  0  0  0  0  0
   46.1615   33.9952   44.2461 N   0  0  0  0  0  0  0  0  0  0  0  0
   45.5409   34.0213   45.4421 C   0  0  0  0  0  0  0  0  0  0  0  0
   44.6939   35.0222   45.7126 N   0  0  0  0  0  0  0  0  0  0  0  0
   46.4648   33.0080   38.9298 O   0  0  0  0  0  0  0  0  0  0  0  0
   47.7509   34.3387   37.0463 O   0  0  0  0  0  0  0  0  0  0  0  0
   46.6562   33.3117   37.2629 P   0  0  1  0  0  0  0  0  0  0  0  0
   47.0744   31.8728   36.4842 O   0  0  0  0  0  0  0  0  0  0  0  0
   45.1854   33.9223   36.6795 O   0  0  0  0  0  0  0  0  0  0  0  0
   48.2871   36.0021   42.6617 H   0  0  0  0  0  0  0  0  0  0  0  0
   49.6379   35.7635   40.6920 H   0  0  0  0  0  0  0  0  0  0  0  0
   48.9134   34.3747   38.8739 H   0  0  0  0  0  0  0  0  0  0  0  0
   43.7984   36.8206   44.9543 H   0  0  0  0  0  0  0  0  0  0  0  0
   44.9655   36.7148   42.7847 H   0  0  0  0  0  0  0  0  0  0  0  0
   45.7753   33.2114   46.1187 H   0  0  0  0  0  0  0  0  0  0  0  0
   48.0363   31.6841   36.5300 H   0  0  0  0  0  0  0  0  0  0  0  0
   46.3093   33.0739   34.4873 H   0  0  0  0  0  0  0  0  0  0  0  0
   45.4308   32.0326   34.3760 S   0  0  0  0  0  0  0  0  0  0  0  0
   46.1480   30.7400   34.6467 O   0  0  0  0  0  0  0  0  0  0  0  0
   44.8729   31.9368   32.9832 O   0  0  0  0  0  0  0  0  0  0  0  0
   44.1300   32.1658   35.5430 C   0  0  0  0  0  0  0  0  0  0  0  0
   44.0845   33.0808   36.6012 C   0  0  0  0  0  0  0  0  0  0  0  0
   42.9999   33.0826   37.4524 C   0  0  0  0  0  0  0  0  0  0  0  0
   43.0057   33.7969   38.2459 H   0  0  0  0  0  0  0  0  0  0  0  0
   41.9467   32.2046   37.2957 C   0  0  0  0  0  0  0  0  0  0  0  0
   41.1150   32.2434   37.9902 H   0  0  0  0  0  0  0  0  0  0  0  0
   41.9592   31.2770   36.2495 C   0  0  0  0  0  0  0  0  0  0  0  0
   43.0597   31.3039   35.4180 C   0  0  0  0  0  0  0  0  0  0  0  0
   41.1422   30.5827   36.1132 H   0  0  0  0  0  0  0  0  0  0  0  0
   43.0208   30.5571   34.6141 H   0  0  0  0  0  0  0  0  0  0  0  0
  1  9  1  0
  2  1  2  0
  3  2  1  0
  4  5  1  0
  4  3  2  0
  5  6  2  0
  6  1  1  0
  7 12  2  0
  8  7  1  0
  9  8  2  0
  9 10  1  0
 10 11  2  0
 11 12  1  0
 13  5  1  0
 14 15  2  0
 15 13  1  1
 16 15  1  0
 17 15  1  0
  2 18  1  0
  3 19  1  0
  4 20  1  0
  7 21  1  0
  8 22  1  0
 11 23  1  0
 16 24  1  0
 25 26  1  0
 26 27  2  0
 26 28  2  0
 26 29  1  0
 29 30  2  0
 30 31  1  0
 31 32  1  0
 31 33  2  0
 33 34  1  0
 33 35  1  0
 35 36  2  0
 36 29  1  0
 35 37  1  0
 36 38  1  0
 17 30  1  0
M  ISO  8  18  14  19  14  20  14  21  14  22  14  23  14  24   3  25  12
M  ISO  2  32  15  34  16
M  END
>  <DihAtoms>  (1) 
14,16,29,28

>  <DihDeg>  (1) 
179.99958390496437

$$$$
