
 OpenBabel03252504183D

 41 43  0  0  0  0  0  0  0  0999 V2000
   47.1670   30.0730   42.8420 F   0  0  0  0  0  0  0  0  0  0  0  0
   47.2170   31.4320   43.0730 C   0  0  0  0  0  0  0  0  0  0  0  0
   47.7290   32.2750   42.1230 C   0  0  0  0  0  0  0  0  0  0  0  0
   47.7360   33.6290   42.4500 C   0  0  0  0  0  0  0  0  0  0  0  0
   47.2560   34.0800   43.6540 C   0  0  0  0  0  0  0  0  0  0  0  0
   46.7460   33.1720   44.5820 C   0  0  0  0  0  0  0  0  0  0  0  0
   46.7170   31.7960   44.3010 C   0  0  0  0  0  0  0  0  0  0  0  0
   48.1380   34.3090   41.7090 H   0  0  0  0  0  0  0  0  0  0  0  0
   47.2610   35.1350   43.9090 H   0  0  0  0  0  0  0  0  0  0  0  0
   46.3560   33.4790   45.5460 H   0  0  0  0  0  0  0  0  0  0  0  0
   50.0720   31.5200   39.4370 C   0  0  0  0  0  0  0  0  0  0  0  0
   49.2730   30.8860   38.4750 C   0  0  0  0  0  0  0  0  0  0  0  0
   47.9190   30.7280   38.7750 C   0  0  0  0  0  0  0  0  0  0  0  0
   47.4280   31.1760   39.9470 N   0  0  0  0  0  0  0  0  0  0  0  0
   48.2360   31.7810   40.8470 C   0  0  0  0  0  0  0  0  0  0  0  0
   49.5490   31.9520   40.5920 N   0  0  0  0  0  0  0  0  0  0  0  0
   47.3130   30.2360   38.0220 H   0  0  0  0  0  0  0  0  0  0  0  0
   49.8790   30.4240   37.2180 C   0  0  0  0  0  0  0  0  0  0  0  0
   50.7070   31.4060   36.6930 F   0  0  0  0  0  0  0  0  0  0  0  0
   50.7070   29.3400   37.5090 F   0  0  0  0  0  0  0  0  0  0  0  0
   49.0070   30.0440   36.2570 F   0  0  0  0  0  0  0  0  0  0  0  0
   51.3750   31.6740   39.1490 O   0  0  0  0  0  0  0  0  0  0  0  0
   52.4570   30.9440   39.6900 C   0  0  0  0  0  0  0  0  0  0  0  0
   53.1130   31.7570   40.6020 F   0  0  0  0  0  0  0  0  0  0  0  0
   51.9920   29.7900   40.2610 F   0  0  0  0  0  0  0  0  0  0  0  0
   53.3940   30.6870   38.7060 F   0  0  0  0  0  0  0  0  0  0  0  0
   46.1730   30.8340   45.2920 C   0  0  0  0  0  0  0  0  0  0  0  0
   45.7740   29.9600   44.7400 H   0  0  0  0  0  0  0  0  0  0  0  0
   45.3230   31.2860   45.8730 H   0  0  0  0  0  0  0  0  0  0  0  0
   47.0150   30.9040   47.5810 C   0  0  0  0  0  0  0  0  0  0  0  0
   47.2010   30.4750   46.2910 C   0  0  0  0  0  0  0  0  0  0  0  0
   48.3290   29.7360   45.9970 C   0  0  0  0  0  0  0  0  0  0  0  0
   48.4630   29.4010   44.9600 H   0  0  0  0  0  0  0  0  0  0  0  0
   49.2880   29.4100   46.9600 C   0  0  0  0  0  0  0  0  0  0  0  0
   50.1750   28.8220   46.7020 H   0  0  0  0  0  0  0  0  0  0  0  0
   49.0960   29.8490   48.2750 C   0  0  0  0  0  3  0  0  0  0  0  0
   47.9570   30.5910   48.5600 C   0  0  0  0  0  3  0  0  0  0  0  0
   45.2930   32.7030   46.9820 H   0  0  0  0  0  0  0  0  0  0  0  0
   45.5960   31.8470   48.0080 S   0  0  0  0  0  0  0  0  0  0  0  0
   44.4280   30.9830   48.3780 O   0  0  0  0  0  0  0  0  0  0  0  0
   45.9520   32.6830   49.2300 O   0  0  0  0  0  0  0  0  0  0  0  0
  1  2  1  0  0  0  0
  2  7  1  0  0  0  0
  3  4  1  0  0  0  0
  3  2  2  0  0  0  0
  4  5  2  0  0  0  0
  5  9  1  0  0  0  0
  5  6  1  0  0  0  0
  6 10  1  0  0  0  0
  7  6  2  0  0  0  0
  7 27  1  0  0  0  0
  8  4  1  0  0  0  0
 11 16  1  0  0  0  0
 12 13  1  0  0  0  0
 12 11  2  0  0  0  0
 13 14  2  0  0  0  0
 14 15  1  0  0  0  0
 15  3  1  0  0  0  0
 16 15  2  0  0  0  0
 17 13  1  0  0  0  0
 18 20  1  0  0  0  0
 18 12  1  0  0  0  0
 19 18  1  0  0  0  0
 21 18  1  0  0  0  0
 22 11  1  0  0  0  0
 22 23  1  0  0  0  0
 23 25  1  0  0  0  0
 23 24  1  0  0  0  0
 26 23  1  0  0  0  0
 27 29  1  0  0  0  0
 27 31  1  0  0  0  0
 28 27  1  0  0  0  0
 30 39  1  0  0  0  0
 30 37  1  0  0  0  0
 31 30  2  0  0  0  0
 32 31  1  0  0  0  0
 32 34  2  0  0  0  0
 33 32  1  0  0  0  0
 34 36  1  0  0  0  0
 35 34  1  0  0  0  0
 36 37  2  0  0  0  0
 38 39  1  0  0  0  0
 39 40  2  0  0  0  0
 39 41  2  0  0  0  0
M  END
>  <minimizedAffinity>
-4.35187578

>  <minimizedRMSD>
5.13842154

$$$$
