
 OpenBabel03242519473D

 41 43  0  0  1  0  0  0  0  0999 V2000
   46.6110   32.6030   46.4940 C   0  0  2  0  0  0  0  0  0  0  0  0
   47.1390   32.6900   45.1150 C   0  0  1  0  0  0  0  0  0  0  0  0
   46.8130   31.3750   44.5380 O   0  0  0  0  0  0  0  0  0  0  0  0
   47.4410   30.6140   45.5480 C   0  0  0  0  0  0  0  0  0  0  0  0
   46.6440   31.1020   46.7670 C   0  0  2  0  0  0  0  0  0  0  0  0
   47.1700   33.1650   47.2510 H   0  0  0  0  0  0  0  0  0  0  0  0
   48.2530   32.7080   45.1380 H   0  0  0  0  0  0  0  0  0  0  0  0
   47.5030   29.5740   45.3940 H   0  0  0  0  0  0  0  0  0  0  0  0
   48.4450   31.0920   45.6850 H   0  0  0  0  0  0  0  0  0  0  0  0
   47.2430   30.8520   47.6710 H   0  0  0  0  0  0  0  0  0  0  0  0
   44.7780   35.2370   44.0110 C   0  0  0  0  0  0  0  0  0  0  0  0
   45.3660   35.7670   42.8600 C   0  0  0  0  0  0  0  0  0  0  0  0
   46.6070   35.2340   42.4420 C   0  0  0  0  0  0  0  0  0  0  0  0
   47.1680   34.2380   43.1730 N   0  0  0  0  0  0  0  0  0  0  0  0
   46.5770   33.7440   44.2820 C   0  0  0  0  0  0  0  0  0  0  0  0
   45.3840   34.2380   44.7080 N   0  0  0  0  0  0  0  0  0  0  0  0
   44.8880   36.5580   42.3080 H   0  0  0  0  0  0  0  0  0  0  0  0
   47.0990   35.6130   41.5550 H   0  0  0  0  0  0  0  0  0  0  0  0
   43.5500   35.7270   44.4750 O   0  0  0  0  0  0  0  0  0  0  0  0
   43.0980   36.4590   43.9330 H   0  0  0  0  0  0  0  0  0  0  0  0
   45.2310   33.0190   46.4960 O   0  0  0  0  0  0  0  0  0  0  0  0
   44.7420   32.2690   46.0460 H   0  0  0  0  0  0  0  0  0  0  0  0
   45.4110   30.5580   46.7210 O   0  0  0  0  0  0  0  0  0  0  0  0
   45.0550   29.6600   47.6850 C   0  0  0  0  0  0  0  0  0  0  0  0
   43.9410   29.3610   47.4890 H   0  0  0  0  0  0  0  0  0  0  0  0
   45.1310   30.0140   48.6750 H   0  0  0  0  0  0  0  0  0  0  0  0
   45.6860   28.2890   47.5090 C   0  0  0  0  0  0  0  0  0  0  0  0
   46.2520   27.9790   48.4050 H   0  0  0  0  0  0  0  0  0  0  0  0
   46.3960   28.2210   46.6730 H   0  0  0  0  0  0  0  0  0  0  0  0
   44.5890   26.0980   47.7630 C   0  0  0  0  0  0  0  0  0  0  0  0
   44.5880   27.3560   47.1690 C   0  0  0  0  0  0  0  0  0  0  0  0
   43.5560   27.6430   46.3020 C   0  0  0  0  0  0  0  0  0  0  0  0
   43.5050   28.5970   45.8060 H   0  0  0  0  0  0  0  0  0  0  0  0
   42.5310   26.7810   45.9820 C   0  0  0  0  0  0  0  0  0  0  0  0
   41.7370   27.0590   45.2870 H   0  0  0  0  0  0  0  0  0  0  0  0
   42.4960   25.5270   46.5480 C   0  0  0  0  0  3  0  0  0  0  0  0
   43.5380   25.2340   47.4250 C   0  0  0  0  0  3  0  0  0  0  0  0
   45.5840   25.9270   50.1540 H   0  0  0  0  0  0  0  0  0  0  0  0
   45.7480   25.4460   48.8780 S   0  0  0  0  0  0  0  0  0  0  0  0
   45.4960   23.9420   48.9720 O   0  0  0  0  0  0  0  0  0  0  0  0
   47.1620   25.5920   48.4740 O   0  0  0  0  0  0  0  0  0  0  0  0
  1 21  1  0  0  0  0
  1  5  1  0  0  0  0
  1  6  1  1  0  0  0
  2  7  1  1  0  0  0
  2  1  1  0  0  0  0
  3  2  1  0  0  0  0
  3  4  1  0  0  0  0
  4  9  1  0  0  0  0
  4  5  1  0  0  0  0
  5 10  1  1  0  0  0
  8  4  1  0  0  0  0
 11 19  1  0  0  0  0
 11 16  1  0  0  0  0
 12 11  2  0  0  0  0
 13 12  1  0  0  0  0
 13 14  2  0  0  0  0
 14 15  1  0  0  0  0
 15 16  2  0  0  0  0
 15  2  1  0  0  0  0
 17 12  1  0  0  0  0
 18 13  1  0  0  0  0
 20 19  1  0  0  0  0
 22 21  1  0  0  0  0
 23  5  1  0  0  0  0
 23 24  1  0  0  0  0
 24 26  1  0  0  0  0
 25 24  1  0  0  0  0
 27 24  1  0  0  0  0
 27 28  1  0  0  0  0
 29 27  1  0  0  0  0
 30 39  1  0  0  0  0
 31 27  1  0  0  0  0
 31 30  2  0  0  0  0
 32 31  1  0  0  0  0
 33 32  1  0  0  0  0
 34 32  2  0  0  0  0
 34 36  1  0  0  0  0
 35 34  1  0  0  0  0
 36 37  2  0  0  0  0
 37 30  1  0  0  0  0
 39 40  2  0  0  0  0
 39 38  1  0  0  0  0
 41 39  2  0  0  0  0
M  END
>  <minimizedAffinity>
-5.72123814

>  <minimizedRMSD>
1.70844138

$$$$
