
 OpenBabel03252506123D

 39 41  0  0  0  0  0  0  0  0999 V2000
   45.1640   33.3660   41.1960 F   0  0  0  0  0  0  0  0  0  0  0  0
   46.3340   33.9890   41.0490 C   0  0  0  0  0  0  0  0  0  0  0  0
   46.8250   34.7700   42.0920 C   0  0  0  0  0  0  0  0  0  0  0  0
   48.0350   35.4510   42.0230 C   0  0  0  0  0  0  0  0  0  0  0  0
   48.8050   35.3590   40.8630 C   0  0  0  0  0  0  0  0  0  0  0  0
   48.2820   34.5730   39.8470 C   0  0  0  0  0  0  0  0  0  0  0  0
   47.1010   33.9010   39.9000 C   0  0  0  0  0  0  0  0  0  0  0  0
   48.3540   36.0450   42.8860 H   0  0  0  0  0  0  0  0  0  0  0  0
   49.7170   35.9010   40.8750 H   0  0  0  0  0  0  0  0  0  0  0  0
   48.9810   34.5850   39.0180 H   0  0  0  0  0  0  0  0  0  0  0  0
   45.4430   34.0340   45.4110 C   0  0  0  0  0  0  0  0  0  0  0  0
   44.6130   35.1450   45.6340 C   0  0  0  0  0  0  0  0  0  0  0  0
   44.5300   36.1470   44.6410 C   0  0  0  0  0  0  0  0  0  0  0  0
   45.2770   35.9630   43.5090 N   0  0  0  0  0  0  0  0  0  0  0  0
   46.0550   34.8950   43.3300 C   0  0  0  0  0  0  0  0  0  0  0  0
   46.1330   33.9420   44.2750 N   0  0  0  0  0  0  0  0  0  0  0  0
   44.0240   35.2870   46.5270 H   0  0  0  0  0  0  0  0  0  0  0  0
   43.9050   37.0200   44.7660 H   0  0  0  0  0  0  0  0  0  0  0  0
   45.5180   33.0340   46.4130 N   0  0  0  0  0  0  0  0  0  0  0  0
   44.7960   32.3170   46.7170 H   0  0  0  0  0  0  0  0  0  0  0  0
   46.3980   32.9500   46.9620 H   0  0  0  0  0  0  0  0  0  0  0  0
   46.6860   33.1550   38.8310 O   0  0  0  0  0  0  0  0  0  0  0  0
   47.9150   34.6440   37.0190 O   0  0  0  0  0  0  0  0  0  0  0  0
   46.9910   33.4600   37.2090 P   0  0  2  0  0  0  0  0  0  0  0  0
   45.4970   33.7570   36.4300 O   0  0  0  0  0  0  0  0  0  0  0  0
   45.5740   34.5440   35.8370 H   0  0  0  0  0  0  0  0  0  0  0  0
   47.6530   32.1400   36.3860 O   0  0  0  0  0  0  0  0  0  0  0  0
   47.5080   31.4810   34.1730 C   0  0  0  0  0  0  0  0  0  0  0  0
   47.0250   31.3350   35.4770 C   0  0  0  0  0  0  0  0  0  0  0  0
   46.0110   30.4240   35.6620 C   0  0  0  0  0  0  0  0  0  0  0  0
   45.6730   30.3480   36.6850 H   0  0  0  0  0  0  0  0  0  0  0  0
   45.4880   29.6870   34.6260 C   0  0  0  0  0  0  0  0  0  0  0  0
   44.6920   28.9820   34.8090 H   0  0  0  0  0  0  0  0  0  0  0  0
   45.9530   29.8190   33.3300 C   0  0  0  0  0  3  0  0  0  0  0  0
   46.9710   30.7330   33.1460 C   0  0  0  0  0  3  0  0  0  0  0  0
   48.9710   33.4530   34.8090 H   0  0  0  0  0  0  0  0  0  0  0  0
   48.8080   32.6090   33.7630 S   0  0  0  0  0  0  0  0  0  0  0  0
   50.0720   31.8030   33.4990 O   0  0  0  0  0  0  0  0  0  0  0  0
   48.4760   33.2910   32.4760 O   0  0  0  0  0  0  0  0  0  0  0  0
  2  1  1  0  0  0  0
  2  3  1  0  0  0  0
  3 15  1  0  0  0  0
  4  3  2  0  0  0  0
  4  8  1  0  0  0  0
  5  9  1  0  0  0  0
  5  4  1  0  0  0  0
  6  7  1  0  0  0  0
  6  5  2  0  0  0  0
  7  2  2  0  0  0  0
 10  6  1  0  0  0  0
 11 12  1  0  0  0  0
 11 19  1  0  0  0  0
 12 17  1  0  0  0  0
 13 18  1  0  0  0  0
 13 12  2  0  0  0  0
 14 13  1  0  0  0  0
 15 14  2  0  0  0  0
 15 16  1  0  0  0  0
 16 11  2  0  0  0  0
 19 20  1  0  0  0  0
 19 21  1  0  0  0  0
 22  7  1  0  0  0  0
 24 23  2  6  0  0  0
 24 22  1  0  0  0  0
 25 24  1  0  0  0  0
 26 25  1  0  0  0  0
 27 24  1  0  0  0  0
 28 29  1  0  0  0  0
 29 30  2  0  0  0  0
 29 27  1  0  0  0  0
 30 31  1  0  0  0  0
 32 33  1  0  0  0  0
 32 30  1  0  0  0  0
 34 32  2  0  0  0  0
 35 34  1  0  0  0  0
 35 28  2  0  0  0  0
 37 28  1  0  0  0  0
 37 36  1  0  0  0  0
 38 37  2  0  0  0  0
 39 37  2  0  0  0  0
M  END
>  <minimizedAffinity>
-6.84036875

>  <minimizedRMSD>
1.33864093

$$$$
