
     RDKit          3D

 48 51  0  0  0  0  0  0  0  0999 V2000
   45.7030   33.7684   45.5456 C   0  0  0  0  0  0  0  0  0  0  0  0
   44.7676   34.7421   45.8268 C   0  0  0  0  0  0  0  0  0  0  0  0
   44.5325   35.7193   44.8364 C   0  0  0  0  0  0  0  0  0  0  0  0
   45.2479   35.6371   43.6603 N   0  0  0  0  0  0  0  0  0  0  0  0
   46.1352   34.6639   43.4646 C   0  0  0  0  0  0  0  0  0  0  0  0
   46.3642   33.7435   44.3849 N   0  0  0  0  0  0  0  0  0  0  0  0
   46.8606   34.6295   42.1848 C   0  0  0  0  0  0  0  0  0  0  0  0
   48.0239   35.3065   42.0077 C   0  0  0  0  0  0  0  0  0  0  0  0
   48.7519   35.3164   40.8342 C   0  0  0  0  0  0  0  0  0  0  0  0
   48.2146   34.5709   39.8044 C   0  0  0  0  0  0  0  0  0  0  0  0
   47.0363   33.8763   39.9611 C   0  0  0  0  0  0  0  0  0  0  0  0
   46.3513   33.8998   41.1499 N   0  0  0  0  0  0  0  0  0  0  0  0
   45.9570   32.7605   46.5705 C   0  0  2  0  0  0  0  0  0  0  0  0
   46.1153   31.3805   46.0894 C   0  0  0  0  0  0  0  0  0  0  0  0
   46.5602   30.4708   47.1823 C   0  0  0  0  0  0  0  0  0  0  0  0
   46.1203   30.7657   48.5700 C   0  0  0  0  0  0  0  0  0  0  0  0
   45.9538   32.2127   48.9137 C   0  0  0  0  0  0  0  0  0  0  0  0
   45.1921   32.8933   47.7895 C   0  0  2  0  0  0  0  0  0  0  0  0
   44.1640   34.9281   46.6532 H   0  0  0  0  0  0  0  0  0  0  0  0
   43.8399   36.5289   44.9167 H   0  0  0  0  0  0  0  0  0  0  0  0
   48.3767   35.8717   42.8780 H   0  0  0  0  0  0  0  0  0  0  0  0
   49.6680   35.8655   40.7361 H   0  0  0  0  0  0  0  0  0  0  0  0
   48.7231   34.5237   38.8458 H   0  0  0  0  0  0  0  0  0  0  0  0
   46.6067   33.2879   39.1574 H   0  0  0  0  0  0  0  0  0  0  0  0
   47.0300   33.0307   46.8960 H   0  0  0  0  0  0  0  0  0  0  0  0
   47.0138   31.4297   45.3784 H   0  0  0  0  0  0  0  0  0  0  0  0
   45.3663   30.9871   45.3855 H   0  0  0  0  0  0  0  0  0  0  0  0
   47.6561   30.2660   47.1599 H   0  0  0  0  0  0  0  0  0  0  0  0
   46.1191   29.4580   46.9313 H   0  0  0  0  0  0  0  0  0  0  0  0
   46.9061   30.3964   49.2677 H   0  0  0  0  0  0  0  0  0  0  0  0
   45.2197   30.1774   48.8848 H   0  0  0  0  0  0  0  0  0  0  0  0
   46.8945   32.7260   49.1468 H   0  0  0  0  0  0  0  0  0  0  0  0
   45.3184   32.2647   49.8210 H   0  0  0  0  0  0  0  0  0  0  0  0
   45.3640   33.9964   48.0647 H   0  0  0  0  0  0  0  0  0  0  0  0
   45.0069   30.7996   45.8778 H   0  0  0  0  0  0  0  0  0  0  0  0
   43.8788   30.3790   46.4788 S   0  0  0  0  0  0  0  0  0  0  0  0
   44.1348   29.0784   47.1868 O   0  0  0  0  0  0  0  0  0  0  0  0
   42.8988   30.0550   45.3517 O   0  0  0  0  0  0  0  0  0  0  0  0
   43.1004   31.5640   47.5027 C   0  0  0  0  0  0  0  0  0  0  0  0
   43.8056   32.6640   48.0009 C   0  0  0  0  0  0  0  0  0  0  0  0
   43.0024   33.4936   48.7480 C   0  0  0  0  0  0  0  0  0  0  0  0
   43.3624   34.3997   49.2098 H   0  0  0  0  0  0  0  0  0  0  0  0
   41.6611   33.3208   49.0140 C   0  0  0  0  0  0  0  0  0  0  0  0
   41.0447   33.9836   49.6041 H   0  0  0  0  0  0  0  0  0  0  0  0
   41.0237   32.2144   48.4946 C   0  0  0  0  0  0  0  0  0  0  0  0
   41.7614   31.3365   47.7341 C   0  0  0  0  0  0  0  0  0  0  0  0
   39.9758   32.0252   48.6692 H   0  0  0  0  0  0  0  0  0  0  0  0
   41.2341   30.4781   47.3403 H   0  0  0  0  0  0  0  0  0  0  0  0
  1  2  2  0
  1 13  1  0
  3  2  1  0
  4  3  2  0
  5  4  1  0
  5  6  2  0
  6  1  1  0
  7  5  1  0
  8  7  2  0
  9  8  1  0
 10 11  1  0
 10  9  2  0
 11 12  2  0
 12  7  1  0
 13 18  1  0
 14 13  1  0
 14 15  1  0
 15 16  1  0
 16 17  1  0
 18 17  1  0
  2 19  1  0
  3 20  1  0
  8 21  1  0
  9 22  1  0
 10 23  1  0
 11 24  1  0
 13 25  1  1
 14 26  1  0
 14 27  1  0
 15 28  1  0
 15 29  1  0
 16 30  1  0
 16 31  1  0
 17 32  1  0
 17 33  1  0
 18 34  1  1
 35 36  1  0
 36 37  2  0
 36 38  2  0
 36 39  1  0
 39 40  2  0
 40 41  1  0
 41 42  1  0
 41 43  2  0
 43 44  1  0
 43 45  1  0
 45 46  2  0
 46 39  1  0
 45 47  1  0
 46 48  1  0
 18 40  1  0
M  ISO  8  19  14  20  14  21  14  22  14  23  14  24  14  25  13  26  13
M  ISO  8  27  13  28  13  29  13  30  13  31  13  32  13  33  13  34  13
M  ISO  3  35  12  42  15  44  16
M  END
>  <DihAtoms>  (1) 
12,17,39,38

>  <DihDeg>  (1) 
-135.83244747070322

$$$$
