
 OpenBabel03242521583D

 36 38  0  0  0  0  0  0  0  0999 V2000
   46.8880   34.8870   42.1120 C   0  0  0  0  0  0  0  0  0  0  0  0
   48.0750   35.5930   41.9280 C   0  0  0  0  0  0  0  0  0  0  0  0
   48.8940   35.4860   40.8070 C   0  0  0  0  0  0  0  0  0  0  0  0
   48.5070   34.6210   39.8030 C   0  0  0  0  0  0  0  0  0  0  0  0
   47.3540   33.9460   39.9980 C   0  0  0  0  0  0  0  0  0  0  0  0
   46.5900   34.0690   41.0840 N   0  0  0  0  0  0  0  0  0  0  0  0
   48.3120   36.2610   42.7720 H   0  0  0  0  0  0  0  0  0  0  0  0
   49.7710   36.1280   40.8690 H   0  0  0  0  0  0  0  0  0  0  0  0
   49.2610   34.6600   39.0400 H   0  0  0  0  0  0  0  0  0  0  0  0
   44.4530   35.9500   44.7690 C   0  0  0  0  0  0  0  0  0  0  0  0
   45.1520   36.0010   43.5500 C   0  0  0  0  0  0  0  0  0  0  0  0
   46.0680   35.0130   43.3000 C   0  0  0  0  0  0  0  0  0  0  0  0
   46.2470   34.0350   44.2500 N   0  0  0  0  0  0  0  0  0  0  0  0
   45.5640   34.0100   45.4110 C   0  0  0  0  0  0  0  0  0  0  0  0
   44.6680   34.9740   45.6590 N   0  0  0  0  0  0  0  0  0  0  0  0
   43.7500   36.7590   44.8950 H   0  0  0  0  0  0  0  0  0  0  0  0
   45.0340   36.7480   42.7900 H   0  0  0  0  0  0  0  0  0  0  0  0
   45.7900   33.1910   46.0810 H   0  0  0  0  0  0  0  0  0  0  0  0
   46.9480   33.0750   39.0040 O   0  0  0  0  0  0  0  0  0  0  0  0
   48.0660   34.6120   37.1700 O   0  0  0  0  0  0  0  0  0  0  0  0
   47.2960   33.3180   37.3520 P   0  0  1  0  0  0  0  0  0  0  0  0
   48.2270   32.0260   36.7880 O   0  0  0  0  0  0  0  0  0  0  0  0
   49.1830   32.1400   36.9760 H   0  0  0  0  0  0  0  0  0  0  0  0
   45.8190   33.4180   36.5240 O   0  0  0  0  0  0  0  0  0  0  0  0
   44.5580   31.5260   35.9610 C   0  0  0  0  0  0  0  0  0  0  0  0
   44.7840   32.5610   36.8750 C   0  0  0  0  0  0  0  0  0  0  0  0
   44.0020   32.6550   38.0050 C   0  0  0  0  0  0  0  0  0  0  0  0
   44.2100   33.4590   38.6760 H   0  0  0  0  0  0  0  0  0  0  0  0
   42.9920   31.7530   38.2710 C   0  0  0  0  0  0  0  0  0  0  0  0
   42.4020   31.8650   39.1740 H   0  0  0  0  0  0  0  0  0  0  0  0
   42.7370   30.7050   37.3800 C   0  0  0  0  0  3  0  0  0  0  0  0
   43.5400   30.6430   36.2600 C   0  0  0  0  0  3  0  0  0  0  0  0
   45.8030   32.4510   33.8920 H   0  0  0  0  0  0  0  0  0  0  0  0
   45.4600   31.2670   34.4810 S   0  0  0  0  0  0  0  0  0  0  0  0
   46.7050   30.5040   34.8400 O   0  0  0  0  0  0  0  0  0  0  0  0
   44.6740   30.3970   33.5380 O   0  0  0  0  0  0  0  0  0  0  0  0
  1 12  1  0  0  0  0
  2  1  1  0  0  0  0
  2  7  1  0  0  0  0
  3  8  1  0  0  0  0
  3  2  2  0  0  0  0
  4  5  2  0  0  0  0
  4  3  1  0  0  0  0
  5  6  1  0  0  0  0
  6  1  2  0  0  0  0
  9  4  1  0  0  0  0
 10 16  1  0  0  0  0
 10 15  1  0  0  0  0
 11 10  2  0  0  0  0
 12 11  1  0  0  0  0
 12 13  2  0  0  0  0
 13 14  1  0  0  0  0
 14 15  2  0  0  0  0
 14 18  1  0  0  0  0
 17 11  1  0  0  0  0
 19  5  1  0  0  0  0
 21 20  2  6  0  0  0
 21 19  1  0  0  0  0
 22 23  1  0  0  0  0
 22 21  1  0  0  0  0
 24 26  1  0  0  0  0
 24 21  1  0  0  0  0
 25 32  2  0  0  0  0
 25 26  1  0  0  0  0
 26 27  2  0  0  0  0
 27 29  1  0  0  0  0
 27 28  1  0  0  0  0
 29 30  1  0  0  0  0
 31 29  2  0  0  0  0
 32 31  1  0  0  0  0
 33 34  1  0  0  0  0
 34 35  2  0  0  0  0
 34 25  1  0  0  0  0
 36 34  2  0  0  0  0
M  END
>  <minimizedAffinity>
-5.59630299

>  <minimizedRMSD>
0.792668045

$$$$
