
 OpenBabel03252505093D

 46 49  0  0  1  0  0  0  0  0999 V2000
   37.3410   32.4850   39.9510 C   0  0  0  0  0  0  0  0  0  0  0  0
   37.0070   31.3230   40.6890 C   0  0  0  0  0  0  0  0  0  0  0  0
   38.0390   30.3590   40.9090 C   0  0  0  0  0  0  0  0  0  0  0  0
   39.2730   30.6060   40.4040 N   0  0  0  0  0  0  0  0  0  0  0  0
   39.5470   31.7210   39.7100 C   0  0  0  0  0  0  0  0  0  0  0  0
   38.5890   32.6670   39.4780 N   0  0  0  0  0  0  0  0  0  0  0  0
   36.5990   33.2480   39.7540 H   0  0  0  0  0  0  0  0  0  0  0  0
   36.0180   31.1920   41.0570 H   0  0  0  0  0  0  0  0  0  0  0  0
   40.9070   31.9350   39.1810 C   0  0  2  0  0  0  0  0  0  0  0  0
   41.6990   32.5210   40.3140 C   0  0  0  0  0  0  0  0  0  0  0  0
   41.9810   33.9730   40.2260 C   0  0  0  0  0  0  0  0  0  0  0  0
   42.6920   34.1590   38.8890 C   0  0  0  0  0  0  0  0  0  0  0  0
   41.8280   33.8630   37.7530 C   0  0  0  0  0  0  0  0  0  0  0  0
   40.9140   32.6970   37.9520 C   0  0  0  0  0  0  0  0  0  0  0  0
   41.2950   30.8990   38.9580 H   0  0  0  0  0  0  0  0  0  0  0  0
   42.6790   31.9980   40.3450 H   0  0  0  0  0  0  0  0  0  0  0  0
   41.2430   32.3180   41.3090 H   0  0  0  0  0  0  0  0  0  0  0  0
   41.1400   34.6520   40.3520 H   0  0  0  0  0  0  0  0  0  0  0  0
   42.7470   34.2140   40.9880 H   0  0  0  0  0  0  0  0  0  0  0  0
   42.8970   35.2510   38.8440 H   0  0  0  0  0  0  0  0  0  0  0  0
   43.6580   33.6420   38.9050 H   0  0  0  0  0  0  0  0  0  0  0  0
   41.6600   34.2620   36.7890 H   0  0  0  0  0  0  0  0  0  0  0  0
   40.0130   32.2970   36.9260 N   0  0  0  0  0  0  0  0  0  0  0  0
   40.3690   31.3720   36.5590 H   0  0  0  0  0  0  0  0  0  0  0  0
   39.2320   32.9400   36.7410 H   0  0  0  0  0  0  0  0  0  0  0  0
   37.7210   29.1650   41.6600 C   0  0  0  0  0  0  0  0  0  0  0  0
   37.4510   29.2870   42.9870 C   0  0  0  0  0  0  0  0  0  0  0  0
   37.1480   28.0920   43.6690 C   0  0  0  0  0  0  0  0  0  0  0  0
   37.1570   26.9310   42.9270 C   0  0  0  0  0  0  0  0  0  0  0  0
   37.4280   26.8120   41.5970 C   0  0  0  0  0  0  0  0  0  0  0  0
   37.7080   28.0050   41.0170 N   0  0  0  0  0  0  0  0  0  0  0  0
   37.4690   30.2450   43.4770 H   0  0  0  0  0  0  0  0  0  0  0  0
   36.9310   28.1460   44.7120 H   0  0  0  0  0  0  0  0  0  0  0  0
   36.9160   26.0620   43.5210 H   0  0  0  0  0  0  0  0  0  0  0  0
   36.8830   25.5260   39.5900 C   0  0  0  0  0  0  0  0  0  0  0  0
   37.4240   25.5560   40.8610 C   0  0  0  0  0  0  0  0  0  0  0  0
   37.9500   24.4130   41.4210 C   0  0  0  0  0  0  0  0  0  0  0  0
   38.3860   24.3730   42.4090 H   0  0  0  0  0  0  0  0  0  0  0  0
   37.9610   23.2070   40.7540 C   0  0  0  0  0  0  0  0  0  0  0  0
   38.3760   22.3040   41.1920 H   0  0  0  0  0  0  0  0  0  0  0  0
   37.4380   23.1090   39.4820 C   0  0  0  0  0  3  0  0  0  0  0  0
   36.9240   24.2770   38.9630 C   0  0  0  0  0  3  0  0  0  0  0  0
   35.7560   27.8580   39.6500 H   0  0  0  0  0  0  0  0  0  0  0  0
   36.1990   26.8960   38.7930 S   0  0  0  0  0  0  0  0  0  0  0  0
   37.2420   27.4810   37.8660 O   0  0  0  0  0  0  0  0  0  0  0  0
   35.0710   26.4440   37.8760 O   0  0  0  0  0  0  0  0  0  0  0  0
  1  2  1  0  0  0  0
  2  3  2  0  0  0  0
  2  8  1  0  0  0  0
  3 26  1  0  0  0  0
  4  3  1  0  0  0  0
  5  4  2  0  0  0  0
  6  5  1  0  0  0  0
  6  1  2  0  0  0  0
  7  1  1  0  0  0  0
  9 15  1  6  0  0  0
  9  5  1  0  0  0  0
  9 10  1  0  0  0  0
 10 16  1  0  0  0  0
 10 17  1  0  0  0  0
 11 10  1  0  0  0  0
 11 18  1  0  0  0  0
 11 19  1  0  0  0  0
 12 21  1  0  0  0  0
 12 11  1  0  0  0  0
 13 14  2  0  0  0  0
 13 12  1  0  0  0  0
 14  9  1  0  0  0  0
 20 12  1  0  0  0  0
 22 13  1  0  0  0  0
 23 14  1  0  0  0  0
 24 23  1  0  0  0  0
 25 23  1  0  0  0  0
 26 27  1  0  0  0  0
 27 32  1  0  0  0  0
 27 28  2  0  0  0  0
 28 33  1  0  0  0  0
 29 34  1  0  0  0  0
 29 28  1  0  0  0  0
 30 29  2  0  0  0  0
 31 30  1  0  0  0  0
 31 26  2  0  0  0  0
 35 36  1  0  0  0  0
 36 37  2  0  0  0  0
 36 30  1  0  0  0  0
 37 38  1  0  0  0  0
 39 40  1  0  0  0  0
 39 37  1  0  0  0  0
 41 39  2  0  0  0  0
 42 41  1  0  0  0  0
 42 35  2  0  0  0  0
 44 35  1  0  0  0  0
 44 43  1  0  0  0  0
 45 44  2  0  0  0  0
 46 44  2  0  0  0  0
M  END
>  <minimizedAffinity>
-6.78050995

$$$$

 OpenBabel03252505093D

 46 49  0  0  1  0  0  0  0  0999 V2000
   37.2090   32.2610   39.7900 C   0  0  0  0  0  0  0  0  0  0  0  0
   36.8920   31.0980   40.5350 C   0  0  0  0  0  0  0  0  0  0  0  0
   37.9560   30.1880   40.8260 C   0  0  0  0  0  0  0  0  0  0  0  0
   39.2010   30.4830   40.3770 N   0  0  0  0  0  0  0  0  0  0  0  0
   39.4570   31.5980   39.6740 C   0  0  0  0  0  0  0  0  0  0  0  0
   38.4690   32.4930   39.3750 N   0  0  0  0  0  0  0  0  0  0  0  0
   36.4440   32.9840   39.5410 H   0  0  0  0  0  0  0  0  0  0  0  0
   35.8940   30.9280   40.8570 H   0  0  0  0  0  0  0  0  0  0  0  0
   40.8310   31.8650   39.2080 C   0  0  2  0  0  0  0  0  0  0  0  0
   41.5620   32.4290   40.3930 C   0  0  0  0  0  0  0  0  0  0  0  0
   41.8080   33.8900   40.3690 C   0  0  0  0  0  0  0  0  0  0  0  0
   42.5660   34.1440   39.0690 C   0  0  0  0  0  0  0  0  0  0  0  0
   41.7550   33.8690   37.8900 C   0  0  0  0  0  0  0  0  0  0  0  0
   40.8650   32.6730   38.0090 C   0  0  0  0  0  0  0  0  0  0  0  0
   41.2550   30.8490   38.9630 H   0  0  0  0  0  0  0  0  0  0  0  0
   42.5540   31.9300   40.4440 H   0  0  0  0  0  0  0  0  0  0  0  0
   41.0730   32.1760   41.3600 H   0  0  0  0  0  0  0  0  0  0  0  0
   40.9460   34.5420   40.4860 H   0  0  0  0  0  0  0  0  0  0  0  0
   42.5370   34.1210   41.1700 H   0  0  0  0  0  0  0  0  0  0  0  0
   42.7430   35.2410   39.0720 H   0  0  0  0  0  0  0  0  0  0  0  0
   43.5440   33.6510   39.1050 H   0  0  0  0  0  0  0  0  0  0  0  0
   41.6140   34.2990   36.9350 H   0  0  0  0  0  0  0  0  0  0  0  0
   40.0160   32.2900   36.9330 N   0  0  0  0  0  0  0  0  0  0  0  0
   40.4110   31.3880   36.5470 H   0  0  0  0  0  0  0  0  0  0  0  0
   39.2260   32.9190   36.7420 H   0  0  0  0  0  0  0  0  0  0  0  0
   37.6560   28.9940   41.5850 C   0  0  0  0  0  0  0  0  0  0  0  0
   37.2900   29.1300   42.8880 C   0  0  0  0  0  0  0  0  0  0  0  0
   37.0110   27.9350   43.5780 C   0  0  0  0  0  0  0  0  0  0  0  0
   37.1370   26.7600   42.8700 C   0  0  0  0  0  0  0  0  0  0  0  0
   37.5040   26.6280   41.5650 C   0  0  0  0  0  0  0  0  0  0  0  0
   37.7550   27.8220   40.9740 N   0  0  0  0  0  0  0  0  0  0  0  0
   37.2200   30.0990   43.3520 H   0  0  0  0  0  0  0  0  0  0  0  0
   36.7190   28.0000   44.6030 H   0  0  0  0  0  0  0  0  0  0  0  0
   36.9060   25.8920   43.4690 H   0  0  0  0  0  0  0  0  0  0  0  0
   38.8410   24.7080   40.8540 C   0  0  0  0  0  0  0  0  0  0  0  0
   37.6220   25.3580   40.8630 C   0  0  0  0  0  0  0  0  0  0  0  0
   36.5350   24.8100   40.2180 C   0  0  0  0  0  0  0  0  0  0  0  0
   35.5580   25.2690   40.1900 H   0  0  0  0  0  0  0  0  0  0  0  0
   36.6110   23.6100   39.5440 C   0  0  0  0  0  0  0  0  0  0  0  0
   35.7570   23.1740   39.0350 H   0  0  0  0  0  0  0  0  0  0  0  0
   37.7980   22.9110   39.4970 C   0  0  0  0  0  3  0  0  0  0  0  0
   38.8560   23.4970   40.1550 C   0  0  0  0  0  3  0  0  0  0  0  0
   40.2030   26.6290   41.9340 H   0  0  0  0  0  0  0  0  0  0  0  0
   40.2650   25.3030   41.6280 S   0  0  0  0  0  0  0  0  0  0  0  0
   40.4960   24.4990   42.8880 O   0  0  0  0  0  0  0  0  0  0  0  0
   41.4790   25.0190   40.7550 O   0  0  0  0  0  0  0  0  0  0  0  0
  1  2  1  0  0  0  0
  2  3  2  0  0  0  0
  2  8  1  0  0  0  0
  3 26  1  0  0  0  0
  4  3  1  0  0  0  0
  5  4  2  0  0  0  0
  6  5  1  0  0  0  0
  6  1  2  0  0  0  0
  7  1  1  0  0  0  0
  9 15  1  6  0  0  0
  9  5  1  0  0  0  0
  9 10  1  0  0  0  0
 10 16  1  0  0  0  0
 10 17  1  0  0  0  0
 11 10  1  0  0  0  0
 11 18  1  0  0  0  0
 11 19  1  0  0  0  0
 12 20  1  0  0  0  0
 12 21  1  0  0  0  0
 12 11  1  0  0  0  0
 13 14  2  0  0  0  0
 13 12  1  0  0  0  0
 14  9  1  0  0  0  0
 22 13  1  0  0  0  0
 23 14  1  0  0  0  0
 24 23  1  0  0  0  0
 25 23  1  0  0  0  0
 26 27  1  0  0  0  0
 27 32  1  0  0  0  0
 27 28  2  0  0  0  0
 28 33  1  0  0  0  0
 29 34  1  0  0  0  0
 29 28  1  0  0  0  0
 30 29  2  0  0  0  0
 31 30  1  0  0  0  0
 31 26  2  0  0  0  0
 35 36  1  0  0  0  0
 35 44  1  0  0  0  0
 36 30  1  0  0  0  0
 37 36  2  0  0  0  0
 38 37  1  0  0  0  0
 39 37  1  0  0  0  0
 40 39  1  0  0  0  0
 41 39  2  0  0  0  0
 41 42  1  0  0  0  0
 42 35  2  0  0  0  0
 44 43  1  0  0  0  0
 44 45  2  0  0  0  0
 46 44  2  0  0  0  0
M  END
>  <minimizedAffinity>
-6.75201654

$$$$

 OpenBabel03252505093D

 46 49  0  0  1  0  0  0  0  0999 V2000
   40.4810   33.2460   40.4000 C   0  0  0  0  0  0  0  0  0  0  0  0
   40.8840   32.1100   41.1440 C   0  0  0  0  0  0  0  0  0  0  0  0
   40.1390   30.9030   40.9650 C   0  0  0  0  0  0  0  0  0  0  0  0
   39.0950   30.9100   40.1000 N   0  0  0  0  0  0  0  0  0  0  0  0
   38.7470   32.0100   39.4140 C   0  0  0  0  0  0  0  0  0  0  0  0
   39.4330   33.1820   39.5560 N   0  0  0  0  0  0  0  0  0  0  0  0
   41.0080   34.1860   40.4960 H   0  0  0  0  0  0  0  0  0  0  0  0
   41.7130   32.1740   41.8060 H   0  0  0  0  0  0  0  0  0  0  0  0
   37.6000   31.9580   38.4890 C   0  0  2  0  0  0  0  0  0  0  0  0
   36.5880   31.0600   39.1400 C   0  0  0  0  0  0  0  0  0  0  0  0
   36.4660   29.6980   38.5680 C   0  0  0  0  0  0  0  0  0  0  0  0
   36.1540   29.9150   37.0900 C   0  0  0  0  0  0  0  0  0  0  0  0
   37.2610   30.5370   36.3740 C   0  0  0  0  0  0  0  0  0  0  0  0
   37.9850   31.5950   37.1430 C   0  0  0  0  0  0  0  0  0  0  0  0
   37.1980   33.0120   38.4690 H   0  0  0  0  0  0  0  0  0  0  0  0
   35.5950   31.5470   39.0430 H   0  0  0  0  0  0  0  0  0  0  0  0
   36.7440   30.9600   40.2380 H   0  0  0  0  0  0  0  0  0  0  0  0
   37.2970   29.0150   38.7260 H   0  0  0  0  0  0  0  0  0  0  0  0
   35.5480   29.2400   38.9850 H   0  0  0  0  0  0  0  0  0  0  0  0
   36.0630   28.8850   36.6820 H   0  0  0  0  0  0  0  0  0  0  0  0
   35.1780   30.4010   36.9820 H   0  0  0  0  0  0  0  0  0  0  0  0
   37.7120   30.4430   35.4240 H   0  0  0  0  0  0  0  0  0  0  0  0
   39.0890   32.2840   36.5660 N   0  0  0  0  0  0  0  0  0  0  0  0
   38.7660   33.2750   36.3930 H   0  0  0  0  0  0  0  0  0  0  0  0
   39.9430   31.7270   36.4330 H   0  0  0  0  0  0  0  0  0  0  0  0
   40.5320   29.7310   41.7150 C   0  0  0  0  0  0  0  0  0  0  0  0
   41.6130   29.8190   42.5350 C   0  0  0  0  0  0  0  0  0  0  0  0
   41.9510   28.6470   43.2400 C   0  0  0  0  0  0  0  0  0  0  0  0
   41.1590   27.5400   43.0260 C   0  0  0  0  0  0  0  0  0  0  0  0
   40.0770   27.4550   42.2030 C   0  0  0  0  0  0  0  0  0  0  0  0
   39.8190   28.6220   41.5640 N   0  0  0  0  0  0  0  0  0  0  0  0
   42.1690   30.7350   42.6340 H   0  0  0  0  0  0  0  0  0  0  0  0
   42.7930   28.6760   43.8940 H   0  0  0  0  0  0  0  0  0  0  0  0
   41.4830   26.6850   43.6010 H   0  0  0  0  0  0  0  0  0  0  0  0
   37.9150   26.3130   42.2640 C   0  0  0  0  0  0  0  0  0  0  0  0
   39.2730   26.2560   42.0140 C   0  0  0  0  0  0  0  0  0  0  0  0
   39.8550   25.0800   41.5940 C   0  0  0  0  0  0  0  0  0  0  0  0
   40.9090   24.9730   41.3820 H   0  0  0  0  0  0  0  0  0  0  0  0
   39.1250   23.9270   41.4060 C   0  0  0  0  0  0  0  0  0  0  0  0
   39.5800   22.9990   41.0730 H   0  0  0  0  0  0  0  0  0  0  0  0
   37.7660   23.9170   41.6360 C   0  0  0  0  0  3  0  0  0  0  0  0
   37.2280   25.1130   42.0550 C   0  0  0  0  0  3  0  0  0  0  0  0
   37.8860   28.6200   43.4420 H   0  0  0  0  0  0  0  0  0  0  0  0
   37.0840   27.7310   42.7930 S   0  0  0  0  0  0  0  0  0  0  0  0
   36.4560   28.3950   41.5880 O   0  0  0  0  0  0  0  0  0  0  0  0
   35.9100   27.3350   43.6770 O   0  0  0  0  0  0  0  0  0  0  0  0
  1  7  1  0  0  0  0
  1  2  1  0  0  0  0
  2  8  1  0  0  0  0
  3  2  2  0  0  0  0
  3 26  1  0  0  0  0
  4  3  1  0  0  0  0
  5  6  1  0  0  0  0
  5  4  2  0  0  0  0
  6  1  2  0  0  0  0
  9 15  1  6  0  0  0
  9 10  1  0  0  0  0
  9  5  1  0  0  0  0
 10 17  1  0  0  0  0
 11 18  1  0  0  0  0
 11 19  1  0  0  0  0
 11 10  1  0  0  0  0
 12 11  1  0  0  0  0
 13 12  1  0  0  0  0
 13 14  2  0  0  0  0
 14  9  1  0  0  0  0
 16 10  1  0  0  0  0
 20 12  1  0  0  0  0
 21 12  1  0  0  0  0
 22 13  1  0  0  0  0
 23 14  1  0  0  0  0
 24 23  1  0  0  0  0
 25 23  1  0  0  0  0
 26 27  1  0  0  0  0
 27 32  1  0  0  0  0
 27 28  2  0  0  0  0
 28 33  1  0  0  0  0
 29 28  1  0  0  0  0
 29 34  1  0  0  0  0
 30 29  2  0  0  0  0
 31 26  2  0  0  0  0
 31 30  1  0  0  0  0
 35 44  1  0  0  0  0
 36 30  1  0  0  0  0
 36 35  2  0  0  0  0
 37 36  1  0  0  0  0
 38 37  1  0  0  0  0
 39 37  2  0  0  0  0
 39 41  1  0  0  0  0
 40 39  1  0  0  0  0
 41 42  2  0  0  0  0
 42 35  1  0  0  0  0
 44 43  1  0  0  0  0
 44 46  2  0  0  0  0
 45 44  2  0  0  0  0
M  END
>  <minimizedAffinity>
-6.6922369

$$$$

 OpenBabel03252505093D

 46 49  0  0  1  0  0  0  0  0999 V2000
   32.6980   26.7140   35.9380 C   0  0  0  0  0  0  0  0  0  0  0  0
   33.9250   27.1250   36.5160 C   0  0  0  0  0  0  0  0  0  0  0  0
   33.9700   28.4180   37.1230 C   0  0  0  0  0  0  0  0  0  0  0  0
   32.8470   29.1780   37.1120 N   0  0  0  0  0  0  0  0  0  0  0  0
   31.7050   28.7500   36.5520 C   0  0  0  0  0  0  0  0  0  0  0  0
   31.6200   27.5200   35.9620 N   0  0  0  0  0  0  0  0  0  0  0  0
   32.6070   25.7450   35.4650 H   0  0  0  0  0  0  0  0  0  0  0  0
   34.7680   26.4780   36.4900 H   0  0  0  0  0  0  0  0  0  0  0  0
   30.5150   29.6210   36.5670 C   0  0  2  0  0  0  0  0  0  0  0  0
   30.5220   30.3460   35.2520 C   0  0  0  0  0  0  0  0  0  0  0  0
   30.9410   31.7670   35.2970 C   0  0  0  0  0  0  0  0  0  0  0  0
   29.9980   32.4280   36.2970 C   0  0  0  0  0  0  0  0  0  0  0  0
   30.1850   31.9270   37.6530 C   0  0  0  0  0  0  0  0  0  0  0  0
   30.4530   30.4590   37.7440 C   0  0  0  0  0  0  0  0  0  0  0  0
   29.6380   28.9110   36.5910 H   0  0  0  0  0  0  0  0  0  0  0  0
   29.4870   30.3220   34.8500 H   0  0  0  0  0  0  0  0  0  0  0  0
   31.1340   29.8300   34.4790 H   0  0  0  0  0  0  0  0  0  0  0  0
   31.9880   31.9710   35.5090 H   0  0  0  0  0  0  0  0  0  0  0  0
   30.6830   32.2240   34.3220 H   0  0  0  0  0  0  0  0  0  0  0  0
   30.3260   33.4900   36.3130 H   0  0  0  0  0  0  0  0  0  0  0  0
   28.9720   32.4040   35.9130 H   0  0  0  0  0  0  0  0  0  0  0  0
   30.1850   32.3300   38.6290 H   0  0  0  0  0  0  0  0  0  0  0  0
   30.6580   29.8350   39.0070 N   0  0  0  0  0  0  0  0  0  0  0  0
   29.8110   29.2280   39.1810 H   0  0  0  0  0  0  0  0  0  0  0  0
   31.5350   30.0750   39.4860 H   0  0  0  0  0  0  0  0  0  0  0  0
   35.2120   28.8580   37.7200 C   0  0  0  0  0  0  0  0  0  0  0  0
   36.0290   29.6680   36.9950 C   0  0  0  0  0  0  0  0  0  0  0  0
   37.2240   30.0650   37.6260 C   0  0  0  0  0  0  0  0  0  0  0  0
   37.4410   29.5950   38.9030 C   0  0  0  0  0  0  0  0  0  0  0  0
   36.6200   28.7840   39.6260 C   0  0  0  0  0  0  0  0  0  0  0  0
   35.4950   28.4490   38.9490 N   0  0  0  0  0  0  0  0  0  0  0  0
   35.7660   29.9810   35.9990 H   0  0  0  0  0  0  0  0  0  0  0  0
   37.8910   30.7010   37.0890 H   0  0  0  0  0  0  0  0  0  0  0  0
   38.3770   29.9440   39.3150 H   0  0  0  0  0  0  0  0  0  0  0  0
   37.0070   26.9580   41.2070 C   0  0  0  0  0  0  0  0  0  0  0  0
   36.9000   28.3160   40.9760 C   0  0  0  0  0  0  0  0  0  0  0  0
   37.0560   29.2120   42.0110 C   0  0  0  0  0  0  0  0  0  0  0  0
   36.9840   30.2840   41.8940 H   0  0  0  0  0  0  0  0  0  0  0  0
   37.3200   28.8050   43.3010 C   0  0  0  0  0  0  0  0  0  0  0  0
   37.4450   29.5090   44.1180 H   0  0  0  0  0  0  0  0  0  0  0  0
   37.4400   27.4640   43.5970 C   0  0  0  0  0  3  0  0  0  0  0  0
   37.2770   26.6060   42.5330 C   0  0  0  0  0  3  0  0  0  0  0  0
   35.8680   26.0410   39.0680 H   0  0  0  0  0  0  0  0  0  0  0  0
   36.8300   25.7500   39.9870 S   0  0  0  0  0  0  0  0  0  0  0  0
   38.1630   25.5740   39.2910 O   0  0  0  0  0  0  0  0  0  0  0  0
   36.5500   24.4030   40.6370 O   0  0  0  0  0  0  0  0  0  0  0  0
  1  6  2  0  0  0  0
  1  2  1  0  0  0  0
  2  3  2  0  0  0  0
  3 26  1  0  0  0  0
  4  3  1  0  0  0  0
  5  9  1  0  0  0  0
  5  4  2  0  0  0  0
  6  5  1  0  0  0  0
  7  1  1  0  0  0  0
  8  2  1  0  0  0  0
  9 15  1  1  0  0  0
  9 14  1  0  0  0  0
 10 11  1  0  0  0  0
 10  9  1  0  0  0  0
 11 18  1  0  0  0  0
 11 12  1  0  0  0  0
 12 20  1  0  0  0  0
 12 13  1  0  0  0  0
 13 14  2  0  0  0  0
 13 22  1  0  0  0  0
 14 23  1  0  0  0  0
 16 10  1  0  0  0  0
 17 10  1  0  0  0  0
 19 11  1  0  0  0  0
 21 12  1  0  0  0  0
 23 24  1  0  0  0  0
 23 25  1  0  0  0  0
 26 31  1  0  0  0  0
 27 28  1  0  0  0  0
 27 26  2  0  0  0  0
 28 29  2  0  0  0  0
 29 34  1  0  0  0  0
 29 30  1  0  0  0  0
 30 36  1  0  0  0  0
 31 30  2  0  0  0  0
 32 27  1  0  0  0  0
 33 28  1  0  0  0  0
 35 42  1  0  0  0  0
 36 35  2  0  0  0  0
 36 37  1  0  0  0  0
 37 39  2  0  0  0  0
 38 37  1  0  0  0  0
 39 41  1  0  0  0  0
 39 40  1  0  0  0  0
 42 41  2  0  0  0  0
 43 44  1  0  0  0  0
 44 46  2  0  0  0  0
 44 35  1  0  0  0  0
 45 44  2  0  0  0  0
M  END
>  <minimizedAffinity>
-6.61467648

$$$$

 OpenBabel03252505093D

 46 49  0  0  1  0  0  0  0  0999 V2000
   35.1670   27.6840   37.4940 C   0  0  0  0  0  0  0  0  0  0  0  0
   35.7380   26.7210   38.3620 C   0  0  0  0  0  0  0  0  0  0  0  0
   36.6000   27.1920   39.4000 C   0  0  0  0  0  0  0  0  0  0  0  0
   36.8260   28.5260   39.4980 N   0  0  0  0  0  0  0  0  0  0  0  0
   36.2650   29.4050   38.6530 C   0  0  0  0  0  0  0  0  0  0  0  0
   35.4350   28.9950   37.6490 N   0  0  0  0  0  0  0  0  0  0  0  0
   34.5070   27.3840   36.6910 H   0  0  0  0  0  0  0  0  0  0  0  0
   35.5180   25.6890   38.2290 H   0  0  0  0  0  0  0  0  0  0  0  0
   36.5490   30.8440   38.8060 C   0  0  2  0  0  0  0  0  0  0  0  0
   37.7000   31.1340   37.8850 C   0  0  0  0  0  0  0  0  0  0  0  0
   39.0190   31.3180   38.5330 C   0  0  0  0  0  0  0  0  0  0  0  0
   38.8120   32.4430   39.5430 C   0  0  0  0  0  0  0  0  0  0  0  0
   37.9030   32.0650   40.6180 C   0  0  0  0  0  0  0  0  0  0  0  0
   36.7400   31.2310   40.1860 C   0  0  0  0  0  0  0  0  0  0  0  0
   35.6270   31.3630   38.4160 H   0  0  0  0  0  0  0  0  0  0  0  0
   37.4670   32.0750   37.3420 H   0  0  0  0  0  0  0  0  0  0  0  0
   37.8130   30.3700   37.0830 H   0  0  0  0  0  0  0  0  0  0  0  0
   39.4850   30.4390   38.9740 H   0  0  0  0  0  0  0  0  0  0  0  0
   39.7090   31.7420   37.7780 H   0  0  0  0  0  0  0  0  0  0  0  0
   39.8110   32.5680   40.0150 H   0  0  0  0  0  0  0  0  0  0  0  0
   38.5750   33.3760   39.0190 H   0  0  0  0  0  0  0  0  0  0  0  0
   37.8360   32.2220   41.6600 H   0  0  0  0  0  0  0  0  0  0  0  0
   35.7730   30.7880   41.1320 N   0  0  0  0  0  0  0  0  0  0  0  0
   34.8840   31.3200   40.9230 H   0  0  0  0  0  0  0  0  0  0  0  0
   36.0960   30.0780   41.8020 H   0  0  0  0  0  0  0  0  0  0  0  0
   37.1930   26.2260   40.2980 C   0  0  0  0  0  0  0  0  0  0  0  0
   36.5620   25.0350   40.4760 C   0  0  0  0  0  0  0  0  0  0  0  0
   37.1840   24.1330   41.3620 C   0  0  0  0  0  0  0  0  0  0  0  0
   38.3570   24.5470   41.9530 C   0  0  0  0  0  0  0  0  0  0  0  0
   38.9860   25.7420   41.7730 C   0  0  0  0  0  0  0  0  0  0  0  0
   38.3250   26.5500   40.9080 N   0  0  0  0  0  0  0  0  0  0  0  0
   35.6440   24.8050   39.9640 H   0  0  0  0  0  0  0  0  0  0  0  0
   36.7190   23.1870   41.5280 H   0  0  0  0  0  0  0  0  0  0  0  0
   38.7690   23.8010   42.6170 H   0  0  0  0  0  0  0  0  0  0  0  0
   40.3960   27.4420   42.8230 C   0  0  0  0  0  0  0  0  0  0  0  0
   40.2280   26.1300   42.4260 C   0  0  0  0  0  0  0  0  0  0  0  0
   41.2240   25.2030   42.6450 C   0  0  0  0  0  0  0  0  0  0  0  0
   41.1520   24.1640   42.3580 H   0  0  0  0  0  0  0  0  0  0  0  0
   42.4130   25.5350   43.2590 C   0  0  0  0  0  0  0  0  0  0  0  0
   43.1990   24.8070   43.4340 H   0  0  0  0  0  0  0  0  0  0  0  0
   42.6430   26.8270   43.6800 C   0  0  0  0  0  3  0  0  0  0  0  0
   41.6200   27.7180   43.4400 C   0  0  0  0  0  3  0  0  0  0  0  0
   38.6290   28.6580   41.3700 H   0  0  0  0  0  0  0  0  0  0  0  0
   39.2170   28.6820   42.5980 S   0  0  0  0  0  0  0  0  0  0  0  0
   38.1600   28.5380   43.6710 O   0  0  0  0  0  0  0  0  0  0  0  0
   39.8490   30.0430   42.8550 O   0  0  0  0  0  0  0  0  0  0  0  0
  1  6  2  0  0  0  0
  1  2  1  0  0  0  0
  2  3  2  0  0  0  0
  3  4  1  0  0  0  0
  3 26  1  0  0  0  0
  5  9  1  0  0  0  0
  5  4  2  0  0  0  0
  6  5  1  0  0  0  0
  7  1  1  0  0  0  0
  8  2  1  0  0  0  0
  9 15  1  6  0  0  0
  9 14  1  0  0  0  0
 10 11  1  0  0  0  0
 10  9  1  0  0  0  0
 11 18  1  0  0  0  0
 11 12  1  0  0  0  0
 12 20  1  0  0  0  0
 12 13  1  0  0  0  0
 13 22  1  0  0  0  0
 14 13  2  0  0  0  0
 14 23  1  0  0  0  0
 16 10  1  0  0  0  0
 17 10  1  0  0  0  0
 19 11  1  0  0  0  0
 21 12  1  0  0  0  0
 23 25  1  0  0  0  0
 24 23  1  0  0  0  0
 26 27  2  0  0  0  0
 26 31  1  0  0  0  0
 27 28  1  0  0  0  0
 28 33  1  0  0  0  0
 28 29  2  0  0  0  0
 29 34  1  0  0  0  0
 30 29  1  0  0  0  0
 30 36  1  0  0  0  0
 31 30  2  0  0  0  0
 32 27  1  0  0  0  0
 35 42  1  0  0  0  0
 36 37  1  0  0  0  0
 36 35  2  0  0  0  0
 37 39  2  0  0  0  0
 38 37  1  0  0  0  0
 39 40  1  0  0  0  0
 39 41  1  0  0  0  0
 42 41  2  0  0  0  0
 43 44  1  0  0  0  0
 44 35  1  0  0  0  0
 44 46  2  0  0  0  0
 44 45  2  0  0  0  0
M  END
>  <minimizedAffinity>
-6.54130602

$$$$

 OpenBabel03252505093D

 46 49  0  0  1  0  0  0  0  0999 V2000
   35.2850   29.4910   40.0850 C   0  0  0  0  0  0  0  0  0  0  0  0
   36.1170   30.6230   39.9070 C   0  0  0  0  0  0  0  0  0  0  0  0
   37.3320   30.6780   40.6580 C   0  0  0  0  0  0  0  0  0  0  0  0
   37.6210   29.6510   41.4950 N   0  0  0  0  0  0  0  0  0  0  0  0
   36.8040   28.5950   41.6340 C   0  0  0  0  0  0  0  0  0  0  0  0
   35.6340   28.5050   40.9340 N   0  0  0  0  0  0  0  0  0  0  0  0
   34.3540   29.3970   39.5420 H   0  0  0  0  0  0  0  0  0  0  0  0
   35.8300   31.3940   39.2330 H   0  0  0  0  0  0  0  0  0  0  0  0
   37.1690   27.5090   42.5620 C   0  0  2  0  0  0  0  0  0  0  0  0
   38.1070   28.1220   43.5610 C   0  0  0  0  0  0  0  0  0  0  0  0
   39.5410   27.7840   43.3980 C   0  0  0  0  0  0  0  0  0  0  0  0
   39.5960   26.2590   43.4390 C   0  0  0  0  0  0  0  0  0  0  0  0
   38.9220   25.6470   42.3000 C   0  0  0  0  0  0  0  0  0  0  0  0
   37.6620   26.3340   41.8780 C   0  0  0  0  0  0  0  0  0  0  0  0
   36.2050   27.2380   43.0820 H   0  0  0  0  0  0  0  0  0  0  0  0
   37.8000   27.7720   44.5700 H   0  0  0  0  0  0  0  0  0  0  0  0
   38.0180   29.2300   43.6120 H   0  0  0  0  0  0  0  0  0  0  0  0
   40.0560   28.1990   42.5340 H   0  0  0  0  0  0  0  0  0  0  0  0
   40.0690   28.1090   44.3150 H   0  0  0  0  0  0  0  0  0  0  0  0
   40.6760   26.0260   43.3180 H   0  0  0  0  0  0  0  0  0  0  0  0
   39.2880   25.9010   44.4280 H   0  0  0  0  0  0  0  0  0  0  0  0
   39.0840   24.8210   41.6630 H   0  0  0  0  0  0  0  0  0  0  0  0
   36.9030   25.8460   40.7780 N   0  0  0  0  0  0  0  0  0  0  0  0
   36.0100   25.4500   41.1830 H   0  0  0  0  0  0  0  0  0  0  0  0
   37.3330   25.9610   39.8520 H   0  0  0  0  0  0  0  0  0  0  0  0
   38.1970   31.8250   40.4920 C   0  0  0  0  0  0  0  0  0  0  0  0
   37.6270   33.0390   40.2690 C   0  0  0  0  0  0  0  0  0  0  0  0
   38.5170   34.1200   40.1130 C   0  0  0  0  0  0  0  0  0  0  0  0
   39.8630   33.8380   40.2020 C   0  0  0  0  0  0  0  0  0  0  0  0
   40.4300   32.6190   40.4250 C   0  0  0  0  0  0  0  0  0  0  0  0
   39.5080   31.6360   40.5630 N   0  0  0  0  0  0  0  0  0  0  0  0
   36.5590   33.1560   40.2170 H   0  0  0  0  0  0  0  0  0  0  0  0
   38.1080   35.0890   39.9370 H   0  0  0  0  0  0  0  0  0  0  0  0
   40.4760   34.7170   40.0720 H   0  0  0  0  0  0  0  0  0  0  0  0
   42.5890   32.2320   39.3430 C   0  0  0  0  0  0  0  0  0  0  0  0
   41.8630   32.3770   40.5100 C   0  0  0  0  0  0  0  0  0  0  0  0
   42.4900   32.2940   41.7340 C   0  0  0  0  0  0  0  0  0  0  0  0
   41.9780   32.3990   42.6800 H   0  0  0  0  0  0  0  0  0  0  0  0
   43.8440   32.0650   41.8510 C   0  0  0  0  0  0  0  0  0  0  0  0
   44.3410   32.0000   42.8140 H   0  0  0  0  0  0  0  0  0  0  0  0
   44.6240   31.9120   40.7250 C   0  0  0  0  0  3  0  0  0  0  0  0
   43.9560   32.0030   39.5250 C   0  0  0  0  0  3  0  0  0  0  0  0
   40.6160   31.8860   37.6990 H   0  0  0  0  0  0  0  0  0  0  0  0
   41.9060   32.3180   37.7590 S   0  0  0  0  0  0  0  0  0  0  0  0
   41.9870   33.7510   37.2810 O   0  0  0  0  0  0  0  0  0  0  0  0
   42.7730   31.5330   36.7850 O   0  0  0  0  0  0  0  0  0  0  0  0
  1  6  1  0  0  0  0
  2  1  2  0  0  0  0
  2  3  1  0  0  0  0
  3  4  2  0  0  0  0
  4  5  1  0  0  0  0
  5  9  1  0  0  0  0
  6  5  2  0  0  0  0
  7  1  1  0  0  0  0
  8  2  1  0  0  0  0
  9 15  1  1  0  0  0
  9 10  1  0  0  0  0
 10 17  1  0  0  0  0
 10 16  1  0  0  0  0
 11 12  1  0  0  0  0
 11 10  1  0  0  0  0
 11 19  1  0  0  0  0
 12 21  1  0  0  0  0
 13 12  1  0  0  0  0
 14 13  2  0  0  0  0
 14  9  1  0  0  0  0
 18 11  1  0  0  0  0
 20 12  1  0  0  0  0
 22 13  1  0  0  0  0
 23 24  1  0  0  0  0
 23 14  1  0  0  0  0
 25 23  1  0  0  0  0
 26 31  1  0  0  0  0
 26  3  1  0  0  0  0
 27 26  2  0  0  0  0
 28 29  2  0  0  0  0
 28 27  1  0  0  0  0
 29 30  1  0  0  0  0
 30 36  1  0  0  0  0
 30 31  2  0  0  0  0
 32 27  1  0  0  0  0
 33 28  1  0  0  0  0
 34 29  1  0  0  0  0
 35 42  2  0  0  0  0
 35 36  1  0  0  0  0
 36 37  2  0  0  0  0
 37 39  1  0  0  0  0
 37 38  1  0  0  0  0
 39 40  1  0  0  0  0
 41 39  2  0  0  0  0
 42 41  1  0  0  0  0
 43 44  1  0  0  0  0
 44 35  1  0  0  0  0
 45 44  2  0  0  0  0
 46 44  2  0  0  0  0
M  END
>  <minimizedAffinity>
-6.42788363

$$$$

 OpenBabel03252505093D

 46 49  0  0  1  0  0  0  0  0999 V2000
   36.9300   31.0790   38.1340 C   0  0  0  0  0  0  0  0  0  0  0  0
   36.9010   30.0920   39.1500 C   0  0  0  0  0  0  0  0  0  0  0  0
   37.8950   30.1660   40.1750 C   0  0  0  0  0  0  0  0  0  0  0  0
   38.8070   31.1690   40.1200 N   0  0  0  0  0  0  0  0  0  0  0  0
   38.7990   32.0840   39.1390 C   0  0  0  0  0  0  0  0  0  0  0  0
   37.8660   32.0490   38.1420 N   0  0  0  0  0  0  0  0  0  0  0  0
   36.2020   31.0720   37.3340 H   0  0  0  0  0  0  0  0  0  0  0  0
   36.1570   29.3330   39.1330 H   0  0  0  0  0  0  0  0  0  0  0  0
   39.8170   33.1500   39.1290 C   0  0  2  0  0  0  0  0  0  0  0  0
   40.9760   32.6030   38.3470 C   0  0  0  0  0  0  0  0  0  0  0  0
   42.1530   32.1780   39.1410 C   0  0  0  0  0  0  0  0  0  0  0  0
   42.5540   33.4110   39.9470 C   0  0  0  0  0  0  0  0  0  0  0  0
   41.5420   33.7870   40.9260 C   0  0  0  0  0  0  0  0  0  0  0  0
   40.1310   33.6330   40.4560 C   0  0  0  0  0  0  0  0  0  0  0  0
   39.3460   33.9940   38.5480 H   0  0  0  0  0  0  0  0  0  0  0  0
   41.3190   33.3990   37.6520 H   0  0  0  0  0  0  0  0  0  0  0  0
   40.6860   31.7590   37.6820 H   0  0  0  0  0  0  0  0  0  0  0  0
   42.0430   31.2900   39.7590 H   0  0  0  0  0  0  0  0  0  0  0  0
   42.9930   32.0180   38.4370 H   0  0  0  0  0  0  0  0  0  0  0  0
   43.4370   33.0740   40.5310 H   0  0  0  0  0  0  0  0  0  0  0  0
   42.8870   34.2060   39.2710 H   0  0  0  0  0  0  0  0  0  0  0  0
   41.5280   34.1520   41.9180 H   0  0  0  0  0  0  0  0  0  0  0  0
   39.0410   33.9620   41.3110 N   0  0  0  0  0  0  0  0  0  0  0  0
   38.5970   34.8330   40.9080 H   0  0  0  0  0  0  0  0  0  0  0  0
   38.8950   33.3330   42.1100 H   0  0  0  0  0  0  0  0  0  0  0  0
   37.8830   29.1690   41.2220 C   0  0  0  0  0  0  0  0  0  0  0  0
   37.8900   29.5890   42.5160 C   0  0  0  0  0  0  0  0  0  0  0  0
   37.8790   28.5750   43.4940 C   0  0  0  0  0  0  0  0  0  0  0  0
   37.8630   27.2730   43.0440 C   0  0  0  0  0  0  0  0  0  0  0  0
   37.8570   26.8570   41.7460 C   0  0  0  0  0  0  0  0  0  0  0  0
   37.8690   27.8910   40.8700 N   0  0  0  0  0  0  0  0  0  0  0  0
   37.9010   30.6360   42.7650 H   0  0  0  0  0  0  0  0  0  0  0  0
   37.8830   28.8650   44.5210 H   0  0  0  0  0  0  0  0  0  0  0  0
   37.8560   26.5590   43.8530 H   0  0  0  0  0  0  0  0  0  0  0  0
   39.0340   24.7690   41.2600 C   0  0  0  0  0  0  0  0  0  0  0  0
   37.8410   25.4630   41.3250 C   0  0  0  0  0  0  0  0  0  0  0  0
   36.6550   24.8440   40.9960 C   0  0  0  0  0  0  0  0  0  0  0  0
   35.6930   25.3330   41.0270 H   0  0  0  0  0  0  0  0  0  0  0  0
   36.6040   23.5270   40.5930 C   0  0  0  0  0  0  0  0  0  0  0  0
   35.6710   23.0350   40.3330 H   0  0  0  0  0  0  0  0  0  0  0  0
   37.7570   22.7780   40.5070 C   0  0  0  0  0  3  0  0  0  0  0  0
   38.9180   23.4380   40.8460 C   0  0  0  0  0  3  0  0  0  0  0  0
   40.5470   26.7970   41.8160 H   0  0  0  0  0  0  0  0  0  0  0  0
   40.5730   25.4450   41.6500 S   0  0  0  0  0  0  0  0  0  0  0  0
   41.0790   24.7860   42.9140 O   0  0  0  0  0  0  0  0  0  0  0  0
   41.5860   25.0640   40.5790 O   0  0  0  0  0  0  0  0  0  0  0  0
  1  6  2  0  0  0  0
  1  2  1  0  0  0  0
  2  3  2  0  0  0  0
  3 26  1  0  0  0  0
  4  3  1  0  0  0  0
  5  4  2  0  0  0  0
  6  5  1  0  0  0  0
  7  1  1  0  0  0  0
  8  2  1  0  0  0  0
  9 15  1  6  0  0  0
  9  5  1  0  0  0  0
  9 14  1  0  0  0  0
 10  9  1  0  0  0  0
 10 11  1  0  0  0  0
 11 18  1  0  0  0  0
 11 12  1  0  0  0  0
 12 20  1  0  0  0  0
 12 13  1  0  0  0  0
 13 22  1  0  0  0  0
 14 13  2  0  0  0  0
 14 23  1  0  0  0  0
 16 10  1  0  0  0  0
 17 10  1  0  0  0  0
 19 11  1  0  0  0  0
 21 12  1  0  0  0  0
 23 25  1  0  0  0  0
 24 23  1  0  0  0  0
 26 27  1  0  0  0  0
 27 32  1  0  0  0  0
 27 28  2  0  0  0  0
 28 33  1  0  0  0  0
 29 28  1  0  0  0  0
 29 34  1  0  0  0  0
 30 29  2  0  0  0  0
 31 26  2  0  0  0  0
 31 30  1  0  0  0  0
 35 36  1  0  0  0  0
 35 44  1  0  0  0  0
 36 30  1  0  0  0  0
 37 38  1  0  0  0  0
 37 36  2  0  0  0  0
 39 37  1  0  0  0  0
 40 39  1  0  0  0  0
 41 39  2  0  0  0  0
 41 42  1  0  0  0  0
 42 35  2  0  0  0  0
 44 43  1  0  0  0  0
 44 45  2  0  0  0  0
 46 44  2  0  0  0  0
M  END
>  <minimizedAffinity>
-6.30521154

$$$$

 OpenBabel03252505093D

 46 49  0  0  1  0  0  0  0  0999 V2000
   37.3240   29.7300   38.3700 C   0  0  0  0  0  0  0  0  0  0  0  0
   36.1570   29.5170   37.5950 C   0  0  0  0  0  0  0  0  0  0  0  0
   35.2630   28.4830   38.0150 C   0  0  0  0  0  0  0  0  0  0  0  0
   35.5770   27.7670   39.1230 N   0  0  0  0  0  0  0  0  0  0  0  0
   36.6940   28.0030   39.8290 C   0  0  0  0  0  0  0  0  0  0  0  0
   37.5730   28.9810   39.4610 N   0  0  0  0  0  0  0  0  0  0  0  0
   38.0350   30.4990   38.0990 H   0  0  0  0  0  0  0  0  0  0  0  0
   35.9720   30.1160   36.7370 H   0  0  0  0  0  0  0  0  0  0  0  0
   36.9850   27.1890   41.0240 C   0  0  2  0  0  0  0  0  0  0  0  0
   36.4140   27.9500   42.1860 C   0  0  0  0  0  0  0  0  0  0  0  0
   37.3940   28.6550   43.0450 C   0  0  0  0  0  0  0  0  0  0  0  0
   38.3670   27.5730   43.5070 C   0  0  0  0  0  0  0  0  0  0  0  0
   39.1450   27.0190   42.4060 C   0  0  0  0  0  0  0  0  0  0  0  0
   38.3830   26.8390   41.1320 C   0  0  0  0  0  0  0  0  0  0  0  0
   36.3920   26.2400   40.8780 H   0  0  0  0  0  0  0  0  0  0  0  0
   35.8740   27.2240   42.8310 H   0  0  0  0  0  0  0  0  0  0  0  0
   35.6340   28.6830   41.8790 H   0  0  0  0  0  0  0  0  0  0  0  0
   37.8990   29.5190   42.6200 H   0  0  0  0  0  0  0  0  0  0  0  0
   36.8670   28.9710   43.9660 H   0  0  0  0  0  0  0  0  0  0  0  0
   39.0900   28.1200   44.1510 H   0  0  0  0  0  0  0  0  0  0  0  0
   37.8440   26.8470   44.1390 H   0  0  0  0  0  0  0  0  0  0  0  0
   40.1400   26.6990   42.2520 H   0  0  0  0  0  0  0  0  0  0  0  0
   39.0200   26.3090   39.9750 N   0  0  0  0  0  0  0  0  0  0  0  0
   38.6110   25.3470   39.8220 H   0  0  0  0  0  0  0  0  0  0  0  0
   39.7160   26.9200   39.5290 H   0  0  0  0  0  0  0  0  0  0  0  0
   34.0650   28.2480   37.2390 C   0  0  0  0  0  0  0  0  0  0  0  0
   33.7350   26.9660   36.9300 C   0  0  0  0  0  0  0  0  0  0  0  0
   32.5590   26.7960   36.1730 C   0  0  0  0  0  0  0  0  0  0  0  0
   31.8710   27.9380   35.8250 C   0  0  0  0  0  0  0  0  0  0  0  0
   32.2060   29.2210   36.1360 C   0  0  0  0  0  0  0  0  0  0  0  0
   33.3460   29.2970   36.8640 N   0  0  0  0  0  0  0  0  0  0  0  0
   34.3420   26.1380   37.2520 H   0  0  0  0  0  0  0  0  0  0  0  0
   32.2660   25.8040   35.9110 H   0  0  0  0  0  0  0  0  0  0  0  0
   30.9840   27.7230   35.2470 H   0  0  0  0  0  0  0  0  0  0  0  0
   30.4160   30.8340   36.5580 C   0  0  0  0  0  0  0  0  0  0  0  0
   31.4400   30.3950   35.7400 C   0  0  0  0  0  0  0  0  0  0  0  0
   31.7290   31.0590   34.5680 C   0  0  0  0  0  0  0  0  0  0  0  0
   32.5150   30.7640   33.8880 H   0  0  0  0  0  0  0  0  0  0  0  0
   31.0240   32.1720   34.1630 C   0  0  0  0  0  0  0  0  0  0  0  0
   31.2490   32.6980   33.2400 H   0  0  0  0  0  0  0  0  0  0  0  0
   29.9910   32.6610   34.9330 C   0  0  0  0  0  3  0  0  0  0  0  0
   29.7380   31.9660   36.0950 C   0  0  0  0  0  3  0  0  0  0  0  0
   31.0350   29.6920   38.8000 H   0  0  0  0  0  0  0  0  0  0  0  0
   29.9700   30.0790   38.0440 S   0  0  0  0  0  0  0  0  0  0  0  0
   29.1110   31.0440   38.8320 O   0  0  0  0  0  0  0  0  0  0  0  0
   29.0620   28.8900   37.7620 O   0  0  0  0  0  0  0  0  0  0  0  0
  1  6  1  0  0  0  0
  2  3  1  0  0  0  0
  2  1  2  0  0  0  0
  3  4  2  0  0  0  0
  4  5  1  0  0  0  0
  5  9  1  0  0  0  0
  6  5  2  0  0  0  0
  7  1  1  0  0  0  0
  8  2  1  0  0  0  0
  9 15  1  6  0  0  0
  9 14  1  0  0  0  0
  9 10  1  0  0  0  0
 10 16  1  0  0  0  0
 10 11  1  0  0  0  0
 11 12  1  0  0  0  0
 11 19  1  0  0  0  0
 12 21  1  0  0  0  0
 12 20  1  0  0  0  0
 13 12  1  0  0  0  0
 14 13  2  0  0  0  0
 17 10  1  0  0  0  0
 18 11  1  0  0  0  0
 22 13  1  0  0  0  0
 23 14  1  0  0  0  0
 24 23  1  0  0  0  0
 25 23  1  0  0  0  0
 26  3  1  0  0  0  0
 27 26  1  0  0  0  0
 27 32  1  0  0  0  0
 28 27  2  0  0  0  0
 29 30  2  0  0  0  0
 29 28  1  0  0  0  0
 30 31  1  0  0  0  0
 31 26  2  0  0  0  0
 33 28  1  0  0  0  0
 34 29  1  0  0  0  0
 35 44  1  0  0  0  0
 36 30  1  0  0  0  0
 36 35  2  0  0  0  0
 37 36  1  0  0  0  0
 38 37  1  0  0  0  0
 39 37  2  0  0  0  0
 39 41  1  0  0  0  0
 40 39  1  0  0  0  0
 41 42  2  0  0  0  0
 42 35  1  0  0  0  0
 44 43  1  0  0  0  0
 44 45  2  0  0  0  0
 46 44  2  0  0  0  0
M  END
>  <minimizedAffinity>
-6.26362181

$$$$

 OpenBabel03252505093D

 46 49  0  0  1  0  0  0  0  0999 V2000
   34.5520   29.3420   34.9970 C   0  0  0  0  0  0  0  0  0  0  0  0
   35.2750   28.5220   35.8980 C   0  0  0  0  0  0  0  0  0  0  0  0
   34.5720   28.0010   37.0290 C   0  0  0  0  0  0  0  0  0  0  0  0
   33.2620   28.3170   37.1780 N   0  0  0  0  0  0  0  0  0  0  0  0
   32.6150   29.0980   36.3000 C   0  0  0  0  0  0  0  0  0  0  0  0
   33.2500   29.6160   35.2070 N   0  0  0  0  0  0  0  0  0  0  0  0
   35.0330   29.7640   34.1250 H   0  0  0  0  0  0  0  0  0  0  0  0
   36.3020   28.3140   35.7210 H   0  0  0  0  0  0  0  0  0  0  0  0
   31.1900   29.4110   36.5160 C   0  0  2  0  0  0  0  0  0  0  0  0
   30.7390   30.1410   35.2830 C   0  0  0  0  0  0  0  0  0  0  0  0
   30.5630   31.6050   35.4230 C   0  0  0  0  0  0  0  0  0  0  0  0
   29.5720   31.7780   36.5710 C   0  0  0  0  0  0  0  0  0  0  0  0
   30.1150   31.3300   37.8470 C   0  0  0  0  0  0  0  0  0  0  0  0
   30.9530   30.0940   37.7680 C   0  0  0  0  0  0  0  0  0  0  0  0
   30.6770   28.4070   36.5570 H   0  0  0  0  0  0  0  0  0  0  0  0
   29.7560   29.7190   34.9840 H   0  0  0  0  0  0  0  0  0  0  0  0
   31.4010   29.9550   34.4070 H   0  0  0  0  0  0  0  0  0  0  0  0
   31.4610   32.2050   35.5510 H   0  0  0  0  0  0  0  0  0  0  0  0
   30.0220   31.9660   34.5270 H   0  0  0  0  0  0  0  0  0  0  0  0
   29.4510   32.8800   36.6570 H   0  0  0  0  0  0  0  0  0  0  0  0
   28.5990   31.3590   36.2890 H   0  0  0  0  0  0  0  0  0  0  0  0
   30.0810   31.6500   38.8530 H   0  0  0  0  0  0  0  0  0  0  0  0
   31.5490   29.5450   38.9390 N   0  0  0  0  0  0  0  0  0  0  0  0
   31.0430   28.6390   39.1360 H   0  0  0  0  0  0  0  0  0  0  0  0
   32.3130   30.0960   39.3510 H   0  0  0  0  0  0  0  0  0  0  0  0
   35.2900   27.1600   37.9610 C   0  0  0  0  0  0  0  0  0  0  0  0
   35.3930   25.8320   37.6900 C   0  0  0  0  0  0  0  0  0  0  0  0
   36.1020   25.0620   38.6320 C   0  0  0  0  0  0  0  0  0  0  0  0
   36.6140   25.7280   39.7240 C   0  0  0  0  0  0  0  0  0  0  0  0
   36.5080   27.0590   39.9930 C   0  0  0  0  0  0  0  0  0  0  0  0
   35.8140   27.7270   39.0400 N   0  0  0  0  0  0  0  0  0  0  0  0
   34.9560   25.4060   36.8030 H   0  0  0  0  0  0  0  0  0  0  0  0
   36.2050   24.0150   38.4540 H   0  0  0  0  0  0  0  0  0  0  0  0
   37.1420   25.0680   40.3970 H   0  0  0  0  0  0  0  0  0  0  0  0
   38.1070   28.6110   41.0020 C   0  0  0  0  0  0  0  0  0  0  0  0
   37.0700   27.7130   41.1670 C   0  0  0  0  0  0  0  0  0  0  0  0
   36.5770   27.4410   42.4240 C   0  0  0  0  0  0  0  0  0  0  0  0
   35.7700   26.7500   42.6170 H   0  0  0  0  0  0  0  0  0  0  0  0
   37.0860   28.0400   43.5570 C   0  0  0  0  0  0  0  0  0  0  0  0
   36.6990   27.8290   44.5490 H   0  0  0  0  0  0  0  0  0  0  0  0
   38.1200   28.9460   43.4610 C   0  0  0  0  0  3  0  0  0  0  0  0
   38.5800   29.1860   42.1850 C   0  0  0  0  0  3  0  0  0  0  0  0
   37.9390   28.8770   38.4300 H   0  0  0  0  0  0  0  0  0  0  0  0
   38.7990   29.0250   39.4760 S   0  0  0  0  0  0  0  0  0  0  0  0
   39.2800   30.4580   39.5410 O   0  0  0  0  0  0  0  0  0  0  0  0
   40.0580   28.2010   39.2450 O   0  0  0  0  0  0  0  0  0  0  0  0
  1  6  2  0  0  0  0
  1  2  1  0  0  0  0
  2  3  2  0  0  0  0
  3  4  1  0  0  0  0
  3 26  1  0  0  0  0
  5  9  1  0  0  0  0
  5  4  2  0  0  0  0
  6  5  1  0  0  0  0
  7  1  1  0  0  0  0
  8  2  1  0  0  0  0
  9 15  1  1  0  0  0
  9 14  1  0  0  0  0
 10 11  1  0  0  0  0
 10  9  1  0  0  0  0
 11 18  1  0  0  0  0
 11 12  1  0  0  0  0
 12 20  1  0  0  0  0
 12 13  1  0  0  0  0
 13 22  1  0  0  0  0
 14 13  2  0  0  0  0
 14 23  1  0  0  0  0
 16 10  1  0  0  0  0
 17 10  1  0  0  0  0
 19 11  1  0  0  0  0
 21 12  1  0  0  0  0
 23 24  1  0  0  0  0
 23 25  1  0  0  0  0
 26 31  1  0  0  0  0
 27 26  2  0  0  0  0
 27 28  1  0  0  0  0
 28 29  2  0  0  0  0
 29 30  1  0  0  0  0
 29 34  1  0  0  0  0
 30 36  1  0  0  0  0
 31 30  2  0  0  0  0
 32 27  1  0  0  0  0
 33 28  1  0  0  0  0
 35 36  2  0  0  0  0
 35 42  1  0  0  0  0
 36 37  1  0  0  0  0
 37 38  1  0  0  0  0
 37 39  2  0  0  0  0
 39 40  1  0  0  0  0
 41 39  1  0  0  0  0
 42 41  2  0  0  0  0
 43 44  1  0  0  0  0
 44 45  2  0  0  0  0
 44 35  1  0  0  0  0
 46 44  2  0  0  0  0
M  END
>  <minimizedAffinity>
-6.19661999

$$$$
