
 OpenBabel03252502033D

 37 40  0  0  0  0  0  0  0  0999 V2000
   37.1030   32.3140   39.8850 C   0  0  0  0  0  0  0  0  0  0  0  0
   36.8860   31.1730   40.6660 C   0  0  0  0  0  0  0  0  0  0  0  0
   37.9020   30.2640   40.7440 C   0  0  0  0  0  0  0  0  0  0  0  0
   39.0340   30.5220   40.0710 N   0  0  0  0  0  0  0  0  0  0  0  0
   39.2520   31.5930   39.3310 C   0  0  0  0  0  0  0  0  0  0  0  0
   38.2630   32.4710   39.2590 N   0  0  0  0  0  0  0  0  0  0  0  0
   36.2860   33.0520   39.8180 H   0  0  0  0  0  0  0  0  0  0  0  0
   40.4180   32.0080   38.5460 C   0  0  0  0  0  0  0  0  0  0  0  0
   40.9090   33.2790   38.5310 N   0  0  0  0  0  0  0  0  0  0  0  0
   41.9580   33.7030   37.8430 C   0  0  0  0  0  0  0  0  0  0  0  0
   42.6370   32.8250   37.0690 N   0  0  0  0  0  0  0  0  0  0  0  0
   42.2520   31.5380   36.9990 C   0  0  0  0  0  0  0  0  0  0  0  0
   42.9580   30.6480   36.2010 C   0  0  0  0  0  0  0  0  0  0  0  0
   42.5780   29.3330   36.1170 C   0  0  0  0  0  0  0  0  0  0  0  0
   41.4830   28.9370   36.8490 C   0  0  0  0  0  0  0  0  0  0  0  0
   40.8140   29.8610   37.6280 C   0  0  0  0  0  0  0  0  0  0  0  0
   41.1530   31.1790   37.7430 C   0  0  0  0  0  0  0  0  0  0  0  0
   42.2810   34.7360   37.8900 H   0  0  0  0  0  0  0  0  0  0  0  0
   43.8100   31.0600   35.6600 H   0  0  0  0  0  0  0  0  0  0  0  0
   43.1890   28.7180   35.4700 H   0  0  0  0  0  0  0  0  0  0  0  0
   41.2020   27.9010   36.7690 H   0  0  0  0  0  0  0  0  0  0  0  0
   39.9490   29.4840   38.1870 H   0  0  0  0  0  0  0  0  0  0  0  0
   37.2210   27.9220   40.9350 C   0  0  0  0  0  0  0  0  0  0  0  0
   37.8590   29.0310   41.5020 C   0  0  0  0  0  0  0  0  0  0  0  0
   38.3810   28.8120   42.7510 C   0  0  0  0  0  0  0  0  0  0  0  0
   38.8850   29.6110   43.2550 H   0  0  0  0  0  0  0  0  0  0  0  0
   38.3470   27.6520   43.4880 C   0  0  0  0  0  0  0  0  0  0  0  0
   38.7810   27.5550   44.4660 H   0  0  0  0  0  0  0  0  0  0  0  0
   37.7200   26.5600   42.9310 C   0  0  0  0  0  3  0  0  0  0  0  0
   37.1790   26.7310   41.6760 C   0  0  0  0  0  3  0  0  0  0  0  0
   37.3100   28.4180   38.3730 H   0  0  0  0  0  0  0  0  0  0  0  0
   36.4780   27.9270   39.3640 S   0  0  0  0  0  0  0  0  0  0  0  0
   35.1180   28.5480   39.3410 O   0  0  0  0  0  0  0  0  0  0  0  0
   36.2550   26.4760   38.9540 O   0  0  0  0  0  0  0  0  0  0  0  0
   35.6440   31.0440   41.3140 N   0  0  0  0  0  0  0  0  0  0  0  0
   35.1190   30.5360   40.5410 H   0  0  0  0  0  0  0  0  0  0  0  0
   35.9020   31.5250   42.2270 H   0  0  0  0  0  0  0  0  0  0  0  0
  1  2  1  0  0  0  0
  2  3  2  0  0  0  0
  2 35  1  0  0  0  0
  3 24  1  0  0  0  0
  4  3  1  0  0  0  0
  5  4  2  0  0  0  0
  6  5  1  0  0  0  0
  6  1  2  0  0  0  0
  7  1  1  0  0  0  0
  8  5  1  0  0  0  0
  9  8  1  0  0  0  0
 10 18  1  0  0  0  0
 10  9  2  0  0  0  0
 11 10  1  0  0  0  0
 12 11  2  0  0  0  0
 12 17  1  0  0  0  0
 13 12  1  0  0  0  0
 14 13  2  0  0  0  0
 14 15  1  0  0  0  0
 15 16  2  0  0  0  0
 16 17  1  0  0  0  0
 16 22  1  0  0  0  0
 17  8  2  0  0  0  0
 19 13  1  0  0  0  0
 20 14  1  0  0  0  0
 21 15  1  0  0  0  0
 23 24  2  0  0  0  0
 23 30  1  0  0  0  0
 24 25  1  0  0  0  0
 25 26  1  0  0  0  0
 25 27  2  0  0  0  0
 27 28  1  0  0  0  0
 29 27  1  0  0  0  0
 30 29  2  0  0  0  0
 31 32  1  0  0  0  0
 32 23  1  0  0  0  0
 33 32  2  0  0  0  0
 34 32  2  0  0  0  0
 35 37  1  0  0  0  0
 36 35  1  0  0  0  0
M  END
>  <minimizedAffinity>
-6.7746973

$$$$

 OpenBabel03252502033D

 37 40  0  0  0  0  0  0  0  0999 V2000
   37.2120   32.3250   39.9740 C   0  0  0  0  0  0  0  0  0  0  0  0
   36.9300   31.1880   40.7420 C   0  0  0  0  0  0  0  0  0  0  0  0
   37.9290   30.2690   40.8910 C   0  0  0  0  0  0  0  0  0  0  0  0
   39.1070   30.5140   40.2970 N   0  0  0  0  0  0  0  0  0  0  0  0
   39.3860   31.5810   39.5710 C   0  0  0  0  0  0  0  0  0  0  0  0
   38.4130   32.4680   39.4300 N   0  0  0  0  0  0  0  0  0  0  0  0
   36.4080   33.0710   39.8500 H   0  0  0  0  0  0  0  0  0  0  0  0
   40.6080   31.9810   38.8690 C   0  0  0  0  0  0  0  0  0  0  0  0
   40.8270   31.7630   37.5410 N   0  0  0  0  0  0  0  0  0  0  0  0
   41.9090   32.1060   36.8610 C   0  0  0  0  0  0  0  0  0  0  0  0
   42.9190   32.7370   37.5050 N   0  0  0  0  0  0  0  0  0  0  0  0
   42.8250   33.0130   38.8180 C   0  0  0  0  0  0  0  0  0  0  0  0
   43.8680   33.6600   39.4650 C   0  0  0  0  0  0  0  0  0  0  0  0
   43.7890   33.9470   40.8040 C   0  0  0  0  0  0  0  0  0  0  0  0
   42.6460   33.5720   41.4700 C   0  0  0  0  0  0  0  0  0  0  0  0
   41.6350   32.9290   40.7810 C   0  0  0  0  0  0  0  0  0  0  0  0
   41.6680   32.6220   39.4510 C   0  0  0  0  0  0  0  0  0  0  0  0
   42.0000   31.8920   35.8040 H   0  0  0  0  0  0  0  0  0  0  0  0
   44.7300   33.9150   38.8490 H   0  0  0  0  0  0  0  0  0  0  0  0
   44.6500   34.4530   41.2170 H   0  0  0  0  0  0  0  0  0  0  0  0
   42.6030   33.8070   42.5200 H   0  0  0  0  0  0  0  0  0  0  0  0
   40.7500   32.6560   41.3680 H   0  0  0  0  0  0  0  0  0  0  0  0
   37.2130   27.9340   41.0400 C   0  0  0  0  0  0  0  0  0  0  0  0
   37.8210   29.0390   41.6480 C   0  0  0  0  0  0  0  0  0  0  0  0
   38.2520   28.8190   42.9300 C   0  0  0  0  0  0  0  0  0  0  0  0
   38.7280   29.6150   43.4670 H   0  0  0  0  0  0  0  0  0  0  0  0
   38.1560   27.6620   43.6660 C   0  0  0  0  0  0  0  0  0  0  0  0
   38.5190   27.5640   44.6720 H   0  0  0  0  0  0  0  0  0  0  0  0
   37.5580   26.5730   43.0690 C   0  0  0  0  0  3  0  0  0  0  0  0
   37.1080   26.7460   41.7800 C   0  0  0  0  0  3  0  0  0  0  0  0
   37.4770   28.4420   38.4930 H   0  0  0  0  0  0  0  0  0  0  0  0
   36.5810   27.9410   39.4210 S   0  0  0  0  0  0  0  0  0  0  0  0
   35.2230   28.5540   39.3060 O   0  0  0  0  0  0  0  0  0  0  0  0
   36.3970   26.4910   38.9910 O   0  0  0  0  0  0  0  0  0  0  0  0
   35.6450   31.0740   41.3020 N   0  0  0  0  0  0  0  0  0  0  0  0
   35.1690   30.5680   40.4960 H   0  0  0  0  0  0  0  0  0  0  0  0
   35.8440   31.5550   42.2300 H   0  0  0  0  0  0  0  0  0  0  0  0
  1  2  1  0  0  0  0
  2  3  2  0  0  0  0
  2 35  1  0  0  0  0
  3 24  1  0  0  0  0
  4  3  1  0  0  0  0
  5  4  2  0  0  0  0
  6  5  1  0  0  0  0
  6  1  2  0  0  0  0
  7  1  1  0  0  0  0
  8 17  1  0  0  0  0
  8  5  1  0  0  0  0
  9  8  2  0  0  0  0
 10 11  2  0  0  0  0
 10  9  1  0  0  0  0
 11 12  1  0  0  0  0
 12 17  2  0  0  0  0
 12 13  1  0  0  0  0
 13 14  2  0  0  0  0
 14 20  1  0  0  0  0
 14 15  1  0  0  0  0
 15 21  1  0  0  0  0
 16 22  1  0  0  0  0
 16 15  2  0  0  0  0
 17 16  1  0  0  0  0
 18 10  1  0  0  0  0
 19 13  1  0  0  0  0
 23 24  2  0  0  0  0
 23 30  1  0  0  0  0
 24 25  1  0  0  0  0
 25 26  1  0  0  0  0
 25 27  2  0  0  0  0
 27 28  1  0  0  0  0
 29 27  1  0  0  0  0
 30 29  2  0  0  0  0
 31 32  1  0  0  0  0
 32 23  1  0  0  0  0
 33 32  2  0  0  0  0
 34 32  2  0  0  0  0
 35 37  1  0  0  0  0
 36 35  1  0  0  0  0
M  END
>  <minimizedAffinity>
-6.44701242

$$$$

 OpenBabel03252502033D

 37 40  0  0  0  0  0  0  0  0999 V2000
   36.5830   30.8370   41.2640 C   0  0  0  0  0  0  0  0  0  0  0  0
   37.4500   31.7710   40.6830 C   0  0  0  0  0  0  0  0  0  0  0  0
   38.7640   31.4180   40.5660 C   0  0  0  0  0  0  0  0  0  0  0  0
   39.1360   30.2080   41.0110 N   0  0  0  0  0  0  0  0  0  0  0  0
   38.3300   29.3180   41.5600 C   0  0  0  0  0  0  0  0  0  0  0  0
   37.0570   29.6660   41.6710 N   0  0  0  0  0  0  0  0  0  0  0  0
   35.5210   31.1160   41.3610 H   0  0  0  0  0  0  0  0  0  0  0  0
   38.5850   27.9760   42.0880 C   0  0  0  0  0  0  0  0  0  0  0  0
   39.3820   27.7210   43.1640 N   0  0  0  0  0  0  0  0  0  0  0  0
   39.6420   26.5300   43.6800 C   0  0  0  0  0  0  0  0  0  0  0  0
   39.0850   25.4330   43.1170 N   0  0  0  0  0  0  0  0  0  0  0  0
   38.2760   25.5500   42.0480 C   0  0  0  0  0  0  0  0  0  0  0  0
   37.7110   24.4160   41.4820 C   0  0  0  0  0  0  0  0  0  0  0  0
   36.8860   24.5170   40.3910 C   0  0  0  0  0  0  0  0  0  0  0  0
   36.6430   25.7740   39.8890 C   0  0  0  0  0  0  0  0  0  0  0  0
   37.2300   26.8720   40.4890 C   0  0  0  0  0  0  0  0  0  0  0  0
   38.0580   26.8220   41.5740 C   0  0  0  0  0  0  0  0  0  0  0  0
   40.2900   26.4190   44.5400 H   0  0  0  0  0  0  0  0  0  0  0  0
   37.9660   23.4660   41.9530 H   0  0  0  0  0  0  0  0  0  0  0  0
   36.4950   23.5790   40.0220 H   0  0  0  0  0  0  0  0  0  0  0  0
   35.9930   25.8320   39.0330 H   0  0  0  0  0  0  0  0  0  0  0  0
   36.9980   27.8460   40.0420 H   0  0  0  0  0  0  0  0  0  0  0  0
   39.9540   32.2620   38.6010 C   0  0  0  0  0  0  0  0  0  0  0  0
   39.8010   32.2500   39.9930 C   0  0  0  0  0  0  0  0  0  0  0  0
   40.6830   33.0520   40.6690 C   0  0  0  0  0  0  0  0  0  0  0  0
   40.6340   33.0990   41.7390 H   0  0  0  0  0  0  0  0  0  0  0  0
   41.6760   33.8450   40.1450 C   0  0  0  0  0  0  0  0  0  0  0  0
   42.3320   34.4500   40.7430 H   0  0  0  0  0  0  0  0  0  0  0  0
   41.8270   33.8580   38.7760 C   0  0  0  0  0  3  0  0  0  0  0  0
   40.9630   33.0680   38.0520 C   0  0  0  0  0  3  0  0  0  0  0  0
   39.4450   31.3450   36.2100 H   0  0  0  0  0  0  0  0  0  0  0  0
   38.9660   31.3400   37.5080 S   0  0  0  0  0  0  0  0  0  0  0  0
   37.5090   31.6650   37.5910 O   0  0  0  0  0  0  0  0  0  0  0  0
   39.0680   29.8760   37.9180 O   0  0  0  0  0  0  0  0  0  0  0  0
   36.9090   32.9990   40.2640 N   0  0  0  0  0  0  0  0  0  0  0  0
   37.0360   33.5420   41.1700 H   0  0  0  0  0  0  0  0  0  0  0  0
   36.6660   32.7220   39.2660 H   0  0  0  0  0  0  0  0  0  0  0  0
  1  7  1  0  0  0  0
  1  6  1  0  0  0  0
  2  1  2  0  0  0  0
  3  2  1  0  0  0  0
  3  4  2  0  0  0  0
  4  5  1  0  0  0  0
  5  6  2  0  0  0  0
  5  8  1  0  0  0  0
  8  9  1  0  0  0  0
  9 10  2  0  0  0  0
 10 18  1  0  0  0  0
 11 10  1  0  0  0  0
 12 11  2  0  0  0  0
 13 19  1  0  0  0  0
 13 12  1  0  0  0  0
 14 13  2  0  0  0  0
 15 14  1  0  0  0  0
 15 16  2  0  0  0  0
 16 17  1  0  0  0  0
 17 12  1  0  0  0  0
 17  8  2  0  0  0  0
 20 14  1  0  0  0  0
 21 15  1  0  0  0  0
 22 16  1  0  0  0  0
 23 24  1  0  0  0  0
 24  3  1  0  0  0  0
 24 25  2  0  0  0  0
 25 26  1  0  0  0  0
 27 25  1  0  0  0  0
 27 28  1  0  0  0  0
 29 27  2  0  0  0  0
 30 23  2  0  0  0  0
 30 29  1  0  0  0  0
 31 32  1  0  0  0  0
 32 33  2  0  0  0  0
 32 34  2  0  0  0  0
 32 23  1  0  0  0  0
 35  2  1  0  0  0  0
 35 36  1  0  0  0  0
 37 35  1  0  0  0  0
M  END
>  <minimizedAffinity>
-6.37662125

$$$$

 OpenBabel03252502033D

 37 40  0  0  0  0  0  0  0  0999 V2000
   36.9370   30.1870   37.0230 C   0  0  0  0  0  0  0  0  0  0  0  0
   37.8880   31.2150   37.0300 C   0  0  0  0  0  0  0  0  0  0  0  0
   38.9280   31.1000   37.9070 C   0  0  0  0  0  0  0  0  0  0  0  0
   38.9710   30.0180   38.7000 N   0  0  0  0  0  0  0  0  0  0  0  0
   38.0810   29.0430   38.7040 C   0  0  0  0  0  0  0  0  0  0  0  0
   37.0750   29.1590   37.8510 N   0  0  0  0  0  0  0  0  0  0  0  0
   36.0950   30.2740   36.3160 H   0  0  0  0  0  0  0  0  0  0  0  0
   37.9930   27.8160   39.5000 C   0  0  0  0  0  0  0  0  0  0  0  0
   38.1460   26.5640   38.9840 N   0  0  0  0  0  0  0  0  0  0  0  0
   38.0770   25.4270   39.6600 C   0  0  0  0  0  0  0  0  0  0  0  0
   37.8360   25.4650   40.9900 N   0  0  0  0  0  0  0  0  0  0  0  0
   37.6670   26.6410   41.6200 C   0  0  0  0  0  0  0  0  0  0  0  0
   37.4200   26.6650   42.9860 C   0  0  0  0  0  0  0  0  0  0  0  0
   37.2440   27.8560   43.6430 C   0  0  0  0  0  0  0  0  0  0  0  0
   37.3240   29.0120   42.9020 C   0  0  0  0  0  0  0  0  0  0  0  0
   37.5710   28.9350   41.5450 C   0  0  0  0  0  0  0  0  0  0  0  0
   37.7530   27.7750   40.8460 C   0  0  0  0  0  0  0  0  0  0  0  0
   38.2120   24.4720   39.1670 H   0  0  0  0  0  0  0  0  0  0  0  0
   37.3750   25.6960   43.4820 H   0  0  0  0  0  0  0  0  0  0  0  0
   37.0570   27.7720   44.7050 H   0  0  0  0  0  0  0  0  0  0  0  0
   37.1830   29.9360   43.4360 H   0  0  0  0  0  0  0  0  0  0  0  0
   37.6230   29.8910   41.0090 H   0  0  0  0  0  0  0  0  0  0  0  0
   39.8930   33.0360   39.0520 C   0  0  0  0  0  0  0  0  0  0  0  0
   40.0020   32.0600   38.0540 C   0  0  0  0  0  0  0  0  0  0  0  0
   41.1490   32.1360   37.3070 C   0  0  0  0  0  0  0  0  0  0  0  0
   41.3100   31.4260   36.5210 H   0  0  0  0  0  0  0  0  0  0  0  0
   42.1770   33.0410   37.4270 C   0  0  0  0  0  0  0  0  0  0  0  0
   43.0500   33.0370   36.8020 H   0  0  0  0  0  0  0  0  0  0  0  0
   42.0710   34.0010   38.4100 C   0  0  0  0  0  3  0  0  0  0  0  0
   40.9350   33.9660   39.1870 C   0  0  0  0  0  3  0  0  0  0  0  0
   38.3000   31.9960   40.8410 H   0  0  0  0  0  0  0  0  0  0  0  0
   38.5440   33.1640   40.1400 S   0  0  0  0  0  0  0  0  0  0  0  0
   37.3120   33.7320   39.5110 O   0  0  0  0  0  0  0  0  0  0  0  0
   38.9240   34.1600   41.2300 O   0  0  0  0  0  0  0  0  0  0  0  0
   37.7070   32.2860   36.1370 N   0  0  0  0  0  0  0  0  0  0  0  0
   37.1200   32.9130   36.7650 H   0  0  0  0  0  0  0  0  0  0  0  0
   38.2550   31.8900   35.3160 H   0  0  0  0  0  0  0  0  0  0  0  0
  1  2  2  0  0  0  0
  1  6  1  0  0  0  0
  2  3  1  0  0  0  0
  3 24  1  0  0  0  0
  3  4  2  0  0  0  0
  4  5  1  0  0  0  0
  5  8  1  0  0  0  0
  6  5  2  0  0  0  0
  7  1  1  0  0  0  0
  8 17  1  0  0  0  0
  9  8  2  0  0  0  0
  9 10  1  0  0  0  0
 10 11  2  0  0  0  0
 11 12  1  0  0  0  0
 12 13  1  0  0  0  0
 13 19  1  0  0  0  0
 13 14  2  0  0  0  0
 14 20  1  0  0  0  0
 15 21  1  0  0  0  0
 15 14  1  0  0  0  0
 16 15  2  0  0  0  0
 17 16  1  0  0  0  0
 17 12  2  0  0  0  0
 18 10  1  0  0  0  0
 22 16  1  0  0  0  0
 23 30  1  0  0  0  0
 23 32  1  0  0  0  0
 24 23  2  0  0  0  0
 25 27  2  0  0  0  0
 25 24  1  0  0  0  0
 26 25  1  0  0  0  0
 27 29  1  0  0  0  0
 28 27  1  0  0  0  0
 29 30  2  0  0  0  0
 32 31  1  0  0  0  0
 32 34  2  0  0  0  0
 33 32  2  0  0  0  0
 35 36  1  0  0  0  0
 35  2  1  0  0  0  0
 37 35  1  0  0  0  0
M  END
>  <minimizedAffinity>
-6.34112406

$$$$

 OpenBabel03252502033D

 37 40  0  0  0  0  0  0  0  0999 V2000
   37.0130   31.0110   38.5710 C   0  0  0  0  0  0  0  0  0  0  0  0
   38.1850   31.1130   37.8120 C   0  0  0  0  0  0  0  0  0  0  0  0
   39.2680   30.3940   38.2320 C   0  0  0  0  0  0  0  0  0  0  0  0
   39.1390   29.6450   39.3380 N   0  0  0  0  0  0  0  0  0  0  0  0
   38.0410   29.5410   40.0630 C   0  0  0  0  0  0  0  0  0  0  0  0
   36.9940   30.2390   39.6500 N   0  0  0  0  0  0  0  0  0  0  0  0
   36.1350   31.5890   38.2360 H   0  0  0  0  0  0  0  0  0  0  0  0
   37.7510   28.7750   41.2780 C   0  0  0  0  0  0  0  0  0  0  0  0
   37.7410   29.3130   42.5300 N   0  0  0  0  0  0  0  0  0  0  0  0
   37.4850   28.6650   43.6560 C   0  0  0  0  0  0  0  0  0  0  0  0
   37.1990   27.3440   43.6060 N   0  0  0  0  0  0  0  0  0  0  0  0
   37.1760   26.6950   42.4280 C   0  0  0  0  0  0  0  0  0  0  0  0
   36.8810   25.3390   42.3910 C   0  0  0  0  0  0  0  0  0  0  0  0
   36.8550   24.6620   41.1990 C   0  0  0  0  0  0  0  0  0  0  0  0
   37.1270   25.3740   40.0550 C   0  0  0  0  0  0  0  0  0  0  0  0
   37.4150   26.7220   40.1430 C   0  0  0  0  0  0  0  0  0  0  0  0
   37.4540   27.4390   41.3060 C   0  0  0  0  0  0  0  0  0  0  0  0
   37.4990   29.1730   44.6120 H   0  0  0  0  0  0  0  0  0  0  0  0
   36.6800   24.8650   43.3520 H   0  0  0  0  0  0  0  0  0  0  0  0
   36.6160   23.6100   41.2720 H   0  0  0  0  0  0  0  0  0  0  0  0
   37.1010   24.8240   39.1290 H   0  0  0  0  0  0  0  0  0  0  0  0
   37.6240   27.2340   39.1970 H   0  0  0  0  0  0  0  0  0  0  0  0
   40.9870   29.1800   36.9830 C   0  0  0  0  0  0  0  0  0  0  0  0
   40.5580   30.3740   37.5760 C   0  0  0  0  0  0  0  0  0  0  0  0
   41.4430   31.4150   37.4630 C   0  0  0  0  0  0  0  0  0  0  0  0
   41.1910   32.3650   37.8910 H   0  0  0  0  0  0  0  0  0  0  0  0
   42.6730   31.4150   36.8490 C   0  0  0  0  0  0  0  0  0  0  0  0
   43.3140   32.2760   36.8010 H   0  0  0  0  0  0  0  0  0  0  0  0
   43.0950   30.2410   36.2660 C   0  0  0  0  0  3  0  0  0  0  0  0
   42.2400   29.1660   36.3530 C   0  0  0  0  0  3  0  0  0  0  0  0
   39.4870   27.4280   38.2070 H   0  0  0  0  0  0  0  0  0  0  0  0
   40.0590   27.7110   36.9790 S   0  0  0  0  0  0  0  0  0  0  0  0
   40.7820   26.5420   36.3920 O   0  0  0  0  0  0  0  0  0  0  0  0
   38.8550   27.9280   36.0690 O   0  0  0  0  0  0  0  0  0  0  0  0
   38.1640   31.9400   36.6750 N   0  0  0  0  0  0  0  0  0  0  0  0
   38.4650   32.8490   37.1400 H   0  0  0  0  0  0  0  0  0  0  0  0
   37.8600   31.2100   35.9650 H   0  0  0  0  0  0  0  0  0  0  0  0
  1  6  1  0  0  0  0
  2  3  1  0  0  0  0
  2  1  2  0  0  0  0
  3  4  2  0  0  0  0
  4  5  1  0  0  0  0
  5  8  1  0  0  0  0
  6  5  2  0  0  0  0
  7  1  1  0  0  0  0
  8 17  2  0  0  0  0
  8  9  1  0  0  0  0
  9 10  2  0  0  0  0
 10 18  1  0  0  0  0
 11 10  1  0  0  0  0
 12 11  2  0  0  0  0
 13 12  1  0  0  0  0
 13 19  1  0  0  0  0
 14 20  1  0  0  0  0
 14 13  2  0  0  0  0
 15 16  2  0  0  0  0
 15 14  1  0  0  0  0
 16 17  1  0  0  0  0
 17 12  1  0  0  0  0
 21 15  1  0  0  0  0
 22 16  1  0  0  0  0
 23 24  1  0  0  0  0
 24  3  1  0  0  0  0
 25 24  2  0  0  0  0
 25 26  1  0  0  0  0
 27 25  1  0  0  0  0
 28 27  1  0  0  0  0
 29 30  1  0  0  0  0
 29 27  2  0  0  0  0
 30 23  2  0  0  0  0
 32 23  1  0  0  0  0
 32 31  1  0  0  0  0
 33 32  2  0  0  0  0
 34 32  2  0  0  0  0
 35 36  1  0  0  0  0
 35  2  1  0  0  0  0
 37 35  1  0  0  0  0
M  END
>  <minimizedAffinity>
-6.15568066

$$$$

 OpenBabel03252502033D

 37 40  0  0  0  0  0  0  0  0999 V2000
   37.5950   31.1930   38.3980 C   0  0  0  0  0  0  0  0  0  0  0  0
   38.8290   31.2980   37.7440 C   0  0  0  0  0  0  0  0  0  0  0  0
   39.8680   30.5680   38.2460 C   0  0  0  0  0  0  0  0  0  0  0  0
   39.6410   29.8040   39.3260 N   0  0  0  0  0  0  0  0  0  0  0  0
   38.4840   29.6960   39.9510 C   0  0  0  0  0  0  0  0  0  0  0  0
   37.4800   30.4050   39.4590 N   0  0  0  0  0  0  0  0  0  0  0  0
   36.7520   31.7800   37.9960 H   0  0  0  0  0  0  0  0  0  0  0  0
   38.0870   28.9150   41.1260 C   0  0  0  0  0  0  0  0  0  0  0  0
   38.0450   29.4160   42.3920 N   0  0  0  0  0  0  0  0  0  0  0  0
   37.6930   28.7540   43.4830 C   0  0  0  0  0  0  0  0  0  0  0  0
   37.3320   27.4550   43.3770 N   0  0  0  0  0  0  0  0  0  0  0  0
   37.3300   26.8420   42.1790 C   0  0  0  0  0  0  0  0  0  0  0  0
   36.9570   25.5080   42.0850 C   0  0  0  0  0  0  0  0  0  0  0  0
   36.9520   24.8680   40.8720 C   0  0  0  0  0  0  0  0  0  0  0  0
   37.3250   25.5950   39.7660 C   0  0  0  0  0  0  0  0  0  0  0  0
   37.6880   26.9200   39.9120 C   0  0  0  0  0  0  0  0  0  0  0  0
   37.7100   27.6000   41.0960 C   0  0  0  0  0  0  0  0  0  0  0  0
   37.6880   29.2330   44.4540 H   0  0  0  0  0  0  0  0  0  0  0  0
   36.6790   25.0210   43.0200 H   0  0  0  0  0  0  0  0  0  0  0  0
   36.6470   23.8310   40.9010 H   0  0  0  0  0  0  0  0  0  0  0  0
   37.3130   25.0750   38.8240 H   0  0  0  0  0  0  0  0  0  0  0  0
   37.9750   27.4450   38.9930 H   0  0  0  0  0  0  0  0  0  0  0  0
   42.1170   31.5270   38.1330 C   0  0  0  0  0  0  0  0  0  0  0  0
   41.2110   30.5510   37.7030 C   0  0  0  0  0  0  0  0  0  0  0  0
   41.7180   29.6670   36.7860 C   0  0  0  0  0  0  0  0  0  0  0  0
   41.0880   28.8880   36.4050 H   0  0  0  0  0  0  0  0  0  0  0  0
   42.9860   29.6360   36.2560 C   0  0  0  0  0  0  0  0  0  0  0  0
   43.3130   28.9080   35.5370 H   0  0  0  0  0  0  0  0  0  0  0  0
   43.8790   30.5960   36.6780 C   0  0  0  0  0  3  0  0  0  0  0  0
   43.4150   31.5070   37.6000 C   0  0  0  0  0  3  0  0  0  0  0  0
   41.3050   32.2570   40.5050 H   0  0  0  0  0  0  0  0  0  0  0  0
   41.7330   32.7650   39.2910 S   0  0  0  0  0  0  0  0  0  0  0  0
   40.8330   33.8330   38.7580 O   0  0  0  0  0  0  0  0  0  0  0  0
   43.0300   33.4840   39.6450 O   0  0  0  0  0  0  0  0  0  0  0  0
   38.9100   32.1420   36.6220 N   0  0  0  0  0  0  0  0  0  0  0  0
   39.1730   33.0420   37.1240 H   0  0  0  0  0  0  0  0  0  0  0  0
   38.6650   31.4230   35.8770 H   0  0  0  0  0  0  0  0  0  0  0  0
  1  6  1  0  0  0  0
  2  3  1  0  0  0  0
  2  1  2  0  0  0  0
  3  4  2  0  0  0  0
  4  5  1  0  0  0  0
  5  8  1  0  0  0  0
  6  5  2  0  0  0  0
  7  1  1  0  0  0  0
  8  9  1  0  0  0  0
  9 10  2  0  0  0  0
 10 18  1  0  0  0  0
 11 10  1  0  0  0  0
 12 11  2  0  0  0  0
 13 12  1  0  0  0  0
 13 19  1  0  0  0  0
 14 20  1  0  0  0  0
 14 13  2  0  0  0  0
 15 16  2  0  0  0  0
 15 14  1  0  0  0  0
 16 17  1  0  0  0  0
 17  8  2  0  0  0  0
 17 12  1  0  0  0  0
 21 15  1  0  0  0  0
 22 16  1  0  0  0  0
 23 32  1  0  0  0  0
 24 23  1  0  0  0  0
 24  3  1  0  0  0  0
 25 24  2  0  0  0  0
 26 25  1  0  0  0  0
 27 29  2  0  0  0  0
 27 25  1  0  0  0  0
 28 27  1  0  0  0  0
 29 30  1  0  0  0  0
 30 23  2  0  0  0  0
 32 34  2  0  0  0  0
 32 31  1  0  0  0  0
 33 32  2  0  0  0  0
 35 36  1  0  0  0  0
 35  2  1  0  0  0  0
 37 35  1  0  0  0  0
M  END
>  <minimizedAffinity>
-5.96251631

$$$$

 OpenBabel03252502033D

 37 40  0  0  0  0  0  0  0  0999 V2000
   37.0520   29.9420   36.5670 C   0  0  0  0  0  0  0  0  0  0  0  0
   37.6460   31.0920   37.1020 C   0  0  0  0  0  0  0  0  0  0  0  0
   38.2010   30.9890   38.3450 C   0  0  0  0  0  0  0  0  0  0  0  0
   38.1400   29.8020   38.9690 N   0  0  0  0  0  0  0  0  0  0  0  0
   37.5830   28.7120   38.4760 C   0  0  0  0  0  0  0  0  0  0  0  0
   37.0480   28.8170   37.2700 N   0  0  0  0  0  0  0  0  0  0  0  0
   36.6030   30.0190   35.5620 H   0  0  0  0  0  0  0  0  0  0  0  0
   37.4400   27.3630   39.0300 C   0  0  0  0  0  0  0  0  0  0  0  0
   37.5360   26.2240   38.2890 N   0  0  0  0  0  0  0  0  0  0  0  0
   37.4170   24.9850   38.7410 C   0  0  0  0  0  0  0  0  0  0  0  0
   37.1760   24.7840   40.0570 N   0  0  0  0  0  0  0  0  0  0  0  0
   37.0610   25.8290   40.8970 C   0  0  0  0  0  0  0  0  0  0  0  0
   36.8140   25.6080   42.2440 C   0  0  0  0  0  0  0  0  0  0  0  0
   36.6920   26.6620   43.1140 C   0  0  0  0  0  0  0  0  0  0  0  0
   36.8230   27.9310   42.6010 C   0  0  0  0  0  0  0  0  0  0  0  0
   37.0680   28.0980   41.2510 C   0  0  0  0  0  0  0  0  0  0  0  0
   37.1970   27.0820   40.3470 C   0  0  0  0  0  0  0  0  0  0  0  0
   37.5080   24.1330   38.0780 H   0  0  0  0  0  0  0  0  0  0  0  0
   36.7260   24.5660   42.5520 H   0  0  0  0  0  0  0  0  0  0  0  0
   36.5010   26.3890   44.1430 H   0  0  0  0  0  0  0  0  0  0  0  0
   36.7240   28.7440   43.3000 H   0  0  0  0  0  0  0  0  0  0  0  0
   37.1620   29.1340   40.9030 H   0  0  0  0  0  0  0  0  0  0  0  0
   40.2490   32.1830   38.9540 C   0  0  0  0  0  0  0  0  0  0  0  0
   38.8570   32.0670   39.0550 C   0  0  0  0  0  0  0  0  0  0  0  0
   38.2620   33.0190   39.8430 C   0  0  0  0  0  0  0  0  0  0  0  0
   37.1990   33.0010   39.9730 H   0  0  0  0  0  0  0  0  0  0  0  0
   38.8670   34.0460   40.5280 C   0  0  0  0  0  0  0  0  0  0  0  0
   38.3310   34.7580   41.1290 H   0  0  0  0  0  0  0  0  0  0  0  0
   40.2360   34.1610   40.4290 C   0  0  0  0  0  3  0  0  0  0  0  0
   40.8790   33.2270   39.6480 C   0  0  0  0  0  3  0  0  0  0  0  0
   40.5950   29.9460   37.6530 H   0  0  0  0  0  0  0  0  0  0  0  0
   41.2460   31.1100   38.0190 S   0  0  0  0  0  0  0  0  0  0  0  0
   42.5920   30.8590   38.6200 O   0  0  0  0  0  0  0  0  0  0  0  0
   41.5310   31.7910   36.6850 O   0  0  0  0  0  0  0  0  0  0  0  0
   37.6320   32.2640   36.3250 N   0  0  0  0  0  0  0  0  0  0  0  0
   36.7060   32.6630   36.6640 H   0  0  0  0  0  0  0  0  0  0  0  0
   38.5550   32.1170   35.8170 H   0  0  0  0  0  0  0  0  0  0  0  0
  1  2  2  0  0  0  0
  1  6  1  0  0  0  0
  2  3  1  0  0  0  0
  3  4  2  0  0  0  0
  3 24  1  0  0  0  0
  5  4  1  0  0  0  0
  5  8  1  0  0  0  0
  6  5  2  0  0  0  0
  7  1  1  0  0  0  0
  8 17  1  0  0  0  0
  9 10  1  0  0  0  0
  9  8  2  0  0  0  0
 10 11  2  0  0  0  0
 11 12  1  0  0  0  0
 12 13  1  0  0  0  0
 13 19  1  0  0  0  0
 13 14  2  0  0  0  0
 14 20  1  0  0  0  0
 15 14  1  0  0  0  0
 15 21  1  0  0  0  0
 16 15  2  0  0  0  0
 17 12  2  0  0  0  0
 17 16  1  0  0  0  0
 18 10  1  0  0  0  0
 22 16  1  0  0  0  0
 23 24  2  0  0  0  0
 23 30  1  0  0  0  0
 24 25  1  0  0  0  0
 25 26  1  0  0  0  0
 25 27  2  0  0  0  0
 27 28  1  0  0  0  0
 29 27  1  0  0  0  0
 30 29  2  0  0  0  0
 31 32  1  0  0  0  0
 32 33  2  0  0  0  0
 32 23  1  0  0  0  0
 34 32  2  0  0  0  0
 35 36  1  0  0  0  0
 35  2  1  0  0  0  0
 37 35  1  0  0  0  0
M  END
>  <minimizedAffinity>
-5.76352596

$$$$

 OpenBabel03252502033D

 37 40  0  0  0  0  0  0  0  0999 V2000
   35.9000   30.2060   40.6820 C   0  0  0  0  0  0  0  0  0  0  0  0
   37.0660   30.9800   40.7290 C   0  0  0  0  0  0  0  0  0  0  0  0
   38.2540   30.3160   40.8430 C   0  0  0  0  0  0  0  0  0  0  0  0
   38.2260   28.9760   40.9020 N   0  0  0  0  0  0  0  0  0  0  0  0
   37.1340   28.2350   40.8590 C   0  0  0  0  0  0  0  0  0  0  0  0
   35.9860   28.8840   40.7480 N   0  0  0  0  0  0  0  0  0  0  0  0
   34.9370   30.7370   40.5890 H   0  0  0  0  0  0  0  0  0  0  0  0
   36.9470   26.7820   40.9130 C   0  0  0  0  0  0  0  0  0  0  0  0
   37.1280   26.0350   42.0380 N   0  0  0  0  0  0  0  0  0  0  0  0
   36.9710   24.7240   42.1390 C   0  0  0  0  0  0  0  0  0  0  0  0
   36.5940   24.0200   41.0470 N   0  0  0  0  0  0  0  0  0  0  0  0
   36.3810   24.6420   39.8740 C   0  0  0  0  0  0  0  0  0  0  0  0
   35.9950   23.9070   38.7620 C   0  0  0  0  0  0  0  0  0  0  0  0
   35.7760   24.5260   37.5570 C   0  0  0  0  0  0  0  0  0  0  0  0
   35.9510   25.8880   37.4990 C   0  0  0  0  0  0  0  0  0  0  0  0
   36.3370   26.5750   38.6330 C   0  0  0  0  0  0  0  0  0  0  0  0
   36.5680   26.0050   39.8530 C   0  0  0  0  0  0  0  0  0  0  0  0
   37.1370   24.2090   43.0770 H   0  0  0  0  0  0  0  0  0  0  0  0
   35.8830   22.8330   38.9110 H   0  0  0  0  0  0  0  0  0  0  0  0
   35.4780   23.8700   36.7510 H   0  0  0  0  0  0  0  0  0  0  0  0
   35.7740   26.3550   36.5450 H   0  0  0  0  0  0  0  0  0  0  0  0
   36.4610   27.6590   38.5220 H   0  0  0  0  0  0  0  0  0  0  0  0
   40.1540   31.3610   39.7090 C   0  0  0  0  0  0  0  0  0  0  0  0
   39.5560   30.9460   40.9050 C   0  0  0  0  0  0  0  0  0  0  0  0
   40.3010   31.1910   42.0290 C   0  0  0  0  0  0  0  0  0  0  0  0
   39.9150   30.9040   42.9860 H   0  0  0  0  0  0  0  0  0  0  0  0
   41.5390   31.7830   42.1080 C   0  0  0  0  0  0  0  0  0  0  0  0
   42.0650   31.9430   43.0320 H   0  0  0  0  0  0  0  0  0  0  0  0
   42.1280   32.1920   40.9320 C   0  0  0  0  0  3  0  0  0  0  0  0
   41.4170   31.9670   39.7750 C   0  0  0  0  0  3  0  0  0  0  0  0
   38.1240   31.6420   38.0910 H   0  0  0  0  0  0  0  0  0  0  0  0
   39.4250   31.1730   38.1420 S   0  0  0  0  0  0  0  0  0  0  0  0
   39.5700   29.7990   37.5700 O   0  0  0  0  0  0  0  0  0  0  0  0
   40.1690   32.0840   37.1740 O   0  0  0  0  0  0  0  0  0  0  0  0
   36.9320   32.3780   40.6540 N   0  0  0  0  0  0  0  0  0  0  0  0
   36.8340   32.5790   41.6950 H   0  0  0  0  0  0  0  0  0  0  0  0
   37.0020   32.4780   39.5980 H   0  0  0  0  0  0  0  0  0  0  0  0
  1  2  2  0  0  0  0
  1  6  1  0  0  0  0
  2  3  1  0  0  0  0
  3  4  2  0  0  0  0
  3 24  1  0  0  0  0
  5  4  1  0  0  0  0
  5  8  1  0  0  0  0
  6  5  2  0  0  0  0
  7  1  1  0  0  0  0
  8  9  1  0  0  0  0
  9 10  2  0  0  0  0
 10 18  1  0  0  0  0
 11 10  1  0  0  0  0
 12 11  2  0  0  0  0
 13 19  1  0  0  0  0
 13 12  1  0  0  0  0
 14 13  2  0  0  0  0
 15 14  1  0  0  0  0
 15 16  2  0  0  0  0
 16 17  1  0  0  0  0
 17 12  1  0  0  0  0
 17  8  2  0  0  0  0
 20 14  1  0  0  0  0
 21 15  1  0  0  0  0
 22 16  1  0  0  0  0
 23 30  2  0  0  0  0
 23 24  1  0  0  0  0
 24 25  2  0  0  0  0
 25 27  1  0  0  0  0
 25 26  1  0  0  0  0
 27 28  1  0  0  0  0
 29 27  2  0  0  0  0
 30 29  1  0  0  0  0
 31 32  1  0  0  0  0
 32 23  1  0  0  0  0
 33 32  2  0  0  0  0
 34 32  2  0  0  0  0
 35  2  1  0  0  0  0
 35 36  1  0  0  0  0
 37 35  1  0  0  0  0
M  END
>  <minimizedAffinity>
-5.76128864

$$$$

 OpenBabel03252502033D

 37 40  0  0  0  0  0  0  0  0999 V2000
   36.2950   30.8430   40.6160 C   0  0  0  0  0  0  0  0  0  0  0  0
   37.4600   31.5240   40.2440 C   0  0  0  0  0  0  0  0  0  0  0  0
   38.3960   30.8250   39.5370 C   0  0  0  0  0  0  0  0  0  0  0  0
   38.1390   29.5400   39.2460 N   0  0  0  0  0  0  0  0  0  0  0  0
   37.0450   28.8870   39.5900 C   0  0  0  0  0  0  0  0  0  0  0  0
   36.1410   29.5700   40.2760 N   0  0  0  0  0  0  0  0  0  0  0  0
   35.5350   31.4030   41.1870 H   0  0  0  0  0  0  0  0  0  0  0  0
   36.6280   27.5020   39.3500 C   0  0  0  0  0  0  0  0  0  0  0  0
   35.9960   27.0860   38.2170 N   0  0  0  0  0  0  0  0  0  0  0  0
   35.6020   25.8500   37.9520 C   0  0  0  0  0  0  0  0  0  0  0  0
   35.8290   24.8770   38.8640 N   0  0  0  0  0  0  0  0  0  0  0  0
   36.4470   25.1590   40.0250 C   0  0  0  0  0  0  0  0  0  0  0  0
   36.6730   24.1500   40.9510 C   0  0  0  0  0  0  0  0  0  0  0  0
   37.3000   24.4210   42.1400 C   0  0  0  0  0  0  0  0  0  0  0  0
   37.6920   25.7190   42.3730 C   0  0  0  0  0  0  0  0  0  0  0  0
   37.4440   26.6870   41.4200 C   0  0  0  0  0  0  0  0  0  0  0  0
   36.8230   26.4660   40.2230 C   0  0  0  0  0  0  0  0  0  0  0  0
   35.1040   25.6060   37.0220 H   0  0  0  0  0  0  0  0  0  0  0  0
   36.3230   23.1560   40.6730 H   0  0  0  0  0  0  0  0  0  0  0  0
   37.4310   23.5710   42.7960 H   0  0  0  0  0  0  0  0  0  0  0  0
   38.1830   25.9100   43.3120 H   0  0  0  0  0  0  0  0  0  0  0  0
   37.7800   27.7020   41.6640 H   0  0  0  0  0  0  0  0  0  0  0  0
   40.7690   31.2860   39.9130 C   0  0  0  0  0  0  0  0  0  0  0  0
   39.6560   31.3620   39.0680 C   0  0  0  0  0  0  0  0  0  0  0  0
   39.8990   31.9600   37.8580 C   0  0  0  0  0  0  0  0  0  0  0  0
   39.0990   32.0590   37.1530 H   0  0  0  0  0  0  0  0  0  0  0  0
   41.0850   32.4790   37.3970 C   0  0  0  0  0  0  0  0  0  0  0  0
   41.2000   32.9350   36.4310 H   0  0  0  0  0  0  0  0  0  0  0  0
   42.1820   32.4040   38.2280 C   0  0  0  0  0  3  0  0  0  0  0  0
   41.9860   31.8120   39.4550 C   0  0  0  0  0  3  0  0  0  0  0  0
   41.9580   30.6390   42.1460 H   0  0  0  0  0  0  0  0  0  0  0  0
   40.7370   30.5760   41.4990 S   0  0  0  0  0  0  0  0  0  0  0  0
   40.1300   29.2100   41.5370 O   0  0  0  0  0  0  0  0  0  0  0  0
   39.8290   31.4350   42.3710 O   0  0  0  0  0  0  0  0  0  0  0  0
   37.5840   32.8730   40.6230 N   0  0  0  0  0  0  0  0  0  0  0  0
   38.0490   32.7260   41.5690 H   0  0  0  0  0  0  0  0  0  0  0  0
   37.1460   33.3110   39.7580 H   0  0  0  0  0  0  0  0  0  0  0  0
  1  7  1  0  0  0  0
  2  1  2  0  0  0  0
  2 35  1  0  0  0  0
  3  2  1  0  0  0  0
  4  3  2  0  0  0  0
  4  5  1  0  0  0  0
  5  6  2  0  0  0  0
  6  1  1  0  0  0  0
  8  5  1  0  0  0  0
  8 17  1  0  0  0  0
  9  8  2  0  0  0  0
 10  9  1  0  0  0  0
 10 11  2  0  0  0  0
 11 12  1  0  0  0  0
 12 17  2  0  0  0  0
 12 13  1  0  0  0  0
 13 14  2  0  0  0  0
 14 15  1  0  0  0  0
 14 20  1  0  0  0  0
 15 21  1  0  0  0  0
 16 22  1  0  0  0  0
 16 15  2  0  0  0  0
 17 16  1  0  0  0  0
 18 10  1  0  0  0  0
 19 13  1  0  0  0  0
 23 32  1  0  0  0  0
 24  3  1  0  0  0  0
 24 23  2  0  0  0  0
 25 24  1  0  0  0  0
 26 25  1  0  0  0  0
 27 25  2  0  0  0  0
 27 29  1  0  0  0  0
 28 27  1  0  0  0  0
 29 30  2  0  0  0  0
 30 23  1  0  0  0  0
 32 33  2  0  0  0  0
 32 31  1  0  0  0  0
 32 34  2  0  0  0  0
 35 36  1  0  0  0  0
 37 35  1  0  0  0  0
M  END
>  <minimizedAffinity>
-5.74888372

$$$$
