
 OpenBabel03242513553D

 22 23  0  0  0  0  0  0  0  0999 V2000
   37.6590   31.6800   39.4170 C   0  0  0  0  0  0  0  0  0  0  0  0
   36.8700   30.6190   39.8110 C   0  0  0  0  0  0  0  0  0  0  0  0
   36.2760   29.7100   38.9340 C   0  0  0  0  0  0  0  0  0  0  0  0
   35.6670   28.8930   39.2630 H   0  0  0  0  0  0  0  0  0  0  0  0
   36.4940   29.8830   37.5830 C   0  0  0  0  0  0  0  0  0  0  0  0
   36.0570   29.2050   36.8620 H   0  0  0  0  0  0  0  0  0  0  0  0
   37.2810   30.9370   37.1600 C   0  0  0  0  0  3  0  0  0  0  0  0
   37.8630   31.8320   38.0620 C   0  0  0  0  0  3  0  0  0  0  0  0
   37.6690   32.7620   41.7810 H   0  0  0  0  0  0  0  0  0  0  0  0
   38.3570   32.7640   40.6110 S   0  0  0  0  0  0  0  0  0  0  0  0
   39.8090   32.4370   40.7810 O   0  0  0  0  0  0  0  0  0  0  0  0
   38.3120   34.1490   39.9810 O   0  0  0  0  0  0  0  0  0  0  0  0
   36.6390   30.4280   41.1460 O   0  0  0  0  0  0  0  0  0  0  0  0
   36.4710   28.1600   42.1380 C   0  0  0  0  0  0  0  0  0  0  0  0
   37.1350   29.3850   41.8930 C   0  0  0  0  0  0  0  0  0  0  0  0
   38.4050   29.5280   42.4690 C   0  0  0  0  0  0  0  0  0  0  0  0
   38.9350   28.5180   43.2190 N   0  0  0  0  0  0  0  0  0  0  0  0
   38.2460   27.3590   43.4200 C   0  0  0  0  0  0  0  0  0  0  0  0
   37.0220   27.2050   42.8720 N   0  0  0  0  0  0  0  0  0  0  0  0
   35.5030   28.0760   41.6870 H   0  0  0  0  0  0  0  0  0  0  0  0
   38.9650   30.4400   42.3210 H   0  0  0  0  0  0  0  0  0  0  0  0
   38.7600   26.6250   44.0290 H   0  0  0  0  0  0  0  0  0  0  0  0
  1  2  1  0  0  0  0
  1 10  1  0  0  0  0
  2 13  1  0  0  0  0
  3  4  1  0  0  0  0
  3  2  2  0  0  0  0
  5  3  1  0  0  0  0
  6  5  1  0  0  0  0
  7  5  2  0  0  0  0
  7  8  1  0  0  0  0
  8  1  2  0  0  0  0
 10 11  2  0  0  0  0
 10  9  1  0  0  0  0
 12 10  2  0  0  0  0
 13 15  1  0  0  0  0
 14 19  1  0  0  0  0
 15 14  2  0  0  0  0
 15 16  1  0  0  0  0
 16 17  2  0  0  0  0
 17 18  1  0  0  0  0
 18 22  1  0  0  0  0
 19 18  2  0  0  0  0
 20 14  1  0  0  0  0
 21 16  1  0  0  0  0
M  END
>  <minimizedAffinity>
-4.37358665

$$$$

 OpenBabel03242513553D

 22 23  0  0  0  0  0  0  0  0999 V2000
   36.6640   30.1340   38.7590 C   0  0  0  0  0  0  0  0  0  0  0  0
   35.9010   29.7940   39.8570 C   0  0  0  0  0  0  0  0  0  0  0  0
   34.6630   29.1540   39.7900 C   0  0  0  0  0  0  0  0  0  0  0  0
   34.0880   28.8990   40.6560 H   0  0  0  0  0  0  0  0  0  0  0  0
   34.1690   28.8380   38.5400 C   0  0  0  0  0  0  0  0  0  0  0  0
   33.2150   28.3410   38.4330 H   0  0  0  0  0  0  0  0  0  0  0  0
   34.9120   29.1660   37.4220 C   0  0  0  0  0  3  0  0  0  0  0  0
   36.1490   29.8080   37.5210 C   0  0  0  0  0  3  0  0  0  0  0  0
   38.2180   31.7970   40.0160 H   0  0  0  0  0  0  0  0  0  0  0  0
   38.2120   30.9410   38.9630 S   0  0  0  0  0  0  0  0  0  0  0  0
   39.2960   29.9100   39.0350 O   0  0  0  0  0  0  0  0  0  0  0  0
   38.4480   31.7050   37.6670 O   0  0  0  0  0  0  0  0  0  0  0  0
   36.3700   30.0980   41.1060 O   0  0  0  0  0  0  0  0  0  0  0  0
   38.3800   29.5310   42.4450 C   0  0  0  0  0  0  0  0  0  0  0  0
   37.1040   29.2510   41.9030 C   0  0  0  0  0  0  0  0  0  0  0  0
   36.5570   27.9980   42.2180 C   0  0  0  0  0  0  0  0  0  0  0  0
   37.2520   27.1260   43.0060 N   0  0  0  0  0  0  0  0  0  0  0  0
   38.4800   27.4540   43.5000 C   0  0  0  0  0  0  0  0  0  0  0  0
   39.0200   28.6560   43.2060 N   0  0  0  0  0  0  0  0  0  0  0  0
   38.7740   30.4940   42.1900 H   0  0  0  0  0  0  0  0  0  0  0  0
   35.5850   27.7220   41.8360 H   0  0  0  0  0  0  0  0  0  0  0  0
   38.9410   26.6900   44.1130 H   0  0  0  0  0  0  0  0  0  0  0  0
  1 10  1  0  0  0  0
  1  2  1  0  0  0  0
  2 13  1  0  0  0  0
  3  2  2  0  0  0  0
  3  4  1  0  0  0  0
  5  3  1  0  0  0  0
  6  5  1  0  0  0  0
  7  8  1  0  0  0  0
  7  5  2  0  0  0  0
  8  1  2  0  0  0  0
 10 11  2  0  0  0  0
 10  9  1  0  0  0  0
 12 10  2  0  0  0  0
 13 15  1  0  0  0  0
 14 19  1  0  0  0  0
 15 16  1  0  0  0  0
 15 14  2  0  0  0  0
 16 17  2  0  0  0  0
 17 18  1  0  0  0  0
 18 22  1  0  0  0  0
 19 18  2  0  0  0  0
 20 14  1  0  0  0  0
 21 16  1  0  0  0  0
M  END
>  <minimizedAffinity>
-4.27651691

$$$$

 OpenBabel03242513553D

 22 23  0  0  0  0  0  0  0  0999 V2000
   37.7460   27.8040   40.9520 C   0  0  0  0  0  0  0  0  0  0  0  0
   38.2320   28.9500   41.5460 C   0  0  0  0  0  0  0  0  0  0  0  0
   38.0510   29.2810   42.8890 C   0  0  0  0  0  0  0  0  0  0  0  0
   38.4380   30.1770   43.3280 H   0  0  0  0  0  0  0  0  0  0  0  0
   37.3390   28.4010   43.6780 C   0  0  0  0  0  0  0  0  0  0  0  0
   37.1710   28.6100   44.7260 H   0  0  0  0  0  0  0  0  0  0  0  0
   36.8400   27.2440   43.1110 C   0  0  0  0  0  3  0  0  0  0  0  0
   37.0370   26.9400   41.7610 C   0  0  0  0  0  3  0  0  0  0  0  0
   39.1530   28.1060   38.7870 H   0  0  0  0  0  0  0  0  0  0  0  0
   38.0350   27.4890   39.2480 S   0  0  0  0  0  0  0  0  0  0  0  0
   38.0410   26.0090   39.0170 O   0  0  0  0  0  0  0  0  0  0  0  0
   36.8080   28.0200   38.5200 O   0  0  0  0  0  0  0  0  0  0  0  0
   38.9410   29.8380   40.7830 O   0  0  0  0  0  0  0  0  0  0  0  0
   39.1220   32.3000   41.0350 C   0  0  0  0  0  0  0  0  0  0  0  0
   38.5480   31.1250   40.4960 C   0  0  0  0  0  0  0  0  0  0  0  0
   37.4890   31.3080   39.5950 C   0  0  0  0  0  0  0  0  0  0  0  0
   37.0670   32.5680   39.2810 N   0  0  0  0  0  0  0  0  0  0  0  0
   37.6610   33.6640   39.8340 C   0  0  0  0  0  0  0  0  0  0  0  0
   38.6810   33.5040   40.7030 N   0  0  0  0  0  0  0  0  0  0  0  0
   39.9280   32.1320   41.7200 H   0  0  0  0  0  0  0  0  0  0  0  0
   37.0070   30.4510   39.1470 H   0  0  0  0  0  0  0  0  0  0  0  0
   37.2480   34.6130   39.5150 H   0  0  0  0  0  0  0  0  0  0  0  0
  1  2  2  0  0  0  0
  1  8  1  0  0  0  0
  2  3  1  0  0  0  0
  3  4  1  0  0  0  0
  3  5  2  0  0  0  0
  5  6  1  0  0  0  0
  7  5  1  0  0  0  0
  8  7  2  0  0  0  0
  9 10  1  0  0  0  0
 10  1  1  0  0  0  0
 11 10  2  0  0  0  0
 12 10  2  0  0  0  0
 13  2  1  0  0  0  0
 14 20  1  0  0  0  0
 15 13  1  0  0  0  0
 15 14  2  0  0  0  0
 16 15  1  0  0  0  0
 17 16  2  0  0  0  0
 17 18  1  0  0  0  0
 18 19  2  0  0  0  0
 19 14  1  0  0  0  0
 21 16  1  0  0  0  0
 22 18  1  0  0  0  0
M  END
>  <minimizedAffinity>
-4.2759161

$$$$

 OpenBabel03242513553D

 22 23  0  0  0  0  0  0  0  0999 V2000
   36.6850   28.5180   41.1570 C   0  0  0  0  0  0  0  0  0  0  0  0
   37.3890   29.5250   41.7840 C   0  0  0  0  0  0  0  0  0  0  0  0
   38.1050   29.3660   42.9700 C   0  0  0  0  0  0  0  0  0  0  0  0
   38.6450   30.1630   43.4390 H   0  0  0  0  0  0  0  0  0  0  0  0
   38.1100   28.1170   43.5560 C   0  0  0  0  0  0  0  0  0  0  0  0
   38.6510   27.9410   44.4770 H   0  0  0  0  0  0  0  0  0  0  0  0
   37.4140   27.0890   42.9510 C   0  0  0  0  0  3  0  0  0  0  0  0
   36.7040   27.2780   41.7620 C   0  0  0  0  0  3  0  0  0  0  0  0
   36.3600   29.8510   38.9480 H   0  0  0  0  0  0  0  0  0  0  0  0
   35.8160   28.8320   39.6610 S   0  0  0  0  0  0  0  0  0  0  0  0
   35.7080   27.5590   38.8810 O   0  0  0  0  0  0  0  0  0  0  0  0
   34.3970   29.1880   40.0800 O   0  0  0  0  0  0  0  0  0  0  0  0
   37.3980   30.7730   41.2210 O   0  0  0  0  0  0  0  0  0  0  0  0
   39.4140   30.7340   39.7760 C   0  0  0  0  0  0  0  0  0  0  0  0
   38.4920   31.3700   40.6390 C   0  0  0  0  0  0  0  0  0  0  0  0
   38.7300   32.7250   40.9120 C   0  0  0  0  0  0  0  0  0  0  0  0
   39.8040   33.3580   40.3550 N   0  0  0  0  0  0  0  0  0  0  0  0
   40.6590   32.6900   39.5290 C   0  0  0  0  0  0  0  0  0  0  0  0
   40.4440   31.3860   39.2560 N   0  0  0  0  0  0  0  0  0  0  0  0
   39.2090   29.7000   39.5840 H   0  0  0  0  0  0  0  0  0  0  0  0
   38.0620   33.2690   41.5650 H   0  0  0  0  0  0  0  0  0  0  0  0
   41.4750   33.2880   39.1430 H   0  0  0  0  0  0  0  0  0  0  0  0
  1  8  2  0  0  0  0
  1  2  1  0  0  0  0
  2  3  2  0  0  0  0
  3  4  1  0  0  0  0
  3  5  1  0  0  0  0
  5  6  1  0  0  0  0
  7  5  2  0  0  0  0
  8  7  1  0  0  0  0
  9 10  1  0  0  0  0
 10 12  2  0  0  0  0
 10  1  1  0  0  0  0
 11 10  2  0  0  0  0
 13  2  1  0  0  0  0
 14 15  1  0  0  0  0
 15 16  2  0  0  0  0
 15 13  1  0  0  0  0
 16 21  1  0  0  0  0
 17 16  1  0  0  0  0
 18 17  2  0  0  0  0
 19 18  1  0  0  0  0
 19 14  2  0  0  0  0
 20 14  1  0  0  0  0
 22 18  1  0  0  0  0
M  END
>  <minimizedAffinity>
-4.21346378

$$$$

 OpenBabel03242513553D

 22 23  0  0  0  0  0  0  0  0999 V2000
   36.6690   30.0410   38.9100 C   0  0  0  0  0  0  0  0  0  0  0  0
   36.6470   30.6210   40.1620 C   0  0  0  0  0  0  0  0  0  0  0  0
   37.0140   31.9400   40.4270 C   0  0  0  0  0  0  0  0  0  0  0  0
   36.9880   32.3690   41.4080 H   0  0  0  0  0  0  0  0  0  0  0  0
   37.4250   32.7190   39.3650 C   0  0  0  0  0  0  0  0  0  0  0  0
   37.7190   33.7490   39.5170 H   0  0  0  0  0  0  0  0  0  0  0  0
   37.4570   32.1660   38.1000 C   0  0  0  0  0  3  0  0  0  0  0  0
   37.0850   30.8400   37.8650 C   0  0  0  0  0  3  0  0  0  0  0  0
   35.2740   27.9630   39.6150 H   0  0  0  0  0  0  0  0  0  0  0  0
   36.1850   28.3650   38.6930 S   0  0  0  0  0  0  0  0  0  0  0  0
   35.7220   28.1690   37.2820 O   0  0  0  0  0  0  0  0  0  0  0  0
   37.4630   27.5490   38.8310 O   0  0  0  0  0  0  0  0  0  0  0  0
   36.2430   29.8670   41.2310 O   0  0  0  0  0  0  0  0  0  0  0  0
   38.3780   29.4060   42.4080 C   0  0  0  0  0  0  0  0  0  0  0  0
   37.0670   29.0730   41.9950 C   0  0  0  0  0  0  0  0  0  0  0  0
   36.5830   27.8250   42.4120 C   0  0  0  0  0  0  0  0  0  0  0  0
   37.3660   27.0050   43.1720 N   0  0  0  0  0  0  0  0  0  0  0  0
   38.6250   27.3810   43.5390 C   0  0  0  0  0  0  0  0  0  0  0  0
   39.1050   28.5800   43.1460 N   0  0  0  0  0  0  0  0  0  0  0  0
   38.7230   30.3640   42.0760 H   0  0  0  0  0  0  0  0  0  0  0  0
   35.5880   27.5100   42.1300 H   0  0  0  0  0  0  0  0  0  0  0  0
   39.1580   26.6560   44.1410 H   0  0  0  0  0  0  0  0  0  0  0  0
  1  2  1  0  0  0  0
  2  3  2  0  0  0  0
  2 13  1  0  0  0  0
  3  4  1  0  0  0  0
  5  6  1  0  0  0  0
  5  3  1  0  0  0  0
  7  5  2  0  0  0  0
  8  7  1  0  0  0  0
  8  1  2  0  0  0  0
 10 12  2  0  0  0  0
 10  1  1  0  0  0  0
 10  9  1  0  0  0  0
 11 10  2  0  0  0  0
 13 15  1  0  0  0  0
 14 19  1  0  0  0  0
 15 14  2  0  0  0  0
 15 16  1  0  0  0  0
 16 17  2  0  0  0  0
 17 18  1  0  0  0  0
 18 22  1  0  0  0  0
 19 18  2  0  0  0  0
 20 14  1  0  0  0  0
 21 16  1  0  0  0  0
M  END
>  <minimizedAffinity>
-4.17315245

$$$$

 OpenBabel03242513553D

 22 23  0  0  0  0  0  0  0  0999 V2000
   36.7230   27.2360   40.3510 C   0  0  0  0  0  0  0  0  0  0  0  0
   36.5530   28.0890   41.4230 C   0  0  0  0  0  0  0  0  0  0  0  0
   36.6450   27.7030   42.7600 C   0  0  0  0  0  0  0  0  0  0  0  0
   36.5090   28.3830   43.5760 H   0  0  0  0  0  0  0  0  0  0  0  0
   36.9260   26.3790   43.0300 C   0  0  0  0  0  0  0  0  0  0  0  0
   37.0080   26.0290   44.0500 H   0  0  0  0  0  0  0  0  0  0  0  0
   37.1010   25.5020   41.9770 C   0  0  0  0  0  3  0  0  0  0  0  0
   37.0030   25.9180   40.6460 C   0  0  0  0  0  3  0  0  0  0  0  0
   37.1060   29.0770   38.5560 H   0  0  0  0  0  0  0  0  0  0  0  0
   36.5840   27.8330   38.7040 S   0  0  0  0  0  0  0  0  0  0  0  0
   37.1810   26.8290   37.7670 O   0  0  0  0  0  0  0  0  0  0  0  0
   35.0920   27.8530   38.4000 O   0  0  0  0  0  0  0  0  0  0  0  0
   36.2730   29.4060   41.1800 O   0  0  0  0  0  0  0  0  0  0  0  0
   38.4970   30.3710   41.7020 C   0  0  0  0  0  0  0  0  0  0  0  0
   37.2040   30.4170   41.1320 C   0  0  0  0  0  0  0  0  0  0  0  0
   36.8610   31.6020   40.4650 C   0  0  0  0  0  0  0  0  0  0  0  0
   37.7550   32.6320   40.3940 N   0  0  0  0  0  0  0  0  0  0  0  0
   38.9900   32.5280   40.9640 C   0  0  0  0  0  0  0  0  0  0  0  0
   39.3350   31.3930   41.6090 N   0  0  0  0  0  0  0  0  0  0  0  0
   38.7340   29.4560   42.2050 H   0  0  0  0  0  0  0  0  0  0  0  0
   35.8870   31.7020   40.0070 H   0  0  0  0  0  0  0  0  0  0  0  0
   39.6180   33.4020   40.8470 H   0  0  0  0  0  0  0  0  0  0  0  0
  1  8  2  0  0  0  0
  1  2  1  0  0  0  0
  2  3  2  0  0  0  0
  3  5  1  0  0  0  0
  3  4  1  0  0  0  0
  5  6  1  0  0  0  0
  7  5  2  0  0  0  0
  8  7  1  0  0  0  0
  9 10  1  0  0  0  0
 10  1  1  0  0  0  0
 11 10  2  0  0  0  0
 12 10  2  0  0  0  0
 13  2  1  0  0  0  0
 14 20  1  0  0  0  0
 15 13  1  0  0  0  0
 15 14  2  0  0  0  0
 16 15  1  0  0  0  0
 17 16  2  0  0  0  0
 17 18  1  0  0  0  0
 18 19  2  0  0  0  0
 19 14  1  0  0  0  0
 21 16  1  0  0  0  0
 22 18  1  0  0  0  0
M  END
>  <minimizedAffinity>
-4.10004807

$$$$

 OpenBabel03242513553D

 22 23  0  0  0  0  0  0  0  0999 V2000
   36.6270   29.1220   41.3780 C   0  0  0  0  0  0  0  0  0  0  0  0
   37.7090   29.7700   41.9370 C   0  0  0  0  0  0  0  0  0  0  0  0
   38.3890   29.3320   43.0740 C   0  0  0  0  0  0  0  0  0  0  0  0
   39.2280   29.8510   43.4900 H   0  0  0  0  0  0  0  0  0  0  0  0
   37.9500   28.1720   43.6790 C   0  0  0  0  0  0  0  0  0  0  0  0
   38.4440   27.7890   44.5630 H   0  0  0  0  0  0  0  0  0  0  0  0
   36.8690   27.5020   43.1410 C   0  0  0  0  0  3  0  0  0  0  0  0
   36.2060   27.9650   42.0010 C   0  0  0  0  0  3  0  0  0  0  0  0
   35.7860   31.1220   39.9450 H   0  0  0  0  0  0  0  0  0  0  0  0
   35.8450   29.7660   39.9420 S   0  0  0  0  0  0  0  0  0  0  0  0
   36.5180   29.2080   38.7260 O   0  0  0  0  0  0  0  0  0  0  0  0
   34.4390   29.1830   39.9450 O   0  0  0  0  0  0  0  0  0  0  0  0
   38.1620   30.9220   41.3550 O   0  0  0  0  0  0  0  0  0  0  0  0
   40.3890   32.0090   41.2560 C   0  0  0  0  0  0  0  0  0  0  0  0
   39.4110   31.0930   40.8050 C   0  0  0  0  0  0  0  0  0  0  0  0
   39.7640   30.3010   39.7030 C   0  0  0  0  0  0  0  0  0  0  0  0
   40.9940   30.4380   39.1270 N   0  0  0  0  0  0  0  0  0  0  0  0
   41.8960   31.3400   39.6070 C   0  0  0  0  0  0  0  0  0  0  0  0
   41.5720   32.1100   40.6680 N   0  0  0  0  0  0  0  0  0  0  0  0
   40.0950   32.6020   42.0990 H   0  0  0  0  0  0  0  0  0  0  0  0
   39.0610   29.5810   39.3090 H   0  0  0  0  0  0  0  0  0  0  0  0
   42.8390   31.3650   39.0760 H   0  0  0  0  0  0  0  0  0  0  0  0
  1  2  2  0  0  0  0
  1  8  1  0  0  0  0
  2  3  1  0  0  0  0
  3  4  1  0  0  0  0
  3  5  2  0  0  0  0
  5  6  1  0  0  0  0
  7  5  1  0  0  0  0
  8  7  2  0  0  0  0
 10 12  2  0  0  0  0
 10  9  1  0  0  0  0
 10  1  1  0  0  0  0
 11 10  2  0  0  0  0
 13  2  1  0  0  0  0
 14 20  1  0  0  0  0
 15 14  1  0  0  0  0
 15 13  1  0  0  0  0
 16 15  2  0  0  0  0
 17 18  2  0  0  0  0
 17 16  1  0  0  0  0
 18 19  1  0  0  0  0
 19 14  2  0  0  0  0
 21 16  1  0  0  0  0
 22 18  1  0  0  0  0
M  END
>  <minimizedAffinity>
-4.06758213

$$$$

 OpenBabel03242513553D

 22 23  0  0  0  0  0  0  0  0999 V2000
   36.7960   27.1920   40.8740 C   0  0  0  0  0  0  0  0  0  0  0  0
   36.3090   28.4050   40.4310 C   0  0  0  0  0  0  0  0  0  0  0  0
   35.7520   28.6170   39.1690 C   0  0  0  0  0  0  0  0  0  0  0  0
   35.3800   29.5680   38.8470 H   0  0  0  0  0  0  0  0  0  0  0  0
   35.6820   27.5410   38.3080 C   0  0  0  0  0  0  0  0  0  0  0  0
   35.2580   27.6530   37.3180 H   0  0  0  0  0  0  0  0  0  0  0  0
   36.1620   26.3150   38.7250 C   0  0  0  0  0  3  0  0  0  0  0  0
   36.7150   26.1320   39.9950 C   0  0  0  0  0  3  0  0  0  0  0  0
   38.4670   27.9400   42.7210 H   0  0  0  0  0  0  0  0  0  0  0  0
   37.4780   27.0400   42.4870 S   0  0  0  0  0  0  0  0  0  0  0  0
   36.3720   27.1050   43.4950 O   0  0  0  0  0  0  0  0  0  0  0  0
   38.0310   25.6240   42.5650 O   0  0  0  0  0  0  0  0  0  0  0  0
   36.3680   29.4860   41.2680 O   0  0  0  0  0  0  0  0  0  0  0  0
   36.8590   31.7760   40.4500 C   0  0  0  0  0  0  0  0  0  0  0  0
   37.2000   30.5680   41.1030 C   0  0  0  0  0  0  0  0  0  0  0  0
   38.5010   30.4880   41.6210 C   0  0  0  0  0  0  0  0  0  0  0  0
   39.3600   31.5400   41.4800 N   0  0  0  0  0  0  0  0  0  0  0  0
   38.9730   32.6800   40.8400 C   0  0  0  0  0  0  0  0  0  0  0  0
   37.7240   32.7730   40.3360 N   0  0  0  0  0  0  0  0  0  0  0  0
   35.8600   31.8110   40.0650 H   0  0  0  0  0  0  0  0  0  0  0  0
   38.8250   29.5930   42.1310 H   0  0  0  0  0  0  0  0  0  0  0  0
   39.7320   33.4500   40.7860 H   0  0  0  0  0  0  0  0  0  0  0  0
  1 10  1  0  0  0  0
  2  1  1  0  0  0  0
  2 13  1  0  0  0  0
  3  2  2  0  0  0  0
  4  3  1  0  0  0  0
  5  7  2  0  0  0  0
  5  3  1  0  0  0  0
  6  5  1  0  0  0  0
  7  8  1  0  0  0  0
  8  1  2  0  0  0  0
 10 12  2  0  0  0  0
 10  9  1  0  0  0  0
 10 11  2  0  0  0  0
 14 15  1  0  0  0  0
 15 13  1  0  0  0  0
 15 16  2  0  0  0  0
 16 21  1  0  0  0  0
 17 16  1  0  0  0  0
 18 17  2  0  0  0  0
 19 14  2  0  0  0  0
 19 18  1  0  0  0  0
 20 14  1  0  0  0  0
 22 18  1  0  0  0  0
M  END
>  <minimizedAffinity>
-4.06301451

$$$$

 OpenBabel03242513553D

 22 23  0  0  0  0  0  0  0  0999 V2000
   38.8040   27.5570   41.5570 C   0  0  0  0  0  0  0  0  0  0  0  0
   38.3590   28.5900   42.3560 C   0  0  0  0  0  0  0  0  0  0  0  0
   37.2950   28.4910   43.2530 C   0  0  0  0  0  0  0  0  0  0  0  0
   36.9680   29.3070   43.8640 H   0  0  0  0  0  0  0  0  0  0  0  0
   36.6460   27.2770   43.3490 C   0  0  0  0  0  0  0  0  0  0  0  0
   35.8150   27.1480   44.0310 H   0  0  0  0  0  0  0  0  0  0  0  0
   37.0700   26.2240   42.5610 C   0  0  0  0  0  3  0  0  0  0  0  0
   38.1380   26.3540   41.6700 C   0  0  0  0  0  3  0  0  0  0  0  0
   40.0390   28.9330   39.7290 H   0  0  0  0  0  0  0  0  0  0  0  0
   40.1560   27.7950   40.4590 S   0  0  0  0  0  0  0  0  0  0  0  0
   41.4350   27.7220   41.2350 O   0  0  0  0  0  0  0  0  0  0  0  0
   40.1550   26.5820   39.5400 O   0  0  0  0  0  0  0  0  0  0  0  0
   38.9880   29.8030   42.2770 O   0  0  0  0  0  0  0  0  0  0  0  0
   37.3370   30.9360   40.8130 C   0  0  0  0  0  0  0  0  0  0  0  0
   38.5620   30.8660   41.5160 C   0  0  0  0  0  0  0  0  0  0  0  0
   39.4000   31.9860   41.4160 C   0  0  0  0  0  0  0  0  0  0  0  0
   39.0170   33.0640   40.6710 N   0  0  0  0  0  0  0  0  0  0  0  0
   37.8210   33.0730   40.0150 C   0  0  0  0  0  0  0  0  0  0  0  0
   37.0030   32.0030   40.1010 N   0  0  0  0  0  0  0  0  0  0  0  0
   36.7160   30.0680   40.9060 H   0  0  0  0  0  0  0  0  0  0  0  0
   40.3510   31.9970   41.9290 H   0  0  0  0  0  0  0  0  0  0  0  0
   37.6180   33.9770   39.4550 H   0  0  0  0  0  0  0  0  0  0  0  0
  1  8  2  0  0  0  0
  1  2  1  0  0  0  0
  2  3  2  0  0  0  0
  3  5  1  0  0  0  0
  3  4  1  0  0  0  0
  5  6  1  0  0  0  0
  7  5  2  0  0  0  0
  8  7  1  0  0  0  0
  9 10  1  0  0  0  0
 10 11  2  0  0  0  0
 10  1  1  0  0  0  0
 12 10  2  0  0  0  0
 13  2  1  0  0  0  0
 14 20  1  0  0  0  0
 14 15  1  0  0  0  0
 15 13  1  0  0  0  0
 16 15  2  0  0  0  0
 16 21  1  0  0  0  0
 17 16  1  0  0  0  0
 18 19  1  0  0  0  0
 18 17  2  0  0  0  0
 19 14  2  0  0  0  0
 22 18  1  0  0  0  0
M  END
>  <minimizedAffinity>
-4.05875874

$$$$
