
     RDKit          3D

 26 27  0  0  0  0  0  0  0  0999 V2000
   47.6768   34.9551   42.3450 C   0  0  0  0  0  0  0  0  0  0  0  0
   47.9144   33.9169   43.2521 C   0  0  0  0  0  0  0  0  0  0  0  0
   46.9095   33.5313   44.1344 C   0  0  0  0  0  0  0  0  0  0  0  0
   45.7385   34.2006   44.0574 N   0  0  0  0  0  0  0  0  0  0  0  0
   45.5099   35.2084   43.1758 C   0  0  0  0  0  0  0  0  0  0  0  0
   46.4798   35.5827   42.3223 N   0  0  0  0  0  0  0  0  0  0  0  0
   48.7871   35.3260   41.4257 C   0  0  0  0  0  0  0  0  0  0  0  0
   48.4150   35.2479   40.1071 F   0  0  0  0  0  0  0  0  0  0  0  0
   49.2185   36.6107   41.7711 F   0  0  0  0  0  0  0  0  0  0  0  0
   49.8824   34.5051   41.6670 F   0  0  0  0  0  0  0  0  0  0  0  0
   48.8674   33.4363   43.2515 H   0  0  0  0  0  0  0  0  0  0  0  0
   44.5678   35.7332   43.1274 H   0  0  0  0  0  0  0  0  0  0  0  0
   44.4420   31.7456   43.3232 H   0  0  0  0  0  0  0  0  0  0  0  0
   45.5095   30.9028   43.4491 S   0  0  0  0  0  0  0  0  0  0  0  0
   44.9018   29.5199   43.6443 O   0  0  0  0  0  0  0  0  0  0  0  0
   46.3353   30.8096   42.1892 O   0  0  0  0  0  0  0  0  0  0  0  0
   46.4838   31.2309   44.8586 C   0  0  0  0  0  0  0  0  0  0  0  0
   47.0918   32.4589   45.1030 C   0  0  0  0  0  0  0  0  0  0  0  0
   47.8449   32.6242   46.2479 C   0  0  0  0  0  0  0  0  0  0  0  0
   48.3342   33.5407   46.4889 H   0  0  0  0  0  0  0  0  0  0  0  0
   48.0303   31.6151   47.1814 C   0  0  0  0  0  0  0  0  0  0  0  0
   48.6295   31.7599   48.0838 H   0  0  0  0  0  0  0  0  0  0  0  0
   47.4459   30.3855   46.9771 C   0  0  0  0  0  0  0  0  0  0  0  0
   46.7012   30.2484   45.8287 C   0  0  0  0  0  0  0  0  0  0  0  0
   47.5381   29.5445   47.6521 H   0  0  0  0  0  0  0  0  0  0  0  0
   46.2318   29.2746   45.6560 H   0  0  0  0  0  0  0  0  0  0  0  0
  1  2  2  0
  2  3  1  0
  4  3  2  0
  5  4  1  0
  6  1  1  0
  6  5  2  0
  7 10  1  0
  7  9  1  0
  7  1  1  0
  8  7  1  0
  2 11  1  0
  5 12  1  0
 13 14  1  0
 14 15  2  0
 14 16  2  0
 14 17  1  0
 17 18  2  0
 18 19  1  0
 19 20  1  0
 19 21  2  0
 21 22  1  0
 21 23  1  0
 23 24  2  0
 24 17  1  0
 23 25  1  0
 24 26  1  0
  3 18  1  0
M  ISO  5  11  14  12  14  13  12  20  15  22  16
M  END
>  <DihAtoms>  (1) 
1,2,17,16

>  <DihDeg>  (1) 
179.95139450992335

$$$$
