
     RDKit          3D

 30 31  0  0  0  0  0  0  0  0999 V2000
   44.7109   35.3789   45.0234 C   0  0  0  0  0  0  0  0  0  0  0  0
   45.5944   34.9329   44.0462 C   0  0  0  0  0  0  0  0  0  0  0  0
   46.3574   33.7849   44.3323 C   0  0  0  0  0  0  0  0  0  0  0  0
   46.1991   33.1748   45.5299 N   0  0  0  0  0  0  0  0  0  0  0  0
   45.3240   33.6509   46.4475 C   0  0  0  0  0  0  0  0  0  0  0  0
   44.5911   34.7346   46.1998 N   0  0  0  0  0  0  0  0  0  0  0  0
   45.6744   35.6988   42.7616 C   0  0  0  0  0  0  0  0  0  0  0  0
   45.2728   36.9770   43.0887 F   0  0  0  0  0  0  0  0  0  0  0  0
   44.7881   35.1063   41.8895 F   0  0  0  0  0  0  0  0  0  0  0  0
   46.9710   35.6308   42.3015 F   0  0  0  0  0  0  0  0  0  0  0  0
   45.1385   33.0518   47.6812 O   0  0  0  0  0  0  0  0  0  0  0  0
   46.1562   32.2922   48.3065 C   0  0  0  0  0  0  0  0  0  0  0  0
   44.1174   36.2441   44.8417 H   0  0  0  0  0  0  0  0  0  0  0  0
   47.0390   33.4508   43.5624 H   0  0  0  0  0  0  0  0  0  0  0  0
   45.7538   31.9364   49.2735 H   0  0  0  0  0  0  0  0  0  0  0  0
   47.0810   32.9184   48.4649 H   0  0  0  0  0  0  0  0  0  0  0  0
   48.6242   32.5769   49.2478 H   0  0  0  0  0  0  0  0  0  0  0  0
   49.1081   31.4535   48.6814 S   0  0  0  0  0  0  0  0  0  0  0  0
   50.3513   31.8340   47.9237 O   0  0  0  0  0  0  0  0  0  0  0  0
   49.5222   30.4717   49.7689 O   0  0  0  0  0  0  0  0  0  0  0  0
   47.9163   30.7351   47.6553 C   0  0  0  0  0  0  0  0  0  0  0  0
   46.5891   31.1220   47.5023 C   0  0  0  0  0  0  0  0  0  0  0  0
   45.7726   30.4265   46.6359 C   0  0  0  0  0  0  0  0  0  0  0  0
   44.7385   30.8041   46.5818 H   0  0  0  0  0  0  0  0  0  0  0  0
   46.1884   29.3462   45.8894 C   0  0  0  0  0  0  0  0  0  0  0  0
   45.5060   28.8358   45.2231 H   0  0  0  0  0  0  0  0  0  0  0  0
   47.5182   28.9340   46.0217 C   0  0  0  0  0  0  0  0  0  0  0  0
   48.3061   29.6497   46.8952 C   0  0  0  0  0  0  0  0  0  0  0  0
   47.8568   28.1026   45.4535 H   0  0  0  0  0  0  0  0  0  0  0  0
   49.3334   29.2732   46.9497 H   0  0  0  0  0  0  0  0  0  0  0  0
  1  6  2  0
  2  3  2  0
  2  1  1  0
  3  4  1  0
  4  5  2  0
  5 11  1  0
  6  5  1  0
  7  8  1  0
  7  2  1  0
  9  7  1  0
 10  7  1  0
 11 12  1  0
  1 13  1  0
  3 14  1  0
 12 15  1  0
 12 16  1  0
 17 18  1  0
 18 19  2  0
 18 20  2  0
 18 21  1  0
 21 22  2  0
 22 23  1  0
 23 24  1  0
 23 25  2  0
 25 26  1  0
 25 27  1  0
 27 28  2  0
 28 21  1  0
 27 29  1  0
 28 30  1  0
 12 22  1  0
M  ISO  7  13  14  14  14  15   8  16   8  17  12  24  15  26  16
M  END
>  <DihAtoms>  (1) 
10,11,21,20

>  <DihDeg>  (1) 
-75.57360799060324

$$$$
