
     RDKit          3D

 48 51  0  0  0  0  0  0  0  0999 V2000
   46.4272   32.9721   46.4683 C   0  0  2  0  0  0  0  0  0  0  0  0
   46.9824   31.7517   45.7913 C   0  0  0  0  0  0  0  0  0  0  0  0
   46.1134   30.5515   45.8013 C   0  0  0  0  0  0  0  0  0  0  0  0
   45.8156   30.2886   47.2754 C   0  0  0  0  0  0  0  0  0  0  0  0
   45.0192   31.3491   47.8787 C   0  0  0  0  0  0  0  0  0  0  0  0
   45.3724   32.7299   47.4272 C   0  0  0  0  0  0  0  0  0  0  0  0
   44.5823   35.5780   44.6189 C   0  0  0  0  0  0  0  0  0  0  0  0
   45.2367   35.5799   43.3626 C   0  0  0  0  0  0  0  0  0  0  0  0
   46.3193   34.6636   43.1791 C   0  0  0  0  0  0  0  0  0  0  0  0
   46.6593   33.8488   44.2078 N   0  0  0  0  0  0  0  0  0  0  0  0
   46.0113   33.8802   45.3831 C   0  0  0  0  0  0  0  0  0  0  0  0
   44.9723   34.7401   45.5992 N   0  0  0  0  0  0  0  0  0  0  0  0
   47.0021   34.6485   41.9036 C   0  0  0  0  0  0  0  0  0  0  0  0
   48.1278   35.3965   41.7626 C   0  0  0  0  0  0  0  0  0  0  0  0
   48.7512   35.3443   40.5010 C   0  0  0  0  0  0  0  0  0  0  0  0
   48.1598   34.5458   39.5458 C   0  0  0  0  0  0  0  0  0  0  0  0
   47.0308   33.7970   39.6907 C   0  0  0  0  0  0  0  0  0  0  0  0
   46.4948   33.9032   40.9312 N   0  0  0  0  0  0  0  0  0  0  0  0
   44.6720   33.8612   47.9342 N   0  0  0  0  0  0  0  0  0  0  0  0
   47.2647   33.5151   46.9929 H   0  0  0  0  0  0  0  0  0  0  0  0
   47.9249   31.4791   46.3107 H   0  0  0  0  0  0  0  0  0  0  0  0
   47.2900   31.9461   44.7389 H   0  0  0  0  0  0  0  0  0  0  0  0
   45.2128   30.5828   45.1915 H   0  0  0  0  0  0  0  0  0  0  0  0
   46.7279   29.6888   45.4797 H   0  0  0  0  0  0  0  0  0  0  0  0
   45.1680   29.3862   47.2608 H   0  0  0  0  0  0  0  0  0  0  0  0
   46.7409   30.0246   47.8000 H   0  0  0  0  0  0  0  0  0  0  0  0
   44.2266   31.4149   48.5748 H   0  0  0  0  0  0  0  0  0  0  0  0
   43.7566   36.2501   44.8142 H   0  0  0  0  0  0  0  0  0  0  0  0
   44.9193   36.2458   42.5976 H   0  0  0  0  0  0  0  0  0  0  0  0
   48.5117   35.9905   42.5745 H   0  0  0  0  0  0  0  0  0  0  0  0
   49.6380   35.9183   40.3510 H   0  0  0  0  0  0  0  0  0  0  0  0
   48.6973   34.5601   38.6086 H   0  0  0  0  0  0  0  0  0  0  0  0
   45.3533   34.3823   48.5520 H   0  0  0  0  0  0  0  0  0  0  0  0
   43.6961   33.9567   47.6261 H   0  0  0  0  0  0  0  0  0  0  0  0
   48.3778   31.0873   40.4449 H   0  0  0  0  0  0  0  0  0  0  0  0
   48.4800   31.1670   39.0890 S   0  0  0  0  0  0  0  0  0  0  0  0
   48.7860   29.7993   38.5188 O   0  0  0  0  0  0  0  0  0  0  0  0
   49.6719   32.0287   38.6982 O   0  0  0  0  0  0  0  0  0  0  0  0
   47.0536   31.7686   38.3242 C   0  0  0  0  0  0  0  0  0  0  0  0
   46.4482   32.9691   38.6452 C   0  0  0  0  0  0  0  0  0  0  0  0
   45.3098   33.3732   37.9830 C   0  0  0  0  0  0  0  0  0  0  0  0
   44.7913   34.2993   38.1881 H   0  0  0  0  0  0  0  0  0  0  0  0
   44.7311   32.6146   36.9878 C   0  0  0  0  0  0  0  0  0  0  0  0
   43.8340   32.9300   36.4638 H   0  0  0  0  0  0  0  0  0  0  0  0
   45.2853   31.4077   36.6202 C   0  0  0  0  0  0  0  0  0  0  0  0
   46.4216   31.0443   37.3086 C   0  0  0  0  0  0  0  0  0  0  0  0
   44.8971   30.7584   35.8569 H   0  0  0  0  0  0  0  0  0  0  0  0
   46.8803   30.0873   37.0329 H   0  0  0  0  0  0  0  0  0  0  0  0
  1  6  1  0
  2  3  1  0
  2  1  1  0
  3  4  1  0
  4  5  1  0
  6  5  2  0
  6 19  1  0
  7 12  2  0
  8  7  1  0
  9  8  2  0
  9 10  1  0
 10 11  2  0
 11 12  1  0
 11  1  1  0
 13  9  1  0
 14 13  2  0
 15 14  1  0
 16 17  1  0
 16 15  2  0
 17 18  2  0
 18 13  1  0
  1 20  1  1
  2 21  1  0
  2 22  1  0
  3 23  1  0
  3 24  1  0
  4 25  1  0
  4 26  1  0
  5 27  1  0
  7 28  1  0
  8 29  1  0
 14 30  1  0
 15 31  1  0
 16 32  1  0
 19 33  1  0
 19 34  1  0
 35 36  1  0
 36 37  2  0
 36 38  2  0
 36 39  1  0
 39 40  2  0
 40 41  1  0
 41 42  1  0
 41 43  2  0
 43 44  1  0
 43 45  1  0
 45 46  2  0
 46 39  1  0
 45 47  1  0
 46 48  1  0
 17 40  1  0
M  ISO  8  20  13  21  13  22  13  23  13  24  13  25  13  26  13  27  13
M  ISO  8  28  14  29  14  30  14  31  14  32  14  35  12  42  15  44  16
M  END
>  <DihAtoms>  (1) 
15,16,39,38

>  <DihDeg>  (1) 
-179.98976997627597

$$$$
