
 OpenBabel03242523583D

 24 25  0  0  0  0  0  0  0  0999 V2000
   44.4500   36.0010   44.8280 C   0  0  0  0  0  0  0  0  0  0  0  0
   45.1370   35.8980   43.5860 C   0  0  0  0  0  0  0  0  0  0  0  0
   46.0020   34.8310   43.4060 C   0  0  0  0  0  0  0  0  0  0  0  0
   46.1500   33.9470   44.4120 N   0  0  0  0  0  0  0  0  0  0  0  0
   45.5000   34.0520   45.5750 C   0  0  0  0  0  0  0  0  0  0  0  0
   44.6510   35.0860   45.7740 N   0  0  0  0  0  0  0  0  0  0  0  0
   43.7610   36.8260   45.0120 H   0  0  0  0  0  0  0  0  0  0  0  0
   44.9120   36.6700   42.9020 H   0  0  0  0  0  0  0  0  0  0  0  0
   46.2100   33.9900   41.0800 C   0  0  0  0  0  0  0  0  0  0  0  0
   46.7160   34.7100   42.1420 C   0  0  0  0  0  0  0  0  0  0  0  0
   47.9380   35.3080   41.9440 C   0  0  0  0  0  0  0  0  0  0  0  0
   48.4430   35.8980   42.6930 H   0  0  0  0  0  0  0  0  0  0  0  0
   48.6680   35.2340   40.7780 C   0  0  0  0  0  0  0  0  0  0  0  0
   49.6280   35.7060   40.6250 H   0  0  0  0  0  0  0  0  0  0  0  0
   48.1720   34.5190   39.7090 C   0  0  0  0  0  0  0  0  0  0  0  0
   46.9490   33.9130   39.8920 C   0  0  0  0  0  0  0  0  0  0  0  0
   44.3890   32.8130   42.4900 H   0  0  0  0  0  0  0  0  0  0  0  0
   44.6750   33.1860   41.1950 S   0  0  0  0  0  0  0  0  0  0  0  0
   44.5300   32.0110   40.3010 O   0  0  0  0  0  0  0  0  0  0  0  0
   43.5930   34.1860   40.8140 O   0  0  0  0  0  0  0  0  0  0  0  0
   45.8130   32.9690   46.5450 C   0  0  0  0  0  0  0  0  0  0  0  0
   44.9910   33.0300   47.6520 F   0  0  0  0  0  0  0  0  0  0  0  0
   47.1290   33.0680   46.9750 F   0  0  0  0  0  0  0  0  0  0  0  0
   45.6950   31.7450   45.9180 F   0  0  0  0  0  0  0  0  0  0  0  0
  1  7  1  0  0  0  0
  1  6  1  0  0  0  0
  2  1  2  0  0  0  0
  3  2  1  0  0  0  0
  3  4  2  0  0  0  0
  4  5  1  0  0  0  0
  5  6  2  0  0  0  0
  5 21  1  0  0  0  0
  8  2  1  0  0  0  0
  9 18  1  0  0  0  0
  9 10  1  0  0  0  0
 10  3  1  0  0  0  0
 11 10  2  0  0  0  0
 11 12  1  0  0  0  0
 13 11  1  0  0  0  0
 14 13  1  0  0  0  0
 15 16  1  0  0  0  0
 15 13  2  0  0  0  0
 16  9  2  0  0  0  0
 18 17  1  0  0  0  0
 19 18  2  0  0  0  0
 20 18  2  0  0  0  0
 21 23  1  0  0  0  0
 21 22  1  0  0  0  0
 24 21  1  0  0  0  0
M  END
>  <minimizedAffinity>
-6.02205896

>  <minimizedRMSD>
2.70108414

$$$$
