
 OpenBabel03252504333D

 43 45  0  0  0  0  0  0  0  0999 V2000
   41.6090   35.6540   41.1840 C   0  0  0  0  0  0  0  0  0  0  0  0
   41.5160   35.8110   42.2740 H   0  0  0  0  0  0  0  0  0  0  0  0
   41.1460   36.5680   40.7110 H   0  0  0  0  0  0  0  0  0  0  0  0
   41.0870   33.2790   41.1950 C   0  0  0  0  0  0  0  0  0  0  0  0
   40.6160   34.5680   40.8960 C   0  0  0  0  0  0  0  0  0  0  0  0
   39.3630   34.7050   40.4140 C   0  0  0  0  0  0  0  0  0  0  0  0
   38.6610   33.5890   40.2580 N   0  0  0  0  0  0  0  0  0  0  0  0
   39.0760   32.3670   40.5290 C   0  0  0  0  0  0  0  0  0  0  0  0
   40.3670   32.1670   41.0300 N   0  0  0  0  0  0  0  0  0  0  0  0
   42.0810   33.1000   41.5830 H   0  0  0  0  0  0  0  0  0  0  0  0
   39.0450   35.6970   40.2010 H   0  0  0  0  0  0  0  0  0  0  0  0
   38.2330   30.6180   39.0700 C   0  0  0  0  0  0  0  0  0  0  0  0
   38.2680   31.1650   40.3410 C   0  0  0  0  0  0  0  0  0  0  0  0
   37.5560   30.5790   41.3730 C   0  0  0  0  0  0  0  0  0  0  0  0
   37.6030   31.0350   42.3670 H   0  0  0  0  0  0  0  0  0  0  0  0
   36.7870   29.4450   41.2140 C   0  0  0  0  0  0  0  0  0  0  0  0
   36.2490   29.0150   42.0340 H   0  0  0  0  0  0  0  0  0  0  0  0
   36.7230   28.8650   39.9640 C   0  0  0  0  0  0  0  0  0  0  0  0
   37.4420   29.4700   38.9530 C   0  0  0  0  0  0  0  0  0  0  0  0
   40.3940   31.6120   38.0040 H   0  0  0  0  0  0  0  0  0  0  0  0
   39.0920   31.2870   37.7260 S   0  0  0  0  0  0  0  0  0  0  0  0
   39.1840   30.2050   36.6590 O   0  0  0  0  0  0  0  0  0  0  0  0
   38.3260   32.4020   37.0810 O   0  0  0  0  0  0  0  0  0  0  0  0
   42.8370   35.4370   40.6540 O   0  0  0  0  0  0  0  0  0  0  0  0
   44.0490   35.3470   41.3160 C   0  0  0  0  0  0  0  0  0  0  0  0
   44.0220   35.5830   42.6260 C   0  0  0  0  0  0  0  0  0  0  0  0
   45.2530   35.5280   43.5220 C   0  0  0  0  0  0  0  0  0  0  0  0
   45.4400   36.5050   43.9750 H   0  0  0  0  0  0  0  0  0  0  0  0
   46.1310   35.2570   42.9010 H   0  0  0  0  0  0  0  0  0  0  0  0
   44.9840   34.5920   44.5020 O   0  0  0  0  0  0  0  0  0  0  0  0
   45.6090   32.4300   43.0780 O   0  0  0  0  0  0  0  0  0  0  0  0
   45.9700   33.2360   44.3050 P   0  0  1  0  0  0  0  0  0  0  0  0
   47.5950   33.7220   44.1240 O   0  0  0  0  0  0  0  0  0  0  0  0
   47.7830   34.3330   44.8680 H   0  0  0  0  0  0  0  0  0  0  0  0
   45.8980   32.2610   45.6790 O   0  0  0  0  0  0  0  0  0  0  0  0
   46.2140   32.9520   46.8330 C   0  0  0  0  0  0  0  0  0  0  0  0
   47.0740   32.3000   47.8670 C   0  0  0  0  0  0  0  0  0  0  0  0
   45.5770   32.4130   48.0920 C   0  0  0  0  0  0  0  0  0  0  0  0
   46.3400   34.0410   46.6850 H   0  0  0  0  0  0  0  0  0  0  0  0
   47.5260   31.3230   47.7030 H   0  0  0  0  0  0  0  0  0  0  0  0
   47.6600   32.9960   48.5000 H   0  0  0  0  0  0  0  0  0  0  0  0
   45.2010   33.2110   48.7920 H   0  0  0  0  0  0  0  0  0  0  0  0
   45.0490   31.4570   48.0700 H   0  0  0  0  0  0  0  0  0  0  0  0
  1  2  1  0  0  0  0
  3  1  1  0  0  0  0
  4 10  1  0  0  0  0
  5  1  1  0  0  0  0
  5  4  2  0  0  0  0
  6  5  1  0  0  0  0
  7  6  2  0  0  0  0
  7  8  1  0  0  0  0
  8  9  2  0  0  0  0
  9  4  1  0  0  0  0
 11  6  1  0  0  0  0
 12 13  1  0  0  0  0
 13  8  1  0  0  0  0
 13 14  2  0  0  0  0
 14 15  1  0  0  0  0
 16 14  1  0  0  0  0
 16 17  1  0  0  0  0
 18 16  2  0  0  0  0
 19 12  2  0  0  0  0
 19 18  1  0  0  0  0
 21 20  1  0  0  0  0
 21 12  1  0  0  0  0
 22 21  2  0  0  0  0
 23 21  2  0  0  0  0
 24  1  1  0  0  0  0
 24 25  1  0  0  0  0
 25 26  2  0  0  0  0
 26 27  1  0  0  0  0
 27 28  1  0  0  0  0
 27 30  1  0  0  0  0
 29 27  1  0  0  0  0
 32 31  2  6  0  0  0
 32 30  1  0  0  0  0
 32 35  1  0  0  0  0
 33 32  1  0  0  0  0
 33 34  1  0  0  0  0
 35 36  1  0  0  0  0
 36 37  1  0  0  0  0
 36 38  1  0  0  0  0
 37 38  1  0  0  0  0
 37 41  1  0  0  0  0
 38 42  1  0  0  0  0
 39 36  1  0  0  0  0
 40 37  1  0  0  0  0
 43 38  1  0  0  0  0
M  END
>  <minimizedAffinity>
-5.39094496

>  <minimizedRMSD>
0.966727495

$$$$
