REMARK  Name = 
REMARK  6 active torsions:
REMARK  status: ('A' for Active; 'I' for Inactive)
REMARK    1  A    between atoms: C_3  and  C_14
REMARK    2  A    between atoms: C_5  and  C_7
REMARK    3  A    between atoms: C_12  and  N_13
REMARK    4  A    between atoms: C_18  and  O_20
REMARK    5  A    between atoms: O_20  and  C_41
REMARK    6  A    between atoms: S_37  and  C_40
REMARK                            x       y       z     vdW  Elec       q    Type
REMARK                         _______ _______ _______ _____ _____    ______ ____
ROOT
ATOM      1  C   UNL     1      44.577  35.589  44.616  0.00  0.00    +0.000 A 
ATOM      2  C   UNL     1      45.232  35.595  43.365  0.00  0.00    +0.000 A 
ATOM      3  C   UNL     1      46.319  34.680  43.180  0.00  0.00    +0.000 A 
ATOM      4  N   UNL     1      46.662  33.867  44.198  0.00  0.00    +0.000 NA
ATOM      5  C   UNL     1      46.013  33.892  45.375  0.00  0.00    +0.000 A 
ATOM      6  N   UNL     1      44.967  34.753  45.593  0.00  0.00    +0.000 NA
ATOM      7  H   UNL     1      43.750  36.278  44.771  0.00  0.00    +0.000 HD
ATOM      8  H   UNL     1      44.955  36.243  42.562  0.00  0.00    +0.000 HD
ENDROOT
BRANCH   5   9
ATOM      9  C   UNL     1      46.430  32.980  46.463  0.00  0.00    +0.000 C 
ATOM     10  C   UNL     1      46.964  31.749  45.762  0.00  0.00    +0.000 C 
ATOM     11  C   UNL     1      46.082  30.561  45.783  0.00  0.00    +0.000 C 
ATOM     12  C   UNL     1      45.823  30.296  47.261  0.00  0.00    +0.000 C 
ATOM     13  C   UNL     1      45.021  31.365  47.878  0.00  0.00    +0.000 C 
ATOM     14  C   UNL     1      45.387  32.732  47.419  0.00  0.00    +0.000 C 
ATOM     15  H   UNL     1      47.294  33.492  46.960  0.00  0.00    +0.000 HD
ATOM     16  H   UNL     1      47.248  31.939  44.705  0.00  0.00    +0.000 HD
ATOM     17  H   UNL     1      47.915  31.453  46.253  0.00  0.00    +0.000 HD
ATOM     18  H   UNL     1      45.152  30.615  45.219  0.00  0.00    +0.000 HD
ATOM     19  H   UNL     1      46.682  29.702  45.436  0.00  0.00    +0.000 HD
ATOM     20  H   UNL     1      46.745  30.038  47.782  0.00  0.00    +0.000 HD
ATOM     21  H   UNL     1      45.162  29.404  47.268  0.00  0.00    +0.000 HD
ATOM     22  H   UNL     1      44.228  31.358  48.588  0.00  0.00    +0.000 HD
BRANCH  14  23
ATOM     23  N   UNL     1      44.687  33.858  47.929  0.00  0.00    +0.000 N 
ATOM     24  H   UNL     1      43.684  34.049  47.683  0.00  0.00    +0.000 HD
ATOM     25  H   UNL     1      45.150  34.535  48.568  0.00  0.00    +0.000 HD
ENDBRANCH  14  23
ENDBRANCH   5   9
BRANCH   3  26
ATOM     26  C   UNL     1      47.005  34.665  41.898  0.00  0.00    +0.000 A 
ATOM     27  C   UNL     1      48.147  35.395  41.782  0.00  0.00    +0.000 A 
ATOM     28  C   UNL     1      48.773  35.351  40.524  0.00  0.00    +0.000 A 
ATOM     29  C   UNL     1      48.161  34.573  39.549  0.00  0.00    +0.000 A 
ATOM     30  C   UNL     1      47.013  33.837  39.663  0.00  0.00    +0.000 A 
ATOM     31  N   UNL     1      46.446  33.919  40.912  0.00  0.00    +0.000 NA
ATOM     32  H   UNL     1      48.520  35.962  42.623  0.00  0.00    +0.000 HD
ATOM     33  H   UNL     1      49.676  35.930  40.437  0.00  0.00    +0.000 HD
ATOM     34  H   UNL     1      48.767  34.652  38.661  0.00  0.00    +0.000 HD
BRANCH  30  35
ATOM     35  O   UNL     1      46.484  33.109  38.666  0.00  0.00    +0.000 OA
BRANCH  35  37
ATOM     36  C   UNL     1      46.480  31.397  37.362  0.00  0.00    +0.000 A 
ATOM     37  C   UNL     1      46.705  32.791  37.413  0.00  0.00    +0.000 A 
ATOM     38  C   UNL     1      47.061  33.346  36.217  0.00  0.00    +0.000 A 
ATOM     39  H   UNL     1      47.225  34.391  36.279  0.00  0.00    +0.000 HD
ATOM     40  C   UNL     1      47.216  32.703  35.015  0.00  0.00    +0.000 A 
ATOM     41  H   UNL     1      47.502  33.291  34.166  0.00  0.00    +0.000 HD
ATOM     42  C   UNL     1      46.981  31.350  35.038  0.00  0.00    +0.000 A 
ATOM     43  C   UNL     1      46.611  30.658  36.190  0.00  0.00    +0.000 A 
BRANCH  36  45
ATOM     44  H   UNL     1      44.915  29.552  38.267  0.00  0.00    +0.000 HD
ATOM     45  S   UNL     1      46.008  30.286  38.656  0.00  0.00    +0.000 S 
ATOM     46  O   UNL     1      47.164  29.421  39.002  0.00  0.00    +0.000 OA
ATOM     47  O   UNL     1      45.601  31.076  39.853  0.00  0.00    +0.000 OA
ENDBRANCH  36  45
ENDBRANCH  35  37
ENDBRANCH  30  35
ENDBRANCH   3  26
TORSDOF 6
