
 OpenBabel03252507343D

 52 55  0  0  1  0  0  0  0  0999 V2000
   38.1560   31.6180   40.8610 C   0  0  0  0  0  0  0  0  0  0  0  0
   36.8390   31.6450   40.4220 C   0  0  0  0  0  0  0  0  0  0  0  0
   36.0530   30.4720   40.4970 C   0  0  0  0  0  0  0  0  0  0  0  0
   36.6750   29.3420   41.0180 N   0  0  0  0  0  0  0  0  0  0  0  0
   37.9510   29.3830   41.4220 C   0  0  0  0  0  0  0  0  0  0  0  0
   38.6780   30.4980   41.3470 N   0  0  0  0  0  0  0  0  0  0  0  0
   36.1880   32.3630   39.9680 H   0  0  0  0  0  0  0  0  0  0  0  0
   35.0480   30.3050   40.2160 H   0  0  0  0  0  0  0  0  0  0  0  0
   38.9100   32.8520   40.7840 C   0  0  2  0  0  0  0  0  0  0  0  0
   38.0550   34.0090   40.1820 C   0  0  0  0  0  0  0  0  0  0  0  0
   38.8160   35.2860   40.2790 C   0  0  0  0  0  0  0  0  0  0  0  0
   40.2530   35.2210   39.8790 C   0  0  0  0  0  0  0  0  0  0  0  0
   40.9270   34.0100   40.2740 C   0  0  0  0  0  0  0  0  0  0  0  0
   40.1180   32.7250   39.9930 C   0  0  2  0  0  0  0  0  0  0  0  0
   39.1110   33.2170   41.8130 H   0  0  0  0  0  0  0  0  0  0  0  0
   37.6980   33.7390   39.1840 H   0  0  0  0  0  0  0  0  0  0  0  0
   37.1610   34.0410   40.8390 H   0  0  0  0  0  0  0  0  0  0  0  0
   38.5990   35.7020   41.2810 H   0  0  0  0  0  0  0  0  0  0  0  0
   38.3180   36.0070   39.5660 H   0  0  0  0  0  0  0  0  0  0  0  0
   40.6930   35.9460   40.6770 H   0  0  0  0  0  0  0  0  0  0  0  0
   40.5850   35.8460   39.0490 H   0  0  0  0  0  0  0  0  0  0  0  0
   41.2650   33.8970   41.3330 H   0  0  0  0  0  0  0  0  0  0  0  0
   41.8660   33.8750   39.6630 H   0  0  0  0  0  0  0  0  0  0  0  0
   40.8300   31.9590   40.3030 H   0  0  0  0  0  0  0  0  0  0  0  0
   39.7830   32.6920   38.5680 N   0  0  0  0  0  0  0  0  0  0  0  0
   39.9000   31.6770   37.6030 C   0  0  0  0  0  0  0  0  0  0  0  0
   39.0830   30.6890   37.5270 O   0  0  0  0  0  0  0  0  0  0  0  0
   40.9970   31.8310   36.7050 N   0  0  0  0  0  0  0  0  0  0  0  0
   39.4270   33.5770   38.0410 H   0  0  0  0  0  0  0  0  0  0  0  0
   41.1240   32.6400   36.0620 H   0  0  0  0  0  0  0  0  0  0  0  0
   41.8810   31.3580   36.3870 H   0  0  0  0  0  0  0  0  0  0  0  0
   38.5540   28.1510   41.9410 C   0  0  0  0  0  0  0  0  0  0  0  0
   39.2210   28.1350   43.1370 C   0  0  0  0  0  0  0  0  0  0  0  0
   39.8030   27.0000   43.6630 C   0  0  0  0  0  0  0  0  0  0  0  0
   39.6760   25.8450   42.8980 C   0  0  0  0  0  0  0  0  0  0  0  0
   39.0090   25.8490   41.6960 C   0  0  0  0  0  0  0  0  0  0  0  0
   38.4610   27.0100   41.2460 N   0  0  0  0  0  0  0  0  0  0  0  0
   39.2860   29.0570   43.6820 H   0  0  0  0  0  0  0  0  0  0  0  0
   40.3160   27.0440   44.6080 H   0  0  0  0  0  0  0  0  0  0  0  0
   40.1370   24.9760   43.3280 H   0  0  0  0  0  0  0  0  0  0  0  0
   39.7270   24.4130   39.8300 C   0  0  0  0  0  0  0  0  0  0  0  0
   38.8760   24.6480   40.9010 C   0  0  0  0  0  0  0  0  0  0  0  0
   37.9170   23.6950   41.1620 C   0  0  0  0  0  0  0  0  0  0  0  0
   37.2130   23.7940   41.9740 H   0  0  0  0  0  0  0  0  0  0  0  0
   37.7510   22.5340   40.4320 C   0  0  0  0  0  0  0  0  0  0  0  0
   36.9850   21.7990   40.6600 H   0  0  0  0  0  0  0  0  0  0  0  0
   38.5750   22.2830   39.3750 C   0  0  0  0  0  3  0  0  0  0  0  0
   39.5410   23.2280   39.1030 C   0  0  0  0  0  3  0  0  0  0  0  0
   40.6700   26.8280   39.6610 H   0  0  0  0  0  0  0  0  0  0  0  0
   40.9960   25.5230   39.3690 S   0  0  0  0  0  0  0  0  0  0  0  0
   42.2050   25.2230   40.2480 O   0  0  0  0  0  0  0  0  0  0  0  0
   41.4240   25.3480   37.9370 O   0  0  0  0  0  0  0  0  0  0  0  0
  1  6  1  0  0  0  0
  2  3  1  0  0  0  0
  2  1  2  0  0  0  0
  3  4  2  0  0  0  0
  4  5  1  0  0  0  0
  5 32  1  0  0  0  0
  6  5  2  0  0  0  0
  7  2  1  0  0  0  0
  8  3  1  0  0  0  0
  9  1  1  0  0  0  0
  9 15  1  1  0  0  0
 10 11  1  0  0  0  0
 10  9  1  0  0  0  0
 10 17  1  0  0  0  0
 11 18  1  0  0  0  0
 12 13  1  0  0  0  0
 12 11  1  0  0  0  0
 12 20  1  0  0  0  0
 13 22  1  0  0  0  0
 14 13  1  0  0  0  0
 14 24  1  1  0  0  0
 14  9  1  0  0  0  0
 16 10  1  0  0  0  0
 19 11  1  0  0  0  0
 21 12  1  0  0  0  0
 23 13  1  0  0  0  0
 25 14  1  0  0  0  0
 26 25  1  0  0  0  0
 27 26  2  0  0  0  0
 28 26  1  0  0  0  0
 29 25  1  0  0  0  0
 30 28  1  0  0  0  0
 31 28  1  0  0  0  0
 32 33  1  0  0  0  0
 33 34  2  0  0  0  0
 33 38  1  0  0  0  0
 34 39  1  0  0  0  0
 35 40  1  0  0  0  0
 35 34  1  0  0  0  0
 36 35  2  0  0  0  0
 37 36  1  0  0  0  0
 37 32  2  0  0  0  0
 41 42  1  0  0  0  0
 42 43  2  0  0  0  0
 42 36  1  0  0  0  0
 43 44  1  0  0  0  0
 45 46  1  0  0  0  0
 45 43  1  0  0  0  0
 47 45  2  0  0  0  0
 48 47  1  0  0  0  0
 48 41  2  0  0  0  0
 50 49  1  0  0  0  0
 50 41  1  0  0  0  0
 50 51  2  0  0  0  0
 52 50  2  0  0  0  0
M  END
>  <minimizedAffinity>
-7.03956223

$$$$

 OpenBabel03252507343D

 52 55  0  0  1  0  0  0  0  0999 V2000
   38.6330   29.6610   42.2970 C   0  0  0  0  0  0  0  0  0  0  0  0
   37.3110   29.3910   41.9670 C   0  0  0  0  0  0  0  0  0  0  0  0
   36.5730   30.3300   41.2090 C   0  0  0  0  0  0  0  0  0  0  0  0
   37.2450   31.4920   40.8400 N   0  0  0  0  0  0  0  0  0  0  0  0
   38.5200   31.6920   41.1930 C   0  0  0  0  0  0  0  0  0  0  0  0
   39.2020   30.7950   41.9060 N   0  0  0  0  0  0  0  0  0  0  0  0
   36.6070   28.6110   42.1670 H   0  0  0  0  0  0  0  0  0  0  0  0
   35.5740   30.2970   40.8680 H   0  0  0  0  0  0  0  0  0  0  0  0
   39.3500   28.6570   43.0540 C   0  0  2  0  0  0  0  0  0  0  0  0
   40.8840   28.7160   42.7750 C   0  0  0  0  0  0  0  0  0  0  0  0
   41.5890   27.7830   43.6970 C   0  0  0  0  0  0  0  0  0  0  0  0
   40.9760   26.4300   43.8510 C   0  0  0  0  0  0  0  0  0  0  0  0
   39.5350   26.4290   43.8710 C   0  0  0  0  0  0  0  0  0  0  0  0
   38.8930   27.3100   42.7780 C   0  0  2  0  0  0  0  0  0  0  0  0
   39.2960   28.9120   44.1330 H   0  0  0  0  0  0  0  0  0  0  0  0
   41.0820   28.5770   41.7080 H   0  0  0  0  0  0  0  0  0  0  0  0
   41.1500   29.7680   43.0110 H   0  0  0  0  0  0  0  0  0  0  0  0
   41.7770   28.3500   44.6290 H   0  0  0  0  0  0  0  0  0  0  0  0
   42.6170   27.6210   43.2580 H   0  0  0  0  0  0  0  0  0  0  0  0
   41.1770   26.2720   44.9870 H   0  0  0  0  0  0  0  0  0  0  0  0
   41.5700   25.5610   43.5680 H   0  0  0  0  0  0  0  0  0  0  0  0
   39.0040   26.7240   44.8090 H   0  0  0  0  0  0  0  0  0  0  0  0
   39.1470   25.3940   43.6430 H   0  0  0  0  0  0  0  0  0  0  0  0
   37.8340   27.1070   42.9410 H   0  0  0  0  0  0  0  0  0  0  0  0
   39.3950   26.8680   41.4750 N   0  0  0  0  0  0  0  0  0  0  0  0
   38.7490   26.2750   40.3760 C   0  0  0  0  0  0  0  0  0  0  0  0
   38.0210   26.9400   39.5530 O   0  0  0  0  0  0  0  0  0  0  0  0
   38.9690   24.8720   40.2400 N   0  0  0  0  0  0  0  0  0  0  0  0
   40.4550   26.9020   41.2260 H   0  0  0  0  0  0  0  0  0  0  0  0
   39.9020   24.4330   40.0980 H   0  0  0  0  0  0  0  0  0  0  0  0
   38.4610   23.9520   40.2250 H   0  0  0  0  0  0  0  0  0  0  0  0
   39.1620   32.9480   40.7920 C   0  0  0  0  0  0  0  0  0  0  0  0
   38.4270   34.0070   40.3300 C   0  0  0  0  0  0  0  0  0  0  0  0
   38.9890   35.2060   39.9410 C   0  0  0  0  0  0  0  0  0  0  0  0
   40.3740   35.2860   40.0450 C   0  0  0  0  0  0  0  0  0  0  0  0
   41.1220   34.2300   40.5070 C   0  0  0  0  0  0  0  0  0  0  0  0
   40.4930   33.0800   40.8720 N   0  0  0  0  0  0  0  0  0  0  0  0
   37.3630   33.8850   40.2730 H   0  0  0  0  0  0  0  0  0  0  0  0
   38.3630   36.0050   39.5860 H   0  0  0  0  0  0  0  0  0  0  0  0
   40.7870   36.2280   39.7370 H   0  0  0  0  0  0  0  0  0  0  0  0
   43.3760   33.8170   39.6060 C   0  0  0  0  0  0  0  0  0  0  0  0
   42.5630   34.3130   40.6150 C   0  0  0  0  0  0  0  0  0  0  0  0
   43.1870   34.8800   41.7040 C   0  0  0  0  0  0  0  0  0  0  0  0
   42.6350   35.2910   42.5350 H   0  0  0  0  0  0  0  0  0  0  0  0
   44.5570   34.9820   41.8520 C   0  0  0  0  0  0  0  0  0  0  0  0
   45.0230   35.4340   42.7220 H   0  0  0  0  0  0  0  0  0  0  0  0
   45.3750   34.5000   40.8730 C   0  0  0  0  0  3  0  0  0  0  0  0
   44.7630   33.9320   39.7770 C   0  0  0  0  0  3  0  0  0  0  0  0
   41.4980   32.5130   38.3710 H   0  0  0  0  0  0  0  0  0  0  0  0
   42.7400   33.0690   38.1590 S   0  0  0  0  0  0  0  0  0  0  0  0
   42.4950   34.1790   37.1430 O   0  0  0  0  0  0  0  0  0  0  0  0
   43.7040   32.0940   37.5410 O   0  0  0  0  0  0  0  0  0  0  0  0
  1  9  1  0  0  0  0
  2  7  1  0  0  0  0
  2  1  1  0  0  0  0
  3  2  2  0  0  0  0
  4  5  2  0  0  0  0
  4  3  1  0  0  0  0
  5  6  1  0  0  0  0
  6  1  2  0  0  0  0
  8  3  1  0  0  0  0
  9 15  1  1  0  0  0
 10 17  1  0  0  0  0
 10  9  1  0  0  0  0
 10 11  1  0  0  0  0
 11 12  1  0  0  0  0
 11 18  1  0  0  0  0
 12 13  1  0  0  0  0
 12 20  1  0  0  0  0
 13 22  1  0  0  0  0
 14 24  1  1  0  0  0
 14  9  1  0  0  0  0
 14 13  1  0  0  0  0
 16 10  1  0  0  0  0
 19 11  1  0  0  0  0
 21 12  1  0  0  0  0
 23 13  1  0  0  0  0
 25 14  1  0  0  0  0
 26 25  1  0  0  0  0
 27 26  2  0  0  0  0
 28 26  1  0  0  0  0
 29 25  1  0  0  0  0
 30 28  1  0  0  0  0
 31 28  1  0  0  0  0
 32 37  1  0  0  0  0
 32  5  1  0  0  0  0
 33 32  2  0  0  0  0
 34 35  2  0  0  0  0
 34 33  1  0  0  0  0
 35 36  1  0  0  0  0
 36 42  1  0  0  0  0
 36 37  2  0  0  0  0
 38 33  1  0  0  0  0
 39 34  1  0  0  0  0
 40 35  1  0  0  0  0
 41 48  2  0  0  0  0
 41 42  1  0  0  0  0
 42 43  2  0  0  0  0
 43 45  1  0  0  0  0
 43 44  1  0  0  0  0
 45 46  1  0  0  0  0
 47 45  2  0  0  0  0
 48 47  1  0  0  0  0
 50 49  1  0  0  0  0
 50 41  1  0  0  0  0
 51 50  2  0  0  0  0
 52 50  2  0  0  0  0
M  END
>  <minimizedAffinity>
-7.0394125

$$$$

 OpenBabel03252507343D

 52 55  0  0  1  0  0  0  0  0999 V2000
   41.4370   30.6980   41.3540 C   0  0  0  0  0  0  0  0  0  0  0  0
   42.5940   30.2970   42.0080 C   0  0  0  0  0  0  0  0  0  0  0  0
   42.5540   29.1870   42.8830 C   0  0  0  0  0  0  0  0  0  0  0  0
   41.3200   28.5600   43.0320 N   0  0  0  0  0  0  0  0  0  0  0  0
   40.2410   28.9990   42.3730 C   0  0  0  0  0  0  0  0  0  0  0  0
   40.2970   30.0460   41.5490 N   0  0  0  0  0  0  0  0  0  0  0  0
   43.6060   30.6380   42.0710 H   0  0  0  0  0  0  0  0  0  0  0  0
   43.3210   28.7420   43.4570 H   0  0  0  0  0  0  0  0  0  0  0  0
   41.5370   31.8260   40.4510 C   0  0  2  0  0  0  0  0  0  0  0  0
   41.8500   33.1470   41.2190 C   0  0  0  0  0  0  0  0  0  0  0  0
   42.1070   34.2380   40.2380 C   0  0  0  0  0  0  0  0  0  0  0  0
   41.1540   34.3240   39.0920 C   0  0  0  0  0  0  0  0  0  0  0  0
   40.7250   33.0480   38.5770 C   0  0  0  0  0  0  0  0  0  0  0  0
   40.3340   32.0310   39.6710 C   0  0  2  0  0  0  0  0  0  0  0  0
   42.4400   31.7010   39.8170 H   0  0  0  0  0  0  0  0  0  0  0  0
   41.0750   33.3460   41.9650 H   0  0  0  0  0  0  0  0  0  0  0  0
   42.7760   32.9070   41.7820 H   0  0  0  0  0  0  0  0  0  0  0  0
   43.1830   34.1790   39.9830 H   0  0  0  0  0  0  0  0  0  0  0  0
   42.0110   35.2070   40.8090 H   0  0  0  0  0  0  0  0  0  0  0  0
   41.9070   34.6190   38.2550 H   0  0  0  0  0  0  0  0  0  0  0  0
   40.5760   35.2410   38.9720 H   0  0  0  0  0  0  0  0  0  0  0  0
   41.4100   32.4780   37.9020 H   0  0  0  0  0  0  0  0  0  0  0  0
   39.7780   33.1740   37.9760 H   0  0  0  0  0  0  0  0  0  0  0  0
   39.9930   31.1920   39.0630 H   0  0  0  0  0  0  0  0  0  0  0  0
   39.2910   32.6300   40.5060 N   0  0  0  0  0  0  0  0  0  0  0  0
   37.8890   32.5390   40.4600 C   0  0  0  0  0  0  0  0  0  0  0  0
   37.2420   31.5140   40.8840 O   0  0  0  0  0  0  0  0  0  0  0  0
   37.2340   33.6810   39.9110 N   0  0  0  0  0  0  0  0  0  0  0  0
   39.5270   33.3400   41.2990 H   0  0  0  0  0  0  0  0  0  0  0  0
   37.2920   34.6420   40.3080 H   0  0  0  0  0  0  0  0  0  0  0  0
   36.6060   33.9760   39.1210 H   0  0  0  0  0  0  0  0  0  0  0  0
   38.9660   28.3080   42.5910 C   0  0  0  0  0  0  0  0  0  0  0  0
   38.2010   28.5600   43.6980 C   0  0  0  0  0  0  0  0  0  0  0  0
   36.9960   27.9330   43.9430 C   0  0  0  0  0  0  0  0  0  0  0  0
   36.5890   27.0100   42.9850 C   0  0  0  0  0  0  0  0  0  0  0  0
   37.3490   26.7490   41.8700 C   0  0  0  0  0  0  0  0  0  0  0  0
   38.5250   27.4090   41.7000 N   0  0  0  0  0  0  0  0  0  0  0  0
   38.5670   29.2820   44.4010 H   0  0  0  0  0  0  0  0  0  0  0  0
   36.4360   28.1690   44.8300 H   0  0  0  0  0  0  0  0  0  0  0  0
   35.6500   26.5360   43.1990 H   0  0  0  0  0  0  0  0  0  0  0  0
   36.4780   26.2130   39.6310 C   0  0  0  0  0  0  0  0  0  0  0  0
   36.9250   25.7890   40.8740 C   0  0  0  0  0  0  0  0  0  0  0  0
   36.9420   24.4320   41.1060 C   0  0  0  0  0  0  0  0  0  0  0  0
   37.2740   24.0120   42.0440 H   0  0  0  0  0  0  0  0  0  0  0  0
   36.5480   23.4780   40.1870 C   0  0  0  0  0  0  0  0  0  0  0  0
   36.5720   22.4130   40.3970 H   0  0  0  0  0  0  0  0  0  0  0  0
   36.1050   23.8720   38.9600 C   0  0  0  0  0  3  0  0  0  0  0  0
   36.0830   25.2280   38.7140 C   0  0  0  0  0  3  0  0  0  0  0  0
   37.5950   28.5460   39.3830 H   0  0  0  0  0  0  0  0  0  0  0  0
   36.3960   27.9000   39.1800 S   0  0  0  0  0  0  0  0  0  0  0  0
   36.1780   27.9590   37.6720 O   0  0  0  0  0  0  0  0  0  0  0  0
   35.2440   28.6160   39.8310 O   0  0  0  0  0  0  0  0  0  0  0  0
  1  6  2  0  0  0  0
  1  2  1  0  0  0  0
  2  7  1  0  0  0  0
  2  3  2  0  0  0  0
  3  4  1  0  0  0  0
  3  8  1  0  0  0  0
  5 32  1  0  0  0  0
  5  4  2  0  0  0  0
  6  5  1  0  0  0  0
  9 15  1  6  0  0  0
  9 10  1  0  0  0  0
  9  1  1  0  0  0  0
 10 17  1  0  0  0  0
 10 16  1  0  0  0  0
 11 19  1  0  0  0  0
 11 10  1  0  0  0  0
 12 11  1  0  0  0  0
 13 12  1  0  0  0  0
 13 14  1  0  0  0  0
 14 24  1  6  0  0  0
 14  9  1  0  0  0  0
 14 25  1  0  0  0  0
 18 11  1  0  0  0  0
 20 12  1  0  0  0  0
 21 12  1  0  0  0  0
 22 13  1  0  0  0  0
 23 13  1  0  0  0  0
 25 29  1  0  0  0  0
 26 25  1  0  0  0  0
 26 27  2  0  0  0  0
 28 30  1  0  0  0  0
 28 26  1  0  0  0  0
 31 28  1  0  0  0  0
 32 33  1  0  0  0  0
 33 34  2  0  0  0  0
 33 38  1  0  0  0  0
 34 39  1  0  0  0  0
 35 40  1  0  0  0  0
 35 34  1  0  0  0  0
 36 35  2  0  0  0  0
 37 36  1  0  0  0  0
 37 32  2  0  0  0  0
 41 42  1  0  0  0  0
 42 43  2  0  0  0  0
 42 36  1  0  0  0  0
 43 44  1  0  0  0  0
 45 46  1  0  0  0  0
 45 43  1  0  0  0  0
 47 45  2  0  0  0  0
 48 47  1  0  0  0  0
 48 41  2  0  0  0  0
 50 49  1  0  0  0  0
 50 41  1  0  0  0  0
 50 52  2  0  0  0  0
 51 50  2  0  0  0  0
M  END
>  <minimizedAffinity>
-6.73226786

$$$$

 OpenBabel03252507343D

 52 55  0  0  1  0  0  0  0  0999 V2000
   37.8960   27.2110   41.7760 C   0  0  0  0  0  0  0  0  0  0  0  0
   37.5350   27.2130   43.1170 C   0  0  0  0  0  0  0  0  0  0  0  0
   37.3820   28.4430   43.7980 C   0  0  0  0  0  0  0  0  0  0  0  0
   37.6140   29.5960   43.0540 N   0  0  0  0  0  0  0  0  0  0  0  0
   37.9630   29.5240   41.7640 C   0  0  0  0  0  0  0  0  0  0  0  0
   38.1000   28.3560   41.1360 N   0  0  0  0  0  0  0  0  0  0  0  0
   37.3480   26.4760   43.8700 H   0  0  0  0  0  0  0  0  0  0  0  0
   37.1140   28.6380   44.8010 H   0  0  0  0  0  0  0  0  0  0  0  0
   38.0170   25.9260   41.1190 C   0  0  2  0  0  0  0  0  0  0  0  0
   37.2430   24.8140   41.8910 C   0  0  0  0  0  0  0  0  0  0  0  0
   37.2590   23.5570   41.0920 C   0  0  0  0  0  0  0  0  0  0  0  0
   38.5730   23.1820   40.4910 C   0  0  0  0  0  0  0  0  0  0  0  0
   39.3430   24.2970   40.0000 C   0  0  0  0  0  0  0  0  0  0  0  0
   39.3930   25.4980   40.9700 C   0  0  2  0  0  0  0  0  0  0  0  0
   37.4750   25.9630   40.1520 H   0  0  0  0  0  0  0  0  0  0  0  0
   37.6140   24.7340   42.9170 H   0  0  0  0  0  0  0  0  0  0  0  0
   36.2110   25.2160   41.9600 H   0  0  0  0  0  0  0  0  0  0  0  0
   36.3980   23.6190   40.3990 H   0  0  0  0  0  0  0  0  0  0  0  0
   36.9820   22.7250   41.8040 H   0  0  0  0  0  0  0  0  0  0  0  0
   38.1910   22.7590   39.4760 H   0  0  0  0  0  0  0  0  0  0  0  0
   39.0190   22.2300   40.7830 H   0  0  0  0  0  0  0  0  0  0  0  0
   39.0760   24.7490   39.0140 H   0  0  0  0  0  0  0  0  0  0  0  0
   40.4260   23.9980   39.8880 H   0  0  0  0  0  0  0  0  0  0  0  0
   40.0620   26.1710   40.4330 H   0  0  0  0  0  0  0  0  0  0  0  0
   39.9160   25.0320   42.2560 N   0  0  0  0  0  0  0  0  0  0  0  0
   40.9600   25.5060   43.0680 C   0  0  0  0  0  0  0  0  0  0  0  0
   40.8480   26.5470   43.8120 O   0  0  0  0  0  0  0  0  0  0  0  0
   42.1600   24.7360   43.0080 N   0  0  0  0  0  0  0  0  0  0  0  0
   39.5420   24.1260   42.7340 H   0  0  0  0  0  0  0  0  0  0  0  0
   42.2300   23.7320   43.2740 H   0  0  0  0  0  0  0  0  0  0  0  0
   43.1770   24.8070   42.7540 H   0  0  0  0  0  0  0  0  0  0  0  0
   38.2150   30.7760   41.0430 C   0  0  0  0  0  0  0  0  0  0  0  0
   37.1880   31.5140   40.5170 C   0  0  0  0  0  0  0  0  0  0  0  0
   37.3800   32.6960   39.8320 C   0  0  0  0  0  0  0  0  0  0  0  0
   38.7010   33.1110   39.7000 C   0  0  0  0  0  0  0  0  0  0  0  0
   39.7400   32.3790   40.2230 C   0  0  0  0  0  0  0  0  0  0  0  0
   39.4690   31.2230   40.8870 N   0  0  0  0  0  0  0  0  0  0  0  0
   36.1910   31.1420   40.6520 H   0  0  0  0  0  0  0  0  0  0  0  0
   36.5360   33.2350   39.4390 H   0  0  0  0  0  0  0  0  0  0  0  0
   38.8230   34.0320   39.1630 H   0  0  0  0  0  0  0  0  0  0  0  0
   41.9510   32.2140   39.1540 C   0  0  0  0  0  0  0  0  0  0  0  0
   41.1140   32.8110   40.0860 C   0  0  0  0  0  0  0  0  0  0  0  0
   41.6500   33.8170   40.8580 C   0  0  0  0  0  0  0  0  0  0  0  0
   41.0720   34.3370   41.6080 H   0  0  0  0  0  0  0  0  0  0  0  0
   42.9540   34.2630   40.7640 C   0  0  0  0  0  0  0  0  0  0  0  0
   43.3500   35.0590   41.3860 H   0  0  0  0  0  0  0  0  0  0  0  0
   43.7940   33.6910   39.8550 C   0  0  0  0  0  3  0  0  0  0  0  0
   43.2700   32.6830   39.0740 C   0  0  0  0  0  3  0  0  0  0  0  0
   40.0550   30.9070   37.9510 H   0  0  0  0  0  0  0  0  0  0  0  0
   41.4240   30.9250   38.0970 S   0  0  0  0  0  0  0  0  0  0  0  0
   41.9550   31.2340   36.7010 O   0  0  0  0  0  0  0  0  0  0  0  0
   41.9730   29.5850   38.5030 O   0  0  0  0  0  0  0  0  0  0  0  0
  1  2  1  0  0  0  0
  2  3  2  0  0  0  0
  2  7  1  0  0  0  0
  3  8  1  0  0  0  0
  4  3  1  0  0  0  0
  5  4  2  0  0  0  0
  6  5  1  0  0  0  0
  6  1  2  0  0  0  0
  9 15  1  6  0  0  0
  9  1  1  0  0  0  0
  9 10  1  0  0  0  0
 10 17  1  0  0  0  0
 10 16  1  0  0  0  0
 11 19  1  0  0  0  0
 11 10  1  0  0  0  0
 12 21  1  0  0  0  0
 12 11  1  0  0  0  0
 13 12  1  0  0  0  0
 13 14  1  0  0  0  0
 14 24  1  6  0  0  0
 14  9  1  0  0  0  0
 14 25  1  0  0  0  0
 18 11  1  0  0  0  0
 20 12  1  0  0  0  0
 22 13  1  0  0  0  0
 23 13  1  0  0  0  0
 25 29  1  0  0  0  0
 25 26  1  0  0  0  0
 26 27  2  0  0  0  0
 28 26  1  0  0  0  0
 28 30  1  0  0  0  0
 31 28  1  0  0  0  0
 32  5  1  0  0  0  0
 33 38  1  0  0  0  0
 33 32  2  0  0  0  0
 34 33  1  0  0  0  0
 35 34  2  0  0  0  0
 35 36  1  0  0  0  0
 36 37  2  0  0  0  0
 37 32  1  0  0  0  0
 39 34  1  0  0  0  0
 40 35  1  0  0  0  0
 41 42  1  0  0  0  0
 42 36  1  0  0  0  0
 42 43  2  0  0  0  0
 43 44  1  0  0  0  0
 45 43  1  0  0  0  0
 45 46  1  0  0  0  0
 47 45  2  0  0  0  0
 48 41  2  0  0  0  0
 48 47  1  0  0  0  0
 49 50  1  0  0  0  0
 50 52  2  0  0  0  0
 50 41  1  0  0  0  0
 51 50  2  0  0  0  0
M  END
>  <minimizedAffinity>
-6.71990967

$$$$

 OpenBabel03252507343D

 52 55  0  0  1  0  0  0  0  0999 V2000
   37.7650   26.9360   41.4930 C   0  0  0  0  0  0  0  0  0  0  0  0
   37.3070   26.9490   42.8040 C   0  0  0  0  0  0  0  0  0  0  0  0
   37.0710   28.1840   43.4500 C   0  0  0  0  0  0  0  0  0  0  0  0
   37.3240   29.3310   42.7040 N   0  0  0  0  0  0  0  0  0  0  0  0
   37.7680   29.2490   41.4440 C   0  0  0  0  0  0  0  0  0  0  0  0
   37.9840   28.0760   40.8480 N   0  0  0  0  0  0  0  0  0  0  0  0
   37.0870   26.2190   43.5550 H   0  0  0  0  0  0  0  0  0  0  0  0
   36.7250   28.3870   44.4270 H   0  0  0  0  0  0  0  0  0  0  0  0
   37.9700   25.6440   40.8700 C   0  0  2  0  0  0  0  0  0  0  0  0
   37.2180   24.5140   41.6370 C   0  0  0  0  0  0  0  0  0  0  0  0
   37.3220   23.2430   40.8670 C   0  0  0  0  0  0  0  0  0  0  0  0
   38.6750   22.9160   40.3260 C   0  0  0  0  0  0  0  0  0  0  0  0
   39.4120   24.0550   39.8390 C   0  0  0  0  0  0  0  0  0  0  0  0
   39.3690   25.2770   40.7830 C   0  0  2  0  0  0  0  0  0  0  0  0
   37.4650   25.6360   39.8820 H   0  0  0  0  0  0  0  0  0  0  0  0
   37.5520   24.4720   42.6780 H   0  0  0  0  0  0  0  0  0  0  0  0
   36.1670   24.8680   41.6580 H   0  0  0  0  0  0  0  0  0  0  0  0
   36.4870   23.2500   40.1410 H   0  0  0  0  0  0  0  0  0  0  0  0
   37.0570   22.4140   41.5870 H   0  0  0  0  0  0  0  0  0  0  0  0
   38.3520   22.4560   39.3060 H   0  0  0  0  0  0  0  0  0  0  0  0
   39.1520   21.9930   40.6550 H   0  0  0  0  0  0  0  0  0  0  0  0
   39.1630   24.4750   38.8340 H   0  0  0  0  0  0  0  0  0  0  0  0
   40.5100   23.8040   39.7750 H   0  0  0  0  0  0  0  0  0  0  0  0
   40.0270   25.9700   40.2560 H   0  0  0  0  0  0  0  0  0  0  0  0
   39.8620   24.8620   42.0980 N   0  0  0  0  0  0  0  0  0  0  0  0
   40.8080   25.4350   42.9650 C   0  0  0  0  0  0  0  0  0  0  0  0
   40.5540   26.4590   43.6970 O   0  0  0  0  0  0  0  0  0  0  0  0
   42.0790   24.7860   42.9750 N   0  0  0  0  0  0  0  0  0  0  0  0
   39.5520   23.9240   42.5580 H   0  0  0  0  0  0  0  0  0  0  0  0
   42.2320   23.7930   43.2480 H   0  0  0  0  0  0  0  0  0  0  0  0
   43.0970   24.9550   42.7770 H   0  0  0  0  0  0  0  0  0  0  0  0
   38.0370   30.4960   40.7210 C   0  0  0  0  0  0  0  0  0  0  0  0
   37.1140   31.5060   40.6760 C   0  0  0  0  0  0  0  0  0  0  0  0
   37.3250   32.6950   40.0080 C   0  0  0  0  0  0  0  0  0  0  0  0
   38.5520   32.8180   39.3670 C   0  0  0  0  0  0  0  0  0  0  0  0
   39.4870   31.8110   39.4040 C   0  0  0  0  0  0  0  0  0  0  0  0
   39.2040   30.6690   40.0860 N   0  0  0  0  0  0  0  0  0  0  0  0
   36.1850   31.3520   41.1900 H   0  0  0  0  0  0  0  0  0  0  0  0
   36.5630   33.4550   40.0050 H   0  0  0  0  0  0  0  0  0  0  0  0
   38.6920   33.7510   38.8540 H   0  0  0  0  0  0  0  0  0  0  0  0
   41.7940   32.6670   39.3190 C   0  0  0  0  0  0  0  0  0  0  0  0
   40.7650   31.9400   38.7370 C   0  0  0  0  0  0  0  0  0  0  0  0
   41.0190   31.3590   37.5150 C   0  0  0  0  0  0  0  0  0  0  0  0
   40.2770   30.7760   36.9890 H   0  0  0  0  0  0  0  0  0  0  0  0
   42.2200   31.4540   36.8400 C   0  0  0  0  0  0  0  0  0  0  0  0
   42.3930   30.9850   35.8760 H   0  0  0  0  0  0  0  0  0  0  0  0
   43.2450   32.1630   37.3920 C   0  0  0  0  0  3  0  0  0  0  0  0
   43.0050   32.7490   38.6170 C   0  0  0  0  0  3  0  0  0  0  0  0
   40.8280   32.7550   41.7290 H   0  0  0  0  0  0  0  0  0  0  0  0
   41.6330   33.4640   40.8660 S   0  0  0  0  0  0  0  0  0  0  0  0
   43.0070   33.4560   41.5280 O   0  0  0  0  0  0  0  0  0  0  0  0
   41.2030   34.8990   40.7340 O   0  0  0  0  0  0  0  0  0  0  0  0
  1  2  1  0  0  0  0
  2  3  2  0  0  0  0
  2  7  1  0  0  0  0
  3  8  1  0  0  0  0
  4  3  1  0  0  0  0
  5  4  2  0  0  0  0
  6  5  1  0  0  0  0
  6  1  2  0  0  0  0
  9 15  1  6  0  0  0
  9  1  1  0  0  0  0
  9 10  1  0  0  0  0
 10 17  1  0  0  0  0
 10 16  1  0  0  0  0
 11 19  1  0  0  0  0
 11 10  1  0  0  0  0
 12 21  1  0  0  0  0
 12 11  1  0  0  0  0
 13 12  1  0  0  0  0
 13 14  1  0  0  0  0
 14 24  1  6  0  0  0
 14  9  1  0  0  0  0
 14 25  1  0  0  0  0
 18 11  1  0  0  0  0
 20 12  1  0  0  0  0
 22 13  1  0  0  0  0
 23 13  1  0  0  0  0
 25 29  1  0  0  0  0
 25 26  1  0  0  0  0
 26 28  1  0  0  0  0
 26 27  2  0  0  0  0
 28 30  1  0  0  0  0
 31 28  1  0  0  0  0
 32  5  1  0  0  0  0
 33 32  1  0  0  0  0
 33 38  1  0  0  0  0
 34 33  2  0  0  0  0
 35 36  2  0  0  0  0
 35 34  1  0  0  0  0
 36 37  1  0  0  0  0
 37 32  2  0  0  0  0
 39 34  1  0  0  0  0
 40 35  1  0  0  0  0
 41 50  1  0  0  0  0
 42 41  1  0  0  0  0
 42 36  1  0  0  0  0
 43 42  2  0  0  0  0
 44 43  1  0  0  0  0
 45 47  2  0  0  0  0
 45 43  1  0  0  0  0
 46 45  1  0  0  0  0
 47 48  1  0  0  0  0
 48 41  2  0  0  0  0
 50 51  2  0  0  0  0
 50 49  1  0  0  0  0
 52 50  2  0  0  0  0
M  END
>  <minimizedAffinity>
-6.71798372

$$$$

 OpenBabel03252507343D

 52 55  0  0  1  0  0  0  0  0999 V2000
   38.1980   31.6550   40.8990 C   0  0  0  0  0  0  0  0  0  0  0  0
   36.8530   31.6850   40.5560 C   0  0  0  0  0  0  0  0  0  0  0  0
   36.0870   30.4980   40.6240 C   0  0  0  0  0  0  0  0  0  0  0  0
   36.7580   29.3510   41.0390 N   0  0  0  0  0  0  0  0  0  0  0  0
   38.0590   29.3900   41.3530 C   0  0  0  0  0  0  0  0  0  0  0  0
   38.7650   30.5190   41.2870 N   0  0  0  0  0  0  0  0  0  0  0  0
   36.1630   32.4160   40.1890 H   0  0  0  0  0  0  0  0  0  0  0  0
   35.0670   30.3310   40.4070 H   0  0  0  0  0  0  0  0  0  0  0  0
   38.9310   32.9030   40.8350 C   0  0  2  0  0  0  0  0  0  0  0  0
   38.1530   33.9820   40.0210 C   0  0  0  0  0  0  0  0  0  0  0  0
   38.8660   35.2860   40.1250 C   0  0  0  0  0  0  0  0  0  0  0  0
   40.3480   35.2360   39.9500 C   0  0  0  0  0  0  0  0  0  0  0  0
   40.9780   34.0800   40.5370 C   0  0  0  0  0  0  0  0  0  0  0  0
   40.2460   32.7530   40.2450 C   0  0  2  0  0  0  0  0  0  0  0  0
   38.9680   33.3520   41.8490 H   0  0  0  0  0  0  0  0  0  0  0  0
   37.9550   33.6240   39.0060 H   0  0  0  0  0  0  0  0  0  0  0  0
   37.1710   34.0360   40.5340 H   0  0  0  0  0  0  0  0  0  0  0  0
   38.4930   35.7710   41.0480 H   0  0  0  0  0  0  0  0  0  0  0  0
   38.4660   35.9330   39.2910 H   0  0  0  0  0  0  0  0  0  0  0  0
   40.6480   36.0340   40.7430 H   0  0  0  0  0  0  0  0  0  0  0  0
   40.7880   35.8040   39.1300 H   0  0  0  0  0  0  0  0  0  0  0  0
   41.1560   34.0600   41.6400 H   0  0  0  0  0  0  0  0  0  0  0  0
   42.0010   33.9280   40.0850 H   0  0  0  0  0  0  0  0  0  0  0  0
   40.9180   32.0350   40.7180 H   0  0  0  0  0  0  0  0  0  0  0  0
   40.1300   32.5990   38.7930 N   0  0  0  0  0  0  0  0  0  0  0  0
   41.0600   32.2040   37.8170 C   0  0  0  0  0  0  0  0  0  0  0  0
   41.4020   30.9800   37.6340 O   0  0  0  0  0  0  0  0  0  0  0  0
   41.5950   33.2710   37.0350 N   0  0  0  0  0  0  0  0  0  0  0  0
   39.2190   32.8700   38.2580 H   0  0  0  0  0  0  0  0  0  0  0  0
   41.0290   33.9010   36.4310 H   0  0  0  0  0  0  0  0  0  0  0  0
   42.5010   33.7480   36.7940 H   0  0  0  0  0  0  0  0  0  0  0  0
   38.7110   28.1430   41.7620 C   0  0  0  0  0  0  0  0  0  0  0  0
   39.1030   27.9360   43.0580 C   0  0  0  0  0  0  0  0  0  0  0  0
   39.7200   26.7780   43.4860 C   0  0  0  0  0  0  0  0  0  0  0  0
   39.9280   25.8080   42.5110 C   0  0  0  0  0  0  0  0  0  0  0  0
   39.5390   26.0040   41.2070 C   0  0  0  0  0  0  0  0  0  0  0  0
   38.9360   27.1740   40.8640 N   0  0  0  0  0  0  0  0  0  0  0  0
   38.9150   28.7210   43.7640 H   0  0  0  0  0  0  0  0  0  0  0  0
   40.0080   26.6690   44.5170 H   0  0  0  0  0  0  0  0  0  0  0  0
   40.4100   24.9180   42.8690 H   0  0  0  0  0  0  0  0  0  0  0  0
   38.7210   24.1610   39.7960 C   0  0  0  0  0  0  0  0  0  0  0  0
   39.7560   24.9950   40.1940 C   0  0  0  0  0  0  0  0  0  0  0  0
   40.9770   24.8140   39.5840 C   0  0  0  0  0  0  0  0  0  0  0  0
   41.8390   25.4170   39.8310 H   0  0  0  0  0  0  0  0  0  0  0  0
   41.2320   23.8660   38.6120 C   0  0  0  0  0  0  0  0  0  0  0  0
   42.2060   23.7450   38.1480 H   0  0  0  0  0  0  0  0  0  0  0  0
   40.2300   23.0350   38.2070 C   0  0  0  0  0  3  0  0  0  0  0  0
   39.0020   23.2060   38.8080 C   0  0  0  0  0  3  0  0  0  0  0  0
   36.5250   25.4830   40.2250 H   0  0  0  0  0  0  0  0  0  0  0  0
   37.1110   24.2620   40.4710 S   0  0  0  0  0  0  0  0  0  0  0  0
   36.2400   23.2590   39.7240 O   0  0  0  0  0  0  0  0  0  0  0  0
   37.0730   23.8950   41.9300 O   0  0  0  0  0  0  0  0  0  0  0  0
  1  6  1  0  0  0  0
  2  3  1  0  0  0  0
  2  1  2  0  0  0  0
  3  4  2  0  0  0  0
  4  5  1  0  0  0  0
  5 32  1  0  0  0  0
  6  5  2  0  0  0  0
  7  2  1  0  0  0  0
  8  3  1  0  0  0  0
  9  1  1  0  0  0  0
  9 15  1  1  0  0  0
 10 11  1  0  0  0  0
 10 17  1  0  0  0  0
 10  9  1  0  0  0  0
 11 18  1  0  0  0  0
 12 11  1  0  0  0  0
 12 13  1  0  0  0  0
 12 20  1  0  0  0  0
 13 22  1  0  0  0  0
 14 13  1  0  0  0  0
 14 24  1  1  0  0  0
 14  9  1  0  0  0  0
 16 10  1  0  0  0  0
 19 11  1  0  0  0  0
 21 12  1  0  0  0  0
 23 13  1  0  0  0  0
 25 14  1  0  0  0  0
 26 25  1  0  0  0  0
 27 26  2  0  0  0  0
 28 26  1  0  0  0  0
 29 25  1  0  0  0  0
 30 28  1  0  0  0  0
 31 28  1  0  0  0  0
 32 33  1  0  0  0  0
 33 34  2  0  0  0  0
 33 38  1  0  0  0  0
 34 39  1  0  0  0  0
 35 40  1  0  0  0  0
 35 34  1  0  0  0  0
 36 35  2  0  0  0  0
 37 36  1  0  0  0  0
 37 32  2  0  0  0  0
 41 42  1  0  0  0  0
 41 50  1  0  0  0  0
 42 36  1  0  0  0  0
 43 44  1  0  0  0  0
 43 42  2  0  0  0  0
 45 43  1  0  0  0  0
 46 45  1  0  0  0  0
 47 45  2  0  0  0  0
 47 48  1  0  0  0  0
 48 41  2  0  0  0  0
 49 50  1  0  0  0  0
 50 52  2  0  0  0  0
 51 50  2  0  0  0  0
M  END
>  <minimizedAffinity>
-6.6973176

$$$$

 OpenBabel03252507343D

 52 55  0  0  1  0  0  0  0  0999 V2000
   38.5060   31.5710   39.0740 C   0  0  0  0  0  0  0  0  0  0  0  0
   37.5550   31.4710   38.0670 C   0  0  0  0  0  0  0  0  0  0  0  0
   36.6010   30.4280   38.1070 C   0  0  0  0  0  0  0  0  0  0  0  0
   36.6890   29.5500   39.1830 N   0  0  0  0  0  0  0  0  0  0  0  0
   37.6330   29.7010   40.1200 C   0  0  0  0  0  0  0  0  0  0  0  0
   38.5240   30.6920   40.0680 N   0  0  0  0  0  0  0  0  0  0  0  0
   37.3300   31.9910   37.1590 H   0  0  0  0  0  0  0  0  0  0  0  0
   35.8140   30.1980   37.4420 H   0  0  0  0  0  0  0  0  0  0  0  0
   39.4450   32.6710   38.9970 C   0  0  2  0  0  0  0  0  0  0  0  0
   40.6830   32.3070   38.1200 C   0  0  0  0  0  0  0  0  0  0  0  0
   41.5300   33.5180   37.9380 C   0  0  0  0  0  0  0  0  0  0  0  0
   41.7800   34.3320   39.1640 C   0  0  0  0  0  0  0  0  0  0  0  0
   40.6480   34.4350   40.0500 C   0  0  0  0  0  0  0  0  0  0  0  0
   39.9230   33.0940   40.2980 C   0  0  2  0  0  0  0  0  0  0  0  0
   38.9840   33.5000   38.4220 H   0  0  0  0  0  0  0  0  0  0  0  0
   41.1880   31.4240   38.5230 H   0  0  0  0  0  0  0  0  0  0  0  0
   40.2340   31.9990   37.1530 H   0  0  0  0  0  0  0  0  0  0  0  0
   41.1190   34.0560   37.0620 H   0  0  0  0  0  0  0  0  0  0  0  0
   42.5390   33.1490   37.5870 H   0  0  0  0  0  0  0  0  0  0  0  0
   41.7380   35.3920   38.6860 H   0  0  0  0  0  0  0  0  0  0  0  0
   42.8110   34.4610   39.4950 H   0  0  0  0  0  0  0  0  0  0  0  0
   39.8260   35.1510   39.8000 H   0  0  0  0  0  0  0  0  0  0  0  0
   40.9910   34.7490   41.0780 H   0  0  0  0  0  0  0  0  0  0  0  0
   39.1680   33.3970   41.0250 H   0  0  0  0  0  0  0  0  0  0  0  0
   40.8980   32.1310   40.8120 N   0  0  0  0  0  0  0  0  0  0  0  0
   41.2100   31.7240   42.1210 C   0  0  0  0  0  0  0  0  0  0  0  0
   40.4770   30.9100   42.7920 O   0  0  0  0  0  0  0  0  0  0  0  0
   42.4130   32.2800   42.6490 N   0  0  0  0  0  0  0  0  0  0  0  0
   41.6040   31.6220   40.1560 H   0  0  0  0  0  0  0  0  0  0  0  0
   43.3590   32.1390   42.2370 H   0  0  0  0  0  0  0  0  0  0  0  0
   42.7740   32.8830   43.4300 H   0  0  0  0  0  0  0  0  0  0  0  0
   37.6860   28.7280   41.2150 C   0  0  0  0  0  0  0  0  0  0  0  0
   36.5560   28.3680   41.9030 C   0  0  0  0  0  0  0  0  0  0  0  0
   36.5600   27.4580   42.9390 C   0  0  0  0  0  0  0  0  0  0  0  0
   37.7970   26.9100   43.2590 C   0  0  0  0  0  0  0  0  0  0  0  0
   38.9370   27.2630   42.5770 C   0  0  0  0  0  0  0  0  0  0  0  0
   38.8520   28.1680   41.5660 N   0  0  0  0  0  0  0  0  0  0  0  0
   35.6310   28.8250   41.6090 H   0  0  0  0  0  0  0  0  0  0  0  0
   35.6420   27.2130   43.4450 H   0  0  0  0  0  0  0  0  0  0  0  0
   37.7730   26.2060   44.0690 H   0  0  0  0  0  0  0  0  0  0  0  0
   40.7930   25.7150   42.1060 C   0  0  0  0  0  0  0  0  0  0  0  0
   40.2250   26.6930   42.9100 C   0  0  0  0  0  0  0  0  0  0  0  0
   40.9380   27.0850   44.0210 C   0  0  0  0  0  0  0  0  0  0  0  0
   40.5740   27.8390   44.7030 H   0  0  0  0  0  0  0  0  0  0  0  0
   42.1690   26.5710   44.3800 C   0  0  0  0  0  0  0  0  0  0  0  0
   42.7100   26.8980   45.2620 H   0  0  0  0  0  0  0  0  0  0  0  0
   42.7450   25.6090   43.6050 C   0  0  0  0  0  3  0  0  0  0  0  0
   42.0430   25.2080   42.4880 C   0  0  0  0  0  3  0  0  0  0  0  0
   39.3770   26.1100   39.9630 H   0  0  0  0  0  0  0  0  0  0  0  0
   40.0170   25.1100   40.6610 S   0  0  0  0  0  0  0  0  0  0  0  0
   41.1160   24.6280   39.7210 O   0  0  0  0  0  0  0  0  0  0  0  0
   39.1130   23.9400   40.9380 O   0  0  0  0  0  0  0  0  0  0  0  0
  1  6  1  0  0  0  0
  2  3  1  0  0  0  0
  2  1  2  0  0  0  0
  3  4  2  0  0  0  0
  4  5  1  0  0  0  0
  5 32  1  0  0  0  0
  6  5  2  0  0  0  0
  7  2  1  0  0  0  0
  8  3  1  0  0  0  0
  9 15  1  6  0  0  0
  9  1  1  0  0  0  0
  9 14  1  0  0  0  0
 10 16  1  0  0  0  0
 10  9  1  0  0  0  0
 11 10  1  0  0  0  0
 11 12  1  0  0  0  0
 12 21  1  0  0  0  0
 12 13  1  0  0  0  0
 13 14  1  0  0  0  0
 13 23  1  0  0  0  0
 14 25  1  0  0  0  0
 14 24  1  1  0  0  0
 17 10  1  0  0  0  0
 18 11  1  0  0  0  0
 19 11  1  0  0  0  0
 20 12  1  0  0  0  0
 22 13  1  0  0  0  0
 25 26  1  0  0  0  0
 26 28  1  0  0  0  0
 26 27  2  0  0  0  0
 28 31  1  0  0  0  0
 29 25  1  0  0  0  0
 30 28  1  0  0  0  0
 32 37  2  0  0  0  0
 32 33  1  0  0  0  0
 33 34  2  0  0  0  0
 34 35  1  0  0  0  0
 34 39  1  0  0  0  0
 35 40  1  0  0  0  0
 36 42  1  0  0  0  0
 36 35  2  0  0  0  0
 37 36  1  0  0  0  0
 38 33  1  0  0  0  0
 41 48  2  0  0  0  0
 41 42  1  0  0  0  0
 42 43  2  0  0  0  0
 43 45  1  0  0  0  0
 43 44  1  0  0  0  0
 45 46  1  0  0  0  0
 47 45  2  0  0  0  0
 48 47  1  0  0  0  0
 49 50  1  0  0  0  0
 50 52  2  0  0  0  0
 50 41  1  0  0  0  0
 51 50  2  0  0  0  0
M  END
>  <minimizedAffinity>
-6.66966915

$$$$

 OpenBabel03252507343D

 52 55  0  0  1  0  0  0  0  0999 V2000
   38.1760   31.6650   40.8340 C   0  0  0  0  0  0  0  0  0  0  0  0
   36.9140   31.8550   40.2870 C   0  0  0  0  0  0  0  0  0  0  0  0
   36.0040   30.7740   40.2360 C   0  0  0  0  0  0  0  0  0  0  0  0
   36.4540   29.5610   40.7500 N   0  0  0  0  0  0  0  0  0  0  0  0
   37.6850   29.4450   41.2620 C   0  0  0  0  0  0  0  0  0  0  0  0
   38.5300   30.4760   41.3050 N   0  0  0  0  0  0  0  0  0  0  0  0
   36.3860   32.6580   39.8170 H   0  0  0  0  0  0  0  0  0  0  0  0
   35.0160   30.7310   39.8640 H   0  0  0  0  0  0  0  0  0  0  0  0
   39.0610   32.8110   40.8840 C   0  0  2  0  0  0  0  0  0  0  0  0
   38.3400   34.1120   40.4160 C   0  0  0  0  0  0  0  0  0  0  0  0
   39.2350   35.2800   40.6430 C   0  0  0  0  0  0  0  0  0  0  0  0
   40.6580   35.1020   40.2270 C   0  0  0  0  0  0  0  0  0  0  0  0
   41.1940   33.7890   40.4840 C   0  0  0  0  0  0  0  0  0  0  0  0
   40.2500   32.6380   40.0740 C   0  0  2  0  0  0  0  0  0  0  0  0
   39.2970   33.0390   41.9440 H   0  0  0  0  0  0  0  0  0  0  0  0
   37.9580   33.9910   39.3980 H   0  0  0  0  0  0  0  0  0  0  0  0
   37.4520   34.1700   41.0800 H   0  0  0  0  0  0  0  0  0  0  0  0
   39.0620   35.6070   41.6860 H   0  0  0  0  0  0  0  0  0  0  0  0
   38.8210   36.1230   40.0160 H   0  0  0  0  0  0  0  0  0  0  0  0
   41.1720   35.6850   41.0950 H   0  0  0  0  0  0  0  0  0  0  0  0
   41.0600   35.7720   39.4660 H   0  0  0  0  0  0  0  0  0  0  0  0
   41.5140   33.5270   41.5220 H   0  0  0  0  0  0  0  0  0  0  0  0
   42.1150   33.6190   39.8540 H   0  0  0  0  0  0  0  0  0  0  0  0
   40.8730   31.7700   40.2940 H   0  0  0  0  0  0  0  0  0  0  0  0
   39.9190   32.7950   38.6560 N   0  0  0  0  0  0  0  0  0  0  0  0
   39.8630   31.8690   37.6010 C   0  0  0  0  0  0  0  0  0  0  0  0
   38.8900   31.0460   37.4450 O   0  0  0  0  0  0  0  0  0  0  0  0
   40.9730   31.9160   36.7060 N   0  0  0  0  0  0  0  0  0  0  0  0
   39.7220   33.7730   38.2170 H   0  0  0  0  0  0  0  0  0  0  0  0
   41.2390   32.7480   36.1390 H   0  0  0  0  0  0  0  0  0  0  0  0
   41.7640   31.3310   36.3350 H   0  0  0  0  0  0  0  0  0  0  0  0
   38.1050   28.1340   41.7670 C   0  0  0  0  0  0  0  0  0  0  0  0
   37.2120   27.1040   41.9030 C   0  0  0  0  0  0  0  0  0  0  0  0
   37.5640   25.8560   42.3740 C   0  0  0  0  0  0  0  0  0  0  0  0
   38.9030   25.6920   42.7120 C   0  0  0  0  0  0  0  0  0  0  0  0
   39.8080   26.7180   42.5810 C   0  0  0  0  0  0  0  0  0  0  0  0
   39.3830   27.9200   42.1080 N   0  0  0  0  0  0  0  0  0  0  0  0
   36.1930   27.2910   41.6260 H   0  0  0  0  0  0  0  0  0  0  0  0
   36.8200   25.0830   42.4600 H   0  0  0  0  0  0  0  0  0  0  0  0
   39.1500   24.7130   43.0760 H   0  0  0  0  0  0  0  0  0  0  0  0
   42.1460   26.2680   41.9550 C   0  0  0  0  0  0  0  0  0  0  0  0
   41.2010   26.5470   42.9320 C   0  0  0  0  0  0  0  0  0  0  0  0
   41.6510   26.6510   44.2300 C   0  0  0  0  0  0  0  0  0  0  0  0
   40.9860   26.8650   45.0540 H   0  0  0  0  0  0  0  0  0  0  0  0
   42.9680   26.4960   44.6140 C   0  0  0  0  0  0  0  0  0  0  0  0
   43.2950   26.5830   45.6450 H   0  0  0  0  0  0  0  0  0  0  0  0
   43.9140   26.2210   43.6710 C   0  0  0  0  0  3  0  0  0  0  0  0
   43.4780   26.1150   42.3670 C   0  0  0  0  0  3  0  0  0  0  0  0
   40.8270   27.0560   39.8600 H   0  0  0  0  0  0  0  0  0  0  0  0
   41.7380   26.1060   40.2630 S   0  0  0  0  0  0  0  0  0  0  0  0
   42.9970   26.4150   39.4590 O   0  0  0  0  0  0  0  0  0  0  0  0
   41.3050   24.7100   39.9050 O   0  0  0  0  0  0  0  0  0  0  0  0
  1  9  1  0  0  0  0
  1  6  1  0  0  0  0
  2  1  2  0  0  0  0
  3  2  1  0  0  0  0
  3  4  2  0  0  0  0
  4  5  1  0  0  0  0
  5  6  2  0  0  0  0
  5 32  1  0  0  0  0
  7  2  1  0  0  0  0
  8  3  1  0  0  0  0
  9 15  1  1  0  0  0
 10 11  1  0  0  0  0
 10  9  1  0  0  0  0
 10 17  1  0  0  0  0
 11 18  1  0  0  0  0
 12 13  1  0  0  0  0
 12 11  1  0  0  0  0
 12 20  1  0  0  0  0
 13 22  1  0  0  0  0
 14 24  1  1  0  0  0
 14 13  1  0  0  0  0
 14  9  1  0  0  0  0
 16 10  1  0  0  0  0
 19 11  1  0  0  0  0
 21 12  1  0  0  0  0
 23 13  1  0  0  0  0
 25 14  1  0  0  0  0
 26 25  1  0  0  0  0
 27 26  2  0  0  0  0
 28 26  1  0  0  0  0
 29 25  1  0  0  0  0
 30 28  1  0  0  0  0
 31 28  1  0  0  0  0
 32 33  2  0  0  0  0
 32 37  1  0  0  0  0
 33 34  1  0  0  0  0
 34 39  1  0  0  0  0
 34 35  2  0  0  0  0
 35 40  1  0  0  0  0
 36 35  1  0  0  0  0
 36 42  1  0  0  0  0
 37 36  2  0  0  0  0
 38 33  1  0  0  0  0
 41 48  2  0  0  0  0
 41 42  1  0  0  0  0
 42 43  2  0  0  0  0
 43 45  1  0  0  0  0
 43 44  1  0  0  0  0
 45 46  1  0  0  0  0
 47 45  2  0  0  0  0
 48 47  1  0  0  0  0
 49 50  1  0  0  0  0
 50 41  1  0  0  0  0
 51 50  2  0  0  0  0
 52 50  2  0  0  0  0
M  END
>  <minimizedAffinity>
-6.62983847

$$$$

 OpenBabel03252507343D

 52 55  0  0  1  0  0  0  0  0999 V2000
   37.6060   29.6480   40.5650 C   0  0  0  0  0  0  0  0  0  0  0  0
   36.7080   29.4390   39.5280 C   0  0  0  0  0  0  0  0  0  0  0  0
   36.5720   30.4140   38.5120 C   0  0  0  0  0  0  0  0  0  0  0  0
   37.3710   31.5470   38.6320 N   0  0  0  0  0  0  0  0  0  0  0  0
   38.2160   31.6890   39.6600 C   0  0  0  0  0  0  0  0  0  0  0  0
   38.3340   30.7580   40.6080 N   0  0  0  0  0  0  0  0  0  0  0  0
   35.9920   28.6890   39.2620 H   0  0  0  0  0  0  0  0  0  0  0  0
   35.9520   30.4260   37.6580 H   0  0  0  0  0  0  0  0  0  0  0  0
   37.7230   28.6090   41.5670 C   0  0  2  0  0  0  0  0  0  0  0  0
   37.3690   29.1420   42.9890 C   0  0  0  0  0  0  0  0  0  0  0  0
   37.3420   28.0040   43.9500 C   0  0  0  0  0  0  0  0  0  0  0  0
   38.4740   27.0360   43.8470 C   0  0  0  0  0  0  0  0  0  0  0  0
   38.9030   26.7630   42.4980 C   0  0  0  0  0  0  0  0  0  0  0  0
   39.0480   28.0250   41.6210 C   0  0  2  0  0  0  0  0  0  0  0  0
   36.9310   27.8510   41.3950 H   0  0  0  0  0  0  0  0  0  0  0  0
   38.0230   29.9790   43.2560 H   0  0  0  0  0  0  0  0  0  0  0  0
   36.3510   29.5650   42.8620 H   0  0  0  0  0  0  0  0  0  0  0  0
   36.3210   27.5790   43.8990 H   0  0  0  0  0  0  0  0  0  0  0  0
   37.4030   28.4590   44.9820 H   0  0  0  0  0  0  0  0  0  0  0  0
   37.8870   26.0520   44.0570 H   0  0  0  0  0  0  0  0  0  0  0  0
   39.1180   26.9020   44.7160 H   0  0  0  0  0  0  0  0  0  0  0  0
   38.3050   26.0580   41.8700 H   0  0  0  0  0  0  0  0  0  0  0  0
   39.9410   26.3210   42.5060 H   0  0  0  0  0  0  0  0  0  0  0  0
   39.4330   27.5930   40.6960 H   0  0  0  0  0  0  0  0  0  0  0  0
   39.9750   28.9450   42.2840 N   0  0  0  0  0  0  0  0  0  0  0  0
   41.3780   29.0290   42.2720 C   0  0  0  0  0  0  0  0  0  0  0  0
   42.0390   29.5230   41.2890 O   0  0  0  0  0  0  0  0  0  0  0  0
   42.0160   28.5270   43.4460 N   0  0  0  0  0  0  0  0  0  0  0  0
   39.6280   29.7040   42.9850 H   0  0  0  0  0  0  0  0  0  0  0  0
   41.8680   28.9050   44.4040 H   0  0  0  0  0  0  0  0  0  0  0  0
   42.6970   27.7950   43.7700 H   0  0  0  0  0  0  0  0  0  0  0  0
   39.0130   32.9170   39.7390 C   0  0  0  0  0  0  0  0  0  0  0  0
   38.4500   34.1070   40.1170 C   0  0  0  0  0  0  0  0  0  0  0  0
   39.1620   35.2860   40.2040 C   0  0  0  0  0  0  0  0  0  0  0  0
   40.5120   35.2030   39.8820 C   0  0  0  0  0  0  0  0  0  0  0  0
   41.0880   34.0140   39.5020 C   0  0  0  0  0  0  0  0  0  0  0  0
   40.3190   32.8940   39.4410 N   0  0  0  0  0  0  0  0  0  0  0  0
   37.4040   34.1080   40.3530 H   0  0  0  0  0  0  0  0  0  0  0  0
   38.6680   36.1930   40.5070 H   0  0  0  0  0  0  0  0  0  0  0  0
   41.0430   36.1330   39.9580 H   0  0  0  0  0  0  0  0  0  0  0  0
   43.4560   33.8990   40.1660 C   0  0  0  0  0  0  0  0  0  0  0  0
   42.4930   33.9280   39.1670 C   0  0  0  0  0  0  0  0  0  0  0  0
   42.9370   33.8710   37.8650 C   0  0  0  0  0  0  0  0  0  0  0  0
   42.2590   33.8880   37.0240 H   0  0  0  0  0  0  0  0  0  0  0  0
   44.2660   33.7880   37.4960 C   0  0  0  0  0  0  0  0  0  0  0  0
   44.5880   33.7450   36.4600 H   0  0  0  0  0  0  0  0  0  0  0  0
   45.2280   33.7590   38.4600 C   0  0  0  0  0  3  0  0  0  0  0  0
   44.7980   33.8140   39.7690 C   0  0  0  0  0  3  0  0  0  0  0  0
   41.7570   34.3630   42.0760 H   0  0  0  0  0  0  0  0  0  0  0  0
   43.0570   33.9620   41.8670 S   0  0  0  0  0  0  0  0  0  0  0  0
   43.1100   32.5350   42.4000 O   0  0  0  0  0  0  0  0  0  0  0  0
   44.0410   34.7770   42.6600 O   0  0  0  0  0  0  0  0  0  0  0  0
  1  6  1  0  0  0  0
  1  9  1  0  0  0  0
  2  1  2  0  0  0  0
  3  4  2  0  0  0  0
  3  2  1  0  0  0  0
  4  5  1  0  0  0  0
  5 32  1  0  0  0  0
  5  6  2  0  0  0  0
  7  2  1  0  0  0  0
  8  3  1  0  0  0  0
  9 15  1  6  0  0  0
  9 14  1  0  0  0  0
  9 10  1  0  0  0  0
 10 16  1  0  0  0  0
 10 11  1  0  0  0  0
 11 19  1  0  0  0  0
 12 11  1  0  0  0  0
 12 20  1  0  0  0  0
 12 21  1  0  0  0  0
 13 23  1  0  0  0  0
 13 12  1  0  0  0  0
 14 24  1  6  0  0  0
 14 25  1  0  0  0  0
 14 13  1  0  0  0  0
 17 10  1  0  0  0  0
 18 11  1  0  0  0  0
 22 13  1  0  0  0  0
 25 29  1  0  0  0  0
 26 25  1  0  0  0  0
 26 28  1  0  0  0  0
 27 26  2  0  0  0  0
 28 31  1  0  0  0  0
 28 30  1  0  0  0  0
 32 33  1  0  0  0  0
 33 34  2  0  0  0  0
 33 38  1  0  0  0  0
 34 39  1  0  0  0  0
 35 40  1  0  0  0  0
 35 34  1  0  0  0  0
 36 35  2  0  0  0  0
 37 36  1  0  0  0  0
 37 32  2  0  0  0  0
 41 50  1  0  0  0  0
 42 36  1  0  0  0  0
 42 41  2  0  0  0  0
 43 42  1  0  0  0  0
 44 43  1  0  0  0  0
 45 43  2  0  0  0  0
 45 47  1  0  0  0  0
 46 45  1  0  0  0  0
 47 48  2  0  0  0  0
 48 41  1  0  0  0  0
 50 49  1  0  0  0  0
 50 51  2  0  0  0  0
 50 52  2  0  0  0  0
M  END
>  <minimizedAffinity>
-6.58110094

$$$$
