
 OpenBabel03242519493D

 53 56  0  0  1  0  0  0  0  0999 V2000
   43.9420   28.0760   45.3040 C   0  0  0  0  0  0  0  0  0  0  0  0
   44.6410   27.8580   44.5100 H   0  0  0  0  0  0  0  0  0  0  0  0
   43.6880   27.1210   45.8200 H   0  0  0  0  0  0  0  0  0  0  0  0
   42.7850   29.3780   43.6020 C   0  0  0  0  0  0  0  0  0  0  0  0
   42.6940   28.6580   44.7990 C   0  0  0  0  0  0  0  0  0  0  0  0
   41.4240   28.6270   45.3320 C   0  0  0  0  0  0  0  0  0  0  0  0
   40.3260   29.2140   44.8060 C   0  0  0  0  0  0  0  0  0  0  0  0
   40.4500   29.9270   43.6120 C   0  0  0  0  0  0  0  0  0  0  0  0
   41.7240   30.0180   42.9800 C   0  0  0  0  0  0  0  0  0  0  0  0
   41.3780   28.0690   46.2460 H   0  0  0  0  0  0  0  0  0  0  0  0
   39.3790   29.1180   45.3210 H   0  0  0  0  0  0  0  0  0  0  0  0
   39.5490   30.3600   43.2570 H   0  0  0  0  0  0  0  0  0  0  0  0
   43.9250   29.5710   42.8510 O   0  0  0  0  0  0  0  0  0  0  0  0
   44.8020   29.7870   43.2910 H   0  0  0  0  0  0  0  0  0  0  0  0
   41.7000   30.7080   41.8780 O   0  0  0  0  0  0  0  0  0  0  0  0
   40.9000   32.3050   40.2150 C   0  0  0  0  0  0  0  0  0  0  0  0
   41.6790   31.3710   40.8230 C   0  0  0  0  0  0  0  0  0  0  0  0
   42.8300   30.9830   40.1010 C   0  0  0  0  0  0  0  0  0  0  0  0
   43.6410   30.2580   40.3300 H   0  0  0  0  0  0  0  0  0  0  0  0
   43.2080   31.4820   38.8380 C   0  0  0  0  0  0  0  0  0  0  0  0
   44.0510   31.2630   38.2020 H   0  0  0  0  0  0  0  0  0  0  0  0
   42.3640   32.4280   38.2890 C   0  0  0  0  0  3  0  0  0  0  0  0
   41.2440   32.8050   38.9920 C   0  0  0  0  0  3  0  0  0  0  0  0
   38.8710   33.7620   40.2350 H   0  0  0  0  0  0  0  0  0  0  0  0
   39.4730   32.8090   41.0730 S   0  0  0  0  0  0  0  0  0  0  0  0
   38.4930   31.7160   41.2800 O   0  0  0  0  0  0  0  0  0  0  0  0
   39.8010   33.5980   42.3140 O   0  0  0  0  0  0  0  0  0  0  0  0
   44.5390   28.9970   46.3750 C   0  0  0  0  0  0  0  0  0  0  0  0
   44.8700   28.6410   47.3010 H   0  0  0  0  0  0  0  0  0  0  0  0
   43.4730   29.4760   46.8180 H   0  0  0  0  0  0  0  0  0  0  0  0
   45.0340   30.1320   45.8730 O   0  0  0  0  0  0  0  0  0  0  0  0
   46.5360   31.9800   45.9250 C   0  0  2  0  0  0  0  0  0  0  0  0
   46.9800   32.2530   44.5590 C   0  0  1  0  0  0  0  0  0  0  0  0
   46.3820   31.1350   43.7840 O   0  0  0  0  0  0  0  0  0  0  0  0
   46.9300   30.1010   44.5340 C   0  0  0  0  0  0  0  0  0  0  0  0
   46.3120   30.5060   45.9900 C   0  0  2  0  0  0  0  0  0  0  0  0
   47.2090   32.3350   46.7230 H   0  0  0  0  0  0  0  0  0  0  0  0
   48.0670   32.0510   44.4100 H   0  0  0  0  0  0  0  0  0  0  0  0
   46.5040   29.1380   44.2690 H   0  0  0  0  0  0  0  0  0  0  0  0
   48.0120   30.1700   44.6220 H   0  0  0  0  0  0  0  0  0  0  0  0
   47.0020   29.8720   46.5740 H   0  0  0  0  0  0  0  0  0  0  0  0
   44.8720   35.1690   43.9590 C   0  0  0  0  0  0  0  0  0  0  0  0
   45.5620   35.8870   42.9890 C   0  0  0  0  0  0  0  0  0  0  0  0
   46.7730   35.3670   42.5110 C   0  0  0  0  0  0  0  0  0  0  0  0
   47.2240   34.1950   43.0080 N   0  0  0  0  0  0  0  0  0  0  0  0
   46.5430   33.5090   43.9500 C   0  0  0  0  0  0  0  0  0  0  0  0
   45.3600   33.9890   44.4360 N   0  0  0  0  0  0  0  0  0  0  0  0
   45.1750   36.8300   42.6070 H   0  0  0  0  0  0  0  0  0  0  0  0
   47.3500   35.8780   41.7610 H   0  0  0  0  0  0  0  0  0  0  0  0
   43.6540   35.6350   44.4760 O   0  0  0  0  0  0  0  0  0  0  0  0
   43.7630   36.1760   45.3420 H   0  0  0  0  0  0  0  0  0  0  0  0
   45.2390   32.6120   46.1210 O   0  0  0  0  0  0  0  0  0  0  0  0
   44.6060   31.9410   46.4800 H   0  0  0  0  0  0  0  0  0  0  0  0
  1  3  1  0  0  0  0
  1 28  1  0  0  0  0
  2  1  1  0  0  0  0
  4  5  1  0  0  0  0
  5  1  1  0  0  0  0
  5  6  2  0  0  0  0
  6 10  1  0  0  0  0
  7 11  1  0  0  0  0
  7  6  1  0  0  0  0
  8  7  2  0  0  0  0
  9  4  2  0  0  0  0
  9  8  1  0  0  0  0
 12  8  1  0  0  0  0
 13 14  1  0  0  0  0
 13  4  1  0  0  0  0
 15  9  1  0  0  0  0
 16 17  1  0  0  0  0
 16 25  1  0  0  0  0
 17 15  1  0  0  0  0
 18 19  1  0  0  0  0
 18 17  2  0  0  0  0
 20 18  1  0  0  0  0
 21 20  1  0  0  0  0
 22 20  2  0  0  0  0
 22 23  1  0  0  0  0
 23 16  2  0  0  0  0
 24 25  1  0  0  0  0
 25 26  2  0  0  0  0
 25 27  2  0  0  0  0
 28 30  1  0  0  0  0
 28 29  1  0  0  0  0
 31 36  1  0  0  0  0
 31 28  1  0  0  0  0
 32 36  1  0  0  0  0
 32 52  1  0  0  0  0
 32 37  1  1  0  0  0
 33 38  1  6  0  0  0
 33 32  1  0  0  0  0
 34 35  1  0  0  0  0
 34 33  1  0  0  0  0
 35 40  1  0  0  0  0
 35 36  1  0  0  0  0
 36 41  1  1  0  0  0
 39 35  1  0  0  0  0
 42 47  1  0  0  0  0
 42 50  1  0  0  0  0
 43 42  2  0  0  0  0
 44 43  1  0  0  0  0
 44 45  2  0  0  0  0
 45 46  1  0  0  0  0
 46 47  2  0  0  0  0
 46 33  1  0  0  0  0
 48 43  1  0  0  0  0
 49 44  1  0  0  0  0
 50 51  1  0  0  0  0
 52 53  1  0  0  0  0
M  END
>  <minimizedAffinity>
-5.71974659

>  <minimizedRMSD>
3.81181002

$$$$
