
     RDKit          3D

 49 52  0  0  0  0  0  0  0  0999 V2000
   44.5769   35.5893   44.6162 C   0  0  0  0  0  0  0  0  0  0  0  0
   45.2317   35.5946   43.3649 C   0  0  0  0  0  0  0  0  0  0  0  0
   46.3194   34.6797   43.1796 C   0  0  0  0  0  0  0  0  0  0  0  0
   46.6618   33.8670   44.1976 N   0  0  0  0  0  0  0  0  0  0  0  0
   46.0132   33.8916   45.3754 C   0  0  0  0  0  0  0  0  0  0  0  0
   44.9666   34.7527   45.5925 N   0  0  0  0  0  0  0  0  0  0  0  0
   46.4302   32.9799   46.4630 C   0  0  2  0  0  0  0  0  0  0  0  0
   46.9643   31.7486   45.7619 C   0  0  0  0  0  0  0  0  0  0  0  0
   46.0820   30.5613   45.7835 C   0  0  0  0  0  0  0  0  0  0  0  0
   45.8227   30.2963   47.2615 C   0  0  0  0  0  0  0  0  0  0  0  0
   45.0214   31.3646   47.8780 C   0  0  0  0  0  0  0  0  0  0  0  0
   45.3867   32.7323   47.4194 C   0  0  0  0  0  0  0  0  0  0  0  0
   44.6872   33.8575   47.9291 N   0  0  0  0  0  0  0  0  0  0  0  0
   47.0045   34.6648   41.8984 C   0  0  0  0  0  0  0  0  0  0  0  0
   48.1465   35.3953   41.7822 C   0  0  0  0  0  0  0  0  0  0  0  0
   48.7731   35.3509   40.5236 C   0  0  0  0  0  0  0  0  0  0  0  0
   48.1609   34.5728   39.5488 C   0  0  0  0  0  0  0  0  0  0  0  0
   47.0125   33.8371   39.6625 C   0  0  0  0  0  0  0  0  0  0  0  0
   46.4462   33.9187   40.9116 N   0  0  0  0  0  0  0  0  0  0  0  0
   46.4842   33.1090   38.6663 O   0  0  0  0  0  0  0  0  0  0  0  0
   43.7503   36.2778   44.7709 H   0  0  0  0  0  0  0  0  0  0  0  0
   44.9546   36.2426   42.5617 H   0  0  0  0  0  0  0  0  0  0  0  0
   47.2935   33.4915   46.9598 H   0  0  0  0  0  0  0  0  0  0  0  0
   47.2475   31.9393   44.7050 H   0  0  0  0  0  0  0  0  0  0  0  0
   47.9154   31.4528   46.2530 H   0  0  0  0  0  0  0  0  0  0  0  0
   45.1521   30.6150   45.2192 H   0  0  0  0  0  0  0  0  0  0  0  0
   46.6824   29.7020   45.4364 H   0  0  0  0  0  0  0  0  0  0  0  0
   46.7452   30.0376   47.7817 H   0  0  0  0  0  0  0  0  0  0  0  0
   45.1620   29.4043   47.2683 H   0  0  0  0  0  0  0  0  0  0  0  0
   44.2282   31.3584   48.5877 H   0  0  0  0  0  0  0  0  0  0  0  0
   43.6836   34.0488   47.6831 H   0  0  0  0  0  0  0  0  0  0  0  0
   45.1499   34.5352   48.5684 H   0  0  0  0  0  0  0  0  0  0  0  0
   48.5197   35.9616   42.6230 H   0  0  0  0  0  0  0  0  0  0  0  0
   49.6764   35.9304   40.4366 H   0  0  0  0  0  0  0  0  0  0  0  0
   48.7665   34.6524   38.6612 H   0  0  0  0  0  0  0  0  0  0  0  0
   44.1195   30.0703   37.9956 H   0  0  0  0  0  0  0  0  0  0  0  0
   45.3301   30.4954   38.4834 S   0  0  0  0  0  0  0  0  0  0  0  0
   46.2116   29.3583   38.8498 O   0  0  0  0  0  0  0  0  0  0  0  0
   45.0498   31.3189   39.6946 O   0  0  0  0  0  0  0  0  0  0  0  0
   46.1479   31.4999   37.2775 C   0  0  0  0  0  0  0  0  0  0  0  0
   46.7051   32.7915   37.4126 C   0  0  0  0  0  0  0  0  0  0  0  0
   47.2672   33.2822   36.2692 C   0  0  0  0  0  0  0  0  0  0  0  0
   47.6780   34.2507   36.3946 H   0  0  0  0  0  0  0  0  0  0  0  0
   47.3403   32.6645   35.0463 C   0  0  0  0  0  0  0  0  0  0  0  0
   47.8190   33.1925   34.2463 H   0  0  0  0  0  0  0  0  0  0  0  0
   46.7791   31.4120   34.9868 C   0  0  0  0  0  0  0  0  0  0  0  0
   46.1732   30.7932   36.0781 C   0  0  0  0  0  0  0  0  0  0  0  0
   46.8537   30.9471   33.9998 H   0  0  0  0  0  0  0  0  0  0  0  0
   45.7968   29.8151   35.8204 H   0  0  0  0  0  0  0  0  0  0  0  0
  1  6  2  0
  2  1  1  0
  3  2  2  0
  3  4  1  0
  4  5  2  0
  5  6  1  0
  5  7  1  0
  7 12  1  0
  8  9  1  0
  8  7  1  0
  9 10  1  0
 10 11  1  0
 12 11  2  0
 12 13  1  0
 14  3  1  0
 15 14  2  0
 16 15  1  0
 17 18  1  0
 17 16  2  0
 18 19  2  0
 19 14  1  0
 20 18  1  0
  1 21  1  0
  2 22  1  0
  7 23  1  1
  8 24  1  0
  8 25  1  0
  9 26  1  0
  9 27  1  0
 10 28  1  0
 10 29  1  0
 11 30  1  0
 13 31  1  0
 13 32  1  0
 15 33  1  0
 16 34  1  0
 17 35  1  0
 36 37  1  0
 37 38  2  0
 37 39  2  0
 37 40  1  0
 40 41  2  0
 41 42  1  0
 42 43  1  0
 42 44  2  0
 44 45  1  0
 44 46  1  0
 46 47  2  0
 47 40  1  0
 46 48  1  0
 47 49  1  0
 20 41  1  0
M  ISO  8  21  14  22  14  23  13  24  13  25  13  26  13  27  13  28  13
M  ISO  8  29  13  30  13  33  14  34  14  35  14  36  12  43  15  45  16
M  END
>  <DihAtoms>  (1) 
17,19,40,39

>  <DihDeg>  (1) 
-179.98291225192395

$$$$
