REMARK  Name = 
REMARK  9 active torsions:
REMARK  status: ('A' for Active; 'I' for Inactive)
REMARK    1  A    between atoms: C_3  and  C_12
REMARK    2  A    between atoms: C_7  and  O_15
REMARK    3  A    between atoms: C_8  and  N_14
REMARK    4  A    between atoms: O_15  and  P_17
REMARK    5  A    between atoms: P_17  and  O_18
REMARK    6  A    between atoms: P_17  and  O_19
REMARK    7  A    between atoms: O_18  and  C_36
REMARK    8  A    between atoms: O_19  and  C_20
REMARK    9  A    between atoms: S_32  and  C_35
REMARK                            x       y       z     vdW  Elec       q    Type
REMARK                         _______ _______ _______ _____ _____    ______ ____
ROOT
ATOM      1  F   UNL     1      45.194  33.461  41.166  0.00  0.00    +0.000 F 
ATOM      2  C   UNL     1      46.358  34.049  41.039  0.00  0.00    +0.000 A 
ATOM      3  C   UNL     1      46.840  34.793  42.100  0.00  0.00    +0.000 A 
ATOM      4  C   UNL     1      48.079  35.466  42.073  0.00  0.00    +0.000 A 
ATOM      5  C   UNL     1      48.863  35.377  40.915  0.00  0.00    +0.000 A 
ATOM      6  C   UNL     1      48.346  34.624  39.882  0.00  0.00    +0.000 A 
ATOM      7  C   UNL     1      47.158  33.975  39.897  0.00  0.00    +0.000 A 
ATOM      8  H   UNL     1      48.384  36.029  42.947  0.00  0.00    +0.000 HD
ATOM      9  H   UNL     1      49.783  35.906  40.959  0.00  0.00    +0.000 HD
ATOM     10  H   UNL     1      49.065  34.642  39.059  0.00  0.00    +0.000 HD
ENDROOT
BRANCH   3  15
ATOM     11  C   UNL     1      45.478  33.993  45.408  0.00  0.00    +0.000 A 
ATOM     12  C   UNL     1      44.624  35.099  45.647  0.00  0.00    +0.000 A 
ATOM     13  C   UNL     1      44.523  36.127  44.653  0.00  0.00    +0.000 A 
ATOM     14  N   UNL     1      45.273  35.964  43.519  0.00  0.00    +0.000 NA
ATOM     15  C   UNL     1      46.057  34.913  43.338  0.00  0.00    +0.000 A 
ATOM     16  N   UNL     1      46.161  33.937  44.269  0.00  0.00    +0.000 NA
ATOM     17  H   UNL     1      44.052  35.176  46.565  0.00  0.00    +0.000 HD
ATOM     18  H   UNL     1      43.884  36.975  44.808  0.00  0.00    +0.000 HD
BRANCH  11  19
ATOM     19  N   UNL     1      45.548  33.017  46.404  0.00  0.00    +0.000 N 
ATOM     20  H   UNL     1      45.082  32.087  46.498  0.00  0.00    +0.000 HD
ATOM     21  H   UNL     1      46.153  33.141  47.264  0.00  0.00    +0.000 HD
ENDBRANCH  11  19
ENDBRANCH   3  15
BRANCH   7  22
ATOM     22  O   UNL     1      46.751  33.262  38.811  0.00  0.00    +0.000 OA
BRANCH  22  24
ATOM     23  O   UNL     1      48.044  34.713  37.016  0.00  0.00    +0.000 OA
ATOM     24  P   UNL     1      47.294  33.420  37.230  0.00  0.00    +0.000 P 
BRANCH  24  25
ATOM     25  O   UNL     1      45.971  33.344  36.162  0.00  0.00    +0.000 OA
BRANCH  25  27
ATOM     26  C   UNL     1      44.931  35.201  37.172  0.00  0.00    +0.000 A 
ATOM     27  C   UNL     1      45.094  34.412  36.028  0.00  0.00    +0.000 A 
ATOM     28  C   UNL     1      44.389  34.749  34.892  0.00  0.00    +0.000 A 
ATOM     29  H   UNL     1      44.532  34.128  34.032  0.00  0.00    +0.000 HD
ATOM     30  C   UNL     1      43.542  35.837  34.878  0.00  0.00    +0.000 A 
ATOM     31  H   UNL     1      42.990  36.091  33.968  0.00  0.00    +0.000 HD
ATOM     32  C   UNL     1      43.355  36.645  35.996  0.00  0.00    +0.000 A 
ATOM     33  C   UNL     1      44.079  36.270  37.105  0.00  0.00    +0.000 A 
BRANCH  26  35
ATOM     34  H   UNL     1      47.099  34.448  38.397  0.00  0.00    +0.000 HD
ATOM     35  S   UNL     1      45.808  34.820  38.659  0.00  0.00    +0.000 S 
ATOM     36  O   UNL     1      45.024  33.743  39.366  0.00  0.00    +0.000 OA
ATOM     37  O   UNL     1      45.753  36.040  39.537  0.00  0.00    +0.000 OA
ENDBRANCH  26  35
ENDBRANCH  25  27
ENDBRANCH  24  25
BRANCH  24  38
ATOM     38  O   UNL     1      48.301  32.134  36.763  0.00  0.00    +0.000 OA
BRANCH  38  39
ATOM     39  C   UNL     1      47.553  30.959  36.569  0.00  0.00    +0.000 C 
ATOM     40  F   UNL     1      47.210  30.991  35.215  0.00  0.00    +0.000 F 
ATOM     41  F   UNL     1      48.329  29.844  36.770  0.00  0.00    +0.000 F 
ATOM     42  F   UNL     1      46.453  30.872  37.377  0.00  0.00    +0.000 F 
ENDBRANCH  38  39
ENDBRANCH  24  38
ENDBRANCH  22  24
ENDBRANCH   7  22
TORSDOF 9
