
 OpenBabel03252502503D

 37 39  0  0  0  0  0  0  0  0999 V2000
   44.6040   36.2260   43.9690 C   0  0  0  0  0  0  0  0  0  0  0  0
   44.8050   35.4240   45.0970 C   0  0  0  0  0  0  0  0  0  0  0  0
   45.5180   34.2450   44.9270 C   0  0  0  0  0  0  0  0  0  0  0  0
   45.9830   33.9250   43.6920 N   0  0  0  0  0  0  0  0  0  0  0  0
   45.7700   34.7300   42.6150 C   0  0  0  0  0  0  0  0  0  0  0  0
   45.0840   35.8720   42.7610 N   0  0  0  0  0  0  0  0  0  0  0  0
   44.0650   37.1620   43.9950 H   0  0  0  0  0  0  0  0  0  0  0  0
   44.3950   35.7760   46.0110 H   0  0  0  0  0  0  0  0  0  0  0  0
   48.5200   35.6950   42.0080 Cl  0  0  0  0  0  0  0  0  0  0  0  0
   47.5530   34.7090   40.9340 C   0  0  0  0  0  0  0  0  0  0  0  0
   46.3000   34.3230   41.3150 C   0  0  0  0  0  0  0  0  0  0  0  0
   45.5000   33.5330   40.4760 C   0  0  0  0  0  0  0  0  0  0  0  0
   46.0490   33.1810   39.2720 C   0  0  0  0  0  0  0  0  0  0  0  0
   47.2930   33.5650   38.8920 C   0  0  0  0  0  0  0  0  0  0  0  0
   48.0620   34.3300   39.7090 C   0  0  0  0  0  0  0  0  0  0  0  0
   44.4940   33.2330   40.8040 H   0  0  0  0  0  0  0  0  0  0  0  0
   45.3760   32.5660   38.6660 H   0  0  0  0  0  0  0  0  0  0  0  0
   47.5970   33.2150   37.9160 H   0  0  0  0  0  0  0  0  0  0  0  0
   49.0410   34.6040   39.3570 H   0  0  0  0  0  0  0  0  0  0  0  0
   45.7300   33.3910   46.1290 C   0  0  0  0  0  0  0  0  0  0  0  0
   44.7710   33.3380   46.6390 H   0  0  0  0  0  0  0  0  0  0  0  0
   46.4940   33.8910   46.7490 H   0  0  0  0  0  0  0  0  0  0  0  0
   46.2790   32.0180   45.7710 C   0  0  0  0  0  0  0  0  0  0  0  0
   45.3640   31.3630   45.7260 H   0  0  0  0  0  0  0  0  0  0  0  0
   46.7400   32.0130   44.7670 H   0  0  0  0  0  0  0  0  0  0  0  0
   47.5020   30.1380   46.6990 C   0  0  0  0  0  0  0  0  0  0  0  0
   47.1240   31.4560   46.8360 C   0  0  0  0  0  0  0  0  0  0  0  0
   47.5370   32.2010   47.9460 C   0  0  0  0  0  0  0  0  0  0  0  0
   47.2130   33.2280   48.0040 H   0  0  0  0  0  0  0  0  0  0  0  0
   48.3370   31.6240   48.9290 C   0  0  0  0  0  0  0  0  0  0  0  0
   48.6560   32.2160   49.7940 H   0  0  0  0  0  0  0  0  0  0  0  0
   48.7110   30.2890   48.7740 C   0  0  0  0  0  3  0  0  0  0  0  0
   48.3000   29.5630   47.6810 C   0  0  0  0  0  3  0  0  0  0  0  0
   46.5020   29.7850   44.3250 H   0  0  0  0  0  0  0  0  0  0  0  0
   47.0550   29.1150   45.3750 S   0  0  0  0  0  0  0  0  0  0  0  0
   48.3010   28.4370   44.8440 O   0  0  0  0  0  0  0  0  0  0  0  0
   46.1220   28.0590   45.8670 O   0  0  0  0  0  0  0  0  0  0  0  0
  1  7  1  0  0  0  0
  1  2  1  0  0  0  0
  2  8  1  0  0  0  0
  3  2  2  0  0  0  0
  3 20  1  0  0  0  0
  4  3  1  0  0  0  0
  5  6  1  0  0  0  0
  5  4  2  0  0  0  0
  6  1  2  0  0  0  0
 10 11  1  0  0  0  0
 10  9  1  0  0  0  0
 11  5  1  0  0  0  0
 12 16  1  0  0  0  0
 12 11  2  0  0  0  0
 13 12  1  0  0  0  0
 14 13  2  0  0  0  0
 14 15  1  0  0  0  0
 15 10  2  0  0  0  0
 17 13  1  0  0  0  0
 18 14  1  0  0  0  0
 19 15  1  0  0  0  0
 20 21  1  0  0  0  0
 20 22  1  0  0  0  0
 23 20  1  0  0  0  0
 23 27  1  0  0  0  0
 24 23  1  0  0  0  0
 25 23  1  0  0  0  0
 26 27  2  0  0  0  0
 26 33  1  0  0  0  0
 27 28  1  0  0  0  0
 28 29  1  0  0  0  0
 28 30  2  0  0  0  0
 30 31  1  0  0  0  0
 32 30  1  0  0  0  0
 33 32  2  0  0  0  0
 34 35  1  0  0  0  0
 35 37  2  0  0  0  0
 35 26  1  0  0  0  0
 36 35  2  0  0  0  0
M  END
>  <minimizedAffinity>
-5.75457859

>  <minimizedRMSD>
0.650012672

$$$$
