
 OpenBabel03252507223D

 50 53  0  0  1  0  0  0  0  0999 V2000
   46.7690   32.4910   43.8800 C   0  0  0  0  0  0  0  0  0  0  0  0
   48.0280   32.5520   44.0640 O   0  0  0  0  0  0  0  0  0  0  0  0
   46.1280   31.4230   43.1980 N   0  0  0  0  0  0  0  0  0  0  0  0
   44.9090   30.6840   43.5160 C   0  0  0  0  0  0  0  0  0  0  0  0
   43.9810   30.6630   42.3100 C   0  0  0  0  0  0  0  0  0  0  0  0
   44.6180   29.9440   41.1660 C   0  0  0  0  0  0  0  0  0  0  0  0
   46.0940   29.7070   41.4790 C   0  0  0  0  0  0  0  0  0  0  0  0
   46.7440   30.9340   41.9870 C   0  0  2  0  0  0  0  0  0  0  0  0
   44.3800   31.1980   44.3550 H   0  0  0  0  0  0  0  0  0  0  0  0
   45.1020   29.6320   43.7900 H   0  0  0  0  0  0  0  0  0  0  0  0
   43.7850   31.7410   42.0430 H   0  0  0  0  0  0  0  0  0  0  0  0
   43.0460   30.1570   42.6610 H   0  0  0  0  0  0  0  0  0  0  0  0
   44.1860   28.9500   40.9830 H   0  0  0  0  0  0  0  0  0  0  0  0
   44.5470   30.5000   40.2020 H   0  0  0  0  0  0  0  0  0  0  0  0
   46.0970   28.8730   42.1950 H   0  0  0  0  0  0  0  0  0  0  0  0
   46.5550   29.4140   40.5160 H   0  0  0  0  0  0  0  0  0  0  0  0
   46.5610   31.7340   41.1970 H   0  0  0  0  0  0  0  0  0  0  0  0
   45.5300   34.5550   43.4790 C   0  0  0  0  0  0  0  0  0  0  0  0
   45.9700   33.5650   44.3930 C   0  0  0  0  0  0  0  0  0  0  0  0
   45.6200   33.6640   45.7270 C   0  0  0  0  0  0  0  0  0  0  0  0
   44.8640   34.7180   46.0990 N   0  0  0  0  0  0  0  0  0  0  0  0
   44.4350   35.6720   45.2450 C   0  0  0  0  0  0  0  0  0  0  0  0
   44.7790   35.5730   43.9400 N   0  0  0  0  0  0  0  0  0  0  0  0
   45.8100   34.4660   42.4410 H   0  0  0  0  0  0  0  0  0  0  0  0
   43.8310   36.4940   45.5980 H   0  0  0  0  0  0  0  0  0  0  0  0
   46.0840   32.6460   46.6340 C   0  0  0  0  0  0  0  0  0  0  0  0
   45.3720   31.5090   46.8200 C   0  0  0  0  0  0  0  0  0  0  0  0
   45.8450   30.5540   47.6930 C   0  0  0  0  0  0  0  0  0  0  0  0
   47.0330   30.7030   48.4010 C   0  0  0  0  0  0  0  0  0  0  0  0
   47.7200   31.8840   48.1740 C   0  0  0  0  0  0  0  0  0  0  0  0
   47.2370   32.8000   47.3170 N   0  0  0  0  0  0  0  0  0  0  0  0
   44.4370   31.2520   46.3480 H   0  0  0  0  0  0  0  0  0  0  0  0
   45.3290   29.6210   47.8900 H   0  0  0  0  0  0  0  0  0  0  0  0
   47.3840   29.9280   49.0900 H   0  0  0  0  0  0  0  0  0  0  0  0
   48.6580   32.0270   48.7190 H   0  0  0  0  0  0  0  0  0  0  0  0
   48.2330   30.7720   42.0790 C   0  0  0  0  0  0  0  0  0  0  0  0
   48.6810   31.6310   42.6690 H   0  0  0  0  0  0  0  0  0  0  0  0
   48.5780   29.8160   42.4850 H   0  0  0  0  0  0  0  0  0  0  0  0
   49.0120   32.0760   39.9920 C   0  0  0  0  0  0  0  0  0  0  0  0
   48.8860   30.9310   40.7350 C   0  0  0  0  0  0  0  0  0  0  0  0
   49.5220   29.8210   40.1560 C   0  0  0  0  0  0  0  0  0  0  0  0
   49.4730   28.8550   40.6810 H   0  0  0  0  0  0  0  0  0  0  0  0
   50.2210   29.8070   38.9670 C   0  0  0  0  0  0  0  0  0  0  0  0
   50.6740   28.8950   38.6090 H   0  0  0  0  0  0  0  0  0  0  0  0
   50.3010   31.0020   38.2860 C   0  0  0  0  0  3  0  0  0  0  0  0
   49.6980   32.1070   38.8070 C   0  0  0  0  0  3  0  0  0  0  0  0
   46.9370   33.3570   40.9160 H   0  0  0  0  0  0  0  0  0  0  0  0
   48.2320   33.5350   40.4880 S   0  0  0  0  0  0  0  0  0  0  0  0
   48.1120   34.4640   39.2840 O   0  0  0  0  0  0  0  0  0  0  0  0
   49.0510   34.3340   41.4830 O   0  0  0  0  0  0  0  0  0  0  0  0
  1  2  2  0  0  0  0
  1 19  1  0  0  0  0
  3  4  1  0  0  0  0
  3  1  1  0  0  0  0
  4 10  1  0  0  0  0
  4  9  1  0  0  0  0
  5 12  1  0  0  0  0
  5  4  1  0  0  0  0
  6  7  1  0  0  0  0
  6  5  1  0  0  0  0
  7  8  1  0  0  0  0
  7 15  1  0  0  0  0
  8 17  1  6  0  0  0
  8 36  1  0  0  0  0
  8  3  1  0  0  0  0
 11  5  1  0  0  0  0
 13  6  1  0  0  0  0
 14  6  1  0  0  0  0
 16  7  1  0  0  0  0
 18 23  2  0  0  0  0
 18 19  1  0  0  0  0
 19 20  2  0  0  0  0
 20 21  1  0  0  0  0
 20 26  1  0  0  0  0
 22 25  1  0  0  0  0
 22 21  2  0  0  0  0
 23 22  1  0  0  0  0
 24 18  1  0  0  0  0
 26 27  2  0  0  0  0
 26 31  1  0  0  0  0
 27 28  1  0  0  0  0
 28 33  1  0  0  0  0
 28 29  2  0  0  0  0
 29 34  1  0  0  0  0
 30 29  1  0  0  0  0
 30 35  1  0  0  0  0
 31 30  2  0  0  0  0
 32 27  1  0  0  0  0
 36 38  1  0  0  0  0
 36 37  1  0  0  0  0
 39 48  1  0  0  0  0
 39 40  1  0  0  0  0
 40 36  1  0  0  0  0
 41 42  1  0  0  0  0
 41 40  2  0  0  0  0
 43 41  1  0  0  0  0
 44 43  1  0  0  0  0
 45 46  1  0  0  0  0
 45 43  2  0  0  0  0
 46 39  2  0  0  0  0
 48 47  1  0  0  0  0
 48 50  2  0  0  0  0
 49 48  2  0  0  0  0
M  END
>  <minimizedAffinity>
-4.85531807

>  <minimizedRMSD>
2.49759316

$$$$
