
 OpenBabel03252504513D

 37 39  0  0  0  0  0  0  0  0999 V2000
   47.1330   34.6320   42.7750 C   0  0  0  0  0  0  0  0  0  0  0  0
   48.2560   34.1300   42.1000 C   0  0  0  0  0  0  0  0  0  0  0  0
   48.8390   32.9770   42.6040 C   0  0  0  0  0  0  0  0  0  0  0  0
   48.2800   32.4170   43.7140 N   0  0  0  0  0  0  0  0  0  0  0  0
   47.2140   32.9130   44.3370 C   0  0  0  0  0  0  0  0  0  0  0  0
   46.6330   34.0320   43.8620 N   0  0  0  0  0  0  0  0  0  0  0  0
   46.6080   35.5320   42.4570 H   0  0  0  0  0  0  0  0  0  0  0  0
   49.7030   32.5540   42.1230 H   0  0  0  0  0  0  0  0  0  0  0  0
   45.8070   30.2520   43.8010 Cl  0  0  0  0  0  0  0  0  0  0  0  0
   46.0130   31.0420   45.3780 C   0  0  0  0  0  0  0  0  0  0  0  0
   46.6720   32.2570   45.5210 C   0  0  0  0  0  0  0  0  0  0  0  0
   46.8160   32.8410   46.7510 C   0  0  0  0  0  0  0  0  0  0  0  0
   46.2940   32.2070   47.8720 C   0  0  0  0  0  0  0  0  0  0  0  0
   45.6490   31.0090   47.6930 C   0  0  0  0  0  0  0  0  0  0  0  0
   44.9950   30.2240   49.1070 Cl  0  0  0  0  0  0  0  0  0  0  0  0
   45.4850   30.3940   46.4810 C   0  0  0  0  0  0  0  0  0  0  0  0
   47.3230   33.7860   46.9010 H   0  0  0  0  0  0  0  0  0  0  0  0
   46.3830   32.6330   48.8650 H   0  0  0  0  0  0  0  0  0  0  0  0
   44.9580   29.4350   46.4160 H   0  0  0  0  0  0  0  0  0  0  0  0
   48.7490   34.8320   40.9280 C   0  0  0  0  0  0  0  0  0  0  0  0
   48.7340   35.9260   41.1060 H   0  0  0  0  0  0  0  0  0  0  0  0
   49.7950   34.5580   40.7610 H   0  0  0  0  0  0  0  0  0  0  0  0
   47.8280   34.5670   39.7670 C   0  0  0  0  0  0  0  0  0  0  0  0
   48.1200   35.3040   38.9730 H   0  0  0  0  0  0  0  0  0  0  0  0
   46.8160   34.9180   40.1010 H   0  0  0  0  0  0  0  0  0  0  0  0
   46.6380   32.4750   39.2990 C   0  0  0  0  0  0  0  0  0  0  0  0
   47.8260   33.1770   39.3000 C   0  0  0  0  0  0  0  0  0  0  0  0
   48.9960   32.5930   38.8590 C   0  0  0  0  0  0  0  0  0  0  0  0
   49.9280   33.1800   38.8720 H   0  0  0  0  0  0  0  0  0  0  0  0
   49.0530   31.2990   38.3980 C   0  0  0  0  0  0  0  0  0  0  0  0
   49.9950   30.8890   38.0650 H   0  0  0  0  0  0  0  0  0  0  0  0
   47.8460   30.6160   38.4080 C   0  0  0  0  0  3  0  0  0  0  0  0
   46.6590   31.1560   38.8380 C   0  0  0  0  0  3  0  0  0  0  0  0
   45.1480   34.4750   40.0080 H   0  0  0  0  0  0  0  0  0  0  0  0
   45.1180   33.1020   39.8350 S   0  0  0  0  0  0  0  0  0  0  0  0
   43.9510   32.6630   38.9960 O   0  0  0  0  0  0  0  0  0  0  0  0
   44.8410   32.5400   41.2220 O   0  0  0  0  0  0  0  0  0  0  0  0
  1  6  1  0  0  0  0
  2  3  1  0  0  0  0
  2  1  2  0  0  0  0
  3  4  2  0  0  0  0
  4  5  1  0  0  0  0
  5 11  1  0  0  0  0
  6  5  2  0  0  0  0
  7  1  1  0  0  0  0
  8  3  1  0  0  0  0
  9 10  1  0  0  0  0
 10 11  2  0  0  0  0
 10 16  1  0  0  0  0
 11 12  1  0  0  0  0
 12 17  1  0  0  0  0
 12 13  2  0  0  0  0
 13 18  1  0  0  0  0
 14 13  1  0  0  0  0
 14 15  1  0  0  0  0
 16 14  2  0  0  0  0
 19 16  1  0  0  0  0
 20 21  1  0  0  0  0
 20  2  1  0  0  0  0
 22 20  1  0  0  0  0
 23 25  1  0  0  0  0
 23 20  1  0  0  0  0
 24 23  1  0  0  0  0
 26 27  1  0  0  0  0
 26 35  1  0  0  0  0
 27 23  1  0  0  0  0
 28 29  1  0  0  0  0
 28 27  2  0  0  0  0
 30 32  2  0  0  0  0
 30 28  1  0  0  0  0
 31 30  1  0  0  0  0
 32 33  1  0  0  0  0
 33 26  2  0  0  0  0
 35 34  1  0  0  0  0
 35 37  2  0  0  0  0
 36 35  2  0  0  0  0
M  END
>  <minimizedAffinity>
-4.52649355

>  <minimizedRMSD>
1.01002121

$$$$
