
     RDKit          3D

 32 34  0  0  0  0  0  0  0  0999 V2000
   44.6276   35.4624   45.1306 C   0  0  0  0  0  0  0  0  0  0  0  0
   45.0934   35.7124   43.8140 C   0  0  0  0  0  0  0  0  0  0  0  0
   46.0472   34.8161   43.3577 C   0  0  0  0  0  0  0  0  0  0  0  0
   46.4921   33.7719   44.1468 N   0  0  0  0  0  0  0  0  0  0  0  0
   46.0125   33.5917   45.3807 C   0  0  0  0  0  0  0  0  0  0  0  0
   45.0717   34.4432   45.8783 N   0  0  0  0  0  0  0  0  0  0  0  0
   46.5396   34.9786   41.9291 C   0  0  1  0  0  0  0  0  0  0  0  0
   48.0581   35.2767   41.9377 C   0  0  0  0  0  0  0  0  0  0  0  0
   47.3907   33.9770   41.3968 C   0  0  2  0  0  0  0  0  0  0  0  0
   44.6501   36.8110   43.0163 N   0  0  0  0  0  0  0  0  0  0  0  0
   43.8850   36.1345   45.5241 H   0  0  0  0  0  0  0  0  0  0  0  0
   46.4689   32.7339   45.8485 H   0  0  0  0  0  0  0  0  0  0  0  0
   45.9555   35.7006   41.3506 H   0  0  0  0  0  0  0  0  0  0  0  0
   48.3429   36.0281   41.2091 H   0  0  0  0  0  0  0  0  0  0  0  0
   48.6177   35.2220   42.8693 H   0  0  0  0  0  0  0  0  0  0  0  0
   47.6216   33.0969   42.0821 H   0  0  0  0  0  0  0  0  0  0  0  0
   45.3039   37.5924   43.2480 H   0  0  0  0  0  0  0  0  0  0  0  0
   43.8433   36.7494   42.3754 H   0  0  0  0  0  0  0  0  0  0  0  0
   47.2838   31.1412   41.3408 H   0  0  0  0  0  0  0  0  0  0  0  0
   46.9538   31.1289   40.0129 S   0  0  0  0  0  0  0  0  0  0  0  0
   47.6981   29.9228   39.4461 O   0  0  0  0  0  0  0  0  0  0  0  0
   45.4774   30.9238   39.9054 O   0  0  0  0  0  0  0  0  0  0  0  0
   47.4870   32.5600   39.2015 C   0  0  0  0  0  0  0  0  0  0  0  0
   47.6327   33.6702   39.9677 C   0  0  0  0  0  0  0  0  0  0  0  0
   48.0874   34.8228   39.3107 C   0  0  0  0  0  0  0  0  0  0  0  0
   48.2688   35.8131   39.7509 H   0  0  0  0  0  0  0  0  0  0  0  0
   48.3719   34.8295   37.9527 C   0  0  0  0  0  0  0  0  0  0  0  0
   48.7235   35.6880   37.4016 H   0  0  0  0  0  0  0  0  0  0  0  0
   48.2104   33.6914   37.2217 C   0  0  0  0  0  0  0  0  0  0  0  0
   47.7649   32.5513   37.8537 C   0  0  0  0  0  0  0  0  0  0  0  0
   48.3985   33.5767   36.1642 H   0  0  0  0  0  0  0  0  0  0  0  0
   47.6120   31.6107   37.3425 H   0  0  0  0  0  0  0  0  0  0  0  0
  1  6  2  0
  2  1  1  0
  3  2  2  0
  3  4  1  0
  4  5  2  0
  5  6  1  0
  7  3  1  0
  8  7  1  0
  9  8  1  0
  9  7  1  0
 10  2  1  0
  1 11  1  0
  5 12  1  0
  7 13  1  6
  8 14  1  0
  8 15  1  0
  9 16  1  1
 10 17  1  0
 10 18  1  0
 19 20  1  0
 20 21  2  0
 20 22  2  0
 20 23  1  0
 23 24  2  0
 24 25  1  0
 25 26  1  0
 25 27  2  0
 27 28  1  0
 27 29  1  0
 29 30  2  0
 30 23  1  0
 29 31  1  0
 30 32  1  0
  9 24  1  0
M  ISO  8  11  14  12  14  13  13  14  13  15  13  16  13  19  12  26  15
M  ISO  1  28  16
M  END
>  <DihAtoms>  (1) 
7,8,23,22

>  <DihDeg>  (1) 
-106.08923943840409

$$$$
