
 OpenBabel03252508593D

 48 50  0  0  1  0  0  0  0  0999 V2000
   47.0570   34.0630   42.9590 N   0  0  0  0  0  0  0  0  0  0  0  0
   46.8000   35.4080   42.5710 C   0  0  0  0  0  0  0  0  0  0  0  0
   45.3740   35.8570   42.6890 C   0  0  0  0  0  0  0  0  0  0  0  0
   44.6070   35.2170   43.8090 C   0  0  0  0  0  0  0  0  0  0  0  0
   45.4850   34.3210   44.6510 C   0  0  0  0  0  0  0  0  0  0  0  0
   46.0890   33.3150   43.6070 C   0  0  2  0  0  0  0  0  0  0  0  0
   47.1500   35.7030   41.5810 H   0  0  0  0  0  0  0  0  0  0  0  0
   47.3940   36.0580   43.2820 H   0  0  0  0  0  0  0  0  0  0  0  0
   45.3250   36.9530   42.8370 H   0  0  0  0  0  0  0  0  0  0  0  0
   44.8840   35.6880   41.6910 H   0  0  0  0  0  0  0  0  0  0  0  0
   43.8500   34.5480   43.3440 H   0  0  0  0  0  0  0  0  0  0  0  0
   44.0500   35.9490   44.4150 H   0  0  0  0  0  0  0  0  0  0  0  0
   44.8250   33.7450   45.3310 H   0  0  0  0  0  0  0  0  0  0  0  0
   46.3060   34.8470   45.1590 H   0  0  0  0  0  0  0  0  0  0  0  0
   45.2120   32.9580   43.0300 H   0  0  0  0  0  0  0  0  0  0  0  0
   48.0190   33.3860   42.1300 C   0  0  0  0  0  0  0  0  0  0  0  0
   48.6870   34.1770   41.7000 H   0  0  0  0  0  0  0  0  0  0  0  0
   48.6710   32.6870   42.6540 H   0  0  0  0  0  0  0  0  0  0  0  0
   47.2880   32.6520   41.0460 C   0  0  0  0  0  0  0  0  0  0  0  0
   46.2390   33.0050   40.9750 H   0  0  0  0  0  0  0  0  0  0  0  0
   47.2590   31.5520   41.1890 H   0  0  0  0  0  0  0  0  0  0  0  0
   49.3440   32.3230   37.9170 C   0  0  0  0  0  0  0  0  0  0  0  0
   48.7380   32.0390   39.1570 C   0  0  0  0  0  0  0  0  0  0  0  0
   47.9180   32.9680   39.7390 C   0  0  0  0  0  0  0  0  0  0  0  0
   47.7290   34.1210   39.0870 N   0  0  0  0  0  0  0  0  0  0  0  0
   48.3060   34.3950   37.9010 C   0  0  0  0  0  0  0  0  0  0  0  0
   49.1140   33.5010   37.3100 N   0  0  0  0  0  0  0  0  0  0  0  0
   49.9940   31.5880   37.4540 H   0  0  0  0  0  0  0  0  0  0  0  0
   48.9740   31.0710   39.5760 H   0  0  0  0  0  0  0  0  0  0  0  0
   48.0930   35.3590   37.4480 H   0  0  0  0  0  0  0  0  0  0  0  0
   46.6510   32.3530   44.4310 O   0  0  0  0  0  0  0  0  0  0  0  0
   44.6370   30.9380   43.4380 O   0  0  0  0  0  0  0  0  0  0  0  0
   45.8990   30.8600   44.3090 P   0  0  2  0  0  0  0  0  0  0  0  0
   45.3150   30.4860   45.8760 O   0  0  0  0  0  0  0  0  0  0  0  0
   44.8940   29.5810   45.7740 H   0  0  0  0  0  0  0  0  0  0  0  0
   46.9010   29.6300   43.8460 O   0  0  0  0  0  0  0  0  0  0  0  0
   48.0160   29.0040   41.9640 C   0  0  0  0  0  0  0  0  0  0  0  0
   48.1100   29.6720   43.1900 C   0  0  0  0  0  0  0  0  0  0  0  0
   49.3220   30.2350   43.5330 C   0  0  0  0  0  0  0  0  0  0  0  0
   49.2750   30.7210   44.4970 H   0  0  0  0  0  0  0  0  0  0  0  0
   50.4050   30.1380   42.6840 C   0  0  0  0  0  0  0  0  0  0  0  0
   51.3200   30.6080   43.0310 H   0  0  0  0  0  0  0  0  0  0  0  0
   50.3260   29.4830   41.4730 C   0  0  0  0  0  3  0  0  0  0  0  0
   49.1220   28.9130   41.1110 C   0  0  0  0  0  3  0  0  0  0  0  0
   46.8970   27.3370   40.3350 H   0  0  0  0  0  0  0  0  0  0  0  0
   46.5670   28.2170   41.3330 S   0  0  0  0  0  0  0  0  0  0  0  0
   45.8870   27.4220   42.4150 O   0  0  0  0  0  0  0  0  0  0  0  0
   45.6360   29.3030   40.8270 O   0  0  0  0  0  0  0  0  0  0  0  0
  1  6  1  0  0  0  0
  2  3  1  0  0  0  0
  2  1  1  0  0  0  0
  2  8  1  0  0  0  0
  3  9  1  0  0  0  0
  3  4  1  0  0  0  0
  4 12  1  0  0  0  0
  4  5  1  0  0  0  0
  5 14  1  0  0  0  0
  5 13  1  0  0  0  0
  6 15  1  6  0  0  0
  6 31  1  0  0  0  0
  6  5  1  0  0  0  0
  7  2  1  0  0  0  0
 10  3  1  0  0  0  0
 11  4  1  0  0  0  0
 16 18  1  0  0  0  0
 16  1  1  0  0  0  0
 17 16  1  0  0  0  0
 19 21  1  0  0  0  0
 19 16  1  0  0  0  0
 20 19  1  0  0  0  0
 22 23  1  0  0  0  0
 23 29  1  0  0  0  0
 23 24  2  0  0  0  0
 24 19  1  0  0  0  0
 25 24  1  0  0  0  0
 26 25  2  0  0  0  0
 27 26  1  0  0  0  0
 27 22  2  0  0  0  0
 28 22  1  0  0  0  0
 30 26  1  0  0  0  0
 33 32  2  6  0  0  0
 33 31  1  0  0  0  0
 33 34  1  0  0  0  0
 35 34  1  0  0  0  0
 36 33  1  0  0  0  0
 37 38  1  0  0  0  0
 38 39  2  0  0  0  0
 38 36  1  0  0  0  0
 39 40  1  0  0  0  0
 41 42  1  0  0  0  0
 41 39  1  0  0  0  0
 43 41  2  0  0  0  0
 44 43  1  0  0  0  0
 44 37  2  0  0  0  0
 45 46  1  0  0  0  0
 46 37  1  0  0  0  0
 46 47  2  0  0  0  0
 48 46  2  0  0  0  0
M  END
>  <minimizedAffinity>
-3.5410378

>  <minimizedRMSD>
2.16611695

$$$$
