REMARK  Name = 
REMARK  7 active torsions:
REMARK  status: ('A' for Active; 'I' for Inactive)
REMARK    1  A    between atoms: C_1  and  C_9
REMARK    2  A    between atoms: C_5  and  O_13
REMARK    3  A    between atoms: O_13  and  P_15
REMARK    4  A    between atoms: P_15  and  O_16
REMARK    5  A    between atoms: P_15  and  O_17
REMARK    6  A    between atoms: O_17  and  C_30
REMARK    7  A    between atoms: S_26  and  C_29
REMARK                            x       y       z     vdW  Elec       q    Type
REMARK                         _______ _______ _______ _____ _____    ______ ____
ROOT
ATOM      1  C   UNL     1      46.714  34.773  42.056  0.00  0.00    +0.000 A 
ATOM      2  C   UNL     1      47.951  35.371  41.824  0.00  0.00    +0.000 A 
ATOM      3  C   UNL     1      48.704  35.206  40.664  0.00  0.00    +0.000 A 
ATOM      4  C   UNL     1      48.194  34.394  39.671  0.00  0.00    +0.000 A 
ATOM      5  C   UNL     1      46.994  33.824  39.913  0.00  0.00    +0.000 A 
ATOM      6  N   UNL     1      46.295  34.001  41.035  0.00  0.00    +0.000 NA
ATOM      7  H   UNL     1      48.287  36.002  42.662  0.00  0.00    +0.000 HD
ATOM      8  H   UNL     1      49.638  35.764  40.692  0.00  0.00    +0.000 HD
ATOM      9  H   UNL     1      48.913  34.375  38.874  0.00  0.00    +0.000 HD
ENDROOT
BRANCH   1  12
ATOM     10  C   UNL     1      44.465  35.984  44.811  0.00  0.00    +0.000 A 
ATOM     11  C   UNL     1      45.098  35.982  43.556  0.00  0.00    +0.000 A 
ATOM     12  C   UNL     1      45.964  34.956  43.283  0.00  0.00    +0.000 A 
ATOM     13  N   UNL     1      46.161  33.995  44.246  0.00  0.00    +0.000 NA
ATOM     14  C   UNL     1      45.541  34.021  45.442  0.00  0.00    +0.000 A 
ATOM     15  N   UNL     1      44.694  35.022  45.713  0.00  0.00    +0.000 NA
ATOM     16  H   UNL     1      43.798  36.821  44.954  0.00  0.00    +0.000 HD
ATOM     17  H   UNL     1      44.965  36.715  42.785  0.00  0.00    +0.000 HD
ATOM     18  H   UNL     1      45.775  33.211  46.119  0.00  0.00    +0.000 HD
ENDBRANCH   1  12
BRANCH   5  19
ATOM     19  O   UNL     1      46.465  33.008  38.930  0.00  0.00    +0.000 OA
BRANCH  19  21
ATOM     20  O   UNL     1      47.751  34.339  37.046  0.00  0.00    +0.000 OA
ATOM     21  P   UNL     1      46.656  33.312  37.263  0.00  0.00    +0.000 P 
BRANCH  21  22
ATOM     22  O   UNL     1      47.074  31.873  36.484  0.00  0.00    +0.000 OA
ATOM     23  H   UNL     1      48.036  31.684  36.530  0.00  0.00    +0.000 HD
ENDBRANCH  21  22
BRANCH  21  24
ATOM     24  O   UNL     1      45.185  33.922  36.679  0.00  0.00    +0.000 OA
BRANCH  24  26
ATOM     25  C   UNL     1      44.130  32.166  35.543  0.00  0.00    +0.000 A 
ATOM     26  C   UNL     1      44.084  33.081  36.601  0.00  0.00    +0.000 A 
ATOM     27  C   UNL     1      43.000  33.083  37.452  0.00  0.00    +0.000 A 
ATOM     28  H   UNL     1      43.006  33.797  38.246  0.00  0.00    +0.000 HD
ATOM     29  C   UNL     1      41.947  32.205  37.296  0.00  0.00    +0.000 A 
ATOM     30  H   UNL     1      41.115  32.243  37.990  0.00  0.00    +0.000 HD
ATOM     31  C   UNL     1      41.959  31.277  36.249  0.00  0.00    +0.000 A 
ATOM     32  C   UNL     1      43.060  31.304  35.418  0.00  0.00    +0.000 A 
BRANCH  25  34
ATOM     33  H   UNL     1      46.309  33.074  34.487  0.00  0.00    +0.000 HD
ATOM     34  S   UNL     1      45.431  32.033  34.376  0.00  0.00    +0.000 S 
ATOM     35  O   UNL     1      46.148  30.740  34.647  0.00  0.00    +0.000 OA
ATOM     36  O   UNL     1      44.873  31.937  32.983  0.00  0.00    +0.000 OA
ENDBRANCH  25  34
ENDBRANCH  24  26
ENDBRANCH  21  24
ENDBRANCH  19  21
ENDBRANCH   5  19
TORSDOF 7
