
 OpenBabel03252506343D

 36 38  0  0  1  0  0  0  0  0999 V2000
   44.4680   35.7420   44.9830 C   0  0  0  0  0  0  0  0  0  0  0  0
   45.1300   35.7290   43.7450 C   0  0  0  0  0  0  0  0  0  0  0  0
   46.0490   34.7550   43.5070 C   0  0  0  0  0  0  0  0  0  0  0  0
   46.2600   33.8600   44.4940 N   0  0  0  0  0  0  0  0  0  0  0  0
   45.6340   33.8720   45.6670 C   0  0  0  0  0  0  0  0  0  0  0  0
   44.7190   34.8130   45.9480 N   0  0  0  0  0  0  0  0  0  0  0  0
   45.9540   32.8700   46.6210 N   0  0  0  0  0  0  0  0  0  0  0  0
   45.1520   32.5600   47.8020 C   0  0  0  0  0  0  0  0  0  0  0  0
   46.2440   32.2730   48.8270 C   0  0  0  0  0  0  0  0  0  0  0  0
   47.5420   32.1470   48.0750 C   0  0  0  0  0  0  0  0  0  0  0  0
   47.0890   31.9740   46.6430 C   0  0  1  0  0  0  0  0  0  0  0  0
   43.7170   36.4910   45.2490 H   0  0  0  0  0  0  0  0  0  0  0  0
   46.5270   34.7760   42.5630 H   0  0  0  0  0  0  0  0  0  0  0  0
   44.4870   31.6980   47.6410 H   0  0  0  0  0  0  0  0  0  0  0  0
   44.5970   33.4350   48.1710 H   0  0  0  0  0  0  0  0  0  0  0  0
   45.9960   31.3010   49.2950 H   0  0  0  0  0  0  0  0  0  0  0  0
   46.2590   33.0160   49.6380 H   0  0  0  0  0  0  0  0  0  0  0  0
   48.1470   31.2750   48.4260 H   0  0  0  0  0  0  0  0  0  0  0  0
   48.0840   33.1060   48.1910 H   0  0  0  0  0  0  0  0  0  0  0  0
   47.9130   32.3070   46.0030 H   0  0  0  0  0  0  0  0  0  0  0  0
   44.7330   36.7880   42.8680 N   0  0  0  0  0  0  0  0  0  0  0  0
   43.7900   37.0140   42.5180 H   0  0  0  0  0  0  0  0  0  0  0  0
   45.6530   37.2690   42.6810 H   0  0  0  0  0  0  0  0  0  0  0  0
   46.5980   30.2550   46.4140 S   0  0  0  0  0  0  0  0  0  0  0  0
   44.7840   29.2650   44.4710 C   0  0  0  0  0  0  0  0  0  0  0  0
   45.9350   29.9500   44.7880 C   0  0  0  0  0  0  0  0  0  0  0  0
   46.7150   30.4930   43.7630 C   0  0  0  0  0  0  0  0  0  0  0  0
   47.6390   31.0500   43.9200 H   0  0  0  0  0  0  0  0  0  0  0  0
   46.3170   30.3340   42.4480 C   0  0  0  0  0  0  0  0  0  0  0  0
   46.9090   30.7490   41.6440 H   0  0  0  0  0  0  0  0  0  0  0  0
   45.1700   29.6520   42.1190 C   0  0  0  0  0  3  0  0  0  0  0  0
   44.4160   29.1240   43.1470 C   0  0  0  0  0  3  0  0  0  0  0  0
   43.9530   29.5070   46.8790 H   0  0  0  0  0  0  0  0  0  0  0  0
   43.8930   28.6320   45.8330 S   0  0  0  0  0  0  0  0  0  0  0  0
   42.4260   28.5190   45.4480 O   0  0  0  0  0  0  0  0  0  0  0  0
   44.3140   27.2490   46.2140 O   0  0  0  0  0  0  0  0  0  0  0  0
  1 12  1  0  0  0  0
  1  6  1  0  0  0  0
  2  1  2  0  0  0  0
  3  2  1  0  0  0  0
  3  4  2  0  0  0  0
  4  5  1  0  0  0  0
  5  6  2  0  0  0  0
  5  7  1  0  0  0  0
  7 11  1  0  0  0  0
  7  8  1  0  0  0  0
  8 15  1  0  0  0  0
  8  9  1  0  0  0  0
  9 16  1  0  0  0  0
  9 17  1  0  0  0  0
 10 19  1  0  0  0  0
 10 18  1  0  0  0  0
 10  9  1  0  0  0  0
 11 20  1  6  0  0  0
 11 10  1  0  0  0  0
 13  3  1  0  0  0  0
 14  8  1  0  0  0  0
 21  2  1  0  0  0  0
 22 21  1  0  0  0  0
 23 21  1  0  0  0  0
 24 11  1  0  0  0  0
 25 26  1  0  0  0  0
 25 34  1  0  0  0  0
 26 24  1  0  0  0  0
 27 28  1  0  0  0  0
 27 26  2  0  0  0  0
 29 27  1  0  0  0  0
 30 29  1  0  0  0  0
 31 29  2  0  0  0  0
 31 32  1  0  0  0  0
 32 25  2  0  0  0  0
 34 36  2  0  0  0  0
 34 33  1  0  0  0  0
 35 34  2  0  0  0  0
M  END
>  <minimizedAffinity>
-5.12928343

>  <minimizedRMSD>
0.332927674

$$$$
