
     RDKit          3D

 32 34  0  0  0  0  0  0  0  0999 V2000
   44.6276   35.4624   45.1306 C   0  0  0  0  0  0  0  0  0  0  0  0
   45.0934   35.7124   43.8140 C   0  0  0  0  0  0  0  0  0  0  0  0
   46.0472   34.8161   43.3577 C   0  0  0  0  0  0  0  0  0  0  0  0
   46.4921   33.7719   44.1468 N   0  0  0  0  0  0  0  0  0  0  0  0
   46.0125   33.5917   45.3807 C   0  0  0  0  0  0  0  0  0  0  0  0
   45.0717   34.4432   45.8783 N   0  0  0  0  0  0  0  0  0  0  0  0
   46.5396   34.9786   41.9291 C   0  0  1  0  0  0  0  0  0  0  0  0
   48.0581   35.2767   41.9377 C   0  0  0  0  0  0  0  0  0  0  0  0
   47.3907   33.9770   41.3968 C   0  0  2  0  0  0  0  0  0  0  0  0
   44.6501   36.8110   43.0163 N   0  0  0  0  0  0  0  0  0  0  0  0
   43.8850   36.1345   45.5241 H   0  0  0  0  0  0  0  0  0  0  0  0
   46.4689   32.7339   45.8485 H   0  0  0  0  0  0  0  0  0  0  0  0
   45.9555   35.7006   41.3506 H   0  0  0  0  0  0  0  0  0  0  0  0
   48.3429   36.0281   41.2091 H   0  0  0  0  0  0  0  0  0  0  0  0
   48.6177   35.2220   42.8693 H   0  0  0  0  0  0  0  0  0  0  0  0
   47.6216   33.0969   42.0821 H   0  0  0  0  0  0  0  0  0  0  0  0
   45.3039   37.5924   43.2480 H   0  0  0  0  0  0  0  0  0  0  0  0
   43.8433   36.7494   42.3754 H   0  0  0  0  0  0  0  0  0  0  0  0
   45.4189   32.0134   40.8378 H   0  0  0  0  0  0  0  0  0  0  0  0
   45.4304   32.3085   39.5017 S   0  0  0  0  0  0  0  0  0  0  0  0
   45.2610   30.9578   38.8112 O   0  0  0  0  0  0  0  0  0  0  0  0
   44.2578   33.1886   39.2126 O   0  0  0  0  0  0  0  0  0  0  0  0
   46.9298   33.0157   39.0093 C   0  0  0  0  0  0  0  0  0  0  0  0
   47.6327   33.6702   39.9677 C   0  0  0  0  0  0  0  0  0  0  0  0
   48.8591   34.2225   39.5702 C   0  0  0  0  0  0  0  0  0  0  0  0
   49.5696   34.7846   40.1920 H   0  0  0  0  0  0  0  0  0  0  0  0
   49.3285   34.1078   38.2696 C   0  0  0  0  0  0  0  0  0  0  0  0
   50.2630   34.5138   37.9144 H   0  0  0  0  0  0  0  0  0  0  0  0
   48.5887   33.4422   37.3393 C   0  0  0  0  0  0  0  0  0  0  0  0
   47.3822   32.8940   37.7153 C   0  0  0  0  0  0  0  0  0  0  0  0
   48.8498   33.2897   36.3022 H   0  0  0  0  0  0  0  0  0  0  0  0
   46.7391   32.3520   37.0355 H   0  0  0  0  0  0  0  0  0  0  0  0
  1  6  2  0
  2  1  1  0
  3  2  2  0
  3  4  1  0
  4  5  2  0
  5  6  1  0
  7  3  1  0
  8  7  1  0
  9  8  1  0
  9  7  1  0
 10  2  1  0
  1 11  1  0
  5 12  1  0
  7 13  1  6
  8 14  1  0
  8 15  1  0
  9 16  1  1
 10 17  1  0
 10 18  1  0
 19 20  1  0
 20 21  2  0
 20 22  2  0
 20 23  1  0
 23 24  2  0
 24 25  1  0
 25 26  1  0
 25 27  2  0
 27 28  1  0
 27 29  1  0
 29 30  2  0
 30 23  1  0
 29 31  1  0
 30 32  1  0
  9 24  1  0
M  ISO  8  11  14  12  14  13  13  14  13  15  13  16  13  19  12  26  15
M  ISO  1  28  16
M  END
>  <DihAtoms>  (1) 
7,8,23,22

>  <DihDeg>  (1) 
-106.08923943840409

$$$$
