
 OpenBabel03252507323D

 52 55  0  0  1  0  0  0  0  0999 V2000
   46.9490   32.7410   45.5960 C   0  0  0  0  0  0  0  0  0  0  0  0
   45.8820   33.4340   46.1520 C   0  0  0  0  0  0  0  0  0  0  0  0
   45.1980   34.4020   45.3800 C   0  0  0  0  0  0  0  0  0  0  0  0
   45.6600   34.5970   44.0820 N   0  0  0  0  0  0  0  0  0  0  0  0
   46.6970   33.8960   43.6070 C   0  0  0  0  0  0  0  0  0  0  0  0
   47.3290   32.9850   44.3480 N   0  0  0  0  0  0  0  0  0  0  0  0
   45.3960   33.4740   47.1050 H   0  0  0  0  0  0  0  0  0  0  0  0
   44.3760   35.0170   45.6300 H   0  0  0  0  0  0  0  0  0  0  0  0
   47.6000   31.7440   46.4220 C   0  0  2  0  0  0  0  0  0  0  0  0
   47.3660   30.3040   45.8720 C   0  0  0  0  0  0  0  0  0  0  0  0
   48.1880   29.3390   46.6530 C   0  0  0  0  0  0  0  0  0  0  0  0
   48.1680   29.5140   48.1360 C   0  0  0  0  0  0  0  0  0  0  0  0
   48.1540   30.8880   48.5720 C   0  0  0  0  0  0  0  0  0  0  0  0
   47.1560   31.7790   47.8010 C   0  0  2  0  0  0  0  0  0  0  0  0
   48.6990   31.8590   46.3250 H   0  0  0  0  0  0  0  0  0  0  0  0
   46.2950   30.0870   45.8170 H   0  0  0  0  0  0  0  0  0  0  0  0
   47.7290   30.3630   44.8250 H   0  0  0  0  0  0  0  0  0  0  0  0
   49.1840   29.3170   46.1710 H   0  0  0  0  0  0  0  0  0  0  0  0
   47.7570   28.3150   46.4460 H   0  0  0  0  0  0  0  0  0  0  0  0
   49.2810   29.2600   48.3600 H   0  0  0  0  0  0  0  0  0  0  0  0
   47.7980   28.6900   48.7460 H   0  0  0  0  0  0  0  0  0  0  0  0
   49.1070   31.4700   48.5640 H   0  0  0  0  0  0  0  0  0  0  0  0
   47.7960   30.9480   49.6410 H   0  0  0  0  0  0  0  0  0  0  0  0
   47.2700   32.7260   48.3300 H   0  0  0  0  0  0  0  0  0  0  0  0
   45.8230   31.1840   47.9140 N   0  0  0  0  0  0  0  0  0  0  0  0
   45.1360   30.6290   49.0070 C   0  0  0  0  0  0  0  0  0  0  0  0
   44.5840   31.3430   49.9200 O   0  0  0  0  0  0  0  0  0  0  0  0
   45.0910   29.2030   49.0220 N   0  0  0  0  0  0  0  0  0  0  0  0
   45.1820   31.0410   47.0430 H   0  0  0  0  0  0  0  0  0  0  0  0
   44.6540   28.6190   48.2800 H   0  0  0  0  0  0  0  0  0  0  0  0
   45.3820   28.3710   49.5960 H   0  0  0  0  0  0  0  0  0  0  0  0
   47.1470   34.1650   42.2380 C   0  0  0  0  0  0  0  0  0  0  0  0
   48.1830   35.0250   41.9860 C   0  0  0  0  0  0  0  0  0  0  0  0
   48.6400   35.3080   40.7150 C   0  0  0  0  0  0  0  0  0  0  0  0
   47.9790   34.6590   39.6780 C   0  0  0  0  0  0  0  0  0  0  0  0
   46.9380   33.7950   39.9180 C   0  0  0  0  0  0  0  0  0  0  0  0
   46.5470   33.5670   41.2000 N   0  0  0  0  0  0  0  0  0  0  0  0
   48.6540   35.4950   42.8280 H   0  0  0  0  0  0  0  0  0  0  0  0
   49.4580   35.9920   40.5760 H   0  0  0  0  0  0  0  0  0  0  0  0
   48.3520   34.8960   38.6990 H   0  0  0  0  0  0  0  0  0  0  0  0
   44.8660   33.1430   38.7600 C   0  0  0  0  0  0  0  0  0  0  0  0
   46.2500   33.1200   38.8380 C   0  0  0  0  0  0  0  0  0  0  0  0
   46.9240   32.4350   37.8510 C   0  0  0  0  0  0  0  0  0  0  0  0
   48.0010   32.3650   37.8320 H   0  0  0  0  0  0  0  0  0  0  0  0
   46.3130   31.7760   36.8030 C   0  0  0  0  0  0  0  0  0  0  0  0
   46.8690   31.2430   36.0370 H   0  0  0  0  0  0  0  0  0  0  0  0
   44.9520   31.7850   36.7060 C   0  0  0  0  0  3  0  0  0  0  0  0
   44.2660   32.4680   37.6880 C   0  0  0  0  0  3  0  0  0  0  0  0
   44.5660   34.9350   40.6180 H   0  0  0  0  0  0  0  0  0  0  0  0
   43.8650   33.9680   39.9320 S   0  0  0  0  0  0  0  0  0  0  0  0
   42.8010   34.7400   39.1600 O   0  0  0  0  0  0  0  0  0  0  0  0
   43.1530   33.0170   40.8550 O   0  0  0  0  0  0  0  0  0  0  0  0
  1  2  1  0  0  0  0
  1  9  1  0  0  0  0
  2  7  1  0  0  0  0
  3  8  1  0  0  0  0
  3  2  2  0  0  0  0
  4  3  1  0  0  0  0
  5  4  2  0  0  0  0
  5  6  1  0  0  0  0
  6  1  2  0  0  0  0
  9 15  1  6  0  0  0
  9 14  1  0  0  0  0
 10  9  1  0  0  0  0
 10 11  1  0  0  0  0
 11 12  1  0  0  0  0
 12 20  1  0  0  0  0
 12 13  1  0  0  0  0
 12 21  1  0  0  0  0
 13 23  1  0  0  0  0
 14 25  1  0  0  0  0
 14 24  1  1  0  0  0
 14 13  1  0  0  0  0
 16 10  1  0  0  0  0
 17 10  1  0  0  0  0
 18 11  1  0  0  0  0
 19 11  1  0  0  0  0
 22 13  1  0  0  0  0
 25 26  1  0  0  0  0
 26 28  1  0  0  0  0
 26 27  2  0  0  0  0
 28 31  1  0  0  0  0
 29 25  1  0  0  0  0
 30 28  1  0  0  0  0
 32  5  1  0  0  0  0
 33 32  1  0  0  0  0
 33 38  1  0  0  0  0
 34 33  2  0  0  0  0
 35 36  2  0  0  0  0
 35 34  1  0  0  0  0
 36 37  1  0  0  0  0
 37 32  2  0  0  0  0
 39 34  1  0  0  0  0
 40 35  1  0  0  0  0
 41 42  1  0  0  0  0
 41 50  1  0  0  0  0
 42 36  1  0  0  0  0
 43 42  2  0  0  0  0
 44 43  1  0  0  0  0
 45 43  1  0  0  0  0
 46 45  1  0  0  0  0
 47 45  2  0  0  0  0
 47 48  1  0  0  0  0
 48 41  2  0  0  0  0
 50 49  1  0  0  0  0
 50 52  2  0  0  0  0
 51 50  2  0  0  0  0
M  END
>  <minimizedAffinity>
-6.4867425

>  <minimizedRMSD>
0.468992561

$$$$
