
     RDKit          3D

 35 37  0  0  0  0  0  0  0  0999 V2000
   45.4613   34.0138   45.3576 C   0  0  0  0  0  0  0  0  0  0  0  0
   44.6499   35.1351   45.5959 C   0  0  0  0  0  0  0  0  0  0  0  0
   44.5566   36.1436   44.6003 C   0  0  0  0  0  0  0  0  0  0  0  0
   45.2805   35.9440   43.4565 N   0  0  0  0  0  0  0  0  0  0  0  0
   46.0461   34.8585   43.2634 C   0  0  0  0  0  0  0  0  0  0  0  0
   46.1284   33.9106   44.2095 N   0  0  0  0  0  0  0  0  0  0  0  0
   45.5404   33.0251   46.3570 N   0  0  0  0  0  0  0  0  0  0  0  0
   45.0863   33.3501   41.1364 F   0  0  0  0  0  0  0  0  0  0  0  0
   46.2565   33.9621   40.9756 C   0  0  0  0  0  0  0  0  0  0  0  0
   46.7891   34.7299   42.0006 C   0  0  0  0  0  0  0  0  0  0  0  0
   47.9923   35.3859   41.8953 C   0  0  0  0  0  0  0  0  0  0  0  0
   48.7333   35.2944   40.7185 C   0  0  0  0  0  0  0  0  0  0  0  0
   48.1622   34.5138   39.7153 C   0  0  0  0  0  0  0  0  0  0  0  0
   46.9602   33.8489   39.7990 C   0  0  0  0  0  0  0  0  0  0  0  0
   44.0797   35.2840   46.5067 H   0  0  0  0  0  0  0  0  0  0  0  0
   43.9471   37.0240   44.7351 H   0  0  0  0  0  0  0  0  0  0  0  0
   44.8620   32.9843   47.1472 H   0  0  0  0  0  0  0  0  0  0  0  0
   46.2610   32.2843   46.3794 H   0  0  0  0  0  0  0  0  0  0  0  0
   48.3781   35.9776   42.7175 H   0  0  0  0  0  0  0  0  0  0  0  0
   49.6664   35.7916   40.6110 H   0  0  0  0  0  0  0  0  0  0  0  0
   48.7601   34.4597   38.8101 H   0  0  0  0  0  0  0  0  0  0  0  0
   47.0033   31.5228   41.1694 H   0  0  0  0  0  0  0  0  0  0  0  0
   47.1452   30.8489   40.0016 S   0  0  0  0  0  0  0  0  0  0  0  0
   46.4533   29.5134   40.0953 O   0  0  0  0  0  0  0  0  0  0  0  0
   48.5972   30.5522   39.6713 O   0  0  0  0  0  0  0  0  0  0  0  0
   46.4958   31.6850   38.6175 C   0  0  0  0  0  0  0  0  0  0  0  0
   46.4756   33.0620   38.6682 C   0  0  0  0  0  0  0  0  0  0  0  0
   45.9578   33.7470   37.5658 C   0  0  0  0  0  0  0  0  0  0  0  0
   45.9319   34.8462   37.5845 H   0  0  0  0  0  0  0  0  0  0  0  0
   45.4862   33.0512   36.4705 C   0  0  0  0  0  0  0  0  0  0  0  0
   45.0823   33.6105   35.6121 H   0  0  0  0  0  0  0  0  0  0  0  0
   45.5089   31.6657   36.4247 C   0  0  0  0  0  0  0  0  0  0  0  0
   46.0251   31.0113   37.5256 C   0  0  0  0  0  0  0  0  0  0  0  0
   45.1415   31.1083   35.5702 H   0  0  0  0  0  0  0  0  0  0  0  0
   46.0442   29.9128   37.4918 H   0  0  0  0  0  0  0  0  0  0  0  0
  1  2  2  0
  1  7  1  0
  3  2  1  0
  4  3  2  0
  5  4  1  0
  5  6  2  0
  6  1  1  0
  9  8  1  0
  9 10  2  0
 10  5  1  0
 11 10  1  0
 12 11  2  0
 13 14  2  0
 13 12  1  0
 14  9  1  0
  2 15  1  0
  3 16  1  0
  7 17  1  0
  7 18  1  0
 11 19  1  0
 12 20  1  0
 13 21  1  0
 22 23  1  0
 23 24  2  0
 23 25  2  0
 23 26  1  0
 26 27  2  0
 27 28  1  0
 28 29  1  0
 28 30  2  0
 30 31  1  0
 30 32  1  0
 32 33  2  0
 33 26  1  0
 32 34  1  0
 33 35  1  0
 14 27  1  0
M  ISO  8  15  14  16  14  19  14  20  14  21  14  22  12  29  15  31  16
M  END
>  <DihAtoms>  (1) 
12,13,26,25

>  <DihDeg>  (1) 
-90.00057672008622

$$$$
