
 OpenBabel03252509083D

 44 47  0  0  0  0  0  0  0  0999 V2000
   47.4650   31.7220   39.2560 C   0  0  0  0  0  0  0  0  0  0  0  0
   47.0780   33.0220   39.1250 C   0  0  0  0  0  0  0  0  0  0  0  0
   47.7450   33.8490   38.2360 C   0  0  0  0  0  0  0  0  0  0  0  0
   48.7910   33.3800   37.4870 C   0  0  0  0  0  0  0  0  0  0  0  0
   49.2200   32.0630   37.5890 C   0  0  0  0  0  0  0  0  0  0  0  0
   48.5350   31.2440   38.4890 C   0  0  0  0  0  0  0  0  0  0  0  0
   47.4650   34.8750   38.1080 H   0  0  0  0  0  0  0  0  0  0  0  0
   49.3360   33.9680   36.7930 H   0  0  0  0  0  0  0  0  0  0  0  0
   50.0190   31.6020   37.0540 H   0  0  0  0  0  0  0  0  0  0  0  0
   48.8430   30.1920   38.6000 H   0  0  0  0  0  0  0  0  0  0  0  0
   45.3890   35.6870   43.2130 Cl  0  0  0  0  0  0  0  0  0  0  0  0
   45.1710   34.8160   41.7140 C   0  0  0  0  0  0  0  0  0  0  0  0
   46.2340   34.2910   41.0520 C   0  0  0  0  0  0  0  0  0  0  0  0
   45.9740   33.6260   39.8620 C   0  0  0  0  0  0  0  0  0  0  0  0
   44.7110   33.5110   39.3800 C   0  0  0  0  0  0  0  0  0  0  0  0
   43.6480   34.0320   40.0370 C   0  0  0  0  0  0  0  0  0  0  0  0
   43.8920   34.6920   41.2220 C   0  0  0  0  0  0  0  0  0  0  0  0
   44.5370   32.9980   38.4540 H   0  0  0  0  0  0  0  0  0  0  0  0
   42.6530   33.9200   39.6270 H   0  0  0  0  0  0  0  0  0  0  0  0
   43.0300   35.1060   41.7430 H   0  0  0  0  0  0  0  0  0  0  0  0
   49.6200   35.7570   41.9090 C   0  0  0  0  0  0  0  0  0  0  0  0
   48.3350   35.6030   41.3810 C   0  0  0  0  0  0  0  0  0  0  0  0
   47.5780   34.4600   41.5980 C   0  0  0  0  0  0  0  0  0  0  0  0
   48.1780   33.5310   42.3480 N   0  0  0  0  0  0  0  0  0  0  0  0
   49.4080   33.6670   42.8590 C   0  0  0  0  0  0  0  0  0  0  0  0
   50.1230   34.7700   42.6420 N   0  0  0  0  0  0  0  0  0  0  0  0
   50.1510   36.6580   41.7060 H   0  0  0  0  0  0  0  0  0  0  0  0
   47.9060   36.4050   40.7770 H   0  0  0  0  0  0  0  0  0  0  0  0
   49.6860   32.7850   43.4330 H   0  0  0  0  0  0  0  0  0  0  0  0
   46.7420   30.6810   40.3750 S   0  0  0  0  0  0  0  0  0  0  0  0
   46.8460   29.2260   39.8030 O   0  0  0  0  0  0  0  0  0  0  0  0
   47.6260   30.6370   41.5890 O   0  0  0  0  0  0  0  0  0  0  0  0
   44.5060   30.8550   42.0270 C   0  0  0  0  0  0  0  0  0  0  0  0
   45.0620   30.6330   40.7430 C   0  0  0  0  0  0  0  0  0  0  0  0
   44.0370   30.3810   39.8400 C   0  0  0  0  0  0  0  0  0  0  0  0
   44.3080   30.2100   38.8050 H   0  0  0  0  0  0  0  0  0  0  0  0
   42.6850   30.3360   40.0890 C   0  0  0  0  0  0  0  0  0  0  0  0
   41.9690   30.1300   39.3080 H   0  0  0  0  0  0  0  0  0  0  0  0
   42.2990   30.5670   41.3700 C   0  0  0  0  0  3  0  0  0  0  0  0
   43.1780   30.8340   42.3850 C   0  0  0  0  0  3  0  0  0  0  0  0
   46.9060   31.4090   42.8930 H   0  0  0  0  0  0  0  0  0  0  0  0
   45.6370   31.2720   43.3310 S   0  0  0  0  0  0  0  0  0  0  0  0
   45.6620   30.1480   44.3550 O   0  0  0  0  0  0  0  0  0  0  0  0
   45.0710   32.4510   44.0330 O   0  0  0  0  0  0  0  0  0  0  0  0
  1 30  1  0  0  0  0
  2  1  1  0  0  0  0
  2 14  1  0  0  0  0
  3  2  2  0  0  0  0
  4  5  2  0  0  0  0
  4  3  1  0  0  0  0
  5  6  1  0  0  0  0
  6 10  1  0  0  0  0
  6  1  2  0  0  0  0
  7  3  1  0  0  0  0
  8  4  1  0  0  0  0
  9  5  1  0  0  0  0
 12 11  1  0  0  0  0
 13 23  1  0  0  0  0
 13 12  2  0  0  0  0
 14 13  1  0  0  0  0
 15 14  2  0  0  0  0
 15 16  1  0  0  0  0
 16 17  2  0  0  0  0
 17 12  1  0  0  0  0
 17 20  1  0  0  0  0
 18 15  1  0  0  0  0
 19 16  1  0  0  0  0
 21 26  1  0  0  0  0
 22 23  1  0  0  0  0
 22 21  2  0  0  0  0
 23 24  2  0  0  0  0
 24 25  1  0  0  0  0
 25 29  1  0  0  0  0
 26 25  2  0  0  0  0
 27 21  1  0  0  0  0
 28 22  1  0  0  0  0
 30 34  1  0  0  0  0
 30 32  2  0  0  0  0
 31 30  2  0  0  0  0
 33 40  1  0  0  0  0
 33 42  1  0  0  0  0
 34 33  2  0  0  0  0
 35 37  2  0  0  0  0
 35 34  1  0  0  0  0
 36 35  1  0  0  0  0
 37 39  1  0  0  0  0
 38 37  1  0  0  0  0
 39 40  2  0  0  0  0
 41 42  1  0  0  0  0
 42 44  2  0  0  0  0
 42 43  2  0  0  0  0
M  END
>  <minimizedAffinity>
-4.76499319

>  <minimizedRMSD>
1.17952955

$$$$
