
     RDKit          3D

 29 30  0  0  0  0  0  0  0  0999 V2000
   47.2765   34.1965   43.2959 C   0  0  0  0  0  0  0  0  0  0  0  0
   46.6287   35.1843   42.5653 C   0  0  0  0  0  0  0  0  0  0  0  0
   45.3748   35.6461   43.0283 C   0  0  0  0  0  0  0  0  0  0  0  0
   44.8801   35.0840   44.1744 N   0  0  0  0  0  0  0  0  0  0  0  0
   45.5524   34.1186   44.8553 C   0  0  0  0  0  0  0  0  0  0  0  0
   46.7481   33.6870   44.4024 N   0  0  0  0  0  0  0  0  0  0  0  0
   48.5750   33.6624   42.8846 C   0  0  0  0  0  0  0  0  0  0  0  0
   49.4985   34.8182   42.5558 C   0  0  0  0  0  0  0  0  0  0  0  0
   47.0404   35.5970   41.6827 H   0  0  0  0  0  0  0  0  0  0  0  0
   44.8149   36.4167   42.5045 H   0  0  0  0  0  0  0  0  0  0  0  0
   45.1359   33.6897   45.7627 H   0  0  0  0  0  0  0  0  0  0  0  0
   48.4342   33.1019   41.9294 H   0  0  0  0  0  0  0  0  0  0  0  0
   49.0775   33.0819   43.6523 H   0  0  0  0  0  0  0  0  0  0  0  0
   49.6390   35.5278   43.3673 H   0  0  0  0  0  0  0  0  0  0  0  0
   49.0608   35.3208   41.6450 H   0  0  0  0  0  0  0  0  0  0  0  0
   48.8208   31.7738   42.4192 H   0  0  0  0  0  0  0  0  0  0  0  0
   49.9037   31.9752   43.2199 S   0  0  0  0  0  0  0  0  0  0  0  0
   49.4977   32.5854   44.5529 O   0  0  0  0  0  0  0  0  0  0  0  0
   50.4738   30.5963   43.4964 O   0  0  0  0  0  0  0  0  0  0  0  0
   51.0923   32.9418   42.4113 C   0  0  0  0  0  0  0  0  0  0  0  0
   50.8232   34.2684   42.1365 C   0  0  0  0  0  0  0  0  0  0  0  0
   51.8045   34.9936   41.4905 C   0  0  0  0  0  0  0  0  0  0  0  0
   51.6114   36.0145   41.2729 H   0  0  0  0  0  0  0  0  0  0  0  0
   53.0098   34.4367   41.1259 C   0  0  0  0  0  0  0  0  0  0  0  0
   53.7635   35.0324   40.6182 H   0  0  0  0  0  0  0  0  0  0  0  0
   53.2865   33.1227   41.3935 C   0  0  0  0  0  0  0  0  0  0  0  0
   52.3136   32.3840   42.0400 C   0  0  0  0  0  0  0  0  0  0  0  0
   54.2227   32.6917   41.1099 H   0  0  0  0  0  0  0  0  0  0  0  0
   52.5677   31.3461   42.2358 H   0  0  0  0  0  0  0  0  0  0  0  0
  1  6  2  0
  2  3  2  0
  2  1  1  0
  3  4  1  0
  4  5  2  0
  6  5  1  0
  7  1  1  0
  8  7  1  0
  2  9  1  0
  3 10  1  0
  5 11  1  0
  7 12  1  0
  7 13  1  0
  8 14  1  0
  8 15  1  0
 16 17  1  0
 17 18  2  0
 17 19  2  0
 17 20  1  0
 20 21  2  0
 21 22  1  0
 22 23  1  0
 22 24  2  0
 24 25  1  0
 24 26  1  0
 26 27  2  0
 27 20  1  0
 26 28  1  0
 27 29  1  0
  8 21  1  0
M  ISO  8   9  14  10  14  11  14  12   8  13   8  14   8  15   8  16  12
M  ISO  2  23  15  25  16
M  END
>  <DihAtoms>  (1) 
6,7,20,19

>  <DihDeg>  (1) 
-179.96319898782065

$$$$
