
 OpenBabel03242513083D

 44 48  0  0  0  0  0  0  0  0999 V2000
   45.9500   33.3580   41.5640 C   0  0  0  0  0  0  0  0  0  0  0  0
   47.1510   34.0100   41.2970 C   0  0  0  0  0  0  0  0  0  0  0  0
   48.0940   34.0050   42.3020 C   0  0  0  0  0  0  0  0  0  0  0  0
   47.7840   33.3690   43.4690 N   0  0  0  0  0  0  0  0  0  0  0  0
   46.6350   32.7520   43.7060 C   0  0  0  0  0  0  0  0  0  0  0  0
   45.6940   32.7420   42.7400 N   0  0  0  0  0  0  0  0  0  0  0  0
   45.1310   33.2900   40.8620 H   0  0  0  0  0  0  0  0  0  0  0  0
   46.4650   30.7330   45.0990 C   0  0  0  0  0  0  0  0  0  0  0  0
   46.3980   32.1040   44.9800 C   0  0  0  0  0  0  0  0  0  0  0  0
   46.1020   32.9490   46.0660 C   0  0  0  0  0  0  0  0  0  0  0  0
   45.8640   32.3870   47.3160 C   0  0  0  0  0  0  0  0  0  0  0  0
   45.5590   32.8670   48.5510 N   0  0  0  0  0  0  0  0  0  0  0  0
   45.4460   31.7910   49.3960 C   0  0  0  0  0  0  0  0  0  0  0  0
   45.6820   30.6840   48.6700 N   0  0  0  0  0  0  0  0  0  0  0  0
   45.9400   31.0190   47.3970 C   0  0  0  0  0  0  0  0  0  0  0  0
   46.2300   30.1580   46.3470 C   0  0  0  0  0  0  0  0  0  0  0  0
   46.6940   30.0960   44.2610 H   0  0  0  0  0  0  0  0  0  0  0  0
   46.0470   34.0170   45.9770 H   0  0  0  0  0  0  0  0  0  0  0  0
   45.4620   33.8990   48.6720 H   0  0  0  0  0  0  0  0  0  0  0  0
   45.2030   32.0520   50.4230 H   0  0  0  0  0  0  0  0  0  0  0  0
   46.2710   29.0880   46.4900 H   0  0  0  0  0  0  0  0  0  0  0  0
   49.3970   34.6800   42.0880 C   0  0  0  0  0  0  0  0  0  0  0  0
   49.2340   35.8140   41.2790 F   0  0  0  0  0  0  0  0  0  0  0  0
   49.9070   35.1340   43.2820 F   0  0  0  0  0  0  0  0  0  0  0  0
   50.2470   33.7940   41.4730 F   0  0  0  0  0  0  0  0  0  0  0  0
   47.3310   34.6030   40.0930 O   0  0  0  0  0  0  0  0  0  0  0  0
   47.3140   33.9010   38.9110 C   0  0  0  0  0  0  0  0  0  0  0  0
   48.5620   34.1820   38.3530 C   0  0  0  0  0  0  0  0  0  0  0  0
   48.5300   33.2330   36.7660 S   0  0  0  0  0  0  0  0  0  0  0  0
   46.8040   32.6170   37.1500 C   0  0  0  0  0  0  0  0  0  0  0  0
   46.6520   33.1140   38.1220 N   0  0  0  0  0  0  0  0  0  0  0  0
   49.5670   34.7340   38.4560 H   0  0  0  0  0  0  0  0  0  0  0  0
   45.9580   30.3840   36.5780 C   0  0  0  0  0  0  0  0  0  0  0  0
   46.0450   31.7080   36.2340 C   0  0  0  0  0  0  0  0  0  0  0  0
   45.4900   32.2770   35.1100 C   0  0  0  0  0  0  0  0  0  0  0  0
   45.5800   33.3290   34.8700 H   0  0  0  0  0  0  0  0  0  0  0  0
   44.7850   31.4660   34.2480 C   0  0  0  0  0  0  0  0  0  0  0  0
   44.3390   31.8900   33.3570 H   0  0  0  0  0  0  0  0  0  0  0  0
   44.6710   30.1220   34.5540 C   0  0  0  0  0  0  0  0  0  0  0  0
   45.2480   29.5880   35.7030 C   0  0  0  0  0  0  0  0  0  0  0  0
   46.6510   28.4500   38.1030 H   0  0  0  0  0  0  0  0  0  0  0  0
   46.7250   29.8360   38.0430 S   0  0  0  0  0  0  0  0  0  0  0  0
   48.1960   30.1440   38.0880 O   0  0  0  0  0  0  0  0  0  0  0  0
   46.0140   30.3790   39.2550 O   0  0  0  0  0  0  0  0  0  0  0  0
  1  6  1  0  0  0  0
  2  1  2  0  0  0  0
  2  3  1  0  0  0  0
  3  4  2  0  0  0  0
  4  5  1  0  0  0  0
  5  9  1  0  0  0  0
  6  5  2  0  0  0  0
  7  1  1  0  0  0  0
  8 16  1  0  0  0  0
  9  8  2  0  0  0  0
  9 10  1  0  0  0  0
 10 11  2  0  0  0  0
 11 15  1  0  0  0  0
 11 12  1  0  0  0  0
 12 19  1  0  0  0  0
 12 13  1  0  0  0  0
 13 20  1  0  0  0  0
 14 13  2  0  0  0  0
 15 14  1  0  0  0  0
 16 21  1  0  0  0  0
 16 15  2  0  0  0  0
 17  8  1  0  0  0  0
 18 10  1  0  0  0  0
 22  3  1  0  0  0  0
 22 24  1  0  0  0  0
 23 22  1  0  0  0  0
 25 22  1  0  0  0  0
 26  2  1  0  0  0  0
 27 26  1  0  0  0  0
 28 32  1  0  0  0  0
 28 27  2  0  0  0  0
 29 30  1  0  0  0  0
 29 28  1  0  0  0  0
 30 31  2  0  0  0  0
 31 27  1  0  0  0  0
 33 42  1  0  0  0  0
 34 33  1  0  0  0  0
 34 30  1  0  0  0  0
 35 34  2  0  0  0  0
 36 35  1  0  0  0  0
 37 39  2  0  0  0  0
 37 35  1  0  0  0  0
 38 37  1  0  0  0  0
 39 40  1  0  0  0  0
 40 33  2  0  0  0  0
 42 43  2  0  0  0  0
 42 41  1  0  0  0  0
 42 44  2  0  0  0  0
M  END
>  <minimizedAffinity>
-6.18724203

>  <minimizedRMSD>
0.95319134

$$$$
