
 OpenBabel03252506093D

 33 35  0  0  0  0  0  0  0  0999 V2000
   45.1960   33.2660   41.1410 F   0  0  0  0  0  0  0  0  0  0  0  0
   46.3460   33.9110   40.9600 C   0  0  0  0  0  0  0  0  0  0  0  0
   46.8320   34.7610   41.9420 C   0  0  0  0  0  0  0  0  0  0  0  0
   48.0120   35.4540   41.8130 C   0  0  0  0  0  0  0  0  0  0  0  0
   48.7760   35.3160   40.6550 C   0  0  0  0  0  0  0  0  0  0  0  0
   48.2510   34.4530   39.6950 C   0  0  0  0  0  0  0  0  0  0  0  0
   47.0730   33.7500   39.8030 C   0  0  0  0  0  0  0  0  0  0  0  0
   48.3620   36.1100   42.6020 H   0  0  0  0  0  0  0  0  0  0  0  0
   49.6920   35.8410   40.5310 H   0  0  0  0  0  0  0  0  0  0  0  0
   48.8660   34.3650   38.8040 H   0  0  0  0  0  0  0  0  0  0  0  0
   45.4820   34.2140   45.3220 C   0  0  0  0  0  0  0  0  0  0  0  0
   44.6180   35.3110   45.4720 C   0  0  0  0  0  0  0  0  0  0  0  0
   44.4960   36.2450   44.4080 C   0  0  0  0  0  0  0  0  0  0  0  0
   45.2470   36.0010   43.2900 N   0  0  0  0  0  0  0  0  0  0  0  0
   46.0630   34.9400   43.1820 C   0  0  0  0  0  0  0  0  0  0  0  0
   46.1710   34.0640   44.1920 N   0  0  0  0  0  0  0  0  0  0  0  0
   44.0270   35.4950   46.3630 H   0  0  0  0  0  0  0  0  0  0  0  0
   43.8460   37.1030   44.4740 H   0  0  0  0  0  0  0  0  0  0  0  0
   45.5880   33.3000   46.3870 N   0  0  0  0  0  0  0  0  0  0  0  0
   44.8990   33.2810   47.1690 H   0  0  0  0  0  0  0  0  0  0  0  0
   46.3410   32.5950   46.4700 H   0  0  0  0  0  0  0  0  0  0  0  0
   46.9000   31.5250   38.6590 C   0  0  0  0  0  0  0  0  0  0  0  0
   46.6370   32.8760   38.7180 C   0  0  0  0  0  0  0  0  0  0  0  0
   45.9090   33.4450   37.6700 C   0  0  0  0  0  0  0  0  0  0  0  0
   45.6880   34.5220   37.6960 H   0  0  0  0  0  0  0  0  0  0  0  0
   45.4730   32.6630   36.6180 C   0  0  0  0  0  0  0  0  0  0  0  0
   44.8990   33.1320   35.8020 H   0  0  0  0  0  0  0  0  0  0  0  0
   45.7390   31.3040   36.5640 C   0  0  0  0  0  3  0  0  0  0  0  0
   46.4620   30.7660   37.6100 C   0  0  0  0  0  3  0  0  0  0  0  0
   48.6610   31.7050   40.5710 H   0  0  0  0  0  0  0  0  0  0  0  0
   47.8110   30.8340   39.9740 S   0  0  0  0  0  0  0  0  0  0  0  0
   46.8250   30.3070   40.9850 O   0  0  0  0  0  0  0  0  0  0  0  0
   48.5220   29.6210   39.4020 O   0  0  0  0  0  0  0  0  0  0  0  0
  2  1  1  0  0  0  0
  2  3  1  0  0  0  0
  3 15  1  0  0  0  0
  4  3  2  0  0  0  0
  4  8  1  0  0  0  0
  5  4  1  0  0  0  0
  6  7  1  0  0  0  0
  6  5  2  0  0  0  0
  7  2  2  0  0  0  0
  9  5  1  0  0  0  0
 10  6  1  0  0  0  0
 11 12  1  0  0  0  0
 11 19  1  0  0  0  0
 12 17  1  0  0  0  0
 13 18  1  0  0  0  0
 13 12  2  0  0  0  0
 14 13  1  0  0  0  0
 15 14  2  0  0  0  0
 15 16  1  0  0  0  0
 16 11  2  0  0  0  0
 19 21  1  0  0  0  0
 19 20  1  0  0  0  0
 22 23  1  0  0  0  0
 22 31  1  0  0  0  0
 23  7  1  0  0  0  0
 24 25  1  0  0  0  0
 24 23  2  0  0  0  0
 26 24  1  0  0  0  0
 27 26  1  0  0  0  0
 28 26  2  0  0  0  0
 28 29  1  0  0  0  0
 29 22  2  0  0  0  0
 31 30  1  0  0  0  0
 31 32  2  0  0  0  0
 33 31  2  0  0  0  0
M  END
>  <minimizedAffinity>
-5.65509605

>  <minimizedRMSD>
2.30236793

$$$$
