
 OpenBabel03252502243D

 37 39  0  0  1  0  0  0  0  0999 V2000
   46.6480   34.4240   42.2880 N   0  0  0  0  0  0  0  0  0  0  0  0
   48.0760   34.1580   42.3190 C   0  0  0  0  0  0  0  0  0  0  0  0
   48.6200   34.9330   41.1030 C   0  0  0  0  0  0  0  0  0  0  0  0
   48.1010   34.3270   39.8380 C   0  0  0  0  0  0  0  0  0  0  0  0
   46.6660   33.9230   39.8890 C   0  0  0  0  0  0  0  0  0  0  0  0
   45.8960   34.4240   41.0600 C   0  0  1  0  0  0  0  0  0  0  0  0
   48.2380   33.0940   42.0700 H   0  0  0  0  0  0  0  0  0  0  0  0
   48.5430   34.4950   43.2430 H   0  0  0  0  0  0  0  0  0  0  0  0
   49.7270   34.8120   41.1310 H   0  0  0  0  0  0  0  0  0  0  0  0
   48.3910   36.0080   41.2120 H   0  0  0  0  0  0  0  0  0  0  0  0
   48.2900   35.0880   39.0290 H   0  0  0  0  0  0  0  0  0  0  0  0
   48.7850   33.4870   39.5680 H   0  0  0  0  0  0  0  0  0  0  0  0
   46.6340   32.8110   39.7560 H   0  0  0  0  0  0  0  0  0  0  0  0
   46.1710   34.3190   38.9780 H   0  0  0  0  0  0  0  0  0  0  0  0
   45.5760   35.4690   40.8800 H   0  0  0  0  0  0  0  0  0  0  0  0
   44.4790   36.0260   44.8750 C   0  0  0  0  0  0  0  0  0  0  0  0
   45.1340   35.8580   43.6420 C   0  0  0  0  0  0  0  0  0  0  0  0
   45.9380   34.6950   43.4990 C   0  0  0  0  0  0  0  0  0  0  0  0
   46.0210   33.8320   44.5490 N   0  0  0  0  0  0  0  0  0  0  0  0
   45.3590   34.0560   45.7180 C   0  0  0  0  0  0  0  0  0  0  0  0
   44.5900   35.1600   45.8660 N   0  0  0  0  0  0  0  0  0  0  0  0
   43.8740   36.9200   44.9590 H   0  0  0  0  0  0  0  0  0  0  0  0
   45.0630   36.5490   42.8110 H   0  0  0  0  0  0  0  0  0  0  0  0
   45.5310   33.2750   46.4490 H   0  0  0  0  0  0  0  0  0  0  0  0
   44.7650   33.6310   41.2230 O   0  0  0  0  0  0  0  0  0  0  0  0
   42.6060   32.9050   41.3240 C   0  0  0  0  0  0  0  0  0  0  0  0
   43.4670   33.9340   40.9240 C   0  0  0  0  0  0  0  0  0  0  0  0
   42.9290   35.0500   40.3180 C   0  0  0  0  0  0  0  0  0  0  0  0
   43.6700   35.7870   40.0450 H   0  0  0  0  0  0  0  0  0  0  0  0
   41.5740   35.1830   40.0960 C   0  0  0  0  0  0  0  0  0  0  0  0
   41.2440   36.0910   39.6130 H   0  0  0  0  0  0  0  0  0  0  0  0
   40.7350   34.1460   40.5030 C   0  0  0  0  0  3  0  0  0  0  0  0
   41.2260   33.0090   41.1130 C   0  0  0  0  0  3  0  0  0  0  0  0
   44.0660   31.6310   43.0520 H   0  0  0  0  0  0  0  0  0  0  0  0
   43.1170   31.4120   42.1100 S   0  0  0  0  0  0  0  0  0  0  0  0
   41.9520   30.7550   42.7430 O   0  0  0  0  0  0  0  0  0  0  0  0
   43.6260   30.5000   41.0150 O   0  0  0  0  0  0  0  0  0  0  0  0
  1  2  1  0  0  0  0
  1 18  1  0  0  0  0
  2  8  1  0  0  0  0
  3  9  1  0  0  0  0
  3 10  1  0  0  0  0
  3  2  1  0  0  0  0
  4  5  1  0  0  0  0
  4  3  1  0  0  0  0
  5  6  1  0  0  0  0
  6 15  1  6  0  0  0
  6 25  1  0  0  0  0
  6  1  1  0  0  0  0
  7  2  1  0  0  0  0
 11  4  1  0  0  0  0
 12  4  1  0  0  0  0
 13  5  1  0  0  0  0
 14  5  1  0  0  0  0
 16 22  1  0  0  0  0
 16 21  1  0  0  0  0
 17 16  2  0  0  0  0
 18 17  1  0  0  0  0
 18 19  2  0  0  0  0
 19 20  1  0  0  0  0
 20 21  2  0  0  0  0
 20 24  1  0  0  0  0
 23 17  1  0  0  0  0
 26 35  1  0  0  0  0
 27 25  1  0  0  0  0
 27 26  2  0  0  0  0
 28 27  1  0  0  0  0
 29 28  1  0  0  0  0
 30 28  2  0  0  0  0
 30 32  1  0  0  0  0
 31 30  1  0  0  0  0
 32 33  2  0  0  0  0
 33 26  1  0  0  0  0
 35 36  2  0  0  0  0
 35 34  1  0  0  0  0
 37 35  2  0  0  0  0
M  END
>  <minimizedAffinity>
-5.63979959

>  <minimizedRMSD>
1.12954485

$$$$
