
     RDKit          3D

 29 30  0  0  0  0  0  0  0  0999 V2000
   45.1889   35.2115   44.0620 C   0  0  0  0  0  0  0  0  0  0  0  0
   46.2160   34.5910   43.3616 C   0  0  0  0  0  0  0  0  0  0  0  0
   46.9004   33.5633   44.0599 C   0  0  0  0  0  0  0  0  0  0  0  0
   46.5135   33.2678   45.3270 N   0  0  0  0  0  0  0  0  0  0  0  0
   45.5151   33.9050   45.9426 C   0  0  0  0  0  0  0  0  0  0  0  0
   44.8487   34.8830   45.3061 N   0  0  0  0  0  0  0  0  0  0  0  0
   46.5559   34.9717   42.0035 C   0  0  1  0  0  0  0  0  0  0  0  0
   48.0575   35.1927   41.9434 C   0  0  0  0  0  0  0  0  0  0  0  0
   44.5933   36.0077   43.6436 H   0  0  0  0  0  0  0  0  0  0  0  0
   47.7100   33.0381   43.5774 H   0  0  0  0  0  0  0  0  0  0  0  0
   45.2590   33.6165   46.9562 H   0  0  0  0  0  0  0  0  0  0  0  0
   46.1280   35.9895   41.8168 H   0  0  0  0  0  0  0  0  0  0  0  0
   48.2493   36.0499   42.6542 H   0  0  0  0  0  0  0  0  0  0  0  0
   48.3356   35.5270   40.9160 H   0  0  0  0  0  0  0  0  0  0  0  0
   48.6447   34.3640   42.3388 H   0  0  0  0  0  0  0  0  0  0  0  0
   47.3406   36.2269   38.8620 H   0  0  0  0  0  0  0  0  0  0  0  0
   47.8235   34.9946   39.1522 S   0  0  0  0  0  0  0  0  0  0  0  0
   49.0011   34.9996   40.0861 O   0  0  0  0  0  0  0  0  0  0  0  0
   48.4007   34.4697   37.8373 O   0  0  0  0  0  0  0  0  0  0  0  0
   46.5469   33.9458   39.6537 C   0  0  0  0  0  0  0  0  0  0  0  0
   46.0948   34.0395   40.9460 C   0  0  0  0  0  0  0  0  0  0  0  0
   45.0683   33.1770   41.3392 C   0  0  0  0  0  0  0  0  0  0  0  0
   44.6216   33.1450   42.3213 H   0  0  0  0  0  0  0  0  0  0  0  0
   44.5134   32.2542   40.4701 C   0  0  0  0  0  0  0  0  0  0  0  0
   43.7297   31.5644   40.6932 H   0  0  0  0  0  0  0  0  0  0  0  0
   44.9964   32.1932   39.1793 C   0  0  0  0  0  0  0  0  0  0  0  0
   46.0089   33.0312   38.7627 C   0  0  0  0  0  0  0  0  0  0  0  0
   44.6399   31.5130   38.4104 H   0  0  0  0  0  0  0  0  0  0  0  0
   46.4217   33.0218   37.7617 H   0  0  0  0  0  0  0  0  0  0  0  0
  1  6  2  0
  2  1  1  0
  2  3  2  0
  3  4  1  0
  4  5  2  0
  6  5  1  0
  7  2  1  0
  8  7  1  0
  1  9  1  0
  3 10  1  0
  5 11  1  0
  7 12  1  6
  8 13  1  0
  8 14  1  0
  8 15  1  0
 16 17  1  0
 17 18  2  0
 17 19  2  0
 17 20  1  0
 20 21  2  0
 21 22  1  0
 22 23  1  0
 22 24  2  0
 24 25  1  0
 24 26  1  0
 26 27  2  0
 27 20  1  0
 26 28  1  0
 27 29  1  0
  7 21  1  0
M  ISO  8   9  14  10  14  11  14  12   8  13   8  14   8  15   8  16  12
M  ISO  2  23  15  25  16
M  END
>  <DihAtoms>  (1) 
1,6,20,19

>  <DihDeg>  (1) 
78.35443212979767

$$$$
