
 OpenBabel03252505433D

 45 48  0  0  1  0  0  0  0  0999 V2000
   47.3210   32.8550   40.3650 C   0  0  0  0  0  0  0  0  0  0  0  0
   48.3870   32.2340   40.9850 C   0  0  0  0  0  0  0  0  0  0  0  0
   49.5480   31.9260   40.3170 C   0  0  0  0  0  0  0  0  0  0  0  0
   49.6280   32.2490   39.0120 N   0  0  0  0  0  0  0  0  0  0  0  0
   48.5790   32.8630   38.3900 C   0  0  0  0  0  0  0  0  0  0  0  0
   47.4450   33.1630   39.0520 N   0  0  0  0  0  0  0  0  0  0  0  0
   48.2730   31.9950   42.0350 H   0  0  0  0  0  0  0  0  0  0  0  0
   50.3430   31.4390   40.8650 H   0  0  0  0  0  0  0  0  0  0  0  0
   45.0900   33.9240   40.3950 C   0  0  1  0  0  0  0  0  0  0  0  0
   45.8570   34.6030   41.5820 C   0  0  0  0  0  0  0  0  0  0  0  0
   46.0500   33.1580   41.1340 C   0  0  2  0  0  0  0  0  0  0  0  0
   45.3560   34.3700   39.3900 H   0  0  0  0  0  0  0  0  0  0  0  0
   46.5930   35.3600   41.2770 H   0  0  0  0  0  0  0  0  0  0  0  0
   45.2860   34.7680   42.5000 H   0  0  0  0  0  0  0  0  0  0  0  0
   45.8940   32.4250   41.9210 H   0  0  0  0  0  0  0  0  0  0  0  0
   43.6300   33.8440   40.6070 C   0  0  0  0  0  0  0  0  0  0  0  0
   43.1230   32.6980   41.2380 C   0  0  0  0  0  0  0  0  0  0  0  0
   41.7480   32.6100   41.4510 C   0  0  0  0  0  0  0  0  0  0  0  0
   40.9720   33.6390   41.0330 N   0  0  0  0  0  0  0  0  0  0  0  0
   41.4840   34.7150   40.4360 C   0  0  0  0  0  0  0  0  0  0  0  0
   42.8060   34.7890   40.2370 N   0  0  0  0  0  0  0  0  0  0  0  0
   43.7730   31.8830   41.5650 H   0  0  0  0  0  0  0  0  0  0  0  0
   41.2920   31.7450   41.9370 H   0  0  0  0  0  0  0  0  0  0  0  0
   40.4610   35.7490   40.0510 C   0  0  0  0  0  0  0  0  0  0  0  0
   40.8180   36.4000   38.8810 F   0  0  0  0  0  0  0  0  0  0  0  0
   40.4320   36.7500   41.0440 F   0  0  0  0  0  0  0  0  0  0  0  0
   39.2150   35.1870   40.0280 F   0  0  0  0  0  0  0  0  0  0  0  0
   48.6140   33.2300   36.9520 C   0  0  0  0  0  0  0  0  0  0  0  0
   49.4390   33.8990   36.6840 H   0  0  0  0  0  0  0  0  0  0  0  0
   47.6780   33.8050   36.6940 H   0  0  0  0  0  0  0  0  0  0  0  0
   48.5710   31.9990   36.0820 C   0  0  0  0  0  0  0  0  0  0  0  0
   49.0430   31.1590   36.6810 H   0  0  0  0  0  0  0  0  0  0  0  0
   49.2320   32.1360   35.2150 H   0  0  0  0  0  0  0  0  0  0  0  0
   46.6740   30.4260   36.2160 C   0  0  0  0  0  0  0  0  0  0  0  0
   47.2300   31.5710   35.6960 C   0  0  0  0  0  0  0  0  0  0  0  0
   46.4800   32.3070   34.7850 C   0  0  0  0  0  0  0  0  0  0  0  0
   46.9410   33.2100   34.3890 H   0  0  0  0  0  0  0  0  0  0  0  0
   45.1970   31.9820   34.3470 C   0  0  0  0  0  0  0  0  0  0  0  0
   44.7130   32.6250   33.6410 H   0  0  0  0  0  0  0  0  0  0  0  0
   44.6510   30.8190   34.8850 C   0  0  0  0  0  3  0  0  0  0  0  0
   45.3900   30.0850   35.7880 C   0  0  0  0  0  3  0  0  0  0  0  0
   46.8980   28.0880   37.1940 H   0  0  0  0  0  0  0  0  0  0  0  0
   47.4300   29.3630   37.3670 S   0  0  0  0  0  0  0  0  0  0  0  0
   48.9100   29.2140   37.1070 O   0  0  0  0  0  0  0  0  0  0  0  0
   47.1510   29.7130   38.7940 O   0  0  0  0  0  0  0  0  0  0  0  0
  1  2  1  0  0  0  0
  1 11  1  0  0  0  0
  2  7  1  0  0  0  0
  3  8  1  0  0  0  0
  3  2  2  0  0  0  0
  4  3  1  0  0  0  0
  5  4  2  0  0  0  0
  5  6  1  0  0  0  0
  6  1  2  0  0  0  0
  9 12  1  6  0  0  0
  9 16  1  0  0  0  0
  9 11  1  0  0  0  0
  9 10  1  0  0  0  0
 10 14  1  0  0  0  0
 11 10  1  0  0  0  0
 11 15  1  1  0  0  0
 13 10  1  0  0  0  0
 16 17  1  0  0  0  0
 17 18  2  0  0  0  0
 17 22  1  0  0  0  0
 18 23  1  0  0  0  0
 19 18  1  0  0  0  0
 20 19  2  0  0  0  0
 21 20  1  0  0  0  0
 21 16  2  0  0  0  0
 24 20  1  0  0  0  0
 24 26  1  0  0  0  0
 25 24  1  0  0  0  0
 27 24  1  0  0  0  0
 28  5  1  0  0  0  0
 29 28  1  0  0  0  0
 30 28  1  0  0  0  0
 31 32  1  0  0  0  0
 31 28  1  0  0  0  0
 33 31  1  0  0  0  0
 34 43  1  0  0  0  0
 35 31  1  0  0  0  0
 35 34  2  0  0  0  0
 36 35  1  0  0  0  0
 37 36  1  0  0  0  0
 38 36  2  0  0  0  0
 38 40  1  0  0  0  0
 39 38  1  0  0  0  0
 40 41  2  0  0  0  0
 41 34  1  0  0  0  0
 42 43  1  0  0  0  0
 43 45  2  0  0  0  0
 44 43  2  0  0  0  0
M  END
>  <minimizedAffinity>
-4.90873957

>  <minimizedRMSD>
8.79515266

$$$$
