
 OpenBabel03242518353D

 38 41  0  0  1  0  0  0  0  0999 V2000
   48.1080   33.8900   39.0850 C   0  0  0  0  0  0  0  0  0  0  0  0
   48.6260   34.4890   37.9340 C   0  0  0  0  0  0  0  0  0  0  0  0
   47.7440   34.3000   36.9000 C   0  0  0  0  0  0  0  0  0  0  0  0
   46.7120   33.5900   37.4560 C   0  0  0  0  0  0  0  0  0  0  0  0
   46.9400   33.3570   38.7320 O   0  0  0  0  0  0  0  0  0  0  0  0
   49.5900   34.9990   37.9710 H   0  0  0  0  0  0  0  0  0  0  0  0
   47.9060   34.6670   35.8980 H   0  0  0  0  0  0  0  0  0  0  0  0
   45.5060   33.1460   36.7340 C   0  0  2  0  0  0  0  0  0  0  0  0
   44.7770   31.9550   37.2060 C   0  0  0  0  0  0  0  0  0  0  0  0
   45.6560   31.7960   36.0250 C   0  0  2  0  0  0  0  0  0  0  0  0
   44.9410   33.9140   36.1630 H   0  0  0  0  0  0  0  0  0  0  0  0
   43.6610   31.8850   37.0690 H   0  0  0  0  0  0  0  0  0  0  0  0
   45.0840   31.5630   38.1930 H   0  0  0  0  0  0  0  0  0  0  0  0
   45.1070   31.7460   35.0580 H   0  0  0  0  0  0  0  0  0  0  0  0
   48.0100   31.0870   35.1360 C   0  0  0  0  0  0  0  0  0  0  0  0
   46.9450   31.1290   36.0040 C   0  0  0  0  0  0  0  0  0  0  0  0
   47.0870   30.3340   37.1530 C   0  0  0  0  0  0  0  0  0  0  0  0
   46.3680   30.2110   37.9820 H   0  0  0  0  0  0  0  0  0  0  0  0
   48.2250   29.5590   37.3930 C   0  0  0  0  0  0  0  0  0  0  0  0
   48.3730   28.9370   38.2580 H   0  0  0  0  0  0  0  0  0  0  0  0
   49.2540   29.5530   36.4940 C   0  0  0  0  0  0  0  0  0  0  0  0
   49.1360   30.3260   35.3610 C   0  0  0  0  0  0  0  0  0  0  0  0
   46.7810   32.9240   33.7450 H   0  0  0  0  0  0  0  0  0  0  0  0
   47.8400   32.0930   33.7290 S   0  0  0  0  0  0  0  0  0  0  0  0
   49.0780   32.9980   33.7310 O   0  0  0  0  0  0  0  0  0  0  0  0
   47.9420   31.2680   32.4540 O   0  0  0  0  0  0  0  0  0  0  0  0
   48.6020   33.7930   40.4030 O   0  0  0  0  0  0  0  0  0  0  0  0
   48.3760   34.8690   41.2940 C   0  0  0  0  0  0  0  0  0  0  0  0
   48.9780   35.9500   41.0450 O   0  0  0  0  0  0  0  0  0  0  0  0
   47.4910   34.6040   42.3770 C   0  0  0  0  0  0  0  0  0  0  0  0
   46.3420   35.3410   42.3960 C   0  0  0  0  0  0  0  0  0  0  0  0
   45.4280   35.1360   43.4260 C   0  0  0  0  0  0  0  0  0  0  0  0
   45.7340   34.2150   44.3540 N   0  0  0  0  0  0  0  0  0  0  0  0
   46.8600   33.5040   44.3210 C   0  0  0  0  0  0  0  0  0  0  0  0
   47.7340   33.7120   43.3180 N   0  0  0  0  0  0  0  0  0  0  0  0
   46.0780   36.0750   41.6750 H   0  0  0  0  0  0  0  0  0  0  0  0
   44.5060   35.6970   43.4800 H   0  0  0  0  0  0  0  0  0  0  0  0
   47.1460   32.7450   45.0540 H   0  0  0  0  0  0  0  0  0  0  0  0
  1 27  1  0  0  0  0
  2  6  1  0  0  0  0
  2  1  2  0  0  0  0
  3  4  2  0  0  0  0
  3  2  1  0  0  0  0
  4  5  1  0  0  0  0
  5  1  1  0  0  0  0
  7  3  1  0  0  0  0
  8 11  1  6  0  0  0
  8  9  1  0  0  0  0
  8  4  1  0  0  0  0
  9 13  1  0  0  0  0
 10 14  1  6  0  0  0
 10  8  1  0  0  0  0
 10  9  1  0  0  0  0
 12  9  1  0  0  0  0
 15 22  2  0  0  0  0
 15 16  1  0  0  0  0
 16 10  1  0  0  0  0
 16 17  2  0  0  0  0
 17 19  1  0  0  0  0
 17 18  1  0  0  0  0
 19 20  1  0  0  0  0
 21 19  2  0  0  0  0
 22 21  1  0  0  0  0
 24 25  2  0  0  0  0
 24 23  1  0  0  0  0
 24 15  1  0  0  0  0
 26 24  2  0  0  0  0
 27 28  1  0  0  0  0
 28 30  1  0  0  0  0
 29 28  2  0  0  0  0
 30 31  2  0  0  0  0
 30 35  1  0  0  0  0
 31 32  1  0  0  0  0
 32 37  1  0  0  0  0
 32 33  2  0  0  0  0
 34 33  1  0  0  0  0
 34 38  1  0  0  0  0
 35 34  2  0  0  0  0
 36 31  1  0  0  0  0
M  END
>  <minimizedAffinity>
-4.77812815

>  <minimizedRMSD>
2.79081225

$$$$
