
     RDKit          3D

 40 43  0  0  0  0  0  0  0  0999 V2000
   45.1044   33.2833   41.1803 F   0  0  0  0  0  0  0  0  0  0  0  0
   46.2861   33.9414   41.0021 C   0  0  0  0  0  0  0  0  0  0  0  0
   46.8155   34.7327   41.9889 C   0  0  0  0  0  0  0  0  0  0  0  0
   48.0031   35.3546   41.7251 C   0  0  0  0  0  0  0  0  0  0  0  0
   48.6910   35.2303   40.5313 C   0  0  0  0  0  0  0  0  0  0  0  0
   48.1151   34.4297   39.5870 C   0  0  0  0  0  0  0  0  0  0  0  0
   46.9249   33.7817   39.7985 C   0  0  0  0  0  0  0  0  0  0  0  0
   44.4907   35.9412   44.7312 C   0  0  0  0  0  0  0  0  0  0  0  0
   45.1733   35.8682   43.5108 C   0  0  0  0  0  0  0  0  0  0  0  0
   46.0768   34.8546   43.2461 C   0  0  0  0  0  0  0  0  0  0  0  0
   46.2467   33.9428   44.2590 N   0  0  0  0  0  0  0  0  0  0  0  0
   45.5814   34.0291   45.4259 C   0  0  0  0  0  0  0  0  0  0  0  0
   44.7139   35.0130   45.6642 N   0  0  0  0  0  0  0  0  0  0  0  0
   46.3283   32.9290   38.7702 C   0  0  0  0  0  0  0  0  0  0  0  0
   46.7463   31.6597   38.4032 C   0  0  0  0  0  0  0  0  0  0  0  0
   45.8985   31.2098   37.3858 C   0  0  0  0  0  0  0  0  0  0  0  0
   45.0246   32.1987   37.1832 N   0  0  0  0  0  0  0  0  0  0  0  0
   45.2614   33.2273   37.9933 N   0  0  0  0  0  0  0  0  0  0  0  0
   48.4066   35.9786   42.5222 H   0  0  0  0  0  0  0  0  0  0  0  0
   49.6330   35.7455   40.3690 H   0  0  0  0  0  0  0  0  0  0  0  0
   48.5980   34.2868   38.6295 H   0  0  0  0  0  0  0  0  0  0  0  0
   43.7919   36.7502   44.8986 H   0  0  0  0  0  0  0  0  0  0  0  0
   45.0269   36.6000   42.7177 H   0  0  0  0  0  0  0  0  0  0  0  0
   45.8466   33.2189   46.1035 H   0  0  0  0  0  0  0  0  0  0  0  0
   47.5970   31.1896   38.8873 H   0  0  0  0  0  0  0  0  0  0  0  0
   46.0522   30.2438   36.9600 H   0  0  0  0  0  0  0  0  0  0  0  0
   46.6837   32.4882   34.8867 H   0  0  0  0  0  0  0  0  0  0  0  0
   45.5930   33.1501   34.3548 S   0  0  0  0  0  0  0  0  0  0  0  0
   45.6115   34.6182   34.6866 O   0  0  0  0  0  0  0  0  0  0  0  0
   45.6798   32.9837   32.8551 O   0  0  0  0  0  0  0  0  0  0  0  0
   44.0960   32.3977   34.8525 C   0  0  0  0  0  0  0  0  0  0  0  0
   44.0201   32.0288   36.1892 C   0  0  0  0  0  0  0  0  0  0  0  0
   42.8486   31.4250   36.6380 C   0  0  0  0  0  0  0  0  0  0  0  0
   42.7140   31.1052   37.6826 H   0  0  0  0  0  0  0  0  0  0  0  0
   41.7693   31.1869   35.7901 C   0  0  0  0  0  0  0  0  0  0  0  0
   40.8556   30.7080   36.1721 H   0  0  0  0  0  0  0  0  0  0  0  0
   41.8693   31.5667   34.4503 C   0  0  0  0  0  0  0  0  0  0  0  0
   43.0287   32.1633   34.0099 C   0  0  0  0  0  0  0  0  0  0  0  0
   41.0339   31.3922   33.7552 H   0  0  0  0  0  0  0  0  0  0  0  0
   43.1290   32.4687   32.9651 H   0  0  0  0  0  0  0  0  0  0  0  0
  2  1  1  0
  2  3  2  0
  3 10  1  0
  4  3  1  0
  5  4  2  0
  6  7  2  0
  6  5  1  0
  7  2  1  0
  8 13  2  0
  9  8  1  0
 10  9  2  0
 10 11  1  0
 11 12  2  0
 12 13  1  0
 14  7  1  0
 15 14  1  0
 16 15  2  0
 17 16  1  0
 17 18  1  0
 18 14  2  0
  4 19  1  0
  5 20  1  0
  6 21  1  0
  8 22  1  0
  9 23  1  0
 12 24  1  0
 15 25  1  0
 16 26  1  0
 27 28  1  0
 28 29  2  0
 28 30  2  0
 28 31  1  0
 31 32  2  0
 32 33  1  0
 33 34  1  0
 33 35  2  0
 35 36  1  0
 35 37  1  0
 37 38  2  0
 38 31  1  0
 37 39  1  0
 38 40  1  0
 17 32  1  0
M  ISO  8  19  14  20  14  21  14  22  14  23  14  24  14  25  14  26  14
M  ISO  3  27  12  34  15  36  16
M  END
>  <DihAtoms>  (1) 
15,16,31,30

>  <DihDeg>  (1) 
103.4928683058403

$$$$
