REMARK  Name = 
REMARK  6 active torsions:
REMARK  status: ('A' for Active; 'I' for Inactive)
REMARK    1  A    between atoms: C_1  and  C_7
REMARK    2  A    between atoms: C_6  and  C_13
REMARK    3  A    between atoms: C_15  and  C_16
REMARK    4  A    between atoms: C_16  and  C_17
REMARK    5  A    between atoms: C_17  and  C_44
REMARK    6  A    between atoms: S_40  and  C_43
REMARK                            x       y       z     vdW  Elec       q    Type
REMARK                         _______ _______ _______ _____ _____    ______ ____
ROOT
ATOM      1  C   UNL     1      47.200  34.116  42.437  0.00  0.00    +0.000 C 
ATOM      2  C   UNL     1      48.572  34.703  42.586  0.00  0.00    +0.000 C 
ATOM      3  C   UNL     1      48.885  35.690  41.532  0.00  0.00    +0.000 C 
ATOM      4  C   UNL     1      48.714  35.132  40.130  0.00  0.00    +0.000 C 
ATOM      5  C   UNL     1      47.518  34.241  39.982  0.00  0.00    +0.000 C 
ATOM      6  C   UNL     1      46.543  34.362  41.130  0.00  0.00    +0.000 C 
ATOM      7  H   UNL     1      47.349  32.999  42.547  0.00  0.00    +0.000 HD
ATOM      8  H   UNL     1      48.600  35.218  43.566  0.00  0.00    +0.000 HD
ATOM      9  H   UNL     1      49.373  33.938  42.623  0.00  0.00    +0.000 HD
ATOM     10  H   UNL     1      48.313  36.619  41.686  0.00  0.00    +0.000 HD
ATOM     11  H   UNL     1      49.966  35.962  41.607  0.00  0.00    +0.000 HD
ATOM     12  H   UNL     1      49.648  34.588  39.846  0.00  0.00    +0.000 HD
ATOM     13  H   UNL     1      48.649  36.011  39.455  0.00  0.00    +0.000 HD
ATOM     14  H   UNL     1      46.986  34.539  39.068  0.00  0.00    +0.000 HD
ATOM     15  H   UNL     1      47.840  33.189  39.873  0.00  0.00    +0.000 HD
ATOM     16  H   UNL     1      46.050  35.334  40.991  0.00  0.00    +0.000 HD
ENDROOT
BRANCH   1  17
ATOM     17  C   UNL     1      46.296  34.482  43.545  0.00  0.00    +0.000 A 
ATOM     18  C   UNL     1      45.606  35.660  43.320  0.00  0.00    +0.000 A 
ATOM     19  C   UNL     1      44.704  36.132  44.289  0.00  0.00    +0.000 A 
ATOM     20  N   UNL     1      44.580  35.339  45.436  0.00  0.00    +0.000 NA
ATOM     21  C   UNL     1      45.278  34.197  45.606  0.00  0.00    +0.000 A 
ATOM     22  N   UNL     1      46.131  33.783  44.653  0.00  0.00    +0.000 NA
ATOM     23  H   UNL     1      45.569  36.397  42.532  0.00  0.00    +0.000 HD
ATOM     24  H   UNL     1      44.089  37.017  44.281  0.00  0.00    +0.000 HD
ATOM     25  H   UNL     1      45.134  33.640  46.509  0.00  0.00    +0.000 HD
ENDBRANCH   1  17
BRANCH   6  26
ATOM     26  C   UNL     1      45.479  33.316  40.937  0.00  0.00    +0.000 C 
ATOM     27  C   UNL     1      44.820  33.227  39.575  0.00  0.00    +0.000 C 
ATOM     28  C   UNL     1      44.057  33.719  40.741  0.00  0.00    +0.000 C 
ATOM     29  H   UNL     1      45.736  32.322  41.358  0.00  0.00    +0.000 HD
ATOM     30  H   UNL     1      45.050  33.958  38.788  0.00  0.00    +0.000 HD
ATOM     31  H   UNL     1      44.537  32.227  39.182  0.00  0.00    +0.000 HD
ATOM     32  H   UNL     1      43.897  34.812  40.865  0.00  0.00    +0.000 HD
BRANCH  28  33
ATOM     33  C   UNL     1      43.104  32.867  41.514  0.00  0.00    +0.000 C 
ATOM     34  H   UNL     1      43.249  33.122  42.600  0.00  0.00    +0.000 HD
ATOM     35  H   UNL     1      43.410  31.809  41.410  0.00  0.00    +0.000 HD
BRANCH  33  36
ATOM     36  C   UNL     1      41.660  33.108  41.206  0.00  0.00    +0.000 C 
ATOM     37  H   UNL     1      41.444  34.202  41.406  0.00  0.00    +0.000 HD
ATOM     38  H   UNL     1      41.051  32.584  41.969  0.00  0.00    +0.000 HD
BRANCH  36  40
ATOM     39  C   UNL     1      40.080  33.361  39.317  0.00  0.00    +0.000 A 
ATOM     40  C   UNL     1      41.270  32.879  39.817  0.00  0.00    +0.000 A 
ATOM     41  C   UNL     1      42.063  32.166  38.910  0.00  0.00    +0.000 A 
ATOM     42  H   UNL     1      42.995  31.796  39.324  0.00  0.00    +0.000 HD
ATOM     43  C   UNL     1      41.720  31.930  37.576  0.00  0.00    +0.000 A 
ATOM     44  H   UNL     1      42.435  31.365  37.006  0.00  0.00    +0.000 HD
ATOM     45  C   UNL     1      40.525  32.431  37.127  0.00  0.00    +0.000 A 
ATOM     46  C   UNL     1      39.718  33.138  37.995  0.00  0.00    +0.000 A 
BRANCH  39  48
ATOM     47  H   UNL     1      38.276  35.189  39.443  0.00  0.00    +0.000 HD
ATOM     48  S   UNL     1      38.930  34.270  40.243  0.00  0.00    +0.000 S 
ATOM     49  O   UNL     1      37.835  33.297  40.660  0.00  0.00    +0.000 OA
ATOM     50  O   UNL     1      39.495  35.031  41.377  0.00  0.00    +0.000 OA
ENDBRANCH  39  48
ENDBRANCH  36  40
ENDBRANCH  33  36
ENDBRANCH  28  33
ENDBRANCH   6  26
TORSDOF 6
