
 OpenBabel03242517333D

 50 53  0  0  1  0  0  0  0  0999 V2000
   36.9110   31.0150   39.1570 C   0  0  0  0  0  0  0  0  0  0  0  0
   36.7620   32.0710   38.8450 H   0  0  0  0  0  0  0  0  0  0  0  0
   36.3440   30.8900   40.0940 H   0  0  0  0  0  0  0  0  0  0  0  0
   39.3180   27.4630   41.9680 C   0  0  0  0  0  0  0  0  0  0  0  0
   38.5340   27.4770   43.1550 C   0  0  0  0  0  0  0  0  0  0  0  0
   37.8540   28.6440   43.4810 C   0  0  0  0  0  0  0  0  0  0  0  0
   37.9780   29.7070   42.6450 N   0  0  0  0  0  0  0  0  0  0  0  0
   38.7090   29.6950   41.5370 C   0  0  0  0  0  0  0  0  0  0  0  0
   39.3570   28.5660   41.2360 N   0  0  0  0  0  0  0  0  0  0  0  0
   38.7780   30.8280   40.7420 N   0  0  0  0  0  0  0  0  0  0  0  0
   39.2480   32.0790   41.2970 C   0  0  0  0  0  0  0  0  0  0  0  0
   38.8970   33.2660   40.4700 C   0  0  0  0  0  0  0  0  0  0  0  0
   38.8280   33.0840   39.0590 N   0  0  0  0  0  0  0  0  0  0  0  0
   39.2340   31.7650   38.6460 C   0  0  0  0  0  0  0  0  0  0  0  0
   38.3710   30.7450   39.3230 C   0  0  2  0  0  0  0  0  0  0  0  0
   39.8250   26.5330   41.7610 H   0  0  0  0  0  0  0  0  0  0  0  0
   38.4110   26.6560   43.8430 H   0  0  0  0  0  0  0  0  0  0  0  0
   37.2380   28.7050   44.3830 H   0  0  0  0  0  0  0  0  0  0  0  0
   40.3650   32.0070   41.3120 H   0  0  0  0  0  0  0  0  0  0  0  0
   38.9370   32.2640   42.3280 H   0  0  0  0  0  0  0  0  0  0  0  0
   37.9300   33.6800   40.8640 H   0  0  0  0  0  0  0  0  0  0  0  0
   39.6580   34.0710   40.6690 H   0  0  0  0  0  0  0  0  0  0  0  0
   39.3280   33.8160   38.4990 H   0  0  0  0  0  0  0  0  0  0  0  0
   39.3370   31.6800   37.5690 H   0  0  0  0  0  0  0  0  0  0  0  0
   40.2750   31.5850   39.0520 H   0  0  0  0  0  0  0  0  0  0  0  0
   38.5830   29.7130   38.9920 H   0  0  0  0  0  0  0  0  0  0  0  0
   36.4110   30.0990   38.0770 C   0  0  0  0  0  3  0  0  0  0  0  0
   35.3370   29.3380   38.2580 C   0  0  0  0  0  3  0  0  0  0  0  0
   34.7510   28.4050   37.2710 C   0  0  0  0  0  0  0  0  0  0  0  0
   35.0890   28.7030   36.2620 H   0  0  0  0  0  0  0  0  0  0  0  0
   35.0740   27.3590   37.4210 H   0  0  0  0  0  0  0  0  0  0  0  0
   33.2360   28.5490   37.2880 C   0  0  2  0  0  0  0  0  0  0  0  0
   32.4970   27.9420   36.1190 C   0  0  0  0  0  0  0  0  0  0  0  0
   32.5790   29.4360   36.3160 C   0  0  1  0  0  0  0  0  0  0  0  0
   32.8210   28.4140   38.3050 H   0  0  0  0  0  0  0  0  0  0  0  0
   33.0810   27.4710   35.3080 H   0  0  0  0  0  0  0  0  0  0  0  0
   31.5940   27.3830   36.4010 H   0  0  0  0  0  0  0  0  0  0  0  0
   33.1720   29.9510   35.5290 H   0  0  0  0  0  0  0  0  0  0  0  0
   30.7850   31.0950   35.9310 C   0  0  0  0  0  0  0  0  0  0  0  0
   31.3850   30.1710   36.7970 C   0  0  0  0  0  0  0  0  0  0  0  0
   30.8040   30.0260   38.0400 C   0  0  0  0  0  0  0  0  0  0  0  0
   31.2410   29.3320   38.7130 H   0  0  0  0  0  0  0  0  0  0  0  0
   29.6970   30.7260   38.4510 C   0  0  0  0  0  0  0  0  0  0  0  0
   29.2740   30.5860   39.4220 H   0  0  0  0  0  0  0  0  0  0  0  0
   29.1130   31.6240   37.6100 C   0  0  0  0  0  3  0  0  0  0  0  0
   29.6620   31.8010   36.3570 C   0  0  0  0  0  3  0  0  0  0  0  0
   32.7940   30.9890   34.2750 H   0  0  0  0  0  0  0  0  0  0  0  0
   31.4770   31.3230   34.3430 S   0  0  0  0  0  0  0  0  0  0  0  0
   30.7430   30.4130   33.3980 O   0  0  0  0  0  0  0  0  0  0  0  0
   31.2280   32.7550   33.9200 O   0  0  0  0  0  0  0  0  0  0  0  0
  1 15  1  0  0  0  0
  1  3  1  0  0  0  0
  2  1  1  0  0  0  0
  4  5  1  0  0  0  0
  5  6  2  0  0  0  0
  5 17  1  0  0  0  0
  6 18  1  0  0  0  0
  7  6  1  0  0  0  0
  8  7  2  0  0  0  0
  9  8  1  0  0  0  0
  9  4  2  0  0  0  0
 10 11  1  0  0  0  0
 10  8  1  0  0  0  0
 11 19  1  0  0  0  0
 11 20  1  0  0  0  0
 12 22  1  0  0  0  0
 12 21  1  0  0  0  0
 12 11  1  0  0  0  0
 13 12  1  0  0  0  0
 14 25  1  0  0  0  0
 14 13  1  0  0  0  0
 14 15  1  0  0  0  0
 15 26  1  6  0  0  0
 15 10  1  0  0  0  0
 16  4  1  0  0  0  0
 23 13  1  0  0  0  0
 24 14  1  0  0  0  0
 27 28  2  0  0  0  0
 27  1  1  0  0  0  0
 29 32  1  0  0  0  0
 29 31  1  0  0  0  0
 29 28  1  0  0  0  0
 30 29  1  0  0  0  0
 32 35  1  1  0  0  0
 33 34  1  0  0  0  0
 33 37  1  0  0  0  0
 33 32  1  0  0  0  0
 34 38  1  6  0  0  0
 34 40  1  0  0  0  0
 34 32  1  0  0  0  0
 36 33  1  0  0  0  0
 39 46  2  0  0  0  0
 39 40  1  0  0  0  0
 40 41  2  0  0  0  0
 41 43  1  0  0  0  0
 41 42  1  0  0  0  0
 43 44  1  0  0  0  0
 45 43  2  0  0  0  0
 46 45  1  0  0  0  0
 47 48  1  0  0  0  0
 48 39  1  0  0  0  0
 49 48  2  0  0  0  0
 50 48  2  0  0  0  0
M  END
>  <minimizedAffinity>
-6.33314562

$$$$

 OpenBabel03242517333D

 50 53  0  0  1  0  0  0  0  0999 V2000
   37.2060   27.3980   40.1870 C   0  0  0  0  0  0  0  0  0  0  0  0
   36.8260   26.3880   40.4490 H   0  0  0  0  0  0  0  0  0  0  0  0
   38.3060   27.3250   40.2010 H   0  0  0  0  0  0  0  0  0  0  0  0
   37.0650   32.5190   39.9230 C   0  0  0  0  0  0  0  0  0  0  0  0
   38.3360   32.7980   39.3490 C   0  0  0  0  0  0  0  0  0  0  0  0
   39.3650   31.8870   39.5520 C   0  0  0  0  0  0  0  0  0  0  0  0
   39.0960   30.7790   40.2910 N   0  0  0  0  0  0  0  0  0  0  0  0
   37.9110   30.5180   40.8280 C   0  0  0  0  0  0  0  0  0  0  0  0
   36.9300   31.4030   40.6230 N   0  0  0  0  0  0  0  0  0  0  0  0
   37.7260   29.3610   41.5680 N   0  0  0  0  0  0  0  0  0  0  0  0
   38.5510   29.1010   42.7290 C   0  0  0  0  0  0  0  0  0  0  0  0
   38.5210   27.6810   43.1740 C   0  0  0  0  0  0  0  0  0  0  0  0
   37.3110   26.9560   42.9720 N   0  0  0  0  0  0  0  0  0  0  0  0
   36.2470   27.7800   42.4580 C   0  0  0  0  0  0  0  0  0  0  0  0
   36.6810   28.3980   41.1630 C   0  0  2  0  0  0  0  0  0  0  0  0
   36.3010   33.2580   39.7340 H   0  0  0  0  0  0  0  0  0  0  0  0
   38.5880   33.6640   38.7570 H   0  0  0  0  0  0  0  0  0  0  0  0
   40.3600   32.0560   39.1320 H   0  0  0  0  0  0  0  0  0  0  0  0
   38.1160   29.7150   43.5580 H   0  0  0  0  0  0  0  0  0  0  0  0
   39.5930   29.4160   42.6270 H   0  0  0  0  0  0  0  0  0  0  0  0
   39.3850   27.1540   42.6860 H   0  0  0  0  0  0  0  0  0  0  0  0
   38.7510   27.6530   44.2750 H   0  0  0  0  0  0  0  0  0  0  0  0
   36.9850   26.4100   43.8050 H   0  0  0  0  0  0  0  0  0  0  0  0
   35.2900   27.2690   42.4580 H   0  0  0  0  0  0  0  0  0  0  0  0
   36.1140   28.6490   43.1690 H   0  0  0  0  0  0  0  0  0  0  0  0
   35.8800   28.9860   40.6780 H   0  0  0  0  0  0  0  0  0  0  0  0
   36.6920   27.7890   38.8310 C   0  0  0  0  0  3  0  0  0  0  0  0
   35.5920   28.5210   38.6920 C   0  0  0  0  0  3  0  0  0  0  0  0
   34.9960   28.9690   37.4150 C   0  0  0  0  0  0  0  0  0  0  0  0
   35.2580   30.0310   37.2580 H   0  0  0  0  0  0  0  0  0  0  0  0
   35.3780   28.4110   36.5400 H   0  0  0  0  0  0  0  0  0  0  0  0
   33.4790   28.9020   37.5230 C   0  0  2  0  0  0  0  0  0  0  0  0
   32.7800   28.0020   36.5310 C   0  0  0  0  0  0  0  0  0  0  0  0
   32.6470   29.5040   36.4700 C   0  0  1  0  0  0  0  0  0  0  0  0
   33.1420   28.8910   38.5760 H   0  0  0  0  0  0  0  0  0  0  0  0
   33.3870   27.4820   35.7660 H   0  0  0  0  0  0  0  0  0  0  0  0
   31.9870   27.3810   36.9690 H   0  0  0  0  0  0  0  0  0  0  0  0
   33.1150   29.9500   35.5660 H   0  0  0  0  0  0  0  0  0  0  0  0
   30.7250   30.9930   36.0180 C   0  0  0  0  0  0  0  0  0  0  0  0
   31.3830   30.1380   36.9120 C   0  0  0  0  0  0  0  0  0  0  0  0
   30.7870   29.9620   38.1440 C   0  0  0  0  0  0  0  0  0  0  0  0
   31.2680   29.3190   38.8390 H   0  0  0  0  0  0  0  0  0  0  0  0
   29.6140   30.5680   38.5190 C   0  0  0  0  0  0  0  0  0  0  0  0
   29.1820   30.4060   39.4820 H   0  0  0  0  0  0  0  0  0  0  0  0
   28.9740   31.3980   37.6500 C   0  0  0  0  0  3  0  0  0  0  0  0
   29.5350   31.6040   36.4070 C   0  0  0  0  0  3  0  0  0  0  0  0
   32.7750   31.0420   34.4090 H   0  0  0  0  0  0  0  0  0  0  0  0
   31.4310   31.2580   34.4410 S   0  0  0  0  0  0  0  0  0  0  0  0
   30.8050   30.2700   33.4970 O   0  0  0  0  0  0  0  0  0  0  0  0
   31.0660   32.6540   33.9870 O   0  0  0  0  0  0  0  0  0  0  0  0
  1  3  1  0  0  0  0
  1  2  1  0  0  0  0
  1 15  1  0  0  0  0
  4  9  1  0  0  0  0
  5  6  1  0  0  0  0
  5  4  2  0  0  0  0
  6  7  2  0  0  0  0
  7  8  1  0  0  0  0
  8 10  1  0  0  0  0
  9  8  2  0  0  0  0
 10 11  1  0  0  0  0
 11 12  1  0  0  0  0
 11 19  1  0  0  0  0
 12 22  1  0  0  0  0
 13 12  1  0  0  0  0
 13 23  1  0  0  0  0
 14 13  1  0  0  0  0
 14 25  1  0  0  0  0
 15 26  1  6  0  0  0
 15 10  1  0  0  0  0
 15 14  1  0  0  0  0
 16  4  1  0  0  0  0
 17  5  1  0  0  0  0
 18  6  1  0  0  0  0
 20 11  1  0  0  0  0
 21 12  1  0  0  0  0
 24 14  1  0  0  0  0
 27  1  1  0  0  0  0
 28 27  2  0  0  0  0
 29 32  1  0  0  0  0
 29 28  1  0  0  0  0
 30 29  1  0  0  0  0
 31 29  1  0  0  0  0
 32 35  1  1  0  0  0
 33 37  1  0  0  0  0
 33 32  1  0  0  0  0
 34 38  1  6  0  0  0
 34 33  1  0  0  0  0
 34 40  1  0  0  0  0
 34 32  1  0  0  0  0
 36 33  1  0  0  0  0
 39 46  2  0  0  0  0
 39 40  1  0  0  0  0
 40 41  2  0  0  0  0
 41 43  1  0  0  0  0
 41 42  1  0  0  0  0
 43 44  1  0  0  0  0
 45 43  2  0  0  0  0
 46 45  1  0  0  0  0
 47 48  1  0  0  0  0
 48 39  1  0  0  0  0
 49 48  2  0  0  0  0
 50 48  2  0  0  0  0
M  END
>  <minimizedAffinity>
-5.99399519

$$$$

 OpenBabel03242517333D

 50 53  0  0  1  0  0  0  0  0999 V2000
   38.9760   32.8000   39.4180 C   0  0  0  0  0  0  0  0  0  0  0  0
   38.6770   33.3130   38.4790 H   0  0  0  0  0  0  0  0  0  0  0  0
   39.6410   33.5000   39.9510 H   0  0  0  0  0  0  0  0  0  0  0  0
   41.5430   29.5430   42.4370 C   0  0  0  0  0  0  0  0  0  0  0  0
   42.2780   30.4480   43.2520 C   0  0  0  0  0  0  0  0  0  0  0  0
   42.5810   31.7020   42.7370 C   0  0  0  0  0  0  0  0  0  0  0  0
   42.1560   31.9920   41.4790 N   0  0  0  0  0  0  0  0  0  0  0  0
   41.4710   31.1490   40.7180 C   0  0  0  0  0  0  0  0  0  0  0  0
   41.1860   29.9460   41.2270 N   0  0  0  0  0  0  0  0  0  0  0  0
   41.0770   31.5290   39.4450 N   0  0  0  0  0  0  0  0  0  0  0  0
   42.0650   31.9450   38.4710 C   0  0  0  0  0  0  0  0  0  0  0  0
   41.4890   32.6890   37.3190 C   0  0  0  0  0  0  0  0  0  0  0  0
   40.1720   32.3380   36.9040 N   0  0  0  0  0  0  0  0  0  0  0  0
   39.6450   31.2050   37.6210 C   0  0  0  0  0  0  0  0  0  0  0  0
   39.6430   31.5050   39.0900 C   0  0  2  0  0  0  0  0  0  0  0  0
   41.3340   28.5840   42.8860 H   0  0  0  0  0  0  0  0  0  0  0  0
   42.6310   30.2560   44.2530 H   0  0  0  0  0  0  0  0  0  0  0  0
   43.1430   32.4330   43.3240 H   0  0  0  0  0  0  0  0  0  0  0  0
   42.5100   31.0020   38.0650 H   0  0  0  0  0  0  0  0  0  0  0  0
   42.8950   32.5230   38.8850 H   0  0  0  0  0  0  0  0  0  0  0  0
   41.5500   33.7850   37.5580 H   0  0  0  0  0  0  0  0  0  0  0  0
   42.1690   32.5490   36.4340 H   0  0  0  0  0  0  0  0  0  0  0  0
   40.0610   32.2040   35.8710 H   0  0  0  0  0  0  0  0  0  0  0  0
   38.7160   30.8400   37.1970 H   0  0  0  0  0  0  0  0  0  0  0  0
   40.3770   30.3510   37.4980 H   0  0  0  0  0  0  0  0  0  0  0  0
   39.1810   30.7020   39.6920 H   0  0  0  0  0  0  0  0  0  0  0  0
   37.7500   32.4770   40.2230 C   0  0  0  0  0  3  0  0  0  0  0  0
   37.3360   31.2240   40.3800 C   0  0  0  0  0  3  0  0  0  0  0  0
   36.1510   30.7860   41.1500 C   0  0  0  0  0  0  0  0  0  0  0  0
   36.0160   31.4700   42.0070 H   0  0  0  0  0  0  0  0  0  0  0  0
   35.2160   30.8200   40.5620 H   0  0  0  0  0  0  0  0  0  0  0  0
   36.4180   29.4040   41.7300 C   0  0  2  0  0  0  0  0  0  0  0  0
   37.7140   29.2390   42.4870 C   0  0  0  0  0  0  0  0  0  0  0  0
   37.4830   28.5670   41.1550 C   0  0  1  0  0  0  0  0  0  0  0  0
   35.5000   28.9490   42.1460 H   0  0  0  0  0  0  0  0  0  0  0  0
   38.4080   30.0970   42.5460 H   0  0  0  0  0  0  0  0  0  0  0  0
   37.6160   28.6790   43.4280 H   0  0  0  0  0  0  0  0  0  0  0  0
   38.1350   28.9590   40.3460 H   0  0  0  0  0  0  0  0  0  0  0  0
   36.8690   26.5360   39.8860 C   0  0  0  0  0  0  0  0  0  0  0  0
   37.2230   27.1080   41.1140 C   0  0  0  0  0  0  0  0  0  0  0  0
   37.2980   26.2520   42.1930 C   0  0  0  0  0  0  0  0  0  0  0  0
   37.5640   26.6630   43.1340 H   0  0  0  0  0  0  0  0  0  0  0  0
   37.0500   24.9040   42.1160 C   0  0  0  0  0  0  0  0  0  0  0  0
   37.1190   24.2710   42.9740 H   0  0  0  0  0  0  0  0  0  0  0  0
   36.7060   24.3460   40.9220 C   0  0  0  0  0  3  0  0  0  0  0  0
   36.6180   25.1660   39.8170 C   0  0  0  0  0  3  0  0  0  0  0  0
   37.6990   28.5530   38.4590 H   0  0  0  0  0  0  0  0  0  0  0  0
   36.7560   27.5710   38.4820 S   0  0  0  0  0  0  0  0  0  0  0  0
   36.9880   26.7110   37.2700 O   0  0  0  0  0  0  0  0  0  0  0  0
   35.3510   28.1260   38.4150 O   0  0  0  0  0  0  0  0  0  0  0  0
  1  3  1  0  0  0  0
  1 27  1  0  0  0  0
  2  1  1  0  0  0  0
  4 16  1  0  0  0  0
  4  5  1  0  0  0  0
  5 17  1  0  0  0  0
  6  5  2  0  0  0  0
  6 18  1  0  0  0  0
  7  6  1  0  0  0  0
  8  9  1  0  0  0  0
  8  7  2  0  0  0  0
  9  4  2  0  0  0  0
 10  8  1  0  0  0  0
 11 20  1  0  0  0  0
 11 10  1  0  0  0  0
 12 21  1  0  0  0  0
 12 11  1  0  0  0  0
 13 12  1  0  0  0  0
 13 14  1  0  0  0  0
 14 15  1  0  0  0  0
 15  1  1  0  0  0  0
 15 10  1  0  0  0  0
 15 26  1  1  0  0  0
 19 11  1  0  0  0  0
 22 12  1  0  0  0  0
 23 13  1  0  0  0  0
 24 14  1  0  0  0  0
 25 14  1  0  0  0  0
 27 28  2  0  0  0  0
 28 29  1  0  0  0  0
 29 32  1  0  0  0  0
 29 30  1  0  0  0  0
 31 29  1  0  0  0  0
 32 35  1  1  0  0  0
 32 33  1  0  0  0  0
 33 36  1  0  0  0  0
 33 37  1  0  0  0  0
 34 38  1  6  0  0  0
 34 32  1  0  0  0  0
 34 33  1  0  0  0  0
 39 40  1  0  0  0  0
 40 34  1  0  0  0  0
 40 41  2  0  0  0  0
 41 42  1  0  0  0  0
 43 41  1  0  0  0  0
 43 44  1  0  0  0  0
 45 43  2  0  0  0  0
 46 39  2  0  0  0  0
 46 45  1  0  0  0  0
 47 48  1  0  0  0  0
 48 39  1  0  0  0  0
 49 48  2  0  0  0  0
 50 48  2  0  0  0  0
M  END
>  <minimizedAffinity>
-5.89254713

$$$$

 OpenBabel03242517333D

 50 53  0  0  1  0  0  0  0  0999 V2000
   41.4360   29.9710   41.7380 C   0  0  0  0  0  0  0  0  0  0  0  0
   42.3430   29.6730   42.3050 H   0  0  0  0  0  0  0  0  0  0  0  0
   41.5630   29.5630   40.7220 H   0  0  0  0  0  0  0  0  0  0  0  0
   37.6160   32.9710   40.0890 C   0  0  0  0  0  0  0  0  0  0  0  0
   37.2530   32.3120   38.8810 C   0  0  0  0  0  0  0  0  0  0  0  0
   38.2190   31.5610   38.2250 C   0  0  0  0  0  0  0  0  0  0  0  0
   39.4600   31.5000   38.7760 N   0  0  0  0  0  0  0  0  0  0  0  0
   39.8000   32.1140   39.9020 C   0  0  0  0  0  0  0  0  0  0  0  0
   38.8590   32.8330   40.5230 N   0  0  0  0  0  0  0  0  0  0  0  0
   41.0910   31.9960   40.3920 N   0  0  0  0  0  0  0  0  0  0  0  0
   42.2180   32.3990   39.5780 C   0  0  0  0  0  0  0  0  0  0  0  0
   43.5200   31.8570   40.0540 C   0  0  0  0  0  0  0  0  0  0  0  0
   43.6760   31.6650   41.4570 N   0  0  0  0  0  0  0  0  0  0  0  0
   42.5510   32.1510   42.2150 C   0  0  0  0  0  0  0  0  0  0  0  0
   41.3050   31.4590   41.7520 C   0  0  2  0  0  0  0  0  0  0  0  0
   36.8280   33.5400   40.5580 H   0  0  0  0  0  0  0  0  0  0  0  0
   36.2820   32.3350   38.4140 H   0  0  0  0  0  0  0  0  0  0  0  0
   37.9910   31.0350   37.2940 H   0  0  0  0  0  0  0  0  0  0  0  0
   42.2740   33.5140   39.6630 H   0  0  0  0  0  0  0  0  0  0  0  0
   42.1120   32.1770   38.5130 H   0  0  0  0  0  0  0  0  0  0  0  0
   43.7120   30.9000   39.4990 H   0  0  0  0  0  0  0  0  0  0  0  0
   44.3350   32.5550   39.7160 H   0  0  0  0  0  0  0  0  0  0  0  0
   44.5740   32.0350   41.8500 H   0  0  0  0  0  0  0  0  0  0  0  0
   42.7400   32.1520   43.2830 H   0  0  0  0  0  0  0  0  0  0  0  0
   42.4010   33.2390   41.9440 H   0  0  0  0  0  0  0  0  0  0  0  0
   40.4150   31.7340   42.3450 H   0  0  0  0  0  0  0  0  0  0  0  0
   40.2170   29.4120   42.4130 C   0  0  0  0  0  3  0  0  0  0  0  0
   40.2130   28.1880   42.9310 C   0  0  0  0  0  3  0  0  0  0  0  0
   39.0780   27.5350   43.6200 C   0  0  0  0  0  0  0  0  0  0  0  0
   39.1510   26.4440   43.4590 H   0  0  0  0  0  0  0  0  0  0  0  0
   39.0840   27.6990   44.7130 H   0  0  0  0  0  0  0  0  0  0  0  0
   37.7770   27.9890   42.9750 C   0  0  2  0  0  0  0  0  0  0  0  0
   36.5220   27.2910   43.4460 C   0  0  0  0  0  0  0  0  0  0  0  0
   37.0680   27.0870   42.0540 C   0  0  1  0  0  0  0  0  0  0  0  0
   37.7500   29.0850   42.8310 H   0  0  0  0  0  0  0  0  0  0  0  0
   36.6140   26.4750   44.1870 H   0  0  0  0  0  0  0  0  0  0  0  0
   35.6750   27.9660   43.6290 H   0  0  0  0  0  0  0  0  0  0  0  0
   37.4400   26.0560   41.8740 H   0  0  0  0  0  0  0  0  0  0  0  0
   36.3900   27.0560   39.6760 C   0  0  0  0  0  0  0  0  0  0  0  0
   36.3820   27.7270   40.9060 C   0  0  0  0  0  0  0  0  0  0  0  0
   35.7290   28.9410   40.9390 C   0  0  0  0  0  0  0  0  0  0  0  0
   35.7100   29.4680   41.8600 H   0  0  0  0  0  0  0  0  0  0  0  0
   35.1040   29.5020   39.8530 C   0  0  0  0  0  0  0  0  0  0  0  0
   34.6070   30.4450   39.9180 H   0  0  0  0  0  0  0  0  0  0  0  0
   35.1110   28.8510   38.6570 C   0  0  0  0  0  3  0  0  0  0  0  0
   35.7540   27.6330   38.5780 C   0  0  0  0  0  3  0  0  0  0  0  0
   38.1640   25.3430   40.5190 H   0  0  0  0  0  0  0  0  0  0  0  0
   37.2040   25.5130   39.5700 S   0  0  0  0  0  0  0  0  0  0  0  0
   36.1710   24.4440   39.7940 O   0  0  0  0  0  0  0  0  0  0  0  0
   37.7530   25.3630   38.1680 O   0  0  0  0  0  0  0  0  0  0  0  0
  1 15  1  0  0  0  0
  1  2  1  0  0  0  0
  1 27  1  0  0  0  0
  3  1  1  0  0  0  0
  4  9  1  0  0  0  0
  4 16  1  0  0  0  0
  5  4  2  0  0  0  0
  6  7  2  0  0  0  0
  6  5  1  0  0  0  0
  7  8  1  0  0  0  0
  8 10  1  0  0  0  0
  8  9  2  0  0  0  0
 10 15  1  0  0  0  0
 11 19  1  0  0  0  0
 11 12  1  0  0  0  0
 11 10  1  0  0  0  0
 12 13  1  0  0  0  0
 13 23  1  0  0  0  0
 13 14  1  0  0  0  0
 14 24  1  0  0  0  0
 15 14  1  0  0  0  0
 15 26  1  1  0  0  0
 17  5  1  0  0  0  0
 18  6  1  0  0  0  0
 20 11  1  0  0  0  0
 21 12  1  0  0  0  0
 22 12  1  0  0  0  0
 25 14  1  0  0  0  0
 27 28  2  0  0  0  0
 28 29  1  0  0  0  0
 29 31  1  0  0  0  0
 30 29  1  0  0  0  0
 32 35  1  6  0  0  0
 32 33  1  0  0  0  0
 32 29  1  0  0  0  0
 33 37  1  0  0  0  0
 33 36  1  0  0  0  0
 34 38  1  6  0  0  0
 34 32  1  0  0  0  0
 34 33  1  0  0  0  0
 39 40  1  0  0  0  0
 40 41  2  0  0  0  0
 40 34  1  0  0  0  0
 41 42  1  0  0  0  0
 43 44  1  0  0  0  0
 43 41  1  0  0  0  0
 45 43  2  0  0  0  0
 46 45  1  0  0  0  0
 46 39  2  0  0  0  0
 48 39  1  0  0  0  0
 48 49  2  0  0  0  0
 48 47  1  0  0  0  0
 50 48  2  0  0  0  0
M  END
>  <minimizedAffinity>
-5.88678265

$$$$

 OpenBabel03242517333D

 50 53  0  0  1  0  0  0  0  0999 V2000
   39.8100   31.3830   41.7640 C   0  0  0  0  0  0  0  0  0  0  0  0
   39.9260   32.1390   42.5690 H   0  0  0  0  0  0  0  0  0  0  0  0
   40.8310   31.0860   41.4730 H   0  0  0  0  0  0  0  0  0  0  0  0
   38.2450   29.2600   37.3630 C   0  0  0  0  0  0  0  0  0  0  0  0
   39.3830   28.4800   37.0170 C   0  0  0  0  0  0  0  0  0  0  0  0
   40.6260   28.8850   37.4840 C   0  0  0  0  0  0  0  0  0  0  0  0
   40.6840   30.0080   38.2480 N   0  0  0  0  0  0  0  0  0  0  0  0
   39.6240   30.7370   38.5720 C   0  0  0  0  0  0  0  0  0  0  0  0
   38.4330   30.3340   38.1150 N   0  0  0  0  0  0  0  0  0  0  0  0
   39.7750   31.8690   39.3560 N   0  0  0  0  0  0  0  0  0  0  0  0
   40.6500   32.9390   38.9280 C   0  0  0  0  0  0  0  0  0  0  0  0
   41.0210   33.8790   40.0210 C   0  0  0  0  0  0  0  0  0  0  0  0
   40.0600   34.1010   41.0480 N   0  0  0  0  0  0  0  0  0  0  0  0
   38.8040   33.4460   40.7870 C   0  0  0  0  0  0  0  0  0  0  0  0
   39.0360   31.9740   40.6320 C   0  0  2  0  0  0  0  0  0  0  0  0
   37.3040   28.9010   36.9750 H   0  0  0  0  0  0  0  0  0  0  0  0
   39.3780   27.5850   36.4160 H   0  0  0  0  0  0  0  0  0  0  0  0
   41.5310   28.3200   37.2460 H   0  0  0  0  0  0  0  0  0  0  0  0
   40.0690   33.5260   38.1730 H   0  0  0  0  0  0  0  0  0  0  0  0
   41.5620   32.6080   38.4240 H   0  0  0  0  0  0  0  0  0  0  0  0
   41.9930   33.5240   40.4580 H   0  0  0  0  0  0  0  0  0  0  0  0
   41.2600   34.8770   39.5600 H   0  0  0  0  0  0  0  0  0  0  0  0
   39.9060   35.1090   41.2910 H   0  0  0  0  0  0  0  0  0  0  0  0
   38.0270   33.7460   41.4820 H   0  0  0  0  0  0  0  0  0  0  0  0
   38.4390   33.7950   39.7750 H   0  0  0  0  0  0  0  0  0  0  0  0
   38.0990   31.4020   40.5020 H   0  0  0  0  0  0  0  0  0  0  0  0
   39.0190   30.2170   42.2820 C   0  0  0  0  0  3  0  0  0  0  0  0
   39.6160   29.1100   42.7090 C   0  0  0  0  0  3  0  0  0  0  0  0
   38.9450   27.9050   43.2430 C   0  0  0  0  0  0  0  0  0  0  0  0
   39.5320   27.0160   42.9500 H   0  0  0  0  0  0  0  0  0  0  0  0
   38.8820   27.8980   44.3460 H   0  0  0  0  0  0  0  0  0  0  0  0
   37.5780   27.7650   42.5870 C   0  0  2  0  0  0  0  0  0  0  0  0
   37.0140   26.3650   42.5170 C   0  0  0  0  0  0  0  0  0  0  0  0
   37.4640   27.1020   41.2790 C   0  0  1  0  0  0  0  0  0  0  0  0
   36.9020   28.5950   42.8650 H   0  0  0  0  0  0  0  0  0  0  0  0
   37.6250   25.5260   42.8990 H   0  0  0  0  0  0  0  0  0  0  0  0
   35.9490   26.2970   42.7800 H   0  0  0  0  0  0  0  0  0  0  0  0
   38.3550   26.6460   40.7960 H   0  0  0  0  0  0  0  0  0  0  0  0
   36.2230   26.9740   39.1440 C   0  0  0  0  0  0  0  0  0  0  0  0
   36.4460   27.6490   40.3510 C   0  0  0  0  0  0  0  0  0  0  0  0
   35.6880   28.7800   40.5710 C   0  0  0  0  0  0  0  0  0  0  0  0
   35.8390   29.3090   41.4790 H   0  0  0  0  0  0  0  0  0  0  0  0
   34.7530   29.2570   39.6870 C   0  0  0  0  0  0  0  0  0  0  0  0
   34.1830   30.1370   39.8930 H   0  0  0  0  0  0  0  0  0  0  0  0
   34.5360   28.6020   38.5130 C   0  0  0  0  0  3  0  0  0  0  0  0
   35.2720   27.4660   38.2510 C   0  0  0  0  0  3  0  0  0  0  0  0
   38.3340   25.4840   39.4830 H   0  0  0  0  0  0  0  0  0  0  0  0
   37.1540   25.5340   38.8060 S   0  0  0  0  0  0  0  0  0  0  0  0
   36.3380   24.3550   39.2570 O   0  0  0  0  0  0  0  0  0  0  0  0
   37.3510   25.4380   37.3090 O   0  0  0  0  0  0  0  0  0  0  0  0
  1 27  1  0  0  0  0
  1  2  1  0  0  0  0
  3  1  1  0  0  0  0
  4  9  1  0  0  0  0
  5  4  2  0  0  0  0
  5  6  1  0  0  0  0
  6  7  2  0  0  0  0
  7  8  1  0  0  0  0
  8 10  1  0  0  0  0
  9  8  2  0  0  0  0
 10 15  1  0  0  0  0
 11 10  1  0  0  0  0
 11 12  1  0  0  0  0
 12 21  1  0  0  0  0
 12 13  1  0  0  0  0
 13 23  1  0  0  0  0
 14 13  1  0  0  0  0
 14 24  1  0  0  0  0
 15 26  1  6  0  0  0
 15 14  1  0  0  0  0
 15  1  1  0  0  0  0
 16  4  1  0  0  0  0
 17  5  1  0  0  0  0
 18  6  1  0  0  0  0
 19 11  1  0  0  0  0
 20 11  1  0  0  0  0
 22 12  1  0  0  0  0
 25 14  1  0  0  0  0
 27 28  2  0  0  0  0
 28 29  1  0  0  0  0
 29 31  1  0  0  0  0
 30 29  1  0  0  0  0
 32 35  1  1  0  0  0
 32 29  1  0  0  0  0
 33 32  1  0  0  0  0
 33 37  1  0  0  0  0
 33 36  1  0  0  0  0
 34 38  1  6  0  0  0
 34 33  1  0  0  0  0
 34 32  1  0  0  0  0
 39 40  1  0  0  0  0
 40 41  2  0  0  0  0
 40 34  1  0  0  0  0
 41 42  1  0  0  0  0
 43 44  1  0  0  0  0
 43 41  1  0  0  0  0
 45 43  2  0  0  0  0
 46 45  1  0  0  0  0
 46 39  2  0  0  0  0
 48 39  1  0  0  0  0
 48 49  2  0  0  0  0
 48 47  1  0  0  0  0
 50 48  2  0  0  0  0
M  END
>  <minimizedAffinity>
-5.816113

$$$$

 OpenBabel03242517333D

 50 53  0  0  1  0  0  0  0  0999 V2000
   40.2700   31.1010   40.5270 C   0  0  0  0  0  0  0  0  0  0  0  0
   40.9450   31.7910   41.0760 H   0  0  0  0  0  0  0  0  0  0  0  0
   40.8660   30.6850   39.6980 H   0  0  0  0  0  0  0  0  0  0  0  0
   35.4000   29.5640   40.0430 C   0  0  0  0  0  0  0  0  0  0  0  0
   35.5780   28.2520   39.5220 C   0  0  0  0  0  0  0  0  0  0  0  0
   36.7340   27.9820   38.8000 C   0  0  0  0  0  0  0  0  0  0  0  0
   37.6300   28.9900   38.6330 N   0  0  0  0  0  0  0  0  0  0  0  0
   37.4650   30.2130   39.1180 C   0  0  0  0  0  0  0  0  0  0  0  0
   36.3480   30.4590   39.8110 N   0  0  0  0  0  0  0  0  0  0  0  0
   38.4320   31.1810   38.9000 N   0  0  0  0  0  0  0  0  0  0  0  0
   38.8160   31.5340   37.5490 C   0  0  0  0  0  0  0  0  0  0  0  0
   40.1080   32.2670   37.4700 C   0  0  0  0  0  0  0  0  0  0  0  0
   40.4480   33.1180   38.5610 N   0  0  0  0  0  0  0  0  0  0  0  0
   39.3940   33.2170   39.5390 C   0  0  0  0  0  0  0  0  0  0  0  0
   39.0670   31.8490   40.0550 C   0  0  2  0  0  0  0  0  0  0  0  0
   34.4860   29.7200   40.5950 H   0  0  0  0  0  0  0  0  0  0  0  0
   34.8930   27.4280   39.6330 H   0  0  0  0  0  0  0  0  0  0  0  0
   36.9180   26.9890   38.3790 H   0  0  0  0  0  0  0  0  0  0  0  0
   38.0200   32.2280   37.1770 H   0  0  0  0  0  0  0  0  0  0  0  0
   38.8430   30.6950   36.8500 H   0  0  0  0  0  0  0  0  0  0  0  0
   40.9180   31.5090   37.2920 H   0  0  0  0  0  0  0  0  0  0  0  0
   40.0970   32.9010   36.5400 H   0  0  0  0  0  0  0  0  0  0  0  0
   40.7840   34.0710   38.2840 H   0  0  0  0  0  0  0  0  0  0  0  0
   39.5870   33.9850   40.2800 H   0  0  0  0  0  0  0  0  0  0  0  0
   38.4600   33.5600   39.0010 H   0  0  0  0  0  0  0  0  0  0  0  0
   38.3150   31.8630   40.8650 H   0  0  0  0  0  0  0  0  0  0  0  0
   39.7880   30.0270   41.4590 C   0  0  0  0  0  3  0  0  0  0  0  0
   38.8710   30.2760   42.3880 C   0  0  0  0  0  3  0  0  0  0  0  0
   38.3180   29.3020   43.3540 C   0  0  0  0  0  0  0  0  0  0  0  0
   39.1540   28.8730   43.9360 H   0  0  0  0  0  0  0  0  0  0  0  0
   37.6230   29.7610   44.0810 H   0  0  0  0  0  0  0  0  0  0  0  0
   37.6780   28.1520   42.5900 C   0  0  2  0  0  0  0  0  0  0  0  0
   36.5670   27.4170   43.3020 C   0  0  0  0  0  0  0  0  0  0  0  0
   37.9030   26.7680   43.0360 C   0  0  1  0  0  0  0  0  0  0  0  0
   37.5530   28.3900   41.5170 H   0  0  0  0  0  0  0  0  0  0  0  0
   36.3070   27.7170   44.3350 H   0  0  0  0  0  0  0  0  0  0  0  0
   35.6950   27.2000   42.6690 H   0  0  0  0  0  0  0  0  0  0  0  0
   38.4820   26.5590   43.9610 H   0  0  0  0  0  0  0  0  0  0  0  0
   39.2900   25.2950   41.6140 C   0  0  0  0  0  0  0  0  0  0  0  0
   38.0110   25.7430   41.9710 C   0  0  0  0  0  0  0  0  0  0  0  0
   36.9520   25.1840   41.2870 C   0  0  0  0  0  0  0  0  0  0  0  0
   35.9730   25.5080   41.5400 H   0  0  0  0  0  0  0  0  0  0  0  0
   37.0920   24.2360   40.3050 C   0  0  0  0  0  0  0  0  0  0  0  0
   36.2460   23.8250   39.7980 H   0  0  0  0  0  0  0  0  0  0  0  0
   38.3340   23.7990   39.9580 C   0  0  0  0  0  3  0  0  0  0  0  0
   39.4230   24.3320   40.6150 C   0  0  0  0  0  3  0  0  0  0  0  0
   40.3570   26.5550   43.6300 H   0  0  0  0  0  0  0  0  0  0  0  0
   40.6730   25.9670   42.4440 S   0  0  0  0  0  0  0  0  0  0  0  0
   41.6080   24.8310   42.7520 O   0  0  0  0  0  0  0  0  0  0  0  0
   41.3720   26.9220   41.5010 O   0  0  0  0  0  0  0  0  0  0  0  0
  1  2  1  0  0  0  0
  1 27  1  0  0  0  0
  3  1  1  0  0  0  0
  4 16  1  0  0  0  0
  5 17  1  0  0  0  0
  5  4  2  0  0  0  0
  6  5  1  0  0  0  0
  7  6  2  0  0  0  0
  7  8  1  0  0  0  0
  8  9  2  0  0  0  0
  9  4  1  0  0  0  0
 10  8  1  0  0  0  0
 10 15  1  0  0  0  0
 11 10  1  0  0  0  0
 12 11  1  0  0  0  0
 12 13  1  0  0  0  0
 13 14  1  0  0  0  0
 14 15  1  0  0  0  0
 14 24  1  0  0  0  0
 15  1  1  0  0  0  0
 15 26  1  1  0  0  0
 18  6  1  0  0  0  0
 19 11  1  0  0  0  0
 20 11  1  0  0  0  0
 21 12  1  0  0  0  0
 22 12  1  0  0  0  0
 23 13  1  0  0  0  0
 25 14  1  0  0  0  0
 27 28  2  0  0  0  0
 28 29  1  0  0  0  0
 29 30  1  0  0  0  0
 29 31  1  0  0  0  0
 32 35  1  6  0  0  0
 32 34  1  0  0  0  0
 32 33  1  0  0  0  0
 32 29  1  0  0  0  0
 33 36  1  0  0  0  0
 34 33  1  0  0  0  0
 34 38  1  1  0  0  0
 37 33  1  0  0  0  0
 39 40  1  0  0  0  0
 39 48  1  0  0  0  0
 40 34  1  0  0  0  0
 41 42  1  0  0  0  0
 41 40  2  0  0  0  0
 43 41  1  0  0  0  0
 44 43  1  0  0  0  0
 45 43  2  0  0  0  0
 45 46  1  0  0  0  0
 46 39  2  0  0  0  0
 48 49  2  0  0  0  0
 48 47  1  0  0  0  0
 50 48  2  0  0  0  0
M  END
>  <minimizedAffinity>
-5.7452364

$$$$

 OpenBabel03242517333D

 50 53  0  0  1  0  0  0  0  0999 V2000
   38.5600   31.7720   38.0490 C   0  0  0  0  0  0  0  0  0  0  0  0
   38.5950   32.5200   37.2290 H   0  0  0  0  0  0  0  0  0  0  0  0
   38.2440   32.3210   38.9520 H   0  0  0  0  0  0  0  0  0  0  0  0
   40.2420   28.3920   41.5230 C   0  0  0  0  0  0  0  0  0  0  0  0
   39.6410   28.8970   42.7090 C   0  0  0  0  0  0  0  0  0  0  0  0
   39.3460   30.2530   42.7710 C   0  0  0  0  0  0  0  0  0  0  0  0
   39.6500   31.0210   41.6910 N   0  0  0  0  0  0  0  0  0  0  0  0
   40.2100   30.5500   40.5850 C   0  0  0  0  0  0  0  0  0  0  0  0
   40.4880   29.2430   40.5390 N   0  0  0  0  0  0  0  0  0  0  0  0
   40.4850   31.4060   39.5300 N   0  0  0  0  0  0  0  0  0  0  0  0
   41.3390   32.5580   39.7320 C   0  0  0  0  0  0  0  0  0  0  0  0
   41.2240   33.5800   38.6560 C   0  0  0  0  0  0  0  0  0  0  0  0
   40.9370   33.1160   37.3400 N   0  0  0  0  0  0  0  0  0  0  0  0
   40.9200   31.6790   37.2460 C   0  0  0  0  0  0  0  0  0  0  0  0
   39.9010   31.1330   38.2000 C   0  0  2  0  0  0  0  0  0  0  0  0
   40.4490   27.3320   41.5260 H   0  0  0  0  0  0  0  0  0  0  0  0
   39.3850   28.3220   43.5840 H   0  0  0  0  0  0  0  0  0  0  0  0
   38.8840   30.6910   43.6600 H   0  0  0  0  0  0  0  0  0  0  0  0
   42.3880   32.1690   39.7060 H   0  0  0  0  0  0  0  0  0  0  0  0
   41.2180   33.0500   40.7000 H   0  0  0  0  0  0  0  0  0  0  0  0
   40.4600   34.3340   38.9860 H   0  0  0  0  0  0  0  0  0  0  0  0
   42.1920   34.1510   38.6090 H   0  0  0  0  0  0  0  0  0  0  0  0
   41.5440   33.5270   36.5910 H   0  0  0  0  0  0  0  0  0  0  0  0
   40.8630   31.3310   36.2210 H   0  0  0  0  0  0  0  0  0  0  0  0
   41.9140   31.2990   37.6290 H   0  0  0  0  0  0  0  0  0  0  0  0
   39.7860   30.0370   38.1250 H   0  0  0  0  0  0  0  0  0  0  0  0
   37.5880   30.6840   37.6920 C   0  0  0  0  0  3  0  0  0  0  0  0
   36.5720   30.3740   38.4900 C   0  0  0  0  0  3  0  0  0  0  0  0
   35.5530   29.3310   38.2430 C   0  0  0  0  0  0  0  0  0  0  0  0
   34.5530   29.7990   38.2870 H   0  0  0  0  0  0  0  0  0  0  0  0
   35.6450   28.8650   37.2450 H   0  0  0  0  0  0  0  0  0  0  0  0
   35.6090   28.3050   39.3660 C   0  0  2  0  0  0  0  0  0  0  0  0
   35.5830   28.8560   40.7720 C   0  0  0  0  0  0  0  0  0  0  0  0
   36.8170   28.2030   40.1990 C   0  0  1  0  0  0  0  0  0  0  0  0
   34.9990   27.4110   39.1360 H   0  0  0  0  0  0  0  0  0  0  0  0
   35.5680   29.9520   40.9130 H   0  0  0  0  0  0  0  0  0  0  0  0
   34.9190   28.3090   41.4560 H   0  0  0  0  0  0  0  0  0  0  0  0
   37.6630   28.9090   40.0570 H   0  0  0  0  0  0  0  0  0  0  0  0
   38.0550   26.0920   39.8380 C   0  0  0  0  0  0  0  0  0  0  0  0
   37.1920   26.8410   40.6490 C   0  0  0  0  0  0  0  0  0  0  0  0
   36.7600   26.2350   41.8100 C   0  0  0  0  0  0  0  0  0  0  0  0
   36.1050   26.7820   42.4410 H   0  0  0  0  0  0  0  0  0  0  0  0
   37.1300   24.9700   42.1950 C   0  0  0  0  0  0  0  0  0  0  0  0
   36.7750   24.5340   43.1030 H   0  0  0  0  0  0  0  0  0  0  0  0
   37.9690   24.2420   41.4070 C   0  0  0  0  0  3  0  0  0  0  0  0
   38.4240   24.8090   40.2350 C   0  0  0  0  0  3  0  0  0  0  0  0
   38.7090   28.1640   38.3990 H   0  0  0  0  0  0  0  0  0  0  0  0
   38.6350   26.8060   38.3520 S   0  0  0  0  0  0  0  0  0  0  0  0
   40.0310   26.2970   38.1240 O   0  0  0  0  0  0  0  0  0  0  0  0
   37.7570   26.3210   37.2200 O   0  0  0  0  0  0  0  0  0  0  0  0
  1 15  1  0  0  0  0
  1  3  1  0  0  0  0
  2  1  1  0  0  0  0
  4 16  1  0  0  0  0
  4  5  1  0  0  0  0
  5  6  2  0  0  0  0
  5 17  1  0  0  0  0
  6 18  1  0  0  0  0
  7  6  1  0  0  0  0
  8  7  2  0  0  0  0
  9  8  1  0  0  0  0
  9  4  2  0  0  0  0
 10 11  1  0  0  0  0
 10  8  1  0  0  0  0
 11 20  1  0  0  0  0
 12 21  1  0  0  0  0
 12 11  1  0  0  0  0
 13 12  1  0  0  0  0
 14 13  1  0  0  0  0
 14 25  1  0  0  0  0
 14 15  1  0  0  0  0
 15 26  1  6  0  0  0
 15 10  1  0  0  0  0
 19 11  1  0  0  0  0
 22 12  1  0  0  0  0
 23 13  1  0  0  0  0
 24 14  1  0  0  0  0
 27  1  1  0  0  0  0
 27 28  2  0  0  0  0
 29 30  1  0  0  0  0
 29 28  1  0  0  0  0
 29 32  1  0  0  0  0
 31 29  1  0  0  0  0
 32 35  1  6  0  0  0
 32 34  1  0  0  0  0
 32 33  1  0  0  0  0
 33 36  1  0  0  0  0
 33 37  1  0  0  0  0
 34 38  1  6  0  0  0
 34 40  1  0  0  0  0
 34 33  1  0  0  0  0
 39 46  2  0  0  0  0
 39 40  1  0  0  0  0
 40 41  2  0  0  0  0
 41 43  1  0  0  0  0
 41 42  1  0  0  0  0
 43 44  1  0  0  0  0
 45 43  2  0  0  0  0
 46 45  1  0  0  0  0
 48 47  1  0  0  0  0
 48 39  1  0  0  0  0
 49 48  2  0  0  0  0
 50 48  2  0  0  0  0
M  END
>  <minimizedAffinity>
-5.59301996

$$$$

 OpenBabel03242517333D

 50 53  0  0  1  0  0  0  0  0999 V2000
   38.2060   25.5590   40.0680 C   0  0  0  0  0  0  0  0  0  0  0  0
   38.2470   24.4560   39.9450 H   0  0  0  0  0  0  0  0  0  0  0  0
   39.2360   25.9220   39.9200 H   0  0  0  0  0  0  0  0  0  0  0  0
   38.1110   30.0280   42.5860 C   0  0  0  0  0  0  0  0  0  0  0  0
   39.3980   30.5450   42.2720 C   0  0  0  0  0  0  0  0  0  0  0  0
   40.4150   29.6470   41.9730 C   0  0  0  0  0  0  0  0  0  0  0  0
   40.1190   28.3200   41.9990 N   0  0  0  0  0  0  0  0  0  0  0  0
   38.9190   27.8360   42.2920 C   0  0  0  0  0  0  0  0  0  0  0  0
   37.9510   28.7130   42.5770 N   0  0  0  0  0  0  0  0  0  0  0  0
   38.7070   26.4670   42.2950 N   0  0  0  0  0  0  0  0  0  0  0  0
   39.5000   25.6090   43.1490 C   0  0  0  0  0  0  0  0  0  0  0  0
   39.4480   24.1730   42.7640 C   0  0  0  0  0  0  0  0  0  0  0  0
   38.2380   23.6930   42.1850 N   0  0  0  0  0  0  0  0  0  0  0  0
   37.1940   24.6850   42.1730 C   0  0  0  0  0  0  0  0  0  0  0  0
   37.6640   25.8910   41.4190 C   0  0  2  0  0  0  0  0  0  0  0  0
   37.3580   30.7680   42.8090 H   0  0  0  0  0  0  0  0  0  0  0  0
   39.6720   31.5870   42.2400 H   0  0  0  0  0  0  0  0  0  0  0  0
   41.4210   29.9940   41.7250 H   0  0  0  0  0  0  0  0  0  0  0  0
   39.0490   25.6930   44.1700 H   0  0  0  0  0  0  0  0  0  0  0  0
   40.5460   25.9090   43.2500 H   0  0  0  0  0  0  0  0  0  0  0  0
   40.3190   23.9720   42.0850 H   0  0  0  0  0  0  0  0  0  0  0  0
   39.6500   23.5550   43.6830 H   0  0  0  0  0  0  0  0  0  0  0  0
   37.8870   22.7930   42.5900 H   0  0  0  0  0  0  0  0  0  0  0  0
   36.2330   24.2730   41.8840 H   0  0  0  0  0  0  0  0  0  0  0  0
   37.0490   25.0420   43.2370 H   0  0  0  0  0  0  0  0  0  0  0  0
   36.8810   26.6630   41.3110 H   0  0  0  0  0  0  0  0  0  0  0  0
   37.2610   26.1390   39.0560 C   0  0  0  0  0  3  0  0  0  0  0  0
   36.5920   27.2620   39.2960 C   0  0  0  0  0  3  0  0  0  0  0  0
   35.6430   27.9280   38.3780 C   0  0  0  0  0  0  0  0  0  0  0  0
   35.7320   27.4600   37.3810 H   0  0  0  0  0  0  0  0  0  0  0  0
   34.5890   27.8160   38.6920 H   0  0  0  0  0  0  0  0  0  0  0  0
   36.0460   29.3860   38.2170 C   0  0  2  0  0  0  0  0  0  0  0  0
   36.5840   29.7820   36.8630 C   0  0  0  0  0  0  0  0  0  0  0  0
   37.4680   29.7380   38.0850 C   0  0  1  0  0  0  0  0  0  0  0  0
   35.3360   30.0670   38.7250 H   0  0  0  0  0  0  0  0  0  0  0  0
   36.6960   29.0030   36.0870 H   0  0  0  0  0  0  0  0  0  0  0  0
   36.1890   30.7350   36.4840 H   0  0  0  0  0  0  0  0  0  0  0  0
   38.2440   28.9450   38.0380 H   0  0  0  0  0  0  0  0  0  0  0  0
   39.2350   31.3910   38.5960 C   0  0  0  0  0  0  0  0  0  0  0  0
   37.8930   31.0090   38.7190 C   0  0  0  0  0  0  0  0  0  0  0  0
   37.0740   31.8610   39.4310 C   0  0  0  0  0  0  0  0  0  0  0  0
   36.0530   31.5930   39.5380 H   0  0  0  0  0  0  0  0  0  0  0  0
   37.5050   33.0320   40.0040 C   0  0  0  0  0  0  0  0  0  0  0  0
   36.8400   33.6670   40.5480 H   0  0  0  0  0  0  0  0  0  0  0  0
   38.8090   33.4040   39.8850 C   0  0  0  0  0  3  0  0  0  0  0  0
   39.6640   32.5810   39.1820 C   0  0  0  0  0  3  0  0  0  0  0  0
   39.7250   29.7130   36.6630 H   0  0  0  0  0  0  0  0  0  0  0  0
   40.3220   30.3510   37.7060 S   0  0  0  0  0  0  0  0  0  0  0  0
   41.4030   31.2210   37.1280 O   0  0  0  0  0  0  0  0  0  0  0  0
   40.9550   29.3830   38.6810 O   0  0  0  0  0  0  0  0  0  0  0  0
  1 15  1  0  0  0  0
  2  1  1  0  0  0  0
  3  1  1  0  0  0  0
  4 16  1  0  0  0  0
  5  4  2  0  0  0  0
  6  7  2  0  0  0  0
  6  5  1  0  0  0  0
  7  8  1  0  0  0  0
  8 10  1  0  0  0  0
  8  9  2  0  0  0  0
  9  4  1  0  0  0  0
 10 11  1  0  0  0  0
 11 20  1  0  0  0  0
 11 19  1  0  0  0  0
 12 11  1  0  0  0  0
 12 22  1  0  0  0  0
 13 23  1  0  0  0  0
 13 12  1  0  0  0  0
 14 13  1  0  0  0  0
 14 25  1  0  0  0  0
 15 26  1  6  0  0  0
 15 14  1  0  0  0  0
 15 10  1  0  0  0  0
 17  5  1  0  0  0  0
 18  6  1  0  0  0  0
 21 12  1  0  0  0  0
 24 14  1  0  0  0  0
 27 28  2  0  0  0  0
 27  1  1  0  0  0  0
 29 31  1  0  0  0  0
 29 28  1  0  0  0  0
 30 29  1  0  0  0  0
 32 29  1  0  0  0  0
 32 35  1  1  0  0  0
 33 34  1  0  0  0  0
 33 32  1  0  0  0  0
 34 38  1  1  0  0  0
 34 32  1  0  0  0  0
 34 40  1  0  0  0  0
 36 33  1  0  0  0  0
 37 33  1  0  0  0  0
 39 40  2  0  0  0  0
 39 46  1  0  0  0  0
 40 41  1  0  0  0  0
 41 42  1  0  0  0  0
 41 43  2  0  0  0  0
 43 44  1  0  0  0  0
 45 43  1  0  0  0  0
 46 45  2  0  0  0  0
 47 48  1  0  0  0  0
 48 39  1  0  0  0  0
 48 50  2  0  0  0  0
 49 48  2  0  0  0  0
M  END
>  <minimizedAffinity>
-5.59035826

$$$$

 OpenBabel03242517333D

 50 53  0  0  1  0  0  0  0  0999 V2000
   39.3820   30.9530   39.4930 C   0  0  0  0  0  0  0  0  0  0  0  0
   38.6670   30.7150   38.6780 H   0  0  0  0  0  0  0  0  0  0  0  0
   39.1800   31.9980   39.7830 H   0  0  0  0  0  0  0  0  0  0  0  0
   43.5830   29.4760   42.0400 C   0  0  0  0  0  0  0  0  0  0  0  0
   43.4320   30.1960   43.2570 C   0  0  0  0  0  0  0  0  0  0  0  0
   42.7030   31.3780   43.2360 C   0  0  0  0  0  0  0  0  0  0  0  0
   42.1740   31.7790   42.0500 N   0  0  0  0  0  0  0  0  0  0  0  0
   42.3150   31.1080   40.9140 C   0  0  0  0  0  0  0  0  0  0  0  0
   43.0190   29.9720   40.9500 N   0  0  0  0  0  0  0  0  0  0  0  0
   41.7400   31.5910   39.7500 N   0  0  0  0  0  0  0  0  0  0  0  0
   42.0810   32.9110   39.2640 C   0  0  0  0  0  0  0  0  0  0  0  0
   41.1180   33.4440   38.2620 C   0  0  0  0  0  0  0  0  0  0  0  0
   40.4770   32.5040   37.4050 N   0  0  0  0  0  0  0  0  0  0  0  0
   40.9700   31.1620   37.5810 C   0  0  0  0  0  0  0  0  0  0  0  0
   40.7800   30.7470   39.0080 C   0  0  2  0  0  0  0  0  0  0  0  0
   44.1580   28.5650   42.1120 H   0  0  0  0  0  0  0  0  0  0  0  0
   43.8350   29.9120   44.2160 H   0  0  0  0  0  0  0  0  0  0  0  0
   42.5580   31.9690   44.1450 H   0  0  0  0  0  0  0  0  0  0  0  0
   43.0680   32.8010   38.7460 H   0  0  0  0  0  0  0  0  0  0  0  0
   42.2270   33.6600   40.0460 H   0  0  0  0  0  0  0  0  0  0  0  0
   40.3580   34.0580   38.8150 H   0  0  0  0  0  0  0  0  0  0  0  0
   41.6630   34.1800   37.6080 H   0  0  0  0  0  0  0  0  0  0  0  0
   40.4770   32.7670   36.3910 H   0  0  0  0  0  0  0  0  0  0  0  0
   40.6010   30.4810   36.8220 H   0  0  0  0  0  0  0  0  0  0  0  0
   42.0910   31.1860   37.4290 H   0  0  0  0  0  0  0  0  0  0  0  0
   41.0710   29.6980   39.1940 H   0  0  0  0  0  0  0  0  0  0  0  0
   39.1660   30.0070   40.6400 C   0  0  0  0  0  3  0  0  0  0  0  0
   38.8730   30.4510   41.8580 C   0  0  0  0  0  3  0  0  0  0  0  0
   38.6350   29.6180   43.0570 C   0  0  0  0  0  0  0  0  0  0  0  0
   39.6110   29.2760   43.4460 H   0  0  0  0  0  0  0  0  0  0  0  0
   38.1400   30.1710   43.8760 H   0  0  0  0  0  0  0  0  0  0  0  0
   37.8620   28.3720   42.6520 C   0  0  2  0  0  0  0  0  0  0  0  0
   36.9010   27.8220   43.6800 C   0  0  0  0  0  0  0  0  0  0  0  0
   38.1620   27.0860   43.3010 C   0  0  1  0  0  0  0  0  0  0  0  0
   37.5390   28.4130   41.5950 H   0  0  0  0  0  0  0  0  0  0  0  0
   36.8390   28.3160   44.6670 H   0  0  0  0  0  0  0  0  0  0  0  0
   35.9260   27.5240   43.2690 H   0  0  0  0  0  0  0  0  0  0  0  0
   38.9030   27.0290   44.1270 H   0  0  0  0  0  0  0  0  0  0  0  0
   39.2560   25.3370   41.9370 C   0  0  0  0  0  0  0  0  0  0  0  0
   38.0690   25.8800   42.4440 C   0  0  0  0  0  0  0  0  0  0  0  0
   36.9000   25.2350   42.0960 C   0  0  0  0  0  0  0  0  0  0  0  0
   35.9870   25.6280   42.4680 H   0  0  0  0  0  0  0  0  0  0  0  0
   36.8530   24.1180   41.2990 C   0  0  0  0  0  0  0  0  0  0  0  0
   35.9280   23.6440   41.0520 H   0  0  0  0  0  0  0  0  0  0  0  0
   38.0070   23.5890   40.8060 C   0  0  0  0  0  3  0  0  0  0  0  0
   39.1990   24.2030   41.1280 C   0  0  0  0  0  3  0  0  0  0  0  0
   40.7440   26.7500   43.5430 H   0  0  0  0  0  0  0  0  0  0  0  0
   40.7700   26.1110   42.3420 S   0  0  0  0  0  0  0  0  0  0  0  0
   41.8140   25.0340   42.4410 O   0  0  0  0  0  0  0  0  0  0  0  0
   41.1450   27.0400   41.2090 O   0  0  0  0  0  0  0  0  0  0  0  0
  1  3  1  0  0  0  0
  1 27  1  0  0  0  0
  2  1  1  0  0  0  0
  4 16  1  0  0  0  0
  4  5  1  0  0  0  0
  5 17  1  0  0  0  0
  6  5  2  0  0  0  0
  6 18  1  0  0  0  0
  7  6  1  0  0  0  0
  8  9  1  0  0  0  0
  8  7  2  0  0  0  0
  9  4  2  0  0  0  0
 10  8  1  0  0  0  0
 11 10  1  0  0  0  0
 11 20  1  0  0  0  0
 12 21  1  0  0  0  0
 12 11  1  0  0  0  0
 13 14  1  0  0  0  0
 13 12  1  0  0  0  0
 14 15  1  0  0  0  0
 15 26  1  1  0  0  0
 15  1  1  0  0  0  0
 15 10  1  0  0  0  0
 19 11  1  0  0  0  0
 22 12  1  0  0  0  0
 23 13  1  0  0  0  0
 24 14  1  0  0  0  0
 25 14  1  0  0  0  0
 27 28  2  0  0  0  0
 28 29  1  0  0  0  0
 29 30  1  0  0  0  0
 29 31  1  0  0  0  0
 32 35  1  6  0  0  0
 32 29  1  0  0  0  0
 32 34  1  0  0  0  0
 32 33  1  0  0  0  0
 33 36  1  0  0  0  0
 34 33  1  0  0  0  0
 34 38  1  1  0  0  0
 37 33  1  0  0  0  0
 39 48  1  0  0  0  0
 39 40  1  0  0  0  0
 40 34  1  0  0  0  0
 41 40  2  0  0  0  0
 41 42  1  0  0  0  0
 43 41  1  0  0  0  0
 44 43  1  0  0  0  0
 45 46  1  0  0  0  0
 45 43  2  0  0  0  0
 46 39  2  0  0  0  0
 48 49  2  0  0  0  0
 48 47  1  0  0  0  0
 50 48  2  0  0  0  0
M  END
>  <minimizedAffinity>
-5.55530596

$$$$
