
 OpenBabel03242519473D

 41 43  0  0  1  0  0  0  0  0999 V2000
   46.6280   32.7160   46.5390 C   0  0  2  0  0  0  0  0  0  0  0  0
   47.1140   32.7330   45.1430 C   0  0  1  0  0  0  0  0  0  0  0  0
   46.7290   31.4080   44.6280 O   0  0  0  0  0  0  0  0  0  0  0  0
   47.3650   30.6670   45.6470 C   0  0  0  0  0  0  0  0  0  0  0  0
   46.6220   31.2270   46.8700 C   0  0  2  0  0  0  0  0  0  0  0  0
   47.2270   33.2880   47.2560 H   0  0  0  0  0  0  0  0  0  0  0  0
   48.2280   32.7170   45.1310 H   0  0  0  0  0  0  0  0  0  0  0  0
   47.3890   29.6200   45.5320 H   0  0  0  0  0  0  0  0  0  0  0  0
   48.3860   31.1170   45.7350 H   0  0  0  0  0  0  0  0  0  0  0  0
   47.2420   30.9920   47.7640 H   0  0  0  0  0  0  0  0  0  0  0  0
   44.7530   35.2470   43.9630 C   0  0  0  0  0  0  0  0  0  0  0  0
   45.3590   35.7670   42.8170 C   0  0  0  0  0  0  0  0  0  0  0  0
   46.6120   35.2400   42.4290 C   0  0  0  0  0  0  0  0  0  0  0  0
   47.1670   34.2580   43.1830 N   0  0  0  0  0  0  0  0  0  0  0  0
   46.5600   33.7720   44.2860 C   0  0  0  0  0  0  0  0  0  0  0  0
   45.3540   34.2610   44.6830 N   0  0  0  0  0  0  0  0  0  0  0  0
   44.8840   36.5480   42.2460 H   0  0  0  0  0  0  0  0  0  0  0  0
   47.1180   35.6130   41.5470 H   0  0  0  0  0  0  0  0  0  0  0  0
   43.5120   35.7310   44.3970 O   0  0  0  0  0  0  0  0  0  0  0  0
   43.0650   36.4530   43.8380 H   0  0  0  0  0  0  0  0  0  0  0  0
   45.2620   33.1760   46.5660 O   0  0  0  0  0  0  0  0  0  0  0  0
   44.7350   32.4260   46.1610 H   0  0  0  0  0  0  0  0  0  0  0  0
   45.3720   30.7210   46.8830 O   0  0  0  0  0  0  0  0  0  0  0  0
   44.9530   30.0390   47.9870 C   0  0  0  0  0  0  0  0  0  0  0  0
   43.7830   30.0370   47.9730 H   0  0  0  0  0  0  0  0  0  0  0  0
   45.2690   30.4420   48.9090 H   0  0  0  0  0  0  0  0  0  0  0  0
   45.1770   28.5380   47.9030 C   0  0  0  0  0  0  0  0  0  0  0  0
   44.7140   28.0060   48.7520 H   0  0  0  0  0  0  0  0  0  0  0  0
   46.2340   28.2370   47.9060 H   0  0  0  0  0  0  0  0  0  0  0  0
   45.3820   27.1660   45.8680 C   0  0  0  0  0  0  0  0  0  0  0  0
   44.6480   28.1020   46.5910 C   0  0  0  0  0  0  0  0  0  0  0  0
   43.4770   28.5570   46.0270 C   0  0  0  0  0  0  0  0  0  0  0  0
   42.8700   29.2870   46.5360 H   0  0  0  0  0  0  0  0  0  0  0  0
   42.9780   28.1540   44.8090 C   0  0  0  0  0  0  0  0  0  0  0  0
   42.0420   28.5460   44.4080 H   0  0  0  0  0  0  0  0  0  0  0  0
   43.6740   27.2290   44.0620 C   0  0  0  0  0  3  0  0  0  0  0  0
   44.8590   26.7690   44.6300 C   0  0  0  0  0  3  0  0  0  0  0  0
   46.8370   25.8010   47.5280 H   0  0  0  0  0  0  0  0  0  0  0  0
   46.8880   26.4210   46.3030 S   0  0  0  0  0  0  0  0  0  0  0  0
   47.1580   25.3100   45.2920 O   0  0  0  0  0  0  0  0  0  0  0  0
   48.0680   27.3110   46.2510 O   0  0  0  0  0  0  0  0  0  0  0  0
  1 21  1  0  0  0  0
  1  5  1  0  0  0  0
  1  6  1  1  0  0  0
  2  7  1  1  0  0  0
  2  1  1  0  0  0  0
  3  2  1  0  0  0  0
  3  4  1  0  0  0  0
  4  9  1  0  0  0  0
  4  5  1  0  0  0  0
  5 23  1  0  0  0  0
  5 10  1  1  0  0  0
  8  4  1  0  0  0  0
 11 19  1  0  0  0  0
 11 16  1  0  0  0  0
 12 11  2  0  0  0  0
 13 12  1  0  0  0  0
 13 14  2  0  0  0  0
 14 15  1  0  0  0  0
 15 16  2  0  0  0  0
 15  2  1  0  0  0  0
 17 12  1  0  0  0  0
 18 13  1  0  0  0  0
 20 19  1  0  0  0  0
 22 21  1  0  0  0  0
 23 24  1  0  0  0  0
 24 26  1  0  0  0  0
 25 24  1  0  0  0  0
 27 29  1  0  0  0  0
 27 24  1  0  0  0  0
 27 28  1  0  0  0  0
 30 39  1  0  0  0  0
 30 31  1  0  0  0  0
 31 27  1  0  0  0  0
 32 33  1  0  0  0  0
 32 31  2  0  0  0  0
 34 32  1  0  0  0  0
 35 34  1  0  0  0  0
 36 37  1  0  0  0  0
 36 34  2  0  0  0  0
 37 30  2  0  0  0  0
 39 38  1  0  0  0  0
 40 39  2  0  0  0  0
 41 39  2  0  0  0  0
M  END
>  <minimizedAffinity>
-4.98922443

>  <minimizedRMSD>
1.14162159

$$$$
