
     RDKit          3D

 50 52  0  0  0  0  0  0  0  0999 V2000
   47.1710   34.1570   43.0867 N   0  0  0  0  0  0  0  0  0  0  0  0
   46.6504   35.3552   42.5221 C   0  0  0  0  0  0  0  0  0  0  0  0
   45.1858   35.5937   42.7402 C   0  0  0  0  0  0  0  0  0  0  0  0
   44.6502   35.0548   44.0353 C   0  0  0  0  0  0  0  0  0  0  0  0
   45.7452   34.4699   44.8962 C   0  0  0  0  0  0  0  0  0  0  0  0
   46.4116   33.3982   43.9607 C   0  0  2  0  0  0  0  0  0  0  0  0
   48.1518   33.4983   42.2659 C   0  0  0  0  0  0  0  0  0  0  0  0
   47.4408   32.6488   41.2538 C   0  0  0  0  0  0  0  0  0  0  0  0
   49.3336   32.2850   38.0280 C   0  0  0  0  0  0  0  0  0  0  0  0
   48.8046   32.0223   39.3067 C   0  0  0  0  0  0  0  0  0  0  0  0
   47.9887   32.9437   39.9058 C   0  0  0  0  0  0  0  0  0  0  0  0
   47.7302   34.0697   39.2322 N   0  0  0  0  0  0  0  0  0  0  0  0
   48.2342   34.3250   38.0088 C   0  0  0  0  0  0  0  0  0  0  0  0
   49.0364   33.4374   37.4009 N   0  0  0  0  0  0  0  0  0  0  0  0
   47.2070   32.6974   44.8542 O   0  0  0  0  0  0  0  0  0  0  0  0
   46.0070   30.5438   43.8674 O   0  0  0  0  0  0  0  0  0  0  0  0
   46.6748   31.1295   45.1200 P   0  0  2  0  0  0  0  0  0  0  0  0
   45.4083   31.2404   46.2678 O   0  0  0  0  0  0  0  0  0  0  0  0
   47.8243   30.1179   45.7444 O   0  0  0  0  0  0  0  0  0  0  0  0
   46.8494   35.5182   41.4608 H   0  0  0  0  0  0  0  0  0  0  0  0
   47.1882   36.2045   43.0403 H   0  0  0  0  0  0  0  0  0  0  0  0
   44.9626   36.6775   42.7149 H   0  0  0  0  0  0  0  0  0  0  0  0
   44.6404   35.1755   41.8511 H   0  0  0  0  0  0  0  0  0  0  0  0
   43.9792   34.2048   43.7807 H   0  0  0  0  0  0  0  0  0  0  0  0
   44.0362   35.7904   44.5790 H   0  0  0  0  0  0  0  0  0  0  0  0
   45.2616   33.9305   45.7348 H   0  0  0  0  0  0  0  0  0  0  0  0
   46.5076   35.1979   45.2073 H   0  0  0  0  0  0  0  0  0  0  0  0
   45.5594   32.8127   43.5621 H   0  0  0  0  0  0  0  0  0  0  0  0
   48.7484   34.3048   41.7664 H   0  0  0  0  0  0  0  0  0  0  0  0
   48.8684   32.8787   42.8075 H   0  0  0  0  0  0  0  0  0  0  0  0
   46.3643   32.9117   41.2118 H   0  0  0  0  0  0  0  0  0  0  0  0
   47.5090   31.5597   41.4536 H   0  0  0  0  0  0  0  0  0  0  0  0
   49.9808   31.5564   37.5506 H   0  0  0  0  0  0  0  0  0  0  0  0
   49.0926   31.0737   39.7405 H   0  0  0  0  0  0  0  0  0  0  0  0
   47.9674   35.2677   37.5407 H   0  0  0  0  0  0  0  0  0  0  0  0
   45.1296   30.2884   46.4233 H   0  0  0  0  0  0  0  0  0  0  0  0
   48.6087   31.9091   49.1654 H   0  0  0  0  0  0  0  0  0  0  0  0
   48.4281   30.7131   48.5209 S   0  0  0  0  0  0  0  0  0  0  0  0
   47.0029   30.6862   48.0350 O   0  0  0  0  0  0  0  0  0  0  0  0
   48.6794   29.5388   49.4488 O   0  0  0  0  0  0  0  0  0  0  0  0
   49.5456   30.5706   47.1625 C   0  0  0  0  0  0  0  0  0  0  0  0
   49.1868   30.2798   45.8407 C   0  0  0  0  0  0  0  0  0  0  0  0
   50.1893   30.2046   44.8964 C   0  0  0  0  0  0  0  0  0  0  0  0
   49.7950   29.9754   43.9168 H   0  0  0  0  0  0  0  0  0  0  0  0
   51.5054   30.4114   45.2528 C   0  0  0  0  0  0  0  0  0  0  0  0
   52.2307   30.3338   44.4485 H   0  0  0  0  0  0  0  0  0  0  0  0
   51.8730   30.6988   46.5513 C   0  0  0  0  0  0  0  0  0  0  0  0
   50.8852   30.7785   47.5112 C   0  0  0  0  0  0  0  0  0  0  0  0
   52.9400   30.8524   46.7670 H   0  0  0  0  0  0  0  0  0  0  0  0
   51.2058   31.0051   48.5188 H   0  0  0  0  0  0  0  0  0  0  0  0
  1  6  1  0
  2  3  1  0
  2  1  1  0
  3  4  1  0
  4  5  1  0
  6 15  1  0
  6  5  1  0
  7  1  1  0
  8  7  1  0
  9 10  2  0
 10 11  1  0
 11  8  1  0
 12 11  2  0
 13 12  1  0
 14 13  2  0
 14  9  1  0
 17 15  1  6
 16 17  2  0
 17 19  1  0
 17 18  1  0
  2 20  1  0
  2 21  1  0
  3 22  1  0
  3 23  1  0
  4 24  1  0
  4 25  1  0
  5 26  1  0
  5 27  1  0
  6 28  1  6
  7 29  1  0
  7 30  1  0
  8 31  1  0
  8 32  1  0
  9 33  1  0
 10 34  1  0
 13 35  1  0
 18 36  1  0
 37 38  1  0
 38 39  2  0
 38 40  2  0
 38 41  1  0
 41 42  2  0
 42 43  1  0
 43 44  1  0
 43 45  2  0
 45 46  1  0
 45 47  1  0
 47 48  2  0
 48 41  1  0
 47 49  1  0
 48 50  1  0
 19 42  1  0
M  ISO  8  20  13  21  13  22  13  23  13  24  13  25  13  26  13  27  13
M  ISO  8  28  13  29   8  30   8  31   8  32   8  33  14  34  14  35  14
M  ISO  4  36   3  37  12  44  15  46  16
M  END
>  <DihAtoms>  (1) 
16,18,41,40

>  <DihDeg>  (1) 
179.99781786353864

$$$$
