
     RDKit          3D

 36 38  0  0  0  0  0  0  0  0999 V2000
   44.9087   35.0390   43.5570 C   0  0  0  0  0  0  0  0  0  0  0  0
   45.2914   34.9211   42.2186 C   0  0  0  0  0  0  0  0  0  0  0  0
   46.3888   34.1361   41.8666 C   0  0  0  0  0  0  0  0  0  0  0  0
   47.0323   33.5186   42.8876 N   0  0  0  0  0  0  0  0  0  0  0  0
   46.6522   33.6425   44.1634 C   0  0  0  0  0  0  0  0  0  0  0  0
   45.5934   34.4003   44.4998 N   0  0  0  0  0  0  0  0  0  0  0  0
   43.7831   35.8516   43.8587 N   0  0  0  0  0  0  0  0  0  0  0  0
   47.9655   34.6388   40.0982 C   0  0  0  0  0  0  0  0  0  0  0  0
   46.8162   33.9895   40.4888 C   0  0  0  0  0  0  0  0  0  0  0  0
   46.1614   33.2481   39.5318 C   0  0  0  0  0  0  0  0  0  0  0  0
   46.6077   33.1354   38.2217 C   0  0  0  0  0  0  0  0  0  0  0  0
   47.7580   33.8006   37.8794 C   0  0  0  0  0  0  0  0  0  0  0  0
   48.4466   34.5572   38.8122 C   0  0  0  0  0  0  0  0  0  0  0  0
   49.3209   36.0869   41.8096 N   0  0  0  0  0  0  0  0  0  0  0  0
   48.7097   35.4364   41.0424 C   0  0  0  0  0  0  0  0  0  0  0  0
   44.7594   35.4270   41.4103 H   0  0  0  0  0  0  0  0  0  0  0  0
   47.2444   33.0993   44.9073 H   0  0  0  0  0  0  0  0  0  0  0  0
   42.9608   35.3583   44.2755 H   0  0  0  0  0  0  0  0  0  0  0  0
   43.7235   36.8721   43.6983 H   0  0  0  0  0  0  0  0  0  0  0  0
   45.2527   32.7395   39.8561 H   0  0  0  0  0  0  0  0  0  0  0  0
   46.0408   32.5396   37.5398 H   0  0  0  0  0  0  0  0  0  0  0  0
   48.1073   33.7129   36.8556 H   0  0  0  0  0  0  0  0  0  0  0  0
   51.5211   32.5780   36.6593 H   0  0  0  0  0  0  0  0  0  0  0  0
   50.8110   32.9201   37.7874 S   0  0  0  0  0  0  0  0  0  0  0  0
   49.4199   32.3983   37.6265 O   0  0  0  0  0  0  0  0  0  0  0  0
   51.5278   32.2560   38.9510 O   0  0  0  0  0  0  0  0  0  0  0  0
   50.8183   34.6684   37.9759 C   0  0  0  0  0  0  0  0  0  0  0  0
   49.6693   35.2655   38.4523 C   0  0  0  0  0  0  0  0  0  0  0  0
   49.6007   36.6413   38.6273 C   0  0  0  0  0  0  0  0  0  0  0  0
   48.7579   37.2060   38.9906 H   0  0  0  0  0  0  0  0  0  0  0  0
   50.7100   37.4001   38.3135 C   0  0  0  0  0  0  0  0  0  0  0  0
   50.7078   38.4926   38.4336 H   0  0  0  0  0  0  0  0  0  0  0  0
   51.8809   36.8116   37.8302 C   0  0  0  0  0  0  0  0  0  0  0  0
   51.9270   35.4269   37.6624 C   0  0  0  0  0  0  0  0  0  0  0  0
   52.7445   37.4099   37.5867 H   0  0  0  0  0  0  0  0  0  0  0  0
   52.8114   34.9281   37.2913 H   0  0  0  0  0  0  0  0  0  0  0  0
  1  7  1  0
  1  6  2  0
  2  1  1  0
  3  2  2  0
  3  4  1  0
  4  5  2  0
  5  6  1  0
  8  9  2  0
  8 15  1  0
  9  3  1  0
 10  9  1  0
 11 10  2  0
 12 11  1  0
 12 13  2  0
 13  8  1  0
 15 14  3  0
  2 16  1  0
  5 17  1  0
  7 18  1  0
  7 19  1  0
 10 20  1  0
 11 21  1  0
 12 22  1  0
 23 24  1  0
 24 25  2  0
 24 26  2  0
 24 27  1  0
 27 28  2  0
 28 29  1  0
 29 30  1  0
 29 31  2  0
 31 32  1  0
 31 33  1  0
 33 34  2  0
 34 27  1  0
 33 35  1  0
 34 36  1  0
 13 28  1  0
M  ISO  8  16  14  17  14  20  14  21  14  22  14  23  12  30  15  32  16
M  END
>  <DihAtoms>  (1) 
11,12,27,26

>  <DihDeg>  (1) 
-89.99887256618251

$$$$
