REMARK  Name = 
REMARK  8 active torsions:
REMARK  status: ('A' for Active; 'I' for Inactive)
REMARK    1  A    between atoms: C_2  and  O_17
REMARK    2  A    between atoms: C_3  and  C_7
REMARK    3  A    between atoms: O_17  and  P_19
REMARK    4  A    between atoms: P_19  and  O_20
REMARK    5  A    between atoms: P_19  and  O_21
REMARK    6  A    between atoms: O_20  and  C_41
REMARK    7  A    between atoms: O_21  and  C_22
REMARK    8  A    between atoms: S_37  and  C_40
REMARK                            x       y       z     vdW  Elec       q    Type
REMARK                         _______ _______ _______ _____ _____    ______ ____
ROOT
ATOM      1  C   UNL     1      45.130  36.015  42.915  0.00  0.00    +0.000 A 
ATOM      2  C   UNL     1      45.371  34.651  42.910  0.00  0.00    +0.000 A 
ATOM      3  C   UNL     1      45.216  33.920  44.062  0.00  0.00    +0.000 A 
ATOM      4  N   UNL     1      44.814  34.611  45.188  0.00  0.00    +0.000 NA
ATOM      5  C   UNL     1      44.583  35.921  45.189  0.00  0.00    +0.000 A 
ATOM      6  N   UNL     1      44.746  36.612  44.041  0.00  0.00    +0.000 NA
ATOM      7  H   UNL     1      45.242  36.626  42.026  0.00  0.00    +0.000 HD
ATOM      8  H   UNL     1      44.268  36.434  46.092  0.00  0.00    +0.000 HD
ENDROOT
BRANCH   3   9
ATOM      9  C   UNL     1      45.421  32.530  44.221  0.00  0.00    +0.000 A 
ATOM     10  C   UNL     1      44.941  31.562  43.333  0.00  0.00    +0.000 A 
ATOM     11  C   UNL     1      45.080  30.211  43.519  0.00  0.00    +0.000 A 
ATOM     12  C   UNL     1      45.726  29.739  44.639  0.00  0.00    +0.000 A 
ATOM     13  C   UNL     1      46.219  30.704  45.547  0.00  0.00    +0.000 A 
ATOM     14  C   UNL     1      46.863  30.251  46.673  0.00  0.00    +0.000 A 
ATOM     15  C   UNL     1      47.369  31.134  47.605  0.00  0.00    +0.000 A 
ATOM     16  C   UNL     1      47.223  32.515  47.393  0.00  0.00    +0.000 A 
ATOM     17  C   UNL     1      46.557  32.937  46.228  0.00  0.00    +0.000 A 
ATOM     18  C   UNL     1      46.063  32.035  45.326  0.00  0.00    +0.000 A 
ATOM     19  H   UNL     1      44.431  31.934  42.449  0.00  0.00    +0.000 HD
ATOM     20  H   UNL     1      44.684  29.508  42.790  0.00  0.00    +0.000 HD
ATOM     21  H   UNL     1      45.869  28.687  44.849  0.00  0.00    +0.000 HD
ATOM     22  H   UNL     1      46.967  29.182  46.819  0.00  0.00    +0.000 HD
ATOM     23  H   UNL     1      47.863  30.706  48.470  0.00  0.00    +0.000 HD
ATOM     24  H   UNL     1      47.649  33.129  48.169  0.00  0.00    +0.000 HD
ATOM     25  H   UNL     1      46.567  34.006  46.236  0.00  0.00    +0.000 HD
ENDBRANCH   3   9
BRANCH   2  26
ATOM     26  O   UNL     1      45.760  34.089  41.724  0.00  0.00    +0.000 OA
BRANCH  26  28
ATOM     27  O   UNL     1      47.681  32.430  41.087  0.00  0.00    +0.000 OA
ATOM     28  P   UNL     1      47.370  33.877  41.244  0.00  0.00    +0.000 P 
BRANCH  28  29
ATOM     29  O   UNL     1      47.652  34.606  39.740  0.00  0.00    +0.000 OA
BRANCH  29  31
ATOM     30  C   UNL     1      47.772  33.946  37.479  0.00  0.00    +0.000 A 
ATOM     31  C   UNL     1      47.001  34.112  38.617  0.00  0.00    +0.000 A 
ATOM     32  C   UNL     1      45.664  33.788  38.579  0.00  0.00    +0.000 A 
ATOM     33  H   UNL     1      45.070  33.916  39.454  0.00  0.00    +0.000 HD
ATOM     34  C   UNL     1      45.098  33.302  37.416  0.00  0.00    +0.000 A 
ATOM     35  H   UNL     1      44.039  33.052  37.409  0.00  0.00    +0.000 HD
ATOM     36  C   UNL     1      45.851  33.128  36.267  0.00  0.00    +0.000 A 
ATOM     37  C   UNL     1      47.191  33.455  36.314  0.00  0.00    +0.000 A 
BRANCH  30  39
ATOM     38  H   UNL     1      50.012  34.610  38.593  0.00  0.00    +0.000 HD
ATOM     39  S   UNL     1      49.478  34.310  37.368  0.00  0.00    +0.000 S 
ATOM     40  O   UNL     1      49.671  35.474  36.414  0.00  0.00    +0.000 OA
ATOM     41  O   UNL     1      50.239  33.139  36.816  0.00  0.00    +0.000 OA
ENDBRANCH  30  39
ENDBRANCH  29  31
ENDBRANCH  28  29
BRANCH  28  42
ATOM     42  O   UNL     1      48.362  34.595  42.389  0.00  0.00    +0.000 OA
BRANCH  42  43
ATOM     43  C   UNL     1      49.535  35.292  42.149  0.00  0.00    +0.000 C 
ATOM     44  O   UNL     1      49.203  36.212  41.377  0.00  0.00    +0.000 OA
ATOM     45  N   UNL     1      50.639  34.700  42.862  0.00  0.00    +0.000 N 
ATOM     46  H   UNL     1      50.615  34.817  43.919  0.00  0.00    +0.000 HD
ATOM     47  H   UNL     1      51.463  34.170  42.486  0.00  0.00    +0.000 HD
ENDBRANCH  42  43
ENDBRANCH  28  42
ENDBRANCH  26  28
ENDBRANCH   2  26
TORSDOF 8
