
 OpenBabel03252507383D

 41 45  0  0  0  0  0  0  0  0999 V2000
   45.6250   34.8440   43.4220 C   0  0  0  0  0  0  0  0  0  0  0  0
   46.3190   33.7670   44.0300 C   0  0  0  0  0  0  0  0  0  0  0  0
   46.0720   33.5300   45.3720 C   0  0  0  0  0  0  0  0  0  0  0  0
   45.1980   34.3240   46.0220 N   0  0  0  0  0  0  0  0  0  0  0  0
   44.5460   35.3480   45.4190 C   0  0  0  0  0  0  0  0  0  0  0  0
   44.7640   35.5960   44.1340 N   0  0  0  0  0  0  0  0  0  0  0  0
   47.0210   33.1300   43.5090 H   0  0  0  0  0  0  0  0  0  0  0  0
   43.8530   35.9440   46.0170 H   0  0  0  0  0  0  0  0  0  0  0  0
   46.9830   32.7110   47.4760 C   0  0  0  0  0  0  0  0  0  0  0  0
   46.7060   32.4620   46.1370 C   0  0  0  0  0  0  0  0  0  0  0  0
   47.0430   31.2340   45.6210 C   0  0  0  0  0  0  0  0  0  0  0  0
   47.6390   30.2510   46.3740 C   0  0  0  0  0  0  0  0  0  0  0  0
   48.0540   28.9980   46.0920 N   0  0  0  0  0  0  0  0  0  0  0  0
   48.5880   28.4730   47.2600 C   0  0  0  0  0  0  0  0  0  0  0  0
   48.4900   29.4020   48.2160 N   0  0  0  0  0  0  0  0  0  0  0  0
   47.9130   30.4970   47.6970 C   0  0  0  0  0  0  0  0  0  0  0  0
   47.5870   31.7210   48.2460 C   0  0  0  0  0  0  0  0  0  0  0  0
   46.7460   33.6570   47.9540 H   0  0  0  0  0  0  0  0  0  0  0  0
   46.8130   31.0680   44.5650 H   0  0  0  0  0  0  0  0  0  0  0  0
   47.9870   28.5110   45.1670 H   0  0  0  0  0  0  0  0  0  0  0  0
   49.0100   27.4780   47.3710 H   0  0  0  0  0  0  0  0  0  0  0  0
   47.7890   31.9500   49.2880 H   0  0  0  0  0  0  0  0  0  0  0  0
   45.8760   35.0810   42.0650 O   0  0  0  0  0  0  0  0  0  0  0  0
   45.0560   34.4940   41.1030 C   0  0  0  0  0  0  0  0  0  0  0  0
   45.9780   33.8140   40.3970 C   0  0  0  0  0  0  0  0  0  0  0  0
   44.8900   32.9890   39.0690 S   0  0  0  0  0  0  0  0  0  0  0  0
   43.3750   33.8000   39.8180 C   0  0  0  0  0  0  0  0  0  0  0  0
   43.8360   34.3470   40.6430 N   0  0  0  0  0  0  0  0  0  0  0  0
   47.0680   33.3560   40.0240 H   0  0  0  0  0  0  0  0  0  0  0  0
   40.9590   34.4520   39.7040 C   0  0  0  0  0  0  0  0  0  0  0  0
   41.9610   33.6380   39.3000 C   0  0  0  0  0  0  0  0  0  0  0  0
   41.8220   32.6240   38.4190 C   0  0  0  0  0  0  0  0  0  0  0  0
   42.6630   31.9810   38.1150 H   0  0  0  0  0  0  0  0  0  0  0  0
   40.5750   32.4090   37.9010 C   0  0  0  0  0  0  0  0  0  0  0  0
   40.4610   31.5940   37.1920 H   0  0  0  0  0  0  0  0  0  0  0  0
   39.4690   33.1580   38.2220 C   0  0  0  0  0  3  0  0  0  0  0  0
   39.7130   34.1670   39.1280 C   0  0  0  0  0  3  0  0  0  0  0  0
   42.4090   36.2770   40.8670 H   0  0  0  0  0  0  0  0  0  0  0  0
   41.1640   35.7580   40.8460 S   0  0  0  0  0  0  0  0  0  0  0  0
   40.9220   35.1580   42.2150 O   0  0  0  0  0  0  0  0  0  0  0  0
   40.0730   36.7810   40.6680 O   0  0  0  0  0  0  0  0  0  0  0  0
  1  2  2  0  0  0  0
  1  6  1  0  0  0  0
  2  3  1  0  0  0  0
  3  4  2  0  0  0  0
  3 10  1  0  0  0  0
  5  8  1  0  0  0  0
  5  4  1  0  0  0  0
  6  5  2  0  0  0  0
  7  2  1  0  0  0  0
  9 18  1  0  0  0  0
  9 17  1  0  0  0  0
 10  9  2  0  0  0  0
 11 10  1  0  0  0  0
 11 12  2  0  0  0  0
 12 16  1  0  0  0  0
 13 12  1  0  0  0  0
 13 14  1  0  0  0  0
 14 21  1  0  0  0  0
 14 15  2  0  0  0  0
 16 15  1  0  0  0  0
 16 17  2  0  0  0  0
 17 22  1  0  0  0  0
 19 11  1  0  0  0  0
 20 13  1  0  0  0  0
 23  1  1  0  0  0  0
 24 23  1  0  0  0  0
 25 24  2  0  0  0  0
 26 27  1  0  0  0  0
 26 25  1  0  0  0  0
 27 28  2  0  0  0  0
 28 24  1  0  0  0  0
 29 25  1  0  0  0  0
 30 39  1  0  0  0  0
 31 30  1  0  0  0  0
 31 27  1  0  0  0  0
 32 31  2  0  0  0  0
 33 32  1  0  0  0  0
 34 36  2  0  0  0  0
 34 32  1  0  0  0  0
 35 34  1  0  0  0  0
 36 37  1  0  0  0  0
 37 30  2  0  0  0  0
 39 38  1  0  0  0  0
 39 40  2  0  0  0  0
 41 39  2  0  0  0  0
M  END
>  <minimizedAffinity>
-6.78280973

>  <minimizedRMSD>
1.64576137

$$$$
