
 OpenBabel03242515583D

 40 43  0  0  0  0  0  0  0  0999 V2000
   36.9010   26.5720   39.7220 C   0  0  0  0  0  0  0  0  0  0  0  0
   36.7670   25.1690   39.9000 C   0  0  0  0  0  0  0  0  0  0  0  0
   36.8050   24.5480   41.1240 C   0  0  0  0  0  0  0  0  0  0  0  0
   36.9800   25.2690   42.2480 C   0  0  0  0  0  0  0  0  0  0  0  0
   37.1190   26.6510   42.1390 C   0  0  0  0  0  0  0  0  0  0  0  0
   37.2960   27.3450   43.2970 C   0  0  0  0  0  0  0  0  0  0  0  0
   37.4420   28.7100   43.2650 C   0  0  0  0  0  0  0  0  0  0  0  0
   37.3990   29.3120   42.0100 C   0  0  0  0  0  0  0  0  0  0  0  0
   37.2220   28.5500   40.9130 C   0  0  0  0  0  0  0  0  0  0  0  0
   37.0740   27.2310   40.8950 C   0  0  0  0  0  0  0  0  0  0  0  0
   36.6240   24.5390   39.0330 H   0  0  0  0  0  0  0  0  0  0  0  0
   36.6960   23.4760   41.1810 H   0  0  0  0  0  0  0  0  0  0  0  0
   37.0050   24.7510   43.1920 H   0  0  0  0  0  0  0  0  0  0  0  0
   37.3200   26.8010   44.2630 H   0  0  0  0  0  0  0  0  0  0  0  0
   37.5790   29.1800   44.2550 H   0  0  0  0  0  0  0  0  0  0  0  0
   37.5170   30.3850   42.1870 H   0  0  0  0  0  0  0  0  0  0  0  0
   38.2200   27.6470   36.5590 C   0  0  0  0  0  0  0  0  0  0  0  0
   37.0790   28.2180   35.9170 C   0  0  0  0  0  0  0  0  0  0  0  0
   35.8270   28.2360   36.5960 C   0  0  0  0  0  0  0  0  0  0  0  0
   35.8160   27.6990   37.8200 N   0  0  0  0  0  0  0  0  0  0  0  0
   36.8310   27.1760   38.4200 C   0  0  0  0  0  0  0  0  0  0  0  0
   38.0320   27.1600   37.7700 N   0  0  0  0  0  0  0  0  0  0  0  0
   39.1640   27.6400   36.0340 H   0  0  0  0  0  0  0  0  0  0  0  0
   35.0080   28.6780   36.0630 H   0  0  0  0  0  0  0  0  0  0  0  0
   37.3030   28.7340   34.6150 N   0  0  0  0  0  0  0  0  0  0  0  0
   37.1530   29.7540   34.4000 H   0  0  0  0  0  0  0  0  0  0  0  0
   37.6280   28.1410   33.8000 H   0  0  0  0  0  0  0  0  0  0  0  0
   37.2320   29.4080   39.8500 O   0  0  0  0  0  0  0  0  0  0  0  0
   39.1420   30.8800   39.6360 C   0  0  0  0  0  0  0  0  0  0  0  0
   37.7670   30.7010   39.8330 C   0  0  0  0  0  0  0  0  0  0  0  0
   37.0080   31.8490   39.9960 C   0  0  0  0  0  0  0  0  0  0  0  0
   35.9440   31.7350   40.1480 H   0  0  0  0  0  0  0  0  0  0  0  0
   37.5570   33.1100   39.9710 C   0  0  0  0  0  0  0  0  0  0  0  0
   36.9420   33.9880   40.1020 H   0  0  0  0  0  0  0  0  0  0  0  0
   38.9100   33.2550   39.7790 C   0  0  0  0  0  3  0  0  0  0  0  0
   39.7160   32.1550   39.6100 C   0  0  0  0  0  3  0  0  0  0  0  0
   39.6220   28.4580   38.8400 H   0  0  0  0  0  0  0  0  0  0  0  0
   40.2480   29.5470   39.3870 S   0  0  0  0  0  0  0  0  0  0  0  0
   41.4760   29.9520   38.6190 O   0  0  0  0  0  0  0  0  0  0  0  0
   40.7440   29.0940   40.7430 O   0  0  0  0  0  0  0  0  0  0  0  0
  1  2  2  0  0  0  0
  1 10  1  0  0  0  0
  2  3  1  0  0  0  0
  3 12  1  0  0  0  0
  3  4  2  0  0  0  0
  4 13  1  0  0  0  0
  5  4  1  0  0  0  0
  5  6  1  0  0  0  0
  6 14  1  0  0  0  0
  7  6  2  0  0  0  0
  7 15  1  0  0  0  0
  8 16  1  0  0  0  0
  8  7  1  0  0  0  0
  9  8  2  0  0  0  0
 10  9  1  0  0  0  0
 10  5  2  0  0  0  0
 11  2  1  0  0  0  0
 17 22  1  0  0  0  0
 18 17  2  0  0  0  0
 18 19  1  0  0  0  0
 19 20  2  0  0  0  0
 20 21  1  0  0  0  0
 21  1  1  0  0  0  0
 22 21  2  0  0  0  0
 23 17  1  0  0  0  0
 24 19  1  0  0  0  0
 25 18  1  0  0  0  0
 26 25  1  0  0  0  0
 27 25  1  0  0  0  0
 28  9  1  0  0  0  0
 29 30  1  0  0  0  0
 30 28  1  0  0  0  0
 30 31  2  0  0  0  0
 31 32  1  0  0  0  0
 33 31  1  0  0  0  0
 33 34  1  0  0  0  0
 35 33  2  0  0  0  0
 36 29  2  0  0  0  0
 36 35  1  0  0  0  0
 37 38  1  0  0  0  0
 38 29  1  0  0  0  0
 38 40  2  0  0  0  0
 39 38  2  0  0  0  0
M  END
>  <minimizedAffinity>
-6.40341902

$$$$

 OpenBabel03242515583D

 40 43  0  0  0  0  0  0  0  0999 V2000
   37.8330   29.1400   41.2310 C   0  0  0  0  0  0  0  0  0  0  0  0
   38.1390   29.5830   42.5450 C   0  0  0  0  0  0  0  0  0  0  0  0
   38.0790   28.7780   43.6560 C   0  0  0  0  0  0  0  0  0  0  0  0
   37.7130   27.4870   43.5410 C   0  0  0  0  0  0  0  0  0  0  0  0
   37.3990   26.9920   42.2770 C   0  0  0  0  0  0  0  0  0  0  0  0
   37.0310   25.6830   42.2020 C   0  0  0  0  0  0  0  0  0  0  0  0
   36.7060   25.1290   40.9890 C   0  0  0  0  0  0  0  0  0  0  0  0
   36.7750   25.9700   39.8810 C   0  0  0  0  0  0  0  0  0  0  0  0
   37.1470   27.2540   40.0440 C   0  0  0  0  0  0  0  0  0  0  0  0
   37.4730   27.8320   41.1940 C   0  0  0  0  0  0  0  0  0  0  0  0
   38.4400   30.6100   42.6980 H   0  0  0  0  0  0  0  0  0  0  0  0
   38.3260   29.1850   44.6240 H   0  0  0  0  0  0  0  0  0  0  0  0
   37.6750   26.8820   44.4320 H   0  0  0  0  0  0  0  0  0  0  0  0
   36.9970   25.0700   43.1260 H   0  0  0  0  0  0  0  0  0  0  0  0
   36.4220   24.0620   41.0330 H   0  0  0  0  0  0  0  0  0  0  0  0
   36.5000   25.3540   39.0190 H   0  0  0  0  0  0  0  0  0  0  0  0
   39.4650   30.6080   38.3880 C   0  0  0  0  0  0  0  0  0  0  0  0
   38.4780   31.5140   37.8900 C   0  0  0  0  0  0  0  0  0  0  0  0
   37.2250   31.6230   38.5560 C   0  0  0  0  0  0  0  0  0  0  0  0
   37.0610   30.8430   39.6290 N   0  0  0  0  0  0  0  0  0  0  0  0
   37.9340   30.0170   40.0970 C   0  0  0  0  0  0  0  0  0  0  0  0
   39.1370   29.9130   39.4600 N   0  0  0  0  0  0  0  0  0  0  0  0
   40.4120   30.5350   37.8750 H   0  0  0  0  0  0  0  0  0  0  0  0
   36.5260   32.3200   38.1350 H   0  0  0  0  0  0  0  0  0  0  0  0
   38.8510   32.2500   36.7360 N   0  0  0  0  0  0  0  0  0  0  0  0
   38.9040   33.3020   36.7540 H   0  0  0  0  0  0  0  0  0  0  0  0
   39.0930   31.7990   35.8090 H   0  0  0  0  0  0  0  0  0  0  0  0
   37.1140   27.8180   38.8000 O   0  0  0  0  0  0  0  0  0  0  0  0
   35.9940   27.8300   36.6550 C   0  0  0  0  0  0  0  0  0  0  0  0
   35.9710   28.0720   38.0340 C   0  0  0  0  0  0  0  0  0  0  0  0
   34.7840   28.5530   38.5600 C   0  0  0  0  0  0  0  0  0  0  0  0
   34.7440   28.7450   39.6240 H   0  0  0  0  0  0  0  0  0  0  0  0
   33.6720   28.7910   37.7870 C   0  0  0  0  0  0  0  0  0  0  0  0
   32.7590   29.1670   38.2240 H   0  0  0  0  0  0  0  0  0  0  0  0
   33.7240   28.5460   36.4350 C   0  0  0  0  0  3  0  0  0  0  0  0
   34.8730   28.0680   35.8540 C   0  0  0  0  0  3  0  0  0  0  0  0
   37.1740   27.0490   34.4800 H   0  0  0  0  0  0  0  0  0  0  0  0
   37.3980   27.1980   35.8230 S   0  0  0  0  0  0  0  0  0  0  0  0
   38.6450   27.9860   36.1160 O   0  0  0  0  0  0  0  0  0  0  0  0
   37.6620   25.8040   36.3490 O   0  0  0  0  0  0  0  0  0  0  0  0
  1  2  1  0  0  0  0
  2 11  1  0  0  0  0
  2  3  2  0  0  0  0
  3 12  1  0  0  0  0
  4  3  1  0  0  0  0
  4 13  1  0  0  0  0
  5  4  2  0  0  0  0
  6  5  1  0  0  0  0
  6 14  1  0  0  0  0
  7 15  1  0  0  0  0
  7  6  2  0  0  0  0
  8  9  2  0  0  0  0
  8  7  1  0  0  0  0
  9 10  1  0  0  0  0
 10  1  2  0  0  0  0
 10  5  1  0  0  0  0
 16  8  1  0  0  0  0
 17 22  1  0  0  0  0
 18 17  2  0  0  0  0
 18 19  1  0  0  0  0
 19 20  2  0  0  0  0
 20 21  1  0  0  0  0
 21  1  1  0  0  0  0
 22 21  2  0  0  0  0
 23 17  1  0  0  0  0
 24 19  1  0  0  0  0
 25 26  1  0  0  0  0
 25 18  1  0  0  0  0
 27 25  1  0  0  0  0
 28  9  1  0  0  0  0
 29 30  1  0  0  0  0
 30 31  2  0  0  0  0
 30 28  1  0  0  0  0
 31 32  1  0  0  0  0
 33 34  1  0  0  0  0
 33 31  1  0  0  0  0
 35 33  2  0  0  0  0
 36 35  1  0  0  0  0
 36 29  2  0  0  0  0
 37 38  1  0  0  0  0
 38 39  2  0  0  0  0
 38 40  2  0  0  0  0
 38 29  1  0  0  0  0
M  END
>  <minimizedAffinity>
-6.28112984

$$$$

 OpenBabel03242515583D

 40 43  0  0  0  0  0  0  0  0999 V2000
   37.1490   27.1940   41.0150 C   0  0  0  0  0  0  0  0  0  0  0  0
   37.5780   26.6400   42.2500 C   0  0  0  0  0  0  0  0  0  0  0  0
   37.5120   25.3020   42.5500 C   0  0  0  0  0  0  0  0  0  0  0  0
   37.0180   24.4270   41.6530 C   0  0  0  0  0  0  0  0  0  0  0  0
   36.5800   24.9100   40.4230 C   0  0  0  0  0  0  0  0  0  0  0  0
   36.0850   23.9950   39.5430 C   0  0  0  0  0  0  0  0  0  0  0  0
   35.6330   24.4000   38.3110 C   0  0  0  0  0  0  0  0  0  0  0  0
   35.7120   25.7620   38.0360 C   0  0  0  0  0  0  0  0  0  0  0  0
   36.2140   26.6000   38.9640 C   0  0  0  0  0  0  0  0  0  0  0  0
   36.6640   26.2550   40.1640 C   0  0  0  0  0  0  0  0  0  0  0  0
   37.9830   27.2950   43.0090 H   0  0  0  0  0  0  0  0  0  0  0  0
   37.8570   24.9530   43.5120 H   0  0  0  0  0  0  0  0  0  0  0  0
   36.9800   23.3830   41.9200 H   0  0  0  0  0  0  0  0  0  0  0  0
   36.0520   22.9230   39.8280 H   0  0  0  0  0  0  0  0  0  0  0  0
   35.2530   23.5830   37.6710 H   0  0  0  0  0  0  0  0  0  0  0  0
   35.3260   25.8860   37.0200 H   0  0  0  0  0  0  0  0  0  0  0  0
   36.0490   30.6130   41.0550 C   0  0  0  0  0  0  0  0  0  0  0  0
   37.1260   31.3000   40.4130 C   0  0  0  0  0  0  0  0  0  0  0  0
   38.2540   30.5620   39.9540 C   0  0  0  0  0  0  0  0  0  0  0  0
   38.2180   29.2430   40.1650 N   0  0  0  0  0  0  0  0  0  0  0  0
   37.2600   28.6000   40.7410 C   0  0  0  0  0  0  0  0  0  0  0  0
   36.1780   29.3070   41.1820 N   0  0  0  0  0  0  0  0  0  0  0  0
   35.1990   31.1830   41.3990 H   0  0  0  0  0  0  0  0  0  0  0  0
   39.0290   31.1330   39.4810 H   0  0  0  0  0  0  0  0  0  0  0  0
   36.9690   32.7040   40.2890 N   0  0  0  0  0  0  0  0  0  0  0  0
   36.9390   33.1670   39.3440 H   0  0  0  0  0  0  0  0  0  0  0  0
   36.8730   33.3560   41.1180 H   0  0  0  0  0  0  0  0  0  0  0  0
   36.1560   27.8500   38.4160 O   0  0  0  0  0  0  0  0  0  0  0  0
   35.4780   28.6380   36.2300 C   0  0  0  0  0  0  0  0  0  0  0  0
   35.1610   28.3360   37.5600 C   0  0  0  0  0  0  0  0  0  0  0  0
   33.8460   28.5390   37.9460 C   0  0  0  0  0  0  0  0  0  0  0  0
   33.5790   28.3100   38.9690 H   0  0  0  0  0  0  0  0  0  0  0  0
   32.8850   29.0130   37.0850 C   0  0  0  0  0  0  0  0  0  0  0  0
   31.8670   29.1620   37.4130 H   0  0  0  0  0  0  0  0  0  0  0  0
   33.2260   29.3040   35.7850 C   0  0  0  0  0  3  0  0  0  0  0  0
   34.5130   29.1230   35.3420 C   0  0  0  0  0  3  0  0  0  0  0  0
   37.1760   28.9110   34.2860 H   0  0  0  0  0  0  0  0  0  0  0  0
   37.0810   28.4200   35.5610 S   0  0  0  0  0  0  0  0  0  0  0  0
   38.1600   28.9510   36.4650 O   0  0  0  0  0  0  0  0  0  0  0  0
   37.3390   26.9340   35.4460 O   0  0  0  0  0  0  0  0  0  0  0  0
  1  2  1  0  0  0  0
  2  3  2  0  0  0  0
  2 11  1  0  0  0  0
  3 12  1  0  0  0  0
  4 13  1  0  0  0  0
  4  3  1  0  0  0  0
  5  4  2  0  0  0  0
  6 14  1  0  0  0  0
  6  5  1  0  0  0  0
  7  6  2  0  0  0  0
  8  7  1  0  0  0  0
  8  9  2  0  0  0  0
  9 10  1  0  0  0  0
 10  5  1  0  0  0  0
 10  1  2  0  0  0  0
 15  7  1  0  0  0  0
 16  8  1  0  0  0  0
 17 22  1  0  0  0  0
 17 23  1  0  0  0  0
 18 17  2  0  0  0  0
 19 20  2  0  0  0  0
 19 18  1  0  0  0  0
 20 21  1  0  0  0  0
 21  1  1  0  0  0  0
 21 22  2  0  0  0  0
 24 19  1  0  0  0  0
 25 18  1  0  0  0  0
 25 27  1  0  0  0  0
 26 25  1  0  0  0  0
 28  9  1  0  0  0  0
 29 30  1  0  0  0  0
 30 31  2  0  0  0  0
 30 28  1  0  0  0  0
 31 32  1  0  0  0  0
 33 34  1  0  0  0  0
 33 31  1  0  0  0  0
 35 33  2  0  0  0  0
 36 35  1  0  0  0  0
 36 29  2  0  0  0  0
 37 38  1  0  0  0  0
 38 29  1  0  0  0  0
 38 39  2  0  0  0  0
 40 38  2  0  0  0  0
M  END
>  <minimizedAffinity>
-6.22125244

$$$$

 OpenBabel03242515583D

 40 43  0  0  0  0  0  0  0  0999 V2000
   36.9610   26.4380   39.7080 C   0  0  0  0  0  0  0  0  0  0  0  0
   36.6470   25.0600   39.8450 C   0  0  0  0  0  0  0  0  0  0  0  0
   36.6700   24.3870   41.0420 C   0  0  0  0  0  0  0  0  0  0  0  0
   37.0040   25.0300   42.1770 C   0  0  0  0  0  0  0  0  0  0  0  0
   37.3240   26.3830   42.1080 C   0  0  0  0  0  0  0  0  0  0  0  0
   37.6590   26.9980   43.2760 C   0  0  0  0  0  0  0  0  0  0  0  0
   37.9880   28.3300   43.2830 C   0  0  0  0  0  0  0  0  0  0  0  0
   37.9570   28.9860   42.0550 C   0  0  0  0  0  0  0  0  0  0  0  0
   37.6160   28.3020   40.9450 C   0  0  0  0  0  0  0  0  0  0  0  0
   37.2880   27.0170   40.8900 C   0  0  0  0  0  0  0  0  0  0  0  0
   36.3700   24.4920   38.9670 H   0  0  0  0  0  0  0  0  0  0  0  0
   36.4180   23.3380   41.0680 H   0  0  0  0  0  0  0  0  0  0  0  0
   37.0120   24.4720   43.0990 H   0  0  0  0  0  0  0  0  0  0  0  0
   37.6630   26.4140   44.2200 H   0  0  0  0  0  0  0  0  0  0  0  0
   38.2440   28.7350   44.2790 H   0  0  0  0  0  0  0  0  0  0  0  0
   38.2300   30.0250   42.2620 H   0  0  0  0  0  0  0  0  0  0  0  0
   38.2020   27.3980   36.4770 C   0  0  0  0  0  0  0  0  0  0  0  0
   37.1360   28.1920   35.9510 C   0  0  0  0  0  0  0  0  0  0  0  0
   35.9660   28.4030   36.7340 C   0  0  0  0  0  0  0  0  0  0  0  0
   35.9530   27.8230   37.9380 N   0  0  0  0  0  0  0  0  0  0  0  0
   36.9000   27.1020   38.4350 C   0  0  0  0  0  0  0  0  0  0  0  0
   38.0230   26.8990   37.6850 N   0  0  0  0  0  0  0  0  0  0  0  0
   39.0850   27.2450   35.8740 H   0  0  0  0  0  0  0  0  0  0  0  0
   35.2010   29.0070   36.2860 H   0  0  0  0  0  0  0  0  0  0  0  0
   37.3480   28.7160   34.6500 N   0  0  0  0  0  0  0  0  0  0  0  0
   37.3690   29.7550   34.4780 H   0  0  0  0  0  0  0  0  0  0  0  0
   37.4950   28.1100   33.7940 H   0  0  0  0  0  0  0  0  0  0  0  0
   37.6820   29.1970   39.9140 O   0  0  0  0  0  0  0  0  0  0  0  0
   38.6870   31.3170   39.3210 C   0  0  0  0  0  0  0  0  0  0  0  0
   38.8050   29.9370   39.5290 C   0  0  0  0  0  0  0  0  0  0  0  0
   40.0620   29.3860   39.3390 C   0  0  0  0  0  0  0  0  0  0  0  0
   40.1760   28.3220   39.4960 H   0  0  0  0  0  0  0  0  0  0  0  0
   41.1520   30.1350   38.9640 C   0  0  0  0  0  0  0  0  0  0  0  0
   42.1200   29.6790   38.8230 H   0  0  0  0  0  0  0  0  0  0  0  0
   41.0060   31.4880   38.7640 C   0  0  0  0  0  3  0  0  0  0  0  0
   39.7850   32.0940   38.9370 C   0  0  0  0  0  3  0  0  0  0  0  0
   36.3880   32.1220   38.4260 H   0  0  0  0  0  0  0  0  0  0  0  0
   37.1840   32.1870   39.5390 S   0  0  0  0  0  0  0  0  0  0  0  0
   36.4580   31.7780   40.7920 O   0  0  0  0  0  0  0  0  0  0  0  0
   37.5160   33.6520   39.7180 O   0  0  0  0  0  0  0  0  0  0  0  0
  1  2  2  0  0  0  0
  1 10  1  0  0  0  0
  2  3  1  0  0  0  0
  3 12  1  0  0  0  0
  3  4  2  0  0  0  0
  4 13  1  0  0  0  0
  5  4  1  0  0  0  0
  5  6  1  0  0  0  0
  6  7  2  0  0  0  0
  6 14  1  0  0  0  0
  7 15  1  0  0  0  0
  8 16  1  0  0  0  0
  8  7  1  0  0  0  0
  9  8  2  0  0  0  0
 10  9  1  0  0  0  0
 10  5  2  0  0  0  0
 11  2  1  0  0  0  0
 17 22  1  0  0  0  0
 18 17  2  0  0  0  0
 18 19  1  0  0  0  0
 19 20  2  0  0  0  0
 20 21  1  0  0  0  0
 21  1  1  0  0  0  0
 22 21  2  0  0  0  0
 23 17  1  0  0  0  0
 24 19  1  0  0  0  0
 25 18  1  0  0  0  0
 26 25  1  0  0  0  0
 27 25  1  0  0  0  0
 28  9  1  0  0  0  0
 29 30  1  0  0  0  0
 29 38  1  0  0  0  0
 30 28  1  0  0  0  0
 31 32  1  0  0  0  0
 31 30  2  0  0  0  0
 33 31  1  0  0  0  0
 34 33  1  0  0  0  0
 35 36  1  0  0  0  0
 35 33  2  0  0  0  0
 36 29  2  0  0  0  0
 37 38  1  0  0  0  0
 38 40  2  0  0  0  0
 38 39  2  0  0  0  0
M  END
>  <minimizedAffinity>
-6.168859

$$$$

 OpenBabel03242515583D

 40 43  0  0  0  0  0  0  0  0999 V2000
   38.4190   26.6230   40.0980 C   0  0  0  0  0  0  0  0  0  0  0  0
   38.0360   25.2600   39.9820 C   0  0  0  0  0  0  0  0  0  0  0  0
   37.3450   24.5750   40.9510 C   0  0  0  0  0  0  0  0  0  0  0  0
   36.9880   25.1910   42.0940 C   0  0  0  0  0  0  0  0  0  0  0  0
   37.3350   26.5280   42.2690 C   0  0  0  0  0  0  0  0  0  0  0  0
   36.9590   27.1150   43.4390 C   0  0  0  0  0  0  0  0  0  0  0  0
   37.2690   28.4300   43.6800 C   0  0  0  0  0  0  0  0  0  0  0  0
   37.9710   29.0980   42.6790 C   0  0  0  0  0  0  0  0  0  0  0  0
   38.3070   28.4420   41.5510 C   0  0  0  0  0  0  0  0  0  0  0  0
   38.0270   27.1740   41.2740 C   0  0  0  0  0  0  0  0  0  0  0  0
   38.2960   24.7140   39.0850 H   0  0  0  0  0  0  0  0  0  0  0  0
   37.0890   23.5390   40.7920 H   0  0  0  0  0  0  0  0  0  0  0  0
   36.4470   24.6250   42.8350 H   0  0  0  0  0  0  0  0  0  0  0  0
   36.4010   26.5230   44.1930 H   0  0  0  0  0  0  0  0  0  0  0  0
   36.9200   28.8130   44.6550 H   0  0  0  0  0  0  0  0  0  0  0  0
   38.1100   30.1210   43.0420 H   0  0  0  0  0  0  0  0  0  0  0  0
   41.3380   27.7050   38.3080 C   0  0  0  0  0  0  0  0  0  0  0  0
   40.7850   28.4400   37.2140 C   0  0  0  0  0  0  0  0  0  0  0  0
   39.3720   28.5670   37.0970 C   0  0  0  0  0  0  0  0  0  0  0  0
   38.6490   27.9690   38.0490 N   0  0  0  0  0  0  0  0  0  0  0  0
   39.1230   27.3000   39.0450 C   0  0  0  0  0  0  0  0  0  0  0  0
   40.4780   27.1790   39.1580 N   0  0  0  0  0  0  0  0  0  0  0  0
   42.4120   27.6160   38.3870 H   0  0  0  0  0  0  0  0  0  0  0  0
   39.0180   29.1290   36.2560 H   0  0  0  0  0  0  0  0  0  0  0  0
   41.7280   28.9950   36.3110 N   0  0  0  0  0  0  0  0  0  0  0  0
   41.7920   30.0360   36.1620 H   0  0  0  0  0  0  0  0  0  0  0  0
   42.4080   28.4130   35.7470 H   0  0  0  0  0  0  0  0  0  0  0  0
   38.9830   29.3420   40.7770 O   0  0  0  0  0  0  0  0  0  0  0  0
   39.4330   31.7200   40.7360 C   0  0  0  0  0  0  0  0  0  0  0  0
   38.5750   30.6450   40.4710 C   0  0  0  0  0  0  0  0  0  0  0  0
   37.3500   30.9540   39.9030 C   0  0  0  0  0  0  0  0  0  0  0  0
   36.6720   30.1390   39.6890 H   0  0  0  0  0  0  0  0  0  0  0  0
   36.9730   32.2430   39.6080 C   0  0  0  0  0  0  0  0  0  0  0  0
   36.0110   32.4550   39.1660 H   0  0  0  0  0  0  0  0  0  0  0  0
   37.8350   33.2790   39.8820 C   0  0  0  0  0  3  0  0  0  0  0  0
   39.0640   33.0370   40.4440 C   0  0  0  0  0  3  0  0  0  0  0  0
   41.6910   30.4500   40.8780 H   0  0  0  0  0  0  0  0  0  0  0  0
   41.0280   31.5150   41.4270 S   0  0  0  0  0  0  0  0  0  0  0  0
   41.8390   32.7820   41.3890 O   0  0  0  0  0  0  0  0  0  0  0  0
   40.8610   31.1810   42.8930 O   0  0  0  0  0  0  0  0  0  0  0  0
  1 10  1  0  0  0  0
  2  1  2  0  0  0  0
  2  3  1  0  0  0  0
  3  4  2  0  0  0  0
  4  5  1  0  0  0  0
  4 13  1  0  0  0  0
  5  6  1  0  0  0  0
  6  7  2  0  0  0  0
  6 14  1  0  0  0  0
  7 15  1  0  0  0  0
  8 16  1  0  0  0  0
  8  7  1  0  0  0  0
  9  8  2  0  0  0  0
 10  9  1  0  0  0  0
 10  5  2  0  0  0  0
 11  2  1  0  0  0  0
 12  3  1  0  0  0  0
 17 23  1  0  0  0  0
 17 22  1  0  0  0  0
 18 17  2  0  0  0  0
 19 18  1  0  0  0  0
 19 20  2  0  0  0  0
 20 21  1  0  0  0  0
 21 22  2  0  0  0  0
 21  1  1  0  0  0  0
 24 19  1  0  0  0  0
 25 18  1  0  0  0  0
 26 25  1  0  0  0  0
 27 25  1  0  0  0  0
 28  9  1  0  0  0  0
 29 38  1  0  0  0  0
 30 29  1  0  0  0  0
 30 28  1  0  0  0  0
 31 30  2  0  0  0  0
 32 31  1  0  0  0  0
 33 35  2  0  0  0  0
 33 31  1  0  0  0  0
 34 33  1  0  0  0  0
 35 36  1  0  0  0  0
 36 29  2  0  0  0  0
 37 38  1  0  0  0  0
 38 40  2  0  0  0  0
 39 38  2  0  0  0  0
M  END
>  <minimizedAffinity>
-5.95920706

$$$$

 OpenBabel03242515583D

 40 43  0  0  0  0  0  0  0  0999 V2000
   37.4840   31.5640   39.8330 C   0  0  0  0  0  0  0  0  0  0  0  0
   37.2530   32.9620   39.7510 C   0  0  0  0  0  0  0  0  0  0  0  0
   38.1840   33.9120   40.0920 C   0  0  0  0  0  0  0  0  0  0  0  0
   39.4000   33.5420   40.5360 C   0  0  0  0  0  0  0  0  0  0  0  0
   39.6880   32.1840   40.6410 C   0  0  0  0  0  0  0  0  0  0  0  0
   40.9280   31.8500   41.0960 C   0  0  0  0  0  0  0  0  0  0  0  0
   41.2800   30.5290   41.2260 C   0  0  0  0  0  0  0  0  0  0  0  0
   40.3140   29.5900   40.8740 C   0  0  0  0  0  0  0  0  0  0  0  0
   39.1110   30.0060   40.4330 C   0  0  0  0  0  0  0  0  0  0  0  0
   38.7270   31.2680   40.2890 C   0  0  0  0  0  0  0  0  0  0  0  0
   36.2930   33.3180   39.4000 H   0  0  0  0  0  0  0  0  0  0  0  0
   37.9360   34.9580   40.0020 H   0  0  0  0  0  0  0  0  0  0  0  0
   40.1080   34.3130   40.7950 H   0  0  0  0  0  0  0  0  0  0  0  0
   41.6490   32.6510   41.3590 H   0  0  0  0  0  0  0  0  0  0  0  0
   42.3050   30.3630   41.6020 H   0  0  0  0  0  0  0  0  0  0  0  0
   40.7780   28.6110   41.0290 H   0  0  0  0  0  0  0  0  0  0  0  0
   35.7180   29.4670   37.5130 C   0  0  0  0  0  0  0  0  0  0  0  0
   34.7470   28.8240   38.3420 C   0  0  0  0  0  0  0  0  0  0  0  0
   34.7010   29.1270   39.7320 C   0  0  0  0  0  0  0  0  0  0  0  0
   35.5970   30.0170   40.1690 N   0  0  0  0  0  0  0  0  0  0  0  0
   36.4830   30.6100   39.4430 C   0  0  0  0  0  0  0  0  0  0  0  0
   36.5280   30.3200   38.1090 N   0  0  0  0  0  0  0  0  0  0  0  0
   35.7430   29.2290   36.4600 H   0  0  0  0  0  0  0  0  0  0  0  0
   33.9510   28.6130   40.3020 H   0  0  0  0  0  0  0  0  0  0  0  0
   33.8880   27.9090   37.6810 N   0  0  0  0  0  0  0  0  0  0  0  0
   32.8460   28.0610   37.6560 H   0  0  0  0  0  0  0  0  0  0  0  0
   34.2320   27.0400   37.1850 H   0  0  0  0  0  0  0  0  0  0  0  0
   38.3890   28.8740   40.1780 O   0  0  0  0  0  0  0  0  0  0  0  0
   38.1020   27.1100   41.8110 C   0  0  0  0  0  0  0  0  0  0  0  0
   38.6850   27.5820   40.6280 C   0  0  0  0  0  0  0  0  0  0  0  0
   39.5340   26.7120   39.9640 C   0  0  0  0  0  0  0  0  0  0  0  0
   39.9940   27.0560   39.0480 H   0  0  0  0  0  0  0  0  0  0  0  0
   39.8060   25.4450   40.4240 C   0  0  0  0  0  0  0  0  0  0  0  0
   40.4720   24.7880   39.8860 H   0  0  0  0  0  0  0  0  0  0  0  0
   39.2210   25.0090   41.5890 C   0  0  0  0  0  3  0  0  0  0  0  0
   38.3690   25.8250   42.2940 C   0  0  0  0  0  3  0  0  0  0  0  0
   36.2380   28.9060   41.9900 H   0  0  0  0  0  0  0  0  0  0  0  0
   36.9860   28.0610   42.7660 S   0  0  0  0  0  0  0  0  0  0  0  0
   36.1400   27.2140   43.6770 O   0  0  0  0  0  0  0  0  0  0  0  0
   37.7980   28.9560   43.6770 O   0  0  0  0  0  0  0  0  0  0  0  0
  1 10  1  0  0  0  0
  2  1  2  0  0  0  0
  2  3  1  0  0  0  0
  3  4  2  0  0  0  0
  4  5  1  0  0  0  0
  4 13  1  0  0  0  0
  5  6  1  0  0  0  0
  6  7  2  0  0  0  0
  6 14  1  0  0  0  0
  7 15  1  0  0  0  0
  8 16  1  0  0  0  0
  8  7  1  0  0  0  0
  9  8  2  0  0  0  0
 10  9  1  0  0  0  0
 10  5  2  0  0  0  0
 11  2  1  0  0  0  0
 12  3  1  0  0  0  0
 17 22  2  0  0  0  0
 17 18  1  0  0  0  0
 18 19  2  0  0  0  0
 19 20  1  0  0  0  0
 19 24  1  0  0  0  0
 21  1  1  0  0  0  0
 21 20  2  0  0  0  0
 22 21  1  0  0  0  0
 23 17  1  0  0  0  0
 25 18  1  0  0  0  0
 26 25  1  0  0  0  0
 27 25  1  0  0  0  0
 28  9  1  0  0  0  0
 28 30  1  0  0  0  0
 29 36  1  0  0  0  0
 29 38  1  0  0  0  0
 30 29  2  0  0  0  0
 31 33  2  0  0  0  0
 31 30  1  0  0  0  0
 32 31  1  0  0  0  0
 33 35  1  0  0  0  0
 34 33  1  0  0  0  0
 35 36  2  0  0  0  0
 37 38  1  0  0  0  0
 38 39  2  0  0  0  0
 38 40  2  0  0  0  0
M  END
>  <minimizedAffinity>
-5.94393539

$$$$

 OpenBabel03242515583D

 40 43  0  0  0  0  0  0  0  0999 V2000
   37.5110   31.7480   39.8070 C   0  0  0  0  0  0  0  0  0  0  0  0
   37.2840   33.1340   39.5940 C   0  0  0  0  0  0  0  0  0  0  0  0
   38.1820   34.1160   39.9300 C   0  0  0  0  0  0  0  0  0  0  0  0
   39.3610   33.7940   40.4960 C   0  0  0  0  0  0  0  0  0  0  0  0
   39.6430   32.4510   40.7320 C   0  0  0  0  0  0  0  0  0  0  0  0
   40.8440   32.1650   41.3090 C   0  0  0  0  0  0  0  0  0  0  0  0
   41.1880   30.8620   41.5720 C   0  0  0  0  0  0  0  0  0  0  0  0
   40.2560   29.8890   41.2210 C   0  0  0  0  0  0  0  0  0  0  0  0
   39.0900   30.2580   40.6550 C   0  0  0  0  0  0  0  0  0  0  0  0
   38.7150   31.5010   40.3800 C   0  0  0  0  0  0  0  0  0  0  0  0
   36.3540   33.4520   39.1410 H   0  0  0  0  0  0  0  0  0  0  0  0
   37.9390   35.1500   39.7380 H   0  0  0  0  0  0  0  0  0  0  0  0
   40.0440   34.5890   40.7480 H   0  0  0  0  0  0  0  0  0  0  0  0
   41.5400   32.9910   41.5620 H   0  0  0  0  0  0  0  0  0  0  0  0
   42.1810   30.7360   42.0390 H   0  0  0  0  0  0  0  0  0  0  0  0
   40.7090   28.9300   41.4900 H   0  0  0  0  0  0  0  0  0  0  0  0
   35.9390   29.4580   37.5300 C   0  0  0  0  0  0  0  0  0  0  0  0
   34.9080   28.8740   38.3300 C   0  0  0  0  0  0  0  0  0  0  0  0
   34.7520   29.2860   39.6830 C   0  0  0  0  0  0  0  0  0  0  0  0
   35.6090   30.2150   40.1170 N   0  0  0  0  0  0  0  0  0  0  0  0
   36.5470   30.7570   39.4170 C   0  0  0  0  0  0  0  0  0  0  0  0
   36.6970   30.3630   38.1180 N   0  0  0  0  0  0  0  0  0  0  0  0
   36.0470   29.1380   36.5040 H   0  0  0  0  0  0  0  0  0  0  0  0
   33.9610   28.8120   40.2320 H   0  0  0  0  0  0  0  0  0  0  0  0
   34.1060   27.9020   37.6790 N   0  0  0  0  0  0  0  0  0  0  0  0
   33.0690   28.0420   37.5610 H   0  0  0  0  0  0  0  0  0  0  0  0
   34.4900   26.9990   37.2820 H   0  0  0  0  0  0  0  0  0  0  0  0
   38.3940   29.1030   40.4360 O   0  0  0  0  0  0  0  0  0  0  0  0
   37.8540   26.8590   41.1660 C   0  0  0  0  0  0  0  0  0  0  0  0
   37.8950   28.2360   41.4150 C   0  0  0  0  0  0  0  0  0  0  0  0
   37.4290   28.6580   42.6500 C   0  0  0  0  0  0  0  0  0  0  0  0
   37.4530   29.7170   42.8640 H   0  0  0  0  0  0  0  0  0  0  0  0
   36.9470   27.7860   43.5970 C   0  0  0  0  0  0  0  0  0  0  0  0
   36.5900   28.1420   44.5520 H   0  0  0  0  0  0  0  0  0  0  0  0
   36.9170   26.4390   43.3240 C   0  0  0  0  0  3  0  0  0  0  0  0
   37.3650   25.9590   42.1170 C   0  0  0  0  0  3  0  0  0  0  0  0
   39.5870   26.7250   39.2390 H   0  0  0  0  0  0  0  0  0  0  0  0
   38.4230   26.1460   39.6720 S   0  0  0  0  0  0  0  0  0  0  0  0
   38.5190   24.6460   39.7480 O   0  0  0  0  0  0  0  0  0  0  0  0
   37.3980   26.4360   38.5970 O   0  0  0  0  0  0  0  0  0  0  0  0
  1 10  1  0  0  0  0
  2  1  2  0  0  0  0
  2  3  1  0  0  0  0
  3  4  2  0  0  0  0
  4  5  1  0  0  0  0
  4 13  1  0  0  0  0
  5  6  1  0  0  0  0
  6 14  1  0  0  0  0
  6  7  2  0  0  0  0
  7 15  1  0  0  0  0
  8 16  1  0  0  0  0
  8  7  1  0  0  0  0
  9  8  2  0  0  0  0
 10  9  1  0  0  0  0
 10  5  2  0  0  0  0
 11  2  1  0  0  0  0
 12  3  1  0  0  0  0
 17 22  2  0  0  0  0
 17 18  1  0  0  0  0
 18 19  2  0  0  0  0
 19 20  1  0  0  0  0
 19 24  1  0  0  0  0
 21  1  1  0  0  0  0
 21 20  2  0  0  0  0
 22 21  1  0  0  0  0
 23 17  1  0  0  0  0
 25 18  1  0  0  0  0
 26 25  1  0  0  0  0
 27 25  1  0  0  0  0
 28  9  1  0  0  0  0
 28 30  1  0  0  0  0
 29 30  2  0  0  0  0
 29 36  1  0  0  0  0
 30 31  1  0  0  0  0
 31 32  1  0  0  0  0
 31 33  2  0  0  0  0
 33 34  1  0  0  0  0
 35 33  1  0  0  0  0
 36 35  2  0  0  0  0
 37 38  1  0  0  0  0
 38 39  2  0  0  0  0
 38 29  1  0  0  0  0
 40 38  2  0  0  0  0
M  END
>  <minimizedAffinity>
-5.91529608

$$$$

 OpenBabel03242515583D

 40 43  0  0  0  0  0  0  0  0999 V2000
   37.5500   28.8250   41.2160 C   0  0  0  0  0  0  0  0  0  0  0  0
   37.6890   29.3290   42.5370 C   0  0  0  0  0  0  0  0  0  0  0  0
   37.5990   28.5520   43.6650 C   0  0  0  0  0  0  0  0  0  0  0  0
   37.3640   27.2300   43.5620 C   0  0  0  0  0  0  0  0  0  0  0  0
   37.2170   26.6750   42.2940 C   0  0  0  0  0  0  0  0  0  0  0  0
   36.9790   25.3350   42.2310 C   0  0  0  0  0  0  0  0  0  0  0  0
   36.8210   24.7210   41.0140 C   0  0  0  0  0  0  0  0  0  0  0  0
   36.9180   25.5340   39.8880 C   0  0  0  0  0  0  0  0  0  0  0  0
   37.1540   26.8520   40.0390 C   0  0  0  0  0  0  0  0  0  0  0  0
   37.3150   27.4890   41.1920 C   0  0  0  0  0  0  0  0  0  0  0  0
   37.8790   30.3850   42.6800 H   0  0  0  0  0  0  0  0  0  0  0  0
   37.7150   29.0070   44.6360 H   0  0  0  0  0  0  0  0  0  0  0  0
   37.2980   26.6480   44.4670 H   0  0  0  0  0  0  0  0  0  0  0  0
   36.9140   24.7460   43.1690 H   0  0  0  0  0  0  0  0  0  0  0  0
   36.6330   23.6330   41.0690 H   0  0  0  0  0  0  0  0  0  0  0  0
   36.7820   24.8730   39.0270 H   0  0  0  0  0  0  0  0  0  0  0  0
   39.3430   30.5470   38.6240 C   0  0  0  0  0  0  0  0  0  0  0  0
   38.3010   31.2070   37.9030 C   0  0  0  0  0  0  0  0  0  0  0  0
   36.9500   31.0560   38.3260 C   0  0  0  0  0  0  0  0  0  0  0  0
   36.7540   30.2840   39.3990 N   0  0  0  0  0  0  0  0  0  0  0  0
   37.6760   29.6770   40.0660 C   0  0  0  0  0  0  0  0  0  0  0  0
   38.9720   29.8220   39.6610 N   0  0  0  0  0  0  0  0  0  0  0  0
   40.3650   30.6690   38.2940 H   0  0  0  0  0  0  0  0  0  0  0  0
   36.2130   31.5760   37.7440 H   0  0  0  0  0  0  0  0  0  0  0  0
   38.7220   31.9800   36.7900 N   0  0  0  0  0  0  0  0  0  0  0  0
   38.5500   33.0180   36.7520 H   0  0  0  0  0  0  0  0  0  0  0  0
   39.2230   31.5710   35.9520 H   0  0  0  0  0  0  0  0  0  0  0  0
   37.1870   27.3780   38.7780 O   0  0  0  0  0  0  0  0  0  0  0  0
   35.9790   26.6540   36.8090 C   0  0  0  0  0  0  0  0  0  0  0  0
   37.1490   26.6580   37.5780 C   0  0  0  0  0  0  0  0  0  0  0  0
   38.2210   25.9340   37.0820 C   0  0  0  0  0  0  0  0  0  0  0  0
   39.1350   25.9240   37.6590 H   0  0  0  0  0  0  0  0  0  0  0  0
   38.1610   25.2370   35.8980 C   0  0  0  0  0  0  0  0  0  0  0  0
   39.0120   24.6800   35.5350 H   0  0  0  0  0  0  0  0  0  0  0  0
   36.9980   25.2500   35.1640 C   0  0  0  0  0  3  0  0  0  0  0  0
   35.9010   25.9500   35.6030 C   0  0  0  0  0  3  0  0  0  0  0  0
   34.3470   27.5350   38.6230 H   0  0  0  0  0  0  0  0  0  0  0  0
   34.5370   27.5340   37.2670 S   0  0  0  0  0  0  0  0  0  0  0  0
   34.4940   28.9180   36.6780 O   0  0  0  0  0  0  0  0  0  0  0  0
   33.3440   26.8060   36.6880 O   0  0  0  0  0  0  0  0  0  0  0  0
  1  2  1  0  0  0  0
  2 11  1  0  0  0  0
  2  3  2  0  0  0  0
  3 12  1  0  0  0  0
  4  3  1  0  0  0  0
  4 13  1  0  0  0  0
  5  4  2  0  0  0  0
  6  5  1  0  0  0  0
  6 14  1  0  0  0  0
  7 15  1  0  0  0  0
  7  6  2  0  0  0  0
  8  9  2  0  0  0  0
  8  7  1  0  0  0  0
  9 10  1  0  0  0  0
 10  1  2  0  0  0  0
 10  5  1  0  0  0  0
 16  8  1  0  0  0  0
 17 22  1  0  0  0  0
 18 19  1  0  0  0  0
 18 17  2  0  0  0  0
 19 20  2  0  0  0  0
 20 21  1  0  0  0  0
 21  1  1  0  0  0  0
 22 21  2  0  0  0  0
 23 17  1  0  0  0  0
 24 19  1  0  0  0  0
 25 18  1  0  0  0  0
 26 25  1  0  0  0  0
 27 25  1  0  0  0  0
 28  9  1  0  0  0  0
 29 38  1  0  0  0  0
 29 30  1  0  0  0  0
 30 28  1  0  0  0  0
 31 30  2  0  0  0  0
 31 32  1  0  0  0  0
 33 31  1  0  0  0  0
 34 33  1  0  0  0  0
 35 36  1  0  0  0  0
 35 33  2  0  0  0  0
 36 29  2  0  0  0  0
 38 37  1  0  0  0  0
 39 38  2  0  0  0  0
 40 38  2  0  0  0  0
M  END
>  <minimizedAffinity>
-5.81510735

$$$$

 OpenBabel03242515583D

 40 43  0  0  0  0  0  0  0  0999 V2000
   35.4370   28.8500   38.0610 C   0  0  0  0  0  0  0  0  0  0  0  0
   34.3180   29.1780   37.2500 C   0  0  0  0  0  0  0  0  0  0  0  0
   33.5050   28.2450   36.6570 C   0  0  0  0  0  0  0  0  0  0  0  0
   33.7430   26.9300   36.8250 C   0  0  0  0  0  0  0  0  0  0  0  0
   34.8270   26.5440   37.6100 C   0  0  0  0  0  0  0  0  0  0  0  0
   35.0370   25.2060   37.7550 C   0  0  0  0  0  0  0  0  0  0  0  0
   36.0880   24.7530   38.5130 C   0  0  0  0  0  0  0  0  0  0  0  0
   36.8960   25.7220   39.1010 C   0  0  0  0  0  0  0  0  0  0  0  0
   36.6190   27.0260   38.9050 C   0  0  0  0  0  0  0  0  0  0  0  0
   35.6140   27.5110   38.1840 C   0  0  0  0  0  0  0  0  0  0  0  0
   34.0780   30.2190   37.0800 H   0  0  0  0  0  0  0  0  0  0  0  0
   32.6720   28.5700   36.0530 H   0  0  0  0  0  0  0  0  0  0  0  0
   33.0860   26.2240   36.3460 H   0  0  0  0  0  0  0  0  0  0  0  0
   34.3530   24.4870   37.2580 H   0  0  0  0  0  0  0  0  0  0  0  0
   36.1720   23.6520   38.5690 H   0  0  0  0  0  0  0  0  0  0  0  0
   37.6560   25.1760   39.6670 H   0  0  0  0  0  0  0  0  0  0  0  0
   36.3250   31.1710   40.6550 C   0  0  0  0  0  0  0  0  0  0  0  0
   37.5250   31.7620   40.1530 C   0  0  0  0  0  0  0  0  0  0  0  0
   38.0340   31.3520   38.8890 C   0  0  0  0  0  0  0  0  0  0  0  0
   37.3290   30.4150   38.2480 N   0  0  0  0  0  0  0  0  0  0  0  0
   36.2440   29.8650   38.6790 C   0  0  0  0  0  0  0  0  0  0  0  0
   35.7550   30.2580   39.8920 N   0  0  0  0  0  0  0  0  0  0  0  0
   35.9470   31.4900   41.6160 H   0  0  0  0  0  0  0  0  0  0  0  0
   38.9380   31.8320   38.5670 H   0  0  0  0  0  0  0  0  0  0  0  0
   38.1220   32.7390   40.9920 N   0  0  0  0  0  0  0  0  0  0  0  0
   38.2400   33.7350   40.6690 H   0  0  0  0  0  0  0  0  0  0  0  0
   38.4760   32.5320   41.9680 H   0  0  0  0  0  0  0  0  0  0  0  0
   37.5740   27.7230   39.5900 O   0  0  0  0  0  0  0  0  0  0  0  0
   39.1750   27.5380   41.3950 C   0  0  0  0  0  0  0  0  0  0  0  0
   37.8480   27.6290   40.9590 C   0  0  0  0  0  0  0  0  0  0  0  0
   36.8700   27.6250   41.9400 C   0  0  0  0  0  0  0  0  0  0  0  0
   35.8380   27.6960   41.6260 H   0  0  0  0  0  0  0  0  0  0  0  0
   37.1650   27.5360   43.2800 C   0  0  0  0  0  0  0  0  0  0  0  0
   36.3820   27.5350   44.0240 H   0  0  0  0  0  0  0  0  0  0  0  0
   38.4770   27.4460   43.6800 C   0  0  0  0  0  3  0  0  0  0  0  0
   39.4920   27.4450   42.7540 C   0  0  0  0  0  3  0  0  0  0  0  0
   41.7350   27.5610   40.9680 H   0  0  0  0  0  0  0  0  0  0  0  0
   40.5400   27.5550   40.2990 S   0  0  0  0  0  0  0  0  0  0  0  0
   40.4630   26.4630   39.2660 O   0  0  0  0  0  0  0  0  0  0  0  0
   40.4990   28.8540   39.5240 O   0  0  0  0  0  0  0  0  0  0  0  0
  1 10  1  0  0  0  0
  1 21  1  0  0  0  0
  2  1  2  0  0  0  0
  3  4  2  0  0  0  0
  3  2  1  0  0  0  0
  4  5  1  0  0  0  0
  5  6  2  0  0  0  0
  5 10  1  0  0  0  0
  6  7  1  0  0  0  0
  7 15  1  0  0  0  0
  7  8  2  0  0  0  0
  8 16  1  0  0  0  0
  9  8  1  0  0  0  0
  9 28  1  0  0  0  0
 10  9  2  0  0  0  0
 11  2  1  0  0  0  0
 12  3  1  0  0  0  0
 13  4  1  0  0  0  0
 14  6  1  0  0  0  0
 17 23  1  0  0  0  0
 18 17  1  0  0  0  0
 18 25  1  0  0  0  0
 19 18  2  0  0  0  0
 20 21  2  0  0  0  0
 20 19  1  0  0  0  0
 21 22  1  0  0  0  0
 22 17  2  0  0  0  0
 24 19  1  0  0  0  0
 25 27  1  0  0  0  0
 26 25  1  0  0  0  0
 28 30  1  0  0  0  0
 29 36  1  0  0  0  0
 30 29  2  0  0  0  0
 30 31  1  0  0  0  0
 31 33  2  0  0  0  0
 32 31  1  0  0  0  0
 33 35  1  0  0  0  0
 33 34  1  0  0  0  0
 36 35  2  0  0  0  0
 38 37  1  0  0  0  0
 38 29  1  0  0  0  0
 39 38  2  0  0  0  0
 40 38  2  0  0  0  0
M  END
>  <minimizedAffinity>
-5.7384553

$$$$
