
     RDKit          3D

 40 43  0  0  0  0  0  0  0  0999 V2000
   45.1044   33.2833   41.1803 F   0  0  0  0  0  0  0  0  0  0  0  0
   46.2861   33.9414   41.0021 C   0  0  0  0  0  0  0  0  0  0  0  0
   46.8155   34.7327   41.9889 C   0  0  0  0  0  0  0  0  0  0  0  0
   48.0031   35.3546   41.7251 C   0  0  0  0  0  0  0  0  0  0  0  0
   48.6910   35.2303   40.5313 C   0  0  0  0  0  0  0  0  0  0  0  0
   48.1151   34.4297   39.5870 C   0  0  0  0  0  0  0  0  0  0  0  0
   46.9249   33.7817   39.7985 C   0  0  0  0  0  0  0  0  0  0  0  0
   44.4907   35.9412   44.7312 C   0  0  0  0  0  0  0  0  0  0  0  0
   45.1733   35.8682   43.5108 C   0  0  0  0  0  0  0  0  0  0  0  0
   46.0768   34.8546   43.2461 C   0  0  0  0  0  0  0  0  0  0  0  0
   46.2467   33.9428   44.2590 N   0  0  0  0  0  0  0  0  0  0  0  0
   45.5814   34.0291   45.4259 C   0  0  0  0  0  0  0  0  0  0  0  0
   44.7139   35.0130   45.6642 N   0  0  0  0  0  0  0  0  0  0  0  0
   46.3283   32.9290   38.7702 C   0  0  0  0  0  0  0  0  0  0  0  0
   46.7463   31.6597   38.4032 C   0  0  0  0  0  0  0  0  0  0  0  0
   45.8985   31.2098   37.3858 C   0  0  0  0  0  0  0  0  0  0  0  0
   45.0246   32.1987   37.1832 N   0  0  0  0  0  0  0  0  0  0  0  0
   45.2614   33.2273   37.9933 N   0  0  0  0  0  0  0  0  0  0  0  0
   48.4066   35.9786   42.5222 H   0  0  0  0  0  0  0  0  0  0  0  0
   49.6330   35.7455   40.3690 H   0  0  0  0  0  0  0  0  0  0  0  0
   48.5980   34.2868   38.6295 H   0  0  0  0  0  0  0  0  0  0  0  0
   43.7919   36.7502   44.8986 H   0  0  0  0  0  0  0  0  0  0  0  0
   45.0269   36.6000   42.7177 H   0  0  0  0  0  0  0  0  0  0  0  0
   45.8466   33.2189   46.1035 H   0  0  0  0  0  0  0  0  0  0  0  0
   47.5970   31.1896   38.8873 H   0  0  0  0  0  0  0  0  0  0  0  0
   46.0522   30.2438   36.9600 H   0  0  0  0  0  0  0  0  0  0  0  0
   46.6619   31.0533   35.1540 H   0  0  0  0  0  0  0  0  0  0  0  0
   45.8798   31.8027   34.2953 S   0  0  0  0  0  0  0  0  0  0  0  0
   46.4283   33.1915   34.1050 O   0  0  0  0  0  0  0  0  0  0  0  0
   45.8913   31.0830   32.9663 O   0  0  0  0  0  0  0  0  0  0  0  0
   44.2154   31.8367   34.8277 C   0  0  0  0  0  0  0  0  0  0  0  0
   44.0201   32.0288   36.1892 C   0  0  0  0  0  0  0  0  0  0  0  0
   42.7126   32.0640   36.6663 C   0  0  0  0  0  0  0  0  0  0  0  0
   42.4784   32.2121   37.7315 H   0  0  0  0  0  0  0  0  0  0  0  0
   41.6146   31.9134   35.8222 C   0  0  0  0  0  0  0  0  0  0  0  0
   40.5922   31.9454   36.2268 H   0  0  0  0  0  0  0  0  0  0  0  0
   41.8363   31.7214   34.4571 C   0  0  0  0  0  0  0  0  0  0  0  0
   43.1301   31.6872   33.9889 C   0  0  0  0  0  0  0  0  0  0  0  0
   40.9898   31.5992   33.7644 H   0  0  0  0  0  0  0  0  0  0  0  0
   43.3270   31.5380   32.9240 H   0  0  0  0  0  0  0  0  0  0  0  0
  2  1  1  0
  2  3  2  0
  3 10  1  0
  4  3  1  0
  5  4  2  0
  6  7  2  0
  6  5  1  0
  7  2  1  0
  8 13  2  0
  9  8  1  0
 10  9  2  0
 10 11  1  0
 11 12  2  0
 12 13  1  0
 14  7  1  0
 15 14  1  0
 16 15  2  0
 17 16  1  0
 17 18  1  0
 18 14  2  0
  4 19  1  0
  5 20  1  0
  6 21  1  0
  8 22  1  0
  9 23  1  0
 12 24  1  0
 15 25  1  0
 16 26  1  0
 27 28  1  0
 28 29  2  0
 28 30  2  0
 28 31  1  0
 31 32  2  0
 32 33  1  0
 33 34  1  0
 33 35  2  0
 35 36  1  0
 35 37  1  0
 37 38  2  0
 38 31  1  0
 37 39  1  0
 38 40  1  0
 17 32  1  0
M  ISO  8  19  14  20  14  21  14  22  14  23  14  24  14  25  14  26  14
M  ISO  3  27  12  34  15  36  16
M  END
>  <DihAtoms>  (1) 
15,16,31,30

>  <DihDeg>  (1) 
103.4928683058403

$$$$
