
     RDKit          3D

 48 50  0  0  0  0  0  0  0  0999 V2000
   45.1564   32.1118   48.1873 O   0  0  0  0  0  0  0  0  0  0  0  0
   46.9771   30.5707   48.2162 C   0  0  2  0  0  0  0  0  0  0  0  0
   45.5256   30.8026   48.3695 C   0  0  2  0  0  0  0  0  0  0  0  0
   44.8684   29.8882   47.4593 C   0  0  0  0  0  0  0  0  0  0  0  0
   45.7407   28.8250   47.1821 O   0  0  0  0  0  0  0  0  0  0  0  0
   46.8354   29.0205   47.9502 C   0  0  0  0  0  0  0  0  0  0  0  0
   47.7568   30.7290   49.2933 O   0  0  0  0  0  0  0  0  0  0  0  0
   49.0055   31.0966   49.3020 C   0  0  0  0  0  0  0  0  0  0  0  0
   49.7364   30.3134   50.3780 C   0  0  0  0  0  0  0  0  0  0  0  0
   47.1679   32.9963   46.9448 O   0  0  0  0  0  0  0  0  0  0  0  0
   45.7310   32.6681   46.7435 P   0  0  1  0  0  0  0  0  0  0  0  0
   45.5921   31.4687   45.5584 O   0  0  0  0  0  0  0  0  0  0  0  0
   44.9892   34.1317   46.2648 O   0  0  0  0  0  0  0  0  0  0  0  0
   44.9675   36.4080   43.4996 C   0  0  0  0  0  0  0  0  0  0  0  0
   45.0311   35.5616   42.3687 C   0  0  0  0  0  0  0  0  0  0  0  0
   45.0832   34.1551   42.6017 C   0  0  0  0  0  0  0  0  0  0  0  0
   45.0687   33.7173   43.8761 N   0  0  0  0  0  0  0  0  0  0  0  0
   45.0073   34.5633   44.9234 C   0  0  0  0  0  0  0  0  0  0  0  0
   44.9591   35.8771   44.7112 N   0  0  0  0  0  0  0  0  0  0  0  0
   44.9158   37.7161   43.2510 O   0  0  0  0  0  0  0  0  0  0  0  0
   47.4424   30.7774   47.2357 H   0  0  0  0  0  0  0  0  0  0  0  0
   45.3614   30.6457   49.4753 H   0  0  0  0  0  0  0  0  0  0  0  0
   44.1373   30.1454   46.7274 H   0  0  0  0  0  0  0  0  0  0  0  0
   44.1627   29.3013   48.1510 H   0  0  0  0  0  0  0  0  0  0  0  0
   46.6060   28.6216   48.9798 H   0  0  0  0  0  0  0  0  0  0  0  0
   47.7833   28.5987   47.6319 H   0  0  0  0  0  0  0  0  0  0  0  0
   49.2834   32.0955   49.1415 H   0  0  0  0  0  0  0  0  0  0  0  0
   49.4602   30.6331   48.2715 H   0  0  0  0  0  0  0  0  0  0  0  0
   50.7869   30.1350   50.0199 H   0  0  0  0  0  0  0  0  0  0  0  0
   49.3053   29.3171   50.5300 H   0  0  0  0  0  0  0  0  0  0  0  0
   49.8368   30.8967   51.3146 H   0  0  0  0  0  0  0  0  0  0  0  0
   44.8333   31.6071   44.9529 H   0  0  0  0  0  0  0  0  0  0  0  0
   45.0535   35.6682   41.3075 H   0  0  0  0  0  0  0  0  0  0  0  0
   45.1346   33.3581   41.8784 H   0  0  0  0  0  0  0  0  0  0  0  0
   45.4955   41.0330   44.9684 H   0  0  0  0  0  0  0  0  0  0  0  0
   46.1801   39.9782   44.4295 S   0  0  0  0  0  0  0  0  0  0  0  0
   45.9917   38.7485   45.2635 O   0  0  0  0  0  0  0  0  0  0  0  0
   47.6451   40.2738   44.2680 O   0  0  0  0  0  0  0  0  0  0  0  0
   45.5292   39.6821   42.8019 C   0  0  0  0  0  0  0  0  0  0  0  0
   44.9059   38.5459   42.2452 C   0  0  0  0  0  0  0  0  0  0  0  0
   44.5401   38.7085   40.9436 C   0  0  0  0  0  0  0  0  0  0  0  0
   44.0739   37.8441   40.5430 H   0  0  0  0  0  0  0  0  0  0  0  0
   44.7082   39.8172   40.1512 C   0  0  0  0  0  0  0  0  0  0  0  0
   44.3523   39.7617   39.1359 H   0  0  0  0  0  0  0  0  0  0  0  0
   45.3222   40.8881   40.7565 C   0  0  0  0  0  0  0  0  0  0  0  0
   45.7511   40.8638   42.0867 C   0  0  0  0  0  0  0  0  0  0  0  0
   45.4279   41.7381   40.0792 H   0  0  0  0  0  0  0  0  0  0  0  0
   46.1984   41.8108   42.3319 H   0  0  0  0  0  0  0  0  0  0  0  0
  1  3  1  0
  2  3  1  0
  2  7  1  0
  4  3  1  0
  5  4  1  0
  5  6  1  0
  6  2  1  0
  8  7  1  0
  8  9  1  0
 11 10  2  0
 11  1  1  1
 12 11  1  0
 13 11  1  0
 14 19  2  0
 15 16  2  0
 15 14  1  0
 16 17  1  0
 17 18  2  0
 18 13  1  0
 19 18  1  0
 20 14  1  0
  2 21  1  6
  3 22  1  1
  4 23  1  0
  4 24  1  0
  6 25  1  0
  6 26  1  0
  8 27  1  0
  8 28  1  0
  9 29  1  0
  9 30  1  0
  9 31  1  0
 12 32  1  0
 15 33  1  0
 16 34  1  0
 35 36  1  0
 36 37  2  0
 36 38  2  0
 36 39  1  0
 39 40  2  0
 40 41  1  0
 41 42  1  0
 41 43  2  0
 43 44  1  0
 43 45  1  0
 45 46  2  0
 46 39  1  0
 45 47  1  0
 46 48  1  0
 20 40  1  0
M  ISO  8  21  13  22  13  23  13  24  13  25  13  26  13  27   8  28   8
M  ISO  8  29   8  30   8  31   8  32   3  33  14  34  14  35  12  42  15
M  ISO  1  44  16
M  END
>  <DihAtoms>  (1) 
13,19,39,38

>  <DihDeg>  (1) 
179.89955664471816

$$$$
