
 OpenBabel03252504513D

 37 39  0  0  0  0  0  0  0  0999 V2000
   47.0220   34.5810   42.8280 C   0  0  0  0  0  0  0  0  0  0  0  0
   48.1720   34.1130   42.1750 C   0  0  0  0  0  0  0  0  0  0  0  0
   48.7960   32.9950   42.7070 C   0  0  0  0  0  0  0  0  0  0  0  0
   48.2490   32.4340   43.8220 N   0  0  0  0  0  0  0  0  0  0  0  0
   47.1570   32.8970   44.4250 C   0  0  0  0  0  0  0  0  0  0  0  0
   46.5350   33.9820   43.9220 N   0  0  0  0  0  0  0  0  0  0  0  0
   46.4650   35.4520   42.4870 H   0  0  0  0  0  0  0  0  0  0  0  0
   49.6820   32.5980   42.2440 H   0  0  0  0  0  0  0  0  0  0  0  0
   45.6590   30.2840   43.8980 Cl  0  0  0  0  0  0  0  0  0  0  0  0
   45.9310   31.0480   45.4770 C   0  0  0  0  0  0  0  0  0  0  0  0
   46.6300   32.2420   45.6160 C   0  0  0  0  0  0  0  0  0  0  0  0
   46.8250   32.8070   46.8480 C   0  0  0  0  0  0  0  0  0  0  0  0
   46.3150   32.1730   47.9750 C   0  0  0  0  0  0  0  0  0  0  0  0
   45.6310   30.9970   47.8010 C   0  0  0  0  0  0  0  0  0  0  0  0
   44.9950   30.2140   49.2240 Cl  0  0  0  0  0  0  0  0  0  0  0  0
   45.4160   30.4020   46.5870 C   0  0  0  0  0  0  0  0  0  0  0  0
   47.3620   33.7340   46.9950 H   0  0  0  0  0  0  0  0  0  0  0  0
   46.4450   32.5840   48.9710 H   0  0  0  0  0  0  0  0  0  0  0  0
   44.8590   29.4600   46.5260 H   0  0  0  0  0  0  0  0  0  0  0  0
   48.6480   34.8120   40.9940 C   0  0  0  0  0  0  0  0  0  0  0  0
   48.6210   35.9070   41.1640 H   0  0  0  0  0  0  0  0  0  0  0  0
   49.6970   34.5490   40.8220 H   0  0  0  0  0  0  0  0  0  0  0  0
   47.7230   34.5260   39.8410 C   0  0  0  0  0  0  0  0  0  0  0  0
   47.9790   35.2810   39.0510 H   0  0  0  0  0  0  0  0  0  0  0  0
   46.7040   34.8390   40.1910 H   0  0  0  0  0  0  0  0  0  0  0  0
   46.5900   32.4170   39.3170 C   0  0  0  0  0  0  0  0  0  0  0  0
   47.7630   33.1420   39.3600 C   0  0  0  0  0  0  0  0  0  0  0  0
   48.9580   32.5880   38.9470 C   0  0  0  0  0  0  0  0  0  0  0  0
   49.8770   33.1930   38.9930 H   0  0  0  0  0  0  0  0  0  0  0  0
   49.0540   31.3000   38.4750 C   0  0  0  0  0  0  0  0  0  0  0  0
   50.0150   30.9130   38.1650 H   0  0  0  0  0  0  0  0  0  0  0  0
   47.8620   30.5930   38.4420 C   0  0  0  0  0  3  0  0  0  0  0  0
   46.6520   31.1030   38.8420 C   0  0  0  0  0  3  0  0  0  0  0  0
   45.1440   34.0360   40.7340 H   0  0  0  0  0  0  0  0  0  0  0  0
   45.0430   33.0060   39.8150 S   0  0  0  0  0  0  0  0  0  0  0  0
   44.1310   33.3560   38.6730 O   0  0  0  0  0  0  0  0  0  0  0  0
   44.3310   31.8860   40.5600 O   0  0  0  0  0  0  0  0  0  0  0  0
  1  6  1  0  0  0  0
  2  3  1  0  0  0  0
  2  1  2  0  0  0  0
  3  4  2  0  0  0  0
  4  5  1  0  0  0  0
  5 11  1  0  0  0  0
  6  5  2  0  0  0  0
  7  1  1  0  0  0  0
  8  3  1  0  0  0  0
  9 10  1  0  0  0  0
 10 11  2  0  0  0  0
 10 16  1  0  0  0  0
 11 12  1  0  0  0  0
 12 17  1  0  0  0  0
 12 13  2  0  0  0  0
 13 18  1  0  0  0  0
 14 13  1  0  0  0  0
 14 15  1  0  0  0  0
 16 14  2  0  0  0  0
 19 16  1  0  0  0  0
 20 21  1  0  0  0  0
 20  2  1  0  0  0  0
 22 20  1  0  0  0  0
 23 25  1  0  0  0  0
 23 20  1  0  0  0  0
 24 23  1  0  0  0  0
 26 27  1  0  0  0  0
 26 35  1  0  0  0  0
 27 23  1  0  0  0  0
 28 29  1  0  0  0  0
 28 27  2  0  0  0  0
 30 28  1  0  0  0  0
 31 30  1  0  0  0  0
 32 30  2  0  0  0  0
 32 33  1  0  0  0  0
 33 26  2  0  0  0  0
 35 37  2  0  0  0  0
 35 34  1  0  0  0  0
 36 35  2  0  0  0  0
M  END
>  <minimizedAffinity>
-4.51386118

>  <minimizedRMSD>
1.41737723

$$$$
