
     RDKit          3D

 43 45  0  0  0  0  0  0  0  0999 V2000
   46.6857   32.8509   46.6464 C   0  0  2  0  0  0  0  0  0  0  0  0
   47.0538   32.7406   45.2185 C   0  0  1  0  0  0  0  0  0  0  0  0
   46.5264   31.4230   44.8273 O   0  0  0  0  0  0  0  0  0  0  0  0
   47.1850   30.6962   45.8420 C   0  0  0  0  0  0  0  0  0  0  0  0
   46.5922   31.3910   47.0781 C   0  0  2  0  0  0  0  0  0  0  0  0
   44.7080   35.2300   43.9613 C   0  0  0  0  0  0  0  0  0  0  0  0
   45.3342   35.7386   42.8205 C   0  0  0  0  0  0  0  0  0  0  0  0
   46.5960   35.2117   42.4637 C   0  0  0  0  0  0  0  0  0  0  0  0
   47.1400   34.2408   43.2407 N   0  0  0  0  0  0  0  0  0  0  0  0
   46.5128   33.7673   44.3376 C   0  0  0  0  0  0  0  0  0  0  0  0
   45.2977   34.2557   44.7047 N   0  0  0  0  0  0  0  0  0  0  0  0
   43.4574   35.7149   44.3647 O   0  0  0  0  0  0  0  0  0  0  0  0
   45.3670   33.4243   46.7476 O   0  0  0  0  0  0  0  0  0  0  0  0
   45.3115   30.9930   47.2229 O   0  0  0  0  0  0  0  0  0  0  0  0
   44.9994   30.1565   48.2551 C   0  0  0  0  0  0  0  0  0  0  0  0
   45.0359   28.6836   47.8837 C   0  0  0  0  0  0  0  0  0  0  0  0
   47.3864   33.4151   47.2728 H   0  0  0  0  0  0  0  0  0  0  0  0
   48.1593   32.6306   45.1211 H   0  0  0  0  0  0  0  0  0  0  0  0
   47.1184   29.6456   45.7984 H   0  0  0  0  0  0  0  0  0  0  0  0
   48.2418   31.0638   45.8188 H   0  0  0  0  0  0  0  0  0  0  0  0
   47.2640   31.1619   47.9349 H   0  0  0  0  0  0  0  0  0  0  0  0
   44.8678   36.5095   42.2310 H   0  0  0  0  0  0  0  0  0  0  0  0
   47.1183   35.5764   41.5867 H   0  0  0  0  0  0  0  0  0  0  0  0
   43.0181   36.4283   43.7875 H   0  0  0  0  0  0  0  0  0  0  0  0
   44.7515   32.6956   46.4384 H   0  0  0  0  0  0  0  0  0  0  0  0
   43.8493   30.2552   48.4470 H   0  0  0  0  0  0  0  0  0  0  0  0
   45.5014   30.3574   49.1600 H   0  0  0  0  0  0  0  0  0  0  0  0
   44.8841   28.0351   48.7642 H   0  0  0  0  0  0  0  0  0  0  0  0
   45.9819   28.3535   47.4329 H   0  0  0  0  0  0  0  0  0  0  0  0
   46.3350   26.3300   45.1358 H   0  0  0  0  0  0  0  0  0  0  0  0
   46.0448   27.6710   45.0695 S   0  0  0  0  0  0  0  0  0  0  0  0
   46.1447   28.0389   43.5911 O   0  0  0  0  0  0  0  0  0  0  0  0
   47.1101   28.4395   45.7486 O   0  0  0  0  0  0  0  0  0  0  0  0
   44.4288   28.0326   45.5870 C   0  0  0  0  0  0  0  0  0  0  0  0
   44.0103   28.4833   46.8355 C   0  0  0  0  0  0  0  0  0  0  0  0
   42.6619   28.7106   47.0041 C   0  0  0  0  0  0  0  0  0  0  0  0
   42.2786   29.0666   47.9460 H   0  0  0  0  0  0  0  0  0  0  0  0
   41.7020   28.5251   46.0346 C   0  0  0  0  0  0  0  0  0  0  0  0
   40.6453   28.7204   46.2220 H   0  0  0  0  0  0  0  0  0  0  0  0
   42.0749   28.0800   44.7864 C   0  0  0  0  0  0  0  0  0  0  0  0
   43.4375   27.8499   44.6130 C   0  0  0  0  0  0  0  0  0  0  0  0
   41.3721   27.9201   44.0020 H   0  0  0  0  0  0  0  0  0  0  0  0
   43.6891   27.4950   43.6001 H   0  0  0  0  0  0  0  0  0  0  0  0
  1 13  1  0
  1  5  1  0
  2  1  1  0
  3  2  1  0
  3  4  1  0
  4  5  1  0
  5 14  1  0
  6 12  1  0
  6 11  2  0
  7  6  1  0
  8  7  2  0
  8  9  1  0
  9 10  2  0
 10 11  1  0
 10  2  1  0
 14 15  1  0
 16 15  1  0
  1 17  1  1
  2 18  1  1
  4 19  1  0
  4 20  1  0
  5 21  1  1
  7 22  1  0
  8 23  1  0
 12 24  1  0
 13 25  1  0
 15 26  1  0
 15 27  1  0
 16 28  1  0
 16 29  1  0
 30 31  1  0
 31 32  2  0
 31 33  2  0
 31 34  1  0
 34 35  2  0
 35 36  1  0
 36 37  1  0
 36 38  2  0
 38 39  1  0
 38 40  1  0
 40 41  2  0
 41 34  1  0
 40 42  1  0
 41 43  1  0
 16 35  1  0
M  ISO  8  17  13  18  13  19  13  20  13  21  13  22  14  23  14  24   3
M  ISO  8  25   3  26   8  27   8  28   8  29   8  30  12  37  15  39  16
M  END
>  <DihAtoms>  (1) 
14,15,34,33

>  <DihDeg>  (1) 
-76.36142123412192

$$$$
