
 OpenBabel03252506153D

 42 44  0  0  0  0  0  0  0  0999 V2000
   44.5420   31.5950   41.9030 F   0  0  0  0  0  0  0  0  0  0  0  0
   43.8290   32.1030   40.9280 C   0  0  0  0  0  0  0  0  0  0  0  0
   43.8010   33.4780   40.7780 C   0  0  0  0  0  0  0  0  0  0  0  0
   43.0700   34.1300   39.7640 C   0  0  0  0  0  0  0  0  0  0  0  0
   42.3350   33.3500   38.8620 C   0  0  0  0  0  0  0  0  0  0  0  0
   42.3920   31.9840   39.0460 C   0  0  0  0  0  0  0  0  0  0  0  0
   43.0890   31.3480   40.0160 C   0  0  0  0  0  0  0  0  0  0  0  0
   43.1000   35.2120   39.7160 H   0  0  0  0  0  0  0  0  0  0  0  0
   41.8070   33.9020   38.1240 H   0  0  0  0  0  0  0  0  0  0  0  0
   41.7810   31.5140   38.2710 H   0  0  0  0  0  0  0  0  0  0  0  0
   46.6150   35.2950   42.2660 C   0  0  0  0  0  0  0  0  0  0  0  0
   45.9990   35.9300   43.3740 C   0  0  0  0  0  0  0  0  0  0  0  0
   44.5990   35.7250   43.6030 C   0  0  0  0  0  0  0  0  0  0  0  0
   43.9420   34.9130   42.7170 N   0  0  0  0  0  0  0  0  0  0  0  0
   44.5590   34.3390   41.6960 C   0  0  0  0  0  0  0  0  0  0  0  0
   45.8800   34.5260   41.4700 N   0  0  0  0  0  0  0  0  0  0  0  0
   46.5690   36.5640   44.0440 H   0  0  0  0  0  0  0  0  0  0  0  0
   44.1070   36.1930   44.4340 H   0  0  0  0  0  0  0  0  0  0  0  0
   47.9800   35.5250   42.0800 N   0  0  0  0  0  0  0  0  0  0  0  0
   48.8190   34.9540   42.3250 H   0  0  0  0  0  0  0  0  0  0  0  0
   48.3380   36.4070   41.6170 H   0  0  0  0  0  0  0  0  0  0  0  0
   43.0670   29.9890   40.0990 O   0  0  0  0  0  0  0  0  0  0  0  0
   43.0900   28.5820   42.3390 O   0  0  0  0  0  0  0  0  0  0  0  0
   42.2150   29.0530   41.2020 P   0  0  2  0  0  0  0  0  0  0  0  0
   41.5390   27.7080   40.4080 O   0  0  0  0  0  0  0  0  0  0  0  0
   41.3190   26.9370   38.1920 C   0  0  0  0  0  0  0  0  0  0  0  0
   42.1530   27.1480   39.2960 C   0  0  0  0  0  0  0  0  0  0  0  0
   43.4810   26.7900   39.1930 C   0  0  0  0  0  0  0  0  0  0  0  0
   44.0960   26.9610   40.0520 H   0  0  0  0  0  0  0  0  0  0  0  0
   43.9800   26.2380   38.0320 C   0  0  0  0  0  0  0  0  0  0  0  0
   45.0360   25.9600   37.9660 H   0  0  0  0  0  0  0  0  0  0  0  0
   43.1810   26.0140   36.9140 C   0  0  0  0  0  3  0  0  0  0  0  0
   41.8640   26.3870   37.0640 C   0  0  0  0  0  3  0  0  0  0  0  0
   39.4210   28.5570   38.9290 H   0  0  0  0  0  0  0  0  0  0  0  0
   39.6080   27.3750   38.2630 S   0  0  0  0  0  0  0  0  0  0  0  0
   38.8870   26.2210   38.9120 O   0  0  0  0  0  0  0  0  0  0  0  0
   39.1070   27.4550   36.8470 O   0  0  0  0  0  0  0  0  0  0  0  0
   40.8850   29.8810   41.8590 O   0  0  0  0  0  0  0  0  0  0  0  0
   39.8030   29.8800   40.9600 C   0  0  0  0  0  0  0  0  0  0  0  0
   39.1220   28.6930   41.2450 F   0  0  0  0  0  0  0  0  0  0  0  0
   38.9450   30.9190   41.2230 F   0  0  0  0  0  0  0  0  0  0  0  0
   40.1830   29.9540   39.6480 F   0  0  0  0  0  0  0  0  0  0  0  0
  2  1  1  0  0  0  0
  3  2  1  0  0  0  0
  3 15  1  0  0  0  0
  4  3  2  0  0  0  0
  5  6  2  0  0  0  0
  5  4  1  0  0  0  0
  6  7  1  0  0  0  0
  7 22  1  0  0  0  0
  7  2  2  0  0  0  0
  8  4  1  0  0  0  0
  9  5  1  0  0  0  0
 10  6  1  0  0  0  0
 11 12  1  0  0  0  0
 12 13  2  0  0  0  0
 12 17  1  0  0  0  0
 13 18  1  0  0  0  0
 14 13  1  0  0  0  0
 15 14  2  0  0  0  0
 16 15  1  0  0  0  0
 16 11  2  0  0  0  0
 19 11  1  0  0  0  0
 19 20  1  0  0  0  0
 21 19  1  0  0  0  0
 22 24  1  0  0  0  0
 24 38  1  0  0  0  0
 24 23  2  1  0  0  0
 25 24  1  0  0  0  0
 26 35  1  0  0  0  0
 26 27  1  0  0  0  0
 27 25  1  0  0  0  0
 28 27  2  0  0  0  0
 28 29  1  0  0  0  0
 30 28  1  0  0  0  0
 31 30  1  0  0  0  0
 32 33  1  0  0  0  0
 32 30  2  0  0  0  0
 33 26  2  0  0  0  0
 35 36  2  0  0  0  0
 35 34  1  0  0  0  0
 37 35  2  0  0  0  0
 39 41  1  0  0  0  0
 39 40  1  0  0  0  0
 39 38  1  0  0  0  0
 42 39  1  0  0  0  0
M  END
>  <minimizedAffinity>
-2.68504429

>  <minimizedRMSD>
7.48093653

$$$$
