
 OpenBabel03252507383D

 41 45  0  0  0  0  0  0  0  0999 V2000
   45.6260   34.8420   43.4170 C   0  0  0  0  0  0  0  0  0  0  0  0
   46.3190   33.7660   44.0270 C   0  0  0  0  0  0  0  0  0  0  0  0
   46.0720   33.5310   45.3690 C   0  0  0  0  0  0  0  0  0  0  0  0
   45.1970   34.3260   46.0180 N   0  0  0  0  0  0  0  0  0  0  0  0
   44.5460   35.3490   45.4140 C   0  0  0  0  0  0  0  0  0  0  0  0
   44.7650   35.5950   44.1280 N   0  0  0  0  0  0  0  0  0  0  0  0
   47.0210   33.1280   43.5070 H   0  0  0  0  0  0  0  0  0  0  0  0
   43.8530   35.9460   46.0100 H   0  0  0  0  0  0  0  0  0  0  0  0
   46.9760   32.7110   47.4760 C   0  0  0  0  0  0  0  0  0  0  0  0
   46.7050   32.4640   46.1360 C   0  0  0  0  0  0  0  0  0  0  0  0
   47.0470   31.2370   45.6200 C   0  0  0  0  0  0  0  0  0  0  0  0
   47.6430   30.2550   46.3740 C   0  0  0  0  0  0  0  0  0  0  0  0
   48.0620   29.0030   46.0930 N   0  0  0  0  0  0  0  0  0  0  0  0
   48.5930   28.4780   47.2630 C   0  0  0  0  0  0  0  0  0  0  0  0
   48.4880   29.4050   48.2190 N   0  0  0  0  0  0  0  0  0  0  0  0
   47.9100   30.5000   47.6990 C   0  0  0  0  0  0  0  0  0  0  0  0
   47.5790   31.7220   48.2470 C   0  0  0  0  0  0  0  0  0  0  0  0
   46.7340   33.6570   47.9540 H   0  0  0  0  0  0  0  0  0  0  0  0
   46.8230   31.0710   44.5630 H   0  0  0  0  0  0  0  0  0  0  0  0
   48.0000   28.5170   45.1670 H   0  0  0  0  0  0  0  0  0  0  0  0
   49.0170   27.4840   47.3740 H   0  0  0  0  0  0  0  0  0  0  0  0
   47.7760   31.9510   49.2910 H   0  0  0  0  0  0  0  0  0  0  0  0
   45.8770   35.0780   42.0610 O   0  0  0  0  0  0  0  0  0  0  0  0
   45.0560   34.4910   41.0990 C   0  0  0  0  0  0  0  0  0  0  0  0
   45.9780   33.8110   40.3920 C   0  0  0  0  0  0  0  0  0  0  0  0
   44.8890   32.9860   39.0650 S   0  0  0  0  0  0  0  0  0  0  0  0
   43.3750   33.7970   39.8150 C   0  0  0  0  0  0  0  0  0  0  0  0
   43.8360   34.3430   40.6390 N   0  0  0  0  0  0  0  0  0  0  0  0
   47.0680   33.3530   40.0180 H   0  0  0  0  0  0  0  0  0  0  0  0
   40.9590   34.4490   39.7040 C   0  0  0  0  0  0  0  0  0  0  0  0
   41.9600   33.6340   39.2990 C   0  0  0  0  0  0  0  0  0  0  0  0
   41.8200   32.6200   38.4180 C   0  0  0  0  0  0  0  0  0  0  0  0
   42.6610   31.9770   38.1130 H   0  0  0  0  0  0  0  0  0  0  0  0
   40.5720   32.4050   37.9010 C   0  0  0  0  0  0  0  0  0  0  0  0
   40.4590   31.5880   37.1930 H   0  0  0  0  0  0  0  0  0  0  0  0
   39.4670   33.1530   38.2220 C   0  0  0  0  0  3  0  0  0  0  0  0
   39.7130   34.1630   39.1270 C   0  0  0  0  0  3  0  0  0  0  0  0
   42.4090   36.2740   40.8640 H   0  0  0  0  0  0  0  0  0  0  0  0
   41.1650   35.7550   40.8430 S   0  0  0  0  0  0  0  0  0  0  0  0
   40.9230   35.1550   42.2130 O   0  0  0  0  0  0  0  0  0  0  0  0
   40.0720   36.7790   40.6660 O   0  0  0  0  0  0  0  0  0  0  0  0
  1  2  2  0  0  0  0
  1  6  1  0  0  0  0
  2  3  1  0  0  0  0
  3  4  2  0  0  0  0
  3 10  1  0  0  0  0
  5  8  1  0  0  0  0
  5  4  1  0  0  0  0
  6  5  2  0  0  0  0
  7  2  1  0  0  0  0
  9 18  1  0  0  0  0
  9 17  1  0  0  0  0
 10  9  2  0  0  0  0
 11 10  1  0  0  0  0
 11 12  2  0  0  0  0
 12 16  1  0  0  0  0
 13 12  1  0  0  0  0
 13 14  1  0  0  0  0
 14 21  1  0  0  0  0
 14 15  2  0  0  0  0
 16 15  1  0  0  0  0
 16 17  2  0  0  0  0
 17 22  1  0  0  0  0
 19 11  1  0  0  0  0
 20 13  1  0  0  0  0
 23  1  1  0  0  0  0
 24 23  1  0  0  0  0
 25 24  2  0  0  0  0
 26 27  1  0  0  0  0
 26 25  1  0  0  0  0
 27 28  2  0  0  0  0
 28 24  1  0  0  0  0
 29 25  1  0  0  0  0
 30 39  1  0  0  0  0
 31 30  1  0  0  0  0
 31 27  1  0  0  0  0
 32 31  2  0  0  0  0
 33 32  1  0  0  0  0
 34 36  2  0  0  0  0
 34 32  1  0  0  0  0
 35 34  1  0  0  0  0
 36 37  1  0  0  0  0
 37 30  2  0  0  0  0
 39 38  1  0  0  0  0
 39 40  2  0  0  0  0
 41 39  2  0  0  0  0
M  END
>  <minimizedAffinity>
-6.78275871

>  <minimizedRMSD>
1.58973789

$$$$
