
 OpenBabel03252502503D

 37 39  0  0  0  0  0  0  0  0999 V2000
   44.5740   35.7910   43.7640 C   0  0  0  0  0  0  0  0  0  0  0  0
   44.9960   35.0830   44.8940 C   0  0  0  0  0  0  0  0  0  0  0  0
   45.9520   34.0950   44.7110 C   0  0  0  0  0  0  0  0  0  0  0  0
   46.4320   33.8600   43.4630 N   0  0  0  0  0  0  0  0  0  0  0  0
   46.0010   34.5690   42.3850 C   0  0  0  0  0  0  0  0  0  0  0  0
   45.0770   35.5270   42.5420 N   0  0  0  0  0  0  0  0  0  0  0  0
   43.8360   36.5790   43.7980 H   0  0  0  0  0  0  0  0  0  0  0  0
   44.5490   35.3540   45.8190 H   0  0  0  0  0  0  0  0  0  0  0  0
   48.6710   35.7660   41.8350 Cl  0  0  0  0  0  0  0  0  0  0  0  0
   47.7820   34.7590   40.7120 C   0  0  0  0  0  0  0  0  0  0  0  0
   46.5620   34.2620   41.0700 C   0  0  0  0  0  0  0  0  0  0  0  0
   45.8240   33.4530   40.1920 C   0  0  0  0  0  0  0  0  0  0  0  0
   46.4000   33.2000   38.9760 C   0  0  0  0  0  0  0  0  0  0  0  0
   47.6120   33.6930   38.6190 C   0  0  0  0  0  0  0  0  0  0  0  0
   48.3200   34.4760   39.4740 C   0  0  0  0  0  0  0  0  0  0  0  0
   44.8440   33.0640   40.5020 H   0  0  0  0  0  0  0  0  0  0  0  0
   45.7750   32.5640   38.3390 H   0  0  0  0  0  0  0  0  0  0  0  0
   47.9420   33.4120   37.6300 H   0  0  0  0  0  0  0  0  0  0  0  0
   49.2750   34.8390   39.1390 H   0  0  0  0  0  0  0  0  0  0  0  0
   46.3990   33.3410   45.9160 C   0  0  0  0  0  0  0  0  0  0  0  0
   46.0090   33.8810   46.7770 H   0  0  0  0  0  0  0  0  0  0  0  0
   47.5030   33.3370   45.9040 H   0  0  0  0  0  0  0  0  0  0  0  0
   45.9510   31.8880   45.8860 C   0  0  0  0  0  0  0  0  0  0  0  0
   45.4740   31.7290   46.8940 H   0  0  0  0  0  0  0  0  0  0  0  0
   45.1730   31.7170   45.1210 H   0  0  0  0  0  0  0  0  0  0  0  0
   47.6310   30.5610   47.0300 C   0  0  0  0  0  0  0  0  0  0  0  0
   47.0840   30.9510   45.8270 C   0  0  0  0  0  0  0  0  0  0  0  0
   47.6020   30.4660   44.6220 C   0  0  0  0  0  0  0  0  0  0  0  0
   47.1360   30.8030   43.7090 H   0  0  0  0  0  0  0  0  0  0  0  0
   48.6760   29.5800   44.6160 C   0  0  0  0  0  0  0  0  0  0  0  0
   49.0750   29.2060   43.6670 H   0  0  0  0  0  0  0  0  0  0  0  0
   49.2180   29.1940   45.8430 C   0  0  0  0  0  3  0  0  0  0  0  0
   48.7030   29.6760   47.0250 C   0  0  0  0  0  3  0  0  0  0  0  0
   46.7520   32.4120   48.6290 H   0  0  0  0  0  0  0  0  0  0  0  0
   47.0810   31.0900   48.5840 S   0  0  0  0  0  0  0  0  0  0  0  0
   45.8240   30.3240   48.9430 O   0  0  0  0  0  0  0  0  0  0  0  0
   48.1250   30.7790   49.6040 O   0  0  0  0  0  0  0  0  0  0  0  0
  1  7  1  0  0  0  0
  1  2  1  0  0  0  0
  2  8  1  0  0  0  0
  3  2  2  0  0  0  0
  3 20  1  0  0  0  0
  4  3  1  0  0  0  0
  5  6  1  0  0  0  0
  5  4  2  0  0  0  0
  6  1  2  0  0  0  0
 10 11  1  0  0  0  0
 10  9  1  0  0  0  0
 11  5  1  0  0  0  0
 12 16  1  0  0  0  0
 12 11  2  0  0  0  0
 13 12  1  0  0  0  0
 14 13  2  0  0  0  0
 14 15  1  0  0  0  0
 15 10  2  0  0  0  0
 17 13  1  0  0  0  0
 18 14  1  0  0  0  0
 19 15  1  0  0  0  0
 20 21  1  0  0  0  0
 22 20  1  0  0  0  0
 23 20  1  0  0  0  0
 23 24  1  0  0  0  0
 25 23  1  0  0  0  0
 26 35  1  0  0  0  0
 27 23  1  0  0  0  0
 27 26  2  0  0  0  0
 28 27  1  0  0  0  0
 29 28  1  0  0  0  0
 30 28  2  0  0  0  0
 30 32  1  0  0  0  0
 31 30  1  0  0  0  0
 32 33  2  0  0  0  0
 33 26  1  0  0  0  0
 35 34  1  0  0  0  0
 35 36  2  0  0  0  0
 35 37  2  0  0  0  0
M  END
>  <minimizedAffinity>
-5.62332296

>  <minimizedRMSD>
1.9570663

$$$$
