
 OpenBabel03252500513D

 38 40  0  0  0  0  0  0  0  0999 V2000
   44.1170   34.9630   41.7830 C   0  0  0  0  0  0  0  0  0  0  0  0
   44.8010   34.8180   40.7490 O   0  0  0  0  0  0  0  0  0  0  0  0
   44.6870   35.1600   44.1590 C   0  0  0  0  0  0  0  0  0  0  0  0
   44.6090   34.3680   43.0220 C   0  0  0  0  0  0  0  0  0  0  0  0
   44.9950   33.0200   43.0460 C   0  0  0  0  0  0  0  0  0  0  0  0
   45.4490   32.5310   44.2460 N   0  0  0  0  0  0  0  0  0  0  0  0
   45.5210   33.3060   45.3380 C   0  0  0  0  0  0  0  0  0  0  0  0
   45.1460   34.5940   45.2900 N   0  0  0  0  0  0  0  0  0  0  0  0
   44.4030   36.2020   44.1910 H   0  0  0  0  0  0  0  0  0  0  0  0
   44.9240   32.4420   42.1590 H   0  0  0  0  0  0  0  0  0  0  0  0
   46.0120   32.7530   46.5920 C   0  0  0  0  0  0  0  0  0  0  0  0
   47.2240   32.1500   46.7030 C   0  0  0  0  0  0  0  0  0  0  0  0
   47.7000   31.6250   47.8700 C   0  0  0  0  0  0  0  0  0  0  0  0
   46.8960   31.7280   48.9560 N   0  0  0  0  0  0  0  0  0  0  0  0
   45.7190   32.3150   48.8400 C   0  0  0  0  0  0  0  0  0  0  0  0
   45.2100   32.8460   47.7110 N   0  0  0  0  0  0  0  0  0  0  0  0
   47.8420   32.0850   45.8110 H   0  0  0  0  0  0  0  0  0  0  0  0
   48.6890   31.1590   47.8580 H   0  0  0  0  0  0  0  0  0  0  0  0
   45.0780   32.3890   49.7360 H   0  0  0  0  0  0  0  0  0  0  0  0
   43.0080   35.6910   41.4710 O   0  0  0  0  0  0  0  0  0  0  0  0
   41.7200   35.1880   41.5730 C   0  0  0  0  0  0  0  0  0  0  0  0
   41.3740   34.8170   42.5310 H   0  0  0  0  0  0  0  0  0  0  0  0
   41.7440   34.2420   40.9280 H   0  0  0  0  0  0  0  0  0  0  0  0
   40.6970   36.0410   40.8730 C   0  0  0  0  0  0  0  0  0  0  0  0
   41.1740   36.8680   40.2970 H   0  0  0  0  0  0  0  0  0  0  0  0
   39.9660   36.5150   41.5530 H   0  0  0  0  0  0  0  0  0  0  0  0
   40.3310   35.3000   38.6120 C   0  0  0  0  0  0  0  0  0  0  0  0
   39.9550   35.1670   39.9260 C   0  0  0  0  0  0  0  0  0  0  0  0
   38.9530   34.2910   40.2800 C   0  0  0  0  0  0  0  0  0  0  0  0
   38.7810   34.3080   41.3540 H   0  0  0  0  0  0  0  0  0  0  0  0
   38.2820   33.5150   39.3610 C   0  0  0  0  0  0  0  0  0  0  0  0
   37.5230   32.8770   39.7820 H   0  0  0  0  0  0  0  0  0  0  0  0
   38.6490   33.6340   38.0140 C   0  0  0  0  0  0  0  0  0  0  0  0
   39.6670   34.5270   37.6710 C   0  0  0  0  0  0  0  0  0  0  0  0
   41.7470   37.4420   38.5200 H   0  0  0  0  0  0  0  0  0  0  0  0
   41.5440   36.2710   37.8300 S   0  0  0  0  0  0  0  0  0  0  0  0
   40.9920   36.6910   36.4830 O   0  0  0  0  0  0  0  0  0  0  0  0
   42.8490   35.5980   37.6270 O   0  0  0  0  0  0  0  0  0  0  0  0
  1  4  1  0  0  0  0
  2  1  2  0  0  0  0
  3  9  1  0  0  0  0
  3  8  1  0  0  0  0
  4  5  1  0  0  0  0
  4  3  2  0  0  0  0
  5  6  2  0  0  0  0
  6  7  1  0  0  0  0
  7 11  1  0  0  0  0
  8  7  2  0  0  0  0
 10  5  1  0  0  0  0
 11 12  2  0  0  0  0
 11 16  1  0  0  0  0
 12 13  1  0  0  0  0
 13 14  2  0  0  0  0
 15 14  1  0  0  0  0
 15 19  1  0  0  0  0
 16 15  2  0  0  0  0
 17 12  1  0  0  0  0
 18 13  1  0  0  0  0
 20 21  1  0  0  0  0
 20  1  1  0  0  0  0
 21 22  1  0  0  0  0
 23 21  1  0  0  0  0
 24 26  1  0  0  0  0
 24 21  1  0  0  0  0
 25 24  1  0  0  0  0
 27 28  1  0  0  0  0
 28 29  2  0  0  0  0
 28 24  1  0  0  0  0
 29 30  1  0  0  0  0
 31 32  1  0  0  0  0
 31 29  1  0  0  0  0
 33 31  2  0  0  0  0
 34 33  1  0  0  0  0
 34 27  2  0  0  0  0
 36 35  1  0  0  0  0
 36 27  1  0  0  0  0
 37 36  2  0  0  0  0
 38 36  2  0  0  0  0
M  END
>  <minimizedAffinity>
-6.43919516

>  <minimizedRMSD>
1.15297425

$$$$
