
 OpenBabel03252508073D

 47 50  0  0  0  0  0  0  0  0999 V2000
   45.3430   35.5790   43.0300 C   0  0  0  0  0  0  0  0  0  0  0  0
   45.6470   34.2310   43.1370 C   0  0  0  0  0  0  0  0  0  0  0  0
   45.4410   33.5710   44.3230 C   0  0  0  0  0  0  0  0  0  0  0  0
   44.9260   34.3130   45.3670 N   0  0  0  0  0  0  0  0  0  0  0  0
   44.6350   35.6060   45.2610 C   0  0  0  0  0  0  0  0  0  0  0  0
   44.8500   36.2280   44.0820 N   0  0  0  0  0  0  0  0  0  0  0  0
   45.4920   36.1350   42.1110 H   0  0  0  0  0  0  0  0  0  0  0  0
   44.2310   36.1610   46.1020 H   0  0  0  0  0  0  0  0  0  0  0  0
   45.6980   32.2060   44.5920 C   0  0  0  0  0  0  0  0  0  0  0  0
   45.2820   31.1550   43.7680 C   0  0  0  0  0  0  0  0  0  0  0  0
   45.4710   29.8290   44.0600 C   0  0  0  0  0  0  0  0  0  0  0  0
   46.1050   29.4700   45.2280 C   0  0  0  0  0  0  0  0  0  0  0  0
   46.5340   30.5200   46.0710 C   0  0  0  0  0  0  0  0  0  0  0  0
   47.1650   30.1810   47.2430 C   0  0  0  0  0  0  0  0  0  0  0  0
   47.6090   31.1520   48.1180 C   0  0  0  0  0  0  0  0  0  0  0  0
   47.4130   32.5060   47.7980 C   0  0  0  0  0  0  0  0  0  0  0  0
   46.7620   32.8100   46.5890 C   0  0  0  0  0  0  0  0  0  0  0  0
   46.3300   31.8230   45.7460 C   0  0  0  0  0  0  0  0  0  0  0  0
   44.7820   31.4380   42.8470 H   0  0  0  0  0  0  0  0  0  0  0  0
   45.1240   29.0570   43.3770 H   0  0  0  0  0  0  0  0  0  0  0  0
   46.2850   28.4440   45.5200 H   0  0  0  0  0  0  0  0  0  0  0  0
   47.3080   29.1310   47.4730 H   0  0  0  0  0  0  0  0  0  0  0  0
   48.0960   30.8110   49.0240 H   0  0  0  0  0  0  0  0  0  0  0  0
   47.7920   33.1930   48.5350 H   0  0  0  0  0  0  0  0  0  0  0  0
   46.7280   33.8770   46.5160 H   0  0  0  0  0  0  0  0  0  0  0  0
   46.1470   33.6130   42.0230 O   0  0  0  0  0  0  0  0  0  0  0  0
   48.1920   31.9820   41.9480 O   0  0  0  0  0  0  0  0  0  0  0  0
   47.7960   33.3960   41.7040 P   0  0  1  0  0  0  0  0  0  0  0  0
   48.1470   33.7320   40.0800 O   0  0  0  0  0  0  0  0  0  0  0  0
   48.3260   32.0260   38.4610 C   0  0  0  0  0  0  0  0  0  0  0  0
   47.5360   32.9760   39.0870 C   0  0  0  0  0  0  0  0  0  0  0  0
   46.2220   33.1200   38.7050 C   0  0  0  0  0  0  0  0  0  0  0  0
   45.6140   33.8490   39.1870 H   0  0  0  0  0  0  0  0  0  0  0  0
   45.6970   32.3230   37.7050 C   0  0  0  0  0  0  0  0  0  0  0  0
   44.6560   32.4530   37.4190 H   0  0  0  0  0  0  0  0  0  0  0  0
   46.4690   31.3680   37.0660 C   0  0  0  0  0  3  0  0  0  0  0  0
   47.7860   31.2310   37.4550 C   0  0  0  0  0  3  0  0  0  0  0  0
   50.4570   32.5370   39.8370 H   0  0  0  0  0  0  0  0  0  0  0  0
   50.0070   31.7240   38.8320 S   0  0  0  0  0  0  0  0  0  0  0  0
   50.8330   31.9360   37.5780 O   0  0  0  0  0  0  0  0  0  0  0  0
   50.2090   30.3040   39.2750 O   0  0  0  0  0  0  0  0  0  0  0  0
   48.6660   34.4500   42.6760 O   0  0  0  0  0  0  0  0  0  0  0  0
   49.7920   35.1720   42.3140 C   0  0  0  0  0  0  0  0  0  0  0  0
   49.3470   36.2500   41.8750 O   0  0  0  0  0  0  0  0  0  0  0  0
   50.9920   34.4190   42.5800 N   0  0  0  0  0  0  0  0  0  0  0  0
   51.2290   34.2870   43.6090 H   0  0  0  0  0  0  0  0  0  0  0  0
   51.6640   33.9840   41.9030 H   0  0  0  0  0  0  0  0  0  0  0  0
  1  2  2  0  0  0  0
  1  6  1  0  0  0  0
  2  3  1  0  0  0  0
  3  9  1  0  0  0  0
  3  4  2  0  0  0  0
  5  4  1  0  0  0  0
  5  8  1  0  0  0  0
  6  5  2  0  0  0  0
  7  1  1  0  0  0  0
  9 18  1  0  0  0  0
 10 11  1  0  0  0  0
 10  9  2  0  0  0  0
 11 12  2  0  0  0  0
 12 21  1  0  0  0  0
 12 13  1  0  0  0  0
 13 14  1  0  0  0  0
 14 22  1  0  0  0  0
 14 15  2  0  0  0  0
 15 23  1  0  0  0  0
 16 15  1  0  0  0  0
 16 24  1  0  0  0  0
 17 16  2  0  0  0  0
 18 13  2  0  0  0  0
 18 17  1  0  0  0  0
 19 10  1  0  0  0  0
 20 11  1  0  0  0  0
 25 17  1  0  0  0  0
 26  2  1  0  0  0  0
 28 27  2  1  0  0  0
 28 26  1  0  0  0  0
 28 42  1  0  0  0  0
 29 28  1  0  0  0  0
 30 39  1  0  0  0  0
 30 31  1  0  0  0  0
 31 29  1  0  0  0  0
 32 31  2  0  0  0  0
 32 33  1  0  0  0  0
 34 32  1  0  0  0  0
 35 34  1  0  0  0  0
 36 37  1  0  0  0  0
 36 34  2  0  0  0  0
 37 30  2  0  0  0  0
 39 41  2  0  0  0  0
 39 38  1  0  0  0  0
 40 39  2  0  0  0  0
 43 45  1  0  0  0  0
 43 42  1  0  0  0  0
 44 43  2  0  0  0  0
 45 46  1  0  0  0  0
 47 45  1  0  0  0  0
M  END
>  <minimizedAffinity>
-5.83429718

>  <minimizedRMSD>
1.21639037

$$$$
