
 OpenBabel03242518103D

 27 28  0  0  0  0  0  0  0  0999 V2000
   35.7520   30.2000   40.5860 C   0  0  0  0  0  0  0  0  0  0  0  0
   36.3850   30.7520   41.2770 H   0  0  0  0  0  0  0  0  0  0  0  0
   34.7010   30.6130   40.5770 H   0  0  0  0  0  0  0  0  0  0  0  0
   37.1340   31.4030   38.9370 C   0  0  0  0  0  0  0  0  0  0  0  0
   36.2750   30.3540   39.1950 C   0  0  0  0  0  0  0  0  0  0  0  0
   35.9600   29.5180   38.1410 C   0  0  0  0  0  0  0  0  0  0  0  0
   35.3010   28.7060   38.3260 H   0  0  0  0  0  0  0  0  0  0  0  0
   36.4710   29.7060   36.8760 C   0  0  0  0  0  0  0  0  0  0  0  0
   36.2050   29.0320   36.0670 H   0  0  0  0  0  0  0  0  0  0  0  0
   37.3230   30.7430   36.6090 C   0  0  0  0  0  3  0  0  0  0  0  0
   37.6470   31.5880   37.6550 C   0  0  0  0  0  3  0  0  0  0  0  0
   36.7620   32.3120   41.2930 H   0  0  0  0  0  0  0  0  0  0  0  0
   37.5700   32.4890   40.2130 S   0  0  0  0  0  0  0  0  0  0  0  0
   37.5570   33.9380   39.7450 O   0  0  0  0  0  0  0  0  0  0  0  0
   38.9740   32.1720   40.6920 O   0  0  0  0  0  0  0  0  0  0  0  0
   35.6230   28.7220   40.8960 C   0  0  0  0  0  0  0  0  0  0  0  0
   34.6640   28.6100   41.4580 H   0  0  0  0  0  0  0  0  0  0  0  0
   35.6200   28.2110   39.9380 H   0  0  0  0  0  0  0  0  0  0  0  0
   36.7190   28.3270   41.7810 C   0  0  0  0  0  0  0  0  0  0  0  0
   37.0720   26.9960   41.9570 C   0  0  0  0  0  0  0  0  0  0  0  0
   38.1450   26.6970   42.8280 C   0  0  0  0  0  0  0  0  0  0  0  0
   38.7690   27.7490   43.4430 N   0  0  0  0  0  0  0  0  0  0  0  0
   38.3870   29.0370   43.2380 C   0  0  0  0  0  0  0  0  0  0  0  0
   37.3610   29.3080   42.4040 N   0  0  0  0  0  0  0  0  0  0  0  0
   36.5680   26.2070   41.4660 H   0  0  0  0  0  0  0  0  0  0  0  0
   38.4730   25.6770   43.0120 H   0  0  0  0  0  0  0  0  0  0  0  0
   38.9000   29.8540   43.7400 H   0  0  0  0  0  0  0  0  0  0  0  0
  1 16  1  0  0  0  0
  1  2  1  0  0  0  0
  3  1  1  0  0  0  0
  4  5  1  0  0  0  0
  4 13  1  0  0  0  0
  5  1  1  0  0  0  0
  6  7  1  0  0  0  0
  6  5  2  0  0  0  0
  8  6  1  0  0  0  0
  9  8  1  0  0  0  0
 10  8  2  0  0  0  0
 10 11  1  0  0  0  0
 11  4  2  0  0  0  0
 13 15  2  0  0  0  0
 13 12  1  0  0  0  0
 14 13  2  0  0  0  0
 16 17  1  0  0  0  0
 16 19  1  0  0  0  0
 18 16  1  0  0  0  0
 19 20  2  0  0  0  0
 19 24  1  0  0  0  0
 20 21  1  0  0  0  0
 21 26  1  0  0  0  0
 21 22  2  0  0  0  0
 23 22  1  0  0  0  0
 23 27  1  0  0  0  0
 24 23  2  0  0  0  0
 25 20  1  0  0  0  0
M  END
>  <minimizedAffinity>
-4.83976364

$$$$

 OpenBabel03242518103D

 27 28  0  0  0  0  0  0  0  0999 V2000
   38.3570   27.4990   43.5530 C   0  0  0  0  0  0  0  0  0  0  0  0
   38.4760   27.2850   44.6120 H   0  0  0  0  0  0  0  0  0  0  0  0
   39.2720   28.0120   43.1350 H   0  0  0  0  0  0  0  0  0  0  0  0
   39.3600   25.5260   42.4670 C   0  0  0  0  0  0  0  0  0  0  0  0
   38.2120   26.2180   42.7960 C   0  0  0  0  0  0  0  0  0  0  0  0
   37.0070   25.6740   42.3990 C   0  0  0  0  0  0  0  0  0  0  0  0
   36.1160   26.1960   42.6450 H   0  0  0  0  0  0  0  0  0  0  0  0
   36.9300   24.4890   41.7010 C   0  0  0  0  0  0  0  0  0  0  0  0
   35.9670   24.0850   41.4020 H   0  0  0  0  0  0  0  0  0  0  0  0
   38.0620   23.7940   41.3700 C   0  0  0  0  0  3  0  0  0  0  0  0
   39.2760   24.3270   41.7620 C   0  0  0  0  0  3  0  0  0  0  0  0
   40.8450   26.7050   44.1770 H   0  0  0  0  0  0  0  0  0  0  0  0
   40.9050   26.1530   42.9350 S   0  0  0  0  0  0  0  0  0  0  0  0
   41.4380   27.1480   41.9140 O   0  0  0  0  0  0  0  0  0  0  0  0
   41.9050   25.0160   43.0370 O   0  0  0  0  0  0  0  0  0  0  0  0
   37.1810   28.3950   43.2200 C   0  0  0  0  0  0  0  0  0  0  0  0
   36.5060   27.7850   42.5710 H   0  0  0  0  0  0  0  0  0  0  0  0
   36.7310   28.6690   44.1690 H   0  0  0  0  0  0  0  0  0  0  0  0
   37.6610   29.5330   42.4350 C   0  0  0  0  0  0  0  0  0  0  0  0
   38.9710   29.9830   42.5280 C   0  0  0  0  0  0  0  0  0  0  0  0
   39.3570   31.0880   41.7350 C   0  0  0  0  0  0  0  0  0  0  0  0
   38.4060   31.6430   40.9220 N   0  0  0  0  0  0  0  0  0  0  0  0
   37.1340   31.1670   40.8660 C   0  0  0  0  0  0  0  0  0  0  0  0
   36.7790   30.1110   41.6280 N   0  0  0  0  0  0  0  0  0  0  0  0
   39.6810   29.5300   43.1670 H   0  0  0  0  0  0  0  0  0  0  0  0
   40.3660   31.4920   41.7590 H   0  0  0  0  0  0  0  0  0  0  0  0
   36.3980   31.6270   40.2120 H   0  0  0  0  0  0  0  0  0  0  0  0
  1  2  1  0  0  0  0
  3  1  1  0  0  0  0
  4  5  1  0  0  0  0
  4 13  1  0  0  0  0
  5  1  1  0  0  0  0
  6  7  1  0  0  0  0
  6  5  2  0  0  0  0
  8  6  1  0  0  0  0
  9  8  1  0  0  0  0
 10  8  2  0  0  0  0
 10 11  1  0  0  0  0
 11  4  2  0  0  0  0
 13 15  2  0  0  0  0
 13 12  1  0  0  0  0
 14 13  2  0  0  0  0
 16  1  1  0  0  0  0
 16 18  1  0  0  0  0
 17 16  1  0  0  0  0
 19 20  1  0  0  0  0
 19 16  1  0  0  0  0
 20 25  1  0  0  0  0
 21 26  1  0  0  0  0
 21 20  2  0  0  0  0
 22 21  1  0  0  0  0
 23 22  2  0  0  0  0
 23 24  1  0  0  0  0
 24 19  2  0  0  0  0
 27 23  1  0  0  0  0
M  END
>  <minimizedAffinity>
-4.67979336

$$$$

 OpenBabel03242518103D

 27 28  0  0  0  0  0  0  0  0999 V2000
   36.4010   30.2560   41.1210 C   0  0  0  0  0  0  0  0  0  0  0  0
   35.9630   30.9960   41.7860 H   0  0  0  0  0  0  0  0  0  0  0  0
   37.2040   30.7150   40.4730 H   0  0  0  0  0  0  0  0  0  0  0  0
   38.3920   29.3840   42.2870 C   0  0  0  0  0  0  0  0  0  0  0  0
   37.0720   29.1920   41.9290 C   0  0  0  0  0  0  0  0  0  0  0  0
   36.4650   28.0240   42.3450 C   0  0  0  0  0  0  0  0  0  0  0  0
   35.4510   27.8630   42.0760 H   0  0  0  0  0  0  0  0  0  0  0  0
   37.1310   27.0740   43.0880 C   0  0  0  0  0  0  0  0  0  0  0  0
   36.6280   26.1650   43.4010 H   0  0  0  0  0  0  0  0  0  0  0  0
   38.4390   27.2550   43.4490 C   0  0  0  0  0  3  0  0  0  0  0  0
   39.0600   28.4210   43.0390 C   0  0  0  0  0  3  0  0  0  0  0  0
   38.3610   31.8900   41.7970 H   0  0  0  0  0  0  0  0  0  0  0  0
   39.2120   30.8290   41.7980 S   0  0  0  0  0  0  0  0  0  0  0  0
   39.8840   30.6600   40.4420 O   0  0  0  0  0  0  0  0  0  0  0  0
   40.2920   31.1670   42.8090 O   0  0  0  0  0  0  0  0  0  0  0  0
   35.4170   29.5990   40.1750 C   0  0  0  0  0  0  0  0  0  0  0  0
   35.4270   28.5120   40.4310 H   0  0  0  0  0  0  0  0  0  0  0  0
   34.4590   30.0740   40.3560 H   0  0  0  0  0  0  0  0  0  0  0  0
   35.9080   29.7480   38.8040 C   0  0  0  0  0  0  0  0  0  0  0  0
   35.3590   29.0310   37.7500 C   0  0  0  0  0  0  0  0  0  0  0  0
   35.8880   29.2340   36.4540 C   0  0  0  0  0  0  0  0  0  0  0  0
   36.9140   30.1320   36.3260 N   0  0  0  0  0  0  0  0  0  0  0  0
   37.4180   30.8100   37.3900 C   0  0  0  0  0  0  0  0  0  0  0  0
   36.9040   30.6070   38.6210 N   0  0  0  0  0  0  0  0  0  0  0  0
   34.5660   28.3450   37.8840 H   0  0  0  0  0  0  0  0  0  0  0  0
   35.5060   28.7050   35.5850 H   0  0  0  0  0  0  0  0  0  0  0  0
   38.2340   31.5170   37.2600 H   0  0  0  0  0  0  0  0  0  0  0  0
  1  2  1  0  0  0  0
  1  5  1  0  0  0  0
  3  1  1  0  0  0  0
  4 11  1  0  0  0  0
  5  4  2  0  0  0  0
  5  6  1  0  0  0  0
  6  8  2  0  0  0  0
  7  6  1  0  0  0  0
  8  9  1  0  0  0  0
  8 10  1  0  0  0  0
 11 10  2  0  0  0  0
 12 13  1  0  0  0  0
 13  4  1  0  0  0  0
 13 15  2  0  0  0  0
 14 13  2  0  0  0  0
 16 18  1  0  0  0  0
 16 17  1  0  0  0  0
 16  1  1  0  0  0  0
 19 16  1  0  0  0  0
 20 25  1  0  0  0  0
 20 19  2  0  0  0  0
 21 20  1  0  0  0  0
 22 21  2  0  0  0  0
 22 23  1  0  0  0  0
 23 24  2  0  0  0  0
 24 19  1  0  0  0  0
 26 21  1  0  0  0  0
 27 23  1  0  0  0  0
M  END
>  <minimizedAffinity>
-4.56872702

$$$$

 OpenBabel03242518103D

 27 28  0  0  0  0  0  0  0  0999 V2000
   37.3180   29.0410   42.5760 C   0  0  0  0  0  0  0  0  0  0  0  0
   38.4040   29.0730   42.5590 H   0  0  0  0  0  0  0  0  0  0  0  0
   36.8970   29.8440   43.2480 H   0  0  0  0  0  0  0  0  0  0  0  0
   37.4090   30.2940   40.4540 C   0  0  0  0  0  0  0  0  0  0  0  0
   36.7860   29.3180   41.2070 C   0  0  0  0  0  0  0  0  0  0  0  0
   35.7100   28.6670   40.6360 C   0  0  0  0  0  0  0  0  0  0  0  0
   35.2220   27.9140   41.2040 H   0  0  0  0  0  0  0  0  0  0  0  0
   35.2600   28.9630   39.3690 C   0  0  0  0  0  0  0  0  0  0  0  0
   34.4120   28.4330   38.9460 H   0  0  0  0  0  0  0  0  0  0  0  0
   35.8710   29.9280   38.6140 C   0  0  0  0  0  3  0  0  0  0  0  0
   36.9500   30.5880   39.1730 C   0  0  0  0  0  3  0  0  0  0  0  0
   38.9660   30.8070   42.4120 H   0  0  0  0  0  0  0  0  0  0  0  0
   38.7650   31.1490   41.1100 S   0  0  0  0  0  0  0  0  0  0  0  0
   38.6060   32.6550   40.9540 O   0  0  0  0  0  0  0  0  0  0  0  0
   40.0270   30.7390   40.3760 O   0  0  0  0  0  0  0  0  0  0  0  0
   36.7350   27.7310   43.0660 C   0  0  0  0  0  0  0  0  0  0  0  0
   36.4700   27.8960   44.1390 H   0  0  0  0  0  0  0  0  0  0  0  0
   35.8740   27.5290   42.4380 H   0  0  0  0  0  0  0  0  0  0  0  0
   37.7730   26.7000   43.0070 C   0  0  0  0  0  0  0  0  0  0  0  0
   37.5970   25.5290   42.2830 C   0  0  0  0  0  0  0  0  0  0  0  0
   38.6500   24.5840   42.2740 C   0  0  0  0  0  0  0  0  0  0  0  0
   39.7790   24.8910   42.9840 N   0  0  0  0  0  0  0  0  0  0  0  0
   39.9030   26.0520   43.6780 C   0  0  0  0  0  0  0  0  0  0  0  0
   38.8910   26.9460   43.6790 N   0  0  0  0  0  0  0  0  0  0  0  0
   36.7110   25.3230   41.7440 H   0  0  0  0  0  0  0  0  0  0  0  0
   38.5790   23.6460   41.7290 H   0  0  0  0  0  0  0  0  0  0  0  0
   40.8110   26.2710   44.2350 H   0  0  0  0  0  0  0  0  0  0  0  0
  1 16  1  0  0  0  0
  1  3  1  0  0  0  0
  2  1  1  0  0  0  0
  4 13  1  0  0  0  0
  4  5  1  0  0  0  0
  5  1  1  0  0  0  0
  6  7  1  0  0  0  0
  6  5  2  0  0  0  0
  8  6  1  0  0  0  0
  9  8  1  0  0  0  0
 10 11  1  0  0  0  0
 10  8  2  0  0  0  0
 11  4  2  0  0  0  0
 13 12  1  0  0  0  0
 14 13  2  0  0  0  0
 15 13  2  0  0  0  0
 16 17  1  0  0  0  0
 18 16  1  0  0  0  0
 19 16  1  0  0  0  0
 19 24  1  0  0  0  0
 20 19  2  0  0  0  0
 21 20  1  0  0  0  0
 21 22  2  0  0  0  0
 22 23  1  0  0  0  0
 23 24  2  0  0  0  0
 23 27  1  0  0  0  0
 25 20  1  0  0  0  0
 26 21  1  0  0  0  0
M  END
>  <minimizedAffinity>
-4.56848478

$$$$

 OpenBabel03242518103D

 27 28  0  0  0  0  0  0  0  0999 V2000
   37.7600   27.8840   43.2900 C   0  0  0  0  0  0  0  0  0  0  0  0
   36.9300   27.6300   42.6350 H   0  0  0  0  0  0  0  0  0  0  0  0
   37.4500   27.8450   44.3750 H   0  0  0  0  0  0  0  0  0  0  0  0
   38.5850   25.7460   42.3820 C   0  0  0  0  0  0  0  0  0  0  0  0
   38.8510   26.8750   43.1290 C   0  0  0  0  0  0  0  0  0  0  0  0
   40.1130   26.9910   43.6790 C   0  0  0  0  0  0  0  0  0  0  0  0
   40.3300   27.8540   44.2560 H   0  0  0  0  0  0  0  0  0  0  0  0
   41.0830   26.0290   43.5000 C   0  0  0  0  0  0  0  0  0  0  0  0
   42.0660   26.1470   43.9440 H   0  0  0  0  0  0  0  0  0  0  0  0
   40.8300   24.9050   42.7600 C   0  0  0  0  0  3  0  0  0  0  0  0
   39.5710   24.7770   42.2040 C   0  0  0  0  0  3  0  0  0  0  0  0
   36.0730   26.2030   42.3780 H   0  0  0  0  0  0  0  0  0  0  0  0
   37.0230   25.5380   41.6650 S   0  0  0  0  0  0  0  0  0  0  0  0
   36.6680   24.0660   41.5110 O   0  0  0  0  0  0  0  0  0  0  0  0
   37.0110   26.1630   40.2820 O   0  0  0  0  0  0  0  0  0  0  0  0
   38.3400   29.2660   43.0650 C   0  0  0  0  0  0  0  0  0  0  0  0
   38.0880   29.8560   43.9790 H   0  0  0  0  0  0  0  0  0  0  0  0
   39.4070   29.1270   42.9230 H   0  0  0  0  0  0  0  0  0  0  0  0
   37.6610   29.8820   41.9230 C   0  0  0  0  0  0  0  0  0  0  0  0
   36.4420   29.4100   41.4570 C   0  0  0  0  0  0  0  0  0  0  0  0
   35.8500   30.0620   40.3510 C   0  0  0  0  0  0  0  0  0  0  0  0
   36.5240   31.1240   39.8110 N   0  0  0  0  0  0  0  0  0  0  0  0
   37.7170   31.5500   40.3030 C   0  0  0  0  0  0  0  0  0  0  0  0
   38.2710   30.9180   41.3600 N   0  0  0  0  0  0  0  0  0  0  0  0
   35.9470   28.5860   41.8980 H   0  0  0  0  0  0  0  0  0  0  0  0
   34.8980   29.7440   39.9340 H   0  0  0  0  0  0  0  0  0  0  0  0
   38.2320   32.3960   39.8550 H   0  0  0  0  0  0  0  0  0  0  0  0
  1  3  1  0  0  0  0
  2  1  1  0  0  0  0
  4  5  1  0  0  0  0
  5  1  1  0  0  0  0
  5  6  2  0  0  0  0
  6  7  1  0  0  0  0
  8  6  1  0  0  0  0
  8  9  1  0  0  0  0
 10  8  2  0  0  0  0
 11  4  2  0  0  0  0
 11 10  1  0  0  0  0
 13 12  1  0  0  0  0
 13  4  1  0  0  0  0
 14 13  2  0  0  0  0
 15 13  2  0  0  0  0
 16  1  1  0  0  0  0
 16 17  1  0  0  0  0
 18 16  1  0  0  0  0
 19 16  1  0  0  0  0
 20 25  1  0  0  0  0
 20 19  1  0  0  0  0
 21 20  2  0  0  0  0
 22 23  2  0  0  0  0
 22 21  1  0  0  0  0
 23 24  1  0  0  0  0
 24 19  2  0  0  0  0
 26 21  1  0  0  0  0
 27 23  1  0  0  0  0
M  END
>  <minimizedAffinity>
-4.50994492

$$$$

 OpenBabel03242518103D

 27 28  0  0  0  0  0  0  0  0999 V2000
   36.1880   27.9650   40.0350 C   0  0  0  0  0  0  0  0  0  0  0  0
   36.8480   27.9310   39.1720 H   0  0  0  0  0  0  0  0  0  0  0  0
   35.4480   27.1120   40.0170 H   0  0  0  0  0  0  0  0  0  0  0  0
   38.3630   27.7230   41.1710 C   0  0  0  0  0  0  0  0  0  0  0  0
   36.9890   27.7960   41.2850 C   0  0  0  0  0  0  0  0  0  0  0  0
   36.4530   27.7070   42.5550 C   0  0  0  0  0  0  0  0  0  0  0  0
   35.3980   27.7620   42.6580 H   0  0  0  0  0  0  0  0  0  0  0  0
   37.2390   27.5510   43.6750 C   0  0  0  0  0  0  0  0  0  0  0  0
   36.7890   27.4840   44.6610 H   0  0  0  0  0  0  0  0  0  0  0  0
   38.6020   27.4780   43.5730 C   0  0  0  0  0  3  0  0  0  0  0  0
   39.1530   27.5660   42.3080 C   0  0  0  0  0  3  0  0  0  0  0  0
   38.1780   27.6370   38.6250 H   0  0  0  0  0  0  0  0  0  0  0  0
   39.1010   27.8280   39.6070 S   0  0  0  0  0  0  0  0  0  0  0  0
   40.2620   26.8540   39.4690 O   0  0  0  0  0  0  0  0  0  0  0  0
   39.6440   29.2280   39.3950 O   0  0  0  0  0  0  0  0  0  0  0  0
   35.3680   29.2340   40.1510 C   0  0  0  0  0  0  0  0  0  0  0  0
   34.5470   29.1380   39.4010 H   0  0  0  0  0  0  0  0  0  0  0  0
   35.0110   29.2710   41.1760 H   0  0  0  0  0  0  0  0  0  0  0  0
   36.2050   30.3730   39.7680 C   0  0  0  0  0  0  0  0  0  0  0  0
   36.6350   31.3080   40.7000 C   0  0  0  0  0  0  0  0  0  0  0  0
   37.4430   32.3780   40.2490 C   0  0  0  0  0  0  0  0  0  0  0  0
   37.7480   32.4190   38.9150 N   0  0  0  0  0  0  0  0  0  0  0  0
   37.3030   31.4780   38.0420 C   0  0  0  0  0  0  0  0  0  0  0  0
   36.5330   30.4620   38.4850 N   0  0  0  0  0  0  0  0  0  0  0  0
   36.3800   31.2460   41.7240 H   0  0  0  0  0  0  0  0  0  0  0  0
   37.8130   33.1450   40.9240 H   0  0  0  0  0  0  0  0  0  0  0  0
   37.5600   31.5350   36.9870 H   0  0  0  0  0  0  0  0  0  0  0  0
  1 16  1  0  0  0  0
  1  5  1  0  0  0  0
  2  1  1  0  0  0  0
  3  1  1  0  0  0  0
  4  5  2  0  0  0  0
  4 11  1  0  0  0  0
  5  6  1  0  0  0  0
  6  7  1  0  0  0  0
  6  8  2  0  0  0  0
  8  9  1  0  0  0  0
 10  8  1  0  0  0  0
 11 10  2  0  0  0  0
 12 13  1  0  0  0  0
 13  4  1  0  0  0  0
 14 13  2  0  0  0  0
 15 13  2  0  0  0  0
 16 18  1  0  0  0  0
 17 16  1  0  0  0  0
 19 16  1  0  0  0  0
 19 20  1  0  0  0  0
 20 25  1  0  0  0  0
 21 20  2  0  0  0  0
 21 26  1  0  0  0  0
 22 21  1  0  0  0  0
 23 24  1  0  0  0  0
 23 22  2  0  0  0  0
 24 19  2  0  0  0  0
 27 23  1  0  0  0  0
M  END
>  <minimizedAffinity>
-4.46636105

$$$$

 OpenBabel03242518103D

 27 28  0  0  0  0  0  0  0  0999 V2000
   35.8790   29.8510   40.3390 C   0  0  0  0  0  0  0  0  0  0  0  0
   34.8220   30.0100   40.5330 H   0  0  0  0  0  0  0  0  0  0  0  0
   36.5010   30.0790   41.2530 H   0  0  0  0  0  0  0  0  0  0  0  0
   36.6720   27.6110   40.9980 C   0  0  0  0  0  0  0  0  0  0  0  0
   36.1190   28.4110   40.0180 C   0  0  0  0  0  0  0  0  0  0  0  0
   35.8270   27.8180   38.8050 C   0  0  0  0  0  0  0  0  0  0  0  0
   35.4020   28.4220   38.0420 H   0  0  0  0  0  0  0  0  0  0  0  0
   36.0700   26.4840   38.5620 C   0  0  0  0  0  0  0  0  0  0  0  0
   35.8290   26.0460   37.5980 H   0  0  0  0  0  0  0  0  0  0  0  0
   36.6170   25.6820   39.5270 C   0  0  0  0  0  3  0  0  0  0  0  0
   36.9150   26.2630   40.7460 C   0  0  0  0  0  3  0  0  0  0  0  0
   36.4690   29.5060   42.6970 H   0  0  0  0  0  0  0  0  0  0  0  0
   37.0620   28.2910   42.5420 S   0  0  0  0  0  0  0  0  0  0  0  0
   38.5680   28.3810   42.7500 O   0  0  0  0  0  0  0  0  0  0  0  0
   36.4960   27.4130   43.6420 O   0  0  0  0  0  0  0  0  0  0  0  0
   36.4480   30.6990   39.2180 C   0  0  0  0  0  0  0  0  0  0  0  0
   37.0580   30.0050   38.5900 H   0  0  0  0  0  0  0  0  0  0  0  0
   35.5950   31.1160   38.6920 H   0  0  0  0  0  0  0  0  0  0  0  0
   37.3450   31.7020   39.7930 C   0  0  0  0  0  0  0  0  0  0  0  0
   38.3800   31.3500   40.6490 C   0  0  0  0  0  0  0  0  0  0  0  0
   39.2040   32.3790   41.1610 C   0  0  0  0  0  0  0  0  0  0  0  0
   38.9240   33.6620   40.7740 N   0  0  0  0  0  0  0  0  0  0  0  0
   37.8990   33.9560   39.9320 C   0  0  0  0  0  0  0  0  0  0  0  0
   37.1200   32.9640   39.4510 N   0  0  0  0  0  0  0  0  0  0  0  0
   38.5680   30.3480   40.9290 H   0  0  0  0  0  0  0  0  0  0  0  0
   40.0310   32.1750   41.8360 H   0  0  0  0  0  0  0  0  0  0  0  0
   37.6980   34.9840   39.6410 H   0  0  0  0  0  0  0  0  0  0  0  0
  1  2  1  0  0  0  0
  1  3  1  0  0  0  0
  4 13  1  0  0  0  0
  5  1  1  0  0  0  0
  5  4  2  0  0  0  0
  6  5  1  0  0  0  0
  7  6  1  0  0  0  0
  8  6  2  0  0  0  0
  8 10  1  0  0  0  0
  9  8  1  0  0  0  0
 10 11  2  0  0  0  0
 11  4  1  0  0  0  0
 13 12  1  0  0  0  0
 13 14  2  0  0  0  0
 13 15  2  0  0  0  0
 16 19  1  0  0  0  0
 16  1  1  0  0  0  0
 17 16  1  0  0  0  0
 18 16  1  0  0  0  0
 19 20  1  0  0  0  0
 20 25  1  0  0  0  0
 20 21  2  0  0  0  0
 21 26  1  0  0  0  0
 22 21  1  0  0  0  0
 23 22  2  0  0  0  0
 24 19  2  0  0  0  0
 24 23  1  0  0  0  0
 27 23  1  0  0  0  0
M  END
>  <minimizedAffinity>
-4.40891981

$$$$

 OpenBabel03242518103D

 27 28  0  0  0  0  0  0  0  0999 V2000
   35.5220   29.5040   40.5180 C   0  0  0  0  0  0  0  0  0  0  0  0
   35.4600   29.4600   39.4340 H   0  0  0  0  0  0  0  0  0  0  0  0
   34.4940   29.5380   40.9840 H   0  0  0  0  0  0  0  0  0  0  0  0
   36.4710   27.2620   40.1320 C   0  0  0  0  0  0  0  0  0  0  0  0
   36.1750   28.2630   41.0350 C   0  0  0  0  0  0  0  0  0  0  0  0
   36.5060   28.0430   42.3580 C   0  0  0  0  0  0  0  0  0  0  0  0
   36.2840   28.8050   43.0630 H   0  0  0  0  0  0  0  0  0  0  0  0
   37.1070   26.8790   42.7810 C   0  0  0  0  0  0  0  0  0  0  0  0
   37.3560   26.7340   43.8280 H   0  0  0  0  0  0  0  0  0  0  0  0
   37.4050   25.8790   41.8940 C   0  0  0  0  0  3  0  0  0  0  0  0
   37.0800   26.0860   40.5660 C   0  0  0  0  0  3  0  0  0  0  0  0
   35.1940   28.4910   38.2940 H   0  0  0  0  0  0  0  0  0  0  0  0
   36.0830   27.4730   38.4580 S   0  0  0  0  0  0  0  0  0  0  0  0
   35.5670   26.1840   37.8350 O   0  0  0  0  0  0  0  0  0  0  0  0
   37.3280   27.8880   37.6960 O   0  0  0  0  0  0  0  0  0  0  0  0
   36.2700   30.7070   41.0570 C   0  0  0  0  0  0  0  0  0  0  0  0
   35.5080   31.5160   41.1690 H   0  0  0  0  0  0  0  0  0  0  0  0
   36.7060   30.3950   42.0010 H   0  0  0  0  0  0  0  0  0  0  0  0
   37.2510   31.1380   40.0600 C   0  0  0  0  0  0  0  0  0  0  0  0
   36.9260   31.2450   38.7150 C   0  0  0  0  0  0  0  0  0  0  0  0
   37.9300   31.6710   37.8150 C   0  0  0  0  0  0  0  0  0  0  0  0
   39.1650   31.9530   38.3360 N   0  0  0  0  0  0  0  0  0  0  0  0
   39.4350   31.8330   39.6620 C   0  0  0  0  0  0  0  0  0  0  0  0
   38.4670   31.4250   40.5100 N   0  0  0  0  0  0  0  0  0  0  0  0
   35.9610   31.0200   38.3460 H   0  0  0  0  0  0  0  0  0  0  0  0
   37.7440   31.7760   36.7490 H   0  0  0  0  0  0  0  0  0  0  0  0
   40.4240   32.0620   40.0490 H   0  0  0  0  0  0  0  0  0  0  0  0
  1  3  1  0  0  0  0
  1  5  1  0  0  0  0
  1 16  1  0  0  0  0
  2  1  1  0  0  0  0
  4 11  2  0  0  0  0
  4  5  1  0  0  0  0
  5  6  2  0  0  0  0
  6  8  1  0  0  0  0
  6  7  1  0  0  0  0
  8  9  1  0  0  0  0
 10  8  2  0  0  0  0
 11 10  1  0  0  0  0
 12 13  1  0  0  0  0
 13  4  1  0  0  0  0
 14 13  2  0  0  0  0
 15 13  2  0  0  0  0
 16 17  1  0  0  0  0
 16 18  1  0  0  0  0
 19 24  1  0  0  0  0
 19 16  1  0  0  0  0
 20 19  2  0  0  0  0
 21 22  2  0  0  0  0
 21 20  1  0  0  0  0
 22 23  1  0  0  0  0
 23 27  1  0  0  0  0
 23 24  2  0  0  0  0
 25 20  1  0  0  0  0
 26 21  1  0  0  0  0
M  END
>  <minimizedAffinity>
-4.38999987

$$$$

 OpenBabel03242518103D

 27 28  0  0  0  0  0  0  0  0999 V2000
   38.0700   28.3400   40.5920 C   0  0  0  0  0  0  0  0  0  0  0  0
   38.5800   28.6660   41.4950 H   0  0  0  0  0  0  0  0  0  0  0  0
   38.7830   28.2900   39.7180 H   0  0  0  0  0  0  0  0  0  0  0  0
   37.5560   26.4280   42.0610 C   0  0  0  0  0  0  0  0  0  0  0  0
   37.5450   26.9540   40.7850 C   0  0  0  0  0  0  0  0  0  0  0  0
   37.0470   26.1570   39.7730 C   0  0  0  0  0  0  0  0  0  0  0  0
   37.0320   26.5490   38.7870 H   0  0  0  0  0  0  0  0  0  0  0  0
   36.5750   24.8840   40.0060 C   0  0  0  0  0  0  0  0  0  0  0  0
   36.1890   24.2800   39.1910 H   0  0  0  0  0  0  0  0  0  0  0  0
   36.5810   24.3520   41.2680 C   0  0  0  0  0  3  0  0  0  0  0  0
   37.0770   25.1400   42.2900 C   0  0  0  0  0  3  0  0  0  0  0  0
   38.2090   26.6410   44.5200 H   0  0  0  0  0  0  0  0  0  0  0  0
   38.1670   27.3750   43.3750 S   0  0  0  0  0  0  0  0  0  0  0  0
   37.3610   28.6520   43.5680 O   0  0  0  0  0  0  0  0  0  0  0  0
   39.6030   27.7740   43.0900 O   0  0  0  0  0  0  0  0  0  0  0  0
   36.9280   29.2360   40.1560 C   0  0  0  0  0  0  0  0  0  0  0  0
   36.7020   28.9500   39.1010 H   0  0  0  0  0  0  0  0  0  0  0  0
   36.1100   29.0370   40.8400 H   0  0  0  0  0  0  0  0  0  0  0  0
   37.3890   30.6260   40.1640 C   0  0  0  0  0  0  0  0  0  0  0  0
   36.7980   31.5940   39.3640 C   0  0  0  0  0  0  0  0  0  0  0  0
   37.3000   32.9150   39.4310 C   0  0  0  0  0  0  0  0  0  0  0  0
   38.3410   33.1510   40.2880 N   0  0  0  0  0  0  0  0  0  0  0  0
   38.8860   32.1680   41.0520 C   0  0  0  0  0  0  0  0  0  0  0  0
   38.3970   30.9120   40.9780 N   0  0  0  0  0  0  0  0  0  0  0  0
   35.9940   31.3780   38.7120 H   0  0  0  0  0  0  0  0  0  0  0  0
   36.8850   33.7210   38.8310 H   0  0  0  0  0  0  0  0  0  0  0  0
   39.7130   32.3830   41.7240 H   0  0  0  0  0  0  0  0  0  0  0  0
  1  5  1  0  0  0  0
  1  2  1  0  0  0  0
  3  1  1  0  0  0  0
  4 11  1  0  0  0  0
  4 13  1  0  0  0  0
  5  4  2  0  0  0  0
  6  8  2  0  0  0  0
  6  5  1  0  0  0  0
  7  6  1  0  0  0  0
  8 10  1  0  0  0  0
  9  8  1  0  0  0  0
 10 11  2  0  0  0  0
 13 14  2  0  0  0  0
 13 12  1  0  0  0  0
 15 13  2  0  0  0  0
 16 19  1  0  0  0  0
 16  1  1  0  0  0  0
 16 18  1  0  0  0  0
 17 16  1  0  0  0  0
 19 24  1  0  0  0  0
 20 21  1  0  0  0  0
 20 19  2  0  0  0  0
 21 22  2  0  0  0  0
 22 23  1  0  0  0  0
 23 27  1  0  0  0  0
 24 23  2  0  0  0  0
 25 20  1  0  0  0  0
 26 21  1  0  0  0  0
M  END
>  <minimizedAffinity>
-4.36694193

$$$$
