REMARK  Name = 
REMARK  4 active torsions:
REMARK  status: ('A' for Active; 'I' for Inactive)
REMARK    1  A    between atoms: C_1  and  C_13
REMARK    2  A    between atoms: C_5  and  C_7
REMARK    3  A    between atoms: C_18  and  C_40
REMARK    4  A    between atoms: S_36  and  C_39
REMARK                            x       y       z     vdW  Elec       q    Type
REMARK                         _______ _______ _______ _____ _____    ______ ____
ROOT
ATOM      1  C   UNL     1      45.957  32.761  46.571  0.00  0.00    +0.000 C 
ATOM      2  C   UNL     1      46.115  31.381  46.089  0.00  0.00    +0.000 C 
ATOM      3  C   UNL     1      46.560  30.471  47.182  0.00  0.00    +0.000 C 
ATOM      4  C   UNL     1      46.120  30.766  48.570  0.00  0.00    +0.000 C 
ATOM      5  C   UNL     1      45.954  32.213  48.914  0.00  0.00    +0.000 C 
ATOM      6  C   UNL     1      45.192  32.893  47.789  0.00  0.00    +0.000 C 
ATOM      7  H   UNL     1      47.030  33.031  46.896  0.00  0.00    +0.000 HD
ATOM      8  H   UNL     1      47.014  31.430  45.378  0.00  0.00    +0.000 HD
ATOM      9  H   UNL     1      45.366  30.987  45.386  0.00  0.00    +0.000 HD
ATOM     10  H   UNL     1      47.656  30.266  47.160  0.00  0.00    +0.000 HD
ATOM     11  H   UNL     1      46.119  29.458  46.931  0.00  0.00    +0.000 HD
ATOM     12  H   UNL     1      46.906  30.396  49.268  0.00  0.00    +0.000 HD
ATOM     13  H   UNL     1      45.220  30.177  48.885  0.00  0.00    +0.000 HD
ATOM     14  H   UNL     1      46.895  32.726  49.147  0.00  0.00    +0.000 HD
ATOM     15  H   UNL     1      45.318  32.265  49.821  0.00  0.00    +0.000 HD
ATOM     16  H   UNL     1      45.364  33.996  48.065  0.00  0.00    +0.000 HD
ENDROOT
BRANCH   1  17
ATOM     17  C   UNL     1      45.703  33.768  45.546  0.00  0.00    +0.000 A 
ATOM     18  C   UNL     1      44.768  34.742  45.827  0.00  0.00    +0.000 A 
ATOM     19  C   UNL     1      44.532  35.719  44.836  0.00  0.00    +0.000 A 
ATOM     20  N   UNL     1      45.248  35.637  43.660  0.00  0.00    +0.000 NA
ATOM     21  C   UNL     1      46.135  34.664  43.465  0.00  0.00    +0.000 A 
ATOM     22  N   UNL     1      46.364  33.743  44.385  0.00  0.00    +0.000 NA
ATOM     23  H   UNL     1      44.164  34.928  46.653  0.00  0.00    +0.000 HD
ATOM     24  H   UNL     1      43.840  36.529  44.917  0.00  0.00    +0.000 HD
BRANCH  21  25
ATOM     25  C   UNL     1      46.861  34.630  42.185  0.00  0.00    +0.000 A 
ATOM     26  C   UNL     1      48.024  35.306  42.008  0.00  0.00    +0.000 A 
ATOM     27  C   UNL     1      48.752  35.316  40.834  0.00  0.00    +0.000 A 
ATOM     28  C   UNL     1      48.215  34.571  39.804  0.00  0.00    +0.000 A 
ATOM     29  C   UNL     1      47.036  33.876  39.961  0.00  0.00    +0.000 A 
ATOM     30  N   UNL     1      46.351  33.900  41.150  0.00  0.00    +0.000 NA
ATOM     31  H   UNL     1      48.377  35.872  42.878  0.00  0.00    +0.000 HD
ATOM     32  H   UNL     1      49.668  35.865  40.736  0.00  0.00    +0.000 HD
ATOM     33  H   UNL     1      48.723  34.524  38.846  0.00  0.00    +0.000 HD
ATOM     34  H   UNL     1      46.607  33.288  39.157  0.00  0.00    +0.000 HD
ENDBRANCH  21  25
ENDBRANCH   1  17
BRANCH   6  36
ATOM     35  C   UNL     1      43.100  31.564  47.503  0.00  0.00    +0.000 A 
ATOM     36  C   UNL     1      43.806  32.664  48.001  0.00  0.00    +0.000 A 
ATOM     37  C   UNL     1      43.002  33.494  48.748  0.00  0.00    +0.000 A 
ATOM     38  H   UNL     1      43.362  34.400  49.210  0.00  0.00    +0.000 HD
ATOM     39  C   UNL     1      41.661  33.321  49.014  0.00  0.00    +0.000 A 
ATOM     40  H   UNL     1      41.045  33.984  49.604  0.00  0.00    +0.000 HD
ATOM     41  C   UNL     1      41.024  32.214  48.495  0.00  0.00    +0.000 A 
ATOM     42  C   UNL     1      41.761  31.337  47.734  0.00  0.00    +0.000 A 
BRANCH  35  44
ATOM     43  H   UNL     1      45.007  30.800  45.878  0.00  0.00    +0.000 HD
ATOM     44  S   UNL     1      43.879  30.379  46.479  0.00  0.00    +0.000 S 
ATOM     45  O   UNL     1      44.135  29.078  47.187  0.00  0.00    +0.000 OA
ATOM     46  O   UNL     1      42.899  30.055  45.352  0.00  0.00    +0.000 OA
ENDBRANCH  35  44
ENDBRANCH   6  36
TORSDOF 4
