
 OpenBabel03242518103D

 27 28  0  0  0  0  0  0  0  0999 V2000
   44.8850   32.9770   42.2250 C   0  0  0  0  0  0  0  0  0  0  0  0
   44.1520   32.2100   41.9850 H   0  0  0  0  0  0  0  0  0  0  0  0
   44.4230   34.0060   42.1940 H   0  0  0  0  0  0  0  0  0  0  0  0
   45.3440   33.8620   44.4800 C   0  0  0  0  0  0  0  0  0  0  0  0
   45.3760   32.7800   43.6230 C   0  0  0  0  0  0  0  0  0  0  0  0
   45.8640   31.5890   44.1230 C   0  0  0  0  0  0  0  0  0  0  0  0
   45.8940   30.7500   43.4750 H   0  0  0  0  0  0  0  0  0  0  0  0
   46.3060   31.4630   45.4210 C   0  0  0  0  0  0  0  0  0  0  0  0
   46.6840   30.5120   45.7870 H   0  0  0  0  0  0  0  0  0  0  0  0
   46.2780   32.5290   46.2790 C   0  0  0  0  0  3  0  0  0  0  0  0
   45.7930   33.7280   45.7930 C   0  0  0  0  0  3  0  0  0  0  0  0
   43.5410   35.2320   43.3000 H   0  0  0  0  0  0  0  0  0  0  0  0
   44.7450   35.3870   43.9170 S   0  0  0  0  0  0  0  0  0  0  0  0
   45.7460   36.0800   43.0050 O   0  0  0  0  0  0  0  0  0  0  0  0
   44.4880   36.3000   45.1010 O   0  0  0  0  0  0  0  0  0  0  0  0
   46.0790   33.0200   41.2930 C   0  0  0  0  0  0  0  0  0  0  0  0
   46.6130   33.9730   41.5250 H   0  0  0  0  0  0  0  0  0  0  0  0
   46.6660   32.1340   41.5120 H   0  0  0  0  0  0  0  0  0  0  0  0
   45.5970   33.0910   39.9120 C   0  0  0  0  0  0  0  0  0  0  0  0
   44.2500   33.2440   39.6160 C   0  0  0  0  0  0  0  0  0  0  0  0
   43.8660   33.3070   38.2560 C   0  0  0  0  0  0  0  0  0  0  0  0
   44.8570   33.2120   37.3170 N   0  0  0  0  0  0  0  0  0  0  0  0
   46.1650   33.0630   37.6570 C   0  0  0  0  0  0  0  0  0  0  0  0
   46.5170   33.0050   38.9590 N   0  0  0  0  0  0  0  0  0  0  0  0
   43.5090   33.3140   40.3670 H   0  0  0  0  0  0  0  0  0  0  0  0
   42.8290   33.4250   37.9540 H   0  0  0  0  0  0  0  0  0  0  0  0
   46.9320   32.9900   36.8900 H   0  0  0  0  0  0  0  0  0  0  0  0
  1  5  1  0  0  0  0
  2  1  1  0  0  0  0
  3  1  1  0  0  0  0
  4 11  1  0  0  0  0
  5  6  1  0  0  0  0
  5  4  2  0  0  0  0
  6  8  2  0  0  0  0
  7  6  1  0  0  0  0
  8  9  1  0  0  0  0
  8 10  1  0  0  0  0
 11 10  2  0  0  0  0
 12 13  1  0  0  0  0
 13  4  1  0  0  0  0
 13 15  2  0  0  0  0
 14 13  2  0  0  0  0
 16 18  1  0  0  0  0
 16 17  1  0  0  0  0
 16  1  1  0  0  0  0
 19 16  1  0  0  0  0
 20 19  1  0  0  0  0
 20 25  1  0  0  0  0
 21 20  2  0  0  0  0
 22 23  2  0  0  0  0
 22 21  1  0  0  0  0
 23 24  1  0  0  0  0
 24 19  2  0  0  0  0
 26 21  1  0  0  0  0
 27 23  1  0  0  0  0
M  END
>  <minimizedAffinity>
-3.64969373

>  <minimizedRMSD>
6.41909838

$$$$
