
     RDKit          3D

 27 28  0  0  0  0  0  0  0  0999 V2000
   44.9208   35.1187   44.9422 C   0  0  0  0  0  0  0  0  0  0  0  0
   45.8105   34.7594   43.9452 C   0  0  0  0  0  0  0  0  0  0  0  0
   46.6696   33.6796   44.2073 C   0  0  0  0  0  0  0  0  0  0  0  0
   46.5908   33.0543   45.3945 N   0  0  0  0  0  0  0  0  0  0  0  0
   45.7164   33.4283   46.3399 C   0  0  0  0  0  0  0  0  0  0  0  0
   44.8796   34.4514   46.1319 N   0  0  0  0  0  0  0  0  0  0  0  0
   45.7852   35.5436   42.6867 C   0  0  0  0  0  0  0  0  0  0  0  0
   45.3398   36.8016   43.0356 F   0  0  0  0  0  0  0  0  0  0  0  0
   44.9278   34.9327   41.8123 F   0  0  0  0  0  0  0  0  0  0  0  0
   47.0845   35.5707   42.1790 F   0  0  0  0  0  0  0  0  0  0  0  0
   45.6211   32.7947   47.5735 O   0  0  0  0  0  0  0  0  0  0  0  0
   44.2323   35.9481   44.7917 H   0  0  0  0  0  0  0  0  0  0  0  0
   47.3556   33.4125   43.4215 H   0  0  0  0  0  0  0  0  0  0  0  0
   43.7101   30.1796   49.4191 H   0  0  0  0  0  0  0  0  0  0  0  0
   44.3310   30.1027   48.2190 S   0  0  0  0  0  0  0  0  0  0  0  0
   43.6521   31.0211   47.2128 O   0  0  0  0  0  0  0  0  0  0  0  0
   44.1406   28.6731   47.7231 O   0  0  0  0  0  0  0  0  0  0  0  0
   46.0329   30.4651   48.2680 C   0  0  0  0  0  0  0  0  0  0  0  0
   46.4155   31.7398   47.9380 C   0  0  0  0  0  0  0  0  0  0  0  0
   47.7898   31.9838   47.9812 C   0  0  0  0  0  0  0  0  0  0  0  0
   48.2293   32.9374   47.7466 H   0  0  0  0  0  0  0  0  0  0  0  0
   48.6905   31.0063   48.3323 C   0  0  0  0  0  0  0  0  0  0  0  0
   49.7564   31.1854   48.3686 H   0  0  0  0  0  0  0  0  0  0  0  0
   48.2906   29.7231   48.6636 C   0  0  0  0  0  0  0  0  0  0  0  0
   46.9252   29.4748   48.6222 C   0  0  0  0  0  0  0  0  0  0  0  0
   48.9157   28.9105   48.9455 H   0  0  0  0  0  0  0  0  0  0  0  0
   46.5209   28.4821   48.8707 H   0  0  0  0  0  0  0  0  0  0  0  0
  1  6  2  0
  2  3  2  0
  2  1  1  0
  3  4  1  0
  4  5  2  0
  5 11  1  0
  6  5  1  0
  7  8  1  0
  7  2  1  0
  9  7  1  0
 10  7  1  0
  1 12  1  0
  3 13  1  0
 14 15  1  0
 15 16  2  0
 15 17  2  0
 15 18  1  0
 18 19  2  0
 19 20  1  0
 20 21  1  0
 20 22  2  0
 22 23  1  0
 22 24  1  0
 24 25  2  0
 25 18  1  0
 24 26  1  0
 25 27  1  0
 11 19  1  0
M  ISO  5  12  14  13  14  14  12  21  15  23  16
M  END
>  <DihAtoms>  (1) 
4,10,18,17

>  <DihDeg>  (1) 
61.08150697736435

$$$$
