
     RDKit          3D

 45 48  0  0  0  0  0  0  0  0999 V2000
   48.0777   35.4722   41.8042 C   0  0  1  0  0  0  0  0  0  0  0  0
   49.3186   34.6948   41.6905 C   0  0  0  0  0  0  0  0  0  0  0  0
   48.4814   35.0858   40.4572 C   0  0  1  0  0  0  0  0  0  0  0  0
   46.0505   32.9352   43.7527 C   0  0  0  0  0  0  0  0  0  0  0  0
   47.1493   33.6121   43.2311 C   0  0  0  0  0  0  0  0  0  0  0  0
   46.9177   34.7229   42.3958 C   0  0  0  0  0  0  0  0  0  0  0  0
   45.6341   35.0996   42.1245 N   0  0  0  0  0  0  0  0  0  0  0  0
   44.5914   34.4071   42.6576 C   0  0  0  0  0  0  0  0  0  0  0  0
   44.7946   33.3382   43.4616 N   0  0  0  0  0  0  0  0  0  0  0  0
   47.7629   34.1397   39.8096 O   0  0  0  0  0  0  0  0  0  0  0  0
   48.5150   32.4026   37.9859 O   0  0  0  0  0  0  0  0  0  0  0  0
   48.0986   33.8537   38.2325 P   0  0  2  0  0  0  0  0  0  0  0  0
   49.3347   34.7977   37.5775 O   0  0  0  0  0  0  0  0  0  0  0  0
   46.7376   34.0709   37.2759 O   0  0  0  0  0  0  0  0  0  0  0  0
   45.7824   33.0840   37.0328 C   0  0  0  0  0  0  0  0  0  0  0  0
   45.6724   32.2846   35.9102 C   0  0  0  0  0  0  0  0  0  0  0  0
   44.6664   31.3498   35.8194 C   0  0  0  0  0  0  0  0  0  0  0  0
   43.7667   31.2054   36.8413 C   0  0  0  0  0  0  0  0  0  0  0  0
   43.9089   32.0286   37.9591 C   0  0  0  0  0  0  0  0  0  0  0  0
   44.9080   32.9450   38.0296 N   0  0  0  0  0  0  0  0  0  0  0  0
   48.1542   36.5233   42.1594 H   0  0  0  0  0  0  0  0  0  0  0  0
   50.3112   35.1702   41.8169 H   0  0  0  0  0  0  0  0  0  0  0  0
   49.3364   33.5885   41.8310 H   0  0  0  0  0  0  0  0  0  0  0  0
   49.0206   35.8089   39.8161 H   0  0  0  0  0  0  0  0  0  0  0  0
   46.1676   32.0846   44.3931 H   0  0  0  0  0  0  0  0  0  0  0  0
   48.1495   33.2905   43.4634 H   0  0  0  0  0  0  0  0  0  0  0  0
   43.6890   34.8790   42.3183 H   0  0  0  0  0  0  0  0  0  0  0  0
   49.8013   34.3359   36.8306 H   0  0  0  0  0  0  0  0  0  0  0  0
   46.4325   32.4821   35.1669 H   0  0  0  0  0  0  0  0  0  0  0  0
   44.6859   30.7912   34.9013 H   0  0  0  0  0  0  0  0  0  0  0  0
   43.0342   30.4662   36.6173 H   0  0  0  0  0  0  0  0  0  0  0  0
   42.3671   34.5373   37.4576 H   0  0  0  0  0  0  0  0  0  0  0  0
   42.0133   34.5128   38.7620 S   0  0  0  0  0  0  0  0  0  0  0  0
   42.7316   35.5670   39.5249 O   0  0  0  0  0  0  0  0  0  0  0  0
   40.5387   34.9937   38.7604 O   0  0  0  0  0  0  0  0  0  0  0  0
   42.0840   32.9331   39.4951 C   0  0  0  0  0  0  0  0  0  0  0  0
   42.9339   31.9734   39.0272 C   0  0  0  0  0  0  0  0  0  0  0  0
   42.7949   30.7644   39.6777 C   0  0  0  0  0  0  0  0  0  0  0  0
   43.4077   29.9017   39.4080 H   0  0  0  0  0  0  0  0  0  0  0  0
   41.9131   30.5135   40.6915 C   0  0  0  0  0  0  0  0  0  0  0  0
   41.8062   29.5659   41.2101 H   0  0  0  0  0  0  0  0  0  0  0  0
   41.0812   31.5032   41.1322 C   0  0  0  0  0  0  0  0  0  0  0  0
   41.1798   32.7304   40.5128 C   0  0  0  0  0  0  0  0  0  0  0  0
   40.3707   31.3486   41.9304 H   0  0  0  0  0  0  0  0  0  0  0  0
   40.5196   33.5110   40.8645 H   0  0  0  0  0  0  0  0  0  0  0  0
  1  6  1  0
  2  1  1  0
  3  2  1  0
  3  1  1  0
  5  4  2  0
  6  5  1  0
  7  6  2  0
  7  8  1  0
  8  9  2  0
  9  4  1  0
 10  3  1  0
 12 11  2  0
 12 10  1  1
 13 12  1  0
 14 12  1  0
 15 14  1  0
 15 20  1  0
 16 15  2  0
 17 16  1  0
 17 18  2  0
 18 19  1  0
 19 20  2  0
  1 21  1  6
  2 22  1  0
  2 23  1  0
  3 24  1  6
  4 25  1  0
  5 26  1  0
  8 27  1  0
 13 28  1  0
 16 29  1  0
 17 30  1  0
 18 31  1  0
 32 33  1  0
 33 34  2  0
 33 35  2  0
 33 36  1  0
 36 37  2  0
 37 38  1  0
 38 39  1  0
 38 40  2  0
 40 41  1  0
 40 42  1  0
 42 43  2  0
 43 36  1  0
 42 44  1  0
 43 45  1  0
 19 37  1  0
M  ISO  8  21  13  22  13  23  13  24  13  25  14  26  14  27  14  28   3
M  ISO  6  29  14  30  14  31  14  32  12  39  15  41  16
M  END
>  <DihAtoms>  (1) 
17,18,36,35

>  <DihDeg>  (1) 
32.71559839981056

$$$$
