
     RDKit          3D

 48 52  0  0  0  0  0  0  0  0999 V2000
   44.7931   35.9909   43.3034 Cl  0  0  0  0  0  0  0  0  0  0  0  0
   45.5384   34.7416   44.2466 C   0  0  0  0  0  0  0  0  0  0  0  0
   46.6276   34.0550   43.7581 C   0  0  0  0  0  0  0  0  0  0  0  0
   47.1492   33.0798   44.5833 C   0  0  0  0  0  0  0  0  0  0  0  0
   46.6529   32.7627   45.8384 C   0  0  0  0  0  0  0  0  0  0  0  0
   45.5685   33.4690   46.2876 C   0  0  0  0  0  0  0  0  0  0  0  0
   44.9752   33.0340   47.8814 Cl  0  0  0  0  0  0  0  0  0  0  0  0
   45.0177   34.4436   45.5064 C   0  0  0  0  0  0  0  0  0  0  0  0
   47.3501   31.6910   46.5617 C   0  0  0  0  0  0  0  0  0  0  0  0
   47.4625   30.4107   46.0915 C   0  0  0  0  0  0  0  0  0  0  0  0
   48.1165   29.4005   46.7673 C   0  0  0  0  0  0  0  0  0  0  0  0
   48.6969   29.6653   47.9823 C   0  0  0  0  0  0  0  0  0  0  0  0
   49.3269   28.6735   48.6236 N   0  0  0  0  0  0  0  0  0  0  0  0
   49.9248   28.8493   49.8237 C   0  0  0  0  0  0  0  0  0  0  0  0
   49.8525   30.1259   50.3662 C   0  0  0  0  0  0  0  0  0  0  0  0
   49.2109   31.1458   49.7185 C   0  0  0  0  0  0  0  0  0  0  0  0
   48.6090   30.9330   48.4912 C   0  0  0  0  0  0  0  0  0  0  0  0
   47.9527   31.9323   47.8053 C   0  0  0  0  0  0  0  0  0  0  0  0
   48.7776   35.4341   41.1624 C   0  0  0  0  0  0  0  0  0  0  0  0
   48.2716   34.8518   39.9912 C   0  0  0  0  0  0  0  0  0  0  0  0
   47.1756   33.9713   40.0863 C   0  0  0  0  0  0  0  0  0  0  0  0
   46.7197   33.7798   41.3350 N   0  0  0  0  0  0  0  0  0  0  0  0
   47.2020   34.3348   42.4518 C   0  0  0  0  0  0  0  0  0  0  0  0
   48.2400   35.1702   42.3716 N   0  0  0  0  0  0  0  0  0  0  0  0
   48.0130   32.5435   44.1823 H   0  0  0  0  0  0  0  0  0  0  0  0
   44.1687   34.9552   45.9261 H   0  0  0  0  0  0  0  0  0  0  0  0
   47.0003   30.2227   45.1361 H   0  0  0  0  0  0  0  0  0  0  0  0
   48.1865   28.3982   46.3659 H   0  0  0  0  0  0  0  0  0  0  0  0
   50.4134   28.0252   50.2919 H   0  0  0  0  0  0  0  0  0  0  0  0
   50.3237   30.2955   51.3286 H   0  0  0  0  0  0  0  0  0  0  0  0
   49.1685   32.1222   50.1572 H   0  0  0  0  0  0  0  0  0  0  0  0
   47.9095   32.9221   48.2497 H   0  0  0  0  0  0  0  0  0  0  0  0
   49.6220   36.1135   41.0960 H   0  0  0  0  0  0  0  0  0  0  0  0
   48.6965   35.0617   39.0440 H   0  0  0  0  0  0  0  0  0  0  0  0
   46.7986   36.5001   38.2746 H   0  0  0  0  0  0  0  0  0  0  0  0
   47.3394   35.5102   37.4741 S   0  0  0  0  0  0  0  0  0  0  0  0
   47.0349   35.9782   36.0571 O   0  0  0  0  0  0  0  0  0  0  0  0
   48.8265   35.4388   37.5545 O   0  0  0  0  0  0  0  0  0  0  0  0
   46.6150   33.9558   37.7287 C   0  0  0  0  0  0  0  0  0  0  0  0
   46.5740   33.3140   38.9361 C   0  0  0  0  0  0  0  0  0  0  0  0
   45.9737   32.0783   39.0348 C   0  0  0  0  0  0  0  0  0  0  0  0
   45.9172   31.5362   39.9614 H   0  0  0  0  0  0  0  0  0  0  0  0
   45.3970   31.4381   37.9522 C   0  0  0  0  0  0  0  0  0  0  0  0
   44.9276   30.4713   38.0313 H   0  0  0  0  0  0  0  0  0  0  0  0
   45.4247   32.0605   36.7299 C   0  0  0  0  0  0  0  0  0  0  0  0
   46.0245   33.2871   36.6484 C   0  0  0  0  0  0  0  0  0  0  0  0
   44.9845   31.5941   35.8560 H   0  0  0  0  0  0  0  0  0  0  0  0
   46.0380   33.7647   35.6779 H   0  0  0  0  0  0  0  0  0  0  0  0
  1  2  1  0
  2  8  2  0
  3  2  1  0
  3  4  2  0
  4  5  1  0
  5  6  2  0
  5  9  1  0
  6  7  1  0
  8  6  1  0
  9 18  1  0
 10  9  2  0
 10 11  1  0
 11 12  2  0
 12 17  1  0
 12 13  1  0
 13 14  2  0
 14 15  1  0
 16 15  2  0
 17 16  1  0
 18 17  2  0
 19 24  2  0
 20 21  2  0
 20 19  1  0
 21 22  1  0
 22 23  2  0
 23  3  1  0
 24 23  1  0
  4 25  1  0
  8 26  1  0
 10 27  1  0
 11 28  1  0
 14 29  1  0
 15 30  1  0
 16 31  1  0
 18 32  1  0
 19 33  1  0
 20 34  1  0
 35 36  1  0
 36 37  2  0
 36 38  2  0
 36 39  1  0
 39 40  2  0
 40 41  1  0
 41 42  1  0
 41 43  2  0
 43 44  1  0
 43 45  1  0
 45 46  2  0
 46 39  1  0
 45 47  1  0
 46 48  1  0
 21 40  1  0
M  ISO  8  25  14  26  14  27  14  28  14  29  14  30  14  31  14  32  14
M  ISO  5  33  14  34  14  35  12  42  15  44  16
M  END
>  <DihAtoms>  (1) 
19,20,39,38

>  <DihDeg>  (1) 
179.97582051685552

$$$$
