
     RDKit          3D

 41 43  0  0  0  0  0  0  0  0999 V2000
   45.1372   33.4992   41.1578 F   0  0  0  0  0  0  0  0  0  0  0  0
   46.3295   34.0818   41.0437 C   0  0  0  0  0  0  0  0  0  0  0  0
   46.8404   34.8037   42.1199 C   0  0  0  0  0  0  0  0  0  0  0  0
   48.0761   35.4408   42.0875 C   0  0  0  0  0  0  0  0  0  0  0  0
   48.8532   35.3627   40.9306 C   0  0  0  0  0  0  0  0  0  0  0  0
   48.3113   34.6358   39.8821 C   0  0  0  0  0  0  0  0  0  0  0  0
   47.1054   34.0085   39.8990 C   0  0  0  0  0  0  0  0  0  0  0  0
   45.4416   34.0225   45.4224 C   0  0  0  0  0  0  0  0  0  0  0  0
   44.6075   35.1297   45.6547 C   0  0  0  0  0  0  0  0  0  0  0  0
   44.5281   36.1436   44.6738 C   0  0  0  0  0  0  0  0  0  0  0  0
   45.2817   35.9762   43.5444 N   0  0  0  0  0  0  0  0  0  0  0  0
   46.0634   34.9122   43.3557 C   0  0  0  0  0  0  0  0  0  0  0  0
   46.1389   33.9474   44.2892 N   0  0  0  0  0  0  0  0  0  0  0  0
   45.5145   33.0110   46.4118 N   0  0  0  0  0  0  0  0  0  0  0  0
   46.6734   33.3195   38.8002 O   0  0  0  0  0  0  0  0  0  0  0  0
   48.0704   34.6633   36.9959 O   0  0  0  0  0  0  0  0  0  0  0  0
   47.3299   33.3678   37.2557 P   0  0  2  0  0  0  0  0  0  0  0  0
   46.0569   33.1894   36.1257 O   0  0  0  0  0  0  0  0  0  0  0  0
   48.3817   32.0870   36.9279 O   0  0  0  0  0  0  0  0  0  0  0  0
   48.4085   35.9898   42.9751 H   0  0  0  0  0  0  0  0  0  0  0  0
   49.7839   35.8696   40.9705 H   0  0  0  0  0  0  0  0  0  0  0  0
   49.0183   34.6528   39.0601 H   0  0  0  0  0  0  0  0  0  0  0  0
   44.0145   35.2590   46.5460 H   0  0  0  0  0  0  0  0  0  0  0  0
   43.9009   37.0136   44.8073 H   0  0  0  0  0  0  0  0  0  0  0  0
   44.7917   32.2886   46.7034 H   0  0  0  0  0  0  0  0  0  0  0  0
   46.3922   32.9224   46.9652 H   0  0  0  0  0  0  0  0  0  0  0  0
   46.1555   33.8475   35.3957 H   0  0  0  0  0  0  0  0  0  0  0  0
   49.4091   31.9933   33.7726 H   0  0  0  0  0  0  0  0  0  0  0  0
   50.0248   31.2166   34.6965 S   0  0  0  0  0  0  0  0  0  0  0  0
   50.7633   32.0611   35.7252 O   0  0  0  0  0  0  0  0  0  0  0  0
   51.0375   30.2801   34.1256 O   0  0  0  0  0  0  0  0  0  0  0  0
   48.7799   30.2820   35.5357 C   0  0  0  0  0  0  0  0  0  0  0  0
   48.0436   30.8021   36.6050 C   0  0  0  0  0  0  0  0  0  0  0  0
   47.1045   29.9721   37.1712 C   0  0  0  0  0  0  0  0  0  0  0  0
   46.5631   30.4184   37.9914 H   0  0  0  0  0  0  0  0  0  0  0  0
   46.8886   28.6916   36.7192 C   0  0  0  0  0  0  0  0  0  0  0  0
   46.1435   28.0690   37.1877 H   0  0  0  0  0  0  0  0  0  0  0  0
   47.6073   28.1599   35.6626 C   0  0  0  0  0  0  0  0  0  0  0  0
   48.5492   28.9952   35.0962 C   0  0  0  0  0  0  0  0  0  0  0  0
   47.4858   27.1715   35.2653 H   0  0  0  0  0  0  0  0  0  0  0  0
   49.1342   28.6029   34.2579 H   0  0  0  0  0  0  0  0  0  0  0  0
  2  1  1  0
  2  3  2  0
  3 12  1  0
  4  3  1  0
  5  4  2  0
  6  7  2  0
  6  5  1  0
  7  2  1  0
  8  9  2  0
  8 14  1  0
 10  9  1  0
 11 10  2  0
 12 11  1  0
 12 13  2  0
 13  8  1  0
 15  7  1  0
 16 17  2  0
 17 15  1  1
 18 17  1  0
 19 17  1  0
  4 20  1  0
  5 21  1  0
  6 22  1  0
  9 23  1  0
 10 24  1  0
 14 25  1  0
 14 26  1  0
 18 27  1  0
 28 29  1  0
 29 30  2  0
 29 31  2  0
 29 32  1  0
 32 33  2  0
 33 34  1  0
 34 35  1  0
 34 36  2  0
 36 37  1  0
 36 38  1  0
 38 39  2  0
 39 32  1  0
 38 40  1  0
 39 41  1  0
 19 33  1  0
M  ISO  8  20  14  21  14  22  14  23  14  24  14  27   3  28  12  35  15
M  ISO  1  37  16
M  END
>  <DihAtoms>  (1) 
16,18,32,31

>  <DihDeg>  (1) 
-179.9996531450353

$$$$
