
 OpenBabel03252500273D

 46 48  0  0  1  0  0  0  0  0999 V2000
   47.1060   32.9810   46.9130 O   0  0  0  0  0  0  0  0  0  0  0  0
   45.6840   32.5440   46.9220 P   0  0  1  0  0  0  0  0  0  0  0  0
   45.4450   31.3900   45.7080 O   0  0  0  0  0  0  0  0  0  0  0  0
   44.5900   31.4910   45.2390 H   0  0  0  0  0  0  0  0  0  0  0  0
   45.3930   31.8800   48.4050 O   0  0  0  0  0  0  0  0  0  0  0  0
   47.2840   30.4490   48.1480 C   0  0  2  0  0  0  0  0  0  0  0  0
   45.8410   30.5840   48.4380 C   0  0  2  0  0  0  0  0  0  0  0  0
   45.1550   29.7150   47.5020 C   0  0  0  0  0  0  0  0  0  0  0  0
   46.0530   28.7320   47.0610 O   0  0  0  0  0  0  0  0  0  0  0  0
   47.1970   28.9210   47.7540 C   0  0  0  0  0  0  0  0  0  0  0  0
   47.6540   30.7650   47.1570 H   0  0  0  0  0  0  0  0  0  0  0  0
   45.7780   30.3220   49.5330 H   0  0  0  0  0  0  0  0  0  0  0  0
   44.3530   29.9930   46.8570 H   0  0  0  0  0  0  0  0  0  0  0  0
   44.5410   29.0310   48.1920 H   0  0  0  0  0  0  0  0  0  0  0  0
   47.0760   28.4230   48.7580 H   0  0  0  0  0  0  0  0  0  0  0  0
   48.1350   28.5840   47.3240 H   0  0  0  0  0  0  0  0  0  0  0  0
   48.1430   30.5570   49.1700 O   0  0  0  0  0  0  0  0  0  0  0  0
   49.1150   31.4150   49.2810 C   0  0  0  0  0  0  0  0  0  0  0  0
   48.9490   32.4460   49.1810 H   0  0  0  0  0  0  0  0  0  0  0  0
   49.7710   31.2560   48.2670 H   0  0  0  0  0  0  0  0  0  0  0  0
   50.0590   30.9430   50.3730 C   0  0  0  0  0  0  0  0  0  0  0  0
   51.1010   31.2490   50.0820 H   0  0  0  0  0  0  0  0  0  0  0  0
   50.0850   29.8500   50.4540 H   0  0  0  0  0  0  0  0  0  0  0  0
   49.8590   31.4520   51.3370 H   0  0  0  0  0  0  0  0  0  0  0  0
   44.7660   33.9610   46.6490 O   0  0  0  0  0  0  0  0  0  0  0  0
   45.0190   36.8260   44.5160 C   0  0  0  0  0  0  0  0  0  0  0  0
   45.1100   36.2720   43.2190 C   0  0  0  0  0  0  0  0  0  0  0  0
   45.0820   34.8490   43.1090 C   0  0  0  0  0  0  0  0  0  0  0  0
   44.9710   34.1220   44.2370 N   0  0  0  0  0  0  0  0  0  0  0  0
   44.8860   34.6970   45.4530 C   0  0  0  0  0  0  0  0  0  0  0  0
   44.9120   36.0240   45.5620 N   0  0  0  0  0  0  0  0  0  0  0  0
   45.2010   36.6260   42.2160 H   0  0  0  0  0  0  0  0  0  0  0  0
   45.1400   34.2460   42.2170 H   0  0  0  0  0  0  0  0  0  0  0  0
   45.0430   38.1570   44.5870 O   0  0  0  0  0  0  0  0  0  0  0  0
   45.0100   40.2590   44.7340 C   0  0  0  0  0  0  0  0  0  0  0  0
   45.1540   39.2010   43.8140 C   0  0  0  0  0  0  0  0  0  0  0  0
   45.3440   39.6170   42.5310 C   0  0  0  0  0  0  0  0  0  0  0  0
   45.4500   38.8070   41.8540 H   0  0  0  0  0  0  0  0  0  0  0  0
   45.4070   40.9060   42.0620 C   0  0  0  0  0  0  0  0  0  0  0  0
   45.5660   41.0440   41.0060 H   0  0  0  0  0  0  0  0  0  0  0  0
   45.2600   41.8880   43.0120 C   0  0  0  0  0  3  0  0  0  0  0  0
   45.0580   41.6080   44.3670 C   0  0  0  0  0  3  0  0  0  0  0  0
   43.9760   39.1620   46.7950 H   0  0  0  0  0  0  0  0  0  0  0  0
   44.7460   40.2520   46.4920 S   0  0  0  0  0  0  0  0  0  0  0  0
   46.0710   40.1680   47.1860 O   0  0  0  0  0  0  0  0  0  0  0  0
   44.0630   41.5460   46.8390 O   0  0  0  0  0  0  0  0  0  0  0  0
  2  1  2  6  0  0  0
  2  5  1  0  0  0  0
  3  2  1  0  0  0  0
  4  3  1  0  0  0  0
  5  7  1  0  0  0  0
  6 11  1  6  0  0  0
  6  7  1  0  0  0  0
  6 17  1  0  0  0  0
  7 12  1  1  0  0  0
  8 14  1  0  0  0  0
  8  7  1  0  0  0  0
  9  8  1  0  0  0  0
  9 10  1  0  0  0  0
 10  6  1  0  0  0  0
 10 15  1  0  0  0  0
 13  8  1  0  0  0  0
 16 10  1  0  0  0  0
 17 18  1  0  0  0  0
 18 21  1  0  0  0  0
 19 18  1  0  0  0  0
 20 18  1  0  0  0  0
 21 23  1  0  0  0  0
 21 24  1  0  0  0  0
 22 21  1  0  0  0  0
 25  2  1  0  0  0  0
 26 34  1  0  0  0  0
 26 31  1  0  0  0  0
 27 26  2  0  0  0  0
 28 27  1  0  0  0  0
 28 29  2  0  0  0  0
 29 30  1  0  0  0  0
 30 31  2  0  0  0  0
 30 25  1  0  0  0  0
 32 27  1  0  0  0  0
 33 28  1  0  0  0  0
 35 44  1  0  0  0  0
 36 34  1  0  0  0  0
 36 35  2  0  0  0  0
 37 36  1  0  0  0  0
 38 37  1  0  0  0  0
 39 37  2  0  0  0  0
 39 41  1  0  0  0  0
 40 39  1  0  0  0  0
 41 42  2  0  0  0  0
 42 35  1  0  0  0  0
 44 43  1  0  0  0  0
 44 46  2  0  0  0  0
 44 45  2  0  0  0  0
M  END
>  <minimizedAffinity>
1.67952275

>  <minimizedRMSD>
1.41491592

$$$$
