
 OpenBabel03252501073D

 43 46  0  0  1  0  0  0  0  0999 V2000
   46.6650   33.6720   37.5670 O   0  0  0  0  0  0  0  0  0  0  0  0
   45.6030   32.8240   37.8840 C   0  0  0  0  0  0  0  0  0  0  0  0
   45.5760   31.4450   37.7830 C   0  0  0  0  0  0  0  0  0  0  0  0
   44.4450   30.7450   38.1370 C   0  0  0  0  0  0  0  0  0  0  0  0
   43.3390   31.4100   38.5910 C   0  0  0  0  0  0  0  0  0  0  0  0
   43.4020   32.8020   38.6800 C   0  0  0  0  0  0  0  0  0  0  0  0
   44.5270   33.4740   38.3260 N   0  0  0  0  0  0  0  0  0  0  0  0
   46.5010   31.0240   37.4150 H   0  0  0  0  0  0  0  0  0  0  0  0
   44.5470   29.6820   38.0160 H   0  0  0  0  0  0  0  0  0  0  0  0
   42.5370   30.7410   38.7990 H   0  0  0  0  0  0  0  0  0  0  0  0
   41.2320   33.2400   39.9480 C   0  0  0  0  0  0  0  0  0  0  0  0
   42.2310   33.5560   39.0730 C   0  0  0  0  0  0  0  0  0  0  0  0
   42.0850   34.8090   38.5150 C   0  0  0  0  0  0  0  0  0  0  0  0
   42.8110   35.1990   37.7980 H   0  0  0  0  0  0  0  0  0  0  0  0
   41.0600   35.6750   38.7810 C   0  0  0  0  0  0  0  0  0  0  0  0
   40.9390   36.6580   38.3390 H   0  0  0  0  0  0  0  0  0  0  0  0
   40.0790   35.3190   39.6620 C   0  0  0  0  0  0  0  0  0  0  0  0
   40.1800   34.0760   40.2480 C   0  0  0  0  0  0  0  0  0  0  0  0
   42.4950   31.2970   41.1460 H   0  0  0  0  0  0  0  0  0  0  0  0
   41.2560   31.7470   40.8460 S   0  0  0  0  0  0  0  0  0  0  0  0
   40.4310   30.6660   40.2450 O   0  0  0  0  0  0  0  0  0  0  0  0
   40.6000   31.9900   42.2300 O   0  0  0  0  0  0  0  0  0  0  0  0
   48.7290   32.4330   38.3700 O   0  0  0  0  0  0  0  0  0  0  0  0
   48.0700   33.8090   38.4740 P   0  0  1  0  0  0  0  0  0  0  0  0
   49.0990   34.8680   37.6570 O   0  0  0  0  0  0  0  0  0  0  0  0
   49.6180   34.4080   36.9440 H   0  0  0  0  0  0  0  0  0  0  0  0
   47.7340   34.2170   40.0240 O   0  0  0  0  0  0  0  0  0  0  0  0
   48.2110   35.5300   41.9980 C   0  0  1  0  0  0  0  0  0  0  0  0
   49.4220   34.7230   41.8020 C   0  0  0  0  0  0  0  0  0  0  0  0
   48.5160   35.1420   40.6260 C   0  0  1  0  0  0  0  0  0  0  0  0
   48.3360   36.5770   42.3520 H   0  0  0  0  0  0  0  0  0  0  0  0
   50.4320   35.1730   41.8650 H   0  0  0  0  0  0  0  0  0  0  0  0
   49.4200   33.6160   41.9360 H   0  0  0  0  0  0  0  0  0  0  0  0
   49.0320   35.8550   39.9550 H   0  0  0  0  0  0  0  0  0  0  0  0
   46.2470   33.0180   44.0420 C   0  0  0  0  0  0  0  0  0  0  0  0
   47.3270   33.6690   43.4520 C   0  0  0  0  0  0  0  0  0  0  0  0
   47.0730   34.8070   42.6610 C   0  0  0  0  0  0  0  0  0  0  0  0
   45.7860   35.2340   42.4960 N   0  0  0  0  0  0  0  0  0  0  0  0
   44.7630   34.5640   43.0930 C   0  0  0  0  0  0  0  0  0  0  0  0
   44.9890   33.4700   43.8570 N   0  0  0  0  0  0  0  0  0  0  0  0
   46.3820   32.1490   44.6530 H   0  0  0  0  0  0  0  0  0  0  0  0
   48.3300   33.3090   43.6000 H   0  0  0  0  0  0  0  0  0  0  0  0
   43.8550   35.0740   42.8330 H   0  0  0  0  0  0  0  0  0  0  0  0
  1  2  1  0  0  0  0
  1 24  1  0  0  0  0
  2  7  1  0  0  0  0
  3  2  2  0  0  0  0
  3  4  1  0  0  0  0
  4  5  2  0  0  0  0
  5  6  1  0  0  0  0
  5 10  1  0  0  0  0
  6 12  1  0  0  0  0
  7  6  2  0  0  0  0
  8  3  1  0  0  0  0
  9  4  1  0  0  0  0
 11 18  1  0  0  0  0
 11 20  1  0  0  0  0
 12 11  2  0  0  0  0
 13 15  2  0  0  0  0
 13 12  1  0  0  0  0
 14 13  1  0  0  0  0
 15 17  1  0  0  0  0
 16 15  1  0  0  0  0
 17 18  2  0  0  0  0
 20 19  1  0  0  0  0
 20 22  2  0  0  0  0
 21 20  2  0  0  0  0
 24 23  2  1  0  0  0
 24 27  1  0  0  0  0
 25 24  1  0  0  0  0
 26 25  1  0  0  0  0
 27 30  1  0  0  0  0
 28 31  1  1  0  0  0
 28 37  1  0  0  0  0
 29 32  1  0  0  0  0
 29 33  1  0  0  0  0
 29 28  1  0  0  0  0
 30 34  1  6  0  0  0
 30 29  1  0  0  0  0
 30 28  1  0  0  0  0
 35 41  1  0  0  0  0
 36 42  1  0  0  0  0
 36 35  2  0  0  0  0
 37 36  1  0  0  0  0
 38 37  2  0  0  0  0
 38 39  1  0  0  0  0
 39 40  2  0  0  0  0
 40 35  1  0  0  0  0
 43 39  1  0  0  0  0
M  END
>  <minimizedAffinity>
-5.79318428

>  <minimizedRMSD>
2.05070543

$$$$
