
 OpenBabel03242512593D

 38 41  0  0  0  0  0  0  0  0999 V2000
   46.3700   31.0720   41.9720 F   0  0  0  0  0  0  0  0  0  0  0  0
   47.6190   30.6040   42.2570 C   0  0  0  0  0  0  0  0  0  0  0  0
   48.1590   30.7310   43.5120 C   0  0  0  0  0  0  0  0  0  0  0  0
   49.4160   30.2340   43.7090 C   0  0  0  0  0  0  0  0  0  0  0  0
   50.1640   29.6160   42.7220 C   0  0  0  0  0  0  0  0  0  0  0  0
   49.5760   29.5190   41.4950 C   0  0  0  0  0  0  0  0  0  0  0  0
   48.3170   30.0010   41.2410 C   0  0  0  0  0  0  0  0  0  0  0  0
   49.8250   30.3450   44.7120 H   0  0  0  0  0  0  0  0  0  0  0  0
   51.1600   29.2360   42.9280 H   0  0  0  0  0  0  0  0  0  0  0  0
   50.1040   29.0470   40.6770 H   0  0  0  0  0  0  0  0  0  0  0  0
   46.3570   33.3300   45.6060 C   0  0  0  0  0  0  0  0  0  0  0  0
   47.1340   32.7510   44.5960 C   0  0  0  0  0  0  0  0  0  0  0  0
   47.3550   31.3860   44.5450 C   0  0  0  0  0  0  0  0  0  0  0  0
   46.7600   30.6600   45.5470 N   0  0  0  0  0  0  0  0  0  0  0  0
   46.0150   31.2340   46.5100 C   0  0  0  0  0  0  0  0  0  0  0  0
   45.8130   32.5520   46.5430 N   0  0  0  0  0  0  0  0  0  0  0  0
   46.2090   34.4020   45.6100 H   0  0  0  0  0  0  0  0  0  0  0  0
   47.6000   33.3420   43.8080 H   0  0  0  0  0  0  0  0  0  0  0  0
   45.6280   30.4990   47.2130 H   0  0  0  0  0  0  0  0  0  0  0  0
   47.7080   29.8840   39.9160 C   0  0  0  0  0  0  0  0  0  0  0  0
   47.0080   28.7950   39.4210 C   0  0  0  0  0  0  0  0  0  0  0  0
   46.6030   29.1070   38.1190 C   0  0  0  0  0  0  0  0  0  0  0  0
   47.0620   30.3380   37.8850 N   0  0  0  0  0  0  0  0  0  0  0  0
   47.7200   30.8170   38.9370 N   0  0  0  0  0  0  0  0  0  0  0  0
   46.8580   27.9050   40.0240 H   0  0  0  0  0  0  0  0  0  0  0  0
   46.0440   28.3930   37.5560 H   0  0  0  0  0  0  0  0  0  0  0  0
   45.6950   31.6960   36.2660 C   0  0  0  0  0  0  0  0  0  0  0  0
   46.8010   30.9350   36.6190 C   0  0  0  0  0  0  0  0  0  0  0  0
   47.7800   30.7120   35.6540 C   0  0  0  0  0  0  0  0  0  0  0  0
   48.6840   30.1180   35.8580 H   0  0  0  0  0  0  0  0  0  0  0  0
   47.6750   31.2270   34.3630 C   0  0  0  0  0  0  0  0  0  0  0  0
   48.4640   31.0360   33.6210 H   0  0  0  0  0  0  0  0  0  0  0  0
   46.5530   31.9900   34.0320 C   0  0  0  0  0  3  0  0  0  0  0  0
   45.5880   32.2080   34.9900 C   0  0  0  0  0  3  0  0  0  0  0  0
   44.9280   31.3890   38.7200 H   0  0  0  0  0  0  0  0  0  0  0  0
   44.5060   31.9370   37.5240 S   0  0  0  0  0  0  0  0  0  0  0  0
   43.1540   31.4170   37.1150 O   0  0  0  0  0  0  0  0  0  0  0  0
   44.4120   33.4290   37.7460 O   0  0  0  0  0  0  0  0  0  0  0  0
  1  2  1  0  0  0  0
  2  3  1  0  0  0  0
  3  4  2  0  0  0  0
  3 13  1  0  0  0  0
  4  8  1  0  0  0  0
  5  9  1  0  0  0  0
  5  4  1  0  0  0  0
  6  5  2  0  0  0  0
  7  6  1  0  0  0  0
  7  2  2  0  0  0  0
 10  6  1  0  0  0  0
 11 17  1  0  0  0  0
 11 16  1  0  0  0  0
 12 11  2  0  0  0  0
 13 12  1  0  0  0  0
 13 14  2  0  0  0  0
 14 15  1  0  0  0  0
 15 16  2  0  0  0  0
 15 19  1  0  0  0  0
 18 12  1  0  0  0  0
 20  7  1  0  0  0  0
 21 20  1  0  0  0  0
 21 25  1  0  0  0  0
 22 21  2  0  0  0  0
 23 22  1  0  0  0  0
 23 24  1  0  0  0  0
 24 20  2  0  0  0  0
 26 22  1  0  0  0  0
 27 28  1  0  0  0  0
 27 36  1  0  0  0  0
 28 23  1  0  0  0  0
 29 30  1  0  0  0  0
 29 28  2  0  0  0  0
 31 29  1  0  0  0  0
 32 31  1  0  0  0  0
 33 31  2  0  0  0  0
 33 34  1  0  0  0  0
 34 27  2  0  0  0  0
 36 38  2  0  0  0  0
 36 35  1  0  0  0  0
 37 36  2  0  0  0  0
M  END
>  <minimizedAffinity>
-3.33254933

>  <minimizedRMSD>
4.034235

$$$$
