
 OpenBabel03252506123D

 39 41  0  0  0  0  0  0  0  0999 V2000
   45.0830   33.5760   41.1380 F   0  0  0  0  0  0  0  0  0  0  0  0
   46.2910   34.1290   41.0340 C   0  0  0  0  0  0  0  0  0  0  0  0
   46.8220   34.8130   42.1240 C   0  0  0  0  0  0  0  0  0  0  0  0
   48.0750   35.4170   42.1020 C   0  0  0  0  0  0  0  0  0  0  0  0
   48.8480   35.3430   40.9430 C   0  0  0  0  0  0  0  0  0  0  0  0
   48.2850   34.6530   39.8800 C   0  0  0  0  0  0  0  0  0  0  0  0
   47.0620   34.0580   39.8860 C   0  0  0  0  0  0  0  0  0  0  0  0
   48.4230   35.9380   43.0010 H   0  0  0  0  0  0  0  0  0  0  0  0
   49.7920   35.8240   40.9920 H   0  0  0  0  0  0  0  0  0  0  0  0
   48.9900   34.6690   39.0570 H   0  0  0  0  0  0  0  0  0  0  0  0
   45.4460   34.0240   45.4330 C   0  0  0  0  0  0  0  0  0  0  0  0
   44.6040   35.1240   45.6700 C   0  0  0  0  0  0  0  0  0  0  0  0
   44.5120   36.1370   44.6880 C   0  0  0  0  0  0  0  0  0  0  0  0
   45.2610   35.9740   43.5550 N   0  0  0  0  0  0  0  0  0  0  0  0
   46.0500   34.9160   43.3640 C   0  0  0  0  0  0  0  0  0  0  0  0
   46.1380   33.9530   44.2970 N   0  0  0  0  0  0  0  0  0  0  0  0
   44.0140   35.2490   46.5630 H   0  0  0  0  0  0  0  0  0  0  0  0
   43.8780   37.0020   44.8240 H   0  0  0  0  0  0  0  0  0  0  0  0
   45.5310   33.0130   46.4240 N   0  0  0  0  0  0  0  0  0  0  0  0
   44.8160   32.2860   46.7190 H   0  0  0  0  0  0  0  0  0  0  0  0
   46.4120   32.9320   46.9730 H   0  0  0  0  0  0  0  0  0  0  0  0
   46.6100   33.4040   38.7740 O   0  0  0  0  0  0  0  0  0  0  0  0
   48.1520   34.5980   36.9820 O   0  0  0  0  0  0  0  0  0  0  0  0
   47.3490   33.3470   37.2670 P   0  0  2  0  0  0  0  0  0  0  0  0
   46.1310   33.1550   36.0800 O   0  0  0  0  0  0  0  0  0  0  0  0
   46.2940   33.7690   35.3240 H   0  0  0  0  0  0  0  0  0  0  0  0
   48.3640   32.0120   37.0630 O   0  0  0  0  0  0  0  0  0  0  0  0
   49.7870   30.6490   38.2770 C   0  0  0  0  0  0  0  0  0  0  0  0
   48.4740   30.9230   37.8840 C   0  0  0  0  0  0  0  0  0  0  0  0
   47.4960   30.0830   38.3640 C   0  0  0  0  0  0  0  0  0  0  0  0
   46.5000   30.3360   38.0330 H   0  0  0  0  0  0  0  0  0  0  0  0
   47.7810   29.0220   39.1900 C   0  0  0  0  0  0  0  0  0  0  0  0
   46.9880   28.3840   39.5470 H   0  0  0  0  0  0  0  0  0  0  0  0
   49.0750   28.7350   39.5900 C   0  0  0  0  0  3  0  0  0  0  0  0
   50.0540   29.5800   39.1060 C   0  0  0  0  0  3  0  0  0  0  0  0
   50.7080   32.8860   37.5160 H   0  0  0  0  0  0  0  0  0  0  0  0
   51.1610   31.6310   37.7500 S   0  0  0  0  0  0  0  0  0  0  0  0
   52.2090   31.6190   38.8540 O   0  0  0  0  0  0  0  0  0  0  0  0
   51.7980   30.9830   36.5660 O   0  0  0  0  0  0  0  0  0  0  0  0
  2  1  1  0  0  0  0
  2  3  1  0  0  0  0
  3 15  1  0  0  0  0
  4  3  2  0  0  0  0
  4  8  1  0  0  0  0
  5  9  1  0  0  0  0
  5  4  1  0  0  0  0
  6  7  1  0  0  0  0
  6  5  2  0  0  0  0
  7  2  2  0  0  0  0
 10  6  1  0  0  0  0
 11 12  1  0  0  0  0
 11 19  1  0  0  0  0
 12 17  1  0  0  0  0
 13 18  1  0  0  0  0
 13 12  2  0  0  0  0
 14 13  1  0  0  0  0
 15 14  2  0  0  0  0
 15 16  1  0  0  0  0
 16 11  2  0  0  0  0
 19 20  1  0  0  0  0
 19 21  1  0  0  0  0
 22  7  1  0  0  0  0
 24 23  2  6  0  0  0
 24 22  1  0  0  0  0
 25 24  1  0  0  0  0
 26 25  1  0  0  0  0
 27 24  1  0  0  0  0
 27 29  1  0  0  0  0
 28 35  1  0  0  0  0
 29 28  2  0  0  0  0
 29 30  1  0  0  0  0
 30 32  2  0  0  0  0
 31 30  1  0  0  0  0
 32 33  1  0  0  0  0
 32 34  1  0  0  0  0
 35 34  2  0  0  0  0
 36 37  1  0  0  0  0
 37 28  1  0  0  0  0
 37 38  2  0  0  0  0
 39 37  2  0  0  0  0
M  END
>  <minimizedAffinity>
-5.98368788

>  <minimizedRMSD>
1.61479104

$$$$
