REMARK  Name = 
REMARK  4 active torsions:
REMARK  status: ('A' for Active; 'I' for Inactive)
REMARK    1  A    between atoms: C_1  and  C_15
REMARK    2  A    between atoms: C_12  and  N_17
REMARK    3  A    between atoms: C_13  and  C_31
REMARK    4  A    between atoms: S_27  and  C_30
REMARK                            x       y       z     vdW  Elec       q    Type
REMARK                         _______ _______ _______ _____ _____    ______ ____
ROOT
ATOM      1  C   UNL     1      47.672  32.284  48.192  0.00  0.00    +0.000 A 
ATOM      2  C   UNL     1      47.264  30.947  48.275  0.00  0.00    +0.000 A 
ATOM      3  C   UNL     1      46.356  30.511  47.353  0.00  0.00    +0.000 A 
ATOM      4  N   UNL     1      45.917  31.386  46.435  0.00  0.00    +0.000 NA
ATOM      5  C   UNL     1      46.293  32.648  46.346  0.00  0.00    +0.000 A 
ATOM      6  N   UNL     1      47.174  33.065  47.242  0.00  0.00    +0.000 NA
ATOM      7  H   UNL     1      48.406  32.642  48.934  0.00  0.00    +0.000 HD
ENDROOT
BRANCH   5   8
ATOM      8  C   UNL     1      45.907  33.710  45.413  0.00  0.00    +0.000 A 
ATOM      9  N   UNL     1      44.924  34.620  45.663  0.00  0.00    +0.000 NA
ATOM     10  C   UNL     1      44.540  35.597  44.856  0.00  0.00    +0.000 A 
ATOM     11  N   UNL     1      45.155  35.743  43.660  0.00  0.00    +0.000 NA
ATOM     12  C   UNL     1      46.144  34.908  43.294  0.00  0.00    +0.000 A 
ATOM     13  C   UNL     1      46.766  35.070  42.064  0.00  0.00    +0.000 A 
ATOM     14  C   UNL     1      47.775  34.226  41.675  0.00  0.00    +0.000 A 
ATOM     15  C   UNL     1      48.141  33.226  42.545  0.00  0.00    +0.000 A 
ATOM     16  C   UNL     1      47.491  33.106  43.758  0.00  0.00    +0.000 A 
ATOM     17  C   UNL     1      46.482  33.920  44.189  0.00  0.00    +0.000 A 
ATOM     18  H   UNL     1      43.746  36.278  45.136  0.00  0.00    +0.000 HD
ATOM     19  H   UNL     1      46.403  35.892  41.447  0.00  0.00    +0.000 HD
ATOM     20  H   UNL     1      48.197  34.432  40.701  0.00  0.00    +0.000 HD
ATOM     21  H   UNL     1      48.935  32.575  42.221  0.00  0.00    +0.000 HD
ATOM     22  H   UNL     1      47.828  32.289  44.407  0.00  0.00    +0.000 HD
ENDBRANCH   5   8
BRANCH   3  24
ATOM     23  C   UNL     1      45.114  28.672  48.384  0.00  0.00    +0.000 A 
ATOM     24  C   UNL     1      45.822  29.167  47.283  0.00  0.00    +0.000 A 
ATOM     25  C   UNL     1      45.933  28.288  46.236  0.00  0.00    +0.000 A 
ATOM     26  H   UNL     1      46.462  28.590  45.355  0.00  0.00    +0.000 HD
ATOM     27  C   UNL     1      45.438  27.009  46.152  0.00  0.00    +0.000 A 
ATOM     28  H   UNL     1      45.567  26.377  45.293  0.00  0.00    +0.000 HD
ATOM     29  C   UNL     1      44.741  26.521  47.235  0.00  0.00    +0.000 A 
ATOM     30  C   UNL     1      44.602  27.367  48.312  0.00  0.00    +0.000 A 
BRANCH  23  32
ATOM     31  H   UNL     1      44.151  30.765  49.614  0.00  0.00    +0.000 HD
ATOM     32  S   UNL     1      44.825  29.578  49.840  0.00  0.00    +0.000 S 
ATOM     33  O   UNL     1      46.040  29.752  50.694  0.00  0.00    +0.000 OA
ATOM     34  O   UNL     1      43.852  28.775  50.697  0.00  0.00    +0.000 OA
ENDBRANCH  23  32
ENDBRANCH   3  24
BRANCH   2  35
ATOM     35  N   UNL     1      47.816  30.152  49.295  0.00  0.00    +0.000 N 
ATOM     36  H   UNL     1      47.096  30.351  50.053  0.00  0.00    +0.000 HD
ATOM     37  H   UNL     1      48.655  29.781  48.757  0.00  0.00    +0.000 HD
ENDBRANCH   2  35
TORSDOF 4
