
 OpenBabel03242517493D

 46 49  0  0  0  0  0  0  0  0999 V2000
   36.8700   28.1860   42.3630 C   0  0  0  0  0  0  0  0  0  0  0  0
   37.3890   29.4200   41.9600 C   0  0  0  0  0  0  0  0  0  0  0  0
   38.7210   29.6770   42.2540 C   0  0  0  0  0  0  0  0  0  0  0  0
   39.4380   28.7350   42.9050 N   0  0  0  0  0  0  0  0  0  0  0  0
   38.8910   27.5430   43.2800 C   0  0  0  0  0  0  0  0  0  0  0  0
   37.6230   27.2530   43.0210 N   0  0  0  0  0  0  0  0  0  0  0  0
   35.8450   27.9630   42.1480 H   0  0  0  0  0  0  0  0  0  0  0  0
   39.1610   30.6140   41.9630 H   0  0  0  0  0  0  0  0  0  0  0  0
   39.7830   26.5870   43.9880 C   0  0  0  0  0  0  0  0  0  0  0  0
   39.4000   26.5840   45.0520 H   0  0  0  0  0  0  0  0  0  0  0  0
   40.8070   26.9440   44.0630 H   0  0  0  0  0  0  0  0  0  0  0  0
   39.6610   25.1880   43.3920 C   0  0  0  0  0  0  0  0  0  0  0  0
   40.2920   24.5450   44.0690 H   0  0  0  0  0  0  0  0  0  0  0  0
   38.6630   24.7630   43.4750 H   0  0  0  0  0  0  0  0  0  0  0  0
   39.4820   24.5830   41.0850 C   0  0  0  0  0  0  0  0  0  0  0  0
   40.2980   25.1010   42.0670 C   0  0  0  0  0  0  0  0  0  0  0  0
   41.5900   25.4940   41.7730 C   0  0  0  0  0  0  0  0  0  0  0  0
   42.1520   25.8900   42.6250 H   0  0  0  0  0  0  0  0  0  0  0  0
   42.1400   25.3980   40.5090 C   0  0  0  0  0  0  0  0  0  0  0  0
   43.1560   25.7200   40.3370 H   0  0  0  0  0  0  0  0  0  0  0  0
   41.3270   24.8780   39.5150 C   0  0  0  0  0  3  0  0  0  0  0  0
   40.0470   24.4890   39.8070 C   0  0  0  0  0  3  0  0  0  0  0  0
   37.5630   23.9050   42.5400 H   0  0  0  0  0  0  0  0  0  0  0  0
   37.8580   24.0190   41.1820 S   0  0  0  0  0  0  0  0  0  0  0  0
   36.8240   24.9250   40.6360 O   0  0  0  0  0  0  0  0  0  0  0  0
   37.6980   22.6010   40.6620 O   0  0  0  0  0  0  0  0  0  0  0  0
   36.3890   30.6000   41.1110 S   0  0  0  0  0  0  0  0  0  0  0  0
   36.4490   30.3060   39.3610 C   0  0  0  0  0  0  0  0  0  0  0  0
   35.7050   29.3190   38.7300 C   0  0  0  0  0  0  0  0  0  0  0  0
   35.8040   29.1460   37.3430 C   0  0  0  0  0  0  0  0  0  0  0  0
   36.6340   29.9440   36.5920 C   0  0  0  0  0  0  0  0  0  0  0  0
   37.3630   30.9160   37.2370 C   0  0  0  0  0  0  0  0  0  0  0  0
   37.2880   31.1130   38.6050 C   0  0  0  0  0  0  0  0  0  0  0  0
   35.0510   28.6940   39.3310 H   0  0  0  0  0  0  0  0  0  0  0  0
   35.2130   28.3700   36.8720 H   0  0  0  0  0  0  0  0  0  0  0  0
   36.7000   29.7970   35.5220 H   0  0  0  0  0  0  0  0  0  0  0  0
   38.0400   31.5810   36.6930 H   0  0  0  0  0  0  0  0  0  0  0  0
   38.0690   32.1460   39.2550 C   0  0  0  0  0  0  0  0  0  0  0  0
   37.6070   33.3820   39.5830 C   0  0  0  0  0  0  0  0  0  0  0  0
   38.3760   34.3660   40.2080 C   0  0  0  0  0  0  0  0  0  0  0  0
   39.6570   34.0600   40.5010 N   0  0  0  0  0  0  0  0  0  0  0  0
   40.1270   32.8400   40.1810 C   0  0  0  0  0  0  0  0  0  0  0  0
   39.3670   31.9100   39.5800 N   0  0  0  0  0  0  0  0  0  0  0  0
   36.5730   33.6430   39.3520 H   0  0  0  0  0  0  0  0  0  0  0  0
   37.9510   35.3310   40.4450 H   0  0  0  0  0  0  0  0  0  0  0  0
   41.1670   32.6360   40.4360 H   0  0  0  0  0  0  0  0  0  0  0  0
  1  6  1  0  0  0  0
  2  3  1  0  0  0  0
  2  1  2  0  0  0  0
  3  4  2  0  0  0  0
  4  5  1  0  0  0  0
  5  9  1  0  0  0  0
  6  5  2  0  0  0  0
  7  1  1  0  0  0  0
  8  3  1  0  0  0  0
  9 11  1  0  0  0  0
  9 10  1  0  0  0  0
 12 14  1  0  0  0  0
 12  9  1  0  0  0  0
 12 13  1  0  0  0  0
 15 24  1  0  0  0  0
 15 16  1  0  0  0  0
 16 12  1  0  0  0  0
 17 16  2  0  0  0  0
 17 18  1  0  0  0  0
 19 17  1  0  0  0  0
 20 19  1  0  0  0  0
 21 22  1  0  0  0  0
 21 19  2  0  0  0  0
 22 15  2  0  0  0  0
 24 23  1  0  0  0  0
 25 24  2  0  0  0  0
 26 24  2  0  0  0  0
 27  2  1  0  0  0  0
 28 27  1  0  0  0  0
 29 34  1  0  0  0  0
 29 28  1  0  0  0  0
 30 29  2  0  0  0  0
 31 32  2  0  0  0  0
 31 30  1  0  0  0  0
 32 33  1  0  0  0  0
 33 38  1  0  0  0  0
 33 28  2  0  0  0  0
 35 30  1  0  0  0  0
 36 31  1  0  0  0  0
 37 32  1  0  0  0  0
 38 43  2  0  0  0  0
 38 39  1  0  0  0  0
 39 40  2  0  0  0  0
 40 45  1  0  0  0  0
 40 41  1  0  0  0  0
 42 46  1  0  0  0  0
 42 41  2  0  0  0  0
 43 42  1  0  0  0  0
 44 39  1  0  0  0  0
M  END
>  <minimizedAffinity>
-6.5049572

$$$$

 OpenBabel03242517493D

 46 49  0  0  0  0  0  0  0  0999 V2000
   35.3610   28.6530   38.8720 C   0  0  0  0  0  0  0  0  0  0  0  0
   36.6230   28.6020   38.2730 C   0  0  0  0  0  0  0  0  0  0  0  0
   36.6760   28.7200   36.8910 C   0  0  0  0  0  0  0  0  0  0  0  0
   35.5230   28.8770   36.2050 N   0  0  0  0  0  0  0  0  0  0  0  0
   34.3120   28.9220   36.8310 C   0  0  0  0  0  0  0  0  0  0  0  0
   34.2110   28.8140   38.1500 N   0  0  0  0  0  0  0  0  0  0  0  0
   35.2920   28.5650   39.9370 H   0  0  0  0  0  0  0  0  0  0  0  0
   37.6260   28.6850   36.3880 H   0  0  0  0  0  0  0  0  0  0  0  0
   33.1140   29.1020   35.9670 C   0  0  0  0  0  0  0  0  0  0  0  0
   32.8790   28.0600   35.5980 H   0  0  0  0  0  0  0  0  0  0  0  0
   33.3270   29.6750   35.0680 H   0  0  0  0  0  0  0  0  0  0  0  0
   31.9380   29.6390   36.7760 C   0  0  0  0  0  0  0  0  0  0  0  0
   31.2450   28.7560   36.8740 H   0  0  0  0  0  0  0  0  0  0  0  0
   32.1920   29.8940   37.8020 H   0  0  0  0  0  0  0  0  0  0  0  0
   30.0990   31.1690   36.7140 C   0  0  0  0  0  0  0  0  0  0  0  0
   31.1740   30.6500   36.0250 C   0  0  0  0  0  0  0  0  0  0  0  0
   31.4650   31.0860   34.7460 C   0  0  0  0  0  0  0  0  0  0  0  0
   32.3380   30.6090   34.2880 H   0  0  0  0  0  0  0  0  0  0  0  0
   30.7200   32.0440   34.0860 C   0  0  0  0  0  0  0  0  0  0  0  0
   30.9930   32.3460   33.0860 H   0  0  0  0  0  0  0  0  0  0  0  0
   29.6380   32.5710   34.7710 C   0  0  0  0  0  3  0  0  0  0  0  0
   29.3500   32.1390   36.0380 C   0  0  0  0  0  3  0  0  0  0  0  0
   30.6480   30.6710   39.1040 H   0  0  0  0  0  0  0  0  0  0  0  0
   29.5200   30.8030   38.2930 S   0  0  0  0  0  0  0  0  0  0  0  0
   28.6990   31.8500   38.9410 O   0  0  0  0  0  0  0  0  0  0  0  0
   28.8610   29.4370   38.3750 O   0  0  0  0  0  0  0  0  0  0  0  0
   38.0860   28.3950   39.2370 S   0  0  0  0  0  0  0  0  0  0  0  0
   37.6610   28.0660   40.9300 C   0  0  0  0  0  0  0  0  0  0  0  0
   37.3310   26.8020   41.3980 C   0  0  0  0  0  0  0  0  0  0  0  0
   37.0070   26.6190   42.7490 C   0  0  0  0  0  0  0  0  0  0  0  0
   37.0090   27.6790   43.6240 C   0  0  0  0  0  0  0  0  0  0  0  0
   37.3390   28.9230   43.1390 C   0  0  0  0  0  0  0  0  0  0  0  0
   37.6640   29.1390   41.8100 C   0  0  0  0  0  0  0  0  0  0  0  0
   37.3320   25.9700   40.7000 H   0  0  0  0  0  0  0  0  0  0  0  0
   36.7530   25.6240   43.0920 H   0  0  0  0  0  0  0  0  0  0  0  0
   36.7560   27.5210   44.6640 H   0  0  0  0  0  0  0  0  0  0  0  0
   37.3580   29.8050   43.7860 H   0  0  0  0  0  0  0  0  0  0  0  0
   38.0080   30.4620   41.3310 C   0  0  0  0  0  0  0  0  0  0  0  0
   37.1400   31.3280   40.7420 C   0  0  0  0  0  0  0  0  0  0  0  0
   37.4920   32.6000   40.2850 C   0  0  0  0  0  0  0  0  0  0  0  0
   38.7760   32.9840   40.4410 N   0  0  0  0  0  0  0  0  0  0  0  0
   39.6450   32.1350   41.0220 C   0  0  0  0  0  0  0  0  0  0  0  0
   39.2830   30.9160   41.4550 N   0  0  0  0  0  0  0  0  0  0  0  0
   36.0990   31.0300   40.6090 H   0  0  0  0  0  0  0  0  0  0  0  0
   36.7550   33.2440   39.8250 H   0  0  0  0  0  0  0  0  0  0  0  0
   40.6710   32.4870   41.1280 H   0  0  0  0  0  0  0  0  0  0  0  0
  1  7  1  0  0  0  0
  2  1  1  0  0  0  0
  2 27  1  0  0  0  0
  3  2  2  0  0  0  0
  4  5  2  0  0  0  0
  4  3  1  0  0  0  0
  5  6  1  0  0  0  0
  6  1  2  0  0  0  0
  8  3  1  0  0  0  0
  9 12  1  0  0  0  0
  9  5  1  0  0  0  0
 10  9  1  0  0  0  0
 11  9  1  0  0  0  0
 12 13  1  0  0  0  0
 12 14  1  0  0  0  0
 15 24  1  0  0  0  0
 16 15  2  0  0  0  0
 16 12  1  0  0  0  0
 17 16  1  0  0  0  0
 18 17  1  0  0  0  0
 19 17  2  0  0  0  0
 19 21  1  0  0  0  0
 20 19  1  0  0  0  0
 21 22  2  0  0  0  0
 22 15  1  0  0  0  0
 24 26  2  0  0  0  0
 24 25  2  0  0  0  0
 24 23  1  0  0  0  0
 27 28  1  0  0  0  0
 28 29  2  0  0  0  0
 28 33  1  0  0  0  0
 29 30  1  0  0  0  0
 30 35  1  0  0  0  0
 30 31  2  0  0  0  0
 31 36  1  0  0  0  0
 32 31  1  0  0  0  0
 32 37  1  0  0  0  0
 33 32  2  0  0  0  0
 34 29  1  0  0  0  0
 38 43  1  0  0  0  0
 38 33  1  0  0  0  0
 39 38  2  0  0  0  0
 40 41  2  0  0  0  0
 40 39  1  0  0  0  0
 41 42  1  0  0  0  0
 42 46  1  0  0  0  0
 42 43  2  0  0  0  0
 44 39  1  0  0  0  0
 45 40  1  0  0  0  0
M  END
>  <minimizedAffinity>
-6.4981575

$$$$

 OpenBabel03242517493D

 46 49  0  0  0  0  0  0  0  0999 V2000
   39.1560   31.0300   41.5000 C   0  0  0  0  0  0  0  0  0  0  0  0
   38.2550   31.1350   40.4360 C   0  0  0  0  0  0  0  0  0  0  0  0
   37.0890   30.3850   40.5140 C   0  0  0  0  0  0  0  0  0  0  0  0
   36.8870   29.6050   41.5970 N   0  0  0  0  0  0  0  0  0  0  0  0
   37.7930   29.5320   42.6130 C   0  0  0  0  0  0  0  0  0  0  0  0
   38.9210   30.2300   42.5840 N   0  0  0  0  0  0  0  0  0  0  0  0
   40.0620   31.5980   41.4650 H   0  0  0  0  0  0  0  0  0  0  0  0
   36.3690   30.4360   39.7160 H   0  0  0  0  0  0  0  0  0  0  0  0
   37.4550   28.6390   43.7540 C   0  0  0  0  0  0  0  0  0  0  0  0
   36.5020   29.0760   44.1760 H   0  0  0  0  0  0  0  0  0  0  0  0
   38.1750   28.7040   44.5660 H   0  0  0  0  0  0  0  0  0  0  0  0
   37.1990   27.2150   43.2700 C   0  0  0  0  0  0  0  0  0  0  0  0
   36.6730   26.7220   44.1360 H   0  0  0  0  0  0  0  0  0  0  0  0
   36.4850   27.1530   42.4520 H   0  0  0  0  0  0  0  0  0  0  0  0
   38.4510   25.6050   42.0200 C   0  0  0  0  0  0  0  0  0  0  0  0
   38.4540   26.4620   43.0980 C   0  0  0  0  0  0  0  0  0  0  0  0
   39.5690   26.5700   43.9080 C   0  0  0  0  0  0  0  0  0  0  0  0
   39.4660   27.2780   44.7370 H   0  0  0  0  0  0  0  0  0  0  0  0
   40.7270   25.8450   43.7000 C   0  0  0  0  0  0  0  0  0  0  0  0
   41.5680   25.9680   44.3650 H   0  0  0  0  0  0  0  0  0  0  0  0
   40.7330   24.9800   42.6180 C   0  0  0  0  0  3  0  0  0  0  0  0
   39.6280   24.8740   41.8160 C   0  0  0  0  0  3  0  0  0  0  0  0
   36.2450   26.2720   41.0440 H   0  0  0  0  0  0  0  0  0  0  0  0
   37.2100   25.2800   40.8710 S   0  0  0  0  0  0  0  0  0  0  0  0
   37.6050   25.3690   39.4480 O   0  0  0  0  0  0  0  0  0  0  0  0
   36.4580   23.9940   41.1690 O   0  0  0  0  0  0  0  0  0  0  0  0
   38.5890   32.1790   39.0540 S   0  0  0  0  0  0  0  0  0  0  0  0
   39.4750   33.6250   39.5810 C   0  0  0  0  0  0  0  0  0  0  0  0
   38.8650   34.7050   40.2050 C   0  0  0  0  0  0  0  0  0  0  0  0
   39.6300   35.8130   40.5940 C   0  0  0  0  0  0  0  0  0  0  0  0
   40.9840   35.8480   40.3640 C   0  0  0  0  0  0  0  0  0  0  0  0
   41.5690   34.7680   39.7450 C   0  0  0  0  0  0  0  0  0  0  0  0
   40.8430   33.6580   39.3480 C   0  0  0  0  0  0  0  0  0  0  0  0
   37.7940   34.6680   40.3830 H   0  0  0  0  0  0  0  0  0  0  0  0
   39.1320   36.6430   41.0790 H   0  0  0  0  0  0  0  0  0  0  0  0
   41.5610   36.7120   40.6700 H   0  0  0  0  0  0  0  0  0  0  0  0
   42.6420   34.7380   39.5360 H   0  0  0  0  0  0  0  0  0  0  0  0
   41.4890   32.5360   38.6990 C   0  0  0  0  0  0  0  0  0  0  0  0
   41.6400   32.3940   37.3550 C   0  0  0  0  0  0  0  0  0  0  0  0
   42.2650   31.3030   36.7480 C   0  0  0  0  0  0  0  0  0  0  0  0
   42.7450   30.3330   37.5540 N   0  0  0  0  0  0  0  0  0  0  0  0
   42.6010   30.4610   38.8870 C   0  0  0  0  0  0  0  0  0  0  0  0
   41.9960   31.5210   39.4480 N   0  0  0  0  0  0  0  0  0  0  0  0
   41.2570   33.1700   36.6920 H   0  0  0  0  0  0  0  0  0  0  0  0
   42.3560   31.2480   35.6720 H   0  0  0  0  0  0  0  0  0  0  0  0
   43.0030   29.6550   39.4990 H   0  0  0  0  0  0  0  0  0  0  0  0
  1  6  1  0  0  0  0
  2  3  1  0  0  0  0
  2  1  2  0  0  0  0
  3  4  2  0  0  0  0
  4  5  1  0  0  0  0
  5  9  1  0  0  0  0
  6  5  2  0  0  0  0
  7  1  1  0  0  0  0
  8  3  1  0  0  0  0
  9 10  1  0  0  0  0
  9 11  1  0  0  0  0
 12  9  1  0  0  0  0
 12 13  1  0  0  0  0
 14 12  1  0  0  0  0
 15 16  1  0  0  0  0
 16 12  1  0  0  0  0
 16 17  2  0  0  0  0
 17 18  1  0  0  0  0
 19 17  1  0  0  0  0
 19 20  1  0  0  0  0
 21 19  2  0  0  0  0
 22 15  2  0  0  0  0
 22 21  1  0  0  0  0
 24 23  1  0  0  0  0
 24 26  2  0  0  0  0
 24 15  1  0  0  0  0
 25 24  2  0  0  0  0
 27 28  1  0  0  0  0
 27  2  1  0  0  0  0
 28 29  1  0  0  0  0
 29 34  1  0  0  0  0
 29 30  2  0  0  0  0
 30 35  1  0  0  0  0
 31 30  1  0  0  0  0
 31 36  1  0  0  0  0
 32 31  2  0  0  0  0
 33 28  2  0  0  0  0
 33 32  1  0  0  0  0
 37 32  1  0  0  0  0
 38 33  1  0  0  0  0
 38 43  1  0  0  0  0
 39 38  2  0  0  0  0
 40 39  1  0  0  0  0
 40 41  2  0  0  0  0
 41 42  1  0  0  0  0
 42 43  2  0  0  0  0
 42 46  1  0  0  0  0
 44 39  1  0  0  0  0
 45 40  1  0  0  0  0
M  END
>  <minimizedAffinity>
-6.46418381

$$$$

 OpenBabel03242517493D

 46 49  0  0  0  0  0  0  0  0999 V2000
   35.0670   28.9590   39.1150 C   0  0  0  0  0  0  0  0  0  0  0  0
   36.2260   28.4750   38.5010 C   0  0  0  0  0  0  0  0  0  0  0  0
   36.1040   27.9860   37.2080 C   0  0  0  0  0  0  0  0  0  0  0  0
   34.8900   28.0010   36.6170 N   0  0  0  0  0  0  0  0  0  0  0  0
   33.7830   28.4830   37.2540 C   0  0  0  0  0  0  0  0  0  0  0  0
   33.8510   28.9610   38.4890 N   0  0  0  0  0  0  0  0  0  0  0  0
   35.1340   29.3430   40.1120 H   0  0  0  0  0  0  0  0  0  0  0  0
   36.9710   27.6030   36.6980 H   0  0  0  0  0  0  0  0  0  0  0  0
   32.5040   28.4490   36.4970 C   0  0  0  0  0  0  0  0  0  0  0  0
   31.7290   28.1750   37.2720 H   0  0  0  0  0  0  0  0  0  0  0  0
   32.4670   27.6420   35.7690 H   0  0  0  0  0  0  0  0  0  0  0  0
   32.1840   29.8210   35.9120 C   0  0  0  0  0  0  0  0  0  0  0  0
   33.0690   30.4560   36.1990 H   0  0  0  0  0  0  0  0  0  0  0  0
   32.1810   29.8430   34.8250 H   0  0  0  0  0  0  0  0  0  0  0  0
   30.3750   31.3830   35.8100 C   0  0  0  0  0  0  0  0  0  0  0  0
   31.0270   30.4440   36.5790 C   0  0  0  0  0  0  0  0  0  0  0  0
   30.5830   30.1480   37.8540 C   0  0  0  0  0  0  0  0  0  0  0  0
   31.1740   29.3890   38.3780 H   0  0  0  0  0  0  0  0  0  0  0  0
   29.4860   30.7560   38.4330 C   0  0  0  0  0  0  0  0  0  0  0  0
   29.1860   30.4860   39.4340 H   0  0  0  0  0  0  0  0  0  0  0  0
   28.8250   31.7020   37.6680 C   0  0  0  0  0  3  0  0  0  0  0  0
   29.2640   31.9950   36.4040 C   0  0  0  0  0  3  0  0  0  0  0  0
   31.2060   30.8350   33.5150 H   0  0  0  0  0  0  0  0  0  0  0  0
   30.7160   31.9360   34.2160 S   0  0  0  0  0  0  0  0  0  0  0  0
   29.5550   32.4100   33.4310 O   0  0  0  0  0  0  0  0  0  0  0  0
   31.8680   32.9260   34.1740 O   0  0  0  0  0  0  0  0  0  0  0  0
   37.7790   28.4900   39.3380 S   0  0  0  0  0  0  0  0  0  0  0  0
   37.5440   28.1550   41.0660 C   0  0  0  0  0  0  0  0  0  0  0  0
   37.1410   26.9190   41.5530 C   0  0  0  0  0  0  0  0  0  0  0  0
   36.9770   26.7290   42.9310 C   0  0  0  0  0  0  0  0  0  0  0  0
   37.2110   27.7540   43.8160 C   0  0  0  0  0  0  0  0  0  0  0  0
   37.6110   28.9700   43.3130 C   0  0  0  0  0  0  0  0  0  0  0  0
   37.7820   29.1920   41.9570 C   0  0  0  0  0  0  0  0  0  0  0  0
   36.9580   26.1140   40.8460 H   0  0  0  0  0  0  0  0  0  0  0  0
   36.6610   25.7560   43.2870 H   0  0  0  0  0  0  0  0  0  0  0  0
   37.0800   27.5910   44.8780 H   0  0  0  0  0  0  0  0  0  0  0  0
   37.8120   29.8230   43.9670 H   0  0  0  0  0  0  0  0  0  0  0  0
   38.2050   30.4850   41.4590 C   0  0  0  0  0  0  0  0  0  0  0  0
   39.4740   30.9690   41.5250 C   0  0  0  0  0  0  0  0  0  0  0  0
   39.8610   32.2200   41.0390 C   0  0  0  0  0  0  0  0  0  0  0  0
   38.9090   32.9890   40.4710 N   0  0  0  0  0  0  0  0  0  0  0  0
   37.6480   32.5210   40.4010 C   0  0  0  0  0  0  0  0  0  0  0  0
   37.3000   31.3140   40.8750 N   0  0  0  0  0  0  0  0  0  0  0  0
   40.2540   30.3580   41.9810 H   0  0  0  0  0  0  0  0  0  0  0  0
   40.8880   32.5490   41.1200 H   0  0  0  0  0  0  0  0  0  0  0  0
   36.9120   33.1750   39.9350 H   0  0  0  0  0  0  0  0  0  0  0  0
  1  7  1  0  0  0  0
  2  1  1  0  0  0  0
  2 27  1  0  0  0  0
  3  2  2  0  0  0  0
  4  3  1  0  0  0  0
  4  5  2  0  0  0  0
  5  6  1  0  0  0  0
  6  1  2  0  0  0  0
  8  3  1  0  0  0  0
  9  5  1  0  0  0  0
  9 10  1  0  0  0  0
 11  9  1  0  0  0  0
 12 13  1  0  0  0  0
 12  9  1  0  0  0  0
 12 16  1  0  0  0  0
 14 12  1  0  0  0  0
 15 22  2  0  0  0  0
 15 16  1  0  0  0  0
 16 17  2  0  0  0  0
 17 18  1  0  0  0  0
 17 19  1  0  0  0  0
 19 20  1  0  0  0  0
 21 19  2  0  0  0  0
 22 21  1  0  0  0  0
 23 24  1  0  0  0  0
 24 15  1  0  0  0  0
 25 24  2  0  0  0  0
 26 24  2  0  0  0  0
 27 28  1  0  0  0  0
 28 29  2  0  0  0  0
 28 33  1  0  0  0  0
 29 30  1  0  0  0  0
 30 35  1  0  0  0  0
 30 31  2  0  0  0  0
 31 36  1  0  0  0  0
 32 31  1  0  0  0  0
 32 37  1  0  0  0  0
 33 32  2  0  0  0  0
 34 29  1  0  0  0  0
 38 39  1  0  0  0  0
 38 33  1  0  0  0  0
 39 44  1  0  0  0  0
 40 45  1  0  0  0  0
 40 39  2  0  0  0  0
 41 40  1  0  0  0  0
 42 41  2  0  0  0  0
 42 43  1  0  0  0  0
 43 38  2  0  0  0  0
 46 42  1  0  0  0  0
M  END
>  <minimizedAffinity>
-6.28045177

$$$$

 OpenBabel03242517493D

 46 49  0  0  0  0  0  0  0  0999 V2000
   36.7590   28.4220   42.3730 C   0  0  0  0  0  0  0  0  0  0  0  0
   37.3940   29.5880   41.9350 C   0  0  0  0  0  0  0  0  0  0  0  0
   38.7470   29.7210   42.2190 C   0  0  0  0  0  0  0  0  0  0  0  0
   39.3710   28.7330   42.8950 N   0  0  0  0  0  0  0  0  0  0  0  0
   38.7120   27.6110   43.3050 C   0  0  0  0  0  0  0  0  0  0  0  0
   37.4210   27.4390   43.0560 N   0  0  0  0  0  0  0  0  0  0  0  0
   35.7170   28.2940   42.1670 H   0  0  0  0  0  0  0  0  0  0  0  0
   39.2740   30.6030   41.9000 H   0  0  0  0  0  0  0  0  0  0  0  0
   39.5110   26.5920   44.0380 C   0  0  0  0  0  0  0  0  0  0  0  0
   38.7490   25.8220   44.3610 H   0  0  0  0  0  0  0  0  0  0  0  0
   39.9300   26.9750   44.9650 H   0  0  0  0  0  0  0  0  0  0  0  0
   40.5400   25.9440   43.1170 C   0  0  0  0  0  0  0  0  0  0  0  0
   41.0380   26.8160   42.6050 H   0  0  0  0  0  0  0  0  0  0  0  0
   41.3490   25.4470   43.6460 H   0  0  0  0  0  0  0  0  0  0  0  0
   40.3740   25.4710   40.7780 C   0  0  0  0  0  0  0  0  0  0  0  0
   39.8990   25.1750   42.0370 C   0  0  0  0  0  0  0  0  0  0  0  0
   38.9110   24.2230   42.2080 C   0  0  0  0  0  0  0  0  0  0  0  0
   38.6040   24.0660   43.2480 H   0  0  0  0  0  0  0  0  0  0  0  0
   38.3460   23.5230   41.1610 C   0  0  0  0  0  0  0  0  0  0  0  0
   37.5760   22.7910   41.3540 H   0  0  0  0  0  0  0  0  0  0  0  0
   38.8180   23.8140   39.8920 C   0  0  0  0  0  3  0  0  0  0  0  0
   39.7970   24.7570   39.7210 C   0  0  0  0  0  3  0  0  0  0  0  0
   42.3650   26.8470   41.4160 H   0  0  0  0  0  0  0  0  0  0  0  0
   41.5790   26.6010   40.2900 S   0  0  0  0  0  0  0  0  0  0  0  0
   42.5250   26.1330   39.2530 O   0  0  0  0  0  0  0  0  0  0  0  0
   41.0010   27.9650   39.9530 O   0  0  0  0  0  0  0  0  0  0  0  0
   36.5100   30.8350   41.0550 S   0  0  0  0  0  0  0  0  0  0  0  0
   36.6460   30.5620   39.3050 C   0  0  0  0  0  0  0  0  0  0  0  0
   35.9500   29.5670   38.6350 C   0  0  0  0  0  0  0  0  0  0  0  0
   36.1080   29.4120   37.2510 C   0  0  0  0  0  0  0  0  0  0  0  0
   36.9500   30.2360   36.5420 C   0  0  0  0  0  0  0  0  0  0  0  0
   37.6300   31.2170   37.2260 C   0  0  0  0  0  0  0  0  0  0  0  0
   37.4960   31.3970   38.5920 C   0  0  0  0  0  0  0  0  0  0  0  0
   35.2870   28.9200   39.2020 H   0  0  0  0  0  0  0  0  0  0  0  0
   35.5550   28.6280   36.7490 H   0  0  0  0  0  0  0  0  0  0  0  0
   37.0610   30.1030   35.4740 H   0  0  0  0  0  0  0  0  0  0  0  0
   38.3130   31.9020   36.7170 H   0  0  0  0  0  0  0  0  0  0  0  0
   38.2270   32.4390   39.2830 C   0  0  0  0  0  0  0  0  0  0  0  0
   37.7280   33.6650   39.5950 C   0  0  0  0  0  0  0  0  0  0  0  0
   38.4490   34.6580   40.2620 C   0  0  0  0  0  0  0  0  0  0  0  0
   39.7210   34.3730   40.6130 N   0  0  0  0  0  0  0  0  0  0  0  0
   40.2270   33.1630   40.3090 C   0  0  0  0  0  0  0  0  0  0  0  0
   39.5130   32.2230   39.6680 N   0  0  0  0  0  0  0  0  0  0  0  0
   36.7020   33.9080   39.3170 H   0  0  0  0  0  0  0  0  0  0  0  0
   37.9970   35.6140   40.4830 H   0  0  0  0  0  0  0  0  0  0  0  0
   41.2570   32.9760   40.6110 H   0  0  0  0  0  0  0  0  0  0  0  0
  1  6  1  0  0  0  0
  2  3  1  0  0  0  0
  2  1  2  0  0  0  0
  3  4  2  0  0  0  0
  4  5  1  0  0  0  0
  5  9  1  0  0  0  0
  6  5  2  0  0  0  0
  7  1  1  0  0  0  0
  8  3  1  0  0  0  0
  9 10  1  0  0  0  0
  9 11  1  0  0  0  0
 12 14  1  0  0  0  0
 12  9  1  0  0  0  0
 13 12  1  0  0  0  0
 15 16  1  0  0  0  0
 16 17  2  0  0  0  0
 16 12  1  0  0  0  0
 17 18  1  0  0  0  0
 19 20  1  0  0  0  0
 19 17  1  0  0  0  0
 21 19  2  0  0  0  0
 22 21  1  0  0  0  0
 22 15  2  0  0  0  0
 24 15  1  0  0  0  0
 24 23  1  0  0  0  0
 25 24  2  0  0  0  0
 26 24  2  0  0  0  0
 27  2  1  0  0  0  0
 28 27  1  0  0  0  0
 29 34  1  0  0  0  0
 29 28  1  0  0  0  0
 30 29  2  0  0  0  0
 31 32  2  0  0  0  0
 31 30  1  0  0  0  0
 32 33  1  0  0  0  0
 33 38  1  0  0  0  0
 33 28  2  0  0  0  0
 35 30  1  0  0  0  0
 36 31  1  0  0  0  0
 37 32  1  0  0  0  0
 38 39  2  0  0  0  0
 38 43  1  0  0  0  0
 39 40  1  0  0  0  0
 40 45  1  0  0  0  0
 40 41  2  0  0  0  0
 42 46  1  0  0  0  0
 42 41  1  0  0  0  0
 43 42  2  0  0  0  0
 44 39  1  0  0  0  0
M  END
>  <minimizedAffinity>
-6.24332619

$$$$

 OpenBabel03242517493D

 46 49  0  0  0  0  0  0  0  0999 V2000
   37.0210   30.0960   40.4100 C   0  0  0  0  0  0  0  0  0  0  0  0
   38.1950   30.8520   40.3330 C   0  0  0  0  0  0  0  0  0  0  0  0
   39.0950   30.7380   41.3830 C   0  0  0  0  0  0  0  0  0  0  0  0
   38.7970   29.9140   42.4110 N   0  0  0  0  0  0  0  0  0  0  0  0
   37.6390   29.1940   42.4450 C   0  0  0  0  0  0  0  0  0  0  0  0
   36.7490   29.2700   41.4650 N   0  0  0  0  0  0  0  0  0  0  0  0
   36.3100   30.1660   39.6130 H   0  0  0  0  0  0  0  0  0  0  0  0
   40.0110   31.3030   41.3650 H   0  0  0  0  0  0  0  0  0  0  0  0
   37.4260   28.3190   43.6300 C   0  0  0  0  0  0  0  0  0  0  0  0
   36.4230   27.8330   43.4400 H   0  0  0  0  0  0  0  0  0  0  0  0
   37.2930   28.8820   44.5500 H   0  0  0  0  0  0  0  0  0  0  0  0
   38.5090   27.2480   43.7140 C   0  0  0  0  0  0  0  0  0  0  0  0
   39.4380   27.7670   43.3420 H   0  0  0  0  0  0  0  0  0  0  0  0
   38.7560   26.9550   44.7310 H   0  0  0  0  0  0  0  0  0  0  0  0
   39.3980   25.7340   42.0890 C   0  0  0  0  0  0  0  0  0  0  0  0
   38.2690   26.1510   42.7600 C   0  0  0  0  0  0  0  0  0  0  0  0
   37.0470   25.5510   42.5210 C   0  0  0  0  0  0  0  0  0  0  0  0
   36.2160   25.9590   43.1050 H   0  0  0  0  0  0  0  0  0  0  0  0
   36.8760   24.5190   41.6190 C   0  0  0  0  0  0  0  0  0  0  0  0
   35.8970   24.0870   41.4730 H   0  0  0  0  0  0  0  0  0  0  0  0
   38.0050   24.0920   40.9400 C   0  0  0  0  0  3  0  0  0  0  0  0
   39.2160   24.6870   41.1770 C   0  0  0  0  0  3  0  0  0  0  0  0
   41.2240   26.6660   43.5240 H   0  0  0  0  0  0  0  0  0  0  0  0
   41.0190   26.3060   42.1920 S   0  0  0  0  0  0  0  0  0  0  0  0
   42.0760   25.3160   41.8920 O   0  0  0  0  0  0  0  0  0  0  0  0
   41.2310   27.6050   41.4340 O   0  0  0  0  0  0  0  0  0  0  0  0
   38.5150   31.9060   38.9550 S   0  0  0  0  0  0  0  0  0  0  0  0
   39.2700   33.4170   39.5040 C   0  0  0  0  0  0  0  0  0  0  0  0
   38.5620   34.4420   40.1150 C   0  0  0  0  0  0  0  0  0  0  0  0
   39.2270   35.6070   40.5220 C   0  0  0  0  0  0  0  0  0  0  0  0
   40.5790   35.7510   40.3230 C   0  0  0  0  0  0  0  0  0  0  0  0
   41.2620   34.7230   39.7150 C   0  0  0  0  0  0  0  0  0  0  0  0
   40.6360   33.5600   39.3010 C   0  0  0  0  0  0  0  0  0  0  0  0
   37.4940   34.3200   40.2690 H   0  0  0  0  0  0  0  0  0  0  0  0
   38.6540   36.3930   40.9970 H   0  0  0  0  0  0  0  0  0  0  0  0
   41.0780   36.6570   40.6420 H   0  0  0  0  0  0  0  0  0  0  0  0
   42.3380   34.7800   39.5300 H   0  0  0  0  0  0  0  0  0  0  0  0
   41.3830   32.4950   38.6640 C   0  0  0  0  0  0  0  0  0  0  0  0
   41.5710   32.3670   37.3240 C   0  0  0  0  0  0  0  0  0  0  0  0
   42.2950   31.3320   36.7290 C   0  0  0  0  0  0  0  0  0  0  0  0
   42.8370   30.4030   37.5450 N   0  0  0  0  0  0  0  0  0  0  0  0
   42.6570   30.5180   38.8740 C   0  0  0  0  0  0  0  0  0  0  0  0
   41.9570   31.5240   39.4230 N   0  0  0  0  0  0  0  0  0  0  0  0
   41.1390   33.1110   36.6530 H   0  0  0  0  0  0  0  0  0  0  0  0
   42.4100   31.2850   35.6550 H   0  0  0  0  0  0  0  0  0  0  0  0
   43.1120   29.7460   39.4950 H   0  0  0  0  0  0  0  0  0  0  0  0
  1  6  1  0  0  0  0
  2  1  2  0  0  0  0
  2  3  1  0  0  0  0
  3  4  2  0  0  0  0
  4  5  1  0  0  0  0
  5  9  1  0  0  0  0
  6  5  2  0  0  0  0
  7  1  1  0  0  0  0
  8  3  1  0  0  0  0
  9 12  1  0  0  0  0
  9 11  1  0  0  0  0
 10  9  1  0  0  0  0
 12 14  1  0  0  0  0
 13 12  1  0  0  0  0
 15 24  1  0  0  0  0
 15 16  1  0  0  0  0
 16 12  1  0  0  0  0
 17 16  2  0  0  0  0
 17 18  1  0  0  0  0
 19 17  1  0  0  0  0
 20 19  1  0  0  0  0
 21 22  1  0  0  0  0
 21 19  2  0  0  0  0
 22 15  2  0  0  0  0
 24 23  1  0  0  0  0
 25 24  2  0  0  0  0
 26 24  2  0  0  0  0
 27 28  1  0  0  0  0
 27  2  1  0  0  0  0
 28 29  1  0  0  0  0
 29 34  1  0  0  0  0
 29 30  2  0  0  0  0
 30 35  1  0  0  0  0
 31 30  1  0  0  0  0
 31 36  1  0  0  0  0
 32 31  2  0  0  0  0
 33 28  2  0  0  0  0
 33 32  1  0  0  0  0
 37 32  1  0  0  0  0
 38 33  1  0  0  0  0
 38 43  1  0  0  0  0
 39 38  2  0  0  0  0
 40 39  1  0  0  0  0
 40 41  2  0  0  0  0
 41 42  1  0  0  0  0
 42 43  2  0  0  0  0
 42 46  1  0  0  0  0
 44 39  1  0  0  0  0
 45 40  1  0  0  0  0
M  END
>  <minimizedAffinity>
-6.2352972

$$$$

 OpenBabel03242517493D

 46 49  0  0  0  0  0  0  0  0999 V2000
   41.2530   29.1370   42.0930 C   0  0  0  0  0  0  0  0  0  0  0  0
   40.8110   30.4590   41.9870 C   0  0  0  0  0  0  0  0  0  0  0  0
   39.5320   30.7400   42.4480 C   0  0  0  0  0  0  0  0  0  0  0  0
   38.7910   29.7380   42.9680 N   0  0  0  0  0  0  0  0  0  0  0  0
   39.2630   28.4600   43.0520 C   0  0  0  0  0  0  0  0  0  0  0  0
   40.4780   28.1440   42.6250 N   0  0  0  0  0  0  0  0  0  0  0  0
   42.2360   28.8930   41.7450 H   0  0  0  0  0  0  0  0  0  0  0  0
   39.1510   31.7440   42.3850 H   0  0  0  0  0  0  0  0  0  0  0  0
   38.3530   27.4450   43.6470 C   0  0  0  0  0  0  0  0  0  0  0  0
   38.2100   27.7910   44.7140 H   0  0  0  0  0  0  0  0  0  0  0  0
   38.8150   26.4650   43.7320 H   0  0  0  0  0  0  0  0  0  0  0  0
   37.0090   27.4320   42.9250 C   0  0  0  0  0  0  0  0  0  0  0  0
   36.2720   27.1350   43.7240 H   0  0  0  0  0  0  0  0  0  0  0  0
   36.6750   28.4160   42.6060 H   0  0  0  0  0  0  0  0  0  0  0  0
   36.8860   26.8170   40.6170 C   0  0  0  0  0  0  0  0  0  0  0  0
   36.9410   26.3610   41.9160 C   0  0  0  0  0  0  0  0  0  0  0  0
   36.9380   25.0060   42.1860 C   0  0  0  0  0  0  0  0  0  0  0  0
   36.9830   24.7520   43.2500 H   0  0  0  0  0  0  0  0  0  0  0  0
   36.8800   24.0390   41.2010 C   0  0  0  0  0  0  0  0  0  0  0  0
   36.8790   22.9940   41.4700 H   0  0  0  0  0  0  0  0  0  0  0  0
   36.8240   24.4880   39.8920 C   0  0  0  0  0  3  0  0  0  0  0  0
   36.8280   25.8310   39.6240 C   0  0  0  0  0  3  0  0  0  0  0  0
   36.4000   29.2330   41.0490 H   0  0  0  0  0  0  0  0  0  0  0  0
   36.8720   28.4290   40.0120 S   0  0  0  0  0  0  0  0  0  0  0  0
   38.1880   28.9970   39.6500 O   0  0  0  0  0  0  0  0  0  0  0  0
   35.8470   28.6320   38.9090 O   0  0  0  0  0  0  0  0  0  0  0  0
   41.8390   31.7150   41.2970 S   0  0  0  0  0  0  0  0  0  0  0  0
   42.0310   31.4560   39.5500 C   0  0  0  0  0  0  0  0  0  0  0  0
   42.8440   30.4680   39.0130 C   0  0  0  0  0  0  0  0  0  0  0  0
   42.9460   30.3230   37.6240 C   0  0  0  0  0  0  0  0  0  0  0  0
   42.2480   31.1510   36.7760 C   0  0  0  0  0  0  0  0  0  0  0  0
   41.4470   32.1240   37.3290 C   0  0  0  0  0  0  0  0  0  0  0  0
   41.3250   32.2940   38.6980 C   0  0  0  0  0  0  0  0  0  0  0  0
   43.3920   29.8180   39.6900 H   0  0  0  0  0  0  0  0  0  0  0  0
   43.5870   29.5450   37.2280 H   0  0  0  0  0  0  0  0  0  0  0  0
   42.3380   31.0270   35.7050 H   0  0  0  0  0  0  0  0  0  0  0  0
   40.8690   32.8120   36.7070 H   0  0  0  0  0  0  0  0  0  0  0  0
   40.4730   33.3270   39.2490 C   0  0  0  0  0  0  0  0  0  0  0  0
   40.8540   34.6120   39.4790 C   0  0  0  0  0  0  0  0  0  0  0  0
   40.0170   35.5940   40.0120 C   0  0  0  0  0  0  0  0  0  0  0  0
   38.7520   35.2350   40.3160 N   0  0  0  0  0  0  0  0  0  0  0  0
   38.3630   33.9660   40.0950 C   0  0  0  0  0  0  0  0  0  0  0  0
   39.1860   33.0390   39.5790 N   0  0  0  0  0  0  0  0  0  0  0  0
   41.8740   34.9160   39.2370 H   0  0  0  0  0  0  0  0  0  0  0  0
   40.3790   36.6010   40.1710 H   0  0  0  0  0  0  0  0  0  0  0  0
   37.3330   33.7200   40.3550 H   0  0  0  0  0  0  0  0  0  0  0  0
  1  6  1  0  0  0  0
  2  1  2  0  0  0  0
  2  3  1  0  0  0  0
  3  4  2  0  0  0  0
  4  5  1  0  0  0  0
  5  9  1  0  0  0  0
  6  5  2  0  0  0  0
  7  1  1  0  0  0  0
  8  3  1  0  0  0  0
  9 11  1  0  0  0  0
  9 10  1  0  0  0  0
 12  9  1  0  0  0  0
 12 13  1  0  0  0  0
 14 12  1  0  0  0  0
 15 16  1  0  0  0  0
 16 17  2  0  0  0  0
 16 12  1  0  0  0  0
 17 18  1  0  0  0  0
 19 20  1  0  0  0  0
 19 17  1  0  0  0  0
 21 19  2  0  0  0  0
 22 21  1  0  0  0  0
 22 15  2  0  0  0  0
 24 15  1  0  0  0  0
 24 23  1  0  0  0  0
 25 24  2  0  0  0  0
 26 24  2  0  0  0  0
 27  2  1  0  0  0  0
 28 27  1  0  0  0  0
 29 28  1  0  0  0  0
 29 34  1  0  0  0  0
 30 29  2  0  0  0  0
 31 32  2  0  0  0  0
 31 30  1  0  0  0  0
 32 33  1  0  0  0  0
 33 38  1  0  0  0  0
 33 28  2  0  0  0  0
 35 30  1  0  0  0  0
 36 31  1  0  0  0  0
 37 32  1  0  0  0  0
 38 39  2  0  0  0  0
 38 43  1  0  0  0  0
 39 40  1  0  0  0  0
 40 45  1  0  0  0  0
 40 41  2  0  0  0  0
 42 41  1  0  0  0  0
 42 46  1  0  0  0  0
 43 42  2  0  0  0  0
 44 39  1  0  0  0  0
M  END
>  <minimizedAffinity>
-6.18749475

$$$$

 OpenBabel03242517493D

 46 49  0  0  0  0  0  0  0  0999 V2000
   40.7610   30.1630   41.1570 C   0  0  0  0  0  0  0  0  0  0  0  0
   40.9120   29.8230   39.8090 C   0  0  0  0  0  0  0  0  0  0  0  0
   41.2910   28.5190   39.5200 C   0  0  0  0  0  0  0  0  0  0  0  0
   41.4910   27.6580   40.5400 N   0  0  0  0  0  0  0  0  0  0  0  0
   41.3330   28.0310   41.8420 C   0  0  0  0  0  0  0  0  0  0  0  0
   40.9710   29.2660   42.1670 N   0  0  0  0  0  0  0  0  0  0  0  0
   40.4690   31.1620   41.4070 H   0  0  0  0  0  0  0  0  0  0  0  0
   41.4190   28.2160   38.4960 H   0  0  0  0  0  0  0  0  0  0  0  0
   41.5800   26.9900   42.8760 C   0  0  0  0  0  0  0  0  0  0  0  0
   42.4570   27.3880   43.4670 H   0  0  0  0  0  0  0  0  0  0  0  0
   41.9310   26.0530   42.4520 H   0  0  0  0  0  0  0  0  0  0  0  0
   40.3690   26.8370   43.7910 C   0  0  0  0  0  0  0  0  0  0  0  0
   40.7340   26.1650   44.6180 H   0  0  0  0  0  0  0  0  0  0  0  0
   40.0860   27.7560   44.2990 H   0  0  0  0  0  0  0  0  0  0  0  0
   38.0790   26.7670   43.1020 C   0  0  0  0  0  0  0  0  0  0  0  0
   39.2800   26.0920   43.1360 C   0  0  0  0  0  0  0  0  0  0  0  0
   39.3930   24.8310   42.5820 C   0  0  0  0  0  0  0  0  0  0  0  0
   40.3890   24.3830   42.6650 H   0  0  0  0  0  0  0  0  0  0  0  0
   38.3410   24.1760   41.9710 C   0  0  0  0  0  0  0  0  0  0  0  0
   38.4860   23.1910   41.5560 H   0  0  0  0  0  0  0  0  0  0  0  0
   37.1300   24.8470   41.9320 C   0  0  0  0  0  3  0  0  0  0  0  0
   37.0180   26.0970   42.4810 C   0  0  0  0  0  3  0  0  0  0  0  0
   38.8220   28.8230   44.3190 H   0  0  0  0  0  0  0  0  0  0  0  0
   37.6690   28.3240   43.7140 S   0  0  0  0  0  0  0  0  0  0  0  0
   37.2920   29.3380   42.7050 O   0  0  0  0  0  0  0  0  0  0  0  0
   36.6670   28.2600   44.8540 O   0  0  0  0  0  0  0  0  0  0  0  0
   40.6300   31.0060   38.5310 S   0  0  0  0  0  0  0  0  0  0  0  0
   39.8020   32.4330   39.1900 C   0  0  0  0  0  0  0  0  0  0  0  0
   40.4750   33.5210   39.7260 C   0  0  0  0  0  0  0  0  0  0  0  0
   39.7530   34.6130   40.2280 C   0  0  0  0  0  0  0  0  0  0  0  0
   38.3790   34.6220   40.1980 C   0  0  0  0  0  0  0  0  0  0  0  0
   37.7320   33.5330   39.6620 C   0  0  0  0  0  0  0  0  0  0  0  0
   38.4140   32.4380   39.1580 C   0  0  0  0  0  0  0  0  0  0  0  0
   41.5610   33.5060   39.7460 H   0  0  0  0  0  0  0  0  0  0  0  0
   40.3000   35.4510   40.6420 H   0  0  0  0  0  0  0  0  0  0  0  0
   37.8370   35.4720   40.5900 H   0  0  0  0  0  0  0  0  0  0  0  0
   36.6410   33.4820   39.6100 H   0  0  0  0  0  0  0  0  0  0  0  0
   37.7030   31.3070   38.5990 C   0  0  0  0  0  0  0  0  0  0  0  0
   37.1130   30.3210   39.3260 C   0  0  0  0  0  0  0  0  0  0  0  0
   36.4320   29.2370   38.7680 C   0  0  0  0  0  0  0  0  0  0  0  0
   36.3630   29.1730   37.4210 N   0  0  0  0  0  0  0  0  0  0  0  0
   36.9440   30.1420   36.6900 C   0  0  0  0  0  0  0  0  0  0  0  0
   37.5930   31.1760   37.2510 N   0  0  0  0  0  0  0  0  0  0  0  0
   37.1610   30.3610   40.4150 H   0  0  0  0  0  0  0  0  0  0  0  0
   35.9820   28.4840   39.3990 H   0  0  0  0  0  0  0  0  0  0  0  0
   36.8630   30.0500   35.6080 H   0  0  0  0  0  0  0  0  0  0  0  0
  1  7  1  0  0  0  0
  1  6  1  0  0  0  0
  2  1  2  0  0  0  0
  3  2  1  0  0  0  0
  3  4  2  0  0  0  0
  4  5  1  0  0  0  0
  5  6  2  0  0  0  0
  5  9  1  0  0  0  0
  8  3  1  0  0  0  0
  9 10  1  0  0  0  0
  9 12  1  0  0  0  0
 11  9  1  0  0  0  0
 12 14  1  0  0  0  0
 12 13  1  0  0  0  0
 15 16  1  0  0  0  0
 15 24  1  0  0  0  0
 16 12  1  0  0  0  0
 17 18  1  0  0  0  0
 17 16  2  0  0  0  0
 19 17  1  0  0  0  0
 20 19  1  0  0  0  0
 21 19  2  0  0  0  0
 21 22  1  0  0  0  0
 22 15  2  0  0  0  0
 24 23  1  0  0  0  0
 24 26  2  0  0  0  0
 25 24  2  0  0  0  0
 27 28  1  0  0  0  0
 27  2  1  0  0  0  0
 28 29  1  0  0  0  0
 29 34  1  0  0  0  0
 29 30  2  0  0  0  0
 30 35  1  0  0  0  0
 31 30  1  0  0  0  0
 31 36  1  0  0  0  0
 32 31  2  0  0  0  0
 33 28  2  0  0  0  0
 33 32  1  0  0  0  0
 37 32  1  0  0  0  0
 38 33  1  0  0  0  0
 38 39  1  0  0  0  0
 39 44  1  0  0  0  0
 40 39  2  0  0  0  0
 40 45  1  0  0  0  0
 41 40  1  0  0  0  0
 42 43  1  0  0  0  0
 42 41  2  0  0  0  0
 43 38  2  0  0  0  0
 46 42  1  0  0  0  0
M  END
>  <minimizedAffinity>
-6.17635059

$$$$

 OpenBabel03242517493D

 46 49  0  0  0  0  0  0  0  0999 V2000
   38.8410   29.4030   42.3410 C   0  0  0  0  0  0  0  0  0  0  0  0
   37.9640   28.3170   42.4170 C   0  0  0  0  0  0  0  0  0  0  0  0
   36.7170   28.4640   41.8250 C   0  0  0  0  0  0  0  0  0  0  0  0
   36.4190   29.6300   41.2140 N   0  0  0  0  0  0  0  0  0  0  0  0
   37.3060   30.6650   41.1620 C   0  0  0  0  0  0  0  0  0  0  0  0
   38.5090   30.5720   41.7130 N   0  0  0  0  0  0  0  0  0  0  0  0
   39.8090   29.3160   42.7890 H   0  0  0  0  0  0  0  0  0  0  0  0
   36.0110   27.6530   41.8620 H   0  0  0  0  0  0  0  0  0  0  0  0
   36.8610   31.8970   40.4580 C   0  0  0  0  0  0  0  0  0  0  0  0
   37.0080   32.7210   41.2180 H   0  0  0  0  0  0  0  0  0  0  0  0
   35.7950   31.8990   40.2470 H   0  0  0  0  0  0  0  0  0  0  0  0
   37.7320   32.1660   39.2340 C   0  0  0  0  0  0  0  0  0  0  0  0
   38.3330   31.2210   39.1120 H   0  0  0  0  0  0  0  0  0  0  0  0
   37.1700   32.2460   38.3070 H   0  0  0  0  0  0  0  0  0  0  0  0
   39.9770   32.9540   38.9900 C   0  0  0  0  0  0  0  0  0  0  0  0
   38.7220   33.2260   39.4900 C   0  0  0  0  0  0  0  0  0  0  0  0
   38.4720   34.4110   40.1560 C   0  0  0  0  0  0  0  0  0  0  0  0
   37.4430   34.5260   40.5130 H   0  0  0  0  0  0  0  0  0  0  0  0
   39.4360   35.3790   40.3640 C   0  0  0  0  0  0  0  0  0  0  0  0
   39.1840   36.2850   40.8930 H   0  0  0  0  0  0  0  0  0  0  0  0
   40.7000   35.1140   39.8660 C   0  0  0  0  0  3  0  0  0  0  0  0
   40.9480   33.9400   39.2050 C   0  0  0  0  0  3  0  0  0  0  0  0
   39.4450   31.0260   37.4860 H   0  0  0  0  0  0  0  0  0  0  0  0
   40.5510   31.5730   38.1370 S   0  0  0  0  0  0  0  0  0  0  0  0
   41.5380   31.8360   37.0670 O   0  0  0  0  0  0  0  0  0  0  0  0
   41.0060   30.4590   39.0640 O   0  0  0  0  0  0  0  0  0  0  0  0
   38.4280   26.8230   43.2330 S   0  0  0  0  0  0  0  0  0  0  0  0
   38.1570   25.4320   42.1630 C   0  0  0  0  0  0  0  0  0  0  0  0
   36.9000   24.9020   41.9080 C   0  0  0  0  0  0  0  0  0  0  0  0
   36.7640   23.8030   41.0510 C   0  0  0  0  0  0  0  0  0  0  0  0
   37.8640   23.2350   40.4530 C   0  0  0  0  0  0  0  0  0  0  0  0
   39.1010   23.7770   40.7180 C   0  0  0  0  0  0  0  0  0  0  0  0
   39.2710   24.8630   41.5610 C   0  0  0  0  0  0  0  0  0  0  0  0
   36.0360   25.3570   42.3840 H   0  0  0  0  0  0  0  0  0  0  0  0
   35.7730   23.4060   40.8680 H   0  0  0  0  0  0  0  0  0  0  0  0
   37.7430   22.3860   39.7940 H   0  0  0  0  0  0  0  0  0  0  0  0
   40.0130   23.3690   40.2730 H   0  0  0  0  0  0  0  0  0  0  0  0
   40.5870   25.4100   41.8190 C   0  0  0  0  0  0  0  0  0  0  0  0
   41.1770   26.3970   41.0940 C   0  0  0  0  0  0  0  0  0  0  0  0
   42.4480   26.9100   41.3590 C   0  0  0  0  0  0  0  0  0  0  0  0
   43.1260   26.3860   42.4020 N   0  0  0  0  0  0  0  0  0  0  0  0
   42.5520   25.4080   43.1280 C   0  0  0  0  0  0  0  0  0  0  0  0
   41.3270   24.9310   42.8540 N   0  0  0  0  0  0  0  0  0  0  0  0
   40.6410   26.8290   40.2480 H   0  0  0  0  0  0  0  0  0  0  0  0
   42.8640   27.6980   40.7460 H   0  0  0  0  0  0  0  0  0  0  0  0
   43.1350   25.0140   43.9600 H   0  0  0  0  0  0  0  0  0  0  0  0
  1  2  1  0  0  0  0
  1  7  1  0  0  0  0
  2 27  1  0  0  0  0
  3  8  1  0  0  0  0
  3  2  2  0  0  0  0
  4  3  1  0  0  0  0
  5  4  2  0  0  0  0
  5  6  1  0  0  0  0
  6  1  2  0  0  0  0
  9  5  1  0  0  0  0
  9 10  1  0  0  0  0
 11  9  1  0  0  0  0
 12 16  1  0  0  0  0
 12  9  1  0  0  0  0
 13 12  1  0  0  0  0
 14 12  1  0  0  0  0
 15 22  2  0  0  0  0
 15 16  1  0  0  0  0
 16 17  2  0  0  0  0
 17 19  1  0  0  0  0
 17 18  1  0  0  0  0
 19 20  1  0  0  0  0
 21 19  2  0  0  0  0
 22 21  1  0  0  0  0
 23 24  1  0  0  0  0
 24 15  1  0  0  0  0
 24 26  2  0  0  0  0
 25 24  2  0  0  0  0
 28 27  1  0  0  0  0
 29 28  1  0  0  0  0
 29 34  1  0  0  0  0
 30 29  2  0  0  0  0
 31 32  2  0  0  0  0
 31 30  1  0  0  0  0
 32 33  1  0  0  0  0
 33 38  1  0  0  0  0
 33 28  2  0  0  0  0
 35 30  1  0  0  0  0
 36 31  1  0  0  0  0
 37 32  1  0  0  0  0
 38 43  1  0  0  0  0
 39 40  1  0  0  0  0
 39 38  2  0  0  0  0
 40 41  2  0  0  0  0
 41 42  1  0  0  0  0
 42 46  1  0  0  0  0
 43 42  2  0  0  0  0
 44 39  1  0  0  0  0
 45 40  1  0  0  0  0
M  END
>  <minimizedAffinity>
-6.11924267

$$$$
