
 OpenBabel03252509113D

 34 37  0  0  0  0  0  0  0  0999 V2000
   44.5020   28.8640   44.7660 C   0  0  0  0  0  0  0  0  0  0  0  0
   45.5340   29.4330   45.4630 C   0  0  0  0  0  0  0  0  0  0  0  0
   45.9180   29.0340   46.7500 C   0  0  0  0  0  0  0  0  0  0  0  0
   45.2070   27.9930   47.3630 C   0  0  0  0  0  0  0  0  0  0  0  0
   45.2790   27.3490   48.5530 N   0  0  0  0  0  0  0  0  0  0  0  0
   44.3050   26.3960   48.5950 C   0  0  0  0  0  0  0  0  0  0  0  0
   43.6440   26.4720   47.4110 N   0  0  0  0  0  0  0  0  0  0  0  0
   44.1760   27.4360   46.6480 C   0  0  0  0  0  0  0  0  0  0  0  0
   43.7920   27.8240   45.3790 C   0  0  0  0  0  0  0  0  0  0  0  0
   44.2670   29.2350   43.7670 H   0  0  0  0  0  0  0  0  0  0  0  0
   45.9780   27.5730   49.2930 H   0  0  0  0  0  0  0  0  0  0  0  0
   44.1340   25.7340   49.4290 H   0  0  0  0  0  0  0  0  0  0  0  0
   42.9700   27.3610   44.8420 H   0  0  0  0  0  0  0  0  0  0  0  0
   46.7210   32.7860   44.4710 C   0  0  0  0  0  0  0  0  0  0  0  0
   47.8680   32.4930   43.7330 C   0  0  0  0  0  0  0  0  0  0  0  0
   48.2280   31.1490   43.5800 C   0  0  0  0  0  0  0  0  0  0  0  0
   47.4300   30.2040   44.1630 N   0  0  0  0  0  0  0  0  0  0  0  0
   46.3200   30.5250   44.8740 C   0  0  0  0  0  0  0  0  0  0  0  0
   45.9680   31.7980   45.0290 N   0  0  0  0  0  0  0  0  0  0  0  0
   46.4620   33.8300   44.5760 H   0  0  0  0  0  0  0  0  0  0  0  0
   48.5060   33.2160   43.2690 H   0  0  0  0  0  0  0  0  0  0  0  0
   49.0940   30.7840   43.0320 H   0  0  0  0  0  0  0  0  0  0  0  0
   46.7780   30.7490   48.2470 C   0  0  0  0  0  0  0  0  0  0  0  0
   47.0070   29.6630   47.4410 C   0  0  0  0  0  0  0  0  0  0  0  0
   48.3010   29.1850   47.3030 C   0  0  0  0  0  0  0  0  0  0  0  0
   48.4470   28.3260   46.6590 H   0  0  0  0  0  0  0  0  0  0  0  0
   49.3810   29.7550   47.9430 C   0  0  0  0  0  0  0  0  0  0  0  0
   50.3950   29.3450   47.8070 H   0  0  0  0  0  0  0  0  0  0  0  0
   49.1720   30.8500   48.7610 C   0  0  0  0  0  3  0  0  0  0  0  0
   47.8760   31.3240   48.8960 C   0  0  0  0  0  3  0  0  0  0  0  0
   44.2070   30.6170   47.9840 H   0  0  0  0  0  0  0  0  0  0  0  0
   45.2060   31.4400   48.4970 S   0  0  0  0  0  0  0  0  0  0  0  0
   45.0660   32.8360   48.0070 O   0  0  0  0  0  0  0  0  0  0  0  0
   44.9520   31.4590   49.9880 O   0  0  0  0  0  0  0  0  0  0  0  0
  1  9  2  0  0  0  0
  1  2  1  0  0  0  0
  2  3  2  0  0  0  0
  3  4  1  0  0  0  0
  3 24  1  0  0  0  0
  4  5  1  0  0  0  0
  5  6  1  0  0  0  0
  5 11  1  0  0  0  0
  6 12  1  0  0  0  0
  7  6  2  0  0  0  0
  8  4  2  0  0  0  0
  8  7  1  0  0  0  0
  9  8  1  0  0  0  0
 10  1  1  0  0  0  0
 13  9  1  0  0  0  0
 14 20  1  0  0  0  0
 14 19  1  0  0  0  0
 15 14  2  0  0  0  0
 16 15  1  0  0  0  0
 16 17  2  0  0  0  0
 17 18  1  0  0  0  0
 18 19  2  0  0  0  0
 18  2  1  0  0  0  0
 21 15  1  0  0  0  0
 22 16  1  0  0  0  0
 23 32  1  0  0  0  0
 23 30  1  0  0  0  0
 24 23  2  0  0  0  0
 25 24  1  0  0  0  0
 25 27  2  0  0  0  0
 26 25  1  0  0  0  0
 27 29  1  0  0  0  0
 28 27  1  0  0  0  0
 29 30  2  0  0  0  0
 31 32  1  0  0  0  0
 32 34  2  0  0  0  0
 33 32  2  0  0  0  0
M  END
>  <minimizedAffinity>
-4.88922834

>  <minimizedRMSD>
4.84693146

$$$$
