REMARK  Name = 
REMARK  5 active torsions:
REMARK  status: ('A' for Active; 'I' for Inactive)
REMARK    1  A    between atoms: C_1  and  C_15
REMARK    2  A    between atoms: C_9  and  O_18
REMARK    3  A    between atoms: C_12  and  N_17
REMARK    4  A    between atoms: O_18  and  C_34
REMARK    5  A    between atoms: S_30  and  C_33
REMARK                            x       y       z     vdW  Elec       q    Type
REMARK                         _______ _______ _______ _____ _____    ______ ____
ROOT
ATOM      1  C   UNL     1      46.047  32.714  46.699  0.00  0.00    +0.000 A 
ATOM      2  C   UNL     1      45.546  32.943  48.008  0.00  0.00    +0.000 A 
ATOM      3  C   UNL     1      45.744  32.086  49.062  0.00  0.00    +0.000 A 
ATOM      4  C   UNL     1      46.447  30.950  48.892  0.00  0.00    +0.000 A 
ATOM      5  C   UNL     1      46.964  30.668  47.630  0.00  0.00    +0.000 A 
ATOM      6  C   UNL     1      47.667  29.509  47.497  0.00  0.00    +0.000 A 
ATOM      7  C   UNL     1      48.204  29.166  46.281  0.00  0.00    +0.000 A 
ATOM      8  C   UNL     1      47.986  30.054  45.231  0.00  0.00    +0.000 A 
ATOM      9  C   UNL     1      47.277  31.179  45.448  0.00  0.00    +0.000 A 
ATOM     10  C   UNL     1      46.742  31.553  46.604  0.00  0.00    +0.000 A 
ATOM     11  H   UNL     1      44.974  33.840  48.204  0.00  0.00    +0.000 HD
ATOM     12  H   UNL     1      45.332  32.327  50.030  0.00  0.00    +0.000 HD
ATOM     13  H   UNL     1      46.584  30.299  49.740  0.00  0.00    +0.000 HD
ATOM     14  H   UNL     1      47.803  28.847  48.377  0.00  0.00    +0.000 HD
ATOM     15  H   UNL     1      48.756  28.209  46.277  0.00  0.00    +0.000 HD
ATOM     16  H   UNL     1      48.494  29.623  44.363  0.00  0.00    +0.000 HD
ENDROOT
BRANCH   1  21
ATOM     17  C   UNL     1      44.480  35.530  45.113  0.00  0.00    +0.000 A 
ATOM     18  C   UNL     1      45.159  35.605  43.858  0.00  0.00    +0.000 A 
ATOM     19  C   UNL     1      46.177  34.658  43.553  0.00  0.00    +0.000 A 
ATOM     20  N   UNL     1      46.428  33.743  44.494  0.00  0.00    +0.000 NA
ATOM     21  C   UNL     1      45.831  33.654  45.634  0.00  0.00    +0.000 A 
ATOM     22  N   UNL     1      44.854  34.562  45.927  0.00  0.00    +0.000 NA
ATOM     23  H   UNL     1      43.709  36.254  45.333  0.00  0.00    +0.000 HD
ATOM     24  H   UNL     1      46.650  34.766  42.596  0.00  0.00    +0.000 HD
BRANCH  18  25
ATOM     25  N   UNL     1      44.743  36.655  42.999  0.00  0.00    +0.000 N 
ATOM     26  H   UNL     1      44.329  36.452  42.052  0.00  0.00    +0.000 HD
ATOM     27  H   UNL     1      44.820  37.680  43.251  0.00  0.00    +0.000 HD
ENDBRANCH  18  25
ENDBRANCH   1  21
BRANCH   9  28
ATOM     28  O   UNL     1      47.227  31.832  44.249  0.00  0.00    +0.000 OA
BRANCH  28  30
ATOM     29  C   UNL     1      49.105  31.280  42.825  0.00  0.00    +0.000 A 
ATOM     30  C   UNL     1      47.721  31.362  43.027  0.00  0.00    +0.000 A 
ATOM     31  C   UNL     1      46.915  30.958  41.976  0.00  0.00    +0.000 A 
ATOM     32  H   UNL     1      45.844  31.012  42.110  0.00  0.00    +0.000 HD
ATOM     33  C   UNL     1      47.426  30.496  40.785  0.00  0.00    +0.000 A 
ATOM     34  H   UNL     1      46.773  30.187  39.982  0.00  0.00    +0.000 HD
ATOM     35  C   UNL     1      48.788  30.427  40.614  0.00  0.00    +0.000 A 
ATOM     36  C   UNL     1      49.640  30.814  41.620  0.00  0.00    +0.000 A 
BRANCH  29  38
ATOM     37  H   UNL     1      50.804  32.966  43.828  0.00  0.00    +0.000 HD
ATOM     38  S   UNL     1      50.273  31.723  44.051  0.00  0.00    +0.000 S 
ATOM     39  O   UNL     1      49.731  31.570  45.446  0.00  0.00    +0.000 OA
ATOM     40  O   UNL     1      51.437  30.760  43.957  0.00  0.00    +0.000 OA
ENDBRANCH  29  38
ENDBRANCH  28  30
ENDBRANCH   9  28
TORSDOF 5
