REMARK  Name = 
REMARK  5 active torsions:
REMARK  status: ('A' for Active; 'I' for Inactive)
REMARK    1  A    between atoms: C_3  and  C_10
REMARK    2  A    between atoms: C_4  and  C_15
REMARK    3  A    between atoms: C_14  and  S_20
REMARK    4  A    between atoms: S_20  and  C_38
REMARK    5  A    between atoms: S_34  and  C_37
REMARK                            x       y       z     vdW  Elec       q    Type
REMARK                         _______ _______ _______ _____ _____    ______ ____
ROOT
ATOM      1  C   UNL     1      47.777  31.863  38.978  0.00  0.00    +0.000 A 
ATOM      2  C   UNL     1      47.233  33.109  38.876  0.00  0.00    +0.000 A 
ATOM      3  C   UNL     1      47.783  34.026  37.996  0.00  0.00    +0.000 A 
ATOM      4  C   UNL     1      48.868  33.701  37.226  0.00  0.00    +0.000 A 
ATOM      5  C   UNL     1      49.455  32.444  37.298  0.00  0.00    +0.000 A 
ATOM      6  C   UNL     1      48.887  31.532  38.190  0.00  0.00    +0.000 A 
ATOM      7  H   UNL     1      47.379  35.013  37.891  0.00  0.00    +0.000 HD
ATOM      8  H   UNL     1      49.328  34.363  36.538  0.00  0.00    +0.000 HD
ATOM      9  H   UNL     1      50.297  32.094  36.745  0.00  0.00    +0.000 HD
ATOM     10  H   UNL     1      49.321  30.524  38.277  0.00  0.00    +0.000 HD
ENDROOT
BRANCH   2  14
ATOM     11 CL   UNL     1      45.278  35.273  43.138  0.00  0.00    +0.000 Cl
ATOM     12  C   UNL     1      45.152  34.521  41.566  0.00  0.00    +0.000 A 
ATOM     13  C   UNL     1      46.263  34.138  40.885  0.00  0.00    +0.000 A 
ATOM     14  C   UNL     1      46.074  33.561  39.637  0.00  0.00    +0.000 A 
ATOM     15  C   UNL     1      44.832  33.392  39.119  0.00  0.00    +0.000 A 
ATOM     16  C   UNL     1      43.721  33.772  39.794  0.00  0.00    +0.000 A 
ATOM     17  C   UNL     1      43.895  34.343  41.036  0.00  0.00    +0.000 A 
ATOM     18  H   UNL     1      44.713  32.950  38.149  0.00  0.00    +0.000 HD
ATOM     19  H   UNL     1      42.745  33.621  39.354  0.00  0.00    +0.000 HD
ATOM     20  H   UNL     1      42.995  34.644  41.571  0.00  0.00    +0.000 HD
BRANCH  13  23
ATOM     21  C   UNL     1      49.542  35.753  41.880  0.00  0.00    +0.000 A 
ATOM     22  C   UNL     1      48.281  35.548  41.311  0.00  0.00    +0.000 A 
ATOM     23  C   UNL     1      47.581  34.361  41.474  0.00  0.00    +0.000 A 
ATOM     24  N   UNL     1      48.210  33.442  42.213  0.00  0.00    +0.000 NA
ATOM     25  C   UNL     1      49.417  33.627  42.762  0.00  0.00    +0.000 A 
ATOM     26  N   UNL     1      50.077  34.772  42.597  0.00  0.00    +0.000 NA
ATOM     27  H   UNL     1      50.029  36.686  41.718  0.00  0.00    +0.000 HD
ATOM     28  H   UNL     1      47.827  36.344  40.719  0.00  0.00    +0.000 HD
ATOM     29  H   UNL     1      49.726  32.743  43.318  0.00  0.00    +0.000 HD
ENDBRANCH  13  23
ENDBRANCH   2  14
BRANCH   1  30
ATOM     30  S   UNL     1      47.201  30.722  40.085  0.00  0.00    +0.000 S 
ATOM     31  O   UNL     1      46.809  29.437  39.279  0.00  0.00    +0.000 OA
ATOM     32  O   UNL     1      48.368  30.266  40.913  0.00  0.00    +0.000 OA
BRANCH  30  34
ATOM     33  C   UNL     1      45.284  29.926  41.942  0.00  0.00    +0.000 A 
ATOM     34  C   UNL     1      45.734  30.857  40.974  0.00  0.00    +0.000 A 
ATOM     35  C   UNL     1      44.809  31.888  40.868  0.00  0.00    +0.000 A 
ATOM     36  H   UNL     1      45.027  32.691  40.177  0.00  0.00    +0.000 HD
ATOM     37  C   UNL     1      43.629  32.037  41.560  0.00  0.00    +0.000 A 
ATOM     38  H   UNL     1      42.978  32.882  41.399  0.00  0.00    +0.000 HD
ATOM     39  C   UNL     1      43.327  31.062  42.456  0.00  0.00    +0.000 A 
ATOM     40  C   UNL     1      44.128  29.977  42.686  0.00  0.00    +0.000 A 
BRANCH  33  42
ATOM     41  H   UNL     1      47.005  28.109  41.202  0.00  0.00    +0.000 HD
ATOM     42  S   UNL     1      46.355  28.554  42.296  0.00  0.00    +0.000 S 
ATOM     43  O   UNL     1      45.523  27.383  42.799  0.00  0.00    +0.000 OA
ATOM     44  O   UNL     1      47.217  28.961  43.433  0.00  0.00    +0.000 OA
ENDBRANCH  33  42
ENDBRANCH  30  34
ENDBRANCH   1  30
TORSDOF 5
