
 OpenBabel03252507223D

 50 53  0  0  1  0  0  0  0  0999 V2000
   47.1170   33.1500   43.1800 C   0  0  0  0  0  0  0  0  0  0  0  0
   48.3360   33.2010   43.5450 O   0  0  0  0  0  0  0  0  0  0  0  0
   46.6200   32.2130   42.2350 N   0  0  0  0  0  0  0  0  0  0  0  0
   45.4040   31.4050   42.2430 C   0  0  0  0  0  0  0  0  0  0  0  0
   44.6460   31.5890   40.9350 C   0  0  0  0  0  0  0  0  0  0  0  0
   45.4610   31.1040   39.7810 C   0  0  0  0  0  0  0  0  0  0  0  0
   46.8920   30.8430   40.2480 C   0  0  0  0  0  0  0  0  0  0  0  0
   47.4130   31.9680   41.0530 C   0  0  2  0  0  0  0  0  0  0  0  0
   44.7460   31.7450   43.0790 H   0  0  0  0  0  0  0  0  0  0  0  0
   45.6060   30.3250   42.3470 H   0  0  0  0  0  0  0  0  0  0  0  0
   44.4390   32.6930   40.8420 H   0  0  0  0  0  0  0  0  0  0  0  0
   43.6960   31.0080   41.0570 H   0  0  0  0  0  0  0  0  0  0  0  0
   45.1020   30.1530   39.3640 H   0  0  0  0  0  0  0  0  0  0  0  0
   45.4940   31.8270   38.9320 H   0  0  0  0  0  0  0  0  0  0  0  0
   46.8360   29.8920   40.7960 H   0  0  0  0  0  0  0  0  0  0  0  0
   47.4890   30.7420   39.3220 H   0  0  0  0  0  0  0  0  0  0  0  0
   47.3000   32.8970   40.4020 H   0  0  0  0  0  0  0  0  0  0  0  0
   45.8110   35.2010   42.9690 C   0  0  0  0  0  0  0  0  0  0  0  0
   46.2090   34.0960   43.7620 C   0  0  0  0  0  0  0  0  0  0  0  0
   45.7190   33.9660   45.0480 C   0  0  0  0  0  0  0  0  0  0  0  0
   44.8700   34.9160   45.4920 N   0  0  0  0  0  0  0  0  0  0  0  0
   44.4780   35.9760   44.7550 C   0  0  0  0  0  0  0  0  0  0  0  0
   44.9590   36.1010   43.4960 N   0  0  0  0  0  0  0  0  0  0  0  0
   46.2000   35.2900   41.9670 H   0  0  0  0  0  0  0  0  0  0  0  0
   43.7940   36.7070   45.1620 H   0  0  0  0  0  0  0  0  0  0  0  0
   46.1440   32.8350   45.8320 C   0  0  0  0  0  0  0  0  0  0  0  0
   45.6550   31.5970   45.5820 C   0  0  0  0  0  0  0  0  0  0  0  0
   46.0840   30.5360   46.3490 C   0  0  0  0  0  0  0  0  0  0  0  0
   47.0060   30.6770   47.3800 C   0  0  0  0  0  0  0  0  0  0  0  0
   47.4740   31.9640   47.5930 C   0  0  0  0  0  0  0  0  0  0  0  0
   47.0390   32.9810   46.8310 N   0  0  0  0  0  0  0  0  0  0  0  0
   44.9360   31.3320   44.8240 H   0  0  0  0  0  0  0  0  0  0  0  0
   45.7350   29.5200   46.2060 H   0  0  0  0  0  0  0  0  0  0  0  0
   47.3280   29.8170   47.9750 H   0  0  0  0  0  0  0  0  0  0  0  0
   48.2000   32.1030   48.3980 H   0  0  0  0  0  0  0  0  0  0  0  0
   48.8820   31.8220   41.3200 C   0  0  0  0  0  0  0  0  0  0  0  0
   49.2720   32.7400   41.8580 H   0  0  0  0  0  0  0  0  0  0  0  0
   49.1730   30.9160   41.8620 H   0  0  0  0  0  0  0  0  0  0  0  0
   50.9330   31.3310   39.8310 C   0  0  0  0  0  0  0  0  0  0  0  0
   49.6760   31.8360   40.0450 C   0  0  0  0  0  0  0  0  0  0  0  0
   49.0810   32.3540   38.8830 C   0  0  0  0  0  0  0  0  0  0  0  0
   48.0700   32.7820   38.9580 H   0  0  0  0  0  0  0  0  0  0  0  0
   49.6390   32.3840   37.6220 C   0  0  0  0  0  0  0  0  0  0  0  0
   49.0930   32.8060   36.7920 H   0  0  0  0  0  0  0  0  0  0  0  0
   50.9050   31.8540   37.4960 C   0  0  0  0  0  3  0  0  0  0  0  0
   51.5240   31.3410   38.5960 C   0  0  0  0  0  3  0  0  0  0  0  0
   51.8890   31.5510   42.2480 H   0  0  0  0  0  0  0  0  0  0  0  0
   51.8700   30.7240   41.1480 S   0  0  0  0  0  0  0  0  0  0  0  0
   53.3300   30.6330   40.7130 O   0  0  0  0  0  0  0  0  0  0  0  0
   51.5130   29.2980   41.5190 O   0  0  0  0  0  0  0  0  0  0  0  0
  1  2  2  0  0  0  0
  1 19  1  0  0  0  0
  3  4  1  0  0  0  0
  3  1  1  0  0  0  0
  4 10  1  0  0  0  0
  4  9  1  0  0  0  0
  5 12  1  0  0  0  0
  5  4  1  0  0  0  0
  6  7  1  0  0  0  0
  6  5  1  0  0  0  0
  7 15  1  0  0  0  0
  7  8  1  0  0  0  0
  8 17  1  6  0  0  0
  8 36  1  0  0  0  0
  8  3  1  0  0  0  0
 11  5  1  0  0  0  0
 13  6  1  0  0  0  0
 14  6  1  0  0  0  0
 16  7  1  0  0  0  0
 18 23  2  0  0  0  0
 18 19  1  0  0  0  0
 19 20  2  0  0  0  0
 20 21  1  0  0  0  0
 20 26  1  0  0  0  0
 22 25  1  0  0  0  0
 22 21  2  0  0  0  0
 23 22  1  0  0  0  0
 24 18  1  0  0  0  0
 26 31  1  0  0  0  0
 27 26  2  0  0  0  0
 27 28  1  0  0  0  0
 28 29  2  0  0  0  0
 29 30  1  0  0  0  0
 29 34  1  0  0  0  0
 30 35  1  0  0  0  0
 31 30  2  0  0  0  0
 32 27  1  0  0  0  0
 33 28  1  0  0  0  0
 36 37  1  0  0  0  0
 36 38  1  0  0  0  0
 39 40  1  0  0  0  0
 39 48  1  0  0  0  0
 40 36  1  0  0  0  0
 41 42  1  0  0  0  0
 41 40  2  0  0  0  0
 43 41  1  0  0  0  0
 44 43  1  0  0  0  0
 45 43  2  0  0  0  0
 45 46  1  0  0  0  0
 46 39  2  0  0  0  0
 48 50  2  0  0  0  0
 48 47  1  0  0  0  0
 49 48  2  0  0  0  0
M  END
>  <minimizedAffinity>
-5.20027828

>  <minimizedRMSD>
1.21633708

$$$$
