
 OpenBabel03252501463D

 26 27  0  0  0  0  0  0  0  0999 V2000
   37.9820   29.5350   39.2730 C   0  0  0  0  0  0  0  0  0  0  0  0
   36.9480   30.3510   39.7690 C   0  0  0  0  0  0  0  0  0  0  0  0
   35.9620   29.7500   40.5630 C   0  0  0  0  0  0  0  0  0  0  0  0
   36.0620   28.4160   40.8070 N   0  0  0  0  0  0  0  0  0  0  0  0
   37.0600   27.6650   40.3210 C   0  0  0  0  0  0  0  0  0  0  0  0
   37.9960   28.2410   39.5650 N   0  0  0  0  0  0  0  0  0  0  0  0
   38.7470   29.9940   38.6590 H   0  0  0  0  0  0  0  0  0  0  0  0
   35.1390   30.3200   40.9760 H   0  0  0  0  0  0  0  0  0  0  0  0
   37.8860   25.7570   41.6800 C   0  0  0  0  0  0  0  0  0  0  0  0
   37.1660   26.2300   40.5840 C   0  0  0  0  0  0  0  0  0  0  0  0
   36.5510   25.2920   39.7470 C   0  0  0  0  0  0  0  0  0  0  0  0
   35.9920   25.6920   38.8920 H   0  0  0  0  0  0  0  0  0  0  0  0
   36.6260   23.9360   39.9570 C   0  0  0  0  0  0  0  0  0  0  0  0
   36.1420   23.2250   39.2960 H   0  0  0  0  0  0  0  0  0  0  0  0
   37.3280   23.4480   41.0310 C   0  0  0  0  0  3  0  0  0  0  0  0
   37.9260   24.3900   41.8420 C   0  0  0  0  0  3  0  0  0  0  0  0
   39.2560   27.8950   42.1110 H   0  0  0  0  0  0  0  0  0  0  0  0
   38.6840   26.8550   42.7770 S   0  0  0  0  0  0  0  0  0  0  0  0
   37.6120   27.4420   43.6790 O   0  0  0  0  0  0  0  0  0  0  0  0
   39.6440   26.1350   43.6790 O   0  0  0  0  0  0  0  0  0  0  0  0
   36.8600   31.7800   39.4950 C   0  0  0  0  0  3  0  0  0  0  0  0
   37.6860   32.7020   39.9260 C   0  0  0  0  0  3  0  0  0  0  0  0
   37.4600   34.1480   39.5550 C   0  0  0  0  0  0  0  0  0  0  0  0
   37.7660   34.2620   38.4940 H   0  0  0  0  0  0  0  0  0  0  0  0
   38.0990   34.8100   40.1510 H   0  0  0  0  0  0  0  0  0  0  0  0
   36.3820   34.3850   39.6210 H   0  0  0  0  0  0  0  0  0  0  0  0
  1  6  2  0  0  0  0
  1  2  1  0  0  0  0
  2  3  2  0  0  0  0
  3  4  1  0  0  0  0
  3  8  1  0  0  0  0
  5 10  1  0  0  0  0
  5  4  2  0  0  0  0
  6  5  1  0  0  0  0
  7  1  1  0  0  0  0
  9 16  1  0  0  0  0
  9 18  1  0  0  0  0
 10  9  2  0  0  0  0
 11 13  2  0  0  0  0
 11 10  1  0  0  0  0
 12 11  1  0  0  0  0
 13 15  1  0  0  0  0
 14 13  1  0  0  0  0
 15 16  2  0  0  0  0
 17 18  1  0  0  0  0
 18 19  2  0  0  0  0
 18 20  2  0  0  0  0
 21  2  1  0  0  0  0
 21 22  2  0  0  0  0
 23 26  1  0  0  0  0
 23 22  1  0  0  0  0
 23 25  1  0  0  0  0
 24 23  1  0  0  0  0
M  END
>  <minimizedAffinity>
-4.66885757

$$$$

 OpenBabel03252501463D

 26 27  0  0  0  0  0  0  0  0999 V2000
   33.8610   29.2800   39.2010 C   0  0  0  0  0  0  0  0  0  0  0  0
   34.1320   28.5550   38.0250 C   0  0  0  0  0  0  0  0  0  0  0  0
   35.3000   27.7820   37.9870 C   0  0  0  0  0  0  0  0  0  0  0  0
   36.1000   27.7760   39.0870 N   0  0  0  0  0  0  0  0  0  0  0  0
   35.8150   28.4770   40.1930 C   0  0  0  0  0  0  0  0  0  0  0  0
   34.7020   29.2120   40.2240 N   0  0  0  0  0  0  0  0  0  0  0  0
   32.9600   29.8790   39.2360 H   0  0  0  0  0  0  0  0  0  0  0  0
   35.5690   27.2010   37.1140 H   0  0  0  0  0  0  0  0  0  0  0  0
   37.6710   29.4330   41.5390 C   0  0  0  0  0  0  0  0  0  0  0  0
   36.6770   28.4700   41.3740 C   0  0  0  0  0  0  0  0  0  0  0  0
   36.5300   27.5000   42.3720 C   0  0  0  0  0  0  0  0  0  0  0  0
   35.7410   26.7540   42.2170 H   0  0  0  0  0  0  0  0  0  0  0  0
   37.3180   27.4560   43.4970 C   0  0  0  0  0  0  0  0  0  0  0  0
   37.1880   26.6950   44.2600 H   0  0  0  0  0  0  0  0  0  0  0  0
   38.3020   28.3950   43.6800 C   0  0  0  0  0  3  0  0  0  0  0  0
   38.4290   29.3410   42.6840 C   0  0  0  0  0  3  0  0  0  0  0  0
   37.5640   30.2590   39.1010 H   0  0  0  0  0  0  0  0  0  0  0  0
   37.9230   30.6810   40.3450 S   0  0  0  0  0  0  0  0  0  0  0  0
   37.0030   31.8350   40.7040 O   0  0  0  0  0  0  0  0  0  0  0  0
   39.3210   31.2260   40.4010 O   0  0  0  0  0  0  0  0  0  0  0  0
   33.2600   28.5760   36.8570 C   0  0  0  0  0  3  0  0  0  0  0  0
   32.2830   29.4210   36.6380 C   0  0  0  0  0  3  0  0  0  0  0  0
   31.4640   29.3130   35.3740 C   0  0  0  0  0  0  0  0  0  0  0  0
   32.0900   29.7040   34.5470 H   0  0  0  0  0  0  0  0  0  0  0  0
   30.5690   29.9440   35.4320 H   0  0  0  0  0  0  0  0  0  0  0  0
   31.2500   28.2480   35.1590 H   0  0  0  0  0  0  0  0  0  0  0  0
  1  7  1  0  0  0  0
  1  6  1  0  0  0  0
  2  1  2  0  0  0  0
  3  2  1  0  0  0  0
  3  4  2  0  0  0  0
  4  5  1  0  0  0  0
  5  6  2  0  0  0  0
  5 10  1  0  0  0  0
  8  3  1  0  0  0  0
  9 16  1  0  0  0  0
 10  9  2  0  0  0  0
 10 11  1  0  0  0  0
 11 13  2  0  0  0  0
 12 11  1  0  0  0  0
 13 15  1  0  0  0  0
 13 14  1  0  0  0  0
 16 15  2  0  0  0  0
 17 18  1  0  0  0  0
 18 20  2  0  0  0  0
 18 19  2  0  0  0  0
 18  9  1  0  0  0  0
 21  2  1  0  0  0  0
 22 21  2  0  0  0  0
 23 25  1  0  0  0  0
 23 22  1  0  0  0  0
 24 23  1  0  0  0  0
 26 23  1  0  0  0  0
M  END
>  <minimizedAffinity>
-4.63101244

$$$$

 OpenBabel03252501463D

 26 27  0  0  0  0  0  0  0  0999 V2000
   38.2010   29.2440   42.8770 C   0  0  0  0  0  0  0  0  0  0  0  0
   38.1390   28.1490   41.9920 C   0  0  0  0  0  0  0  0  0  0  0  0
   38.7530   28.2840   40.7400 C   0  0  0  0  0  0  0  0  0  0  0  0
   39.3730   29.4600   40.4530 N   0  0  0  0  0  0  0  0  0  0  0  0
   39.4160   30.4840   41.3170 C   0  0  0  0  0  0  0  0  0  0  0  0
   38.8290   30.3520   42.5080 N   0  0  0  0  0  0  0  0  0  0  0  0
   37.7290   29.1450   43.8460 H   0  0  0  0  0  0  0  0  0  0  0  0
   38.7420   27.4820   40.0130 H   0  0  0  0  0  0  0  0  0  0  0  0
   39.3910   32.7850   40.3810 C   0  0  0  0  0  0  0  0  0  0  0  0
   40.0820   31.7490   41.0070 C   0  0  0  0  0  0  0  0  0  0  0  0
   41.4280   31.9560   41.3290 C   0  0  0  0  0  0  0  0  0  0  0  0
   41.9470   31.1230   41.8210 H   0  0  0  0  0  0  0  0  0  0  0  0
   42.0930   33.1270   41.0560 C   0  0  0  0  0  0  0  0  0  0  0  0
   43.1380   33.2680   41.3130 H   0  0  0  0  0  0  0  0  0  0  0  0
   41.4320   34.1610   40.4410 C   0  0  0  0  0  3  0  0  0  0  0  0
   40.1070   33.9350   40.1320 C   0  0  0  0  0  3  0  0  0  0  0  0
   36.9710   32.1450   40.9870 H   0  0  0  0  0  0  0  0  0  0  0  0
   37.7100   32.6140   39.9440 S   0  0  0  0  0  0  0  0  0  0  0  0
   37.1890   34.0040   39.6220 O   0  0  0  0  0  0  0  0  0  0  0  0
   37.5430   31.8020   38.6920 O   0  0  0  0  0  0  0  0  0  0  0  0
   37.4690   26.8970   42.3200 C   0  0  0  0  0  3  0  0  0  0  0  0
   37.5880   25.7640   41.6710 C   0  0  0  0  0  3  0  0  0  0  0  0
   36.8250   24.5480   42.1360 C   0  0  0  0  0  0  0  0  0  0  0  0
   37.3390   24.1690   43.0440 H   0  0  0  0  0  0  0  0  0  0  0  0
   36.8620   23.7500   41.3840 H   0  0  0  0  0  0  0  0  0  0  0  0
   35.7980   24.8410   42.4290 H   0  0  0  0  0  0  0  0  0  0  0  0
  1  7  1  0  0  0  0
  2 21  1  0  0  0  0
  2  1  2  0  0  0  0
  3  2  1  0  0  0  0
  4  3  2  0  0  0  0
  4  5  1  0  0  0  0
  5  6  2  0  0  0  0
  6  1  1  0  0  0  0
  8  3  1  0  0  0  0
  9 10  1  0  0  0  0
 10  5  1  0  0  0  0
 10 11  2  0  0  0  0
 11 12  1  0  0  0  0
 13 14  1  0  0  0  0
 13 11  1  0  0  0  0
 15 13  2  0  0  0  0
 16  9  2  0  0  0  0
 16 15  1  0  0  0  0
 18  9  1  0  0  0  0
 18 17  1  0  0  0  0
 19 18  2  0  0  0  0
 20 18  2  0  0  0  0
 22 23  1  0  0  0  0
 22 21  2  0  0  0  0
 23 26  1  0  0  0  0
 23 24  1  0  0  0  0
 25 23  1  0  0  0  0
M  END
>  <minimizedAffinity>
-4.50853014

$$$$

 OpenBabel03252501463D

 26 27  0  0  0  0  0  0  0  0999 V2000
   38.2080   28.3170   37.3650 C   0  0  0  0  0  0  0  0  0  0  0  0
   37.0420   28.7190   36.6840 C   0  0  0  0  0  0  0  0  0  0  0  0
   35.9100   29.0300   37.4490 C   0  0  0  0  0  0  0  0  0  0  0  0
   36.0040   28.9260   38.8020 N   0  0  0  0  0  0  0  0  0  0  0  0
   37.1280   28.5410   39.4220 C   0  0  0  0  0  0  0  0  0  0  0  0
   38.2030   28.2450   38.6890 N   0  0  0  0  0  0  0  0  0  0  0  0
   39.0850   28.0770   36.7790 H   0  0  0  0  0  0  0  0  0  0  0  0
   34.9820   29.3450   36.9890 H   0  0  0  0  0  0  0  0  0  0  0  0
   37.7650   29.4660   41.6380 C   0  0  0  0  0  0  0  0  0  0  0  0
   37.2270   28.4290   40.8770 C   0  0  0  0  0  0  0  0  0  0  0  0
   36.7860   27.2820   41.5470 C   0  0  0  0  0  0  0  0  0  0  0  0
   36.3680   26.4820   40.9240 H   0  0  0  0  0  0  0  0  0  0  0  0
   36.8610   27.1360   42.9110 C   0  0  0  0  0  0  0  0  0  0  0  0
   36.5140   26.2380   43.4120 H   0  0  0  0  0  0  0  0  0  0  0  0
   37.3860   28.1440   43.6800 C   0  0  0  0  0  3  0  0  0  0  0  0
   37.8140   29.2650   42.9990 C   0  0  0  0  0  3  0  0  0  0  0  0
   38.8080   30.6970   39.6290 H   0  0  0  0  0  0  0  0  0  0  0  0
   38.3380   30.9330   40.8850 S   0  0  0  0  0  0  0  0  0  0  0  0
   37.1430   31.8590   40.7440 O   0  0  0  0  0  0  0  0  0  0  0  0
   39.3260   31.6520   41.7580 O   0  0  0  0  0  0  0  0  0  0  0  0
   36.9640   28.8240   35.2320 C   0  0  0  0  0  3  0  0  0  0  0  0
   36.5110   29.8500   34.5550 C   0  0  0  0  0  3  0  0  0  0  0  0
   36.4940   29.8080   33.0460 C   0  0  0  0  0  0  0  0  0  0  0  0
   37.5400   29.9490   32.7060 H   0  0  0  0  0  0  0  0  0  0  0  0
   35.9030   30.6370   32.6370 H   0  0  0  0  0  0  0  0  0  0  0  0
   36.1610   28.8090   32.7050 H   0  0  0  0  0  0  0  0  0  0  0  0
  1  6  1  0  0  0  0
  2  1  2  0  0  0  0
  2  3  1  0  0  0  0
  3  4  2  0  0  0  0
  4  5  1  0  0  0  0
  5 10  1  0  0  0  0
  6  5  2  0  0  0  0
  7  1  1  0  0  0  0
  8  3  1  0  0  0  0
  9 16  1  0  0  0  0
 10 11  1  0  0  0  0
 10  9  2  0  0  0  0
 11 13  2  0  0  0  0
 12 11  1  0  0  0  0
 13 14  1  0  0  0  0
 13 15  1  0  0  0  0
 16 15  2  0  0  0  0
 17 18  1  0  0  0  0
 18  9  1  0  0  0  0
 18 20  2  0  0  0  0
 19 18  2  0  0  0  0
 21  2  1  0  0  0  0
 22 21  2  0  0  0  0
 23 22  1  0  0  0  0
 24 23  1  0  0  0  0
 25 23  1  0  0  0  0
 26 23  1  0  0  0  0
M  END
>  <minimizedAffinity>
-4.48990011

$$$$

 OpenBabel03252501463D

 26 27  0  0  0  0  0  0  0  0999 V2000
   37.7260   28.4980   37.1720 C   0  0  0  0  0  0  0  0  0  0  0  0
   36.5360   29.1640   36.8190 C   0  0  0  0  0  0  0  0  0  0  0  0
   35.3950   28.9220   37.5950 C   0  0  0  0  0  0  0  0  0  0  0  0
   35.5040   28.0620   38.6430 N   0  0  0  0  0  0  0  0  0  0  0  0
   36.6510   27.4430   38.9550 C   0  0  0  0  0  0  0  0  0  0  0  0
   37.7350   27.6750   38.2120 N   0  0  0  0  0  0  0  0  0  0  0  0
   38.6110   28.6810   36.5760 H   0  0  0  0  0  0  0  0  0  0  0  0
   34.4490   29.4000   37.3780 H   0  0  0  0  0  0  0  0  0  0  0  0
   37.1130   26.9780   41.3510 C   0  0  0  0  0  0  0  0  0  0  0  0
   36.7670   26.5170   40.0810 C   0  0  0  0  0  0  0  0  0  0  0  0
   36.5340   25.1470   39.9200 C   0  0  0  0  0  0  0  0  0  0  0  0
   36.2640   24.8130   38.9100 H   0  0  0  0  0  0  0  0  0  0  0  0
   36.6320   24.2430   40.9500 C   0  0  0  0  0  0  0  0  0  0  0  0
   36.4470   23.1840   40.8040 H   0  0  0  0  0  0  0  0  0  0  0  0
   36.9700   24.6740   42.2080 C   0  0  0  0  0  3  0  0  0  0  0  0
   37.1950   26.0280   42.3440 C   0  0  0  0  0  3  0  0  0  0  0  0
   36.4610   29.4550   41.0780 H   0  0  0  0  0  0  0  0  0  0  0  0
   37.4190   28.6710   41.6440 S   0  0  0  0  0  0  0  0  0  0  0  0
   37.3380   28.8860   43.1450 O   0  0  0  0  0  0  0  0  0  0  0  0
   38.8120   29.0590   41.2390 O   0  0  0  0  0  0  0  0  0  0  0  0
   36.4430   30.0830   35.6910 C   0  0  0  0  0  3  0  0  0  0  0  0
   36.3940   29.7490   34.4250 C   0  0  0  0  0  3  0  0  0  0  0  0
   36.2980   30.8230   33.3680 C   0  0  0  0  0  0  0  0  0  0  0  0
   35.2560   31.2040   33.3850 H   0  0  0  0  0  0  0  0  0  0  0  0
   36.4760   30.4060   32.3690 H   0  0  0  0  0  0  0  0  0  0  0  0
   36.9680   31.6640   33.6290 H   0  0  0  0  0  0  0  0  0  0  0  0
  1  6  1  0  0  0  0
  2  1  2  0  0  0  0
  2  3  1  0  0  0  0
  3  4  2  0  0  0  0
  4  5  1  0  0  0  0
  5 10  1  0  0  0  0
  6  5  2  0  0  0  0
  7  1  1  0  0  0  0
  8  3  1  0  0  0  0
  9 18  1  0  0  0  0
  9 16  1  0  0  0  0
 10  9  2  0  0  0  0
 11 10  1  0  0  0  0
 11 13  2  0  0  0  0
 12 11  1  0  0  0  0
 13 15  1  0  0  0  0
 14 13  1  0  0  0  0
 15 16  2  0  0  0  0
 17 18  1  0  0  0  0
 18 19  2  0  0  0  0
 20 18  2  0  0  0  0
 21  2  1  0  0  0  0
 22 21  2  0  0  0  0
 23 24  1  0  0  0  0
 23 26  1  0  0  0  0
 23 22  1  0  0  0  0
 25 23  1  0  0  0  0
M  END
>  <minimizedAffinity>
-4.46790886

$$$$

 OpenBabel03252501463D

 26 27  0  0  0  0  0  0  0  0999 V2000
   36.6410   28.1700   38.4220 C   0  0  0  0  0  0  0  0  0  0  0  0
   35.3940   28.7560   38.7130 C   0  0  0  0  0  0  0  0  0  0  0  0
   35.0520   28.9340   40.0600 C   0  0  0  0  0  0  0  0  0  0  0  0
   35.9430   28.5310   41.0050 N   0  0  0  0  0  0  0  0  0  0  0  0
   37.1230   27.9760   40.6980 C   0  0  0  0  0  0  0  0  0  0  0  0
   37.4440   27.8080   39.4140 N   0  0  0  0  0  0  0  0  0  0  0  0
   36.9110   28.0300   37.3830 H   0  0  0  0  0  0  0  0  0  0  0  0
   34.1090   29.3780   40.3530 H   0  0  0  0  0  0  0  0  0  0  0  0
   38.9480   28.4550   42.3130 C   0  0  0  0  0  0  0  0  0  0  0  0
   38.0800   27.5430   41.7160 C   0  0  0  0  0  0  0  0  0  0  0  0
   38.1520   26.2050   42.1190 C   0  0  0  0  0  0  0  0  0  0  0  0
   37.4570   25.5090   41.6320 H   0  0  0  0  0  0  0  0  0  0  0  0
   39.0350   25.7550   43.0710 C   0  0  0  0  0  0  0  0  0  0  0  0
   39.0750   24.7130   43.3700 H   0  0  0  0  0  0  0  0  0  0  0  0
   39.8990   26.6360   43.6730 C   0  0  0  0  0  3  0  0  0  0  0  0
   39.8100   27.9490   43.2600 C   0  0  0  0  0  3  0  0  0  0  0  0
   37.6610   30.6440   41.8830 H   0  0  0  0  0  0  0  0  0  0  0  0
   38.9270   30.1430   41.8710 S   0  0  0  0  0  0  0  0  0  0  0  0
   39.7100   30.8930   42.9350 O   0  0  0  0  0  0  0  0  0  0  0  0
   39.6430   30.3850   40.5740 O   0  0  0  0  0  0  0  0  0  0  0  0
   34.4550   29.1810   37.6830 C   0  0  0  0  0  3  0  0  0  0  0  0
   33.1740   28.9040   37.6440 C   0  0  0  0  0  3  0  0  0  0  0  0
   32.3280   29.4190   36.5040 C   0  0  0  0  0  0  0  0  0  0  0  0
   32.1660   30.5020   36.6840 H   0  0  0  0  0  0  0  0  0  0  0  0
   31.3430   28.9390   36.4990 H   0  0  0  0  0  0  0  0  0  0  0  0
   32.8820   29.3160   35.5520 H   0  0  0  0  0  0  0  0  0  0  0  0
  1  2  2  0  0  0  0
  1  6  1  0  0  0  0
  2  3  1  0  0  0  0
  3  8  1  0  0  0  0
  3  4  2  0  0  0  0
  5  4  1  0  0  0  0
  5 10  1  0  0  0  0
  6  5  2  0  0  0  0
  7  1  1  0  0  0  0
  9 16  1  0  0  0  0
 10 11  1  0  0  0  0
 10  9  2  0  0  0  0
 11 13  2  0  0  0  0
 12 11  1  0  0  0  0
 13 14  1  0  0  0  0
 13 15  1  0  0  0  0
 16 15  2  0  0  0  0
 18 17  1  0  0  0  0
 18  9  1  0  0  0  0
 18 19  2  0  0  0  0
 20 18  2  0  0  0  0
 21  2  1  0  0  0  0
 22 21  2  0  0  0  0
 23 24  1  0  0  0  0
 23 22  1  0  0  0  0
 25 23  1  0  0  0  0
 26 23  1  0  0  0  0
M  END
>  <minimizedAffinity>
-4.44900227

$$$$

 OpenBabel03252501463D

 26 27  0  0  0  0  0  0  0  0999 V2000
   38.0220   27.8600   39.2450 C   0  0  0  0  0  0  0  0  0  0  0  0
   37.2100   27.2180   40.2010 C   0  0  0  0  0  0  0  0  0  0  0  0
   36.6100   28.0110   41.1880 C   0  0  0  0  0  0  0  0  0  0  0  0
   36.8450   29.3500   41.1650 N   0  0  0  0  0  0  0  0  0  0  0  0
   37.6220   29.9320   40.2420 C   0  0  0  0  0  0  0  0  0  0  0  0
   38.1930   29.1740   39.3040 N   0  0  0  0  0  0  0  0  0  0  0  0
   38.4880   27.2530   38.4790 H   0  0  0  0  0  0  0  0  0  0  0  0
   35.9750   27.5810   41.9520 H   0  0  0  0  0  0  0  0  0  0  0  0
   39.0000   31.9110   40.8420 C   0  0  0  0  0  0  0  0  0  0  0  0
   37.8750   31.3730   40.2180 C   0  0  0  0  0  0  0  0  0  0  0  0
   36.9980   32.2510   39.5730 C   0  0  0  0  0  0  0  0  0  0  0  0
   36.1210   31.8010   39.0910 H   0  0  0  0  0  0  0  0  0  0  0  0
   37.1960   33.6100   39.5270 C   0  0  0  0  0  0  0  0  0  0  0  0
   36.5040   34.2750   39.0210 H   0  0  0  0  0  0  0  0  0  0  0  0
   38.2970   34.1610   40.1330 C   0  0  0  0  0  3  0  0  0  0  0  0
   39.1480   33.2770   40.7640 C   0  0  0  0  0  3  0  0  0  0  0  0
   40.5830   29.8790   40.8670 H   0  0  0  0  0  0  0  0  0  0  0  0
   40.1470   30.8890   41.6700 S   0  0  0  0  0  0  0  0  0  0  0  0
   41.3560   31.7490   41.9970 O   0  0  0  0  0  0  0  0  0  0  0  0
   39.6080   30.4050   42.9850 O   0  0  0  0  0  0  0  0  0  0  0  0
   36.9720   25.7800   40.2060 C   0  0  0  0  0  3  0  0  0  0  0  0
   37.5170   24.9100   41.0200 C   0  0  0  0  0  3  0  0  0  0  0  0
   37.1680   23.4460   40.9000 C   0  0  0  0  0  0  0  0  0  0  0  0
   36.1510   23.3190   41.3240 H   0  0  0  0  0  0  0  0  0  0  0  0
   37.8500   22.8300   41.4980 H   0  0  0  0  0  0  0  0  0  0  0  0
   37.1250   23.1600   39.8320 H   0  0  0  0  0  0  0  0  0  0  0  0
  1  6  2  0  0  0  0
  1  2  1  0  0  0  0
  2 21  1  0  0  0  0
  2  3  2  0  0  0  0
  3  8  1  0  0  0  0
  4  3  1  0  0  0  0
  5  4  2  0  0  0  0
  6  5  1  0  0  0  0
  7  1  1  0  0  0  0
  9 18  1  0  0  0  0
 10  5  1  0  0  0  0
 10  9  2  0  0  0  0
 11 10  1  0  0  0  0
 12 11  1  0  0  0  0
 13 11  2  0  0  0  0
 13 15  1  0  0  0  0
 14 13  1  0  0  0  0
 15 16  2  0  0  0  0
 16  9  1  0  0  0  0
 17 18  1  0  0  0  0
 18 19  2  0  0  0  0
 18 20  2  0  0  0  0
 21 22  2  0  0  0  0
 23 22  1  0  0  0  0
 23 24  1  0  0  0  0
 23 25  1  0  0  0  0
 26 23  1  0  0  0  0
M  END
>  <minimizedAffinity>
-4.38551855

$$$$

 OpenBabel03252501463D

 26 27  0  0  0  0  0  0  0  0999 V2000
   35.4340   27.8580   37.8680 C   0  0  0  0  0  0  0  0  0  0  0  0
   34.2230   28.5750   37.9410 C   0  0  0  0  0  0  0  0  0  0  0  0
   33.9350   29.2540   39.1320 C   0  0  0  0  0  0  0  0  0  0  0  0
   34.8390   29.1830   40.1450 N   0  0  0  0  0  0  0  0  0  0  0  0
   35.9830   28.4930   40.0460 C   0  0  0  0  0  0  0  0  0  0  0  0
   36.2540   27.8470   38.9100 N   0  0  0  0  0  0  0  0  0  0  0  0
   35.6620   27.3320   36.9500 H   0  0  0  0  0  0  0  0  0  0  0  0
   33.0220   29.8240   39.2540 H   0  0  0  0  0  0  0  0  0  0  0  0
   37.8560   29.4550   41.3630 C   0  0  0  0  0  0  0  0  0  0  0  0
   36.9550   28.4160   41.1370 C   0  0  0  0  0  0  0  0  0  0  0  0
   37.0090   27.3030   41.9820 C   0  0  0  0  0  0  0  0  0  0  0  0
   36.2880   26.5010   41.7800 H   0  0  0  0  0  0  0  0  0  0  0  0
   37.9050   27.1900   43.0180 C   0  0  0  0  0  0  0  0  0  0  0  0
   37.9300   26.3170   43.6630 H   0  0  0  0  0  0  0  0  0  0  0  0
   38.8000   28.2010   43.2600 C   0  0  0  0  0  3  0  0  0  0  0  0
   38.7300   29.2880   42.4140 C   0  0  0  0  0  3  0  0  0  0  0  0
   37.4920   30.5910   39.0810 H   0  0  0  0  0  0  0  0  0  0  0  0
   37.8600   30.8820   40.3590 S   0  0  0  0  0  0  0  0  0  0  0  0
   36.8090   31.8250   40.9190 O   0  0  0  0  0  0  0  0  0  0  0  0
   39.1680   31.6150   40.4420 O   0  0  0  0  0  0  0  0  0  0  0  0
   33.2680   28.6380   36.8410 C   0  0  0  0  0  3  0  0  0  0  0  0
   32.0740   29.1780   36.8850 C   0  0  0  0  0  3  0  0  0  0  0  0
   31.1970   29.1640   35.6560 C   0  0  0  0  0  0  0  0  0  0  0  0
   31.6000   29.9290   34.9620 H   0  0  0  0  0  0  0  0  0  0  0  0
   30.1700   29.4580   35.9050 H   0  0  0  0  0  0  0  0  0  0  0  0
   31.2740   28.1810   35.1550 H   0  0  0  0  0  0  0  0  0  0  0  0
  1  2  2  0  0  0  0
  1  6  1  0  0  0  0
  2  3  1  0  0  0  0
  3  8  1  0  0  0  0
  3  4  2  0  0  0  0
  5  4  1  0  0  0  0
  5 10  1  0  0  0  0
  6  5  2  0  0  0  0
  7  1  1  0  0  0  0
  9 16  1  0  0  0  0
 10  9  2  0  0  0  0
 10 11  1  0  0  0  0
 11 13  2  0  0  0  0
 12 11  1  0  0  0  0
 13 15  1  0  0  0  0
 13 14  1  0  0  0  0
 16 15  2  0  0  0  0
 17 18  1  0  0  0  0
 18 20  2  0  0  0  0
 18 19  2  0  0  0  0
 18  9  1  0  0  0  0
 21 22  2  0  0  0  0
 21  2  1  0  0  0  0
 23 25  1  0  0  0  0
 23 22  1  0  0  0  0
 24 23  1  0  0  0  0
 26 23  1  0  0  0  0
M  END
>  <minimizedAffinity>
-4.3554678

$$$$

 OpenBabel03252501463D

 26 27  0  0  0  0  0  0  0  0999 V2000
   40.7130   30.3270   39.2060 C   0  0  0  0  0  0  0  0  0  0  0  0
   40.8900   31.6820   39.5480 C   0  0  0  0  0  0  0  0  0  0  0  0
   40.2980   32.1410   40.7330 C   0  0  0  0  0  0  0  0  0  0  0  0
   39.5900   31.2540   41.4810 N   0  0  0  0  0  0  0  0  0  0  0  0
   39.4390   29.9700   41.1290 C   0  0  0  0  0  0  0  0  0  0  0  0
   40.0030   29.5370   40.0000 N   0  0  0  0  0  0  0  0  0  0  0  0
   41.1680   29.9670   38.2930 H   0  0  0  0  0  0  0  0  0  0  0  0
   40.3950   33.1710   41.0540 H   0  0  0  0  0  0  0  0  0  0  0  0
   37.2980   28.8830   41.7680 C   0  0  0  0  0  0  0  0  0  0  0  0
   38.6760   29.0160   41.9340 C   0  0  0  0  0  0  0  0  0  0  0  0
   39.3040   28.2120   42.8920 C   0  0  0  0  0  0  0  0  0  0  0  0
   40.3880   28.3390   43.0020 H   0  0  0  0  0  0  0  0  0  0  0  0
   38.6260   27.3050   43.6700 C   0  0  0  0  0  0  0  0  0  0  0  0
   39.1310   26.6900   44.4080 H   0  0  0  0  0  0  0  0  0  0  0  0
   37.2700   27.1560   43.5230 C   0  0  0  0  0  3  0  0  0  0  0  0
   36.6720   27.9580   42.5730 C   0  0  0  0  0  3  0  0  0  0  0  0
   37.1390   29.9690   39.4380 H   0  0  0  0  0  0  0  0  0  0  0  0
   36.4340   29.8440   40.5960 S   0  0  0  0  0  0  0  0  0  0  0  0
   35.1570   29.0940   40.2580 O   0  0  0  0  0  0  0  0  0  0  0  0
   36.0070   31.1640   41.1700 O   0  0  0  0  0  0  0  0  0  0  0  0
   41.6540   32.6170   38.7310 C   0  0  0  0  0  3  0  0  0  0  0  0
   42.8070   33.1540   39.0470 C   0  0  0  0  0  3  0  0  0  0  0  0
   43.4780   34.1100   38.0900 C   0  0  0  0  0  0  0  0  0  0  0  0
   43.9020   33.5000   37.2660 H   0  0  0  0  0  0  0  0  0  0  0  0
   44.3140   34.6280   38.5750 H   0  0  0  0  0  0  0  0  0  0  0  0
   42.7230   34.7900   37.6510 H   0  0  0  0  0  0  0  0  0  0  0  0
  1  2  2  0  0  0  0
  1  6  1  0  0  0  0
  2  3  1  0  0  0  0
  3  8  1  0  0  0  0
  3  4  2  0  0  0  0
  5  4  1  0  0  0  0
  5 10  1  0  0  0  0
  6  5  2  0  0  0  0
  7  1  1  0  0  0  0
  9 10  2  0  0  0  0
  9 16  1  0  0  0  0
 10 11  1  0  0  0  0
 11 12  1  0  0  0  0
 11 13  2  0  0  0  0
 13 14  1  0  0  0  0
 15 13  1  0  0  0  0
 16 15  2  0  0  0  0
 17 18  1  0  0  0  0
 18 20  2  0  0  0  0
 18  9  1  0  0  0  0
 19 18  2  0  0  0  0
 21 22  2  0  0  0  0
 21  2  1  0  0  0  0
 23 25  1  0  0  0  0
 23 22  1  0  0  0  0
 24 23  1  0  0  0  0
 26 23  1  0  0  0  0
M  END
>  <minimizedAffinity>
-4.32087088

$$$$
