
 OpenBabel03242517233D

 46 49  0  0  1  0  0  0  0  0999 V2000
   44.5530   35.5060   45.3520 C   0  0  0  0  0  0  0  0  0  0  0  0
   44.2790   35.8900   44.0300 C   0  0  0  0  0  0  0  0  0  0  0  0
   44.7300   35.0730   42.9750 C   0  0  0  0  0  0  0  0  0  0  0  0
   45.4120   33.9440   43.3040 N   0  0  0  0  0  0  0  0  0  0  0  0
   45.6580   33.6030   44.5930 C   0  0  0  0  0  0  0  0  0  0  0  0
   45.2280   34.3850   45.6240 N   0  0  0  0  0  0  0  0  0  0  0  0
   46.3860   32.3920   44.8410 N   0  0  0  0  0  0  0  0  0  0  0  0
   46.3720   31.9090   46.2200 C   0  0  0  0  0  0  0  0  0  0  0  0
   47.3800   30.8800   46.5380 C   0  0  0  0  0  0  0  0  0  0  0  0
   47.6580   30.0150   45.3530 C   0  0  0  0  0  0  0  0  0  0  0  0
   48.2050   30.9100   44.2850 C   0  0  0  0  0  0  0  0  0  0  0  0
   47.0760   31.7260   43.7630 C   0  0  2  0  0  0  0  0  0  0  0  0
   44.1690   36.1930   46.0990 H   0  0  0  0  0  0  0  0  0  0  0  0
   43.7410   36.7790   43.7280 H   0  0  0  0  0  0  0  0  0  0  0  0
   44.5970   35.2390   41.9340 H   0  0  0  0  0  0  0  0  0  0  0  0
   46.5720   32.8150   46.8390 H   0  0  0  0  0  0  0  0  0  0  0  0
   45.3340   31.6010   46.4310 H   0  0  0  0  0  0  0  0  0  0  0  0
   48.3100   31.3170   46.9630 H   0  0  0  0  0  0  0  0  0  0  0  0
   46.9840   30.2050   47.3350 H   0  0  0  0  0  0  0  0  0  0  0  0
   48.3280   29.1680   45.6070 H   0  0  0  0  0  0  0  0  0  0  0  0
   46.7090   29.5640   45.0150 H   0  0  0  0  0  0  0  0  0  0  0  0
   48.7820   30.4150   43.5020 H   0  0  0  0  0  0  0  0  0  0  0  0
   48.9180   31.6380   44.7710 H   0  0  0  0  0  0  0  0  0  0  0  0
   46.3170   31.0300   43.3160 H   0  0  0  0  0  0  0  0  0  0  0  0
   46.4000   31.3230   41.0080 F   0  0  0  0  0  0  0  0  0  0  0  0
   47.1550   32.4310   41.3130 C   0  0  0  0  0  0  0  0  0  0  0  0
   47.4760   32.6200   42.6480 C   0  0  0  0  0  0  0  0  0  0  0  0
   48.2410   33.7540   42.9090 C   0  0  0  0  0  0  0  0  0  0  0  0
   48.6580   34.6340   41.9360 C   0  0  0  0  0  0  0  0  0  0  0  0
   48.3110   34.4020   40.6180 C   0  0  0  0  0  0  0  0  0  0  0  0
   47.5640   33.3010   40.3330 C   0  0  0  0  0  0  0  0  0  0  0  0
   48.5470   33.9920   43.9320 H   0  0  0  0  0  0  0  0  0  0  0  0
   49.2520   35.5000   42.1990 H   0  0  0  0  0  0  0  0  0  0  0  0
   48.6100   35.0580   39.8100 H   0  0  0  0  0  0  0  0  0  0  0  0
   47.9970   32.3620   38.0290 C   0  0  0  0  0  0  0  0  0  0  0  0
   47.1630   32.9980   38.9530 C   0  0  0  0  0  0  0  0  0  0  0  0
   45.8860   33.3760   38.5820 C   0  0  0  0  0  0  0  0  0  0  0  0
   45.1830   33.8780   39.2570 H   0  0  0  0  0  0  0  0  0  0  0  0
   45.4000   33.1430   37.3070 C   0  0  0  0  0  0  0  0  0  0  0  0
   44.3920   33.4430   37.0210 H   0  0  0  0  0  0  0  0  0  0  0  0
   46.2450   32.5080   36.4010 C   0  0  0  0  0  0  0  0  0  0  0  0
   47.5080   32.1300   36.7570 C   0  0  0  0  0  0  0  0  0  0  0  0
   50.1130   32.9120   39.4180 H   0  0  0  0  0  0  0  0  0  0  0  0
   49.5840   31.9260   38.5940 S   0  0  0  0  0  0  0  0  0  0  0  0
   49.6500   30.5850   39.2330 O   0  0  0  0  0  0  0  0  0  0  0  0
   50.5340   31.8620   37.4050 O   0  0  0  0  0  0  0  0  0  0  0  0
  1  6  1  0  0  0  0
  1 13  1  0  0  0  0
  2  1  2  0  0  0  0
  3  4  2  0  0  0  0
  3  2  1  0  0  0  0
  4  5  1  0  0  0  0
  5  7  1  0  0  0  0
  5  6  2  0  0  0  0
  7  8  1  0  0  0  0
  8 17  1  0  0  0  0
  8  9  1  0  0  0  0
  8 16  1  0  0  0  0
  9 18  1  0  0  0  0
  9 19  1  0  0  0  0
 10 20  1  0  0  0  0
 10  9  1  0  0  0  0
 11 23  1  0  0  0  0
 11 10  1  0  0  0  0
 12 24  1  6  0  0  0
 12 11  1  0  0  0  0
 12  7  1  0  0  0  0
 14  2  1  0  0  0  0
 15  3  1  0  0  0  0
 21 10  1  0  0  0  0
 22 11  1  0  0  0  0
 25 26  1  0  0  0  0
 26 27  1  0  0  0  0
 27 28  2  0  0  0  0
 27 12  1  0  0  0  0
 28 32  1  0  0  0  0
 29 33  1  0  0  0  0
 29 28  1  0  0  0  0
 30 29  2  0  0  0  0
 31 30  1  0  0  0  0
 31 26  2  0  0  0  0
 34 30  1  0  0  0  0
 35 44  1  0  0  0  0
 35 36  1  0  0  0  0
 36 31  1  0  0  0  0
 37 36  2  0  0  0  0
 37 38  1  0  0  0  0
 39 37  1  0  0  0  0
 40 39  1  0  0  0  0
 41 42  1  0  0  0  0
 41 39  2  0  0  0  0
 42 35  2  0  0  0  0
 44 45  2  0  0  0  0
 44 43  1  0  0  0  0
 46 44  2  0  0  0  0
M  END
>  <minimizedAffinity>
-5.68169403

>  <minimizedRMSD>
2.34261107

$$$$
