
 OpenBabel03252504493D

 27 28  0  0  0  0  0  0  0  0999 V2000
   44.7980   32.9760   42.9030 C   0  0  0  0  0  0  0  0  0  0  0  0
   45.8440   33.8950   42.8740 C   0  0  0  0  0  0  0  0  0  0  0  0
   45.6650   35.0540   42.1180 C   0  0  0  0  0  0  0  0  0  0  0  0
   44.4770   35.2120   41.4570 N   0  0  0  0  0  0  0  0  0  0  0  0
   43.4870   34.3050   41.5060 C   0  0  0  0  0  0  0  0  0  0  0  0
   43.6490   33.1860   42.2300 N   0  0  0  0  0  0  0  0  0  0  0  0
   44.8320   32.0310   43.4650 H   0  0  0  0  0  0  0  0  0  0  0  0
   46.4380   35.8060   42.0570 H   0  0  0  0  0  0  0  0  0  0  0  0
   41.9840   33.9610   39.5550 C   0  0  0  0  0  0  0  0  0  0  0  0
   42.2670   34.5920   40.7540 C   0  0  0  0  0  0  0  0  0  0  0  0
   41.3960   35.5230   41.2800 C   0  0  0  0  0  0  0  0  0  0  0  0
   41.5610   36.0600   42.2260 H   0  0  0  0  0  0  0  0  0  0  0  0
   40.2030   35.8710   40.6380 C   0  0  0  0  0  0  0  0  0  0  0  0
   39.5050   36.5980   41.0330 H   0  0  0  0  0  0  0  0  0  0  0  0
   39.9480   35.2250   39.4480 C   0  0  0  0  0  0  0  0  0  0  0  0
   40.7980   34.2900   38.8930 C   0  0  0  0  0  0  0  0  0  0  0  0
   43.7940   32.1190   39.8580 H   0  0  0  0  0  0  0  0  0  0  0  0
   43.0910   32.7800   38.8900 S   0  0  0  0  0  0  0  0  0  0  0  0
   42.3690   31.8210   37.9740 O   0  0  0  0  0  0  0  0  0  0  0  0
   44.1220   33.5280   38.0590 O   0  0  0  0  0  0  0  0  0  0  0  0
   47.0500   33.6230   43.6160 C   0  0  0  0  0  0  0  0  0  0  0  0
   47.2330   32.5410   43.7010 H   0  0  0  0  0  0  0  0  0  0  0  0
   46.9800   34.1180   44.6200 H   0  0  0  0  0  0  0  0  0  0  0  0
   48.2260   34.2650   42.9100 C   0  0  0  0  0  0  0  0  0  0  0  0
   47.9770   35.1930   42.3970 H   0  0  0  0  0  0  0  0  0  0  0  0
   48.6530   33.4890   42.2290 H   0  0  0  0  0  0  0  0  0  0  0  0
   49.0150   34.4180   43.7010 H   0  0  0  0  0  0  0  0  0  0  0  0
  1  7  1  0  0  0  0
  2  1  1  0  0  0  0
  2 21  1  0  0  0  0
  3  2  2  0  0  0  0
  4  5  2  0  0  0  0
  4  3  1  0  0  0  0
  5  6  1  0  0  0  0
  6  1  2  0  0  0  0
  8  3  1  0  0  0  0
  9 10  1  0  0  0  0
 10 11  2  0  0  0  0
 10  5  1  0  0  0  0
 11 12  1  0  0  0  0
 13 14  1  0  0  0  0
 13 11  1  0  0  0  0
 15 13  2  0  0  0  0
 16 15  1  0  0  0  0
 16  9  2  0  0  0  0
 18  9  1  0  0  0  0
 18 17  1  0  0  0  0
 19 18  2  0  0  0  0
 20 18  2  0  0  0  0
 21 22  1  0  0  0  0
 21 23  1  0  0  0  0
 24 21  1  0  0  0  0
 24 27  1  0  0  0  0
 25 24  1  0  0  0  0
 26 24  1  0  0  0  0
M  END
>  <minimizedAffinity>
-4.384305

>  <minimizedRMSD>
7.75797224

$$$$
