
 OpenBabel03252506563D

 41 45  0  0  0  0  0  0  0  0999 V2000
   47.2270   31.3640   45.1890 C   0  0  0  0  0  0  0  0  0  0  0  0
   46.8630   32.7030   45.1760 C   0  0  0  0  0  0  0  0  0  0  0  0
   46.2600   33.3260   46.2460 C   0  0  0  0  0  0  0  0  0  0  0  0
   45.9920   32.6050   47.4060 C   0  0  0  0  0  0  0  0  0  0  0  0
   45.4290   32.8730   48.6170 N   0  0  0  0  0  0  0  0  0  0  0  0
   45.4470   31.7380   49.3510 C   0  0  0  0  0  0  0  0  0  0  0  0
   46.0180   30.7770   48.5900 N   0  0  0  0  0  0  0  0  0  0  0  0
   46.3600   31.2840   47.3950 C   0  0  0  0  0  0  0  0  0  0  0  0
   46.9640   30.6350   46.3400 C   0  0  0  0  0  0  0  0  0  0  0  0
   47.7030   30.9010   44.3230 H   0  0  0  0  0  0  0  0  0  0  0  0
   45.9690   34.3700   46.2530 H   0  0  0  0  0  0  0  0  0  0  0  0
   45.0880   33.8390   48.8040 H   0  0  0  0  0  0  0  0  0  0  0  0
   45.0520   31.7020   50.3550 H   0  0  0  0  0  0  0  0  0  0  0  0
   46.4860   35.1580   42.4680 C   0  0  0  0  0  0  0  0  0  0  0  0
   47.6430   34.9600   41.7130 C   0  0  0  0  0  0  0  0  0  0  0  0
   48.5460   33.9900   42.1300 C   0  0  0  0  0  0  0  0  0  0  0  0
   48.2710   33.2650   43.2630 N   0  0  0  0  0  0  0  0  0  0  0  0
   47.1310   33.4920   43.9680 C   0  0  0  0  0  0  0  0  0  0  0  0
   46.2350   34.4350   43.5790 N   0  0  0  0  0  0  0  0  0  0  0  0
   45.8040   35.9190   42.1180 H   0  0  0  0  0  0  0  0  0  0  0  0
   47.8940   35.5100   40.8160 H   0  0  0  0  0  0  0  0  0  0  0  0
   49.4690   33.7510   41.6260 H   0  0  0  0  0  0  0  0  0  0  0  0
   47.3140   29.2210   46.4390 C   0  0  0  0  0  0  0  0  0  0  0  0
   48.3400   28.6110   45.7400 C   0  0  0  0  0  0  0  0  0  0  0  0
   48.3070   27.2780   46.1400 C   0  0  0  0  0  0  0  0  0  0  0  0
   47.2780   27.1520   47.0460 C   0  0  0  0  0  0  0  0  0  0  0  0
   46.7240   28.3370   47.1850 O   0  0  0  0  0  0  0  0  0  0  0  0
   49.0010   29.0880   45.0470 H   0  0  0  0  0  0  0  0  0  0  0  0
   48.9790   26.4830   45.7930 H   0  0  0  0  0  0  0  0  0  0  0  0
   45.7000   25.2980   47.3630 C   0  0  0  0  0  0  0  0  0  0  0  0
   46.8700   25.9300   47.7340 C   0  0  0  0  0  0  0  0  0  0  0  0
   47.6610   25.4240   48.7440 C   0  0  0  0  0  0  0  0  0  0  0  0
   48.5940   25.9190   49.0460 H   0  0  0  0  0  0  0  0  0  0  0  0
   47.3350   24.2790   49.4320 C   0  0  0  0  0  0  0  0  0  0  0  0
   47.9370   23.8600   50.2280 H   0  0  0  0  0  0  0  0  0  0  0  0
   46.1510   23.6380   49.0600 C   0  0  0  0  0  3  0  0  0  0  0  0
   45.3720   24.1490   48.0530 C   0  0  0  0  0  3  0  0  0  0  0  0
   45.3850   26.4580   45.0510 H   0  0  0  0  0  0  0  0  0  0  0  0
   44.6790   25.9190   46.0850 S   0  0  0  0  0  0  0  0  0  0  0  0
   43.8650   24.7600   45.5400 O   0  0  0  0  0  0  0  0  0  0  0  0
   43.6730   26.9010   46.6640 O   0  0  0  0  0  0  0  0  0  0  0  0
  1  9  1  0  0  0  0
  2  1  2  0  0  0  0
  2  3  1  0  0  0  0
  3 11  1  0  0  0  0
  3  4  2  0  0  0  0
  4  5  1  0  0  0  0
  5 12  1  0  0  0  0
  5  6  1  0  0  0  0
  6 13  1  0  0  0  0
  7  6  2  0  0  0  0
  8  4  1  0  0  0  0
  8  7  1  0  0  0  0
  9 23  1  0  0  0  0
  9  8  2  0  0  0  0
 10  1  1  0  0  0  0
 14 19  1  0  0  0  0
 15 16  1  0  0  0  0
 15 14  2  0  0  0  0
 16 17  2  0  0  0  0
 17 18  1  0  0  0  0
 18  2  1  0  0  0  0
 19 18  2  0  0  0  0
 20 14  1  0  0  0  0
 21 15  1  0  0  0  0
 22 16  1  0  0  0  0
 23 27  1  0  0  0  0
 24 25  1  0  0  0  0
 24 23  2  0  0  0  0
 25 26  2  0  0  0  0
 26 27  1  0  0  0  0
 26 31  1  0  0  0  0
 28 24  1  0  0  0  0
 29 25  1  0  0  0  0
 30 31  2  0  0  0  0
 30 37  1  0  0  0  0
 31 32  1  0  0  0  0
 32 33  1  0  0  0  0
 32 34  2  0  0  0  0
 34 35  1  0  0  0  0
 36 34  1  0  0  0  0
 37 36  2  0  0  0  0
 38 39  1  0  0  0  0
 39 41  2  0  0  0  0
 39 30  1  0  0  0  0
 40 39  2  0  0  0  0
M  END
>  <minimizedAffinity>
-5.96152925

>  <minimizedRMSD>
1.71237838

$$$$
