
     RDKit          3D

 30 32  0  0  0  0  0  0  0  0999 V2000
   46.2298   35.4343   42.7575 C   0  0  0  0  0  0  0  0  0  0  0  0
   47.2892   34.5009   42.9180 C   0  0  0  0  0  0  0  0  0  0  0  0
   47.1852   33.5919   43.9907 C   0  0  0  0  0  0  0  0  0  0  0  0
   46.0831   33.6622   44.8036 N   0  0  0  0  0  0  0  0  0  0  0  0
   45.1115   34.5633   44.6073 C   0  0  0  0  0  0  0  0  0  0  0  0
   45.1848   35.4524   43.5807 N   0  0  0  0  0  0  0  0  0  0  0  0
   48.4687   34.4634   42.0229 C   0  0  1  0  0  0  0  0  0  0  0  0
   48.9264   35.7053   41.3912 C   0  0  0  0  0  0  0  0  0  0  0  0
   49.7443   35.0673   42.4722 C   0  0  2  0  0  0  0  0  0  0  0  0
   46.3436   36.1099   41.9309 H   0  0  0  0  0  0  0  0  0  0  0  0
   47.9484   32.8493   44.1824 H   0  0  0  0  0  0  0  0  0  0  0  0
   44.2720   34.5578   45.2905 H   0  0  0  0  0  0  0  0  0  0  0  0
   48.4641   33.5570   41.3822 H   0  0  0  0  0  0  0  0  0  0  0  0
   49.2999   35.7047   40.3467 H   0  0  0  0  0  0  0  0  0  0  0  0
   48.3030   36.6032   41.5894 H   0  0  0  0  0  0  0  0  0  0  0  0
   49.6712   35.6150   43.4482 H   0  0  0  0  0  0  0  0  0  0  0  0
   48.8088   32.5562   42.0382 H   0  0  0  0  0  0  0  0  0  0  0  0
   49.8154   32.3818   41.1649 S   0  0  0  0  0  0  0  0  0  0  0  0
   49.3714   32.4516   39.7118 O   0  0  0  0  0  0  0  0  0  0  0  0
   50.2362   30.9258   41.3338 O   0  0  0  0  0  0  0  0  0  0  0  0
   51.1960   33.3857   41.4433 C   0  0  0  0  0  0  0  0  0  0  0  0
   51.0744   34.6340   42.0642 C   0  0  0  0  0  0  0  0  0  0  0  0
   52.2586   35.3250   42.2211 C   0  0  0  0  0  0  0  0  0  0  0  0
   52.1922   36.2931   42.6986 H   0  0  0  0  0  0  0  0  0  0  0  0
   53.4927   34.8634   41.8139 C   0  0  0  0  0  0  0  0  0  0  0  0
   54.3489   35.5040   41.9953 H   0  0  0  0  0  0  0  0  0  0  0  0
   53.5619   33.6266   41.2063 C   0  0  0  0  0  0  0  0  0  0  0  0
   52.4255   32.8743   41.0128 C   0  0  0  0  0  0  0  0  0  0  0  0
   54.5324   33.2690   40.8887 H   0  0  0  0  0  0  0  0  0  0  0  0
   52.4976   31.9141   40.5384 H   0  0  0  0  0  0  0  0  0  0  0  0
  1  2  2  0
  1  6  1  0
  2  3  1  0
  3  4  2  0
  5  4  1  0
  6  5  2  0
  7  9  1  0
  7  2  1  0
  8  7  1  0
  8  9  1  0
  1 10  1  0
  3 11  1  0
  5 12  1  0
  7 13  1  6
  8 14  1  0
  8 15  1  0
  9 16  1  1
 17 18  1  0
 18 19  2  0
 18 20  2  0
 18 21  1  0
 21 22  2  0
 22 23  1  0
 23 24  1  0
 23 25  2  0
 25 26  1  0
 25 27  1  0
 27 28  2  0
 28 21  1  0
 27 29  1  0
 28 30  1  0
  9 22  1  0
M  ISO  8  10  14  11  14  12  14  13  13  14  13  15  13  16  13  17  12
M  ISO  2  24  15  26  16
M  END
>  <DihAtoms>  (1) 
6,8,21,20

>  <DihDeg>  (1) 
-89.93222440013294

$$$$
