REMARK  Name = 
REMARK  5 active torsions:
REMARK  status: ('A' for Active; 'I' for Inactive)
REMARK    1  A    between atoms: C_1  and  C_4
REMARK    2  A    between atoms: C_1  and  C_8
REMARK    3  A    between atoms: C_8  and  C_9
REMARK    4  A    between atoms: C_14  and  C_31
REMARK    5  A    between atoms: S_27  and  C_30
REMARK                            x       y       z     vdW  Elec       q    Type
REMARK                         _______ _______ _______ _____ _____    ______ ____
ROOT
ATOM      1  C   UNL     1      46.056  34.383  41.440  0.00  0.00    +0.000 A 
ATOM      2  C   UNL     1      46.637  34.033  40.238  0.00  0.00    +0.000 A 
ATOM      3  C   UNL     1      47.928  34.362  39.868  0.00  0.00    +0.000 A 
ATOM      4  C   UNL     1      48.654  35.095  40.799  0.00  0.00    +0.000 A 
ATOM      5  C   UNL     1      48.090  35.452  42.003  0.00  0.00    +0.000 A 
ATOM      6  C   UNL     1      46.817  35.127  42.365  0.00  0.00    +0.000 A 
ATOM      7  H   UNL     1      46.042  33.463  39.538  0.00  0.00    +0.000 HD
ATOM      8  H   UNL     1      48.345  34.074  38.927  0.00  0.00    +0.000 HD
ATOM      9  H   UNL     1      49.664  35.369  40.544  0.00  0.00    +0.000 HD
ATOM     10  H   UNL     1      48.721  36.025  42.679  0.00  0.00    +0.000 HD
ENDROOT
BRANCH   6  12
ATOM     11  C   UNL     1      45.217  36.403  43.646  0.00  0.00    +0.000 A 
ATOM     12  C   UNL     1      46.338  35.566  43.671  0.00  0.00    +0.000 A 
ATOM     13  C   UNL     1      46.922  35.204  44.880  0.00  0.00    +0.000 A 
ATOM     14  H   UNL     1      47.794  34.549  44.847  0.00  0.00    +0.000 HD
ATOM     15  C   UNL     1      46.408  35.664  46.081  0.00  0.00    +0.000 A 
ATOM     16  H   UNL     1      46.850  35.391  47.025  0.00  0.00    +0.000 HD
ATOM     17  C   UNL     1      45.297  36.497  46.104  0.00  0.00    +0.000 A 
ATOM     18  C   UNL     1      44.752  36.828  44.881  0.00  0.00    +0.000 A 
BRANCH  11  20
ATOM     19  H   UNL     1      45.109  37.995  41.681  0.00  0.00    +0.000 HD
ATOM     20  S   UNL     1      44.432  36.900  42.170  0.00  0.00    +0.000 S 
ATOM     21  O   UNL     1      43.047  37.377  42.538  0.00  0.00    +0.000 OA
ATOM     22  O   UNL     1      44.397  35.832  41.130  0.00  0.00    +0.000 OA
ENDBRANCH  11  20
ENDBRANCH   6  12
BRANCH   1  23
ATOM     23  C   UNL     1      44.674  34.037  41.836  0.00  0.00    +0.000 C 
ATOM     24  H   UNL     1      44.212  35.023  42.141  0.00  0.00    +0.000 HD
ATOM     25  H   UNL     1      44.581  33.370  42.690  0.00  0.00    +0.000 HD
BRANCH  23  26
ATOM     26  C   UNL     1      43.858  33.613  40.620  0.00  0.00    +0.000 C 
ATOM     27  H   UNL     1      44.026  34.386  39.844  0.00  0.00    +0.000 HD
ATOM     28  H   UNL     1      44.160  32.591  40.320  0.00  0.00    +0.000 HD
BRANCH  26  31
ATOM     29  C   UNL     1      40.389  34.805  41.473  0.00  0.00    +0.000 A 
ATOM     30  C   UNL     1      41.753  34.823  41.094  0.00  0.00    +0.000 A 
ATOM     31  C   UNL     1      42.422  33.613  41.016  0.00  0.00    +0.000 A 
ATOM     32  N   UNL     1      41.727  32.462  41.310  0.00  0.00    +0.000 NA
ATOM     33  C   UNL     1      40.437  32.491  41.663  0.00  0.00    +0.000 A 
ATOM     34  N   UNL     1      39.754  33.651  41.750  0.00  0.00    +0.000 NA
ATOM     35  H   UNL     1      39.886  35.764  41.527  0.00  0.00    +0.000 HD
ATOM     36  H   UNL     1      42.254  35.760  40.873  0.00  0.00    +0.000 HD
ATOM     37  H   UNL     1      40.026  31.503  41.864  0.00  0.00    +0.000 HD
ENDBRANCH  26  31
ENDBRANCH  23  26
ENDBRANCH   1  23
TORSDOF 5
