REMARK  Name = 
REMARK  3 active torsions:
REMARK  status: ('A' for Active; 'I' for Inactive)
REMARK    1  A    between atoms: C_3  and  C_8
REMARK    2  A    between atoms: C_13  and  C_27
REMARK    3  A    between atoms: S_23  and  C_26
REMARK                            x       y       z     vdW  Elec       q    Type
REMARK                         _______ _______ _______ _____ _____    ______ ____
ROOT
ATOM      1  C   UNL     1      46.627  34.751  42.100  0.00  0.00    +0.000 A 
ATOM      2  C   UNL     1      47.859  35.353  41.959  0.00  0.00    +0.000 A 
ATOM      3  C   UNL     1      48.647  35.213  40.816  0.00  0.00    +0.000 A 
ATOM      4  C   UNL     1      48.180  34.435  39.769  0.00  0.00    +0.000 A 
ATOM      5  C   UNL     1      46.945  33.837  39.923  0.00  0.00    +0.000 A 
ATOM      6  C   UNL     1      46.186  33.987  41.055  0.00  0.00    +0.000 A 
ATOM      7  H   UNL     1      48.256  35.959  42.736  0.00  0.00    +0.000 HD
ATOM      8  H   UNL     1      49.601  35.692  40.731  0.00  0.00    +0.000 HD
ATOM      9  H   UNL     1      48.822  34.350  38.897  0.00  0.00    +0.000 HD
ATOM     10  H   UNL     1      46.581  33.223  39.093  0.00  0.00    +0.000 HD
ENDROOT
BRANCH   1  13
ATOM     11  C   UNL     1      44.416  36.180  44.789  0.00  0.00    +0.000 A 
ATOM     12  C   UNL     1      45.074  36.063  43.551  0.00  0.00    +0.000 A 
ATOM     13  C   UNL     1      45.909  34.969  43.322  0.00  0.00    +0.000 A 
ATOM     14  N   UNL     1      46.046  34.063  44.316  0.00  0.00    +0.000 NA
ATOM     15  C   UNL     1      45.398  34.204  45.499  0.00  0.00    +0.000 A 
ATOM     16  N   UNL     1      44.580  35.270  45.731  0.00  0.00    +0.000 NA
ATOM     17  N   UNL     1      45.558  33.231  46.540  0.00  0.00    +0.000 N 
ATOM     18  H   UNL     1      43.762  37.028  44.979  0.00  0.00    +0.000 HD
ATOM     19  H   UNL     1      44.950  36.799  42.770  0.00  0.00    +0.000 HD
ATOM     20  H   UNL     1      45.888  33.618  47.459  0.00  0.00    +0.000 HD
ATOM     21  H   UNL     1      45.376  32.208  46.447  0.00  0.00    +0.000 HD
ENDBRANCH   1  13
BRANCH   6  23
ATOM     22  C   UNL     1      43.833  33.520  40.295  0.00  0.00    +0.000 A 
ATOM     23  C   UNL     1      44.886  33.335  41.166  0.00  0.00    +0.000 A 
ATOM     24  C   UNL     1      44.699  32.468  42.229  0.00  0.00    +0.000 A 
ATOM     25  H   UNL     1      45.468  32.248  42.980  0.00  0.00    +0.000 HD
ATOM     26  C   UNL     1      43.476  31.823  42.379  0.00  0.00    +0.000 A 
ATOM     27  H   UNL     1      43.228  31.119  43.186  0.00  0.00    +0.000 HD
ATOM     28  C   UNL     1      42.435  32.024  41.493  0.00  0.00    +0.000 A 
ATOM     29  C   UNL     1      42.618  32.891  40.428  0.00  0.00    +0.000 A 
BRANCH  22  31
ATOM     30  H   UNL     1      43.009  35.510  38.980  0.00  0.00    +0.000 HD
ATOM     31  S   UNL     1      44.064  34.613  38.949  0.00  0.00    +0.000 S 
ATOM     32  O   UNL     1      43.955  33.869  37.639  0.00  0.00    +0.000 OA
ATOM     33  O   UNL     1      45.364  35.352  39.059  0.00  0.00    +0.000 OA
ENDBRANCH  22  31
ENDBRANCH   6  23
TORSDOF 3
