
 OpenBabel03252501453D

 26 27  0  0  0  0  0  0  0  0999 V2000
   43.7080   35.5430   42.5260 C   0  0  0  0  0  0  0  0  0  0  0  0
   43.0730   35.0270   41.3800 C   0  0  0  0  0  0  0  0  0  0  0  0
   43.8620   34.3440   40.4450 C   0  0  0  0  0  0  0  0  0  0  0  0
   45.1920   34.2180   40.7000 N   0  0  0  0  0  0  0  0  0  0  0  0
   45.7680   34.7210   41.8000 C   0  0  0  0  0  0  0  0  0  0  0  0
   45.0140   35.3710   42.6870 N   0  0  0  0  0  0  0  0  0  0  0  0
   43.1040   36.0720   43.2520 H   0  0  0  0  0  0  0  0  0  0  0  0
   43.4370   33.9230   39.5430 H   0  0  0  0  0  0  0  0  0  0  0  0
   47.6930   33.4800   42.7640 C   0  0  0  0  0  0  0  0  0  0  0  0
   47.1990   34.5860   42.0720 C   0  0  0  0  0  0  0  0  0  0  0  0
   48.1120   35.5580   41.6490 C   0  0  0  0  0  0  0  0  0  0  0  0
   47.6950   36.4170   41.1080 H   0  0  0  0  0  0  0  0  0  0  0  0
   49.4630   35.4710   41.8840 C   0  0  0  0  0  0  0  0  0  0  0  0
   50.1550   36.2370   41.5470 H   0  0  0  0  0  0  0  0  0  0  0  0
   49.9710   34.3920   42.5610 C   0  0  0  0  0  0  0  0  0  0  0  0
   49.0540   33.4460   42.9690 C   0  0  0  0  0  0  0  0  0  0  0  0
   45.7580   31.8310   42.3540 H   0  0  0  0  0  0  0  0  0  0  0  0
   46.6270   32.2190   43.3280 S   0  0  0  0  0  0  0  0  0  0  0  0
   47.4940   31.0150   43.6540 O   0  0  0  0  0  0  0  0  0  0  0  0
   45.9440   32.6040   44.6080 O   0  0  0  0  0  0  0  0  0  0  0  0
   41.6450   35.1720   41.1270 C   0  0  0  0  0  0  0  0  0  0  0  0
   41.0310   34.9230   39.9970 C   0  0  0  0  0  0  0  0  0  0  0  0
   39.5380   35.1240   39.8910 C   0  0  0  0  0  0  0  0  0  0  0  0
   39.0580   34.2790   40.4260 H   0  0  0  0  0  0  0  0  0  0  0  0
   39.2090   35.0770   38.8460 H   0  0  0  0  0  0  0  0  0  0  0  0
   39.2500   36.0570   40.4110 H   0  0  0  0  0  0  0  0  0  0  0  0
  1  6  1  0  0  0  0
  1  7  1  0  0  0  0
  2  1  2  0  0  0  0
  3  4  2  0  0  0  0
  3  2  1  0  0  0  0
  4  5  1  0  0  0  0
  5 10  1  0  0  0  0
  5  6  2  0  0  0  0
  8  3  1  0  0  0  0
  9 16  1  0  0  0  0
  9 18  1  0  0  0  0
 10  9  2  0  0  0  0
 11 13  2  0  0  0  0
 11 10  1  0  0  0  0
 12 11  1  0  0  0  0
 13 15  1  0  0  0  0
 14 13  1  0  0  0  0
 15 16  2  0  0  0  0
 17 18  1  0  0  0  0
 18 19  2  0  0  0  0
 18 20  2  0  0  0  0
 21  2  1  0  0  0  0
 22 21  2  0  0  0  0
 23 22  1  0  0  0  0
 23 26  1  0  0  0  0
 23 24  1  0  0  0  0
 25 23  1  0  0  0  0
M  END
>  <minimizedAffinity>
-5.10415173

>  <minimizedRMSD>
4.51488209

$$$$
