
 OpenBabel03242516493D

 46 49  0  0  1  0  0  0  0  0999 V2000
   47.5670   32.5680   41.3510 C   0  0  1  0  0  0  0  0  0  0  0  0
   46.9300   31.9220   40.1850 C   0  0  0  0  0  0  0  0  0  0  0  0
   47.8340   32.2280   38.9940 C   0  0  0  0  0  0  0  0  0  0  0  0
   47.6720   33.7240   38.7260 C   0  0  0  0  0  0  0  0  0  0  0  0
   47.9210   34.5870   39.8970 C   0  0  0  0  0  0  0  0  0  0  0  0
   47.5890   34.0790   41.2390 C   0  0  1  0  0  0  0  0  0  0  0  0
   48.6650   32.2960   41.3530 H   0  0  0  0  0  0  0  0  0  0  0  0
   45.9110   32.2470   39.9610 H   0  0  0  0  0  0  0  0  0  0  0  0
   46.9270   30.8130   40.3840 H   0  0  0  0  0  0  0  0  0  0  0  0
   47.4240   31.6930   38.1280 H   0  0  0  0  0  0  0  0  0  0  0  0
   48.8850   31.9890   39.2220 H   0  0  0  0  0  0  0  0  0  0  0  0
   48.4100   33.9590   37.9220 H   0  0  0  0  0  0  0  0  0  0  0  0
   46.6800   33.8200   38.2540 H   0  0  0  0  0  0  0  0  0  0  0  0
   48.9790   34.9400   39.8600 H   0  0  0  0  0  0  0  0  0  0  0  0
   47.3300   35.5380   39.7400 H   0  0  0  0  0  0  0  0  0  0  0  0
   48.3690   34.4160   41.9610 H   0  0  0  0  0  0  0  0  0  0  0  0
   45.3820   30.9730   43.9890 C   0  0  0  0  0  0  0  0  0  0  0  0
   45.9180   31.3800   42.7700 C   0  0  0  0  0  0  0  0  0  0  0  0
   47.0570   32.1630   42.6560 C   0  0  0  0  0  0  0  0  0  0  0  0
   47.6330   32.5200   43.8160 N   0  0  0  0  0  0  0  0  0  0  0  0
   47.1270   32.1340   45.0120 C   0  0  0  0  0  0  0  0  0  0  0  0
   46.0280   31.3780   45.1080 N   0  0  0  0  0  0  0  0  0  0  0  0
   44.4840   30.3590   43.9630 H   0  0  0  0  0  0  0  0  0  0  0  0
   45.4290   31.0750   41.8440 H   0  0  0  0  0  0  0  0  0  0  0  0
   47.5930   32.4230   45.9510 H   0  0  0  0  0  0  0  0  0  0  0  0
   46.3310   34.6640   41.7630 C   0  0  0  0  0  0  0  0  0  0  0  0
   46.2060   35.4800   42.8910 C   0  0  0  0  0  0  0  0  0  0  0  0
   44.9090   35.9230   43.1620 C   0  0  0  0  0  0  0  0  0  0  0  0
   43.8920   35.5370   42.3310 C   0  0  0  0  0  0  0  0  0  0  0  0
   44.0210   34.7390   41.2350 C   0  0  0  0  0  0  0  0  0  0  0  0
   45.2820   34.3100   40.9710 N   0  0  0  0  0  0  0  0  0  0  0  0
   47.0970   35.6730   43.4120 H   0  0  0  0  0  0  0  0  0  0  0  0
   44.8240   36.5510   44.0320 H   0  0  0  0  0  0  0  0  0  0  0  0
   42.9700   35.9750   42.6410 H   0  0  0  0  0  0  0  0  0  0  0  0
   42.1390   33.2700   40.3170 C   0  0  0  0  0  0  0  0  0  0  0  0
   42.9460   34.3730   40.3200 C   0  0  0  0  0  0  0  0  0  0  0  0
   42.7410   35.2610   39.2760 C   0  0  0  0  0  0  0  0  0  0  0  0
   43.3200   36.1680   39.1860 H   0  0  0  0  0  0  0  0  0  0  0  0
   41.8160   35.1160   38.2770 C   0  0  0  0  0  0  0  0  0  0  0  0
   41.6800   35.8280   37.4760 H   0  0  0  0  0  0  0  0  0  0  0  0
   41.0000   34.0080   38.2720 C   0  0  0  0  0  3  0  0  0  0  0  0
   41.1890   33.1130   39.3000 C   0  0  0  0  0  3  0  0  0  0  0  0
   42.9810   32.5110   42.6450 H   0  0  0  0  0  0  0  0  0  0  0  0
   42.3540   32.0620   41.5180 S   0  0  0  0  0  0  0  0  0  0  0  0
   42.8680   30.7480   41.0080 O   0  0  0  0  0  0  0  0  0  0  0  0
   40.9350   31.7210   42.0220 O   0  0  0  0  0  0  0  0  0  0  0  0
  1  7  1  6  0  0  0
  1 19  1  0  0  0  0
  2  9  1  0  0  0  0
  2  1  1  0  0  0  0
  3 11  1  0  0  0  0
  3  2  1  0  0  0  0
  4  3  1  0  0  0  0
  4  5  1  0  0  0  0
  5  6  1  0  0  0  0
  6  1  1  0  0  0  0
  6 26  1  0  0  0  0
  6 16  1  1  0  0  0
  8  2  1  0  0  0  0
 10  3  1  0  0  0  0
 12  4  1  0  0  0  0
 13  4  1  0  0  0  0
 14  5  1  0  0  0  0
 15  5  1  0  0  0  0
 17 22  1  0  0  0  0
 18 17  2  0  0  0  0
 19 18  1  0  0  0  0
 19 20  2  0  0  0  0
 20 21  1  0  0  0  0
 21 22  2  0  0  0  0
 21 25  1  0  0  0  0
 23 17  1  0  0  0  0
 24 18  1  0  0  0  0
 26 27  1  0  0  0  0
 27 28  2  0  0  0  0
 27 32  1  0  0  0  0
 28 33  1  0  0  0  0
 29 34  1  0  0  0  0
 29 28  1  0  0  0  0
 30 29  2  0  0  0  0
 31 30  1  0  0  0  0
 31 26  2  0  0  0  0
 35 36  1  0  0  0  0
 35 44  1  0  0  0  0
 36 30  1  0  0  0  0
 37 36  2  0  0  0  0
 38 37  1  0  0  0  0
 39 37  1  0  0  0  0
 40 39  1  0  0  0  0
 41 39  2  0  0  0  0
 41 42  1  0  0  0  0
 42 35  2  0  0  0  0
 44 46  2  0  0  0  0
 44 43  1  0  0  0  0
 45 44  2  0  0  0  0
M  END
>  <minimizedAffinity>
-5.69200516

>  <minimizedRMSD>
0.93632251

$$$$
