
 OpenBabel03252509213D

 28 30  0  0  0  0  0  0  0  0999 V2000
   46.0100   33.8190   43.6500 C   0  0  0  0  0  0  0  0  0  0  0  0
   45.6970   33.9070   42.2660 C   0  0  0  0  0  0  0  0  0  0  0  0
   46.7960   33.8930   41.4070 C   0  0  0  0  0  0  0  0  0  0  0  0
   48.0840   33.7990   41.8940 N   0  0  0  0  0  0  0  0  0  0  0  0
   48.3170   33.7170   43.2180 C   0  0  0  0  0  0  0  0  0  0  0  0
   47.2740   33.7280   44.0930 N   0  0  0  0  0  0  0  0  0  0  0  0
   45.1910   33.8280   44.3450 H   0  0  0  0  0  0  0  0  0  0  0  0
   49.3740   33.6490   43.4360 H   0  0  0  0  0  0  0  0  0  0  0  0
   46.5040   33.8970   39.9230 C   0  0  0  0  0  0  0  0  0  0  0  0
   47.7990   33.9840   39.1110 C   0  0  0  0  0  0  0  0  0  0  0  0
   46.8900   32.7180   39.1770 C   0  0  0  0  0  0  0  0  0  0  0  0
   45.8900   34.7800   39.6020 H   0  0  0  0  0  0  0  0  0  0  0  0
   48.7650   33.8350   39.5980 H   0  0  0  0  0  0  0  0  0  0  0  0
   47.8030   34.4960   38.1440 H   0  0  0  0  0  0  0  0  0  0  0  0
   46.3500   32.4750   38.2400 H   0  0  0  0  0  0  0  0  0  0  0  0
   47.2680   31.8540   39.7460 H   0  0  0  0  0  0  0  0  0  0  0  0
   43.5150   32.9730   41.4420 C   0  0  0  0  0  0  0  0  0  0  0  0
   44.3320   34.0070   41.7680 C   0  0  0  0  0  0  0  0  0  0  0  0
   43.8730   35.3200   41.6330 C   0  0  0  0  0  0  0  0  0  0  0  0
   44.4780   36.1950   41.8780 H   0  0  0  0  0  0  0  0  0  0  0  0
   42.5800   35.5570   41.1660 C   0  0  0  0  0  0  0  0  0  0  0  0
   42.2050   36.5630   41.0540 H   0  0  0  0  0  0  0  0  0  0  0  0
   41.7990   34.4480   40.8510 C   0  0  0  0  0  0  0  0  0  0  0  0
   42.2410   33.1500   40.9800 C   0  0  0  0  0  0  0  0  0  0  0  0
   45.4920   31.3870   41.3310 H   0  0  0  0  0  0  0  0  0  0  0  0
   44.1330   31.3640   41.6270 S   0  0  0  0  0  0  0  0  0  0  0  0
   43.5350   30.3980   40.6420 O   0  0  0  0  0  0  0  0  0  0  0  0
   43.9880   30.8060   42.9900 O   0  0  0  0  0  0  0  0  0  0  0  0
  1  6  1  0  0  0  0
  1  7  1  0  0  0  0
  2  1  2  0  0  0  0
  3  4  2  0  0  0  0
  3  2  1  0  0  0  0
  4  5  1  0  0  0  0
  5  8  1  0  0  0  0
  5  6  2  0  0  0  0
  9  3  1  0  0  0  0
 10 11  1  0  0  0  0
 10 13  1  0  0  0  0
 10  9  1  0  0  0  0
 11 16  1  0  0  0  0
 11  9  1  0  0  0  0
 12  9  1  0  0  0  0
 14 10  1  0  0  0  0
 15 11  1  0  0  0  0
 17 26  1  0  0  0  0
 17 18  1  0  0  0  0
 18  2  1  0  0  0  0
 19 18  2  0  0  0  0
 19 20  1  0  0  0  0
 21 19  1  0  0  0  0
 22 21  1  0  0  0  0
 23 24  1  0  0  0  0
 23 21  2  0  0  0  0
 24 17  2  0  0  0  0
 25 26  1  0  0  0  0
 26 28  2  0  0  0  0
 27 26  2  0  0  0  0
M  END
>  <minimizedAffinity>
-3.6044631

>  <minimizedRMSD>
3.52526689

$$$$
