
 OpenBabel03252508213D

 37 39  0  0  0  0  0  0  0  0999 V2000
   45.5160   33.7430   40.9000 C   0  0  0  0  0  0  0  0  0  0  0  0
   46.6430   34.5020   41.1410 C   0  0  0  0  0  0  0  0  0  0  0  0
   46.8790   35.2030   42.3090 C   0  0  0  0  0  0  0  0  0  0  0  0
   45.8890   35.1100   43.2790 C   0  0  0  0  0  0  0  0  0  0  0  0
   44.7580   34.3560   43.0560 C   0  0  0  0  0  0  0  0  0  0  0  0
   44.5280   33.6660   41.9030 C   0  0  0  0  0  0  0  0  0  0  0  0
   47.3920   34.5520   40.3630 H   0  0  0  0  0  0  0  0  0  0  0  0
   47.7650   35.7820   42.4600 H   0  0  0  0  0  0  0  0  0  0  0  0
   46.0400   35.6430   44.2020 H   0  0  0  0  0  0  0  0  0  0  0  0
   44.0290   34.3320   43.8630 H   0  0  0  0  0  0  0  0  0  0  0  0
   42.2060   33.6010   41.2450 C   0  0  0  0  0  0  0  0  0  0  0  0
   43.2890   32.9040   41.7920 C   0  0  0  0  0  0  0  0  0  0  0  0
   43.1480   31.5790   42.1880 C   0  0  0  0  0  0  0  0  0  0  0  0
   44.0210   31.0790   42.6090 H   0  0  0  0  0  0  0  0  0  0  0  0
   41.9350   30.9240   42.0500 C   0  0  0  0  0  0  0  0  0  0  0  0
   41.8110   29.8970   42.3530 H   0  0  0  0  0  0  0  0  0  0  0  0
   40.8340   31.5770   41.5120 C   0  0  0  0  0  3  0  0  0  0  0  0
   41.0220   32.8900   41.1330 C   0  0  0  0  0  3  0  0  0  0  0  0
   43.3770   35.8420   41.3740 H   0  0  0  0  0  0  0  0  0  0  0  0
   42.3080   35.2640   40.7250 S   0  0  0  0  0  0  0  0  0  0  0  0
   41.0680   35.9650   41.2240 O   0  0  0  0  0  0  0  0  0  0  0  0
   42.4810   35.4130   39.2520 O   0  0  0  0  0  0  0  0  0  0  0  0
   45.2580   32.9960   39.6500 C   0  0  0  0  0  0  0  0  0  0  0  0
   44.4650   33.6010   39.1180 H   0  0  0  0  0  0  0  0  0  0  0  0
   44.8570   31.9930   39.7740 H   0  0  0  0  0  0  0  0  0  0  0  0
   46.4630   33.0760   38.7200 C   0  0  0  0  0  0  0  0  0  0  0  0
   46.5700   34.1420   38.4350 H   0  0  0  0  0  0  0  0  0  0  0  0
   47.3460   32.6500   39.2340 H   0  0  0  0  0  0  0  0  0  0  0  0
   45.3240   32.1240   35.2590 C   0  0  0  0  0  0  0  0  0  0  0  0
   45.6140   32.9070   36.4030 C   0  0  0  0  0  0  0  0  0  0  0  0
   46.1540   32.2690   37.5070 C   0  0  0  0  0  0  0  0  0  0  0  0
   46.3790   30.9130   37.4330 N   0  0  0  0  0  0  0  0  0  0  0  0
   46.0910   30.2120   36.3300 C   0  0  0  0  0  0  0  0  0  0  0  0
   45.5640   30.8000   35.2370 N   0  0  0  0  0  0  0  0  0  0  0  0
   44.9030   32.6450   34.4060 H   0  0  0  0  0  0  0  0  0  0  0  0
   45.4160   33.9740   36.4080 H   0  0  0  0  0  0  0  0  0  0  0  0
   46.3250   29.1530   36.4240 H   0  0  0  0  0  0  0  0  0  0  0  0
  1  2  2  0  0  0  0
  1  6  1  0  0  0  0
  2  3  1  0  0  0  0
  3  8  1  0  0  0  0
  3  4  2  0  0  0  0
  4  9  1  0  0  0  0
  5  4  1  0  0  0  0
  5 10  1  0  0  0  0
  6  5  2  0  0  0  0
  7  2  1  0  0  0  0
 11 12  1  0  0  0  0
 12  6  1  0  0  0  0
 12 13  2  0  0  0  0
 13 14  1  0  0  0  0
 15 13  1  0  0  0  0
 15 16  1  0  0  0  0
 17 15  2  0  0  0  0
 18 11  2  0  0  0  0
 18 17  1  0  0  0  0
 20 21  2  0  0  0  0
 20 11  1  0  0  0  0
 20 19  1  0  0  0  0
 22 20  2  0  0  0  0
 23 25  1  0  0  0  0
 23  1  1  0  0  0  0
 24 23  1  0  0  0  0
 26 28  1  0  0  0  0
 26 23  1  0  0  0  0
 27 26  1  0  0  0  0
 29 30  1  0  0  0  0
 30 36  1  0  0  0  0
 30 31  2  0  0  0  0
 31 26  1  0  0  0  0
 32 31  1  0  0  0  0
 33 37  1  0  0  0  0
 33 32  2  0  0  0  0
 34 29  2  0  0  0  0
 34 33  1  0  0  0  0
 35 29  1  0  0  0  0
M  END
>  <minimizedAffinity>
-4.37303638

>  <minimizedRMSD>
5.47570419

$$$$
