
 OpenBabel03242513183D

 40 43  0  0  0  0  0  0  0  0999 V2000
   47.0110   32.0640   46.9250 C   0  0  0  0  0  0  0  0  0  0  0  0
   47.3860   32.4480   48.0790 O   0  0  0  0  0  0  0  0  0  0  0  0
   44.7450   30.4780   48.0040 Cl  0  0  0  0  0  0  0  0  0  0  0  0
   46.0990   29.8190   47.0760 C   0  0  0  0  0  0  0  0  0  0  0  0
   47.1030   30.6500   46.6560 C   0  0  0  0  0  0  0  0  0  0  0  0
   48.1330   30.0880   45.9730 C   0  0  0  0  0  0  0  0  0  0  0  0
   48.1740   28.7410   45.7070 C   0  0  0  0  0  0  0  0  0  0  0  0
   47.1550   27.9040   46.1330 C   0  0  0  0  0  0  0  0  0  0  0  0
   46.1000   28.4800   46.8350 C   0  0  0  0  0  0  0  0  0  0  0  0
   48.9530   30.6530   45.6120 H   0  0  0  0  0  0  0  0  0  0  0  0
   49.0000   28.2950   45.1600 H   0  0  0  0  0  0  0  0  0  0  0  0
   47.2170   26.8590   45.9100 H   0  0  0  0  0  0  0  0  0  0  0  0
   45.0690   27.5180   47.2360 C   0  0  0  0  0  0  0  0  0  0  0  0
   43.9720   27.0350   46.5370 C   0  0  0  0  0  0  0  0  0  0  0  0
   43.2410   26.1350   47.2730 C   0  0  0  0  0  0  0  0  0  0  0  0
   43.9570   26.0990   48.4600 C   0  0  0  0  0  0  0  0  0  0  0  0
   44.9790   26.8980   48.3850 O   0  0  0  0  0  0  0  0  0  0  0  0
   43.7500   27.3650   45.5080 H   0  0  0  0  0  0  0  0  0  0  0  0
   42.3440   25.6050   46.9860 H   0  0  0  0  0  0  0  0  0  0  0  0
   43.6940   25.4830   49.3350 H   0  0  0  0  0  0  0  0  0  0  0  0
   44.9790   34.6440   45.4130 C   0  0  0  0  0  0  0  0  0  0  0  0
   45.5040   34.8180   44.1290 C   0  0  0  0  0  0  0  0  0  0  0  0
   46.5910   34.0060   43.7920 C   0  0  0  0  0  0  0  0  0  0  0  0
   47.0400   33.1250   44.7260 N   0  0  0  0  0  0  0  0  0  0  0  0
   46.5140   32.9940   45.9300 C   0  0  0  0  0  0  0  0  0  0  0  0
   45.4680   33.7710   46.2670 N   0  0  0  0  0  0  0  0  0  0  0  0
   44.1230   35.2160   45.8140 H   0  0  0  0  0  0  0  0  0  0  0  0
   44.9620   35.5650   43.6200 H   0  0  0  0  0  0  0  0  0  0  0  0
   46.6720   33.6070   41.3160 C   0  0  0  0  0  0  0  0  0  0  0  0
   47.1080   34.2330   42.4580 C   0  0  0  0  0  0  0  0  0  0  0  0
   48.1260   35.1250   42.2070 C   0  0  0  0  0  0  0  0  0  0  0  0
   48.5990   35.7110   42.9820 H   0  0  0  0  0  0  0  0  0  0  0  0
   48.6580   35.3810   40.9890 C   0  0  0  0  0  0  0  0  0  0  0  0
   49.4600   36.0920   40.8270 H   0  0  0  0  0  0  0  0  0  0  0  0
   48.2080   34.7470   39.8710 C   0  0  0  0  0  0  0  0  0  0  0  0
   47.1930   33.8440   40.0490 C   0  0  0  0  0  0  0  0  0  0  0  0
   45.2000   31.8430   40.1760 H   0  0  0  0  0  0  0  0  0  0  0  0
   45.3800   32.4580   41.4140 S   0  0  0  0  0  0  0  0  0  0  0  0
   45.7340   31.3370   42.3410 O   0  0  0  0  0  0  0  0  0  0  0  0
   44.0780   33.1370   41.7530 O   0  0  0  0  0  0  0  0  0  0  0  0
  1  2  2  0  0  0  0
  4  3  1  0  0  0  0
  5  1  1  0  0  0  0
  5  4  2  0  0  0  0
  6  5  1  0  0  0  0
  7  6  2  0  0  0  0
  7  8  1  0  0  0  0
  8  9  2  0  0  0  0
  9  4  1  0  0  0  0
  9 13  1  0  0  0  0
 10  6  1  0  0  0  0
 11  7  1  0  0  0  0
 12  8  1  0  0  0  0
 13 17  1  0  0  0  0
 14 13  2  0  0  0  0
 14 15  1  0  0  0  0
 15 16  2  0  0  0  0
 16 20  1  0  0  0  0
 17 16  1  0  0  0  0
 18 14  1  0  0  0  0
 19 15  1  0  0  0  0
 21 27  1  0  0  0  0
 21 26  1  0  0  0  0
 22 21  2  0  0  0  0
 23 22  1  0  0  0  0
 23 24  2  0  0  0  0
 24 25  1  0  0  0  0
 25 26  2  0  0  0  0
 25  1  1  0  0  0  0
 28 22  1  0  0  0  0
 29 38  1  0  0  0  0
 29 30  1  0  0  0  0
 30 23  1  0  0  0  0
 31 30  2  0  0  0  0
 31 32  1  0  0  0  0
 33 31  1  0  0  0  0
 34 33  1  0  0  0  0
 35 36  1  0  0  0  0
 35 33  2  0  0  0  0
 36 29  2  0  0  0  0
 37 38  1  0  0  0  0
 38 40  2  0  0  0  0
 38 39  2  0  0  0  0
M  END
>  <minimizedAffinity>
-6.46004963

>  <minimizedRMSD>
0.931994259

$$$$
