
 OpenBabel03252505203D

 37 40  0  0  0  0  0  0  0  0999 V2000
   37.6130   29.6620   39.9200 C   0  0  0  0  0  0  0  0  0  0  0  0
   36.5850   29.5120   39.0210 C   0  0  0  0  0  0  0  0  0  0  0  0
   36.5860   30.2280   37.8430 C   0  0  0  0  0  0  0  0  0  0  0  0
   37.6440   31.0790   37.6220 C   0  0  0  0  0  0  0  0  0  0  0  0
   38.6790   31.2190   38.5410 C   0  0  0  0  0  0  0  0  0  0  0  0
   38.6320   30.4870   39.6950 N   0  0  0  0  0  0  0  0  0  0  0  0
   35.7760   28.8300   39.2420 H   0  0  0  0  0  0  0  0  0  0  0  0
   35.7960   30.1260   37.1290 H   0  0  0  0  0  0  0  0  0  0  0  0
   37.6150   31.6520   36.7270 H   0  0  0  0  0  0  0  0  0  0  0  0
   37.9060   28.7930   43.4910 C   0  0  0  0  0  0  0  0  0  0  0  0
   37.5710   27.4390   43.5250 C   0  0  0  0  0  0  0  0  0  0  0  0
   37.2410   26.8570   42.3110 C   0  0  0  0  0  0  0  0  0  0  0  0
   37.2500   27.5950   41.1490 N   0  0  0  0  0  0  0  0  0  0  0  0
   37.5840   28.9130   41.1690 C   0  0  0  0  0  0  0  0  0  0  0  0
   37.9090   29.5000   42.3420 N   0  0  0  0  0  0  0  0  0  0  0  0
   38.1690   29.2780   44.4280 H   0  0  0  0  0  0  0  0  0  0  0  0
   37.5630   26.8510   44.4330 H   0  0  0  0  0  0  0  0  0  0  0  0
   36.9010   25.4030   42.2270 C   0  0  0  0  0  0  0  0  0  0  0  0
   36.9480   24.8510   40.8030 C   0  0  0  0  0  0  0  0  0  0  0  0
   37.9390   24.4480   41.9480 C   0  0  0  0  0  0  0  0  0  0  0  0
   35.9940   25.0830   42.8170 H   0  0  0  0  0  0  0  0  0  0  0  0
   36.2070   24.0770   40.5740 H   0  0  0  0  0  0  0  0  0  0  0  0
   37.3750   25.4900   40.0160 H   0  0  0  0  0  0  0  0  0  0  0  0
   38.9810   24.8510   41.8050 H   0  0  0  0  0  0  0  0  0  0  0  0
   37.8870   23.4020   42.2850 H   0  0  0  0  0  0  0  0  0  0  0  0
   40.0750   33.2690   39.1390 C   0  0  0  0  0  0  0  0  0  0  0  0
   39.8130   32.1230   38.4300 C   0  0  0  0  0  0  0  0  0  0  0  0
   40.7680   31.8110   37.4490 C   0  0  0  0  0  0  0  0  0  0  0  0
   40.6570   30.9130   36.8190 H   0  0  0  0  0  0  0  0  0  0  0  0
   41.8870   32.5230   37.1560 C   0  0  0  0  0  0  0  0  0  0  0  0
   42.5870   32.2490   36.4010 H   0  0  0  0  0  0  0  0  0  0  0  0
   42.1450   33.6660   37.8680 C   0  0  0  0  0  3  0  0  0  0  0  0
   41.2300   34.0050   38.8400 C   0  0  0  0  0  3  0  0  0  0  0  0
   39.1620   35.1370   40.7250 H   0  0  0  0  0  0  0  0  0  0  0  0
   38.9710   33.8470   40.3270 S   0  0  0  0  0  0  0  0  0  0  0  0
   38.7400   32.8960   41.4710 O   0  0  0  0  0  0  0  0  0  0  0  0
   37.5990   33.8960   39.6260 O   0  0  0  0  0  0  0  0  0  0  0  0
  1 14  1  0  0  0  0
  2  7  1  0  0  0  0
  2  1  2  0  0  0  0
  3  2  1  0  0  0  0
  4  3  2  0  0  0  0
  4  5  1  0  0  0  0
  5  6  2  0  0  0  0
  6  1  1  0  0  0  0
  8  3  1  0  0  0  0
  9  4  1  0  0  0  0
 10 11  1  0  0  0  0
 10 16  1  0  0  0  0
 11 17  1  0  0  0  0
 12 11  2  0  0  0  0
 13 14  2  0  0  0  0
 13 12  1  0  0  0  0
 14 15  1  0  0  0  0
 15 10  2  0  0  0  0
 18 12  1  0  0  0  0
 18 21  1  0  0  0  0
 19 20  1  0  0  0  0
 19 18  1  0  0  0  0
 20 18  1  0  0  0  0
 20 25  1  0  0  0  0
 22 19  1  0  0  0  0
 23 19  1  0  0  0  0
 24 20  1  0  0  0  0
 26 35  1  0  0  0  0
 27  5  1  0  0  0  0
 27 26  2  0  0  0  0
 28 27  1  0  0  0  0
 29 28  1  0  0  0  0
 30 28  2  0  0  0  0
 30 32  1  0  0  0  0
 31 30  1  0  0  0  0
 32 33  2  0  0  0  0
 33 26  1  0  0  0  0
 35 34  1  0  0  0  0
 35 36  2  0  0  0  0
 37 35  2  0  0  0  0
M  END
>  <minimizedAffinity>
-6.02130842

$$$$

 OpenBabel03252505203D

 37 40  0  0  0  0  0  0  0  0999 V2000
   37.5290   30.6400   40.8310 C   0  0  0  0  0  0  0  0  0  0  0  0
   36.2020   30.6320   40.4740 C   0  0  0  0  0  0  0  0  0  0  0  0
   35.4500   29.4880   40.6340 C   0  0  0  0  0  0  0  0  0  0  0  0
   36.0810   28.3840   41.1570 C   0  0  0  0  0  0  0  0  0  0  0  0
   37.4260   28.4070   41.5150 C   0  0  0  0  0  0  0  0  0  0  0  0
   38.1300   29.5660   41.3360 N   0  0  0  0  0  0  0  0  0  0  0  0
   35.7520   31.5270   40.0680 H   0  0  0  0  0  0  0  0  0  0  0  0
   34.4150   29.4610   40.3630 H   0  0  0  0  0  0  0  0  0  0  0  0
   35.5000   27.4990   41.2410 H   0  0  0  0  0  0  0  0  0  0  0  0
   38.4530   34.1470   40.1700 C   0  0  0  0  0  0  0  0  0  0  0  0
   39.8480   34.1290   40.2130 C   0  0  0  0  0  0  0  0  0  0  0  0
   40.4390   32.9050   40.4800 C   0  0  0  0  0  0  0  0  0  0  0  0
   39.6720   31.7810   40.6880 N   0  0  0  0  0  0  0  0  0  0  0  0
   38.3140   31.8510   40.6350 C   0  0  0  0  0  0  0  0  0  0  0  0
   37.7180   33.0350   40.3770 N   0  0  0  0  0  0  0  0  0  0  0  0
   37.9600   35.0940   39.9630 H   0  0  0  0  0  0  0  0  0  0  0  0
   40.4590   35.0070   40.0490 H   0  0  0  0  0  0  0  0  0  0  0  0
   41.9280   32.7650   40.5130 C   0  0  0  0  0  0  0  0  0  0  0  0
   42.6340   33.9700   41.1350 C   0  0  0  0  0  0  0  0  0  0  0  0
   42.5900   32.5380   41.7690 C   0  0  0  0  0  0  0  0  0  0  0  0
   42.4010   32.3940   39.5590 H   0  0  0  0  0  0  0  0  0  0  0  0
   43.6060   34.2230   40.6950 H   0  0  0  0  0  0  0  0  0  0  0  0
   42.0170   34.7270   41.6390 H   0  0  0  0  0  0  0  0  0  0  0  0
   41.9390   32.4720   42.6860 H   0  0  0  0  0  0  0  0  0  0  0  0
   43.5540   32.0130   41.8440 H   0  0  0  0  0  0  0  0  0  0  0  0
   38.1370   25.9630   41.6730 C   0  0  0  0  0  0  0  0  0  0  0  0
   38.2000   27.2880   42.0260 C   0  0  0  0  0  0  0  0  0  0  0  0
   39.1270   27.5790   43.0410 C   0  0  0  0  0  0  0  0  0  0  0  0
   39.2600   28.6120   43.4030 H   0  0  0  0  0  0  0  0  0  0  0  0
   39.9340   26.6910   43.6770 C   0  0  0  0  0  0  0  0  0  0  0  0
   40.6250   26.9550   44.4430 H   0  0  0  0  0  0  0  0  0  0  0  0
   39.8680   25.3680   43.3190 C   0  0  0  0  0  3  0  0  0  0  0  0
   38.9700   25.0440   42.3270 C   0  0  0  0  0  3  0  0  0  0  0  0
   36.1300   26.3560   40.0430 H   0  0  0  0  0  0  0  0  0  0  0  0
   37.0010   25.4120   40.5030 S   0  0  0  0  0  0  0  0  0  0  0  0
   36.3390   24.1060   40.8510 O   0  0  0  0  0  0  0  0  0  0  0  0
   37.8330   25.0640   39.2520 O   0  0  0  0  0  0  0  0  0  0  0  0
  1  6  1  0  0  0  0
  2  3  1  0  0  0  0
  2  1  2  0  0  0  0
  3  4  2  0  0  0  0
  4  9  1  0  0  0  0
  4  5  1  0  0  0  0
  5 27  1  0  0  0  0
  6  5  2  0  0  0  0
  7  2  1  0  0  0  0
  8  3  1  0  0  0  0
 10 11  2  0  0  0  0
 10 15  1  0  0  0  0
 11 12  1  0  0  0  0
 12 18  1  0  0  0  0
 12 13  2  0  0  0  0
 14 13  1  0  0  0  0
 14  1  1  0  0  0  0
 15 14  2  0  0  0  0
 16 10  1  0  0  0  0
 17 11  1  0  0  0  0
 18 19  1  0  0  0  0
 18 20  1  0  0  0  0
 19 23  1  0  0  0  0
 19 20  1  0  0  0  0
 20 25  1  0  0  0  0
 20 24  1  0  0  0  0
 21 18  1  0  0  0  0
 22 19  1  0  0  0  0
 26 27  2  0  0  0  0
 26 33  1  0  0  0  0
 27 28  1  0  0  0  0
 28 29  1  0  0  0  0
 28 30  2  0  0  0  0
 30 31  1  0  0  0  0
 32 30  1  0  0  0  0
 33 32  2  0  0  0  0
 34 35  1  0  0  0  0
 35 36  2  0  0  0  0
 35 26  1  0  0  0  0
 37 35  2  0  0  0  0
M  END
>  <minimizedAffinity>
-5.9883523

$$$$

 OpenBabel03252505203D

 37 40  0  0  0  0  0  0  0  0999 V2000
   39.0650   31.7440   39.1990 C   0  0  0  0  0  0  0  0  0  0  0  0
   38.1410   32.7560   39.0990 C   0  0  0  0  0  0  0  0  0  0  0  0
   36.9490   32.6740   39.7870 C   0  0  0  0  0  0  0  0  0  0  0  0
   36.7400   31.5560   40.5580 C   0  0  0  0  0  0  0  0  0  0  0  0
   37.6860   30.5390   40.6500 C   0  0  0  0  0  0  0  0  0  0  0  0
   38.8530   30.6660   39.9490 N   0  0  0  0  0  0  0  0  0  0  0  0
   38.3540   33.6160   38.4790 H   0  0  0  0  0  0  0  0  0  0  0  0
   36.2170   33.4510   39.7230 H   0  0  0  0  0  0  0  0  0  0  0  0
   35.8030   31.4880   41.0540 H   0  0  0  0  0  0  0  0  0  0  0  0
   42.1140   33.0920   37.6230 C   0  0  0  0  0  0  0  0  0  0  0  0
   42.6540   31.9890   36.9630 C   0  0  0  0  0  0  0  0  0  0  0  0
   41.9560   30.7970   37.0850 C   0  0  0  0  0  0  0  0  0  0  0  0
   40.7960   30.7310   37.8230 N   0  0  0  0  0  0  0  0  0  0  0  0
   40.3110   31.8370   38.4480 C   0  0  0  0  0  0  0  0  0  0  0  0
   40.9760   33.0080   38.3420 N   0  0  0  0  0  0  0  0  0  0  0  0
   42.6390   34.0410   37.5470 H   0  0  0  0  0  0  0  0  0  0  0  0
   43.5640   32.0310   36.3800 H   0  0  0  0  0  0  0  0  0  0  0  0
   42.4270   29.5600   36.3880 C   0  0  0  0  0  0  0  0  0  0  0  0
   43.4150   29.8430   35.2560 C   0  0  0  0  0  0  0  0  0  0  0  0
   43.7750   29.1040   36.5900 C   0  0  0  0  0  0  0  0  0  0  0  0
   41.6210   28.8170   36.1240 H   0  0  0  0  0  0  0  0  0  0  0  0
   43.3420   29.1730   34.3920 H   0  0  0  0  0  0  0  0  0  0  0  0
   43.8130   30.8630   35.1610 H   0  0  0  0  0  0  0  0  0  0  0  0
   44.4250   29.7130   37.2800 H   0  0  0  0  0  0  0  0  0  0  0  0
   44.0640   28.0460   36.4930 H   0  0  0  0  0  0  0  0  0  0  0  0
   37.0650   28.0850   40.9630 C   0  0  0  0  0  0  0  0  0  0  0  0
   37.5460   29.2960   41.3930 C   0  0  0  0  0  0  0  0  0  0  0  0
   37.9230   29.3300   42.7460 C   0  0  0  0  0  0  0  0  0  0  0  0
   38.3210   30.2530   43.1970 H   0  0  0  0  0  0  0  0  0  0  0  0
   37.8540   28.3000   43.6280 C   0  0  0  0  0  0  0  0  0  0  0  0
   38.1520   28.3680   44.6480 H   0  0  0  0  0  0  0  0  0  0  0  0
   37.3750   27.0900   43.1930 C   0  0  0  0  0  3  0  0  0  0  0  0
   36.9950   27.0190   41.8720 C   0  0  0  0  0  3  0  0  0  0  0  0
   37.3860   28.1440   38.3680 H   0  0  0  0  0  0  0  0  0  0  0  0
   36.4820   27.8840   39.3550 S   0  0  0  0  0  0  0  0  0  0  0  0
   35.1310   28.4980   39.1070 O   0  0  0  0  0  0  0  0  0  0  0  0
   36.2180   26.3730   39.1990 O   0  0  0  0  0  0  0  0  0  0  0  0
  1  6  1  0  0  0  0
  2  1  2  0  0  0  0
  2  3  1  0  0  0  0
  3  4  2  0  0  0  0
  4  5  1  0  0  0  0
  4  9  1  0  0  0  0
  5 27  1  0  0  0  0
  6  5  2  0  0  0  0
  7  2  1  0  0  0  0
  8  3  1  0  0  0  0
 10 15  1  0  0  0  0
 11 12  1  0  0  0  0
 11 10  2  0  0  0  0
 12 13  2  0  0  0  0
 13 14  1  0  0  0  0
 14  1  1  0  0  0  0
 15 14  2  0  0  0  0
 16 10  1  0  0  0  0
 17 11  1  0  0  0  0
 18 20  1  0  0  0  0
 18 12  1  0  0  0  0
 19 18  1  0  0  0  0
 19 20  1  0  0  0  0
 20 24  1  0  0  0  0
 21 18  1  0  0  0  0
 22 19  1  0  0  0  0
 23 19  1  0  0  0  0
 25 20  1  0  0  0  0
 26 27  2  0  0  0  0
 26 33  1  0  0  0  0
 27 28  1  0  0  0  0
 28 29  1  0  0  0  0
 28 30  2  0  0  0  0
 30 31  1  0  0  0  0
 32 30  1  0  0  0  0
 33 32  2  0  0  0  0
 34 35  1  0  0  0  0
 35 26  1  0  0  0  0
 36 35  2  0  0  0  0
 37 35  2  0  0  0  0
M  END
>  <minimizedAffinity>
-5.65759325

$$$$

 OpenBabel03252505203D

 37 40  0  0  0  0  0  0  0  0999 V2000
   37.5630   29.0410   41.3880 C   0  0  0  0  0  0  0  0  0  0  0  0
   37.4790   29.3610   42.7220 C   0  0  0  0  0  0  0  0  0  0  0  0
   37.5440   28.3680   43.6760 C   0  0  0  0  0  0  0  0  0  0  0  0
   37.6950   27.0750   43.2340 C   0  0  0  0  0  0  0  0  0  0  0  0
   37.7800   26.7670   41.8800 C   0  0  0  0  0  0  0  0  0  0  0  0
   37.7090   27.7860   40.9710 N   0  0  0  0  0  0  0  0  0  0  0  0
   37.3610   30.3930   43.0180 H   0  0  0  0  0  0  0  0  0  0  0  0
   37.4810   28.5950   44.7200 H   0  0  0  0  0  0  0  0  0  0  0  0
   37.7070   26.3160   43.9780 H   0  0  0  0  0  0  0  0  0  0  0  0
   37.3610   32.3760   39.8300 C   0  0  0  0  0  0  0  0  0  0  0  0
   37.2370   32.0930   38.4700 C   0  0  0  0  0  0  0  0  0  0  0  0
   37.2360   30.7520   38.1190 C   0  0  0  0  0  0  0  0  0  0  0  0
   37.3520   29.7710   39.0780 N   0  0  0  0  0  0  0  0  0  0  0  0
   37.4700   30.1000   40.3920 C   0  0  0  0  0  0  0  0  0  0  0  0
   37.4740   31.4020   40.7560 N   0  0  0  0  0  0  0  0  0  0  0  0
   37.3660   33.4190   40.1360 H   0  0  0  0  0  0  0  0  0  0  0  0
   37.1440   32.8560   37.7090 H   0  0  0  0  0  0  0  0  0  0  0  0
   37.0720   30.3350   36.6920 C   0  0  0  0  0  0  0  0  0  0  0  0
   37.5640   28.9140   36.4160 C   0  0  0  0  0  0  0  0  0  0  0  0
   36.0650   29.3680   36.3480 C   0  0  0  0  0  0  0  0  0  0  0  0
   37.3990   31.0940   35.9250 H   0  0  0  0  0  0  0  0  0  0  0  0
   38.0180   28.7580   35.4310 H   0  0  0  0  0  0  0  0  0  0  0  0
   37.8250   28.2820   37.2770 H   0  0  0  0  0  0  0  0  0  0  0  0
   35.4340   28.9640   37.1890 H   0  0  0  0  0  0  0  0  0  0  0  0
   35.5950   29.3300   35.3540 H   0  0  0  0  0  0  0  0  0  0  0  0
   39.0180   24.7160   41.0030 C   0  0  0  0  0  0  0  0  0  0  0  0
   37.8880   25.4350   41.3040 C   0  0  0  0  0  0  0  0  0  0  0  0
   36.6820   24.7930   40.9800 C   0  0  0  0  0  0  0  0  0  0  0  0
   35.7130   25.2800   41.1780 H   0  0  0  0  0  0  0  0  0  0  0  0
   36.5470   23.5650   40.4160 C   0  0  0  0  0  0  0  0  0  0  0  0
   35.6100   23.1130   40.1870 H   0  0  0  0  0  0  0  0  0  0  0  0
   37.6790   22.8490   40.1180 C   0  0  0  0  0  3  0  0  0  0  0  0
   38.8820   23.4470   40.4210 C   0  0  0  0  0  3  0  0  0  0  0  0
   40.6210   26.7270   41.4790 H   0  0  0  0  0  0  0  0  0  0  0  0
   40.5850   25.3810   41.2580 S   0  0  0  0  0  0  0  0  0  0  0  0
   41.6240   24.9080   40.2780 O   0  0  0  0  0  0  0  0  0  0  0  0
   41.0700   24.7930   42.5980 O   0  0  0  0  0  0  0  0  0  0  0  0
  1  2  1  0  0  0  0
  2  7  1  0  0  0  0
  2  3  2  0  0  0  0
  3  8  1  0  0  0  0
  4  3  1  0  0  0  0
  4  9  1  0  0  0  0
  5  4  2  0  0  0  0
  6  1  2  0  0  0  0
  6  5  1  0  0  0  0
 10 16  1  0  0  0  0
 10 15  1  0  0  0  0
 11 10  2  0  0  0  0
 12 11  1  0  0  0  0
 12 13  2  0  0  0  0
 13 14  1  0  0  0  0
 14 15  2  0  0  0  0
 14  1  1  0  0  0  0
 17 11  1  0  0  0  0
 18 12  1  0  0  0  0
 19 18  1  0  0  0  0
 19 23  1  0  0  0  0
 20 19  1  0  0  0  0
 20 18  1  0  0  0  0
 20 24  1  0  0  0  0
 21 18  1  0  0  0  0
 22 19  1  0  0  0  0
 25 20  1  0  0  0  0
 26 35  1  0  0  0  0
 26 27  1  0  0  0  0
 27  5  1  0  0  0  0
 28 29  1  0  0  0  0
 28 27  2  0  0  0  0
 30 28  1  0  0  0  0
 31 30  1  0  0  0  0
 32 30  2  0  0  0  0
 32 33  1  0  0  0  0
 33 26  2  0  0  0  0
 35 34  1  0  0  0  0
 35 37  2  0  0  0  0
 36 35  2  0  0  0  0
M  END
>  <minimizedAffinity>
-5.64103651

$$$$

 OpenBabel03252505203D

 37 40  0  0  0  0  0  0  0  0999 V2000
   38.1450   31.0960   40.0190 C   0  0  0  0  0  0  0  0  0  0  0  0
   37.2490   32.1340   39.9320 C   0  0  0  0  0  0  0  0  0  0  0  0
   37.6990   33.4370   39.9230 C   0  0  0  0  0  0  0  0  0  0  0  0
   39.0570   33.6380   40.0030 C   0  0  0  0  0  0  0  0  0  0  0  0
   39.9520   32.5760   40.0890 C   0  0  0  0  0  0  0  0  0  0  0  0
   39.4580   31.3020   40.0950 N   0  0  0  0  0  0  0  0  0  0  0  0
   36.1910   31.9240   39.8710 H   0  0  0  0  0  0  0  0  0  0  0  0
   37.0180   34.2600   39.8560 H   0  0  0  0  0  0  0  0  0  0  0  0
   39.3880   34.6470   40.0320 H   0  0  0  0  0  0  0  0  0  0  0  0
   36.6200   27.8990   38.9970 C   0  0  0  0  0  0  0  0  0  0  0  0
   36.6700   27.1290   40.1590 C   0  0  0  0  0  0  0  0  0  0  0  0
   37.2400   27.7290   41.2710 C   0  0  0  0  0  0  0  0  0  0  0  0
   37.7230   29.0160   41.2080 N   0  0  0  0  0  0  0  0  0  0  0  0
   37.6510   29.7260   40.0490 C   0  0  0  0  0  0  0  0  0  0  0  0
   37.1000   29.1590   38.9540 N   0  0  0  0  0  0  0  0  0  0  0  0
   36.1800   27.4550   38.1080 H   0  0  0  0  0  0  0  0  0  0  0  0
   36.2910   26.1170   40.2180 H   0  0  0  0  0  0  0  0  0  0  0  0
   37.3110   27.0070   42.5780 C   0  0  0  0  0  0  0  0  0  0  0  0
   38.0320   27.7980   43.6690 C   0  0  0  0  0  0  0  0  0  0  0  0
   36.5030   27.4550   43.6800 C   0  0  0  0  0  0  0  0  0  0  0  0
   37.6150   25.9220   42.5160 H   0  0  0  0  0  0  0  0  0  0  0  0
   38.6200   27.1980   44.3730 H   0  0  0  0  0  0  0  0  0  0  0  0
   38.2760   28.8510   43.4670 H   0  0  0  0  0  0  0  0  0  0  0  0
   35.8400   28.3480   43.4990 H   0  0  0  0  0  0  0  0  0  0  0  0
   36.1660   26.7800   44.4810 H   0  0  0  0  0  0  0  0  0  0  0  0
   42.3490   32.8200   39.2500 C   0  0  0  0  0  0  0  0  0  0  0  0
   41.3970   32.6770   40.2280 C   0  0  0  0  0  0  0  0  0  0  0  0
   41.9080   32.5900   41.5340 C   0  0  0  0  0  0  0  0  0  0  0  0
   41.2320   32.4730   42.3970 H   0  0  0  0  0  0  0  0  0  0  0  0
   43.2160   32.6360   41.8940 C   0  0  0  0  0  0  0  0  0  0  0  0
   43.5620   32.5670   42.8980 H   0  0  0  0  0  0  0  0  0  0  0  0
   44.1640   32.7810   40.9130 C   0  0  0  0  0  3  0  0  0  0  0  0
   43.7010   32.8690   39.6190 C   0  0  0  0  0  3  0  0  0  0  0  0
   40.5830   33.0600   37.3360 H   0  0  0  0  0  0  0  0  0  0  0  0
   41.9090   32.8630   37.5860 S   0  0  0  0  0  0  0  0  0  0  0  0
   42.5170   31.7630   36.7580 O   0  0  0  0  0  0  0  0  0  0  0  0
   42.5660   34.1370   37.0180 O   0  0  0  0  0  0  0  0  0  0  0  0
  1 14  1  0  0  0  0
  1  6  1  0  0  0  0
  2  1  2  0  0  0  0
  3  2  1  0  0  0  0
  3  4  2  0  0  0  0
  4  9  1  0  0  0  0
  4  5  1  0  0  0  0
  5  6  2  0  0  0  0
  5 27  1  0  0  0  0
  7  2  1  0  0  0  0
  8  3  1  0  0  0  0
 10 11  1  0  0  0  0
 11 17  1  0  0  0  0
 11 12  2  0  0  0  0
 12 18  1  0  0  0  0
 13 12  1  0  0  0  0
 14 13  2  0  0  0  0
 15 10  2  0  0  0  0
 15 14  1  0  0  0  0
 16 10  1  0  0  0  0
 18 19  1  0  0  0  0
 18 20  1  0  0  0  0
 19 20  1  0  0  0  0
 19 22  1  0  0  0  0
 20 25  1  0  0  0  0
 21 18  1  0  0  0  0
 23 19  1  0  0  0  0
 24 20  1  0  0  0  0
 26 33  2  0  0  0  0
 26 27  1  0  0  0  0
 27 28  2  0  0  0  0
 28 30  1  0  0  0  0
 28 29  1  0  0  0  0
 30 31  1  0  0  0  0
 32 30  2  0  0  0  0
 33 32  1  0  0  0  0
 34 35  1  0  0  0  0
 35 26  1  0  0  0  0
 36 35  2  0  0  0  0
 37 35  2  0  0  0  0
M  END
>  <minimizedAffinity>
-5.59437847

$$$$

 OpenBabel03252505203D

 37 40  0  0  0  0  0  0  0  0999 V2000
   37.0120   28.3080   38.4480 C   0  0  0  0  0  0  0  0  0  0  0  0
   36.4790   28.1860   37.1870 C   0  0  0  0  0  0  0  0  0  0  0  0
   36.4950   29.2600   36.3230 C   0  0  0  0  0  0  0  0  0  0  0  0
   37.0580   30.4290   36.7790 C   0  0  0  0  0  0  0  0  0  0  0  0
   37.5950   30.5370   38.0580 C   0  0  0  0  0  0  0  0  0  0  0  0
   37.5550   29.4430   38.8780 N   0  0  0  0  0  0  0  0  0  0  0  0
   36.0470   27.2450   36.8770 H   0  0  0  0  0  0  0  0  0  0  0  0
   36.0860   29.1870   35.3370 H   0  0  0  0  0  0  0  0  0  0  0  0
   37.0320   31.2600   36.1160 H   0  0  0  0  0  0  0  0  0  0  0  0
   36.5960   24.8860   39.7580 C   0  0  0  0  0  0  0  0  0  0  0  0
   36.8370   25.0300   41.1240 C   0  0  0  0  0  0  0  0  0  0  0  0
   37.1480   26.3080   41.5630 C   0  0  0  0  0  0  0  0  0  0  0  0
   37.2110   27.3610   40.6800 N   0  0  0  0  0  0  0  0  0  0  0  0
   36.9670   27.1690   39.3550 C   0  0  0  0  0  0  0  0  0  0  0  0
   36.6620   25.9310   38.9070 N   0  0  0  0  0  0  0  0  0  0  0  0
   36.3500   23.8960   39.3840 H   0  0  0  0  0  0  0  0  0  0  0  0
   36.7890   24.2080   41.8260 H   0  0  0  0  0  0  0  0  0  0  0  0
   37.3900   26.5810   43.0140 C   0  0  0  0  0  0  0  0  0  0  0  0
   38.5110   27.5900   43.2610 C   0  0  0  0  0  0  0  0  0  0  0  0
   36.9970   27.8460   43.5710 C   0  0  0  0  0  0  0  0  0  0  0  0
   37.4330   25.6690   43.6770 H   0  0  0  0  0  0  0  0  0  0  0  0
   39.1150   27.4090   44.1570 H   0  0  0  0  0  0  0  0  0  0  0  0
   38.9130   28.1370   42.3960 H   0  0  0  0  0  0  0  0  0  0  0  0
   36.5130   28.5860   42.8720 H   0  0  0  0  0  0  0  0  0  0  0  0
   36.7360   27.9700   44.6330 H   0  0  0  0  0  0  0  0  0  0  0  0
   39.4830   32.1140   38.7320 C   0  0  0  0  0  0  0  0  0  0  0  0
   38.1670   31.7340   38.6540 C   0  0  0  0  0  0  0  0  0  0  0  0
   37.2650   32.6210   39.2650 C   0  0  0  0  0  0  0  0  0  0  0  0
   36.1820   32.4130   39.2630 H   0  0  0  0  0  0  0  0  0  0  0  0
   37.5770   33.7800   39.9000 C   0  0  0  0  0  0  0  0  0  0  0  0
   36.8590   34.4250   40.3500 H   0  0  0  0  0  0  0  0  0  0  0  0
   38.8940   34.1570   39.9730 C   0  0  0  0  0  3  0  0  0  0  0  0
   39.8090   33.3110   39.3850 C   0  0  0  0  0  3  0  0  0  0  0  0
   40.3120   29.9890   37.4510 H   0  0  0  0  0  0  0  0  0  0  0  0
   40.7340   31.1080   38.1080 S   0  0  0  0  0  0  0  0  0  0  0  0
   41.8560   30.8460   39.0750 O   0  0  0  0  0  0  0  0  0  0  0  0
   41.4100   31.9330   36.9950 O   0  0  0  0  0  0  0  0  0  0  0  0
  1  6  1  0  0  0  0
  1 14  1  0  0  0  0
  2  1  2  0  0  0  0
  3  4  2  0  0  0  0
  3  2  1  0  0  0  0
  4  5  1  0  0  0  0
  5 27  1  0  0  0  0
  5  6  2  0  0  0  0
  7  2  1  0  0  0  0
  8  3  1  0  0  0  0
  9  4  1  0  0  0  0
 10 11  1  0  0  0  0
 11 12  2  0  0  0  0
 11 17  1  0  0  0  0
 12 18  1  0  0  0  0
 13 12  1  0  0  0  0
 14 13  2  0  0  0  0
 15 14  1  0  0  0  0
 15 10  2  0  0  0  0
 16 10  1  0  0  0  0
 18 19  1  0  0  0  0
 18 20  1  0  0  0  0
 18 21  1  0  0  0  0
 19 20  1  0  0  0  0
 19 22  1  0  0  0  0
 20 25  1  0  0  0  0
 23 19  1  0  0  0  0
 24 20  1  0  0  0  0
 26 33  1  0  0  0  0
 27 26  2  0  0  0  0
 27 28  1  0  0  0  0
 28 30  2  0  0  0  0
 29 28  1  0  0  0  0
 30 32  1  0  0  0  0
 30 31  1  0  0  0  0
 33 32  2  0  0  0  0
 34 35  1  0  0  0  0
 35 26  1  0  0  0  0
 35 36  2  0  0  0  0
 37 35  2  0  0  0  0
M  END
>  <minimizedAffinity>
-5.58193779

$$$$

 OpenBabel03252505203D

 37 40  0  0  0  0  0  0  0  0999 V2000
   37.4400   29.4520   40.0510 C   0  0  0  0  0  0  0  0  0  0  0  0
   36.4760   29.3010   39.0830 C   0  0  0  0  0  0  0  0  0  0  0  0
   36.5420   30.0390   37.9200 C   0  0  0  0  0  0  0  0  0  0  0  0
   37.5970   30.9100   37.7840 C   0  0  0  0  0  0  0  0  0  0  0  0
   38.5660   31.0520   38.7720 C   0  0  0  0  0  0  0  0  0  0  0  0
   38.4570   30.2980   39.9080 N   0  0  0  0  0  0  0  0  0  0  0  0
   35.6670   28.6020   39.2380 H   0  0  0  0  0  0  0  0  0  0  0  0
   35.8020   29.9360   37.1540 H   0  0  0  0  0  0  0  0  0  0  0  0
   37.6160   31.4990   36.8990 H   0  0  0  0  0  0  0  0  0  0  0  0
   37.3810   28.5520   43.6250 C   0  0  0  0  0  0  0  0  0  0  0  0
   37.2070   27.1680   43.6090 C   0  0  0  0  0  0  0  0  0  0  0  0
   37.1040   26.5750   42.3600 C   0  0  0  0  0  0  0  0  0  0  0  0
   37.1720   27.3320   41.2130 N   0  0  0  0  0  0  0  0  0  0  0  0
   37.3430   28.6800   41.2820 C   0  0  0  0  0  0  0  0  0  0  0  0
   37.4460   29.2770   42.4900 N   0  0  0  0  0  0  0  0  0  0  0  0
   37.4650   29.0450   44.5900 H   0  0  0  0  0  0  0  0  0  0  0  0
   37.1540   26.5650   44.5060 H   0  0  0  0  0  0  0  0  0  0  0  0
   36.9520   25.0940   42.2270 C   0  0  0  0  0  0  0  0  0  0  0  0
   36.8900   24.6200   40.7750 C   0  0  0  0  0  0  0  0  0  0  0  0
   38.0620   24.3060   41.7660 C   0  0  0  0  0  0  0  0  0  0  0  0
   36.1780   24.6240   42.9000 H   0  0  0  0  0  0  0  0  0  0  0  0
   36.2340   23.7610   40.5890 H   0  0  0  0  0  0  0  0  0  0  0  0
   37.1240   25.3470   39.9840 H   0  0  0  0  0  0  0  0  0  0  0  0
   39.0150   24.8570   41.5240 H   0  0  0  0  0  0  0  0  0  0  0  0
   38.1930   23.2490   42.0390 H   0  0  0  0  0  0  0  0  0  0  0  0
   40.9110   31.8340   38.1430 C   0  0  0  0  0  0  0  0  0  0  0  0
   39.6890   31.9760   38.7520 C   0  0  0  0  0  0  0  0  0  0  0  0
   39.5300   33.1710   39.4720 C   0  0  0  0  0  0  0  0  0  0  0  0
   38.5880   33.3880   40.0010 H   0  0  0  0  0  0  0  0  0  0  0  0
   40.4500   34.1600   39.6090 C   0  0  0  0  0  0  0  0  0  0  0  0
   40.2870   35.0530   40.1650 H   0  0  0  0  0  0  0  0  0  0  0  0
   41.6690   34.0150   38.9970 C   0  0  0  0  0  3  0  0  0  0  0  0
   41.8630   32.8540   38.2810 C   0  0  0  0  0  3  0  0  0  0  0  0
   40.3880   29.9870   36.3660 H   0  0  0  0  0  0  0  0  0  0  0  0
   41.3110   30.3960   37.2840 S   0  0  0  0  0  0  0  0  0  0  0  0
   41.8280   29.2810   38.1510 O   0  0  0  0  0  0  0  0  0  0  0  0
   42.5300   30.7610   36.4130 O   0  0  0  0  0  0  0  0  0  0  0  0
  1 14  1  0  0  0  0
  2  7  1  0  0  0  0
  2  1  2  0  0  0  0
  3  2  1  0  0  0  0
  4  3  2  0  0  0  0
  4  5  1  0  0  0  0
  5  6  2  0  0  0  0
  6  1  1  0  0  0  0
  8  3  1  0  0  0  0
  9  4  1  0  0  0  0
 10 16  1  0  0  0  0
 11 10  1  0  0  0  0
 11 17  1  0  0  0  0
 12 11  2  0  0  0  0
 13 14  2  0  0  0  0
 13 12  1  0  0  0  0
 14 15  1  0  0  0  0
 15 10  2  0  0  0  0
 18 12  1  0  0  0  0
 18 21  1  0  0  0  0
 19 20  1  0  0  0  0
 19 18  1  0  0  0  0
 20 25  1  0  0  0  0
 20 18  1  0  0  0  0
 22 19  1  0  0  0  0
 23 19  1  0  0  0  0
 24 20  1  0  0  0  0
 26 33  2  0  0  0  0
 26 27  1  0  0  0  0
 27  5  1  0  0  0  0
 27 28  2  0  0  0  0
 28 30  1  0  0  0  0
 28 29  1  0  0  0  0
 30 31  1  0  0  0  0
 32 30  2  0  0  0  0
 33 32  1  0  0  0  0
 34 35  1  0  0  0  0
 35 26  1  0  0  0  0
 35 36  2  0  0  0  0
 37 35  2  0  0  0  0
M  END
>  <minimizedAffinity>
-5.54793072

$$$$

 OpenBabel03252505203D

 37 40  0  0  0  0  0  0  0  0999 V2000
   37.5800   29.0710   41.4950 C   0  0  0  0  0  0  0  0  0  0  0  0
   37.3480   29.2480   42.8370 C   0  0  0  0  0  0  0  0  0  0  0  0
   37.2910   28.1590   43.6790 C   0  0  0  0  0  0  0  0  0  0  0  0
   37.4720   26.9170   43.1180 C   0  0  0  0  0  0  0  0  0  0  0  0
   37.7070   26.7520   41.7570 C   0  0  0  0  0  0  0  0  0  0  0  0
   37.7550   27.8640   40.9630 N   0  0  0  0  0  0  0  0  0  0  0  0
   37.2120   30.2460   43.2290 H   0  0  0  0  0  0  0  0  0  0  0  0
   37.1120   28.2750   44.7280 H   0  0  0  0  0  0  0  0  0  0  0  0
   37.3890   26.0820   43.7720 H   0  0  0  0  0  0  0  0  0  0  0  0
   36.9910   31.3170   38.6310 C   0  0  0  0  0  0  0  0  0  0  0  0
   37.7540   32.4440   38.9400 C   0  0  0  0  0  0  0  0  0  0  0  0
   38.4490   32.4070   40.1380 C   0  0  0  0  0  0  0  0  0  0  0  0
   38.3760   31.3070   40.9630 N   0  0  0  0  0  0  0  0  0  0  0  0
   37.6170   30.2320   40.6160 C   0  0  0  0  0  0  0  0  0  0  0  0
   36.9310   30.2490   39.4520 N   0  0  0  0  0  0  0  0  0  0  0  0
   36.4340   31.3170   37.6980 H   0  0  0  0  0  0  0  0  0  0  0  0
   37.8190   33.3120   38.2970 H   0  0  0  0  0  0  0  0  0  0  0  0
   39.3260   33.5460   40.5500 C   0  0  0  0  0  0  0  0  0  0  0  0
   40.8060   33.1720   40.6290 C   0  0  0  0  0  0  0  0  0  0  0  0
   40.1910   34.1590   39.5790 C   0  0  0  0  0  0  0  0  0  0  0  0
   38.9540   34.1510   41.4260 H   0  0  0  0  0  0  0  0  0  0  0  0
   41.3750   33.6750   41.4200 H   0  0  0  0  0  0  0  0  0  0  0  0
   41.1140   32.1950   40.2310 H   0  0  0  0  0  0  0  0  0  0  0  0
   40.1640   33.7430   38.5330 H   0  0  0  0  0  0  0  0  0  0  0  0
   40.5170   35.2080   39.6540 H   0  0  0  0  0  0  0  0  0  0  0  0
   39.0140   24.8060   40.7520 C   0  0  0  0  0  0  0  0  0  0  0  0
   37.8620   25.4870   41.0560 C   0  0  0  0  0  0  0  0  0  0  0  0
   36.6840   24.8780   40.5950 C   0  0  0  0  0  0  0  0  0  0  0  0
   35.7000   25.3390   40.7830 H   0  0  0  0  0  0  0  0  0  0  0  0
   36.5940   23.7140   39.9010 C   0  0  0  0  0  0  0  0  0  0  0  0
   35.6770   23.2860   39.5700 H   0  0  0  0  0  0  0  0  0  0  0  0
   37.7480   23.0360   39.6010 C   0  0  0  0  0  3  0  0  0  0  0  0
   38.9250   23.6030   40.0360 C   0  0  0  0  0  3  0  0  0  0  0  0
   40.5860   26.7840   41.4270 H   0  0  0  0  0  0  0  0  0  0  0  0
   40.5580   25.4450   41.1690 S   0  0  0  0  0  0  0  0  0  0  0  0
   41.6790   24.9850   40.2770 O   0  0  0  0  0  0  0  0  0  0  0  0
   40.9090   24.8180   42.5320 O   0  0  0  0  0  0  0  0  0  0  0  0
  1  2  1  0  0  0  0
  2  7  1  0  0  0  0
  2  3  2  0  0  0  0
  3  8  1  0  0  0  0
  4  3  1  0  0  0  0
  4  9  1  0  0  0  0
  5  4  2  0  0  0  0
  6  1  2  0  0  0  0
  6  5  1  0  0  0  0
 10 11  2  0  0  0  0
 10 15  1  0  0  0  0
 11 12  1  0  0  0  0
 12 18  1  0  0  0  0
 12 13  2  0  0  0  0
 14 13  1  0  0  0  0
 14  1  1  0  0  0  0
 15 14  2  0  0  0  0
 16 10  1  0  0  0  0
 17 11  1  0  0  0  0
 18 19  1  0  0  0  0
 18 21  1  0  0  0  0
 19 22  1  0  0  0  0
 20 25  1  0  0  0  0
 20 18  1  0  0  0  0
 20 19  1  0  0  0  0
 23 19  1  0  0  0  0
 24 20  1  0  0  0  0
 26 27  1  0  0  0  0
 26 35  1  0  0  0  0
 27  5  1  0  0  0  0
 28 29  1  0  0  0  0
 28 27  2  0  0  0  0
 30 28  1  0  0  0  0
 31 30  1  0  0  0  0
 32 30  2  0  0  0  0
 32 33  1  0  0  0  0
 33 26  2  0  0  0  0
 35 34  1  0  0  0  0
 35 37  2  0  0  0  0
 36 35  2  0  0  0  0
M  END
>  <minimizedAffinity>
-5.45703793

$$$$

 OpenBabel03252505203D

 37 40  0  0  0  0  0  0  0  0999 V2000
   38.3540   28.8270   42.1010 C   0  0  0  0  0  0  0  0  0  0  0  0
   37.6380   28.8940   43.2720 C   0  0  0  0  0  0  0  0  0  0  0  0
   36.8770   27.8190   43.6800 C   0  0  0  0  0  0  0  0  0  0  0  0
   36.8740   26.7050   42.8730 C   0  0  0  0  0  0  0  0  0  0  0  0
   37.6040   26.6520   41.6910 C   0  0  0  0  0  0  0  0  0  0  0  0
   38.3430   27.7440   41.3290 N   0  0  0  0  0  0  0  0  0  0  0  0
   37.6750   29.7930   43.8710 H   0  0  0  0  0  0  0  0  0  0  0  0
   36.3130   27.8500   44.5880 H   0  0  0  0  0  0  0  0  0  0  0  0
   36.2550   25.8970   43.1800 H   0  0  0  0  0  0  0  0  0  0  0  0
   41.0670   31.3070   41.8100 C   0  0  0  0  0  0  0  0  0  0  0  0
   40.5740   32.2200   40.8770 C   0  0  0  0  0  0  0  0  0  0  0  0
   39.3150   31.9530   40.3610 C   0  0  0  0  0  0  0  0  0  0  0  0
   38.6100   30.8410   40.7610 N   0  0  0  0  0  0  0  0  0  0  0  0
   39.1350   29.9800   41.6750 C   0  0  0  0  0  0  0  0  0  0  0  0
   40.3610   30.2220   42.1900 N   0  0  0  0  0  0  0  0  0  0  0  0
   42.0510   31.4890   42.2320 H   0  0  0  0  0  0  0  0  0  0  0  0
   41.1200   33.0970   40.5580 H   0  0  0  0  0  0  0  0  0  0  0  0
   38.6770   32.8850   39.3820 C   0  0  0  0  0  0  0  0  0  0  0  0
   37.5960   32.2210   38.5290 C   0  0  0  0  0  0  0  0  0  0  0  0
   37.3280   33.3300   39.6030 C   0  0  0  0  0  0  0  0  0  0  0  0
   39.3890   33.5380   38.7990 H   0  0  0  0  0  0  0  0  0  0  0  0
   37.5220   32.5850   37.4980 H   0  0  0  0  0  0  0  0  0  0  0  0
   37.2700   31.2080   38.8070 H   0  0  0  0  0  0  0  0  0  0  0  0
   36.8070   32.9460   40.5250 H   0  0  0  0  0  0  0  0  0  0  0  0
   36.9500   34.2900   39.2210 H   0  0  0  0  0  0  0  0  0  0  0  0
   37.0920   25.4810   39.4830 C   0  0  0  0  0  0  0  0  0  0  0  0
   37.6310   25.5480   40.7430 C   0  0  0  0  0  0  0  0  0  0  0  0
   38.2680   24.3720   41.1700 C   0  0  0  0  0  0  0  0  0  0  0  0
   38.7350   24.3140   42.1670 H   0  0  0  0  0  0  0  0  0  0  0  0
   38.3900   23.2180   40.4650 C   0  0  0  0  0  0  0  0  0  0  0  0
   38.8830   22.3460   40.8280 H   0  0  0  0  0  0  0  0  0  0  0  0
   37.8510   23.1560   39.2050 C   0  0  0  0  0  3  0  0  0  0  0  0
   37.2170   24.2910   38.7510 C   0  0  0  0  0  3  0  0  0  0  0  0
   35.7090   27.6860   39.7420 H   0  0  0  0  0  0  0  0  0  0  0  0
   36.2050   26.8040   38.8280 S   0  0  0  0  0  0  0  0  0  0  0  0
   35.2080   26.4150   37.7700 O   0  0  0  0  0  0  0  0  0  0  0  0
   37.2350   27.6470   38.0500 O   0  0  0  0  0  0  0  0  0  0  0  0
  1  2  1  0  0  0  0
  2  3  2  0  0  0  0
  2  7  1  0  0  0  0
  3  8  1  0  0  0  0
  4  9  1  0  0  0  0
  4  3  1  0  0  0  0
  5  4  2  0  0  0  0
  6  5  1  0  0  0  0
  6  1  2  0  0  0  0
 10 15  1  0  0  0  0
 10 16  1  0  0  0  0
 11 10  2  0  0  0  0
 12 13  2  0  0  0  0
 12 11  1  0  0  0  0
 13 14  1  0  0  0  0
 14  1  1  0  0  0  0
 14 15  2  0  0  0  0
 17 11  1  0  0  0  0
 18 20  1  0  0  0  0
 18 12  1  0  0  0  0
 19 23  1  0  0  0  0
 19 18  1  0  0  0  0
 19 20  1  0  0  0  0
 20 24  1  0  0  0  0
 21 18  1  0  0  0  0
 22 19  1  0  0  0  0
 25 20  1  0  0  0  0
 26 27  1  0  0  0  0
 27 28  2  0  0  0  0
 27  5  1  0  0  0  0
 28 29  1  0  0  0  0
 30 31  1  0  0  0  0
 30 28  1  0  0  0  0
 32 30  2  0  0  0  0
 33 32  1  0  0  0  0
 33 26  2  0  0  0  0
 35 26  1  0  0  0  0
 35 34  1  0  0  0  0
 36 35  2  0  0  0  0
 37 35  2  0  0  0  0
M  END
>  <minimizedAffinity>
-5.3813343

$$$$
