
 OpenBabel03242517243D

 46 49  0  0  1  0  0  0  0  0999 V2000
   42.0370   31.0230   42.9510 C   0  0  0  0  0  0  0  0  0  0  0  0
   42.2110   29.6350   43.0670 C   0  0  0  0  0  0  0  0  0  0  0  0
   41.2940   28.7780   42.4290 C   0  0  0  0  0  0  0  0  0  0  0  0
   40.2790   29.3530   41.7290 N   0  0  0  0  0  0  0  0  0  0  0  0
   40.1420   30.6980   41.6380 C   0  0  0  0  0  0  0  0  0  0  0  0
   41.0230   31.5400   42.2510 N   0  0  0  0  0  0  0  0  0  0  0  0
   39.0400   31.2120   40.8770 N   0  0  0  0  0  0  0  0  0  0  0  0
   39.0940   32.6360   40.5560 C   0  0  0  0  0  0  0  0  0  0  0  0
   37.8270   33.2240   40.0840 C   0  0  0  0  0  0  0  0  0  0  0  0
   37.0220   32.2260   39.3180 C   0  0  0  0  0  0  0  0  0  0  0  0
   36.7110   31.1080   40.2640 C   0  0  0  0  0  0  0  0  0  0  0  0
   37.9660   30.3370   40.4750 C   0  0  2  0  0  0  0  0  0  0  0  0
   42.7890   31.6060   43.4730 H   0  0  0  0  0  0  0  0  0  0  0  0
   43.0030   29.1390   43.6140 H   0  0  0  0  0  0  0  0  0  0  0  0
   41.3010   27.7140   42.4310 H   0  0  0  0  0  0  0  0  0  0  0  0
   39.3890   33.1310   41.5120 H   0  0  0  0  0  0  0  0  0  0  0  0
   39.9370   32.7660   39.8560 H   0  0  0  0  0  0  0  0  0  0  0  0
   37.2430   33.6870   40.9090 H   0  0  0  0  0  0  0  0  0  0  0  0
   38.0460   34.0610   39.3770 H   0  0  0  0  0  0  0  0  0  0  0  0
   36.1210   32.6840   38.8610 H   0  0  0  0  0  0  0  0  0  0  0  0
   37.6330   31.8480   38.4800 H   0  0  0  0  0  0  0  0  0  0  0  0
   35.8570   30.4840   39.9950 H   0  0  0  0  0  0  0  0  0  0  0  0
   36.4490   31.5610   41.2650 H   0  0  0  0  0  0  0  0  0  0  0  0
   38.2870   29.9140   39.4870 H   0  0  0  0  0  0  0  0  0  0  0  0
   38.0350   27.6100   39.6010 F   0  0  0  0  0  0  0  0  0  0  0  0
   37.8080   27.8340   40.9380 C   0  0  0  0  0  0  0  0  0  0  0  0
   37.7770   29.1560   41.3540 C   0  0  0  0  0  0  0  0  0  0  0  0
   37.5430   29.3340   42.7150 C   0  0  0  0  0  0  0  0  0  0  0  0
   37.3540   28.2970   43.6000 C   0  0  0  0  0  0  0  0  0  0  0  0
   37.3950   26.9950   43.1360 C   0  0  0  0  0  0  0  0  0  0  0  0
   37.6210   26.7900   41.8100 C   0  0  0  0  0  0  0  0  0  0  0  0
   37.5000   30.3410   43.1430 H   0  0  0  0  0  0  0  0  0  0  0  0
   37.1760   28.4960   44.6480 H   0  0  0  0  0  0  0  0  0  0  0  0
   37.2540   26.1390   43.7830 H   0  0  0  0  0  0  0  0  0  0  0  0
   38.8390   24.6600   41.2150 C   0  0  0  0  0  0  0  0  0  0  0  0
   37.6750   25.4310   41.2550 C   0  0  0  0  0  0  0  0  0  0  0  0
   36.4920   24.9200   40.7540 C   0  0  0  0  0  0  0  0  0  0  0  0
   35.5450   25.4720   40.7550 H   0  0  0  0  0  0  0  0  0  0  0  0
   36.4230   23.6510   40.2060 C   0  0  0  0  0  0  0  0  0  0  0  0
   35.4870   23.2530   39.8120 H   0  0  0  0  0  0  0  0  0  0  0  0
   37.5930   22.8970   40.1750 C   0  0  0  0  0  3  0  0  0  0  0  0
   38.7670   23.3920   40.6670 C   0  0  0  0  0  3  0  0  0  0  0  0
   40.1500   26.7760   41.9320 H   0  0  0  0  0  0  0  0  0  0  0  0
   40.2750   25.3930   41.8710 S   0  0  0  0  0  0  0  0  0  0  0  0
   40.7000   24.8240   43.1770 O   0  0  0  0  0  0  0  0  0  0  0  0
   41.4370   25.1490   40.9180 O   0  0  0  0  0  0  0  0  0  0  0  0
  1  2  1  0  0  0  0
  1 13  1  0  0  0  0
  2 14  1  0  0  0  0
  3 15  1  0  0  0  0
  3  2  2  0  0  0  0
  4  3  1  0  0  0  0
  5  4  2  0  0  0  0
  5  6  1  0  0  0  0
  6  1  2  0  0  0  0
  7  5  1  0  0  0  0
  8  7  1  0  0  0  0
  8 16  1  0  0  0  0
  9  8  1  0  0  0  0
  9 18  1  0  0  0  0
 10  9  1  0  0  0  0
 10 11  1  0  0  0  0
 11 12  1  0  0  0  0
 11 23  1  0  0  0  0
 12 24  1  6  0  0  0
 12  7  1  0  0  0  0
 12 27  1  0  0  0  0
 17  8  1  0  0  0  0
 19  9  1  0  0  0  0
 20 10  1  0  0  0  0
 21 10  1  0  0  0  0
 22 11  1  0  0  0  0
 25 26  1  0  0  0  0
 26 27  2  0  0  0  0
 26 31  1  0  0  0  0
 27 28  1  0  0  0  0
 28 32  1  0  0  0  0
 28 29  2  0  0  0  0
 29 33  1  0  0  0  0
 30 29  1  0  0  0  0
 30 34  1  0  0  0  0
 31 30  2  0  0  0  0
 35 36  1  0  0  0  0
 35 44  1  0  0  0  0
 36 31  1  0  0  0  0
 37 38  1  0  0  0  0
 37 36  2  0  0  0  0
 39 37  1  0  0  0  0
 40 39  1  0  0  0  0
 41 39  2  0  0  0  0
 41 42  1  0  0  0  0
 42 35  2  0  0  0  0
 44 43  1  0  0  0  0
 44 45  2  0  0  0  0
 46 44  2  0  0  0  0
M  END
>  <minimizedAffinity>
-6.66646767

$$$$

 OpenBabel03242517243D

 46 49  0  0  1  0  0  0  0  0999 V2000
   37.8300   31.3230   38.8800 C   0  0  0  0  0  0  0  0  0  0  0  0
   36.5750   31.0760   39.4590 C   0  0  0  0  0  0  0  0  0  0  0  0
   36.5190   30.4940   40.7400 C   0  0  0  0  0  0  0  0  0  0  0  0
   37.6990   30.2010   41.3500 N   0  0  0  0  0  0  0  0  0  0  0  0
   38.8930   30.4530   40.7610 C   0  0  0  0  0  0  0  0  0  0  0  0
   38.9620   31.0170   39.5210 N   0  0  0  0  0  0  0  0  0  0  0  0
   40.0850   30.1100   41.4820 N   0  0  0  0  0  0  0  0  0  0  0  0
   41.3310   30.6620   40.9560 C   0  0  0  0  0  0  0  0  0  0  0  0
   42.5640   30.0430   41.4790 C   0  0  0  0  0  0  0  0  0  0  0  0
   42.3820   29.5890   42.8900 C   0  0  0  0  0  0  0  0  0  0  0  0
   41.2960   28.5580   42.8740 C   0  0  0  0  0  0  0  0  0  0  0  0
   40.0080   29.2680   42.6510 C   0  0  2  0  0  0  0  0  0  0  0  0
   37.7800   31.7720   37.8940 H   0  0  0  0  0  0  0  0  0  0  0  0
   35.6160   31.2930   39.0080 H   0  0  0  0  0  0  0  0  0  0  0  0
   35.6450   30.2520   41.2970 H   0  0  0  0  0  0  0  0  0  0  0  0
   41.2770   30.4850   39.8550 H   0  0  0  0  0  0  0  0  0  0  0  0
   41.2770   31.7520   41.1080 H   0  0  0  0  0  0  0  0  0  0  0  0
   42.9380   29.2270   40.8230 H   0  0  0  0  0  0  0  0  0  0  0  0
   43.3820   30.8030   41.4960 H   0  0  0  0  0  0  0  0  0  0  0  0
   43.3310   29.2260   43.3340 H   0  0  0  0  0  0  0  0  0  0  0  0
   42.0680   30.4540   43.5020 H   0  0  0  0  0  0  0  0  0  0  0  0
   41.2760   27.8780   43.7270 H   0  0  0  0  0  0  0  0  0  0  0  0
   41.4520   27.9020   41.9680 H   0  0  0  0  0  0  0  0  0  0  0  0
   39.8420   29.9720   43.5080 H   0  0  0  0  0  0  0  0  0  0  0  0
   39.6360   27.0230   40.9100 F   0  0  0  0  0  0  0  0  0  0  0  0
   38.6480   27.2700   41.8330 C   0  0  0  0  0  0  0  0  0  0  0  0
   38.8360   28.3580   42.6730 C   0  0  0  0  0  0  0  0  0  0  0  0
   37.8100   28.5690   43.5910 C   0  0  0  0  0  0  0  0  0  0  0  0
   36.6880   27.7770   43.6790 C   0  0  0  0  0  0  0  0  0  0  0  0
   36.5470   26.7030   42.8190 C   0  0  0  0  0  0  0  0  0  0  0  0
   37.5340   26.4720   41.9110 C   0  0  0  0  0  0  0  0  0  0  0  0
   37.8640   29.4020   44.2990 H   0  0  0  0  0  0  0  0  0  0  0  0
   35.9230   27.9890   44.4140 H   0  0  0  0  0  0  0  0  0  0  0  0
   35.6890   26.0450   42.8400 H   0  0  0  0  0  0  0  0  0  0  0  0
   36.9790   25.4770   39.6570 C   0  0  0  0  0  0  0  0  0  0  0  0
   37.4440   25.3490   40.9680 C   0  0  0  0  0  0  0  0  0  0  0  0
   37.8490   24.1130   41.4380 C   0  0  0  0  0  0  0  0  0  0  0  0
   38.2230   23.9440   42.4550 H   0  0  0  0  0  0  0  0  0  0  0  0
   37.8070   22.9830   40.6400 C   0  0  0  0  0  0  0  0  0  0  0  0
   38.1290   22.0110   41.0160 H   0  0  0  0  0  0  0  0  0  0  0  0
   37.3420   23.1300   39.3370 C   0  0  0  0  0  3  0  0  0  0  0  0
   36.9400   24.3460   38.8620 C   0  0  0  0  0  3  0  0  0  0  0  0
   35.9400   27.7810   40.2220 H   0  0  0  0  0  0  0  0  0  0  0  0
   36.4940   27.0730   39.1620 S   0  0  0  0  0  0  0  0  0  0  0  0
   37.5690   27.8480   38.4880 O   0  0  0  0  0  0  0  0  0  0  0  0
   35.3700   26.9570   38.1420 O   0  0  0  0  0  0  0  0  0  0  0  0
  1  2  2  0  0  0  0
  1  6  1  0  0  0  0
  2  3  1  0  0  0  0
  3 15  1  0  0  0  0
  3  4  2  0  0  0  0
  5  4  1  0  0  0  0
  5  7  1  0  0  0  0
  6  5  2  0  0  0  0
  7 12  1  0  0  0  0
  8 17  1  0  0  0  0
  8  9  1  0  0  0  0
  8  7  1  0  0  0  0
  9 19  1  0  0  0  0
  9 10  1  0  0  0  0
 10 20  1  0  0  0  0
 10 21  1  0  0  0  0
 11 10  1  0  0  0  0
 11 22  1  0  0  0  0
 12 27  1  0  0  0  0
 12 11  1  0  0  0  0
 12 24  1  1  0  0  0
 13  1  1  0  0  0  0
 14  2  1  0  0  0  0
 16  8  1  0  0  0  0
 18  9  1  0  0  0  0
 23 11  1  0  0  0  0
 25 26  1  0  0  0  0
 26 31  2  0  0  0  0
 26 27  1  0  0  0  0
 27 28  2  0  0  0  0
 28 29  1  0  0  0  0
 28 32  1  0  0  0  0
 29 33  1  0  0  0  0
 30 34  1  0  0  0  0
 30 29  2  0  0  0  0
 31 30  1  0  0  0  0
 35 36  1  0  0  0  0
 36 37  2  0  0  0  0
 36 31  1  0  0  0  0
 37 38  1  0  0  0  0
 39 40  1  0  0  0  0
 39 37  1  0  0  0  0
 41 39  2  0  0  0  0
 42 41  1  0  0  0  0
 42 35  2  0  0  0  0
 44 35  1  0  0  0  0
 44 43  1  0  0  0  0
 45 44  2  0  0  0  0
 46 44  2  0  0  0  0
M  END
>  <minimizedAffinity>
-6.31930923

$$$$

 OpenBabel03242517243D

 46 49  0  0  1  0  0  0  0  0999 V2000
   34.9570   29.2640   37.5460 C   0  0  0  0  0  0  0  0  0  0  0  0
   34.2020   28.9650   38.6910 C   0  0  0  0  0  0  0  0  0  0  0  0
   34.7900   29.1370   39.9590 C   0  0  0  0  0  0  0  0  0  0  0  0
   36.0730   29.5880   40.0000 N   0  0  0  0  0  0  0  0  0  0  0  0
   36.7730   29.8670   38.8730 C   0  0  0  0  0  0  0  0  0  0  0  0
   36.2150   29.7050   37.6390 N   0  0  0  0  0  0  0  0  0  0  0  0
   38.1200   30.3380   39.0180 N   0  0  0  0  0  0  0  0  0  0  0  0
   38.7300   30.9040   37.8170 C   0  0  0  0  0  0  0  0  0  0  0  0
   40.1950   31.0680   37.8730 C   0  0  0  0  0  0  0  0  0  0  0  0
   40.6520   31.3680   39.2620 C   0  0  0  0  0  0  0  0  0  0  0  0
   40.2660   30.1920   40.1050 C   0  0  0  0  0  0  0  0  0  0  0  0
   38.7910   30.2370   40.2900 C   0  0  2  0  0  0  0  0  0  0  0  0
   34.4260   29.1040   36.6130 H   0  0  0  0  0  0  0  0  0  0  0  0
   33.1820   28.6050   38.7000 H   0  0  0  0  0  0  0  0  0  0  0  0
   34.3410   28.9510   40.9050 H   0  0  0  0  0  0  0  0  0  0  0  0
   38.4770   30.1840   37.0030 H   0  0  0  0  0  0  0  0  0  0  0  0
   38.1830   31.8370   37.6000 H   0  0  0  0  0  0  0  0  0  0  0  0
   40.7330   30.1990   37.4350 H   0  0  0  0  0  0  0  0  0  0  0  0
   40.4950   31.9430   37.2470 H   0  0  0  0  0  0  0  0  0  0  0  0
   41.7340   31.6050   39.3000 H   0  0  0  0  0  0  0  0  0  0  0  0
   40.1270   32.2720   39.6180 H   0  0  0  0  0  0  0  0  0  0  0  0
   40.8190   30.0780   41.0390 H   0  0  0  0  0  0  0  0  0  0  0  0
   40.4780   29.2540   39.5130 H   0  0  0  0  0  0  0  0  0  0  0  0
   38.5350   31.1860   40.8320 H   0  0  0  0  0  0  0  0  0  0  0  0
   38.7250   27.4600   39.5900 F   0  0  0  0  0  0  0  0  0  0  0  0
   38.2490   27.8040   40.8330 C   0  0  0  0  0  0  0  0  0  0  0  0
   38.2850   29.1500   41.1650 C   0  0  0  0  0  0  0  0  0  0  0  0
   37.7930   29.4520   42.4320 C   0  0  0  0  0  0  0  0  0  0  0  0
   37.3030   28.5080   43.3060 C   0  0  0  0  0  0  0  0  0  0  0  0
   37.2880   27.1770   42.9280 C   0  0  0  0  0  0  0  0  0  0  0  0
   37.7630   26.8530   41.6940 C   0  0  0  0  0  0  0  0  0  0  0  0
   37.7790   30.4860   42.7900 H   0  0  0  0  0  0  0  0  0  0  0  0
   36.9340   28.8010   44.2790 H   0  0  0  0  0  0  0  0  0  0  0  0
   36.9160   26.3910   43.5710 H   0  0  0  0  0  0  0  0  0  0  0  0
   38.9100   24.6460   41.2590 C   0  0  0  0  0  0  0  0  0  0  0  0
   37.7730   25.4580   41.2330 C   0  0  0  0  0  0  0  0  0  0  0  0
   36.5780   24.9560   40.7540 C   0  0  0  0  0  0  0  0  0  0  0  0
   35.6510   25.5390   40.7070 H   0  0  0  0  0  0  0  0  0  0  0  0
   36.4690   23.6560   40.2920 C   0  0  0  0  0  0  0  0  0  0  0  0
   35.5230   23.2650   39.9160 H   0  0  0  0  0  0  0  0  0  0  0  0
   37.6120   22.8610   40.3260 C   0  0  0  0  0  3  0  0  0  0  0  0
   38.7970   23.3470   40.7970 C   0  0  0  0  0  3  0  0  0  0  0  0
   40.2500   26.7550   41.9410 H   0  0  0  0  0  0  0  0  0  0  0  0
   40.3640   25.3720   41.8800 S   0  0  0  0  0  0  0  0  0  0  0  0
   40.8160   24.8020   43.1770 O   0  0  0  0  0  0  0  0  0  0  0  0
   41.5030   25.1190   40.9010 O   0  0  0  0  0  0  0  0  0  0  0  0
  1  6  2  0  0  0  0
  1  2  1  0  0  0  0
  2 14  1  0  0  0  0
  2  3  2  0  0  0  0
  3  4  1  0  0  0  0
  3 15  1  0  0  0  0
  5  7  1  0  0  0  0
  5  4  2  0  0  0  0
  6  5  1  0  0  0  0
  7 12  1  0  0  0  0
  8  9  1  0  0  0  0
  8  7  1  0  0  0  0
  9 10  1  0  0  0  0
 10 20  1  0  0  0  0
 10 21  1  0  0  0  0
 10 11  1  0  0  0  0
 11 12  1  0  0  0  0
 11 22  1  0  0  0  0
 12 24  1  1  0  0  0
 12 27  1  0  0  0  0
 13  1  1  0  0  0  0
 16  8  1  0  0  0  0
 17  8  1  0  0  0  0
 18  9  1  0  0  0  0
 19  9  1  0  0  0  0
 23 11  1  0  0  0  0
 25 26  1  0  0  0  0
 26 27  2  0  0  0  0
 26 31  1  0  0  0  0
 27 28  1  0  0  0  0
 28 32  1  0  0  0  0
 28 29  2  0  0  0  0
 29 33  1  0  0  0  0
 30 29  1  0  0  0  0
 30 34  1  0  0  0  0
 31 30  2  0  0  0  0
 35 44  1  0  0  0  0
 36 35  1  0  0  0  0
 36 31  1  0  0  0  0
 37 36  2  0  0  0  0
 38 37  1  0  0  0  0
 39 41  2  0  0  0  0
 39 37  1  0  0  0  0
 40 39  1  0  0  0  0
 41 42  1  0  0  0  0
 42 35  2  0  0  0  0
 44 43  1  0  0  0  0
 44 45  2  0  0  0  0
 46 44  2  0  0  0  0
M  END
>  <minimizedAffinity>
-6.25241375

$$$$

 OpenBabel03242517243D

 46 49  0  0  1  0  0  0  0  0999 V2000
   42.0150   25.5400   43.5020 C   0  0  0  0  0  0  0  0  0  0  0  0
   41.0210   24.8620   42.7780 C   0  0  0  0  0  0  0  0  0  0  0  0
   40.1320   25.6070   41.9800 C   0  0  0  0  0  0  0  0  0  0  0  0
   40.2900   26.9580   41.9580 N   0  0  0  0  0  0  0  0  0  0  0  0
   41.2610   27.5800   42.6700 C   0  0  0  0  0  0  0  0  0  0  0  0
   42.1290   26.8700   43.4460 N   0  0  0  0  0  0  0  0  0  0  0  0
   41.3490   29.0090   42.5820 N   0  0  0  0  0  0  0  0  0  0  0  0
   42.5720   29.6060   43.1130 C   0  0  0  0  0  0  0  0  0  0  0  0
   42.5160   31.0640   43.3340 C   0  0  0  0  0  0  0  0  0  0  0  0
   41.6300   31.7270   42.3310 C   0  0  0  0  0  0  0  0  0  0  0  0
   40.2590   31.1580   42.5250 C   0  0  0  0  0  0  0  0  0  0  0  0
   40.2720   29.7670   41.9960 C   0  0  2  0  0  0  0  0  0  0  0  0
   42.6540   24.8880   44.0890 H   0  0  0  0  0  0  0  0  0  0  0  0
   40.8630   23.7920   42.7700 H   0  0  0  0  0  0  0  0  0  0  0  0
   39.3360   25.2310   41.3830 H   0  0  0  0  0  0  0  0  0  0  0  0
   42.7330   29.0980   44.0940 H   0  0  0  0  0  0  0  0  0  0  0  0
   43.3910   29.2840   42.4480 H   0  0  0  0  0  0  0  0  0  0  0  0
   42.2320   31.3220   44.3770 H   0  0  0  0  0  0  0  0  0  0  0  0
   43.5340   31.5000   43.1910 H   0  0  0  0  0  0  0  0  0  0  0  0
   41.6670   32.8320   42.4130 H   0  0  0  0  0  0  0  0  0  0  0  0
   41.9980   31.4810   41.3190 H   0  0  0  0  0  0  0  0  0  0  0  0
   39.4360   31.7630   42.1400 H   0  0  0  0  0  0  0  0  0  0  0  0
   40.0730   31.0680   43.6350 H   0  0  0  0  0  0  0  0  0  0  0  0
   40.5070   29.8110   40.9000 H   0  0  0  0  0  0  0  0  0  0  0  0
   38.5640   29.2330   39.7590 F   0  0  0  0  0  0  0  0  0  0  0  0
   38.1120   28.8470   40.9980 C   0  0  0  0  0  0  0  0  0  0  0  0
   38.9450   29.1070   42.0760 C   0  0  0  0  0  0  0  0  0  0  0  0
   38.4460   28.6990   43.3100 C   0  0  0  0  0  0  0  0  0  0  0  0
   37.2260   28.0830   43.4760 C   0  0  0  0  0  0  0  0  0  0  0  0
   36.4320   27.8450   42.3690 C   0  0  0  0  0  0  0  0  0  0  0  0
   36.8940   28.2330   41.1490 C   0  0  0  0  0  0  0  0  0  0  0  0
   39.0280   28.8600   44.2240 H   0  0  0  0  0  0  0  0  0  0  0  0
   36.8900   27.7880   44.4600 H   0  0  0  0  0  0  0  0  0  0  0  0
   35.4640   27.3650   42.4360 H   0  0  0  0  0  0  0  0  0  0  0  0
   36.2290   26.8790   39.1240 C   0  0  0  0  0  0  0  0  0  0  0  0
   36.0980   28.0090   39.9350 C   0  0  0  0  0  0  0  0  0  0  0  0
   35.1800   28.9900   39.6070 C   0  0  0  0  0  0  0  0  0  0  0  0
   35.0270   29.9000   40.1990 H   0  0  0  0  0  0  0  0  0  0  0  0
   34.3760   28.8870   38.4850 C   0  0  0  0  0  0  0  0  0  0  0  0
   33.6530   29.6630   38.2320 H   0  0  0  0  0  0  0  0  0  0  0  0
   34.5200   27.7530   37.6900 C   0  0  0  0  0  3  0  0  0  0  0  0
   35.4240   26.7790   38.0040 C   0  0  0  0  0  3  0  0  0  0  0  0
   38.5680   26.3190   40.0860 H   0  0  0  0  0  0  0  0  0  0  0  0
   37.4110   25.7040   39.6230 S   0  0  0  0  0  0  0  0  0  0  0  0
   36.8950   24.7050   40.5960 O   0  0  0  0  0  0  0  0  0  0  0  0
   37.8570   24.9020   38.4080 O   0  0  0  0  0  0  0  0  0  0  0  0
  1 13  1  0  0  0  0
  2  1  2  0  0  0  0
  3  2  1  0  0  0  0
  4  3  2  0  0  0  0
  4  5  1  0  0  0  0
  5  6  2  0  0  0  0
  6  1  1  0  0  0  0
  7  5  1  0  0  0  0
  7  8  1  0  0  0  0
  8  9  1  0  0  0  0
  8 16  1  0  0  0  0
  9 18  1  0  0  0  0
 10 20  1  0  0  0  0
 10 11  1  0  0  0  0
 10  9  1  0  0  0  0
 11 23  1  0  0  0  0
 12 24  1  6  0  0  0
 12 27  1  0  0  0  0
 12 11  1  0  0  0  0
 12  7  1  0  0  0  0
 14  2  1  0  0  0  0
 15  3  1  0  0  0  0
 17  8  1  0  0  0  0
 19  9  1  0  0  0  0
 21 10  1  0  0  0  0
 22 11  1  0  0  0  0
 25 26  1  0  0  0  0
 26 31  2  0  0  0  0
 26 27  1  0  0  0  0
 27 28  2  0  0  0  0
 28 29  1  0  0  0  0
 28 32  1  0  0  0  0
 29 33  1  0  0  0  0
 30 34  1  0  0  0  0
 30 29  2  0  0  0  0
 31 30  1  0  0  0  0
 35 44  1  0  0  0  0
 35 36  1  0  0  0  0
 36 31  1  0  0  0  0
 37 36  2  0  0  0  0
 37 38  1  0  0  0  0
 39 37  1  0  0  0  0
 40 39  1  0  0  0  0
 41 42  1  0  0  0  0
 41 39  2  0  0  0  0
 42 35  2  0  0  0  0
 44 43  1  0  0  0  0
 44 45  2  0  0  0  0
 46 44  2  0  0  0  0
M  END
>  <minimizedAffinity>
-6.20086861

$$$$

 OpenBabel03242517243D

 46 49  0  0  1  0  0  0  0  0999 V2000
   42.1630   25.1020   40.9850 C   0  0  0  0  0  0  0  0  0  0  0  0
   42.0820   25.4790   42.3350 C   0  0  0  0  0  0  0  0  0  0  0  0
   40.8170   25.7510   42.8910 C   0  0  0  0  0  0  0  0  0  0  0  0
   39.7340   25.6310   42.0770 N   0  0  0  0  0  0  0  0  0  0  0  0
   39.8490   25.2640   40.7780 C   0  0  0  0  0  0  0  0  0  0  0  0
   41.0680   24.9980   40.2260 N   0  0  0  0  0  0  0  0  0  0  0  0
   38.6490   25.1640   39.9980 N   0  0  0  0  0  0  0  0  0  0  0  0
   38.7800   24.4880   38.7090 C   0  0  0  0  0  0  0  0  0  0  0  0
   37.6530   24.6840   37.7780 C   0  0  0  0  0  0  0  0  0  0  0  0
   36.3640   24.8330   38.5160 C   0  0  0  0  0  0  0  0  0  0  0  0
   36.4970   26.0520   39.3750 C   0  0  0  0  0  0  0  0  0  0  0  0
   37.4130   25.7120   40.4970 C   0  0  2  0  0  0  0  0  0  0  0  0
   43.1740   24.9130   40.6400 H   0  0  0  0  0  0  0  0  0  0  0  0
   42.9180   25.5860   43.0130 H   0  0  0  0  0  0  0  0  0  0  0  0
   40.6060   26.0450   43.8910 H   0  0  0  0  0  0  0  0  0  0  0  0
   39.7040   24.9190   38.2560 H   0  0  0  0  0  0  0  0  0  0  0  0
   38.9970   23.4300   38.9330 H   0  0  0  0  0  0  0  0  0  0  0  0
   37.8300   25.5260   37.0730 H   0  0  0  0  0  0  0  0  0  0  0  0
   37.5440   23.7800   37.1310 H   0  0  0  0  0  0  0  0  0  0  0  0
   35.4940   24.8680   37.8280 H   0  0  0  0  0  0  0  0  0  0  0  0
   36.2160   23.9410   39.1520 H   0  0  0  0  0  0  0  0  0  0  0  0
   35.5600   26.5070   39.7000 H   0  0  0  0  0  0  0  0  0  0  0  0
   37.0240   26.8470   38.7710 H   0  0  0  0  0  0  0  0  0  0  0  0
   36.9450   24.8840   41.0930 H   0  0  0  0  0  0  0  0  0  0  0  0
   38.8860   28.1160   39.9880 F   0  0  0  0  0  0  0  0  0  0  0  0
   38.2950   27.9930   41.2230 C   0  0  0  0  0  0  0  0  0  0  0  0
   37.5820   26.8270   41.4610 C   0  0  0  0  0  0  0  0  0  0  0  0
   37.0010   26.7470   42.7240 C   0  0  0  0  0  0  0  0  0  0  0  0
   37.1100   27.7320   43.6790 C   0  0  0  0  0  0  0  0  0  0  0  0
   37.8320   28.8770   43.3940 C   0  0  0  0  0  0  0  0  0  0  0  0
   38.4110   28.9830   42.1670 C   0  0  0  0  0  0  0  0  0  0  0  0
   36.4170   25.8670   43.0100 H   0  0  0  0  0  0  0  0  0  0  0  0
   36.6360   27.6140   44.6450 H   0  0  0  0  0  0  0  0  0  0  0  0
   37.9530   29.6850   44.1030 H   0  0  0  0  0  0  0  0  0  0  0  0
   38.7170   31.1750   40.9500 C   0  0  0  0  0  0  0  0  0  0  0  0
   39.1910   30.1730   41.8010 C   0  0  0  0  0  0  0  0  0  0  0  0
   40.4580   30.2740   42.3470 C   0  0  0  0  0  0  0  0  0  0  0  0
   40.8890   29.5250   43.0210 H   0  0  0  0  0  0  0  0  0  0  0  0
   41.2830   31.3510   42.0730 C   0  0  0  0  0  0  0  0  0  0  0  0
   42.2810   31.4250   42.5060 H   0  0  0  0  0  0  0  0  0  0  0  0
   40.7930   32.3390   41.2230 C   0  0  0  0  0  3  0  0  0  0  0  0
   39.5440   32.2490   40.6790 C   0  0  0  0  0  3  0  0  0  0  0  0
   36.9900   29.7300   39.6700 H   0  0  0  0  0  0  0  0  0  0  0  0
   37.1120   30.9540   40.3170 S   0  0  0  0  0  0  0  0  0  0  0  0
   36.0340   31.1520   41.3220 O   0  0  0  0  0  0  0  0  0  0  0  0
   36.8590   31.9940   39.2330 O   0  0  0  0  0  0  0  0  0  0  0  0
  1  2  1  0  0  0  0
  2  3  2  0  0  0  0
  2 14  1  0  0  0  0
  3 15  1  0  0  0  0
  4  3  1  0  0  0  0
  5  4  2  0  0  0  0
  6  5  1  0  0  0  0
  6  1  2  0  0  0  0
  7 12  1  0  0  0  0
  7  5  1  0  0  0  0
  8 17  1  0  0  0  0
  8  7  1  0  0  0  0
  9 10  1  0  0  0  0
  9  8  1  0  0  0  0
 10 21  1  0  0  0  0
 10 11  1  0  0  0  0
 11 22  1  0  0  0  0
 11 12  1  0  0  0  0
 12 24  1  1  0  0  0
 12 27  1  0  0  0  0
 13  1  1  0  0  0  0
 16  8  1  0  0  0  0
 18  9  1  0  0  0  0
 19  9  1  0  0  0  0
 20 10  1  0  0  0  0
 23 11  1  0  0  0  0
 25 26  1  0  0  0  0
 26 27  2  0  0  0  0
 26 31  1  0  0  0  0
 27 28  1  0  0  0  0
 28 32  1  0  0  0  0
 28 29  2  0  0  0  0
 29 33  1  0  0  0  0
 30 29  1  0  0  0  0
 30 34  1  0  0  0  0
 31 30  2  0  0  0  0
 35 36  1  0  0  0  0
 36 31  1  0  0  0  0
 36 37  2  0  0  0  0
 37 38  1  0  0  0  0
 39 37  1  0  0  0  0
 39 40  1  0  0  0  0
 41 39  2  0  0  0  0
 42 35  2  0  0  0  0
 42 41  1  0  0  0  0
 43 44  1  0  0  0  0
 44 35  1  0  0  0  0
 44 45  2  0  0  0  0
 46 44  2  0  0  0  0
M  END
>  <minimizedAffinity>
-6.11269665

$$$$

 OpenBabel03242517243D

 46 49  0  0  1  0  0  0  0  0999 V2000
   38.2200   32.1400   39.2960 C   0  0  0  0  0  0  0  0  0  0  0  0
   36.9490   31.9530   39.8620 C   0  0  0  0  0  0  0  0  0  0  0  0
   36.8290   31.1740   41.0280 C   0  0  0  0  0  0  0  0  0  0  0  0
   37.9680   30.6400   41.5460 N   0  0  0  0  0  0  0  0  0  0  0  0
   39.1800   30.8410   40.9740 C   0  0  0  0  0  0  0  0  0  0  0  0
   39.3100   31.5940   39.8440 N   0  0  0  0  0  0  0  0  0  0  0  0
   40.3250   30.2370   41.5930 N   0  0  0  0  0  0  0  0  0  0  0  0
   41.6270   30.7140   41.1310 C   0  0  0  0  0  0  0  0  0  0  0  0
   42.7760   29.8700   41.5070 C   0  0  0  0  0  0  0  0  0  0  0  0
   42.5500   29.2090   42.8270 C   0  0  0  0  0  0  0  0  0  0  0  0
   41.3430   28.3360   42.6700 C   0  0  0  0  0  0  0  0  0  0  0  0
   40.1520   29.2250   42.6060 C   0  0  2  0  0  0  0  0  0  0  0  0
   38.2190   32.7520   38.4010 H   0  0  0  0  0  0  0  0  0  0  0  0
   36.0210   32.3590   39.4810 H   0  0  0  0  0  0  0  0  0  0  0  0
   35.9370   30.9490   41.5610 H   0  0  0  0  0  0  0  0  0  0  0  0
   41.5420   30.7350   40.0180 H   0  0  0  0  0  0  0  0  0  0  0  0
   41.7110   31.7620   41.4640 H   0  0  0  0  0  0  0  0  0  0  0  0
   43.0410   29.1380   40.7130 H   0  0  0  0  0  0  0  0  0  0  0  0
   43.6840   30.5110   41.6280 H   0  0  0  0  0  0  0  0  0  0  0  0
   43.4500   28.6630   43.1760 H   0  0  0  0  0  0  0  0  0  0  0  0
   42.3520   29.9890   43.5830 H   0  0  0  0  0  0  0  0  0  0  0  0
   41.2450   27.5290   43.3970 H   0  0  0  0  0  0  0  0  0  0  0  0
   41.4090   27.8290   41.6630 H   0  0  0  0  0  0  0  0  0  0  0  0
   40.0830   29.7890   43.5740 H   0  0  0  0  0  0  0  0  0  0  0  0
   39.2420   27.8220   40.2800 F   0  0  0  0  0  0  0  0  0  0  0  0
   38.4280   27.7940   41.3870 C   0  0  0  0  0  0  0  0  0  0  0  0
   38.8760   28.4740   42.5090 C   0  0  0  0  0  0  0  0  0  0  0  0
   38.0190   28.4180   43.6060 C   0  0  0  0  0  0  0  0  0  0  0  0
   36.8170   27.7480   43.6030 C   0  0  0  0  0  0  0  0  0  0  0  0
   36.4140   27.0840   42.4580 C   0  0  0  0  0  0  0  0  0  0  0  0
   37.2320   27.1210   41.3700 C   0  0  0  0  0  0  0  0  0  0  0  0
   38.2820   28.9230   44.5410 H   0  0  0  0  0  0  0  0  0  0  0  0
   36.1930   27.7380   44.4860 H   0  0  0  0  0  0  0  0  0  0  0  0
   35.4810   26.5400   42.3950 H   0  0  0  0  0  0  0  0  0  0  0  0
   37.1850   25.1060   39.8500 C   0  0  0  0  0  0  0  0  0  0  0  0
   36.8610   26.4370   40.1250 C   0  0  0  0  0  0  0  0  0  0  0  0
   36.1550   27.1800   39.1970 C   0  0  0  0  0  0  0  0  0  0  0  0
   35.8700   28.2280   39.3500 H   0  0  0  0  0  0  0  0  0  0  0  0
   35.7540   26.6410   37.9870 C   0  0  0  0  0  0  0  0  0  0  0  0
   35.1970   27.2320   37.2590 H   0  0  0  0  0  0  0  0  0  0  0  0
   36.0840   25.3130   37.7310 C   0  0  0  0  0  3  0  0  0  0  0  0
   36.7810   24.5700   38.6410 C   0  0  0  0  0  3  0  0  0  0  0  0
   37.7820   24.7550   42.3460 H   0  0  0  0  0  0  0  0  0  0  0  0
   38.0730   24.2570   41.0810 S   0  0  0  0  0  0  0  0  0  0  0  0
   37.9200   22.7790   41.0260 O   0  0  0  0  0  0  0  0  0  0  0  0
   39.5610   24.5230   40.8930 O   0  0  0  0  0  0  0  0  0  0  0  0
  1  6  2  0  0  0  0
  1  2  1  0  0  0  0
  2  3  2  0  0  0  0
  3  4  1  0  0  0  0
  3 15  1  0  0  0  0
  5  4  2  0  0  0  0
  5  7  1  0  0  0  0
  6  5  1  0  0  0  0
  7 12  1  0  0  0  0
  8 17  1  0  0  0  0
  8  9  1  0  0  0  0
  8  7  1  0  0  0  0
  9 19  1  0  0  0  0
  9 10  1  0  0  0  0
 10 20  1  0  0  0  0
 10 21  1  0  0  0  0
 11 10  1  0  0  0  0
 11 22  1  0  0  0  0
 12 11  1  0  0  0  0
 12 24  1  1  0  0  0
 13  1  1  0  0  0  0
 14  2  1  0  0  0  0
 16  8  1  0  0  0  0
 18  9  1  0  0  0  0
 23 11  1  0  0  0  0
 25 26  1  0  0  0  0
 26 27  1  0  0  0  0
 27 12  1  0  0  0  0
 27 28  2  0  0  0  0
 28 32  1  0  0  0  0
 29 28  1  0  0  0  0
 29 33  1  0  0  0  0
 30 29  2  0  0  0  0
 31 26  2  0  0  0  0
 31 30  1  0  0  0  0
 34 30  1  0  0  0  0
 35 36  1  0  0  0  0
 35 44  1  0  0  0  0
 36 31  1  0  0  0  0
 37 38  1  0  0  0  0
 37 36  2  0  0  0  0
 39 37  1  0  0  0  0
 40 39  1  0  0  0  0
 41 39  2  0  0  0  0
 41 42  1  0  0  0  0
 42 35  2  0  0  0  0
 44 43  1  0  0  0  0
 45 44  2  0  0  0  0
 46 44  2  0  0  0  0
M  END
>  <minimizedAffinity>
-6.09140444

$$$$

 OpenBabel03242517243D

 46 49  0  0  1  0  0  0  0  0999 V2000
   39.6970   31.0370   38.6450 C   0  0  0  0  0  0  0  0  0  0  0  0
   38.6540   31.4470   37.7990 C   0  0  0  0  0  0  0  0  0  0  0  0
   37.3270   31.1380   38.1560 C   0  0  0  0  0  0  0  0  0  0  0  0
   37.1310   30.4510   39.3130 N   0  0  0  0  0  0  0  0  0  0  0  0
   38.1630   30.0710   40.1060 C   0  0  0  0  0  0  0  0  0  0  0  0
   39.4530   30.3640   39.7720 N   0  0  0  0  0  0  0  0  0  0  0  0
   37.8580   29.3500   41.3080 N   0  0  0  0  0  0  0  0  0  0  0  0
   38.9490   29.2220   42.2700 C   0  0  0  0  0  0  0  0  0  0  0  0
   38.7440   28.2110   43.3240 C   0  0  0  0  0  0  0  0  0  0  0  0
   37.2990   28.0880   43.6800 C   0  0  0  0  0  0  0  0  0  0  0  0
   36.5870   27.6430   42.4400 C   0  0  0  0  0  0  0  0  0  0  0  0
   36.5390   28.8020   41.5100 C   0  0  2  0  0  0  0  0  0  0  0  0
   40.6850   31.3170   38.2930 H   0  0  0  0  0  0  0  0  0  0  0  0
   38.7680   31.9930   36.8720 H   0  0  0  0  0  0  0  0  0  0  0  0
   36.4440   31.3830   37.6160 H   0  0  0  0  0  0  0  0  0  0  0  0
   39.8350   28.9310   41.6570 H   0  0  0  0  0  0  0  0  0  0  0  0
   39.1460   30.2370   42.6550 H   0  0  0  0  0  0  0  0  0  0  0  0
   39.1940   27.2290   43.0600 H   0  0  0  0  0  0  0  0  0  0  0  0
   39.2710   28.5320   44.2550 H   0  0  0  0  0  0  0  0  0  0  0  0
   37.1420   27.4150   44.5470 H   0  0  0  0  0  0  0  0  0  0  0  0
   36.9260   29.0800   43.9890 H   0  0  0  0  0  0  0  0  0  0  0  0
   35.6170   27.1690   42.5960 H   0  0  0  0  0  0  0  0  0  0  0  0
   37.2260   26.8620   41.9330 H   0  0  0  0  0  0  0  0  0  0  0  0
   35.9540   29.6230   42.0030 H   0  0  0  0  0  0  0  0  0  0  0  0
   37.2730   26.7950   39.6030 F   0  0  0  0  0  0  0  0  0  0  0  0
   36.1500   27.5380   39.3290 C   0  0  0  0  0  0  0  0  0  0  0  0
   35.8000   28.5070   40.2570 C   0  0  0  0  0  0  0  0  0  0  0  0
   34.6570   29.2350   39.9380 C   0  0  0  0  0  0  0  0  0  0  0  0
   33.9140   29.0290   38.7970 C   0  0  0  0  0  0  0  0  0  0  0  0
   34.3040   28.0500   37.9020 C   0  0  0  0  0  0  0  0  0  0  0  0
   35.4180   27.3220   38.1880 C   0  0  0  0  0  0  0  0  0  0  0  0
   34.2970   30.0230   40.6060 H   0  0  0  0  0  0  0  0  0  0  0  0
   33.0330   29.6260   38.6010 H   0  0  0  0  0  0  0  0  0  0  0  0
   33.7610   27.8420   36.9890 H   0  0  0  0  0  0  0  0  0  0  0  0
   36.8590   26.4720   36.2970 C   0  0  0  0  0  0  0  0  0  0  0  0
   35.8850   26.2680   37.2770 C   0  0  0  0  0  0  0  0  0  0  0  0
   35.3080   25.0210   37.4270 C   0  0  0  0  0  0  0  0  0  0  0  0
   34.5400   24.7940   38.1750 H   0  0  0  0  0  0  0  0  0  0  0  0
   35.6690   23.9520   36.6250 C   0  0  0  0  0  0  0  0  0  0  0  0
   35.2100   22.9700   36.7470 H   0  0  0  0  0  0  0  0  0  0  0  0
   36.6410   24.1740   35.6530 C   0  0  0  0  0  3  0  0  0  0  0  0
   37.2180   25.4020   35.4970 C   0  0  0  0  0  3  0  0  0  0  0  0
   36.9310   28.9290   37.1130 H   0  0  0  0  0  0  0  0  0  0  0  0
   37.5240   28.0770   36.1890 S   0  0  0  0  0  0  0  0  0  0  0  0
   39.0070   28.1220   36.2760 O   0  0  0  0  0  0  0  0  0  0  0  0
   37.1720   28.6700   34.8320 O   0  0  0  0  0  0  0  0  0  0  0  0
  1  6  1  0  0  0  0
  2  3  1  0  0  0  0
  2  1  2  0  0  0  0
  3  4  2  0  0  0  0
  4  5  1  0  0  0  0
  5  7  1  0  0  0  0
  6  5  2  0  0  0  0
  7 12  1  0  0  0  0
  7  8  1  0  0  0  0
  8 17  1  0  0  0  0
  8  9  1  0  0  0  0
  9 10  1  0  0  0  0
  9 19  1  0  0  0  0
 10 21  1  0  0  0  0
 10 20  1  0  0  0  0
 11 22  1  0  0  0  0
 11 10  1  0  0  0  0
 12 24  1  1  0  0  0
 12 11  1  0  0  0  0
 13  1  1  0  0  0  0
 14  2  1  0  0  0  0
 15  3  1  0  0  0  0
 16  8  1  0  0  0  0
 18  9  1  0  0  0  0
 23 11  1  0  0  0  0
 26 25  1  0  0  0  0
 26 27  1  0  0  0  0
 27 12  1  0  0  0  0
 28 27  2  0  0  0  0
 28 32  1  0  0  0  0
 29 28  1  0  0  0  0
 30 31  1  0  0  0  0
 30 29  2  0  0  0  0
 31 26  2  0  0  0  0
 33 29  1  0  0  0  0
 34 30  1  0  0  0  0
 35 36  1  0  0  0  0
 36 37  2  0  0  0  0
 36 31  1  0  0  0  0
 37 38  1  0  0  0  0
 39 40  1  0  0  0  0
 39 37  1  0  0  0  0
 41 39  2  0  0  0  0
 42 41  1  0  0  0  0
 42 35  2  0  0  0  0
 44 45  2  0  0  0  0
 44 35  1  0  0  0  0
 44 43  1  0  0  0  0
 46 44  2  0  0  0  0
M  END
>  <minimizedAffinity>
-6.08599281

$$$$

 OpenBabel03242517243D

 46 49  0  0  1  0  0  0  0  0999 V2000
   35.8860   28.6630   37.7300 C   0  0  0  0  0  0  0  0  0  0  0  0
   36.8050   29.4310   36.9970 C   0  0  0  0  0  0  0  0  0  0  0  0
   37.9660   29.9010   37.6410 C   0  0  0  0  0  0  0  0  0  0  0  0
   38.1310   29.5780   38.9520 N   0  0  0  0  0  0  0  0  0  0  0  0
   37.2230   28.8340   39.6290 C   0  0  0  0  0  0  0  0  0  0  0  0
   36.0940   28.3730   39.0170 N   0  0  0  0  0  0  0  0  0  0  0  0
   37.4840   28.5460   41.0090 N   0  0  0  0  0  0  0  0  0  0  0  0
   36.6500   27.5090   41.6140 C   0  0  0  0  0  0  0  0  0  0  0  0
   36.6820   27.4550   43.0870 C   0  0  0  0  0  0  0  0  0  0  0  0
   38.0190   27.8630   43.6130 C   0  0  0  0  0  0  0  0  0  0  0  0
   38.2390   29.2790   43.1780 C   0  0  0  0  0  0  0  0  0  0  0  0
   38.5170   29.2610   41.7170 C   0  0  2  0  0  0  0  0  0  0  0  0
   35.0220   28.3430   37.1560 H   0  0  0  0  0  0  0  0  0  0  0  0
   36.7100   29.7080   35.9560 H   0  0  0  0  0  0  0  0  0  0  0  0
   38.7420   30.4890   37.2140 H   0  0  0  0  0  0  0  0  0  0  0  0
   35.6130   27.7510   41.2830 H   0  0  0  0  0  0  0  0  0  0  0  0
   36.9290   26.5610   41.1240 H   0  0  0  0  0  0  0  0  0  0  0  0
   35.8560   28.0390   43.5490 H   0  0  0  0  0  0  0  0  0  0  0  0
   36.5190   26.4030   43.4240 H   0  0  0  0  0  0  0  0  0  0  0  0
   38.0940   27.7190   44.7100 H   0  0  0  0  0  0  0  0  0  0  0  0
   38.7890   27.2100   43.1640 H   0  0  0  0  0  0  0  0  0  0  0  0
   38.9750   29.8420   43.7550 H   0  0  0  0  0  0  0  0  0  0  0  0
   37.2650   29.8370   43.3040 H   0  0  0  0  0  0  0  0  0  0  0  0
   39.4540   28.6670   41.5460 H   0  0  0  0  0  0  0  0  0  0  0  0
   41.1330   30.2330   41.0700 F   0  0  0  0  0  0  0  0  0  0  0  0
   40.0770   31.0860   40.8550 C   0  0  0  0  0  0  0  0  0  0  0  0
   38.8140   30.6080   41.1690 C   0  0  0  0  0  0  0  0  0  0  0  0
   37.7760   31.5060   40.9360 C   0  0  0  0  0  0  0  0  0  0  0  0
   37.9610   32.7740   40.4340 C   0  0  0  0  0  0  0  0  0  0  0  0
   39.2410   33.2050   40.1350 C   0  0  0  0  0  0  0  0  0  0  0  0
   40.2760   32.3480   40.3540 C   0  0  0  0  0  0  0  0  0  0  0  0
   36.7400   31.2240   41.1510 H   0  0  0  0  0  0  0  0  0  0  0  0
   37.1150   33.4290   40.2720 H   0  0  0  0  0  0  0  0  0  0  0  0
   39.4490   34.1900   39.7380 H   0  0  0  0  0  0  0  0  0  0  0  0
   42.3110   32.4360   38.8620 C   0  0  0  0  0  0  0  0  0  0  0  0
   41.6590   32.7460   40.0580 C   0  0  0  0  0  0  0  0  0  0  0  0
   42.3190   33.4630   41.0380 C   0  0  0  0  0  0  0  0  0  0  0  0
   41.8650   33.7390   41.9970 H   0  0  0  0  0  0  0  0  0  0  0  0
   43.6250   33.8900   40.8710 C   0  0  0  0  0  0  0  0  0  0  0  0
   44.1410   34.4560   41.6470 H   0  0  0  0  0  0  0  0  0  0  0  0
   44.2590   33.5720   39.6730 C   0  0  0  0  0  3  0  0  0  0  0  0
   43.6160   32.8640   38.6980 C   0  0  0  0  0  3  0  0  0  0  0  0
   40.8250   30.4000   38.2670 H   0  0  0  0  0  0  0  0  0  0  0  0
   41.3940   31.5300   37.6930 S   0  0  0  0  0  0  0  0  0  0  0  0
   40.3850   32.3400   36.9610 O   0  0  0  0  0  0  0  0  0  0  0  0
   42.3400   30.9910   36.6290 O   0  0  0  0  0  0  0  0  0  0  0  0
  1  6  1  0  0  0  0
  2  3  1  0  0  0  0
  2  1  2  0  0  0  0
  3  4  2  0  0  0  0
  4  5  1  0  0  0  0
  5  7  1  0  0  0  0
  6  5  2  0  0  0  0
  7  8  1  0  0  0  0
  7 12  1  0  0  0  0
  8  9  1  0  0  0  0
  9 19  1  0  0  0  0
  9 18  1  0  0  0  0
  9 10  1  0  0  0  0
 10 20  1  0  0  0  0
 11 23  1  0  0  0  0
 11 10  1  0  0  0  0
 11 22  1  0  0  0  0
 12 24  1  6  0  0  0
 12 11  1  0  0  0  0
 13  1  1  0  0  0  0
 14  2  1  0  0  0  0
 15  3  1  0  0  0  0
 16  8  1  0  0  0  0
 17  8  1  0  0  0  0
 21 10  1  0  0  0  0
 26 25  1  0  0  0  0
 26 27  1  0  0  0  0
 27 12  1  0  0  0  0
 28 32  1  0  0  0  0
 28 27  2  0  0  0  0
 29 28  1  0  0  0  0
 30 31  1  0  0  0  0
 30 29  2  0  0  0  0
 31 26  2  0  0  0  0
 33 29  1  0  0  0  0
 34 30  1  0  0  0  0
 35 36  1  0  0  0  0
 36 31  1  0  0  0  0
 36 37  2  0  0  0  0
 37 38  1  0  0  0  0
 39 37  1  0  0  0  0
 39 40  1  0  0  0  0
 41 39  2  0  0  0  0
 42 35  2  0  0  0  0
 42 41  1  0  0  0  0
 44 43  1  0  0  0  0
 44 35  1  0  0  0  0
 45 44  2  0  0  0  0
 46 44  2  0  0  0  0
M  END
>  <minimizedAffinity>
-6.04991627

$$$$

 OpenBabel03242517243D

 46 49  0  0  1  0  0  0  0  0999 V2000
   35.2580   28.7100   37.9100 C   0  0  0  0  0  0  0  0  0  0  0  0
   36.1990   29.6770   38.2990 C   0  0  0  0  0  0  0  0  0  0  0  0
   37.2880   29.2850   39.1000 C   0  0  0  0  0  0  0  0  0  0  0  0
   37.3660   27.9750   39.4560 N   0  0  0  0  0  0  0  0  0  0  0  0
   36.4390   27.0670   39.0630 C   0  0  0  0  0  0  0  0  0  0  0  0
   35.3790   27.4340   38.2860 N   0  0  0  0  0  0  0  0  0  0  0  0
   36.6060   25.7080   39.4880 N   0  0  0  0  0  0  0  0  0  0  0  0
   35.7710   24.7190   38.8090 C   0  0  0  0  0  0  0  0  0  0  0  0
   35.6930   23.4020   39.4680 C   0  0  0  0  0  0  0  0  0  0  0  0
   36.9680   23.0750   40.1720 C   0  0  0  0  0  0  0  0  0  0  0  0
   37.1650   24.1260   41.2190 C   0  0  0  0  0  0  0  0  0  0  0  0
   37.5530   25.3830   40.5260 C   0  0  2  0  0  0  0  0  0  0  0  0
   34.4540   29.1000   37.2950 H   0  0  0  0  0  0  0  0  0  0  0  0
   36.1720   30.7270   38.0380 H   0  0  0  0  0  0  0  0  0  0  0  0
   38.0700   29.9050   39.4670 H   0  0  0  0  0  0  0  0  0  0  0  0
   34.7520   25.1750   38.7900 H   0  0  0  0  0  0  0  0  0  0  0  0
   36.1230   24.6780   37.7650 H   0  0  0  0  0  0  0  0  0  0  0  0
   34.8120   23.3180   40.1410 H   0  0  0  0  0  0  0  0  0  0  0  0
   35.5460   22.6080   38.6960 H   0  0  0  0  0  0  0  0  0  0  0  0
   36.9660   22.0420   40.5750 H   0  0  0  0  0  0  0  0  0  0  0  0
   37.7950   23.1160   39.4400 H   0  0  0  0  0  0  0  0  0  0  0  0
   37.8310   23.8580   42.0410 H   0  0  0  0  0  0  0  0  0  0  0  0
   36.1630   24.3310   41.6990 H   0  0  0  0  0  0  0  0  0  0  0  0
   38.5230   25.2030   39.9910 H   0  0  0  0  0  0  0  0  0  0  0  0
   40.1280   26.5700   40.9400 F   0  0  0  0  0  0  0  0  0  0  0  0
   39.0800   27.0750   41.6720 C   0  0  0  0  0  0  0  0  0  0  0  0
   37.8370   26.4970   41.4650 C   0  0  0  0  0  0  0  0  0  0  0  0
   36.8060   27.0400   42.2280 C   0  0  0  0  0  0  0  0  0  0  0  0
   36.9810   28.0710   43.1240 C   0  0  0  0  0  0  0  0  0  0  0  0
   38.2410   28.6150   43.2950 C   0  0  0  0  0  0  0  0  0  0  0  0
   39.2680   28.1030   42.5620 C   0  0  0  0  0  0  0  0  0  0  0  0
   35.7870   26.6530   42.1380 H   0  0  0  0  0  0  0  0  0  0  0  0
   36.1420   28.4530   43.6900 H   0  0  0  0  0  0  0  0  0  0  0  0
   38.4400   29.4250   43.9840 H   0  0  0  0  0  0  0  0  0  0  0  0
   41.0610   29.8150   42.0850 C   0  0  0  0  0  0  0  0  0  0  0  0
   40.6300   28.6360   42.6980 C   0  0  0  0  0  0  0  0  0  0  0  0
   41.5050   27.9060   43.4810 C   0  0  0  0  0  0  0  0  0  0  0  0
   41.2300   26.9740   43.9890 H   0  0  0  0  0  0  0  0  0  0  0  0
   42.8130   28.3110   43.6800 C   0  0  0  0  0  0  0  0  0  0  0  0
   43.4990   27.7310   44.2990 H   0  0  0  0  0  0  0  0  0  0  0  0
   43.2250   29.4890   43.0610 C   0  0  0  0  0  3  0  0  0  0  0  0
   42.3690   30.2170   42.2860 C   0  0  0  0  0  3  0  0  0  0  0  0
   38.8450   29.8180   40.7450 H   0  0  0  0  0  0  0  0  0  0  0  0
   39.8840   30.6600   41.1210 S   0  0  0  0  0  0  0  0  0  0  0  0
   39.3770   31.9100   41.7470 O   0  0  0  0  0  0  0  0  0  0  0  0
   40.5310   31.0890   39.8110 O   0  0  0  0  0  0  0  0  0  0  0  0
  1  6  2  0  0  0  0
  1  2  1  0  0  0  0
  2  3  2  0  0  0  0
  3  4  1  0  0  0  0
  3 15  1  0  0  0  0
  5  4  2  0  0  0  0
  5  7  1  0  0  0  0
  6  5  1  0  0  0  0
  7 12  1  0  0  0  0
  8  9  1  0  0  0  0
  8  7  1  0  0  0  0
  9 18  1  0  0  0  0
  9 10  1  0  0  0  0
 10 20  1  0  0  0  0
 10 11  1  0  0  0  0
 11 23  1  0  0  0  0
 11 22  1  0  0  0  0
 12 24  1  6  0  0  0
 12 11  1  0  0  0  0
 12 27  1  0  0  0  0
 13  1  1  0  0  0  0
 14  2  1  0  0  0  0
 16  8  1  0  0  0  0
 17  8  1  0  0  0  0
 19  9  1  0  0  0  0
 21 10  1  0  0  0  0
 25 26  1  0  0  0  0
 26 31  1  0  0  0  0
 27 26  2  0  0  0  0
 27 28  1  0  0  0  0
 28 29  2  0  0  0  0
 29 30  1  0  0  0  0
 29 33  1  0  0  0  0
 30 34  1  0  0  0  0
 31 36  1  0  0  0  0
 31 30  2  0  0  0  0
 32 28  1  0  0  0  0
 35 42  2  0  0  0  0
 35 36  1  0  0  0  0
 36 37  2  0  0  0  0
 37 39  1  0  0  0  0
 37 38  1  0  0  0  0
 39 40  1  0  0  0  0
 41 39  2  0  0  0  0
 42 41  1  0  0  0  0
 43 44  1  0  0  0  0
 44 45  2  0  0  0  0
 44 35  1  0  0  0  0
 46 44  2  0  0  0  0
M  END
>  <minimizedAffinity>
-6.03616476

$$$$
