
 OpenBabel03252508263D

 44 48  0  0  1  0  0  0  0  0999 V2000
   46.3010   32.3720   46.2940 C   0  0  1  0  0  0  0  0  0  0  0  0
   46.7050   32.5510   47.6950 C   0  0  0  0  0  0  0  0  0  0  0  0
   45.3530   31.8550   47.2610 C   0  0  2  0  0  0  0  0  0  0  0  0
   47.1580   31.7750   45.8140 H   0  0  0  0  0  0  0  0  0  0  0  0
   47.3360   31.8480   48.2620 H   0  0  0  0  0  0  0  0  0  0  0  0
   46.6110   33.5260   48.2000 H   0  0  0  0  0  0  0  0  0  0  0  0
   44.5730   32.4920   47.7880 H   0  0  0  0  0  0  0  0  0  0  0  0
   45.1400   30.4400   47.5650 C   0  0  0  0  0  0  0  0  0  0  0  0
   45.0440   29.8620   48.7930 C   0  0  0  0  0  0  0  0  0  0  0  0
   44.9720   28.4980   49.0510 C   0  0  0  0  0  0  0  0  0  0  0  0
   45.0040   27.6520   47.9240 C   0  0  0  0  0  0  0  0  0  0  0  0
   45.0990   28.2190   46.6630 C   0  0  0  0  0  0  0  0  0  0  0  0
   45.0670   27.3500   45.5880 C   0  0  0  0  0  0  0  0  0  0  0  0
   45.0920   27.8680   44.2910 C   0  0  0  0  0  0  0  0  0  0  0  0
   45.1450   29.2330   44.0860 C   0  0  0  0  0  0  0  0  0  0  0  0
   45.1770   30.0490   45.1920 C   0  0  0  0  0  0  0  0  0  0  0  0
   45.1630   29.5830   46.4920 C   0  0  0  0  0  0  0  0  0  0  0  0
   45.0230   30.5620   49.6310 H   0  0  0  0  0  0  0  0  0  0  0  0
   44.8970   28.1580   50.0550 H   0  0  0  0  0  0  0  0  0  0  0  0
   44.9500   26.6050   48.1430 H   0  0  0  0  0  0  0  0  0  0  0  0
   45.0230   26.2740   45.7740 H   0  0  0  0  0  0  0  0  0  0  0  0
   45.0660   27.0880   43.5260 H   0  0  0  0  0  0  0  0  0  0  0  0
   45.1530   29.4330   43.0390 H   0  0  0  0  0  0  0  0  0  0  0  0
   45.1290   31.0200   44.7860 H   0  0  0  0  0  0  0  0  0  0  0  0
   44.6740   35.4710   45.1380 C   0  0  0  0  0  0  0  0  0  0  0  0
   45.2070   35.6330   43.8200 C   0  0  0  0  0  0  0  0  0  0  0  0
   46.1210   34.6630   43.3700 C   0  0  0  0  0  0  0  0  0  0  0  0
   46.4440   33.6520   44.1930 N   0  0  0  0  0  0  0  0  0  0  0  0
   45.9150   33.5320   45.4440 C   0  0  0  0  0  0  0  0  0  0  0  0
   45.0480   34.4260   45.9040 N   0  0  0  0  0  0  0  0  0  0  0  0
   43.9780   36.2000   45.4880 H   0  0  0  0  0  0  0  0  0  0  0  0
   44.9360   36.4790   43.2370 H   0  0  0  0  0  0  0  0  0  0  0  0
   46.4790   34.0750   40.9170 C   0  0  0  0  0  0  0  0  0  0  0  0
   46.8120   34.6760   42.1010 C   0  0  0  0  0  0  0  0  0  0  0  0
   48.0250   35.3770   42.0680 C   0  0  0  0  0  0  0  0  0  0  0  0
   48.3850   35.8930   42.9600 H   0  0  0  0  0  0  0  0  0  0  0  0
   48.8580   35.5000   40.9840 C   0  0  0  0  0  0  0  0  0  0  0  0
   49.7780   36.0540   41.0230 H   0  0  0  0  0  0  0  0  0  0  0  0
   48.5000   34.8920   39.8130 C   0  0  0  0  0  3  0  0  0  0  0  0
   47.3190   34.1930   39.8030 C   0  0  0  0  0  3  0  0  0  0  0  0
   45.0490   32.6380   39.4350 H   0  0  0  0  0  0  0  0  0  0  0  0
   45.0790   33.0890   40.7800 S   0  0  0  0  0  0  0  0  0  0  0  0
   45.1570   31.7910   41.5470 O   0  0  0  0  0  0  0  0  0  0  0  0
   43.7750   33.7940   40.9270 O   0  0  0  0  0  0  0  0  0  0  0  0
  1  4  1  6  0  0  0
  1  3  1  0  0  0  0
  1  2  1  0  0  0  0
  2  6  1  0  0  0  0
  2  5  1  0  0  0  0
  3  8  1  0  0  0  0
  3  2  1  0  0  0  0
  3  7  1  1  0  0  0
  8  9  1  0  0  0  0
  9 10  2  0  0  0  0
  9 18  1  0  0  0  0
 10 19  1  0  0  0  0
 11 20  1  0  0  0  0
 11 10  1  0  0  0  0
 12 11  2  0  0  0  0
 13 21  1  0  0  0  0
 13 12  1  0  0  0  0
 14 13  2  0  0  0  0
 15 14  1  0  0  0  0
 15 16  2  0  0  0  0
 16 17  1  0  0  0  0
 17 12  1  0  0  0  0
 17  8  2  0  0  0  0
 22 14  1  0  0  0  0
 23 15  1  0  0  0  0
 24 16  1  0  0  0  0
 25 31  1  0  0  0  0
 25 30  1  0  0  0  0
 26 25  2  0  0  0  0
 27 26  1  0  0  0  0
 27 28  2  0  0  0  0
 28 29  1  0  0  0  0
 29 30  2  0  0  0  0
 29  1  1  0  0  0  0
 32 26  1  0  0  0  0
 33 34  1  0  0  0  0
 34 27  1  0  0  0  0
 35 34  2  0  0  0  0
 35 36  1  0  0  0  0
 37 38  1  0  0  0  0
 37 35  1  0  0  0  0
 39 37  2  0  0  0  0
 40 39  1  0  0  0  0
 40 33  2  0  0  0  0
 41 42  1  0  0  0  0
 42 33  1  0  0  0  0
 42 44  2  0  0  0  0
 42 43  2  0  0  0  0
M  END
>  <minimizedAffinity>
-6.23114204

>  <minimizedRMSD>
0.929866016

$$$$
