
 OpenBabel03242516503D

 46 49  0  0  1  0  0  0  0  0999 V2000
   47.5660   32.5680   41.3520 C   0  0  1  0  0  0  0  0  0  0  0  0
   46.9300   31.9210   40.1870 C   0  0  0  0  0  0  0  0  0  0  0  0
   47.8330   32.2270   38.9950 C   0  0  0  0  0  0  0  0  0  0  0  0
   47.6710   33.7230   38.7270 C   0  0  0  0  0  0  0  0  0  0  0  0
   47.9200   34.5870   39.8970 C   0  0  0  0  0  0  0  0  0  0  0  0
   47.5880   34.0790   41.2400 C   0  0  1  0  0  0  0  0  0  0  0  0
   48.6640   32.2960   41.3540 H   0  0  0  0  0  0  0  0  0  0  0  0
   45.9110   32.2460   39.9620 H   0  0  0  0  0  0  0  0  0  0  0  0
   46.9270   30.8120   40.3860 H   0  0  0  0  0  0  0  0  0  0  0  0
   47.4240   31.6920   38.1300 H   0  0  0  0  0  0  0  0  0  0  0  0
   48.8840   31.9880   39.2230 H   0  0  0  0  0  0  0  0  0  0  0  0
   48.4090   33.9570   37.9230 H   0  0  0  0  0  0  0  0  0  0  0  0
   46.6790   33.8190   38.2550 H   0  0  0  0  0  0  0  0  0  0  0  0
   48.9770   34.9400   39.8600 H   0  0  0  0  0  0  0  0  0  0  0  0
   47.3280   35.5370   39.7400 H   0  0  0  0  0  0  0  0  0  0  0  0
   48.3670   34.4160   41.9620 H   0  0  0  0  0  0  0  0  0  0  0  0
   45.3820   30.9730   43.9900 C   0  0  0  0  0  0  0  0  0  0  0  0
   45.9180   31.3790   42.7710 C   0  0  0  0  0  0  0  0  0  0  0  0
   47.0560   32.1630   42.6570 C   0  0  0  0  0  0  0  0  0  0  0  0
   47.6330   32.5200   43.8170 N   0  0  0  0  0  0  0  0  0  0  0  0
   47.1270   32.1340   45.0140 C   0  0  0  0  0  0  0  0  0  0  0  0
   46.0270   31.3780   45.1090 N   0  0  0  0  0  0  0  0  0  0  0  0
   44.4840   30.3580   43.9650 H   0  0  0  0  0  0  0  0  0  0  0  0
   45.4290   31.0740   41.8450 H   0  0  0  0  0  0  0  0  0  0  0  0
   47.5920   32.4230   45.9530 H   0  0  0  0  0  0  0  0  0  0  0  0
   46.3300   34.6640   41.7640 C   0  0  0  0  0  0  0  0  0  0  0  0
   46.2040   35.4790   42.8910 C   0  0  0  0  0  0  0  0  0  0  0  0
   44.9070   35.9220   43.1630 C   0  0  0  0  0  0  0  0  0  0  0  0
   43.8910   35.5350   42.3320 C   0  0  0  0  0  0  0  0  0  0  0  0
   44.0200   34.7370   41.2360 C   0  0  0  0  0  0  0  0  0  0  0  0
   45.2800   34.3090   40.9720 N   0  0  0  0  0  0  0  0  0  0  0  0
   47.0950   35.6720   43.4120 H   0  0  0  0  0  0  0  0  0  0  0  0
   44.8220   36.5500   44.0320 H   0  0  0  0  0  0  0  0  0  0  0  0
   42.9690   35.9740   42.6420 H   0  0  0  0  0  0  0  0  0  0  0  0
   42.1370   33.2670   40.3180 C   0  0  0  0  0  0  0  0  0  0  0  0
   42.9450   34.3710   40.3210 C   0  0  0  0  0  0  0  0  0  0  0  0
   42.7400   35.2590   39.2760 C   0  0  0  0  0  0  0  0  0  0  0  0
   43.3190   36.1660   39.1860 H   0  0  0  0  0  0  0  0  0  0  0  0
   41.8150   35.1140   38.2770 C   0  0  0  0  0  0  0  0  0  0  0  0
   41.6780   35.8240   37.4750 H   0  0  0  0  0  0  0  0  0  0  0  0
   40.9990   34.0050   38.2710 C   0  0  0  0  0  3  0  0  0  0  0  0
   41.1880   33.1110   39.3000 C   0  0  0  0  0  3  0  0  0  0  0  0
   42.9810   32.5110   42.6450 H   0  0  0  0  0  0  0  0  0  0  0  0
   42.3540   32.0600   41.5190 S   0  0  0  0  0  0  0  0  0  0  0  0
   42.8680   30.7460   41.0100 O   0  0  0  0  0  0  0  0  0  0  0  0
   40.9360   31.7200   42.0240 O   0  0  0  0  0  0  0  0  0  0  0  0
  1  7  1  6  0  0  0
  1 19  1  0  0  0  0
  2  9  1  0  0  0  0
  2  1  1  0  0  0  0
  3 11  1  0  0  0  0
  3  2  1  0  0  0  0
  4  3  1  0  0  0  0
  4  5  1  0  0  0  0
  5  6  1  0  0  0  0
  6  1  1  0  0  0  0
  6 26  1  0  0  0  0
  6 16  1  1  0  0  0
  8  2  1  0  0  0  0
 10  3  1  0  0  0  0
 12  4  1  0  0  0  0
 13  4  1  0  0  0  0
 14  5  1  0  0  0  0
 15  5  1  0  0  0  0
 17 22  1  0  0  0  0
 18 17  2  0  0  0  0
 19 18  1  0  0  0  0
 19 20  2  0  0  0  0
 20 21  1  0  0  0  0
 21 22  2  0  0  0  0
 21 25  1  0  0  0  0
 23 17  1  0  0  0  0
 24 18  1  0  0  0  0
 26 27  1  0  0  0  0
 27 28  2  0  0  0  0
 27 32  1  0  0  0  0
 28 33  1  0  0  0  0
 29 34  1  0  0  0  0
 29 28  1  0  0  0  0
 30 29  2  0  0  0  0
 31 30  1  0  0  0  0
 31 26  2  0  0  0  0
 35 36  1  0  0  0  0
 35 44  1  0  0  0  0
 36 30  1  0  0  0  0
 37 36  2  0  0  0  0
 38 37  1  0  0  0  0
 39 37  1  0  0  0  0
 40 39  1  0  0  0  0
 41 39  2  0  0  0  0
 41 42  1  0  0  0  0
 42 35  2  0  0  0  0
 44 46  2  0  0  0  0
 44 43  1  0  0  0  0
 45 44  2  0  0  0  0
M  END
>  <minimizedAffinity>
-5.69496536

>  <minimizedRMSD>
1.3697747

$$$$
