REMARK  Name = 
REMARK  4 active torsions:
REMARK  status: ('A' for Active; 'I' for Inactive)
REMARK    1  A    between atoms: C_2  and  C_14
REMARK    2  A    between atoms: C_9  and  C_16
REMARK    3  A    between atoms: C_19  and  C_35
REMARK    4  A    between atoms: S_31  and  C_34
REMARK                            x       y       z     vdW  Elec       q    Type
REMARK                         _______ _______ _______ _____ _____    ______ ____
ROOT
ATOM      1  C   UNL     1      47.261  31.392  45.151  0.00  0.00    +0.000 A 
ATOM      2  C   UNL     1      46.871  32.724  45.141  0.00  0.00    +0.000 A 
ATOM      3  C   UNL     1      46.241  33.329  46.205  0.00  0.00    +0.000 A 
ATOM      4  C   UNL     1      45.971  32.596  47.357  0.00  0.00    +0.000 A 
ATOM      5  N   UNL     1      45.386  32.846  48.562  0.00  0.00    +0.000 N 
ATOM      6  C   UNL     1      45.415  31.707  49.290  0.00  0.00    +0.000 A 
ATOM      7  N   UNL     1      46.016  30.762  48.532  0.00  0.00    +0.000 NA
ATOM      8  C   UNL     1      46.365  31.282  47.344  0.00  0.00    +0.000 A 
ATOM      9  C   UNL     1      46.996  30.651  46.295  0.00  0.00    +0.000 A 
ATOM     10  H   UNL     1      47.758  30.943  44.290  0.00  0.00    +0.000 HD
ATOM     11  H   UNL     1      45.930  34.367  46.214  0.00  0.00    +0.000 HD
ATOM     12  H   UNL     1      45.023  33.804  48.749  0.00  0.00    +0.000 HD
ATOM     13  H   UNL     1      45.007  31.658  50.288  0.00  0.00    +0.000 HD
ENDROOT
BRANCH   2  18
ATOM     14  C   UNL     1      46.475  35.171  42.429  0.00  0.00    +0.000 A 
ATOM     15  C   UNL     1      47.656  35.015  41.702  0.00  0.00    +0.000 A 
ATOM     16  C   UNL     1      48.582  34.076  42.139  0.00  0.00    +0.000 A 
ATOM     17  N   UNL     1      48.305  33.339  43.264  0.00  0.00    +0.000 NA
ATOM     18  C   UNL     1      47.141  33.525  43.941  0.00  0.00    +0.000 A 
ATOM     19  N   UNL     1      46.223  34.437  43.532  0.00  0.00    +0.000 NA
ATOM     20  H   UNL     1      45.776  35.909  42.064  0.00  0.00    +0.000 HD
ATOM     21  H   UNL     1      47.910  35.576  40.812  0.00  0.00    +0.000 HD
ATOM     22  H   UNL     1      49.525  33.871  41.657  0.00  0.00    +0.000 HD
ENDBRANCH   2  18
BRANCH   9  23
ATOM     23  C   UNL     1      47.372  29.244  46.391  0.00  0.00    +0.000 A 
ATOM     24  C   UNL     1      48.660  28.783  46.597  0.00  0.00    +0.000 A 
ATOM     25  C   UNL     1      48.548  27.396  46.619  0.00  0.00    +0.000 A 
ATOM     26  C   UNL     1      47.219  27.093  46.427  0.00  0.00    +0.000 A 
ATOM     27  O   UNL     1      46.568  28.229  46.298  0.00  0.00    +0.000 OA
ATOM     28  H   UNL     1      49.535  29.388  46.712  0.00  0.00    +0.000 HD
ATOM     29  H   UNL     1      49.371  26.684  46.762  0.00  0.00    +0.000 HD
BRANCH  26  31
ATOM     30  C   UNL     1      45.903  25.291  47.451  0.00  0.00    +0.000 A 
ATOM     31  C   UNL     1      46.630  25.758  46.376  0.00  0.00    +0.000 A 
ATOM     32  C   UNL     1      46.811  24.981  45.249  0.00  0.00    +0.000 A 
ATOM     33  H   UNL     1      47.388  25.342  44.388  0.00  0.00    +0.000 HD
ATOM     34  C   UNL     1      46.285  23.716  45.134  0.00  0.00    +0.000 A 
ATOM     35  H   UNL     1      46.410  23.085  44.264  0.00  0.00    +0.000 HD
ATOM     36  C   UNL     1      45.547  23.241  46.222  0.00  0.00    +0.000 A 
ATOM     37  C   UNL     1      45.374  24.021  47.337  0.00  0.00    +0.000 A 
BRANCH  30  39
ATOM     38  H   UNL     1      45.161  27.497  48.623  0.00  0.00    +0.000 HD
ATOM     39  S   UNL     1      45.659  26.257  48.890  0.00  0.00    +0.000 S 
ATOM     40  O   UNL     1      44.657  25.530  49.768  0.00  0.00    +0.000 OA
ATOM     41  O   UNL     1      46.950  26.318  49.690  0.00  0.00    +0.000 OA
ENDBRANCH  30  39
ENDBRANCH  26  31
ENDBRANCH   9  23
TORSDOF 4
