
 OpenBabel03242522093D

 47 50  0  0  1  0  0  0  0  0999 V2000
   36.3540   25.5850   37.0160 C   0  0  0  0  0  0  0  0  0  0  0  0
   36.7890   26.2780   38.1550 C   0  0  0  0  0  0  0  0  0  0  0  0
   35.9740   27.2820   38.6850 C   0  0  0  0  0  0  0  0  0  0  0  0
   34.8090   27.4970   38.0320 N   0  0  0  0  0  0  0  0  0  0  0  0
   34.4040   26.8320   36.9470 C   0  0  0  0  0  0  0  0  0  0  0  0
   35.2010   25.8570   36.4350 N   0  0  0  0  0  0  0  0  0  0  0  0
   37.0340   24.8060   36.6410 H   0  0  0  0  0  0  0  0  0  0  0  0
   37.7120   26.0880   38.6500 H   0  0  0  0  0  0  0  0  0  0  0  0
   36.2970   28.0560   39.8300 N   0  0  0  0  0  0  0  0  0  0  0  0
   35.3620   29.0080   40.3570 C   0  0  0  0  0  0  0  0  0  0  0  0
   36.0490   30.0470   41.2050 C   0  0  0  0  0  0  0  0  0  0  0  0
   36.9260   29.5300   42.1910 N   0  0  0  0  0  0  0  0  0  0  0  0
   37.6620   28.3620   41.8540 C   0  0  2  0  0  0  0  0  0  0  0  0
   37.5810   27.8780   40.4660 C   0  0  0  0  0  0  0  0  0  0  0  0
   34.8090   29.5630   39.5560 H   0  0  0  0  0  0  0  0  0  0  0  0
   34.5840   28.5040   40.9860 H   0  0  0  0  0  0  0  0  0  0  0  0
   35.2500   30.6630   41.6930 H   0  0  0  0  0  0  0  0  0  0  0  0
   36.5660   30.7480   40.5110 H   0  0  0  0  0  0  0  0  0  0  0  0
   37.5420   30.3210   42.5100 H   0  0  0  0  0  0  0  0  0  0  0  0
   38.7430   28.5500   42.0870 H   0  0  0  0  0  0  0  0  0  0  0  0
   37.8690   26.8070   40.4250 H   0  0  0  0  0  0  0  0  0  0  0  0
   38.3500   28.4210   39.8480 H   0  0  0  0  0  0  0  0  0  0  0  0
   37.2150   27.2410   42.7650 C   0  0  0  0  0  0  0  0  0  0  0  0
   36.1090   27.6480   43.5070 F   0  0  0  0  0  0  0  0  0  0  0  0
   38.2340   27.0520   43.6770 F   0  0  0  0  0  0  0  0  0  0  0  0
   36.8790   26.0960   42.1040 F   0  0  0  0  0  0  0  0  0  0  0  0
   33.1400   27.1320   36.3070 C   0  0  0  0  0  0  0  0  0  0  0  0
   32.3630   26.1230   35.8030 C   0  0  0  0  0  0  0  0  0  0  0  0
   31.1560   26.4700   35.1890 C   0  0  0  0  0  0  0  0  0  0  0  0
   30.8480   27.8250   35.1420 C   0  0  0  0  0  0  0  0  0  0  0  0
   31.6180   28.8370   35.6440 C   0  0  0  0  0  0  0  0  0  0  0  0
   32.7690   28.4270   36.2240 N   0  0  0  0  0  0  0  0  0  0  0  0
   32.7290   25.1080   35.9100 H   0  0  0  0  0  0  0  0  0  0  0  0
   30.5930   25.6570   34.8160 H   0  0  0  0  0  0  0  0  0  0  0  0
   29.8960   27.9360   34.6440 H   0  0  0  0  0  0  0  0  0  0  0  0
   30.4240   30.8420   36.4880 C   0  0  0  0  0  0  0  0  0  0  0  0
   31.1790   30.2110   35.5310 C   0  0  0  0  0  0  0  0  0  0  0  0
   31.4970   30.9820   34.4390 C   0  0  0  0  0  0  0  0  0  0  0  0
   32.0850   30.6250   33.6060 H   0  0  0  0  0  0  0  0  0  0  0  0
   31.1210   32.2750   34.2670 C   0  0  0  0  0  0  0  0  0  0  0  0
   31.3670   32.8900   33.4110 H   0  0  0  0  0  0  0  0  0  0  0  0
   30.3610   32.9220   35.2240 C   0  0  0  0  0  3  0  0  0  0  0  0
   30.0240   32.1750   36.3320 C   0  0  0  0  0  3  0  0  0  0  0  0
   29.6010   28.7030   37.6770 H   0  0  0  0  0  0  0  0  0  0  0  0
   29.9220   30.0360   37.9360 S   0  0  0  0  0  0  0  0  0  0  0  0
   28.7730   30.6830   38.6350 O   0  0  0  0  0  0  0  0  0  0  0  0
   31.0880   29.9570   38.8820 O   0  0  0  0  0  0  0  0  0  0  0  0
  1  2  1  0  0  0  0
  2  8  1  0  0  0  0
  2  3  2  0  0  0  0
  3  9  1  0  0  0  0
  4  3  1  0  0  0  0
  5  4  2  0  0  0  0
  6  5  1  0  0  0  0
  6  1  2  0  0  0  0
  7  1  1  0  0  0  0
  9 10  1  0  0  0  0
  9 14  1  0  0  0  0
 10 16  1  0  0  0  0
 10 11  1  0  0  0  0
 11 17  1  0  0  0  0
 11 12  1  0  0  0  0
 12 19  1  0  0  0  0
 13 20  1  1  0  0  0
 13 12  1  0  0  0  0
 13 23  1  0  0  0  0
 14 13  1  0  0  0  0
 15 10  1  0  0  0  0
 18 11  1  0  0  0  0
 21 14  1  0  0  0  0
 22 14  1  0  0  0  0
 23 24  1  0  0  0  0
 23 25  1  0  0  0  0
 26 23  1  0  0  0  0
 27  5  1  0  0  0  0
 28 33  1  0  0  0  0
 28 27  2  0  0  0  0
 29 28  1  0  0  0  0
 30 29  2  0  0  0  0
 30 31  1  0  0  0  0
 31 32  2  0  0  0  0
 32 27  1  0  0  0  0
 34 29  1  0  0  0  0
 35 30  1  0  0  0  0
 36 45  1  0  0  0  0
 37 31  1  0  0  0  0
 37 36  2  0  0  0  0
 38 37  1  0  0  0  0
 39 38  1  0  0  0  0
 40 38  2  0  0  0  0
 40 42  1  0  0  0  0
 41 40  1  0  0  0  0
 42 43  2  0  0  0  0
 43 36  1  0  0  0  0
 44 45  1  0  0  0  0
 45 46  2  0  0  0  0
 45 47  2  0  0  0  0
M  END
>  <minimizedAffinity>
-6.32861233

$$$$

 OpenBabel03242522093D

 47 50  0  0  1  0  0  0  0  0999 V2000
   35.5080   29.5090   40.6760 C   0  0  0  0  0  0  0  0  0  0  0  0
   36.1140   28.3300   41.1340 C   0  0  0  0  0  0  0  0  0  0  0  0
   37.4890   28.3350   41.3900 C   0  0  0  0  0  0  0  0  0  0  0  0
   38.1220   29.5090   41.1680 N   0  0  0  0  0  0  0  0  0  0  0  0
   37.5350   30.6260   40.7310 C   0  0  0  0  0  0  0  0  0  0  0  0
   36.1990   30.6160   40.4820 N   0  0  0  0  0  0  0  0  0  0  0  0
   34.4260   29.4500   40.4890 H   0  0  0  0  0  0  0  0  0  0  0  0
   35.5910   27.4190   41.3000 H   0  0  0  0  0  0  0  0  0  0  0  0
   38.2210   27.2120   41.8550 N   0  0  0  0  0  0  0  0  0  0  0  0
   38.4360   27.0090   43.2590 C   0  0  0  0  0  0  0  0  0  0  0  0
   39.6140   26.1050   43.5130 C   0  0  0  0  0  0  0  0  0  0  0  0
   39.6100   24.8960   42.7750 N   0  0  0  0  0  0  0  0  0  0  0  0
   39.0910   24.9460   41.4530 C   0  0  2  0  0  0  0  0  0  0  0  0
   38.7520   26.2680   40.9010 C   0  0  0  0  0  0  0  0  0  0  0  0
   38.6410   27.9640   43.8090 H   0  0  0  0  0  0  0  0  0  0  0  0
   37.5360   26.5530   43.7440 H   0  0  0  0  0  0  0  0  0  0  0  0
   39.6330   25.8800   44.6110 H   0  0  0  0  0  0  0  0  0  0  0  0
   40.5350   26.7050   43.3290 H   0  0  0  0  0  0  0  0  0  0  0  0
   40.5840   24.4990   42.8140 H   0  0  0  0  0  0  0  0  0  0  0  0
   39.8390   24.4710   40.7650 H   0  0  0  0  0  0  0  0  0  0  0  0
   38.0370   26.1500   40.0600 H   0  0  0  0  0  0  0  0  0  0  0  0
   39.6790   26.7200   40.4470 H   0  0  0  0  0  0  0  0  0  0  0  0
   37.8490   24.0850   41.3990 C   0  0  0  0  0  0  0  0  0  0  0  0
   38.1960   22.7750   41.0790 F   0  0  0  0  0  0  0  0  0  0  0  0
   37.1010   24.5490   40.3350 F   0  0  0  0  0  0  0  0  0  0  0  0
   37.1470   24.0600   42.5680 F   0  0  0  0  0  0  0  0  0  0  0  0
   38.2940   31.8410   40.5160 C   0  0  0  0  0  0  0  0  0  0  0  0
   37.6510   33.0200   40.2510 C   0  0  0  0  0  0  0  0  0  0  0  0
   38.4330   34.1610   40.0430 C   0  0  0  0  0  0  0  0  0  0  0  0
   39.8110   33.9950   40.1240 C   0  0  0  0  0  0  0  0  0  0  0  0
   40.4600   32.8210   40.3890 C   0  0  0  0  0  0  0  0  0  0  0  0
   39.6390   31.7610   40.5790 N   0  0  0  0  0  0  0  0  0  0  0  0
   36.5680   33.0040   40.2180 H   0  0  0  0  0  0  0  0  0  0  0  0
   37.8910   35.0460   39.8420 H   0  0  0  0  0  0  0  0  0  0  0  0
   40.2760   34.9530   39.9430 H   0  0  0  0  0  0  0  0  0  0  0  0
   42.6910   32.4100   39.3850 C   0  0  0  0  0  0  0  0  0  0  0  0
   41.9050   32.7840   40.4470 C   0  0  0  0  0  0  0  0  0  0  0  0
   42.5900   33.1270   41.5860 C   0  0  0  0  0  0  0  0  0  0  0  0
   42.1100   33.4410   42.5010 H   0  0  0  0  0  0  0  0  0  0  0  0
   43.9420   33.1160   41.7110 C   0  0  0  0  0  0  0  0  0  0  0  0
   44.4900   33.3840   42.6050 H   0  0  0  0  0  0  0  0  0  0  0  0
   44.7450   32.7420   40.6500 C   0  0  0  0  0  3  0  0  0  0  0  0
   44.0870   32.3910   39.4900 C   0  0  0  0  0  3  0  0  0  0  0  0
   40.8780   31.1510   38.0470 H   0  0  0  0  0  0  0  0  0  0  0  0
   42.0130   31.9420   37.8630 S   0  0  0  0  0  0  0  0  0  0  0  0
   42.9600   31.2260   36.9590 O   0  0  0  0  0  0  0  0  0  0  0  0
   41.4980   33.1670   37.1580 O   0  0  0  0  0  0  0  0  0  0  0  0
  1  2  1  0  0  0  0
  2  8  1  0  0  0  0
  2  3  2  0  0  0  0
  3  9  1  0  0  0  0
  4  3  1  0  0  0  0
  5  4  2  0  0  0  0
  6  1  2  0  0  0  0
  6  5  1  0  0  0  0
  7  1  1  0  0  0  0
  9 10  1  0  0  0  0
 10 11  1  0  0  0  0
 10 16  1  0  0  0  0
 10 15  1  0  0  0  0
 11 17  1  0  0  0  0
 12 19  1  0  0  0  0
 12 11  1  0  0  0  0
 13 20  1  6  0  0  0
 13 12  1  0  0  0  0
 14 13  1  0  0  0  0
 14  9  1  0  0  0  0
 18 11  1  0  0  0  0
 21 14  1  0  0  0  0
 22 14  1  0  0  0  0
 23 13  1  0  0  0  0
 23 26  1  0  0  0  0
 24 23  1  0  0  0  0
 25 23  1  0  0  0  0
 27 32  1  0  0  0  0
 27  5  1  0  0  0  0
 28 27  2  0  0  0  0
 29 30  2  0  0  0  0
 29 28  1  0  0  0  0
 30 31  1  0  0  0  0
 31 37  1  0  0  0  0
 31 32  2  0  0  0  0
 33 28  1  0  0  0  0
 34 29  1  0  0  0  0
 35 30  1  0  0  0  0
 36 43  2  0  0  0  0
 36 37  1  0  0  0  0
 37 38  2  0  0  0  0
 38 40  1  0  0  0  0
 38 39  1  0  0  0  0
 40 41  1  0  0  0  0
 42 40  2  0  0  0  0
 43 42  1  0  0  0  0
 45 44  1  0  0  0  0
 45 36  1  0  0  0  0
 46 45  2  0  0  0  0
 47 45  2  0  0  0  0
M  END
>  <minimizedAffinity>
-6.31041193

$$$$

 OpenBabel03242522093D

 47 50  0  0  1  0  0  0  0  0999 V2000
   37.8130   30.1900   37.4640 C   0  0  0  0  0  0  0  0  0  0  0  0
   38.2370   29.8050   38.7450 C   0  0  0  0  0  0  0  0  0  0  0  0
   37.3950   29.0020   39.5190 C   0  0  0  0  0  0  0  0  0  0  0  0
   36.2200   28.6610   38.9460 N   0  0  0  0  0  0  0  0  0  0  0  0
   35.8250   29.0330   37.7250 C   0  0  0  0  0  0  0  0  0  0  0  0
   36.6460   29.8150   36.9760 N   0  0  0  0  0  0  0  0  0  0  0  0
   38.5130   30.8220   36.8970 H   0  0  0  0  0  0  0  0  0  0  0  0
   39.1700   30.0880   39.1710 H   0  0  0  0  0  0  0  0  0  0  0  0
   37.7050   28.5450   40.8260 N   0  0  0  0  0  0  0  0  0  0  0  0
   37.2210   29.2470   41.9810 C   0  0  0  0  0  0  0  0  0  0  0  0
   38.0430   28.9350   43.2040 C   0  0  0  0  0  0  0  0  0  0  0  0
   38.2550   27.5550   43.4460 N   0  0  0  0  0  0  0  0  0  0  0  0
   38.4190   26.7170   42.3100 C   0  0  2  0  0  0  0  0  0  0  0  0
   38.5160   27.3620   40.9910 C   0  0  0  0  0  0  0  0  0  0  0  0
   37.2450   30.3600   41.8530 H   0  0  0  0  0  0  0  0  0  0  0  0
   36.1560   28.9780   42.1990 H   0  0  0  0  0  0  0  0  0  0  0  0
   37.5250   29.4000   44.0820 H   0  0  0  0  0  0  0  0  0  0  0  0
   39.0010   29.4950   43.1070 H   0  0  0  0  0  0  0  0  0  0  0  0
   39.0520   27.4740   44.1290 H   0  0  0  0  0  0  0  0  0  0  0  0
   39.3460   26.1020   42.4590 H   0  0  0  0  0  0  0  0  0  0  0  0
   38.2670   26.6290   40.1960 H   0  0  0  0  0  0  0  0  0  0  0  0
   39.5900   27.6520   40.8080 H   0  0  0  0  0  0  0  0  0  0  0  0
   37.2610   25.7440   42.2690 C   0  0  0  0  0  0  0  0  0  0  0  0
   36.6740   25.7620   41.0070 F   0  0  0  0  0  0  0  0  0  0  0  0
   36.3080   26.2380   43.1380 F   0  0  0  0  0  0  0  0  0  0  0  0
   37.6150   24.4570   42.5490 F   0  0  0  0  0  0  0  0  0  0  0  0
   34.5430   28.6240   37.1900 C   0  0  0  0  0  0  0  0  0  0  0  0
   34.4230   27.4420   36.5090 C   0  0  0  0  0  0  0  0  0  0  0  0
   33.1640   27.1000   36.0070 C   0  0  0  0  0  0  0  0  0  0  0  0
   32.1320   28.0010   36.2460 C   0  0  0  0  0  0  0  0  0  0  0  0
   32.2440   29.1820   36.9260 C   0  0  0  0  0  0  0  0  0  0  0  0
   33.4900   29.4460   37.3820 N   0  0  0  0  0  0  0  0  0  0  0  0
   35.3140   26.8360   36.3980 H   0  0  0  0  0  0  0  0  0  0  0  0
   33.1220   26.1800   35.4890 H   0  0  0  0  0  0  0  0  0  0  0  0
   31.2300   27.6040   35.8030 H   0  0  0  0  0  0  0  0  0  0  0  0
   30.6770   30.9530   36.1750 C   0  0  0  0  0  0  0  0  0  0  0  0
   31.0870   30.0320   37.1060 C   0  0  0  0  0  0  0  0  0  0  0  0
   30.3150   29.9670   38.2400 C   0  0  0  0  0  0  0  0  0  0  0  0
   30.5120   29.2920   39.0610 H   0  0  0  0  0  0  0  0  0  0  0  0
   29.2170   30.7310   38.4760 C   0  0  0  0  0  0  0  0  0  0  0  0
   28.6040   30.6870   39.3660 H   0  0  0  0  0  0  0  0  0  0  0  0
   28.7940   31.6620   37.5460 C   0  0  0  0  0  3  0  0  0  0  0  0
   29.5490   31.7520   36.3960 C   0  0  0  0  0  3  0  0  0  0  0  0
   32.8540   30.7860   34.7980 H   0  0  0  0  0  0  0  0  0  0  0  0
   31.5210   31.1830   34.6810 S   0  0  0  0  0  0  0  0  0  0  0  0
   31.4770   32.5790   34.1560 O   0  0  0  0  0  0  0  0  0  0  0  0
   30.9490   30.2540   33.6460 O   0  0  0  0  0  0  0  0  0  0  0  0
  1  2  1  0  0  0  0
  2  8  1  0  0  0  0
  2  3  2  0  0  0  0
  3  9  1  0  0  0  0
  4  3  1  0  0  0  0
  5  4  2  0  0  0  0
  6  1  2  0  0  0  0
  6  5  1  0  0  0  0
  7  1  1  0  0  0  0
  9 14  1  0  0  0  0
  9 10  1  0  0  0  0
 10 16  1  0  0  0  0
 10 11  1  0  0  0  0
 11 12  1  0  0  0  0
 11 17  1  0  0  0  0
 12 19  1  0  0  0  0
 13 20  1  1  0  0  0
 13 12  1  0  0  0  0
 14 13  1  0  0  0  0
 15 10  1  0  0  0  0
 18 11  1  0  0  0  0
 21 14  1  0  0  0  0
 22 14  1  0  0  0  0
 23 13  1  0  0  0  0
 23 26  1  0  0  0  0
 23 25  1  0  0  0  0
 24 23  1  0  0  0  0
 27 32  1  0  0  0  0
 27  5  1  0  0  0  0
 28 27  2  0  0  0  0
 29 30  2  0  0  0  0
 29 28  1  0  0  0  0
 30 31  1  0  0  0  0
 31 37  1  0  0  0  0
 31 32  2  0  0  0  0
 33 28  1  0  0  0  0
 34 29  1  0  0  0  0
 35 30  1  0  0  0  0
 36 43  2  0  0  0  0
 36 37  1  0  0  0  0
 37 38  2  0  0  0  0
 38 40  1  0  0  0  0
 38 39  1  0  0  0  0
 40 41  1  0  0  0  0
 42 40  2  0  0  0  0
 43 42  1  0  0  0  0
 45 44  1  0  0  0  0
 45 36  1  0  0  0  0
 46 45  2  0  0  0  0
 47 45  2  0  0  0  0
M  END
>  <minimizedAffinity>
-6.29962063

$$$$

 OpenBabel03242522093D

 47 50  0  0  1  0  0  0  0  0999 V2000
   36.9600   32.2570   39.7950 C   0  0  0  0  0  0  0  0  0  0  0  0
   38.1910   32.5960   39.2140 C   0  0  0  0  0  0  0  0  0  0  0  0
   39.2920   31.7640   39.4370 C   0  0  0  0  0  0  0  0  0  0  0  0
   39.0610   30.6800   40.2110 N   0  0  0  0  0  0  0  0  0  0  0  0
   37.8840   30.3660   40.7590 C   0  0  0  0  0  0  0  0  0  0  0  0
   36.8160   31.1780   40.5410 N   0  0  0  0  0  0  0  0  0  0  0  0
   36.1270   32.9460   39.5880 H   0  0  0  0  0  0  0  0  0  0  0  0
   38.3450   33.4570   38.6080 H   0  0  0  0  0  0  0  0  0  0  0  0
   40.5890   31.9940   38.9090 N   0  0  0  0  0  0  0  0  0  0  0  0
   41.7250   32.1010   39.7800 C   0  0  0  0  0  0  0  0  0  0  0  0
   42.8650   32.8280   39.1160 C   0  0  0  0  0  0  0  0  0  0  0  0
   43.2030   32.3580   37.8230 N   0  0  0  0  0  0  0  0  0  0  0  0
   42.1360   31.9110   36.9980 C   0  0  2  0  0  0  0  0  0  0  0  0
   40.7620   32.1210   37.4810 C   0  0  0  0  0  0  0  0  0  0  0  0
   41.4960   32.6570   40.7250 H   0  0  0  0  0  0  0  0  0  0  0  0
   42.0910   31.0890   40.0910 H   0  0  0  0  0  0  0  0  0  0  0  0
   43.7530   32.7480   39.7940 H   0  0  0  0  0  0  0  0  0  0  0  0
   42.6050   33.9120   39.1130 H   0  0  0  0  0  0  0  0  0  0  0  0
   43.7910   33.0990   37.3620 H   0  0  0  0  0  0  0  0  0  0  0  0
   42.2280   32.4190   36.0010 H   0  0  0  0  0  0  0  0  0  0  0  0
   40.0710   31.4250   36.9620 H   0  0  0  0  0  0  0  0  0  0  0  0
   40.4270   33.1560   37.1840 H   0  0  0  0  0  0  0  0  0  0  0  0
   42.3200   30.4320   36.7440 C   0  0  0  0  0  0  0  0  0  0  0  0
   43.1750   29.8920   37.7010 F   0  0  0  0  0  0  0  0  0  0  0  0
   42.9850   30.3240   35.5390 F   0  0  0  0  0  0  0  0  0  0  0  0
   41.1570   29.7210   36.7710 F   0  0  0  0  0  0  0  0  0  0  0  0
   37.7270   29.1840   41.5810 C   0  0  0  0  0  0  0  0  0  0  0  0
   37.5500   29.3000   42.9340 C   0  0  0  0  0  0  0  0  0  0  0  0
   37.4110   28.1260   43.6800 C   0  0  0  0  0  0  0  0  0  0  0  0
   37.4680   26.9290   42.9740 C   0  0  0  0  0  0  0  0  0  0  0  0
   37.6440   26.8050   41.6240 C   0  0  0  0  0  0  0  0  0  0  0  0
   37.7690   27.9820   40.9680 N   0  0  0  0  0  0  0  0  0  0  0  0
   37.5250   30.3000   43.3510 H   0  0  0  0  0  0  0  0  0  0  0  0
   37.2770   28.2670   44.7190 H   0  0  0  0  0  0  0  0  0  0  0  0
   37.3470   26.1180   43.6770 H   0  0  0  0  0  0  0  0  0  0  0  0
   38.8400   24.7740   40.8510 C   0  0  0  0  0  0  0  0  0  0  0  0
   37.6830   25.4960   41.0110 C   0  0  0  0  0  0  0  0  0  0  0  0
   36.5460   24.8830   40.5440 C   0  0  0  0  0  0  0  0  0  0  0  0
   35.5620   25.3260   40.5990 H   0  0  0  0  0  0  0  0  0  0  0  0
   36.5090   23.6580   39.9600 C   0  0  0  0  0  0  0  0  0  0  0  0
   35.6180   23.1680   39.5890 H   0  0  0  0  0  0  0  0  0  0  0  0
   37.6660   22.9210   39.7940 C   0  0  0  0  0  3  0  0  0  0  0  0
   38.8260   23.5080   40.2510 C   0  0  0  0  0  3  0  0  0  0  0  0
   40.3120   26.7490   41.6250 H   0  0  0  0  0  0  0  0  0  0  0  0
   40.3760   25.3770   41.3750 S   0  0  0  0  0  0  0  0  0  0  0  0
   41.4990   25.1090   40.4290 O   0  0  0  0  0  0  0  0  0  0  0  0
   40.7090   24.7740   42.7110 O   0  0  0  0  0  0  0  0  0  0  0  0
  1  6  1  0  0  0  0
  2  3  1  0  0  0  0
  2  1  2  0  0  0  0
  3  4  2  0  0  0  0
  4  5  1  0  0  0  0
  5 27  1  0  0  0  0
  6  5  2  0  0  0  0
  7  1  1  0  0  0  0
  8  2  1  0  0  0  0
  9  3  1  0  0  0  0
  9 10  1  0  0  0  0
 10 16  1  0  0  0  0
 10 15  1  0  0  0  0
 11 10  1  0  0  0  0
 11 17  1  0  0  0  0
 12 11  1  0  0  0  0
 13 20  1  6  0  0  0
 13 14  1  0  0  0  0
 13 12  1  0  0  0  0
 14  9  1  0  0  0  0
 18 11  1  0  0  0  0
 19 12  1  0  0  0  0
 21 14  1  0  0  0  0
 22 14  1  0  0  0  0
 23 26  1  0  0  0  0
 23 13  1  0  0  0  0
 23 24  1  0  0  0  0
 25 23  1  0  0  0  0
 27 28  1  0  0  0  0
 28 33  1  0  0  0  0
 28 29  2  0  0  0  0
 29 34  1  0  0  0  0
 30 35  1  0  0  0  0
 30 29  1  0  0  0  0
 31 30  2  0  0  0  0
 32 27  2  0  0  0  0
 32 31  1  0  0  0  0
 36 37  1  0  0  0  0
 36 45  1  0  0  0  0
 37 31  1  0  0  0  0
 38 39  1  0  0  0  0
 38 37  2  0  0  0  0
 40 38  1  0  0  0  0
 41 40  1  0  0  0  0
 42 40  2  0  0  0  0
 42 43  1  0  0  0  0
 43 36  2  0  0  0  0
 45 44  1  0  0  0  0
 45 47  2  0  0  0  0
 46 45  2  0  0  0  0
M  END
>  <minimizedAffinity>
-6.28537369

$$$$

 OpenBabel03242522093D

 47 50  0  0  1  0  0  0  0  0999 V2000
   34.3870   28.6180   34.8680 C   0  0  0  0  0  0  0  0  0  0  0  0
   33.1690   29.2200   35.2190 C   0  0  0  0  0  0  0  0  0  0  0  0
   32.6940   29.0670   36.5250 C   0  0  0  0  0  0  0  0  0  0  0  0
   33.4750   28.3340   37.3500 N   0  0  0  0  0  0  0  0  0  0  0  0
   34.6330   27.7650   37.0060 C   0  0  0  0  0  0  0  0  0  0  0  0
   35.0900   27.9150   35.7350 N   0  0  0  0  0  0  0  0  0  0  0  0
   34.7140   28.7690   33.8280 H   0  0  0  0  0  0  0  0  0  0  0  0
   32.5750   29.7920   34.5470 H   0  0  0  0  0  0  0  0  0  0  0  0
   31.4810   29.6230   37.0050 N   0  0  0  0  0  0  0  0  0  0  0  0
   31.3030   29.8940   38.4030 C   0  0  0  0  0  0  0  0  0  0  0  0
   29.8440   29.9830   38.7690 C   0  0  0  0  0  0  0  0  0  0  0  0
   29.0710   30.8340   37.9400 N   0  0  0  0  0  0  0  0  0  0  0  0
   29.4090   30.8730   36.5600 C   0  0  2  0  0  0  0  0  0  0  0  0
   30.4180   29.9180   36.0740 C   0  0  0  0  0  0  0  0  0  0  0  0
   31.7490   29.1010   39.0580 H   0  0  0  0  0  0  0  0  0  0  0  0
   31.7950   30.8570   38.6940 H   0  0  0  0  0  0  0  0  0  0  0  0
   29.7860   30.3340   39.8310 H   0  0  0  0  0  0  0  0  0  0  0  0
   29.4460   28.9430   38.7890 H   0  0  0  0  0  0  0  0  0  0  0  0
   28.0590   30.5980   38.1030 H   0  0  0  0  0  0  0  0  0  0  0  0
   28.4710   30.7120   35.9650 H   0  0  0  0  0  0  0  0  0  0  0  0
   30.8520   30.2850   35.1210 H   0  0  0  0  0  0  0  0  0  0  0  0
   29.9040   28.9480   35.8180 H   0  0  0  0  0  0  0  0  0  0  0  0
   29.8910   32.2690   36.2310 C   0  0  0  0  0  0  0  0  0  0  0  0
   28.9110   32.9500   35.5140 F   0  0  0  0  0  0  0  0  0  0  0  0
   30.9560   32.1170   35.3650 F   0  0  0  0  0  0  0  0  0  0  0  0
   30.2040   33.0150   37.3280 F   0  0  0  0  0  0  0  0  0  0  0  0
   35.4040   26.9910   37.9570 C   0  0  0  0  0  0  0  0  0  0  0  0
   35.6680   25.6690   37.7210 C   0  0  0  0  0  0  0  0  0  0  0  0
   36.4100   24.9670   38.6760 C   0  0  0  0  0  0  0  0  0  0  0  0
   36.8180   25.6830   39.7960 C   0  0  0  0  0  0  0  0  0  0  0  0
   36.5590   27.0030   40.0380 C   0  0  0  0  0  0  0  0  0  0  0  0
   35.8370   27.6160   39.0710 N   0  0  0  0  0  0  0  0  0  0  0  0
   35.2860   25.2380   36.8020 H   0  0  0  0  0  0  0  0  0  0  0  0
   36.5870   23.9500   38.4490 H   0  0  0  0  0  0  0  0  0  0  0  0
   37.3750   25.0150   40.4370 H   0  0  0  0  0  0  0  0  0  0  0  0
   38.0110   28.6050   41.2550 C   0  0  0  0  0  0  0  0  0  0  0  0
   37.0440   27.6310   41.2480 C   0  0  0  0  0  0  0  0  0  0  0  0
   36.5580   27.2840   42.4850 C   0  0  0  0  0  0  0  0  0  0  0  0
   35.7960   26.5350   42.6400 H   0  0  0  0  0  0  0  0  0  0  0  0
   36.9670   27.8310   43.6600 C   0  0  0  0  0  0  0  0  0  0  0  0
   36.5900   27.5640   44.6380 H   0  0  0  0  0  0  0  0  0  0  0  0
   37.9390   28.8130   43.6790 C   0  0  0  0  0  3  0  0  0  0  0  0
   38.4480   29.1830   42.4530 C   0  0  0  0  0  3  0  0  0  0  0  0
   38.0100   28.7750   38.6790 H   0  0  0  0  0  0  0  0  0  0  0  0
   38.7460   29.1770   39.7950 S   0  0  0  0  0  0  0  0  0  0  0  0
   40.1670   28.7560   39.6140 O   0  0  0  0  0  0  0  0  0  0  0  0
   38.6730   30.6780   39.7640 O   0  0  0  0  0  0  0  0  0  0  0  0
  1  2  2  0  0  0  0
  1  6  1  0  0  0  0
  2  3  1  0  0  0  0
  3  9  1  0  0  0  0
  3  4  2  0  0  0  0
  5  4  1  0  0  0  0
  5 27  1  0  0  0  0
  6  5  2  0  0  0  0
  7  1  1  0  0  0  0
  8  2  1  0  0  0  0
  9 10  1  0  0  0  0
 10 16  1  0  0  0  0
 10 11  1  0  0  0  0
 10 15  1  0  0  0  0
 11 18  1  0  0  0  0
 11 17  1  0  0  0  0
 12 19  1  0  0  0  0
 12 11  1  0  0  0  0
 13 20  1  6  0  0  0
 13 12  1  0  0  0  0
 14 13  1  0  0  0  0
 14  9  1  0  0  0  0
 21 14  1  0  0  0  0
 22 14  1  0  0  0  0
 23 13  1  0  0  0  0
 23 26  1  0  0  0  0
 24 23  1  0  0  0  0
 25 23  1  0  0  0  0
 27 32  1  0  0  0  0
 28 27  2  0  0  0  0
 28 29  1  0  0  0  0
 29 30  2  0  0  0  0
 30 31  1  0  0  0  0
 30 35  1  0  0  0  0
 31 37  1  0  0  0  0
 32 31  2  0  0  0  0
 33 28  1  0  0  0  0
 34 29  1  0  0  0  0
 36 43  1  0  0  0  0
 37 36  2  0  0  0  0
 37 38  1  0  0  0  0
 38 39  1  0  0  0  0
 38 40  2  0  0  0  0
 40 42  1  0  0  0  0
 40 41  1  0  0  0  0
 43 42  2  0  0  0  0
 44 45  1  0  0  0  0
 45 36  1  0  0  0  0
 46 45  2  0  0  0  0
 47 45  2  0  0  0  0
M  END
>  <minimizedAffinity>
-6.27827644

$$$$

 OpenBabel03242522093D

 47 50  0  0  1  0  0  0  0  0999 V2000
   36.2000   30.7540   41.0530 C   0  0  0  0  0  0  0  0  0  0  0  0
   37.0380   31.5970   40.3060 C   0  0  0  0  0  0  0  0  0  0  0  0
   38.3660   31.2130   40.0980 C   0  0  0  0  0  0  0  0  0  0  0  0
   38.7290   30.0330   40.6500 N   0  0  0  0  0  0  0  0  0  0  0  0
   37.9230   29.2390   41.3600 C   0  0  0  0  0  0  0  0  0  0  0  0
   36.6330   29.6160   41.5600 N   0  0  0  0  0  0  0  0  0  0  0  0
   35.1660   31.1040   41.1870 H   0  0  0  0  0  0  0  0  0  0  0  0
   36.7250   32.5220   39.8830 H   0  0  0  0  0  0  0  0  0  0  0  0
   39.3130   31.9730   39.3640 N   0  0  0  0  0  0  0  0  0  0  0  0
   40.2000   32.8800   40.0330 C   0  0  0  0  0  0  0  0  0  0  0  0
   40.7390   33.9240   39.0900 C   0  0  0  0  0  0  0  0  0  0  0  0
   41.2770   33.4180   37.8810 N   0  0  0  0  0  0  0  0  0  0  0  0
   40.6360   32.2840   37.3130 C   0  0  2  0  0  0  0  0  0  0  0  0
   39.3790   31.8270   37.9290 C   0  0  0  0  0  0  0  0  0  0  0  0
   39.7040   33.4320   40.8720 H   0  0  0  0  0  0  0  0  0  0  0  0
   41.0690   32.3370   40.4830 H   0  0  0  0  0  0  0  0  0  0  0  0
   41.5240   34.5020   39.6430 H   0  0  0  0  0  0  0  0  0  0  0  0
   39.9200   34.6580   38.9090 H   0  0  0  0  0  0  0  0  0  0  0  0
   41.3500   34.2230   37.2070 H   0  0  0  0  0  0  0  0  0  0  0  0
   40.4250   32.5050   36.2330 H   0  0  0  0  0  0  0  0  0  0  0  0
   39.1920   30.7680   37.6550 H   0  0  0  0  0  0  0  0  0  0  0  0
   38.5240   32.4100   37.4830 H   0  0  0  0  0  0  0  0  0  0  0  0
   41.6120   31.1290   37.3320 C   0  0  0  0  0  0  0  0  0  0  0  0
   42.3910   31.1500   36.1790 F   0  0  0  0  0  0  0  0  0  0  0  0
   40.8530   29.9780   37.2550 F   0  0  0  0  0  0  0  0  0  0  0  0
   42.4510   31.1380   38.4070 F   0  0  0  0  0  0  0  0  0  0  0  0
   38.3990   27.9900   41.9190 C   0  0  0  0  0  0  0  0  0  0  0  0
   38.8990   27.9490   43.1930 C   0  0  0  0  0  0  0  0  0  0  0  0
   39.3520   26.7190   43.6790 C   0  0  0  0  0  0  0  0  0  0  0  0
   39.2540   25.6330   42.8160 C   0  0  0  0  0  0  0  0  0  0  0  0
   38.7550   25.6670   41.5440 C   0  0  0  0  0  0  0  0  0  0  0  0
   38.3360   26.8890   41.1420 N   0  0  0  0  0  0  0  0  0  0  0  0
   38.9160   28.8760   43.7540 H   0  0  0  0  0  0  0  0  0  0  0  0
   39.7290   26.7390   44.6670 H   0  0  0  0  0  0  0  0  0  0  0  0
   39.6380   24.7630   43.3270 H   0  0  0  0  0  0  0  0  0  0  0  0
   39.5520   24.2200   39.6930 C   0  0  0  0  0  0  0  0  0  0  0  0
   38.7070   24.4600   40.7480 C   0  0  0  0  0  0  0  0  0  0  0  0
   37.7990   23.4620   41.0040 C   0  0  0  0  0  0  0  0  0  0  0  0
   37.0710   23.5060   41.8010 H   0  0  0  0  0  0  0  0  0  0  0  0
   37.6980   22.3050   40.3010 C   0  0  0  0  0  0  0  0  0  0  0  0
   36.9860   21.5140   40.4960 H   0  0  0  0  0  0  0  0  0  0  0  0
   38.5430   22.0520   39.2360 C   0  0  0  0  0  3  0  0  0  0  0  0
   39.4670   23.0350   38.9520 C   0  0  0  0  0  3  0  0  0  0  0  0
   41.2500   26.0620   40.3180 H   0  0  0  0  0  0  0  0  0  0  0  0
   40.7650   25.3590   39.2140 S   0  0  0  0  0  0  0  0  0  0  0  0
   40.3200   26.3350   38.1760 O   0  0  0  0  0  0  0  0  0  0  0  0
   41.9630   24.6110   38.6980 O   0  0  0  0  0  0  0  0  0  0  0  0
  1  7  1  0  0  0  0
  1  6  1  0  0  0  0
  2  1  2  0  0  0  0
  3  2  1  0  0  0  0
  3  4  2  0  0  0  0
  4  5  1  0  0  0  0
  5  6  2  0  0  0  0
  5 27  1  0  0  0  0
  8  2  1  0  0  0  0
  9 10  1  0  0  0  0
  9  3  1  0  0  0  0
 10 16  1  0  0  0  0
 10 15  1  0  0  0  0
 11 17  1  0  0  0  0
 11 10  1  0  0  0  0
 12 11  1  0  0  0  0
 13 20  1  6  0  0  0
 13 23  1  0  0  0  0
 13 12  1  0  0  0  0
 13 14  1  0  0  0  0
 14  9  1  0  0  0  0
 18 11  1  0  0  0  0
 19 12  1  0  0  0  0
 21 14  1  0  0  0  0
 22 14  1  0  0  0  0
 23 26  1  0  0  0  0
 24 23  1  0  0  0  0
 25 23  1  0  0  0  0
 27 28  1  0  0  0  0
 28 29  2  0  0  0  0
 28 33  1  0  0  0  0
 29 34  1  0  0  0  0
 30 35  1  0  0  0  0
 30 29  1  0  0  0  0
 31 30  2  0  0  0  0
 32 31  1  0  0  0  0
 32 27  2  0  0  0  0
 36 37  1  0  0  0  0
 37 38  2  0  0  0  0
 37 31  1  0  0  0  0
 38 39  1  0  0  0  0
 40 41  1  0  0  0  0
 40 38  1  0  0  0  0
 42 40  2  0  0  0  0
 43 42  1  0  0  0  0
 43 36  2  0  0  0  0
 45 36  1  0  0  0  0
 45 44  1  0  0  0  0
 46 45  2  0  0  0  0
 47 45  2  0  0  0  0
M  END
>  <minimizedAffinity>
-6.23736572

$$$$

 OpenBabel03242522093D

 47 50  0  0  1  0  0  0  0  0999 V2000
   37.5300   28.4600   43.6170 C   0  0  0  0  0  0  0  0  0  0  0  0
   37.2540   27.2590   42.9460 C   0  0  0  0  0  0  0  0  0  0  0  0
   37.2360   27.2580   41.5480 C   0  0  0  0  0  0  0  0  0  0  0  0
   37.4940   28.4460   40.9580 N   0  0  0  0  0  0  0  0  0  0  0  0
   37.7560   29.5840   41.6060 C   0  0  0  0  0  0  0  0  0  0  0  0
   37.7710   29.5810   42.9650 N   0  0  0  0  0  0  0  0  0  0  0  0
   37.5310   28.4050   44.7160 H   0  0  0  0  0  0  0  0  0  0  0  0
   37.0540   26.3370   43.4380 H   0  0  0  0  0  0  0  0  0  0  0  0
   36.9700   26.1140   40.7520 N   0  0  0  0  0  0  0  0  0  0  0  0
   36.9800   26.2000   39.3200 C   0  0  0  0  0  0  0  0  0  0  0  0
   36.2030   25.0740   38.6920 C   0  0  0  0  0  0  0  0  0  0  0  0
   36.5320   23.7810   39.1680 N   0  0  0  0  0  0  0  0  0  0  0  0
   36.8650   23.6640   40.5450 C   0  0  2  0  0  0  0  0  0  0  0  0
   36.6880   24.8520   41.3960 C   0  0  0  0  0  0  0  0  0  0  0  0
   36.5280   27.1530   38.9400 H   0  0  0  0  0  0  0  0  0  0  0  0
   38.0260   26.1670   38.9210 H   0  0  0  0  0  0  0  0  0  0  0  0
   36.3730   25.1260   37.5850 H   0  0  0  0  0  0  0  0  0  0  0  0
   35.1210   25.3060   38.8250 H   0  0  0  0  0  0  0  0  0  0  0  0
   35.7540   23.1320   38.8830 H   0  0  0  0  0  0  0  0  0  0  0  0
   36.2510   22.8350   40.9850 H   0  0  0  0  0  0  0  0  0  0  0  0
   37.3100   24.7550   42.3090 H   0  0  0  0  0  0  0  0  0  0  0  0
   35.6210   24.8820   41.7590 H   0  0  0  0  0  0  0  0  0  0  0  0
   38.3110   23.2300   40.6470 C   0  0  0  0  0  0  0  0  0  0  0  0
   38.3840   21.8400   40.6760 F   0  0  0  0  0  0  0  0  0  0  0  0
   38.7590   23.6580   41.8800 F   0  0  0  0  0  0  0  0  0  0  0  0
   39.0910   23.6710   39.6180 F   0  0  0  0  0  0  0  0  0  0  0  0
   38.0180   30.8160   40.8900 C   0  0  0  0  0  0  0  0  0  0  0  0
   36.9840   31.5540   40.3820 C   0  0  0  0  0  0  0  0  0  0  0  0
   37.2940   32.7300   39.6920 C   0  0  0  0  0  0  0  0  0  0  0  0
   38.6430   33.0500   39.5820 C   0  0  0  0  0  0  0  0  0  0  0  0
   39.6810   32.3180   40.0880 C   0  0  0  0  0  0  0  0  0  0  0  0
   39.3050   31.1940   40.7410 N   0  0  0  0  0  0  0  0  0  0  0  0
   35.9770   31.1850   40.5440 H   0  0  0  0  0  0  0  0  0  0  0  0
   36.4620   33.2650   39.3190 H   0  0  0  0  0  0  0  0  0  0  0  0
   38.7250   33.9750   39.0300 H   0  0  0  0  0  0  0  0  0  0  0  0
   41.8600   32.2970   38.9020 C   0  0  0  0  0  0  0  0  0  0  0  0
   41.0450   32.7630   39.9030 C   0  0  0  0  0  0  0  0  0  0  0  0
   41.6170   33.6970   40.7320 C   0  0  0  0  0  0  0  0  0  0  0  0
   41.1010   34.1550   41.5630 H   0  0  0  0  0  0  0  0  0  0  0  0
   42.8880   34.1610   40.6170 C   0  0  0  0  0  0  0  0  0  0  0  0
   43.3470   34.8960   41.2650 H   0  0  0  0  0  0  0  0  0  0  0  0
   43.7190   33.6990   39.6130 C   0  0  0  0  0  3  0  0  0  0  0  0
   43.1750   32.7600   38.7640 C   0  0  0  0  0  3  0  0  0  0  0  0
   40.0640   31.4520   37.2510 H   0  0  0  0  0  0  0  0  0  0  0  0
   41.3210   31.1160   37.7560 S   0  0  0  0  0  0  0  0  0  0  0  0
   41.2730   29.7210   38.2840 O   0  0  0  0  0  0  0  0  0  0  0  0
   42.2230   31.1520   36.5540 O   0  0  0  0  0  0  0  0  0  0  0  0
  1  7  1  0  0  0  0
  2  8  1  0  0  0  0
  2  1  2  0  0  0  0
  3  2  1  0  0  0  0
  4  3  2  0  0  0  0
  4  5  1  0  0  0  0
  5  6  2  0  0  0  0
  6  1  1  0  0  0  0
  9 14  1  0  0  0  0
  9  3  1  0  0  0  0
 10  9  1  0  0  0  0
 11 18  1  0  0  0  0
 11 12  1  0  0  0  0
 11 10  1  0  0  0  0
 12 13  1  0  0  0  0
 13 23  1  0  0  0  0
 13 20  1  1  0  0  0
 13 14  1  0  0  0  0
 14 22  1  0  0  0  0
 14 21  1  0  0  0  0
 15 10  1  0  0  0  0
 16 10  1  0  0  0  0
 17 11  1  0  0  0  0
 19 12  1  0  0  0  0
 23 24  1  0  0  0  0
 23 25  1  0  0  0  0
 26 23  1  0  0  0  0
 27  5  1  0  0  0  0
 28 33  1  0  0  0  0
 28 27  2  0  0  0  0
 29 28  1  0  0  0  0
 30 29  2  0  0  0  0
 30 31  1  0  0  0  0
 31 32  2  0  0  0  0
 32 27  1  0  0  0  0
 34 29  1  0  0  0  0
 35 30  1  0  0  0  0
 36 37  1  0  0  0  0
 37 31  1  0  0  0  0
 37 38  2  0  0  0  0
 38 39  1  0  0  0  0
 40 38  1  0  0  0  0
 40 41  1  0  0  0  0
 42 40  2  0  0  0  0
 43 36  2  0  0  0  0
 43 42  1  0  0  0  0
 44 45  1  0  0  0  0
 45 46  2  0  0  0  0
 45 36  1  0  0  0  0
 47 45  2  0  0  0  0
M  END
>  <minimizedAffinity>
-6.14696074

$$$$

 OpenBabel03242522093D

 47 50  0  0  1  0  0  0  0  0999 V2000
   36.8640   26.1330   37.1150 C   0  0  0  0  0  0  0  0  0  0  0  0
   37.1960   26.7640   38.3240 C   0  0  0  0  0  0  0  0  0  0  0  0
   36.2440   27.5800   38.9410 C   0  0  0  0  0  0  0  0  0  0  0  0
   35.0600   27.6890   38.2980 N   0  0  0  0  0  0  0  0  0  0  0  0
   34.7540   27.0840   37.1460 C   0  0  0  0  0  0  0  0  0  0  0  0
   35.6830   26.2920   36.5500 N   0  0  0  0  0  0  0  0  0  0  0  0
   37.6500   25.5030   36.6730 H   0  0  0  0  0  0  0  0  0  0  0  0
   38.1380   26.6600   38.8090 H   0  0  0  0  0  0  0  0  0  0  0  0
   36.4530   28.2730   40.1610 N   0  0  0  0  0  0  0  0  0  0  0  0
   37.2660   27.7010   41.1970 C   0  0  0  0  0  0  0  0  0  0  0  0
   36.9570   28.3070   42.5410 C   0  0  0  0  0  0  0  0  0  0  0  0
   36.9430   29.7240   42.5700 N   0  0  0  0  0  0  0  0  0  0  0  0
   36.4450   30.3890   41.4160 C   0  0  2  0  0  0  0  0  0  0  0  0
   35.8390   29.5650   40.3580 C   0  0  0  0  0  0  0  0  0  0  0  0
   37.1200   26.5950   41.3020 H   0  0  0  0  0  0  0  0  0  0  0  0
   38.3550   27.8560   40.9870 H   0  0  0  0  0  0  0  0  0  0  0  0
   37.7190   27.9200   43.2660 H   0  0  0  0  0  0  0  0  0  0  0  0
   35.9910   27.8720   42.8830 H   0  0  0  0  0  0  0  0  0  0  0  0
   36.4490   30.0160   43.4520 H   0  0  0  0  0  0  0  0  0  0  0  0
   35.6770   31.1370   41.7470 H   0  0  0  0  0  0  0  0  0  0  0  0
   35.8400   30.1250   39.4000 H   0  0  0  0  0  0  0  0  0  0  0  0
   34.7530   29.3960   40.6080 H   0  0  0  0  0  0  0  0  0  0  0  0
   37.5780   31.1800   40.8000 C   0  0  0  0  0  0  0  0  0  0  0  0
   37.2240   32.5240   40.7170 F   0  0  0  0  0  0  0  0  0  0  0  0
   37.6960   30.7380   39.4980 F   0  0  0  0  0  0  0  0  0  0  0  0
   38.7480   31.0960   41.4950 F   0  0  0  0  0  0  0  0  0  0  0  0
   33.4580   27.2600   36.5240 C   0  0  0  0  0  0  0  0  0  0  0  0
   32.7380   26.1740   36.1060 C   0  0  0  0  0  0  0  0  0  0  0  0
   31.4970   26.4020   35.5040 C   0  0  0  0  0  0  0  0  0  0  0  0
   31.0990   27.7290   35.3800 C   0  0  0  0  0  0  0  0  0  0  0  0
   31.8130   28.8180   35.7950 C   0  0  0  0  0  0  0  0  0  0  0  0
   33.0020   28.5210   36.3680 N   0  0  0  0  0  0  0  0  0  0  0  0
   33.1720   25.1930   36.2680 H   0  0  0  0  0  0  0  0  0  0  0  0
   30.9790   25.5320   35.1990 H   0  0  0  0  0  0  0  0  0  0  0  0
   30.1310   27.7450   34.9020 H   0  0  0  0  0  0  0  0  0  0  0  0
   30.4300   30.7550   36.4970 C   0  0  0  0  0  0  0  0  0  0  0  0
   31.2820   30.1510   35.6070 C   0  0  0  0  0  0  0  0  0  0  0  0
   31.6060   30.9070   34.5070 C   0  0  0  0  0  0  0  0  0  0  0  0
   32.2640   30.5680   33.7200 H   0  0  0  0  0  0  0  0  0  0  0  0
   31.1470   32.1620   34.2660 C   0  0  0  0  0  0  0  0  0  0  0  0
   31.3960   32.7640   33.4020 H   0  0  0  0  0  0  0  0  0  0  0  0
   30.2880   32.7810   35.1550 C   0  0  0  0  0  3  0  0  0  0  0  0
   29.9430   32.0480   36.2700 C   0  0  0  0  0  3  0  0  0  0  0  0
   29.6570   28.6100   37.7080 H   0  0  0  0  0  0  0  0  0  0  0  0
   29.9060   29.9630   37.9450 S   0  0  0  0  0  0  0  0  0  0  0  0
   28.7000   30.5720   38.5790 O   0  0  0  0  0  0  0  0  0  0  0  0
   31.0330   29.9610   38.9390 O   0  0  0  0  0  0  0  0  0  0  0  0
  1  2  1  0  0  0  0
  2  8  1  0  0  0  0
  2  3  2  0  0  0  0
  3  9  1  0  0  0  0
  4  3  1  0  0  0  0
  5  4  2  0  0  0  0
  6  1  2  0  0  0  0
  6  5  1  0  0  0  0
  7  1  1  0  0  0  0
  9 14  1  0  0  0  0
  9 10  1  0  0  0  0
 10 15  1  0  0  0  0
 10 11  1  0  0  0  0
 11 12  1  0  0  0  0
 11 18  1  0  0  0  0
 11 17  1  0  0  0  0
 12 19  1  0  0  0  0
 13 20  1  1  0  0  0
 13 12  1  0  0  0  0
 14 22  1  0  0  0  0
 14 13  1  0  0  0  0
 16 10  1  0  0  0  0
 21 14  1  0  0  0  0
 23 13  1  0  0  0  0
 23 26  1  0  0  0  0
 24 23  1  0  0  0  0
 25 23  1  0  0  0  0
 27  5  1  0  0  0  0
 28 33  1  0  0  0  0
 28 27  2  0  0  0  0
 29 28  1  0  0  0  0
 30 29  2  0  0  0  0
 30 31  1  0  0  0  0
 31 32  2  0  0  0  0
 32 27  1  0  0  0  0
 34 29  1  0  0  0  0
 35 30  1  0  0  0  0
 36 45  1  0  0  0  0
 37 31  1  0  0  0  0
 37 36  2  0  0  0  0
 38 37  1  0  0  0  0
 39 38  1  0  0  0  0
 40 38  2  0  0  0  0
 40 42  1  0  0  0  0
 41 40  1  0  0  0  0
 42 43  2  0  0  0  0
 43 36  1  0  0  0  0
 44 45  1  0  0  0  0
 45 46  2  0  0  0  0
 45 47  2  0  0  0  0
M  END
>  <minimizedAffinity>
-6.12591791

$$$$

 OpenBabel03242522093D

 47 50  0  0  1  0  0  0  0  0999 V2000
   35.5350   29.4600   40.5170 C   0  0  0  0  0  0  0  0  0  0  0  0
   36.1450   28.3160   41.0510 C   0  0  0  0  0  0  0  0  0  0  0  0
   37.5170   28.3480   41.3210 C   0  0  0  0  0  0  0  0  0  0  0  0
   38.1430   29.5120   41.0350 N   0  0  0  0  0  0  0  0  0  0  0  0
   37.5520   30.5960   40.5260 C   0  0  0  0  0  0  0  0  0  0  0  0
   36.2190   30.5600   40.2640 N   0  0  0  0  0  0  0  0  0  0  0  0
   34.4550   29.3800   40.3230 H   0  0  0  0  0  0  0  0  0  0  0  0
   35.6270   27.4120   41.2670 H   0  0  0  0  0  0  0  0  0  0  0  0
   38.2530   27.2620   41.8600 N   0  0  0  0  0  0  0  0  0  0  0  0
   38.4070   27.1140   43.2790 C   0  0  0  0  0  0  0  0  0  0  0  0
   39.5920   26.2500   43.6200 C   0  0  0  0  0  0  0  0  0  0  0  0
   39.6520   25.0150   42.9280 N   0  0  0  0  0  0  0  0  0  0  0  0
   39.1950   25.0060   41.5820 C   0  0  2  0  0  0  0  0  0  0  0  0
   38.8500   26.2970   40.9670 C   0  0  0  0  0  0  0  0  0  0  0  0
   38.5620   28.0930   43.8020 H   0  0  0  0  0  0  0  0  0  0  0  0
   37.4960   26.6520   43.7380 H   0  0  0  0  0  0  0  0  0  0  0  0
   39.5650   26.0650   44.7250 H   0  0  0  0  0  0  0  0  0  0  0  0
   40.5060   26.8660   43.4570 H   0  0  0  0  0  0  0  0  0  0  0  0
   40.6320   24.6460   43.0260 H   0  0  0  0  0  0  0  0  0  0  0  0
   39.9850   24.5250   40.9470 H   0  0  0  0  0  0  0  0  0  0  0  0
   38.1790   26.1320   40.0990 H   0  0  0  0  0  0  0  0  0  0  0  0
   39.7870   26.7570   40.5400 H   0  0  0  0  0  0  0  0  0  0  0  0
   37.9770   24.1120   41.5030 C   0  0  0  0  0  0  0  0  0  0  0  0
   38.3270   22.8880   40.9380 F   0  0  0  0  0  0  0  0  0  0  0  0
   37.1140   24.7100   40.6060 F   0  0  0  0  0  0  0  0  0  0  0  0
   37.3960   23.8660   42.7120 F   0  0  0  0  0  0  0  0  0  0  0  0
   38.3030   31.8020   40.2460 C   0  0  0  0  0  0  0  0  0  0  0  0
   37.7110   33.0300   40.3670 C   0  0  0  0  0  0  0  0  0  0  0  0
   38.4790   34.1610   40.0770 C   0  0  0  0  0  0  0  0  0  0  0  0
   39.7950   33.9360   39.6840 C   0  0  0  0  0  0  0  0  0  0  0  0
   40.3930   32.7130   39.5620 C   0  0  0  0  0  0  0  0  0  0  0  0
   39.5890   31.6670   39.8600 N   0  0  0  0  0  0  0  0  0  0  0  0
   36.6740   33.0570   40.6840 H   0  0  0  0  0  0  0  0  0  0  0  0
   37.9780   35.0850   40.1850 H   0  0  0  0  0  0  0  0  0  0  0  0
   40.2570   34.8940   39.4960 H   0  0  0  0  0  0  0  0  0  0  0  0
   42.8280   32.5940   40.0240 C   0  0  0  0  0  0  0  0  0  0  0  0
   41.7750   32.6170   39.1440 C   0  0  0  0  0  0  0  0  0  0  0  0
   42.1230   32.5410   37.8180 C   0  0  0  0  0  0  0  0  0  0  0  0
   41.4060   32.5480   37.0090 H   0  0  0  0  0  0  0  0  0  0  0  0
   43.3960   32.4490   37.3540 C   0  0  0  0  0  0  0  0  0  0  0  0
   43.6800   32.3890   36.3110 H   0  0  0  0  0  0  0  0  0  0  0  0
   44.4650   32.4250   38.2300 C   0  0  0  0  0  3  0  0  0  0  0  0
   44.1490   32.5000   39.5690 C   0  0  0  0  0  3  0  0  0  0  0  0
   41.4660   33.4460   42.0450 H   0  0  0  0  0  0  0  0  0  0  0  0
   42.5920   32.6810   41.7370 S   0  0  0  0  0  0  0  0  0  0  0  0
   43.7620   33.2150   42.4950 O   0  0  0  0  0  0  0  0  0  0  0  0
   42.2590   31.3100   42.2560 O   0  0  0  0  0  0  0  0  0  0  0  0
  1  2  1  0  0  0  0
  2  8  1  0  0  0  0
  2  3  2  0  0  0  0
  3  9  1  0  0  0  0
  4  3  1  0  0  0  0
  5  4  2  0  0  0  0
  6  1  2  0  0  0  0
  6  5  1  0  0  0  0
  7  1  1  0  0  0  0
  9 10  1  0  0  0  0
 10 11  1  0  0  0  0
 10 16  1  0  0  0  0
 10 15  1  0  0  0  0
 11 17  1  0  0  0  0
 12 19  1  0  0  0  0
 12 11  1  0  0  0  0
 13 20  1  6  0  0  0
 13 12  1  0  0  0  0
 14 13  1  0  0  0  0
 14  9  1  0  0  0  0
 18 11  1  0  0  0  0
 21 14  1  0  0  0  0
 22 14  1  0  0  0  0
 23 13  1  0  0  0  0
 23 26  1  0  0  0  0
 24 23  1  0  0  0  0
 25 23  1  0  0  0  0
 27 28  1  0  0  0  0
 27  5  1  0  0  0  0
 28 33  1  0  0  0  0
 29 34  1  0  0  0  0
 29 28  2  0  0  0  0
 30 29  1  0  0  0  0
 31 30  2  0  0  0  0
 31 32  1  0  0  0  0
 32 27  2  0  0  0  0
 35 30  1  0  0  0  0
 36 45  1  0  0  0  0
 37 31  1  0  0  0  0
 37 36  2  0  0  0  0
 38 37  1  0  0  0  0
 39 38  1  0  0  0  0
 40 38  2  0  0  0  0
 40 42  1  0  0  0  0
 41 40  1  0  0  0  0
 42 43  2  0  0  0  0
 43 36  1  0  0  0  0
 45 44  1  0  0  0  0
 45 47  2  0  0  0  0
 45 46  2  0  0  0  0
M  END
>  <minimizedAffinity>
-6.10474682

$$$$
