
 OpenBabel03242517383D

 36 38  0  0  0  0  0  0  0  0999 V2000
   44.6120   35.5560   43.3750 C   0  0  0  0  0  0  0  0  0  0  0  0
   44.0630   34.7990   42.3480 C   0  0  0  0  0  0  0  0  0  0  0  0
   44.1810   33.4330   42.4370 C   0  0  0  0  0  0  0  0  0  0  0  0
   44.8180   32.8750   43.5030 N   0  0  0  0  0  0  0  0  0  0  0  0
   45.3460   33.6270   44.4920 C   0  0  0  0  0  0  0  0  0  0  0  0
   45.2300   34.9530   44.4040 N   0  0  0  0  0  0  0  0  0  0  0  0
   44.5210   36.6320   43.3070 H   0  0  0  0  0  0  0  0  0  0  0  0
   43.7670   32.8200   41.6570 H   0  0  0  0  0  0  0  0  0  0  0  0
   47.0830   32.0950   45.3830 C   0  0  0  0  0  0  0  0  0  0  0  0
   46.0080   32.9330   45.5910 C   0  0  0  0  0  0  0  0  0  0  0  0
   45.5260   33.1380   46.8660 C   0  0  0  0  0  0  0  0  0  0  0  0
   44.6830   33.7890   47.0800 H   0  0  0  0  0  0  0  0  0  0  0  0
   46.1200   32.5020   47.9500 C   0  0  0  0  0  0  0  0  0  0  0  0
   45.7130   32.6850   48.9520 H   0  0  0  0  0  0  0  0  0  0  0  0
   47.1950   31.6590   47.7760 C   0  0  0  0  0  0  0  0  0  0  0  0
   47.6440   31.4820   46.4850 C   0  0  0  0  0  0  0  0  0  0  0  0
   46.6690   31.6400   42.9140 H   0  0  0  0  0  0  0  0  0  0  0  0
   47.7080   31.8210   43.7870 S   0  0  0  0  0  0  0  0  0  0  0  0
   48.6480   30.6480   43.7850 O   0  0  0  0  0  0  0  0  0  0  0  0
   48.4390   33.0610   43.3380 O   0  0  0  0  0  0  0  0  0  0  0  0
   43.3860   35.3870   41.2130 C   0  0  0  0  0  0  0  0  0  0  0  0
   42.1880   35.0550   40.7720 C   0  0  0  0  0  0  0  0  0  0  0  0
   41.5440   35.7060   39.5870 C   0  0  0  0  0  0  0  0  0  0  0  0
   41.3240   36.7680   39.7750 H   0  0  0  0  0  0  0  0  0  0  0  0
   42.3070   35.6620   38.7650 H   0  0  0  0  0  0  0  0  0  0  0  0
   40.3310   34.9630   39.1660 C   0  0  0  0  0  0  0  0  0  0  0  0
   40.1000   34.7610   37.8110 C   0  0  0  0  0  0  0  0  0  0  0  0
   38.9660   34.0660   37.4140 C   0  0  0  0  0  0  0  0  0  0  0  0
   38.0440   33.5620   38.3400 C   0  0  0  0  0  0  0  0  0  0  0  0
   38.2820   33.7680   39.7000 C   0  0  0  0  0  0  0  0  0  0  0  0
   39.4140   34.4610   40.0790 C   0  0  0  0  0  0  0  0  0  0  0  0
   40.7920   35.1380   37.0700 H   0  0  0  0  0  0  0  0  0  0  0  0
   38.8100   33.9230   36.3470 H   0  0  0  0  0  0  0  0  0  0  0  0
   37.1670   33.0240   38.0050 H   0  0  0  0  0  0  0  0  0  0  0  0
   37.5840   33.3890   40.4460 H   0  0  0  0  0  0  0  0  0  0  0  0
   39.5680   34.6050   41.1410 H   0  0  0  0  0  0  0  0  0  0  0  0
  1  6  1  0  0  0  0
  2  3  1  0  0  0  0
  2  1  2  0  0  0  0
  3  4  2  0  0  0  0
  4  5  1  0  0  0  0
  5 10  1  0  0  0  0
  6  5  2  0  0  0  0
  7  1  1  0  0  0  0
  8  3  1  0  0  0  0
  9 10  2  0  0  0  0
  9 16  1  0  0  0  0
 10 11  1  0  0  0  0
 11 12  1  0  0  0  0
 11 13  2  0  0  0  0
 13 14  1  0  0  0  0
 15 13  1  0  0  0  0
 16 15  2  0  0  0  0
 17 18  1  0  0  0  0
 18  9  1  0  0  0  0
 19 18  2  0  0  0  0
 20 18  2  0  0  0  0
 21  2  1  0  0  0  0
 22 21  2  0  0  0  0
 23 24  1  0  0  0  0
 23 22  1  0  0  0  0
 25 23  1  0  0  0  0
 26 23  1  0  0  0  0
 26 31  1  0  0  0  0
 27 26  2  0  0  0  0
 28 27  1  0  0  0  0
 28 29  2  0  0  0  0
 29 30  1  0  0  0  0
 30 31  2  0  0  0  0
 30 35  1  0  0  0  0
 31 36  1  0  0  0  0
 32 27  1  0  0  0  0
 33 28  1  0  0  0  0
 34 29  1  0  0  0  0
M  END
>  <minimizedAffinity>
-6.20282555

>  <minimizedRMSD>
1.22918415

$$$$
