
 OpenBabel03242513193D

 40 43  0  0  0  0  0  0  0  0999 V2000
   36.7140   27.4320   42.6990 C   0  0  0  0  0  0  0  0  0  0  0  0
   36.2040   27.4560   43.8650 O   0  0  0  0  0  0  0  0  0  0  0  0
   39.6050   28.0080   43.0560 Cl  0  0  0  0  0  0  0  0  0  0  0  0
   38.9310   26.4520   42.5550 C   0  0  0  0  0  0  0  0  0  0  0  0
   37.5770   26.3160   42.3960 C   0  0  0  0  0  0  0  0  0  0  0  0
   37.1150   25.1090   41.9820 C   0  0  0  0  0  0  0  0  0  0  0  0
   37.9630   24.0580   41.7320 C   0  0  0  0  0  0  0  0  0  0  0  0
   39.3320   24.1980   41.8950 C   0  0  0  0  0  0  0  0  0  0  0  0
   39.8060   25.4370   42.3180 C   0  0  0  0  0  0  0  0  0  0  0  0
   36.0850   24.9150   41.8300 H   0  0  0  0  0  0  0  0  0  0  0  0
   37.5900   23.0940   41.4010 H   0  0  0  0  0  0  0  0  0  0  0  0
   39.9650   23.3600   41.6920 H   0  0  0  0  0  0  0  0  0  0  0  0
   41.2630   25.4860   42.4690 C   0  0  0  0  0  0  0  0  0  0  0  0
   42.2610   25.6080   41.5130 C   0  0  0  0  0  0  0  0  0  0  0  0
   43.5160   25.6160   42.0680 C   0  0  0  0  0  0  0  0  0  0  0  0
   43.2250   25.4920   43.4180 C   0  0  0  0  0  0  0  0  0  0  0  0
   41.9390   25.4230   43.5890 O   0  0  0  0  0  0  0  0  0  0  0  0
   42.0250   25.6860   40.4380 H   0  0  0  0  0  0  0  0  0  0  0  0
   44.4710   25.6960   41.5670 H   0  0  0  0  0  0  0  0  0  0  0  0
   43.9770   25.4570   44.2230 H   0  0  0  0  0  0  0  0  0  0  0  0
   36.5900   30.7120   41.1850 C   0  0  0  0  0  0  0  0  0  0  0  0
   36.0050   30.5150   39.9310 C   0  0  0  0  0  0  0  0  0  0  0  0
   35.6450   29.2010   39.6190 C   0  0  0  0  0  0  0  0  0  0  0  0
   35.8880   28.2370   40.5480 N   0  0  0  0  0  0  0  0  0  0  0  0
   36.4450   28.4680   41.7230 C   0  0  0  0  0  0  0  0  0  0  0  0
   36.7960   29.7290   42.0350 N   0  0  0  0  0  0  0  0  0  0  0  0
   36.9230   31.6960   41.5650 H   0  0  0  0  0  0  0  0  0  0  0  0
   35.9360   31.4340   39.4200 H   0  0  0  0  0  0  0  0  0  0  0  0
   35.7540   28.9470   37.1250 C   0  0  0  0  0  0  0  0  0  0  0  0
   35.0570   29.0440   38.3030 C   0  0  0  0  0  0  0  0  0  0  0  0
   33.6950   28.9830   38.1110 C   0  0  0  0  0  0  0  0  0  0  0  0
   32.9830   29.0430   38.9210 H   0  0  0  0  0  0  0  0  0  0  0  0
   33.0810   28.8420   36.9130 C   0  0  0  0  0  0  0  0  0  0  0  0
   32.0050   28.7970   36.7980 H   0  0  0  0  0  0  0  0  0  0  0  0
   33.7960   28.7480   35.7570 C   0  0  0  0  0  3  0  0  0  0  0  0
   35.1590   28.8020   35.8760 C   0  0  0  0  0  3  0  0  0  0  0  0
   37.9520   28.3950   38.3260 H   0  0  0  0  0  0  0  0  0  0  0  0
   37.4850   28.9830   37.1520 S   0  0  0  0  0  0  0  0  0  0  0  0
   38.0520   28.1330   36.0560 O   0  0  0  0  0  0  0  0  0  0  0  0
   37.9970   30.4010   37.1450 O   0  0  0  0  0  0  0  0  0  0  0  0
  1  2  2  0  0  0  0
  4  3  1  0  0  0  0
  5  4  1  0  0  0  0
  5  1  1  0  0  0  0
  6  5  2  0  0  0  0
  7  8  2  0  0  0  0
  7  6  1  0  0  0  0
  8  9  1  0  0  0  0
  9 13  1  0  0  0  0
  9  4  2  0  0  0  0
 10  6  1  0  0  0  0
 11  7  1  0  0  0  0
 12  8  1  0  0  0  0
 13 17  1  0  0  0  0
 14 15  1  0  0  0  0
 14 13  2  0  0  0  0
 15 16  2  0  0  0  0
 16 17  1  0  0  0  0
 16 20  1  0  0  0  0
 18 14  1  0  0  0  0
 19 15  1  0  0  0  0
 21 27  1  0  0  0  0
 21 26  1  0  0  0  0
 22 21  2  0  0  0  0
 23 22  1  0  0  0  0
 23 24  2  0  0  0  0
 24 25  1  0  0  0  0
 25 26  2  0  0  0  0
 25  1  1  0  0  0  0
 28 22  1  0  0  0  0
 29 38  1  0  0  0  0
 29 30  1  0  0  0  0
 30 23  1  0  0  0  0
 31 30  2  0  0  0  0
 31 32  1  0  0  0  0
 33 31  1  0  0  0  0
 34 33  1  0  0  0  0
 35 36  1  0  0  0  0
 35 33  2  0  0  0  0
 36 29  2  0  0  0  0
 38 37  1  0  0  0  0
 39 38  2  0  0  0  0
 40 38  2  0  0  0  0
M  END
>  <minimizedAffinity>
-6.60039759

$$$$

 OpenBabel03242513193D

 40 43  0  0  0  0  0  0  0  0999 V2000
   37.6260   31.1010   38.6910 C   0  0  0  0  0  0  0  0  0  0  0  0
   37.4260   30.9990   37.4370 O   0  0  0  0  0  0  0  0  0  0  0  0
   40.5520   31.0080   38.1960 Cl  0  0  0  0  0  0  0  0  0  0  0  0
   39.6850   32.3620   38.9330 C   0  0  0  0  0  0  0  0  0  0  0  0
   38.3340   32.2750   39.1370 C   0  0  0  0  0  0  0  0  0  0  0  0
   37.7230   33.3310   39.7320 C   0  0  0  0  0  0  0  0  0  0  0  0
   38.4240   34.4480   40.1170 C   0  0  0  0  0  0  0  0  0  0  0  0
   39.7910   34.5330   39.9080 C   0  0  0  0  0  0  0  0  0  0  0  0
   40.4180   33.4500   39.2990 C   0  0  0  0  0  0  0  0  0  0  0  0
   36.6830   33.3500   39.9320 H   0  0  0  0  0  0  0  0  0  0  0  0
   37.9320   35.2910   40.5940 H   0  0  0  0  0  0  0  0  0  0  0  0
   40.3070   35.4170   40.2190 H   0  0  0  0  0  0  0  0  0  0  0  0
   41.8600   33.6350   39.1140 C   0  0  0  0  0  0  0  0  0  0  0  0
   42.5750   34.0540   38.0010 C   0  0  0  0  0  0  0  0  0  0  0  0
   43.9270   34.0980   38.2370 C   0  0  0  0  0  0  0  0  0  0  0  0
   43.9930   33.6810   39.5580 C   0  0  0  0  0  0  0  0  0  0  0  0
   42.7970   33.4330   40.0040 O   0  0  0  0  0  0  0  0  0  0  0  0
   42.0720   34.3130   37.0530 H   0  0  0  0  0  0  0  0  0  0  0  0
   44.7180   34.3830   37.5580 H   0  0  0  0  0  0  0  0  0  0  0  0
   44.9230   33.5760   40.1390 H   0  0  0  0  0  0  0  0  0  0  0  0
   35.3590   29.0760   40.6480 C   0  0  0  0  0  0  0  0  0  0  0  0
   36.1770   28.1920   41.3580 C   0  0  0  0  0  0  0  0  0  0  0  0
   37.5530   28.3180   41.1430 C   0  0  0  0  0  0  0  0  0  0  0  0
   37.9760   29.2770   40.2760 N   0  0  0  0  0  0  0  0  0  0  0  0
   37.1660   30.0930   39.6250 C   0  0  0  0  0  0  0  0  0  0  0  0
   35.8400   29.9810   39.8230 N   0  0  0  0  0  0  0  0  0  0  0  0
   34.2560   29.0910   40.7190 H   0  0  0  0  0  0  0  0  0  0  0  0
   35.5840   27.5580   41.9560 H   0  0  0  0  0  0  0  0  0  0  0  0
   38.6690   26.0970   41.4840 C   0  0  0  0  0  0  0  0  0  0  0  0
   38.3580   27.3710   41.8880 C   0  0  0  0  0  0  0  0  0  0  0  0
   38.8980   27.6750   43.1180 C   0  0  0  0  0  0  0  0  0  0  0  0
   38.7600   28.6310   43.6010 H   0  0  0  0  0  0  0  0  0  0  0  0
   39.6540   26.8380   43.8670 C   0  0  0  0  0  0  0  0  0  0  0  0
   40.0640   27.1110   44.8320 H   0  0  0  0  0  0  0  0  0  0  0  0
   39.9480   25.5780   43.4430 C   0  0  0  0  0  3  0  0  0  0  0  0
   39.4410   25.2090   42.2250 C   0  0  0  0  0  3  0  0  0  0  0  0
   37.9520   26.5980   39.0730 H   0  0  0  0  0  0  0  0  0  0  0  0
   38.1000   25.5250   39.9510 S   0  0  0  0  0  0  0  0  0  0  0  0
   39.1220   24.6450   39.2990 O   0  0  0  0  0  0  0  0  0  0  0  0
   36.7430   24.8840   40.0830 O   0  0  0  0  0  0  0  0  0  0  0  0
  1  5  1  0  0  0  0
  1 25  1  0  0  0  0
  2  1  2  0  0  0  0
  3  4  1  0  0  0  0
  4  5  2  0  0  0  0
  4  9  1  0  0  0  0
  5  6  1  0  0  0  0
  6 10  1  0  0  0  0
  6  7  2  0  0  0  0
  7 11  1  0  0  0  0
  8  7  1  0  0  0  0
  8 12  1  0  0  0  0
  9  8  2  0  0  0  0
 13  9  1  0  0  0  0
 13 17  1  0  0  0  0
 14 15  1  0  0  0  0
 14 13  2  0  0  0  0
 15 16  2  0  0  0  0
 16 17  1  0  0  0  0
 16 20  1  0  0  0  0
 18 14  1  0  0  0  0
 19 15  1  0  0  0  0
 21 27  1  0  0  0  0
 21 22  1  0  0  0  0
 22 28  1  0  0  0  0
 23 22  2  0  0  0  0
 23 30  1  0  0  0  0
 24 23  1  0  0  0  0
 25 26  1  0  0  0  0
 25 24  2  0  0  0  0
 26 21  2  0  0  0  0
 29 30  2  0  0  0  0
 29 36  1  0  0  0  0
 30 31  1  0  0  0  0
 31 32  1  0  0  0  0
 31 33  2  0  0  0  0
 33 34  1  0  0  0  0
 35 33  1  0  0  0  0
 36 35  2  0  0  0  0
 37 38  1  0  0  0  0
 38 40  2  0  0  0  0
 38 29  1  0  0  0  0
 39 38  2  0  0  0  0
M  END
>  <minimizedAffinity>
-6.41254425

$$$$

 OpenBabel03242513193D

 40 43  0  0  0  0  0  0  0  0999 V2000
   35.8170   28.4870   37.4320 C   0  0  0  0  0  0  0  0  0  0  0  0
   36.8230   28.0590   36.7790 O   0  0  0  0  0  0  0  0  0  0  0  0
   37.3270   31.0380   37.2630 Cl  0  0  0  0  0  0  0  0  0  0  0  0
   36.7540   30.2900   38.7600 C   0  0  0  0  0  0  0  0  0  0  0  0
   36.0910   29.0930   38.7120 C   0  0  0  0  0  0  0  0  0  0  0  0
   35.6990   28.5490   39.8920 C   0  0  0  0  0  0  0  0  0  0  0  0
   35.9500   29.1680   41.0920 C   0  0  0  0  0  0  0  0  0  0  0  0
   36.6200   30.3810   41.1370 C   0  0  0  0  0  0  0  0  0  0  0  0
   37.0230   30.9380   39.9260 C   0  0  0  0  0  0  0  0  0  0  0  0
   35.1840   27.6250   39.9500 H   0  0  0  0  0  0  0  0  0  0  0  0
   35.6350   28.7300   42.0340 H   0  0  0  0  0  0  0  0  0  0  0  0
   36.7990   30.8370   42.0870 H   0  0  0  0  0  0  0  0  0  0  0  0
   37.7150   32.2220   40.0740 C   0  0  0  0  0  0  0  0  0  0  0  0
   37.3420   33.4940   39.6660 C   0  0  0  0  0  0  0  0  0  0  0  0
   38.2770   34.4420   39.9990 C   0  0  0  0  0  0  0  0  0  0  0  0
   39.2410   33.6730   40.6320 C   0  0  0  0  0  0  0  0  0  0  0  0
   38.8730   32.4270   40.6480 O   0  0  0  0  0  0  0  0  0  0  0  0
   36.3910   33.6770   39.1370 H   0  0  0  0  0  0  0  0  0  0  0  0
   38.2520   35.5060   39.8070 H   0  0  0  0  0  0  0  0  0  0  0  0
   40.1790   34.0650   41.0580 H   0  0  0  0  0  0  0  0  0  0  0  0
   32.9590   27.1400   35.6750 C   0  0  0  0  0  0  0  0  0  0  0  0
   31.9210   28.0440   35.9170 C   0  0  0  0  0  0  0  0  0  0  0  0
   32.2400   29.1500   36.7100 C   0  0  0  0  0  0  0  0  0  0  0  0
   33.5140   29.2550   37.1730 N   0  0  0  0  0  0  0  0  0  0  0  0
   34.4660   28.3750   36.9200 C   0  0  0  0  0  0  0  0  0  0  0  0
   34.1720   27.3060   36.1580 N   0  0  0  0  0  0  0  0  0  0  0  0
   32.8530   26.2230   35.0660 H   0  0  0  0  0  0  0  0  0  0  0  0
   31.0430   27.7160   35.4360 H   0  0  0  0  0  0  0  0  0  0  0  0
   30.6980   31.0280   36.0820 C   0  0  0  0  0  0  0  0  0  0  0  0
   31.1280   30.0500   36.9440 C   0  0  0  0  0  0  0  0  0  0  0  0
   30.3800   30.0070   38.0990 C   0  0  0  0  0  0  0  0  0  0  0  0
   30.5690   29.3050   38.8970 H   0  0  0  0  0  0  0  0  0  0  0  0
   29.3340   30.8200   38.3830 C   0  0  0  0  0  0  0  0  0  0  0  0
   28.7660   30.7580   39.3040 H   0  0  0  0  0  0  0  0  0  0  0  0
   28.9270   31.7820   37.5100 C   0  0  0  0  0  3  0  0  0  0  0  0
   29.6300   31.8800   36.3380 C   0  0  0  0  0  3  0  0  0  0  0  0
   32.8160   30.7930   34.6550 H   0  0  0  0  0  0  0  0  0  0  0  0
   31.4970   31.2330   34.5590 S   0  0  0  0  0  0  0  0  0  0  0  0
   30.8840   30.3530   33.5130 O   0  0  0  0  0  0  0  0  0  0  0  0
   31.5540   32.6880   34.1690 O   0  0  0  0  0  0  0  0  0  0  0  0
  1  5  1  0  0  0  0
  2  1  2  0  0  0  0
  3  4  1  0  0  0  0
  4  9  1  0  0  0  0
  5  4  2  0  0  0  0
  5  6  1  0  0  0  0
  6 10  1  0  0  0  0
  6  7  2  0  0  0  0
  7  8  1  0  0  0  0
  7 11  1  0  0  0  0
  8 12  1  0  0  0  0
  9 13  1  0  0  0  0
  9  8  2  0  0  0  0
 13 17  1  0  0  0  0
 14 15  1  0  0  0  0
 14 13  2  0  0  0  0
 15 16  2  0  0  0  0
 16 17  1  0  0  0  0
 16 20  1  0  0  0  0
 18 14  1  0  0  0  0
 19 15  1  0  0  0  0
 21 22  2  0  0  0  0
 21 26  1  0  0  0  0
 22 23  1  0  0  0  0
 23 30  1  0  0  0  0
 23 24  2  0  0  0  0
 25 24  1  0  0  0  0
 25  1  1  0  0  0  0
 26 25  2  0  0  0  0
 27 21  1  0  0  0  0
 28 22  1  0  0  0  0
 29 36  2  0  0  0  0
 29 30  1  0  0  0  0
 30 31  2  0  0  0  0
 31 33  1  0  0  0  0
 31 32  1  0  0  0  0
 33 34  1  0  0  0  0
 35 33  2  0  0  0  0
 36 35  1  0  0  0  0
 38 37  1  0  0  0  0
 38 29  1  0  0  0  0
 39 38  2  0  0  0  0
 40 38  2  0  0  0  0
M  END
>  <minimizedAffinity>
-6.3856678

$$$$

 OpenBabel03242513193D

 40 43  0  0  0  0  0  0  0  0999 V2000
   37.4990   30.2390   38.1520 C   0  0  0  0  0  0  0  0  0  0  0  0
   37.1390   30.3440   36.9350 O   0  0  0  0  0  0  0  0  0  0  0  0
   40.3700   30.7390   37.5830 Cl  0  0  0  0  0  0  0  0  0  0  0  0
   39.3270   31.7840   38.5560 C   0  0  0  0  0  0  0  0  0  0  0  0
   38.0220   31.4320   38.7730 C   0  0  0  0  0  0  0  0  0  0  0  0
   37.2740   32.2540   39.5510 C   0  0  0  0  0  0  0  0  0  0  0  0
   37.7960   33.3990   40.1020 C   0  0  0  0  0  0  0  0  0  0  0  0
   39.1170   33.7540   39.8800 C   0  0  0  0  0  0  0  0  0  0  0  0
   39.8840   32.9090   39.0830 C   0  0  0  0  0  0  0  0  0  0  0  0
   36.2570   32.0590   39.7740 H   0  0  0  0  0  0  0  0  0  0  0  0
   37.1940   34.0550   40.7250 H   0  0  0  0  0  0  0  0  0  0  0  0
   39.4920   34.6520   40.3240 H   0  0  0  0  0  0  0  0  0  0  0  0
   41.2630   33.3710   38.8990 C   0  0  0  0  0  0  0  0  0  0  0  0
   42.3440   33.3360   39.7680 C   0  0  0  0  0  0  0  0  0  0  0  0
   43.4780   33.8730   39.2100 C   0  0  0  0  0  0  0  0  0  0  0  0
   43.0240   34.2370   37.9510 C   0  0  0  0  0  0  0  0  0  0  0  0
   41.7670   33.9300   37.8280 O   0  0  0  0  0  0  0  0  0  0  0  0
   42.2570   32.9150   40.7840 H   0  0  0  0  0  0  0  0  0  0  0  0
   44.4580   33.9790   39.6530 H   0  0  0  0  0  0  0  0  0  0  0  0
   43.6410   34.7160   37.1740 H   0  0  0  0  0  0  0  0  0  0  0  0
   36.2380   27.0070   39.1670 C   0  0  0  0  0  0  0  0  0  0  0  0
   37.1040   26.5780   40.1780 C   0  0  0  0  0  0  0  0  0  0  0  0
   38.1460   27.4480   40.5070 C   0  0  0  0  0  0  0  0  0  0  0  0
   38.2310   28.6240   39.8300 N   0  0  0  0  0  0  0  0  0  0  0  0
   37.3910   28.9910   38.8800 C   0  0  0  0  0  0  0  0  0  0  0  0
   36.3830   28.1610   38.5530 N   0  0  0  0  0  0  0  0  0  0  0  0
   35.3720   26.4240   38.8050 H   0  0  0  0  0  0  0  0  0  0  0  0
   36.8020   25.6300   40.5280 H   0  0  0  0  0  0  0  0  0  0  0  0
   38.8940   27.2110   42.8910 C   0  0  0  0  0  0  0  0  0  0  0  0
   39.0240   26.9530   41.5490 C   0  0  0  0  0  0  0  0  0  0  0  0
   40.1110   26.1540   41.2750 C   0  0  0  0  0  0  0  0  0  0  0  0
   40.3760   25.8440   40.2750 H   0  0  0  0  0  0  0  0  0  0  0  0
   40.9710   25.6620   42.1970 C   0  0  0  0  0  0  0  0  0  0  0  0
   41.8180   25.0340   41.9450 H   0  0  0  0  0  0  0  0  0  0  0  0
   40.8200   25.9330   43.5230 C   0  0  0  0  0  3  0  0  0  0  0  0
   39.7560   26.7240   43.8670 C   0  0  0  0  0  3  0  0  0  0  0  0
   37.7560   28.5030   44.7930 H   0  0  0  0  0  0  0  0  0  0  0  0
   37.5740   28.1850   43.4480 S   0  0  0  0  0  0  0  0  0  0  0  0
   37.5580   29.5100   42.7490 O   0  0  0  0  0  0  0  0  0  0  0  0
   36.2710   27.4340   43.3540 O   0  0  0  0  0  0  0  0  0  0  0  0
  1  5  1  0  0  0  0
  1 25  1  0  0  0  0
  2  1  2  0  0  0  0
  3  4  1  0  0  0  0
  4  5  2  0  0  0  0
  4  9  1  0  0  0  0
  5  6  1  0  0  0  0
  6 10  1  0  0  0  0
  6  7  2  0  0  0  0
  7 11  1  0  0  0  0
  8  7  1  0  0  0  0
  8 12  1  0  0  0  0
  9  8  2  0  0  0  0
 13  9  1  0  0  0  0
 13 14  2  0  0  0  0
 14 18  1  0  0  0  0
 15 19  1  0  0  0  0
 15 14  1  0  0  0  0
 16 15  2  0  0  0  0
 17 16  1  0  0  0  0
 17 13  1  0  0  0  0
 20 16  1  0  0  0  0
 21 22  1  0  0  0  0
 22 23  2  0  0  0  0
 22 28  1  0  0  0  0
 23 30  1  0  0  0  0
 24 23  1  0  0  0  0
 25 24  2  0  0  0  0
 26 25  1  0  0  0  0
 26 21  2  0  0  0  0
 27 21  1  0  0  0  0
 29 38  1  0  0  0  0
 29 36  1  0  0  0  0
 30 29  2  0  0  0  0
 31 30  1  0  0  0  0
 31 33  2  0  0  0  0
 32 31  1  0  0  0  0
 33 35  1  0  0  0  0
 34 33  1  0  0  0  0
 35 36  2  0  0  0  0
 38 37  1  0  0  0  0
 39 38  2  0  0  0  0
 40 38  2  0  0  0  0
M  END
>  <minimizedAffinity>
-6.27378511

$$$$

 OpenBabel03242513193D

 40 43  0  0  0  0  0  0  0  0999 V2000
   36.9940   27.6800   42.7690 C   0  0  0  0  0  0  0  0  0  0  0  0
   36.2000   27.5610   43.7570 O   0  0  0  0  0  0  0  0  0  0  0  0
   36.5800   25.6440   40.6480 Cl  0  0  0  0  0  0  0  0  0  0  0  0
   37.9910   25.7360   41.7100 C   0  0  0  0  0  0  0  0  0  0  0  0
   38.0540   26.7070   42.6740 C   0  0  0  0  0  0  0  0  0  0  0  0
   39.1460   26.7150   43.4810 C   0  0  0  0  0  0  0  0  0  0  0  0
   40.1530   25.7910   43.3430 C   0  0  0  0  0  0  0  0  0  0  0  0
   40.0860   24.8110   42.3660 C   0  0  0  0  0  0  0  0  0  0  0  0
   38.9660   24.8020   41.5390 C   0  0  0  0  0  0  0  0  0  0  0  0
   39.2770   27.4270   44.2540 H   0  0  0  0  0  0  0  0  0  0  0  0
   41.0240   25.8010   43.9910 H   0  0  0  0  0  0  0  0  0  0  0  0
   40.8870   24.1070   42.2850 H   0  0  0  0  0  0  0  0  0  0  0  0
   38.9880   23.7360   40.5340 C   0  0  0  0  0  0  0  0  0  0  0  0
   39.5920   23.6930   39.2850 C   0  0  0  0  0  0  0  0  0  0  0  0
   39.3760   22.4980   38.6450 C   0  0  0  0  0  0  0  0  0  0  0  0
   38.6060   21.8170   39.5750 C   0  0  0  0  0  0  0  0  0  0  0  0
   38.4170   22.5610   40.6230 O   0  0  0  0  0  0  0  0  0  0  0  0
   40.1700   24.5460   38.8920 H   0  0  0  0  0  0  0  0  0  0  0  0
   39.7230   22.1880   37.6680 H   0  0  0  0  0  0  0  0  0  0  0  0
   38.2140   20.7950   39.4410 H   0  0  0  0  0  0  0  0  0  0  0  0
   35.4730   29.7470   40.2220 C   0  0  0  0  0  0  0  0  0  0  0  0
   36.4340   30.7160   39.9160 C   0  0  0  0  0  0  0  0  0  0  0  0
   37.6390   30.6320   40.6180 C   0  0  0  0  0  0  0  0  0  0  0  0
   37.7780   29.6300   41.5270 N   0  0  0  0  0  0  0  0  0  0  0  0
   36.8430   28.7350   41.7860 C   0  0  0  0  0  0  0  0  0  0  0  0
   35.6770   28.8050   41.1170 N   0  0  0  0  0  0  0  0  0  0  0  0
   34.4770   29.6910   39.7470 H   0  0  0  0  0  0  0  0  0  0  0  0
   36.0600   31.3670   39.1750 H   0  0  0  0  0  0  0  0  0  0  0  0
   39.6620   31.5150   39.4240 C   0  0  0  0  0  0  0  0  0  0  0  0
   38.5960   31.6660   40.2760 C   0  0  0  0  0  0  0  0  0  0  0  0
   38.5220   32.9370   40.7990 C   0  0  0  0  0  0  0  0  0  0  0  0
   37.7510   33.2450   41.4900 H   0  0  0  0  0  0  0  0  0  0  0  0
   39.3840   33.9450   40.5260 C   0  0  0  0  0  0  0  0  0  0  0  0
   39.2950   34.9360   40.9560 H   0  0  0  0  0  0  0  0  0  0  0  0
   40.4340   33.7700   39.6770 C   0  0  0  0  0  3  0  0  0  0  0  0
   40.5670   32.5260   39.1190 C   0  0  0  0  0  3  0  0  0  0  0  0
   39.6200   28.9520   39.5230 H   0  0  0  0  0  0  0  0  0  0  0  0
   39.9210   29.9910   38.6430 S   0  0  0  0  0  0  0  0  0  0  0  0
   38.9640   29.8060   37.5060 O   0  0  0  0  0  0  0  0  0  0  0  0
   41.3670   29.8220   38.2530 O   0  0  0  0  0  0  0  0  0  0  0  0
  1  2  2  0  0  0  0
  3  4  1  0  0  0  0
  4  5  1  0  0  0  0
  5  1  1  0  0  0  0
  5  6  2  0  0  0  0
  6 10  1  0  0  0  0
  7  6  1  0  0  0  0
  7 11  1  0  0  0  0
  8  7  2  0  0  0  0
  9  4  2  0  0  0  0
  9  8  1  0  0  0  0
 12  8  1  0  0  0  0
 13 17  1  0  0  0  0
 13  9  1  0  0  0  0
 14 13  2  0  0  0  0
 15 14  1  0  0  0  0
 15 16  2  0  0  0  0
 16 17  1  0  0  0  0
 18 14  1  0  0  0  0
 19 15  1  0  0  0  0
 20 16  1  0  0  0  0
 21 26  1  0  0  0  0
 22 21  2  0  0  0  0
 22 23  1  0  0  0  0
 23 24  2  0  0  0  0
 24 25  1  0  0  0  0
 25  1  1  0  0  0  0
 26 25  2  0  0  0  0
 27 21  1  0  0  0  0
 28 22  1  0  0  0  0
 29 30  1  0  0  0  0
 30 23  1  0  0  0  0
 30 31  2  0  0  0  0
 31 32  1  0  0  0  0
 33 31  1  0  0  0  0
 33 34  1  0  0  0  0
 35 33  2  0  0  0  0
 36 29  2  0  0  0  0
 36 35  1  0  0  0  0
 38 29  1  0  0  0  0
 38 37  1  0  0  0  0
 39 38  2  0  0  0  0
 40 38  2  0  0  0  0
M  END
>  <minimizedAffinity>
-6.17205667

$$$$

 OpenBabel03242513193D

 40 43  0  0  0  0  0  0  0  0999 V2000
   37.0490   27.3710   39.8240 C   0  0  0  0  0  0  0  0  0  0  0  0
   36.6040   26.2920   39.3150 O   0  0  0  0  0  0  0  0  0  0  0  0
   39.9570   26.9160   40.2070 Cl  0  0  0  0  0  0  0  0  0  0  0  0
   38.7800   27.1360   41.5090 C   0  0  0  0  0  0  0  0  0  0  0  0
   37.4560   27.3090   41.2060 C   0  0  0  0  0  0  0  0  0  0  0  0
   36.5920   27.4440   42.2440 C   0  0  0  0  0  0  0  0  0  0  0  0
   37.0190   27.4120   43.5490 C   0  0  0  0  0  0  0  0  0  0  0  0
   38.3600   27.2370   43.8510 C   0  0  0  0  0  0  0  0  0  0  0  0
   39.2460   27.0970   42.7870 C   0  0  0  0  0  0  0  0  0  0  0  0
   35.5510   27.5800   42.1040 H   0  0  0  0  0  0  0  0  0  0  0  0
   36.3240   27.5200   44.3760 H   0  0  0  0  0  0  0  0  0  0  0  0
   38.6600   27.2170   44.8780 H   0  0  0  0  0  0  0  0  0  0  0  0
   40.6410   26.9260   43.2050 C   0  0  0  0  0  0  0  0  0  0  0  0
   41.6550   27.8610   43.3510 C   0  0  0  0  0  0  0  0  0  0  0  0
   42.8320   27.2910   43.7680 C   0  0  0  0  0  0  0  0  0  0  0  0
   42.4750   25.9550   43.8670 C   0  0  0  0  0  0  0  0  0  0  0  0
   41.2270   25.8040   43.5380 O   0  0  0  0  0  0  0  0  0  0  0  0
   41.4900   28.9320   43.1440 H   0  0  0  0  0  0  0  0  0  0  0  0
   43.7800   27.7740   43.9620 H   0  0  0  0  0  0  0  0  0  0  0  0
   43.1540   25.1440   44.1790 H   0  0  0  0  0  0  0  0  0  0  0  0
   36.5790   29.7250   37.1210 C   0  0  0  0  0  0  0  0  0  0  0  0
   37.2360   30.8890   37.5310 C   0  0  0  0  0  0  0  0  0  0  0  0
   37.8590   30.8370   38.7810 C   0  0  0  0  0  0  0  0  0  0  0  0
   37.7770   29.6760   39.4850 N   0  0  0  0  0  0  0  0  0  0  0  0
   37.1440   28.5980   39.0600 C   0  0  0  0  0  0  0  0  0  0  0  0
   36.5400   28.6350   37.8570 N   0  0  0  0  0  0  0  0  0  0  0  0
   36.0450   29.6210   36.1590 H   0  0  0  0  0  0  0  0  0  0  0  0
   37.1400   31.6320   36.7900 H   0  0  0  0  0  0  0  0  0  0  0  0
   39.8410   32.3620   38.9780 C   0  0  0  0  0  0  0  0  0  0  0  0
   38.5130   32.0710   39.1680 C   0  0  0  0  0  0  0  0  0  0  0  0
   37.8370   33.0970   39.7880 C   0  0  0  0  0  0  0  0  0  0  0  0
   36.7840   33.0510   40.0230 H   0  0  0  0  0  0  0  0  0  0  0  0
   38.3880   34.2710   40.1790 C   0  0  0  0  0  0  0  0  0  0  0  0
   37.8250   35.0590   40.6650 H   0  0  0  0  0  0  0  0  0  0  0  0
   39.7080   34.5360   39.9790 C   0  0  0  0  0  3  0  0  0  0  0  0
   40.4420   33.5550   39.3650 C   0  0  0  0  0  3  0  0  0  0  0  0
   40.1120   30.1020   37.7950 H   0  0  0  0  0  0  0  0  0  0  0  0
   40.8650   31.2060   38.1930 S   0  0  0  0  0  0  0  0  0  0  0  0
   41.4150   31.7630   36.9160 O   0  0  0  0  0  0  0  0  0  0  0  0
   41.9220   30.6920   39.1350 O   0  0  0  0  0  0  0  0  0  0  0  0
  1  5  1  0  0  0  0
  2  1  2  0  0  0  0
  3  4  1  0  0  0  0
  4  9  1  0  0  0  0
  5  4  2  0  0  0  0
  5  6  1  0  0  0  0
  6  7  2  0  0  0  0
  7  8  1  0  0  0  0
  7 11  1  0  0  0  0
  8 12  1  0  0  0  0
  9 13  1  0  0  0  0
  9  8  2  0  0  0  0
 10  6  1  0  0  0  0
 13 14  2  0  0  0  0
 13 17  1  0  0  0  0
 14 15  1  0  0  0  0
 15 16  2  0  0  0  0
 15 19  1  0  0  0  0
 16 20  1  0  0  0  0
 17 16  1  0  0  0  0
 18 14  1  0  0  0  0
 21 22  2  0  0  0  0
 21 26  1  0  0  0  0
 22 23  1  0  0  0  0
 23 30  1  0  0  0  0
 23 24  2  0  0  0  0
 25 24  1  0  0  0  0
 25  1  1  0  0  0  0
 26 25  2  0  0  0  0
 27 21  1  0  0  0  0
 28 22  1  0  0  0  0
 29 30  2  0  0  0  0
 29 36  1  0  0  0  0
 30 31  1  0  0  0  0
 31 32  1  0  0  0  0
 31 33  2  0  0  0  0
 33 34  1  0  0  0  0
 35 33  1  0  0  0  0
 36 35  2  0  0  0  0
 37 38  1  0  0  0  0
 38 29  1  0  0  0  0
 38 40  2  0  0  0  0
 39 38  2  0  0  0  0
M  END
>  <minimizedAffinity>
-6.16743803

$$$$

 OpenBabel03242513193D

 40 43  0  0  0  0  0  0  0  0999 V2000
   37.5380   31.0820   39.2260 C   0  0  0  0  0  0  0  0  0  0  0  0
   36.9570   31.0220   38.0950 O   0  0  0  0  0  0  0  0  0  0  0  0
   40.3990   30.8410   38.4680 Cl  0  0  0  0  0  0  0  0  0  0  0  0
   39.6440   32.2880   39.1490 C   0  0  0  0  0  0  0  0  0  0  0  0
   38.3170   32.2680   39.4870 C   0  0  0  0  0  0  0  0  0  0  0  0
   37.7950   33.3960   40.0330 C   0  0  0  0  0  0  0  0  0  0  0  0
   38.5590   34.5180   40.2400 C   0  0  0  0  0  0  0  0  0  0  0  0
   39.9010   34.5360   39.8950 C   0  0  0  0  0  0  0  0  0  0  0  0
   40.4360   33.3780   39.3370 C   0  0  0  0  0  0  0  0  0  0  0  0
   36.7800   33.4700   40.3270 H   0  0  0  0  0  0  0  0  0  0  0  0
   38.1370   35.4190   40.6770 H   0  0  0  0  0  0  0  0  0  0  0  0
   40.4680   35.4260   40.0690 H   0  0  0  0  0  0  0  0  0  0  0  0
   41.8580   33.4950   38.9990 C   0  0  0  0  0  0  0  0  0  0  0  0
   42.9660   33.6430   39.8210 C   0  0  0  0  0  0  0  0  0  0  0  0
   44.1370   33.7150   39.1070 C   0  0  0  0  0  0  0  0  0  0  0  0
   43.6770   33.6020   37.8040 C   0  0  0  0  0  0  0  0  0  0  0  0
   42.3830   33.4790   37.8000 O   0  0  0  0  0  0  0  0  0  0  0  0
   42.8700   33.6940   40.9180 H   0  0  0  0  0  0  0  0  0  0  0  0
   45.1450   33.8320   39.4810 H   0  0  0  0  0  0  0  0  0  0  0  0
   44.3180   33.6150   36.9070 H   0  0  0  0  0  0  0  0  0  0  0  0
   37.3620   29.4400   42.4420 C   0  0  0  0  0  0  0  0  0  0  0  0
   37.1940   28.0830   42.1510 C   0  0  0  0  0  0  0  0  0  0  0  0
   37.1480   27.7440   40.7960 C   0  0  0  0  0  0  0  0  0  0  0  0
   37.2690   28.7470   39.8850 N   0  0  0  0  0  0  0  0  0  0  0  0
   37.4260   30.0190   40.2040 C   0  0  0  0  0  0  0  0  0  0  0  0
   37.4720   30.3580   41.5060 N   0  0  0  0  0  0  0  0  0  0  0  0
   37.4170   29.8520   43.4660 H   0  0  0  0  0  0  0  0  0  0  0  0
   37.1300   27.5310   43.0470 H   0  0  0  0  0  0  0  0  0  0  0  0
   36.5690   25.7760   39.3510 C   0  0  0  0  0  0  0  0  0  0  0  0
   36.9580   26.3300   40.5450 C   0  0  0  0  0  0  0  0  0  0  0  0
   37.1530   25.3790   41.5220 C   0  0  0  0  0  0  0  0  0  0  0  0
   37.4610   25.6230   42.5280 H   0  0  0  0  0  0  0  0  0  0  0  0
   36.9900   24.0450   41.3570 C   0  0  0  0  0  0  0  0  0  0  0  0
   37.1530   23.3230   42.1490 H   0  0  0  0  0  0  0  0  0  0  0  0
   36.6030   23.5210   40.1610 C   0  0  0  0  0  3  0  0  0  0  0  0
   36.3910   24.4130   39.1430 C   0  0  0  0  0  3  0  0  0  0  0  0
   36.9600   28.0140   38.1600 H   0  0  0  0  0  0  0  0  0  0  0  0
   36.2910   26.8040   37.9850 S   0  0  0  0  0  0  0  0  0  0  0  0
   36.8950   26.2180   36.7460 O   0  0  0  0  0  0  0  0  0  0  0  0
   34.8270   27.1360   37.8470 O   0  0  0  0  0  0  0  0  0  0  0  0
  1  5  1  0  0  0  0
  1 25  1  0  0  0  0
  2  1  2  0  0  0  0
  3  4  1  0  0  0  0
  4  9  2  0  0  0  0
  4  5  1  0  0  0  0
  5  6  2  0  0  0  0
  6  7  1  0  0  0  0
  6 10  1  0  0  0  0
  7 11  1  0  0  0  0
  8 12  1  0  0  0  0
  8  7  2  0  0  0  0
  9  8  1  0  0  0  0
 13  9  1  0  0  0  0
 13 14  2  0  0  0  0
 14 18  1  0  0  0  0
 15 19  1  0  0  0  0
 15 14  1  0  0  0  0
 16 15  2  0  0  0  0
 17 16  1  0  0  0  0
 17 13  1  0  0  0  0
 20 16  1  0  0  0  0
 21 27  1  0  0  0  0
 22 21  1  0  0  0  0
 22 28  1  0  0  0  0
 23 22  2  0  0  0  0
 24 25  2  0  0  0  0
 24 23  1  0  0  0  0
 25 26  1  0  0  0  0
 26 21  2  0  0  0  0
 29 30  1  0  0  0  0
 30 23  1  0  0  0  0
 30 31  2  0  0  0  0
 31 32  1  0  0  0  0
 33 31  1  0  0  0  0
 33 34  1  0  0  0  0
 35 33  2  0  0  0  0
 36 29  2  0  0  0  0
 36 35  1  0  0  0  0
 38 37  1  0  0  0  0
 38 29  1  0  0  0  0
 39 38  2  0  0  0  0
 40 38  2  0  0  0  0
M  END
>  <minimizedAffinity>
-6.10312033

$$$$

 OpenBabel03242513193D

 40 43  0  0  0  0  0  0  0  0999 V2000
   37.1210   27.7550   42.7840 C   0  0  0  0  0  0  0  0  0  0  0  0
   36.4770   27.9390   43.8670 O   0  0  0  0  0  0  0  0  0  0  0  0
   38.9860   30.0650   42.7460 Cl  0  0  0  0  0  0  0  0  0  0  0  0
   37.6870   29.7840   41.5790 C   0  0  0  0  0  0  0  0  0  0  0  0
   36.8710   28.6940   41.7180 C   0  0  0  0  0  0  0  0  0  0  0  0
   35.8720   28.5420   40.8120 C   0  0  0  0  0  0  0  0  0  0  0  0
   35.6810   29.4400   39.7910 C   0  0  0  0  0  0  0  0  0  0  0  0
   36.5100   30.5420   39.6510 C   0  0  0  0  0  0  0  0  0  0  0  0
   37.5330   30.6980   40.5820 C   0  0  0  0  0  0  0  0  0  0  0  0
   35.1920   27.7310   40.8440 H   0  0  0  0  0  0  0  0  0  0  0  0
   34.8800   29.3150   39.0670 H   0  0  0  0  0  0  0  0  0  0  0  0
   36.3340   31.2220   38.8450 H   0  0  0  0  0  0  0  0  0  0  0  0
   38.3600   31.8850   40.3490 C   0  0  0  0  0  0  0  0  0  0  0  0
   38.0410   33.2330   40.4400 C   0  0  0  0  0  0  0  0  0  0  0  0
   39.1100   34.0410   40.1390 C   0  0  0  0  0  0  0  0  0  0  0  0
   40.0960   33.1080   39.8600 C   0  0  0  0  0  0  0  0  0  0  0  0
   39.6200   31.9070   39.9940 O   0  0  0  0  0  0  0  0  0  0  0  0
   37.0310   33.5710   40.7250 H   0  0  0  0  0  0  0  0  0  0  0  0
   39.1500   35.1220   40.1270 H   0  0  0  0  0  0  0  0  0  0  0  0
   41.1300   33.3540   39.5680 H   0  0  0  0  0  0  0  0  0  0  0  0
   39.9290   25.5760   43.4430 C   0  0  0  0  0  0  0  0  0  0  0  0
   39.8820   24.6040   42.4400 C   0  0  0  0  0  0  0  0  0  0  0  0
   38.8420   24.7250   41.5140 C   0  0  0  0  0  0  0  0  0  0  0  0
   37.9760   25.7630   41.6610 N   0  0  0  0  0  0  0  0  0  0  0  0
   38.0580   26.6610   42.6260 C   0  0  0  0  0  0  0  0  0  0  0  0
   39.0540   26.5550   43.5240 N   0  0  0  0  0  0  0  0  0  0  0  0
   40.6940   25.6060   44.2410 H   0  0  0  0  0  0  0  0  0  0  0  0
   40.6750   23.9210   42.5660 H   0  0  0  0  0  0  0  0  0  0  0  0
   39.5260   23.7120   39.3220 C   0  0  0  0  0  0  0  0  0  0  0  0
   38.8260   23.6860   40.5030 C   0  0  0  0  0  0  0  0  0  0  0  0
   38.0750   22.5400   40.6390 C   0  0  0  0  0  0  0  0  0  0  0  0
   37.4570   22.3420   41.5020 H   0  0  0  0  0  0  0  0  0  0  0  0
   38.0120   21.5360   39.7330 C   0  0  0  0  0  0  0  0  0  0  0  0
   37.4090   20.6460   39.8730 H   0  0  0  0  0  0  0  0  0  0  0  0
   38.7160   21.5860   38.5690 C   0  0  0  0  0  3  0  0  0  0  0  0
   39.4870   22.7000   38.3690 C   0  0  0  0  0  3  0  0  0  0  0  0
   40.3060   26.0920   39.8740 H   0  0  0  0  0  0  0  0  0  0  0  0
   40.5510   25.0630   38.9670 S   0  0  0  0  0  0  0  0  0  0  0  0
   41.9910   24.7090   39.1820 O   0  0  0  0  0  0  0  0  0  0  0  0
   40.2610   25.6160   37.5960 O   0  0  0  0  0  0  0  0  0  0  0  0
  1  2  2  0  0  0  0
  4  5  1  0  0  0  0
  4  3  1  0  0  0  0
  5  1  1  0  0  0  0
  6 10  1  0  0  0  0
  6  5  2  0  0  0  0
  7  6  1  0  0  0  0
  8  7  2  0  0  0  0
  8  9  1  0  0  0  0
  9  4  2  0  0  0  0
 11  7  1  0  0  0  0
 12  8  1  0  0  0  0
 13 14  2  0  0  0  0
 13  9  1  0  0  0  0
 14 18  1  0  0  0  0
 15 14  1  0  0  0  0
 16 17  1  0  0  0  0
 16 15  2  0  0  0  0
 17 13  1  0  0  0  0
 19 15  1  0  0  0  0
 20 16  1  0  0  0  0
 21 26  1  0  0  0  0
 21 27  1  0  0  0  0
 22 28  1  0  0  0  0
 22 21  2  0  0  0  0
 23 24  2  0  0  0  0
 23 22  1  0  0  0  0
 24 25  1  0  0  0  0
 25  1  1  0  0  0  0
 25 26  2  0  0  0  0
 29 30  1  0  0  0  0
 30 31  2  0  0  0  0
 30 23  1  0  0  0  0
 31 32  1  0  0  0  0
 33 34  1  0  0  0  0
 33 31  1  0  0  0  0
 35 33  2  0  0  0  0
 36 35  1  0  0  0  0
 36 29  2  0  0  0  0
 38 39  2  0  0  0  0
 38 29  1  0  0  0  0
 38 37  1  0  0  0  0
 40 38  2  0  0  0  0
M  END
>  <minimizedAffinity>
-6.09751034

$$$$

 OpenBabel03242513193D

 40 43  0  0  0  0  0  0  0  0999 V2000
   37.4490   28.0070   42.7700 C   0  0  0  0  0  0  0  0  0  0  0  0
   36.8100   28.1060   43.8670 O   0  0  0  0  0  0  0  0  0  0  0  0
   39.1970   30.4070   42.7310 Cl  0  0  0  0  0  0  0  0  0  0  0  0
   37.8710   30.0940   41.6040 C   0  0  0  0  0  0  0  0  0  0  0  0
   37.1140   28.9610   41.7420 C   0  0  0  0  0  0  0  0  0  0  0  0
   36.0900   28.7850   40.8680 C   0  0  0  0  0  0  0  0  0  0  0  0
   35.8180   29.7000   39.8810 C   0  0  0  0  0  0  0  0  0  0  0  0
   36.5860   30.8450   39.7430 C   0  0  0  0  0  0  0  0  0  0  0  0
   37.6360   31.0260   40.6400 C   0  0  0  0  0  0  0  0  0  0  0  0
   35.4520   27.9410   40.9010 H   0  0  0  0  0  0  0  0  0  0  0  0
   34.9970   29.5550   39.1840 H   0  0  0  0  0  0  0  0  0  0  0  0
   36.3480   31.5370   38.9640 H   0  0  0  0  0  0  0  0  0  0  0  0
   38.3950   32.2590   40.4120 C   0  0  0  0  0  0  0  0  0  0  0  0
   37.9690   33.5780   40.3620 C   0  0  0  0  0  0  0  0  0  0  0  0
   39.0030   34.4500   40.1240 C   0  0  0  0  0  0  0  0  0  0  0  0
   40.0820   33.5840   40.0310 C   0  0  0  0  0  0  0  0  0  0  0  0
   39.6830   32.3590   40.2020 O   0  0  0  0  0  0  0  0  0  0  0  0
   36.9090   33.8510   40.5040 H   0  0  0  0  0  0  0  0  0  0  0  0
   38.9650   35.5270   40.0330 H   0  0  0  0  0  0  0  0  0  0  0  0
   41.1220   33.8940   39.8400 H   0  0  0  0  0  0  0  0  0  0  0  0
   40.1630   25.7290   43.4870 C   0  0  0  0  0  0  0  0  0  0  0  0
   40.4010   25.0540   42.2860 C   0  0  0  0  0  0  0  0  0  0  0  0
   39.5920   25.4150   41.2050 C   0  0  0  0  0  0  0  0  0  0  0  0
   38.6540   26.3790   41.4070 N   0  0  0  0  0  0  0  0  0  0  0  0
   38.4620   26.9920   42.5610 C   0  0  0  0  0  0  0  0  0  0  0  0
   39.2350   26.6530   43.6090 N   0  0  0  0  0  0  0  0  0  0  0  0
   40.7250   25.5470   44.4210 H   0  0  0  0  0  0  0  0  0  0  0  0
   41.1850   24.3610   42.4150 H   0  0  0  0  0  0  0  0  0  0  0  0
   39.1960   23.5570   39.5650 C   0  0  0  0  0  0  0  0  0  0  0  0
   39.8670   24.6780   39.9880 C   0  0  0  0  0  0  0  0  0  0  0  0
   40.8670   25.0470   39.1170 C   0  0  0  0  0  0  0  0  0  0  0  0
   41.5040   25.9030   39.2810 H   0  0  0  0  0  0  0  0  0  0  0  0
   41.1780   24.4020   37.9670 C   0  0  0  0  0  0  0  0  0  0  0  0
   41.9740   24.7210   37.3040 H   0  0  0  0  0  0  0  0  0  0  0  0
   40.4970   23.2920   37.5700 C   0  0  0  0  0  3  0  0  0  0  0  0
   39.4870   22.8690   38.3920 C   0  0  0  0  0  3  0  0  0  0  0  0
   38.0690   23.2790   41.8520 H   0  0  0  0  0  0  0  0  0  0  0  0
   37.8840   22.9400   40.5130 S   0  0  0  0  0  0  0  0  0  0  0  0
   36.5950   23.6030   40.1340 O   0  0  0  0  0  0  0  0  0  0  0  0
   37.8330   21.4360   40.4510 O   0  0  0  0  0  0  0  0  0  0  0  0
  1  2  2  0  0  0  0
  4  5  1  0  0  0  0
  4  3  1  0  0  0  0
  5  1  1  0  0  0  0
  6 10  1  0  0  0  0
  6  5  2  0  0  0  0
  7  6  1  0  0  0  0
  8  7  2  0  0  0  0
  8  9  1  0  0  0  0
  9  4  2  0  0  0  0
 11  7  1  0  0  0  0
 12  8  1  0  0  0  0
 13  9  1  0  0  0  0
 14 13  2  0  0  0  0
 14 18  1  0  0  0  0
 15 14  1  0  0  0  0
 16 15  2  0  0  0  0
 16 17  1  0  0  0  0
 17 13  1  0  0  0  0
 19 15  1  0  0  0  0
 20 16  1  0  0  0  0
 21 26  1  0  0  0  0
 21 27  1  0  0  0  0
 22 28  1  0  0  0  0
 22 21  2  0  0  0  0
 23 24  2  0  0  0  0
 23 22  1  0  0  0  0
 24 25  1  0  0  0  0
 25  1  1  0  0  0  0
 25 26  2  0  0  0  0
 29 30  1  0  0  0  0
 29 38  1  0  0  0  0
 30 23  1  0  0  0  0
 31 32  1  0  0  0  0
 31 30  2  0  0  0  0
 33 31  1  0  0  0  0
 34 33  1  0  0  0  0
 35 33  2  0  0  0  0
 35 36  1  0  0  0  0
 36 29  2  0  0  0  0
 38 37  1  0  0  0  0
 39 38  2  0  0  0  0
 40 38  2  0  0  0  0
M  END
>  <minimizedAffinity>
-6.05211926

$$$$
