
     RDKit          3D

 24 25  0  0  0  0  0  0  0  0999 V2000
   44.9930   35.4887   44.1969 C   0  0  0  0  0  0  0  0  0  0  0  0
   45.9824   34.9251   43.3444 C   0  0  0  0  0  0  0  0  0  0  0  0
   46.7109   33.8342   43.8407 C   0  0  0  0  0  0  0  0  0  0  0  0
   46.4416   33.3807   45.0820 N   0  0  0  0  0  0  0  0  0  0  0  0
   45.4927   33.9455   45.8593 C   0  0  0  0  0  0  0  0  0  0  0  0
   44.7857   34.9842   45.4110 N   0  0  0  0  0  0  0  0  0  0  0  0
   44.2917   36.5447   43.7096 O   0  0  0  0  0  0  0  0  0  0  0  0
   46.2089   35.2784   42.3470 H   0  0  0  0  0  0  0  0  0  0  0  0
   47.4794   33.3469   43.2605 H   0  0  0  0  0  0  0  0  0  0  0  0
   44.6693   37.4623   43.5504 H   0  0  0  0  0  0  0  0  0  0  0  0
   47.8400   31.9818   46.0167 H   0  0  0  0  0  0  0  0  0  0  0  0
   47.9218   32.6750   47.1994 S   0  0  0  0  0  0  0  0  0  0  0  0
   48.7537   31.8011   48.1272 O   0  0  0  0  0  0  0  0  0  0  0  0
   48.6247   33.9719   47.0989 O   0  0  0  0  0  0  0  0  0  0  0  0
   46.3332   32.7780   47.8709 C   0  0  0  0  0  0  0  0  0  0  0  0
   45.2792   33.3702   47.2024 C   0  0  0  0  0  0  0  0  0  0  0  0
   44.0109   33.4522   47.7390 C   0  0  0  0  0  0  0  0  0  0  0  0
   43.1736   33.9230   47.2073 H   0  0  0  0  0  0  0  0  0  0  0  0
   43.7838   32.9154   49.0078 C   0  0  0  0  0  0  0  0  0  0  0  0
   42.8024   32.9681   49.4458 H   0  0  0  0  0  0  0  0  0  0  0  0
   44.7810   32.3077   49.7411 C   0  0  0  0  0  0  0  0  0  0  0  0
   46.0214   32.2655   49.1354 C   0  0  0  0  0  0  0  0  0  0  0  0
   44.6473   31.8834   50.7183 H   0  0  0  0  0  0  0  0  0  0  0  0
   46.8388   31.7923   49.6835 H   0  0  0  0  0  0  0  0  0  0  0  0
  1  6  2  0
  2  3  2  0
  2  1  1  0
  3  4  1  0
  4  5  2  0
  6  5  1  0
  7  1  1  0
  2  8  1  0
  3  9  1  0
  7 10  1  0
 11 12  1  0
 12 13  2  0
 12 14  2  0
 12 15  1  0
 15 16  2  0
 16 17  1  0
 17 18  1  0
 17 19  2  0
 19 20  1  0
 19 21  1  0
 21 22  2  0
 22 15  1  0
 21 23  1  0
 22 24  1  0
  5 16  1  0
M  ISO  6   8  14   9  14  10   3  11  12  18  15  20  16
M  END
>  <DihAtoms>  (1) 
3,4,15,14

>  <DihDeg>  (1) 
179.99677932082662

$$$$
