
 OpenBabel03252505353D

 33 35  0  0  0  0  0  0  0  0999 V2000
   37.5130   29.4130   41.4310 C   0  0  0  0  0  0  0  0  0  0  0  0
   38.2200   29.4780   42.6130 C   0  0  0  0  0  0  0  0  0  0  0  0
   38.0000   28.6060   43.6800 C   0  0  0  0  0  0  0  0  0  0  0  0
   37.0280   27.6260   43.5570 C   0  0  0  0  0  0  0  0  0  0  0  0
   36.3270   27.5720   42.3690 C   0  0  0  0  0  0  0  0  0  0  0  0
   36.5580   28.4390   41.3320 C   0  0  0  0  0  0  0  0  0  0  0  0
   38.9750   30.2130   42.7510 H   0  0  0  0  0  0  0  0  0  0  0  0
   38.5640   28.6780   44.5870 H   0  0  0  0  0  0  0  0  0  0  0  0
   36.8860   26.9670   44.4080 H   0  0  0  0  0  0  0  0  0  0  0  0
   35.5600   26.7960   42.2770 H   0  0  0  0  0  0  0  0  0  0  0  0
   38.9240   31.1090   38.3830 C   0  0  0  0  0  0  0  0  0  0  0  0
   38.6820   30.1010   39.3340 C   0  0  0  0  0  0  0  0  0  0  0  0
   37.8290   30.3650   40.4060 C   0  0  0  0  0  0  0  0  0  0  0  0
   37.2700   31.5930   40.4780 N   0  0  0  0  0  0  0  0  0  0  0  0
   37.5230   32.5440   39.5440 C   0  0  0  0  0  0  0  0  0  0  0  0
   38.3550   32.2950   38.4930 N   0  0  0  0  0  0  0  0  0  0  0  0
   36.9190   33.8410   39.6400 N   0  0  0  0  0  0  0  0  0  0  0  0
   39.5870   30.9150   37.5420 H   0  0  0  0  0  0  0  0  0  0  0  0
   39.1400   29.1250   39.2580 H   0  0  0  0  0  0  0  0  0  0  0  0
   37.5960   34.6440   39.6470 H   0  0  0  0  0  0  0  0  0  0  0  0
   35.8950   34.0300   39.7000 H   0  0  0  0  0  0  0  0  0  0  0  0
   36.0910   27.4940   39.0480 C   0  0  0  0  0  0  0  0  0  0  0  0
   35.7900   28.3370   40.0970 C   0  0  0  0  0  0  0  0  0  0  0  0
   34.6780   29.1510   39.9710 C   0  0  0  0  0  0  0  0  0  0  0  0
   34.3480   29.8580   40.7430 H   0  0  0  0  0  0  0  0  0  0  0  0
   33.9140   29.0920   38.8090 C   0  0  0  0  0  0  0  0  0  0  0  0
   33.0150   29.6960   38.6140 H   0  0  0  0  0  0  0  0  0  0  0  0
   34.2350   28.2400   37.7710 C   0  0  0  0  0  3  0  0  0  0  0  0
   35.3490   27.4230   37.8930 C   0  0  0  0  0  3  0  0  0  0  0  0
   38.4030   27.1430   39.9940 H   0  0  0  0  0  0  0  0  0  0  0  0
   37.4950   26.4620   39.2020 S   0  0  0  0  0  0  0  0  0  0  0  0
   38.1590   26.2700   37.8590 O   0  0  0  0  0  0  0  0  0  0  0  0
   37.1450   25.1510   39.8390 O   0  0  0  0  0  0  0  0  0  0  0  0
  1  2  1  0  0  0  0
  2  7  1  0  0  0  0
  2  3  2  0  0  0  0
  3  8  1  0  0  0  0
  4  3  1  0  0  0  0
  4  9  1  0  0  0  0
  5  4  2  0  0  0  0
  6  1  2  0  0  0  0
  6  5  1  0  0  0  0
 10  5  1  0  0  0  0
 11 16  2  0  0  0  0
 11 12  1  0  0  0  0
 12 13  2  0  0  0  0
 13 14  1  0  0  0  0
 13  1  1  0  0  0  0
 15 17  1  0  0  0  0
 15 14  2  0  0  0  0
 16 15  1  0  0  0  0
 17 20  1  0  0  0  0
 17 21  1  0  0  0  0
 18 11  1  0  0  0  0
 19 12  1  0  0  0  0
 22 31  1  0  0  0  0
 22 23  1  0  0  0  0
 23  6  1  0  0  0  0
 24 23  2  0  0  0  0
 24 25  1  0  0  0  0
 26 24  1  0  0  0  0
 27 26  1  0  0  0  0
 28 29  1  0  0  0  0
 28 26  2  0  0  0  0
 29 22  2  0  0  0  0
 31 33  2  0  0  0  0
 31 30  1  0  0  0  0
 32 31  2  0  0  0  0
M  END
>  <minimizedAffinity>
-6.0267849

$$$$

 OpenBabel03252505353D

 33 35  0  0  0  0  0  0  0  0999 V2000
   37.3090   29.9300   39.3020 C   0  0  0  0  0  0  0  0  0  0  0  0
   36.6390   30.2810   38.1500 C   0  0  0  0  0  0  0  0  0  0  0  0
   35.5710   29.5450   37.6370 C   0  0  0  0  0  0  0  0  0  0  0  0
   35.1570   28.4050   38.3070 C   0  0  0  0  0  0  0  0  0  0  0  0
   35.8370   28.0630   39.4590 C   0  0  0  0  0  0  0  0  0  0  0  0
   36.8850   28.8010   39.9470 C   0  0  0  0  0  0  0  0  0  0  0  0
   36.9220   31.1480   37.6040 H   0  0  0  0  0  0  0  0  0  0  0  0
   35.0670   29.8400   36.7390 H   0  0  0  0  0  0  0  0  0  0  0  0
   34.3230   27.8580   37.8760 H   0  0  0  0  0  0  0  0  0  0  0  0
   35.5060   27.1620   39.9850 H   0  0  0  0  0  0  0  0  0  0  0  0
   40.7230   31.3310   40.0400 C   0  0  0  0  0  0  0  0  0  0  0  0
   39.7390   30.4350   39.5820 C   0  0  0  0  0  0  0  0  0  0  0  0
   38.3920   30.7660   39.7310 C   0  0  0  0  0  0  0  0  0  0  0  0
   38.0950   31.9480   40.3170 N   0  0  0  0  0  0  0  0  0  0  0  0
   39.0670   32.7900   40.7480 C   0  0  0  0  0  0  0  0  0  0  0  0
   40.3860   32.4750   40.6060 N   0  0  0  0  0  0  0  0  0  0  0  0
   38.7300   34.0390   41.3670 N   0  0  0  0  0  0  0  0  0  0  0  0
   41.7760   31.0840   39.9290 H   0  0  0  0  0  0  0  0  0  0  0  0
   39.9990   29.4960   39.1170 H   0  0  0  0  0  0  0  0  0  0  0  0
   39.1360   34.1810   42.3240 H   0  0  0  0  0  0  0  0  0  0  0  0
   38.1320   34.7830   40.9450 H   0  0  0  0  0  0  0  0  0  0  0  0
   38.5710   27.4540   41.2400 C   0  0  0  0  0  0  0  0  0  0  0  0
   37.5680   28.3970   41.1710 C   0  0  0  0  0  0  0  0  0  0  0  0
   37.1740   29.0070   42.3490 C   0  0  0  0  0  0  0  0  0  0  0  0
   36.3870   29.7690   42.4090 H   0  0  0  0  0  0  0  0  0  0  0  0
   37.7940   28.6530   43.5440 C   0  0  0  0  0  0  0  0  0  0  0  0
   37.5540   29.0790   44.5290 H   0  0  0  0  0  0  0  0  0  0  0  0
   38.7970   27.7050   43.5880 C   0  0  0  0  0  3  0  0  0  0  0  0
   39.1940   27.0920   42.4100 C   0  0  0  0  0  3  0  0  0  0  0  0
   38.7110   27.5300   38.7220 H   0  0  0  0  0  0  0  0  0  0  0  0
   39.0740   26.6800   39.7530 S   0  0  0  0  0  0  0  0  0  0  0  0
   38.3080   25.3970   39.5410 O   0  0  0  0  0  0  0  0  0  0  0  0
   40.5550   26.4510   39.7280 O   0  0  0  0  0  0  0  0  0  0  0  0
  1 13  1  0  0  0  0
  1  6  1  0  0  0  0
  2  1  2  0  0  0  0
  3  2  1  0  0  0  0
  3  4  2  0  0  0  0
  4  5  1  0  0  0  0
  5  6  2  0  0  0  0
  5 10  1  0  0  0  0
  6 23  1  0  0  0  0
  7  2  1  0  0  0  0
  8  3  1  0  0  0  0
  9  4  1  0  0  0  0
 11 16  1  0  0  0  0
 12 13  1  0  0  0  0
 12 11  2  0  0  0  0
 13 14  2  0  0  0  0
 14 15  1  0  0  0  0
 15 17  1  0  0  0  0
 16 15  2  0  0  0  0
 17 20  1  0  0  0  0
 18 11  1  0  0  0  0
 19 12  1  0  0  0  0
 21 17  1  0  0  0  0
 22 29  1  0  0  0  0
 23 22  2  0  0  0  0
 23 24  1  0  0  0  0
 24 25  1  0  0  0  0
 24 26  2  0  0  0  0
 26 28  1  0  0  0  0
 26 27  1  0  0  0  0
 29 28  2  0  0  0  0
 30 31  1  0  0  0  0
 31 22  1  0  0  0  0
 32 31  2  0  0  0  0
 33 31  2  0  0  0  0
M  END
>  <minimizedAffinity>
-5.5259614

$$$$

 OpenBabel03252505353D

 33 35  0  0  0  0  0  0  0  0999 V2000
   36.3260   27.1870   39.2200 C   0  0  0  0  0  0  0  0  0  0  0  0
   35.5940   27.0000   38.0670 C   0  0  0  0  0  0  0  0  0  0  0  0
   34.5150   27.8100   37.7120 C   0  0  0  0  0  0  0  0  0  0  0  0
   34.1520   28.8520   38.5500 C   0  0  0  0  0  0  0  0  0  0  0  0
   34.8930   29.0280   39.7020 C   0  0  0  0  0  0  0  0  0  0  0  0
   35.9500   28.2200   40.0330 C   0  0  0  0  0  0  0  0  0  0  0  0
   35.8370   26.2140   37.3940 H   0  0  0  0  0  0  0  0  0  0  0  0
   33.9630   27.6440   36.8090 H   0  0  0  0  0  0  0  0  0  0  0  0
   33.3070   29.4590   38.2400 H   0  0  0  0  0  0  0  0  0  0  0  0
   34.6020   29.8520   40.3610 H   0  0  0  0  0  0  0  0  0  0  0  0
   39.7220   25.5730   39.3750 C   0  0  0  0  0  0  0  0  0  0  0  0
   38.7290   26.5220   39.0700 C   0  0  0  0  0  0  0  0  0  0  0  0
   37.4150   26.2890   39.4770 C   0  0  0  0  0  0  0  0  0  0  0  0
   37.1580   25.1480   40.1540 N   0  0  0  0  0  0  0  0  0  0  0  0
   38.1380   24.2530   40.4330 C   0  0  0  0  0  0  0  0  0  0  0  0
   39.4250   24.4720   40.0390 N   0  0  0  0  0  0  0  0  0  0  0  0
   37.8430   23.0480   41.1520 N   0  0  0  0  0  0  0  0  0  0  0  0
   40.7500   25.7430   39.0640 H   0  0  0  0  0  0  0  0  0  0  0  0
   38.9560   27.4280   38.5280 H   0  0  0  0  0  0  0  0  0  0  0  0
   38.1200   22.1610   40.6610 H   0  0  0  0  0  0  0  0  0  0  0  0
   37.3910   22.9970   42.0910 H   0  0  0  0  0  0  0  0  0  0  0  0
   37.7510   29.3350   41.3900 C   0  0  0  0  0  0  0  0  0  0  0  0
   36.7020   28.4510   41.2620 C   0  0  0  0  0  0  0  0  0  0  0  0
   36.3310   27.7220   42.3790 C   0  0  0  0  0  0  0  0  0  0  0  0
   35.5120   26.9930   42.3880 H   0  0  0  0  0  0  0  0  0  0  0  0
   37.0190   27.9050   43.5750 C   0  0  0  0  0  0  0  0  0  0  0  0
   36.8020   27.3770   44.5140 H   0  0  0  0  0  0  0  0  0  0  0  0
   38.0680   28.7970   43.6800 C   0  0  0  0  0  3  0  0  0  0  0  0
   38.4430   29.5280   42.5630 C   0  0  0  0  0  3  0  0  0  0  0  0
   37.9530   29.4670   38.8790 H   0  0  0  0  0  0  0  0  0  0  0  0
   38.2230   30.2590   39.9820 S   0  0  0  0  0  0  0  0  0  0  0  0
   39.7140   30.4970   39.9820 O   0  0  0  0  0  0  0  0  0  0  0  0
   37.4570   31.5440   39.8870 O   0  0  0  0  0  0  0  0  0  0  0  0
  1 13  1  0  0  0  0
  1  6  1  0  0  0  0
  2  1  2  0  0  0  0
  3  2  1  0  0  0  0
  3  4  2  0  0  0  0
  4  5  1  0  0  0  0
  5  6  2  0  0  0  0
  5 10  1  0  0  0  0
  6 23  1  0  0  0  0
  7  2  1  0  0  0  0
  8  3  1  0  0  0  0
  9  4  1  0  0  0  0
 11 16  1  0  0  0  0
 12 11  2  0  0  0  0
 12 13  1  0  0  0  0
 13 14  2  0  0  0  0
 14 15  1  0  0  0  0
 15 17  1  0  0  0  0
 16 15  2  0  0  0  0
 17 21  1  0  0  0  0
 18 11  1  0  0  0  0
 19 12  1  0  0  0  0
 20 17  1  0  0  0  0
 22 29  1  0  0  0  0
 23 22  2  0  0  0  0
 23 24  1  0  0  0  0
 24 25  1  0  0  0  0
 24 26  2  0  0  0  0
 26 28  1  0  0  0  0
 26 27  1  0  0  0  0
 29 28  2  0  0  0  0
 30 31  1  0  0  0  0
 31 22  1  0  0  0  0
 32 31  2  0  0  0  0
 33 31  2  0  0  0  0
M  END
>  <minimizedAffinity>
-5.48664427

$$$$

 OpenBabel03252505353D

 33 35  0  0  0  0  0  0  0  0999 V2000
   37.5560   29.2400   41.7180 C   0  0  0  0  0  0  0  0  0  0  0  0
   37.5130   29.0000   43.0750 C   0  0  0  0  0  0  0  0  0  0  0  0
   37.2030   27.7520   43.6170 C   0  0  0  0  0  0  0  0  0  0  0  0
   36.9250   26.6980   42.7610 C   0  0  0  0  0  0  0  0  0  0  0  0
   36.9710   26.9520   41.4050 C   0  0  0  0  0  0  0  0  0  0  0  0
   37.2770   28.1860   40.8930 C   0  0  0  0  0  0  0  0  0  0  0  0
   37.7200   29.7780   43.7680 H   0  0  0  0  0  0  0  0  0  0  0  0
   37.1770   27.5910   44.6750 H   0  0  0  0  0  0  0  0  0  0  0  0
   36.6880   25.7430   43.2210 H   0  0  0  0  0  0  0  0  0  0  0  0
   36.7500   26.1160   40.7330 H   0  0  0  0  0  0  0  0  0  0  0  0
   37.4150   32.7090   40.2670 C   0  0  0  0  0  0  0  0  0  0  0  0
   36.9850   31.4270   40.6570 C   0  0  0  0  0  0  0  0  0  0  0  0
   37.8860   30.5650   41.2810 C   0  0  0  0  0  0  0  0  0  0  0  0
   39.1470   31.0110   41.4830 N   0  0  0  0  0  0  0  0  0  0  0  0
   39.5310   32.2520   41.0950 C   0  0  0  0  0  0  0  0  0  0  0  0
   38.6560   33.1010   40.4840 N   0  0  0  0  0  0  0  0  0  0  0  0
   40.8730   32.7050   41.3190 N   0  0  0  0  0  0  0  0  0  0  0  0
   36.7210   33.3900   39.7800 H   0  0  0  0  0  0  0  0  0  0  0  0
   35.9720   31.0910   40.4860 H   0  0  0  0  0  0  0  0  0  0  0  0
   41.3800   33.0260   40.4570 H   0  0  0  0  0  0  0  0  0  0  0  0
   41.3570   32.7330   42.2420 H   0  0  0  0  0  0  0  0  0  0  0  0
   38.4510   28.3330   38.6720 C   0  0  0  0  0  0  0  0  0  0  0  0
   37.3140   28.4000   39.4500 C   0  0  0  0  0  0  0  0  0  0  0  0
   36.1180   28.6950   38.8200 C   0  0  0  0  0  0  0  0  0  0  0  0
   35.1560   28.7730   39.3420 H   0  0  0  0  0  0  0  0  0  0  0  0
   36.1030   28.9100   37.4450 C   0  0  0  0  0  0  0  0  0  0  0  0
   35.2070   29.1490   36.8540 H   0  0  0  0  0  0  0  0  0  0  0  0
   37.2540   28.8380   36.6870 C   0  0  0  0  0  3  0  0  0  0  0  0
   38.4540   28.5430   37.3140 C   0  0  0  0  0  3  0  0  0  0  0  0
   39.9190   28.5550   40.7120 H   0  0  0  0  0  0  0  0  0  0  0  0
   39.9660   27.9590   39.4630 S   0  0  0  0  0  0  0  0  0  0  0  0
   41.1180   28.6010   38.7270 O   0  0  0  0  0  0  0  0  0  0  0  0
   40.1580   26.4800   39.6100 O   0  0  0  0  0  0  0  0  0  0  0  0
  1  2  1  0  0  0  0
  2  3  2  0  0  0  0
  2  7  1  0  0  0  0
  3  8  1  0  0  0  0
  4  9  1  0  0  0  0
  4  3  1  0  0  0  0
  5  4  2  0  0  0  0
  6  5  1  0  0  0  0
  6  1  2  0  0  0  0
 10  5  1  0  0  0  0
 11 16  2  0  0  0  0
 11 12  1  0  0  0  0
 12 13  2  0  0  0  0
 13 14  1  0  0  0  0
 13  1  1  0  0  0  0
 15 17  1  0  0  0  0
 15 14  2  0  0  0  0
 16 15  1  0  0  0  0
 17 21  1  0  0  0  0
 18 11  1  0  0  0  0
 19 12  1  0  0  0  0
 20 17  1  0  0  0  0
 22 23  1  0  0  0  0
 22 31  1  0  0  0  0
 23  6  1  0  0  0  0
 24 25  1  0  0  0  0
 24 23  2  0  0  0  0
 26 24  1  0  0  0  0
 27 26  1  0  0  0  0
 28 29  1  0  0  0  0
 28 26  2  0  0  0  0
 29 22  2  0  0  0  0
 31 33  2  0  0  0  0
 31 30  1  0  0  0  0
 32 31  2  0  0  0  0
M  END
>  <minimizedAffinity>
-5.3708272

$$$$

 OpenBabel03252505353D

 33 35  0  0  0  0  0  0  0  0999 V2000
   36.5460   26.1630   39.4930 C   0  0  0  0  0  0  0  0  0  0  0  0
   35.9700   25.2060   38.6840 C   0  0  0  0  0  0  0  0  0  0  0  0
   35.8040   23.8780   39.0780 C   0  0  0  0  0  0  0  0  0  0  0  0
   36.2350   23.4920   40.3370 C   0  0  0  0  0  0  0  0  0  0  0  0
   36.8100   24.4590   41.1370 C   0  0  0  0  0  0  0  0  0  0  0  0
   36.9640   25.7600   40.7310 C   0  0  0  0  0  0  0  0  0  0  0  0
   35.6250   25.4580   37.7120 H   0  0  0  0  0  0  0  0  0  0  0  0
   35.3540   23.1540   38.4310 H   0  0  0  0  0  0  0  0  0  0  0  0
   36.0890   22.4500   40.6070 H   0  0  0  0  0  0  0  0  0  0  0  0
   37.1490   24.1480   42.1310 H   0  0  0  0  0  0  0  0  0  0  0  0
   35.9350   29.7790   38.6480 C   0  0  0  0  0  0  0  0  0  0  0  0
   35.7220   28.5030   39.2020 C   0  0  0  0  0  0  0  0  0  0  0  0
   36.6620   27.4960   38.9780 C   0  0  0  0  0  0  0  0  0  0  0  0
   37.7450   27.8020   38.2280 N   0  0  0  0  0  0  0  0  0  0  0  0
   37.9210   29.0410   37.7080 C   0  0  0  0  0  0  0  0  0  0  0  0
   37.0080   30.0310   37.9230 N   0  0  0  0  0  0  0  0  0  0  0  0
   39.0770   29.3430   36.9160 N   0  0  0  0  0  0  0  0  0  0  0  0
   35.2100   30.5720   38.8170 H   0  0  0  0  0  0  0  0  0  0  0  0
   34.8500   28.2810   39.7980 H   0  0  0  0  0  0  0  0  0  0  0  0
   38.8700   29.7190   35.9570 H   0  0  0  0  0  0  0  0  0  0  0  0
   40.0680   29.2190   37.2170 H   0  0  0  0  0  0  0  0  0  0  0  0
   38.9210   27.0470   41.6490 C   0  0  0  0  0  0  0  0  0  0  0  0
   37.5760   26.7440   41.6160 C   0  0  0  0  0  0  0  0  0  0  0  0
   36.7420   27.4190   42.4900 C   0  0  0  0  0  0  0  0  0  0  0  0
   35.6580   27.2560   42.5470 H   0  0  0  0  0  0  0  0  0  0  0  0
   37.2790   28.3660   43.3560 C   0  0  0  0  0  0  0  0  0  0  0  0
   36.7020   28.9540   44.0840 H   0  0  0  0  0  0  0  0  0  0  0  0
   38.6300   28.6530   43.3710 C   0  0  0  0  0  3  0  0  0  0  0  0
   39.4690   27.9780   42.4990 C   0  0  0  0  0  3  0  0  0  0  0  0
   39.1670   25.4630   39.7000 H   0  0  0  0  0  0  0  0  0  0  0  0
   39.9810   26.1970   40.5470 S   0  0  0  0  0  0  0  0  0  0  0  0
   40.8300   25.1980   41.2960 O   0  0  0  0  0  0  0  0  0  0  0  0
   40.8200   27.1490   39.7490 O   0  0  0  0  0  0  0  0  0  0  0  0
  1  6  1  0  0  0  0
  2  3  1  0  0  0  0
  2  1  2  0  0  0  0
  3  4  2  0  0  0  0
  4  9  1  0  0  0  0
  4  5  1  0  0  0  0
  5 10  1  0  0  0  0
  6  5  2  0  0  0  0
  6 23  1  0  0  0  0
  7  2  1  0  0  0  0
  8  3  1  0  0  0  0
 11 18  1  0  0  0  0
 11 12  1  0  0  0  0
 12 19  1  0  0  0  0
 13 12  2  0  0  0  0
 13  1  1  0  0  0  0
 14 13  1  0  0  0  0
 15 16  1  0  0  0  0
 15 14  2  0  0  0  0
 16 11  2  0  0  0  0
 17 21  1  0  0  0  0
 17 15  1  0  0  0  0
 20 17  1  0  0  0  0
 22 29  1  0  0  0  0
 23 22  2  0  0  0  0
 23 24  1  0  0  0  0
 24 25  1  0  0  0  0
 24 26  2  0  0  0  0
 26 28  1  0  0  0  0
 26 27  1  0  0  0  0
 29 28  2  0  0  0  0
 30 31  1  0  0  0  0
 31 32  2  0  0  0  0
 31 22  1  0  0  0  0
 33 31  2  0  0  0  0
M  END
>  <minimizedAffinity>
-5.28470612

$$$$

 OpenBabel03252505353D

 33 35  0  0  0  0  0  0  0  0999 V2000
   37.2750   28.4670   40.7700 C   0  0  0  0  0  0  0  0  0  0  0  0
   36.9260   27.2680   41.3530 C   0  0  0  0  0  0  0  0  0  0  0  0
   36.9580   27.0550   42.7320 C   0  0  0  0  0  0  0  0  0  0  0  0
   37.3560   28.0900   43.5620 C   0  0  0  0  0  0  0  0  0  0  0  0
   37.7040   29.2860   42.9660 C   0  0  0  0  0  0  0  0  0  0  0  0
   37.6660   29.4750   41.6090 C   0  0  0  0  0  0  0  0  0  0  0  0
   36.6140   26.4480   40.7550 H   0  0  0  0  0  0  0  0  0  0  0  0
   36.6810   26.1140   43.1600 H   0  0  0  0  0  0  0  0  0  0  0  0
   37.3680   27.8860   44.6290 H   0  0  0  0  0  0  0  0  0  0  0  0
   38.0180   30.1000   43.6270 H   0  0  0  0  0  0  0  0  0  0  0  0
   36.0550   28.8020   37.2260 C   0  0  0  0  0  0  0  0  0  0  0  0
   36.0120   28.7150   38.6300 C   0  0  0  0  0  0  0  0  0  0  0  0
   37.2030   28.5660   39.3410 C   0  0  0  0  0  0  0  0  0  0  0  0
   38.3550   28.5110   38.6360 N   0  0  0  0  0  0  0  0  0  0  0  0
   38.3630   28.5970   37.2830 C   0  0  0  0  0  0  0  0  0  0  0  0
   37.2040   28.7430   36.5790 N   0  0  0  0  0  0  0  0  0  0  0  0
   39.5970   28.5360   36.5550 N   0  0  0  0  0  0  0  0  0  0  0  0
   35.1340   28.9190   36.6600 H   0  0  0  0  0  0  0  0  0  0  0  0
   35.0800   28.7620   39.1730 H   0  0  0  0  0  0  0  0  0  0  0  0
   39.6400   27.7850   35.8220 H   0  0  0  0  0  0  0  0  0  0  0  0
   40.4190   29.1620   36.7000 H   0  0  0  0  0  0  0  0  0  0  0  0
   39.3370   31.1770   40.8090 C   0  0  0  0  0  0  0  0  0  0  0  0
   38.0410   30.7600   41.0290 C   0  0  0  0  0  0  0  0  0  0  0  0
   37.0170   31.6220   40.6800 C   0  0  0  0  0  0  0  0  0  0  0  0
   35.9520   31.3910   40.8120 H   0  0  0  0  0  0  0  0  0  0  0  0
   37.3240   32.8610   40.1260 C   0  0  0  0  0  0  0  0  0  0  0  0
   36.5850   33.6140   39.8160 H   0  0  0  0  0  0  0  0  0  0  0  0
   38.6300   33.2580   39.9140 C   0  0  0  0  0  3  0  0  0  0  0  0
   39.6590   32.3970   40.2630 C   0  0  0  0  0  3  0  0  0  0  0  0
   40.0970   28.8160   41.2670 H   0  0  0  0  0  0  0  0  0  0  0  0
   40.6360   30.0910   41.2480 S   0  0  0  0  0  0  0  0  0  0  0  0
   41.1110   30.3760   42.6520 O   0  0  0  0  0  0  0  0  0  0  0  0
   41.7610   30.1530   40.2590 O   0  0  0  0  0  0  0  0  0  0  0  0
  1  2  2  0  0  0  0
  1  6  1  0  0  0  0
  2  3  1  0  0  0  0
  3  8  1  0  0  0  0
  3  4  2  0  0  0  0
  4  9  1  0  0  0  0
  5  4  1  0  0  0  0
  5 10  1  0  0  0  0
  6  5  2  0  0  0  0
  7  2  1  0  0  0  0
 11 12  1  0  0  0  0
 12 19  1  0  0  0  0
 12 13  2  0  0  0  0
 13  1  1  0  0  0  0
 14 13  1  0  0  0  0
 15 14  2  0  0  0  0
 16 11  2  0  0  0  0
 16 15  1  0  0  0  0
 17 21  1  0  0  0  0
 17 15  1  0  0  0  0
 18 11  1  0  0  0  0
 20 17  1  0  0  0  0
 22 23  1  0  0  0  0
 22 31  1  0  0  0  0
 23  6  1  0  0  0  0
 24 25  1  0  0  0  0
 24 23  2  0  0  0  0
 26 24  1  0  0  0  0
 27 26  1  0  0  0  0
 28 26  2  0  0  0  0
 28 29  1  0  0  0  0
 29 22  2  0  0  0  0
 31 30  1  0  0  0  0
 31 32  2  0  0  0  0
 33 31  2  0  0  0  0
M  END
>  <minimizedAffinity>
-5.26908255

$$$$

 OpenBabel03252505353D

 33 35  0  0  0  0  0  0  0  0999 V2000
   37.6740   29.1680   41.4790 C   0  0  0  0  0  0  0  0  0  0  0  0
   36.5410   28.4940   41.8820 C   0  0  0  0  0  0  0  0  0  0  0  0
   36.5250   27.6170   42.9670 C   0  0  0  0  0  0  0  0  0  0  0  0
   37.6950   27.4060   43.6780 C   0  0  0  0  0  0  0  0  0  0  0  0
   38.8220   28.0870   43.2640 C   0  0  0  0  0  0  0  0  0  0  0  0
   38.8170   28.9450   42.1950 C   0  0  0  0  0  0  0  0  0  0  0  0
   35.6220   28.6260   41.3660 H   0  0  0  0  0  0  0  0  0  0  0  0
   35.6310   27.1050   43.2600 H   0  0  0  0  0  0  0  0  0  0  0  0
   37.6420   26.7160   44.5160 H   0  0  0  0  0  0  0  0  0  0  0  0
   39.7440   27.9160   43.8300 H   0  0  0  0  0  0  0  0  0  0  0  0
   37.5860   30.5730   37.9890 C   0  0  0  0  0  0  0  0  0  0  0  0
   37.7100   29.6290   39.0240 C   0  0  0  0  0  0  0  0  0  0  0  0
   37.5670   30.0440   40.3480 C   0  0  0  0  0  0  0  0  0  0  0  0
   37.3140   31.3530   40.5730 N   0  0  0  0  0  0  0  0  0  0  0  0
   37.2000   32.2390   39.5530 C   0  0  0  0  0  0  0  0  0  0  0  0
   37.3380   31.8420   38.2560 N   0  0  0  0  0  0  0  0  0  0  0  0
   36.9310   33.6230   39.8150 N   0  0  0  0  0  0  0  0  0  0  0  0
   37.6950   30.2610   36.9520 H   0  0  0  0  0  0  0  0  0  0  0  0
   37.9130   28.5870   38.8210 H   0  0  0  0  0  0  0  0  0  0  0  0
   37.6310   34.2930   39.4100 H   0  0  0  0  0  0  0  0  0  0  0  0
   36.1210   33.9910   40.3590 H   0  0  0  0  0  0  0  0  0  0  0  0
   40.9620   29.1620   40.8960 C   0  0  0  0  0  0  0  0  0  0  0  0
   40.0360   29.6410   41.8000 C   0  0  0  0  0  0  0  0  0  0  0  0
   40.2800   30.8740   42.3800 C   0  0  0  0  0  0  0  0  0  0  0  0
   39.6120   31.3480   43.1100 H   0  0  0  0  0  0  0  0  0  0  0  0
   41.4310   31.5770   42.0370 C   0  0  0  0  0  0  0  0  0  0  0  0
   41.7140   32.5600   42.4410 H   0  0  0  0  0  0  0  0  0  0  0  0
   42.3440   31.0770   41.1300 C   0  0  0  0  0  3  0  0  0  0  0  0
   42.1040   29.8420   40.5470 C   0  0  0  0  0  3  0  0  0  0  0  0
   39.3890   27.2200   40.5540 H   0  0  0  0  0  0  0  0  0  0  0  0
   40.6580   27.6050   40.1590 S   0  0  0  0  0  0  0  0  0  0  0  0
   41.6100   26.5680   40.7060 O   0  0  0  0  0  0  0  0  0  0  0  0
   40.7250   27.6840   38.6640 O   0  0  0  0  0  0  0  0  0  0  0  0
  1  2  2  0  0  0  0
  1  6  1  0  0  0  0
  2  3  1  0  0  0  0
  3  8  1  0  0  0  0
  3  4  2  0  0  0  0
  4  9  1  0  0  0  0
  5  4  1  0  0  0  0
  5 10  1  0  0  0  0
  6  5  2  0  0  0  0
  7  2  1  0  0  0  0
 11 16  2  0  0  0  0
 11 12  1  0  0  0  0
 12 13  2  0  0  0  0
 13 14  1  0  0  0  0
 13  1  1  0  0  0  0
 15 17  1  0  0  0  0
 15 14  2  0  0  0  0
 16 15  1  0  0  0  0
 17 21  1  0  0  0  0
 18 11  1  0  0  0  0
 19 12  1  0  0  0  0
 20 17  1  0  0  0  0
 22 23  1  0  0  0  0
 23  6  1  0  0  0  0
 23 24  2  0  0  0  0
 24 25  1  0  0  0  0
 26 24  1  0  0  0  0
 26 27  1  0  0  0  0
 28 26  2  0  0  0  0
 29 22  2  0  0  0  0
 29 28  1  0  0  0  0
 31 30  1  0  0  0  0
 31 32  2  0  0  0  0
 31 22  1  0  0  0  0
 33 31  2  0  0  0  0
M  END
>  <minimizedAffinity>
-5.25912523

$$$$

 OpenBabel03252505353D

 33 35  0  0  0  0  0  0  0  0999 V2000
   36.2360   27.5610   39.1310 C   0  0  0  0  0  0  0  0  0  0  0  0
   35.4570   27.4420   37.9990 C   0  0  0  0  0  0  0  0  0  0  0  0
   34.2780   28.1630   37.8100 C   0  0  0  0  0  0  0  0  0  0  0  0
   33.8590   29.0390   38.7980 C   0  0  0  0  0  0  0  0  0  0  0  0
   34.6470   29.1480   39.9260 C   0  0  0  0  0  0  0  0  0  0  0  0
   35.8040   28.4310   40.0940 C   0  0  0  0  0  0  0  0  0  0  0  0
   35.7400   26.7830   37.2160 H   0  0  0  0  0  0  0  0  0  0  0  0
   33.6910   28.0530   36.9210 H   0  0  0  0  0  0  0  0  0  0  0  0
   32.9360   29.5810   38.6140 H   0  0  0  0  0  0  0  0  0  0  0  0
   34.3120   29.8420   40.7040 H   0  0  0  0  0  0  0  0  0  0  0  0
   38.6980   24.7890   39.7740 C   0  0  0  0  0  0  0  0  0  0  0  0
   37.4720   25.4790   39.7430 C   0  0  0  0  0  0  0  0  0  0  0  0
   37.4280   26.7680   39.2120 C   0  0  0  0  0  0  0  0  0  0  0  0
   38.5820   27.2970   38.7460 N   0  0  0  0  0  0  0  0  0  0  0  0
   39.7480   26.6060   38.7900 C   0  0  0  0  0  0  0  0  0  0  0  0
   39.8000   25.3450   39.3080 N   0  0  0  0  0  0  0  0  0  0  0  0
   40.9600   27.1860   38.2910 N   0  0  0  0  0  0  0  0  0  0  0  0
   38.7450   23.7830   40.1860 H   0  0  0  0  0  0  0  0  0  0  0  0
   36.5620   25.0370   40.1210 H   0  0  0  0  0  0  0  0  0  0  0  0
   41.7500   27.2200   38.9820 H   0  0  0  0  0  0  0  0  0  0  0  0
   41.1020   27.5600   37.3280 H   0  0  0  0  0  0  0  0  0  0  0  0
   37.5680   29.5490   41.4960 C   0  0  0  0  0  0  0  0  0  0  0  0
   36.6020   28.5850   41.3050 C   0  0  0  0  0  0  0  0  0  0  0  0
   36.3700   27.6910   42.3360 C   0  0  0  0  0  0  0  0  0  0  0  0
   35.6260   26.8860   42.2910 H   0  0  0  0  0  0  0  0  0  0  0  0
   37.1080   27.7960   43.5110 C   0  0  0  0  0  0  0  0  0  0  0  0
   36.9990   27.1370   44.3850 H   0  0  0  0  0  0  0  0  0  0  0  0
   38.0710   28.7700   43.6800 C   0  0  0  0  0  3  0  0  0  0  0  0
   38.3060   29.6670   42.6490 C   0  0  0  0  0  3  0  0  0  0  0  0
   37.0140   30.3300   39.1610 H   0  0  0  0  0  0  0  0  0  0  0  0
   37.8640   30.6820   40.1960 S   0  0  0  0  0  0  0  0  0  0  0  0
   39.2700   30.5240   39.6680 O   0  0  0  0  0  0  0  0  0  0  0  0
   37.5900   32.0920   40.6240 O   0  0  0  0  0  0  0  0  0  0  0  0
  1 13  1  0  0  0  0
  1  6  1  0  0  0  0
  2  1  2  0  0  0  0
  3  2  1  0  0  0  0
  3  4  2  0  0  0  0
  4  5  1  0  0  0  0
  5  6  2  0  0  0  0
  5 10  1  0  0  0  0
  6 23  1  0  0  0  0
  7  2  1  0  0  0  0
  8  3  1  0  0  0  0
  9  4  1  0  0  0  0
 11 18  1  0  0  0  0
 12 11  1  0  0  0  0
 12 19  1  0  0  0  0
 13 12  2  0  0  0  0
 14 15  2  0  0  0  0
 14 13  1  0  0  0  0
 15 16  1  0  0  0  0
 16 11  2  0  0  0  0
 17 15  1  0  0  0  0
 17 20  1  0  0  0  0
 21 17  1  0  0  0  0
 22 29  1  0  0  0  0
 23 22  2  0  0  0  0
 23 24  1  0  0  0  0
 24 26  2  0  0  0  0
 25 24  1  0  0  0  0
 26 28  1  0  0  0  0
 26 27  1  0  0  0  0
 29 28  2  0  0  0  0
 30 31  1  0  0  0  0
 31 33  2  0  0  0  0
 31 22  1  0  0  0  0
 32 31  2  0  0  0  0
M  END
>  <minimizedAffinity>
-5.17994642

$$$$

 OpenBabel03252505353D

 33 35  0  0  0  0  0  0  0  0999 V2000
   37.4770   31.7810   39.9990 C   0  0  0  0  0  0  0  0  0  0  0  0
   37.1830   33.0620   39.5840 C   0  0  0  0  0  0  0  0  0  0  0  0
   37.9900   34.1610   39.8790 C   0  0  0  0  0  0  0  0  0  0  0  0
   39.1420   33.9670   40.6240 C   0  0  0  0  0  0  0  0  0  0  0  0
   39.4250   32.6790   41.0350 C   0  0  0  0  0  0  0  0  0  0  0  0
   38.6180   31.6130   40.7340 C   0  0  0  0  0  0  0  0  0  0  0  0
   36.3100   33.2560   39.0100 H   0  0  0  0  0  0  0  0  0  0  0  0
   37.7400   35.1460   39.5440 H   0  0  0  0  0  0  0  0  0  0  0  0
   39.7440   34.8470   40.8340 H   0  0  0  0  0  0  0  0  0  0  0  0
   40.3360   32.5320   41.6240 H   0  0  0  0  0  0  0  0  0  0  0  0
   34.8300   29.1070   40.0540 C   0  0  0  0  0  0  0  0  0  0  0  0
   35.6760   30.1300   40.5190 C   0  0  0  0  0  0  0  0  0  0  0  0
   36.5710   30.7310   39.6330 C   0  0  0  0  0  0  0  0  0  0  0  0
   36.5790   30.2940   38.3540 N   0  0  0  0  0  0  0  0  0  0  0  0
   35.7500   29.3050   37.9360 C   0  0  0  0  0  0  0  0  0  0  0  0
   34.8730   28.7120   38.7950 N   0  0  0  0  0  0  0  0  0  0  0  0
   35.7760   28.8570   36.5750 N   0  0  0  0  0  0  0  0  0  0  0  0
   34.1280   28.6310   40.7350 H   0  0  0  0  0  0  0  0  0  0  0  0
   35.6520   30.4640   41.5460 H   0  0  0  0  0  0  0  0  0  0  0  0
   35.9470   27.8280   36.4520 H   0  0  0  0  0  0  0  0  0  0  0  0
   35.6430   29.4610   35.7350 H   0  0  0  0  0  0  0  0  0  0  0  0
   39.6700   29.3450   40.4530 C   0  0  0  0  0  0  0  0  0  0  0  0
   38.9640   30.2710   41.1900 C   0  0  0  0  0  0  0  0  0  0  0  0
   38.5470   29.9040   42.4580 C   0  0  0  0  0  0  0  0  0  0  0  0
   37.9800   30.5620   43.1290 H   0  0  0  0  0  0  0  0  0  0  0  0
   38.8510   28.6330   42.9380 C   0  0  0  0  0  0  0  0  0  0  0  0
   38.5660   28.2480   43.9270 H   0  0  0  0  0  0  0  0  0  0  0  0
   39.5600   27.7220   42.1800 C   0  0  0  0  0  3  0  0  0  0  0  0
   39.9780   28.0860   40.9100 C   0  0  0  0  0  3  0  0  0  0  0  0
   39.6390   31.0410   38.5850 H   0  0  0  0  0  0  0  0  0  0  0  0
   40.2000   29.8030   38.8500 S   0  0  0  0  0  0  0  0  0  0  0  0
   39.6450   28.8520   37.8180 O   0  0  0  0  0  0  0  0  0  0  0  0
   41.6940   29.8950   38.7720 O   0  0  0  0  0  0  0  0  0  0  0  0
  1  6  1  0  0  0  0
  2  3  1  0  0  0  0
  2  1  2  0  0  0  0
  3  4  2  0  0  0  0
  4  9  1  0  0  0  0
  4  5  1  0  0  0  0
  5 10  1  0  0  0  0
  6  5  2  0  0  0  0
  6 23  1  0  0  0  0
  7  2  1  0  0  0  0
  8  3  1  0  0  0  0
 11 12  1  0  0  0  0
 11 18  1  0  0  0  0
 12 19  1  0  0  0  0
 13  1  1  0  0  0  0
 13 12  2  0  0  0  0
 14 13  1  0  0  0  0
 15 14  2  0  0  0  0
 15 16  1  0  0  0  0
 16 11  2  0  0  0  0
 17 15  1  0  0  0  0
 20 17  1  0  0  0  0
 21 17  1  0  0  0  0
 22 29  2  0  0  0  0
 22 23  1  0  0  0  0
 23 24  2  0  0  0  0
 24 26  1  0  0  0  0
 24 25  1  0  0  0  0
 26 27  1  0  0  0  0
 28 26  2  0  0  0  0
 29 28  1  0  0  0  0
 30 31  1  0  0  0  0
 31 22  1  0  0  0  0
 32 31  2  0  0  0  0
 33 31  2  0  0  0  0
M  END
>  <minimizedAffinity>
-5.1766696

$$$$
