
 OpenBabel03252508253D

 44 48  0  0  1  0  0  0  0  0999 V2000
   46.3010   32.3640   46.2950 C   0  0  1  0  0  0  0  0  0  0  0  0
   46.7080   32.5430   47.6950 C   0  0  0  0  0  0  0  0  0  0  0  0
   45.3540   31.8480   47.2620 C   0  0  2  0  0  0  0  0  0  0  0  0
   47.1570   31.7660   45.8130 H   0  0  0  0  0  0  0  0  0  0  0  0
   47.3380   31.8380   48.2600 H   0  0  0  0  0  0  0  0  0  0  0  0
   46.6160   33.5180   48.2000 H   0  0  0  0  0  0  0  0  0  0  0  0
   44.5760   32.4860   47.7910 H   0  0  0  0  0  0  0  0  0  0  0  0
   45.1400   30.4330   47.5660 C   0  0  0  0  0  0  0  0  0  0  0  0
   45.0440   29.8550   48.7940 C   0  0  0  0  0  0  0  0  0  0  0  0
   44.9710   28.4910   49.0510 C   0  0  0  0  0  0  0  0  0  0  0  0
   45.0000   27.6450   47.9240 C   0  0  0  0  0  0  0  0  0  0  0  0
   45.0950   28.2130   46.6620 C   0  0  0  0  0  0  0  0  0  0  0  0
   45.0610   27.3440   45.5870 C   0  0  0  0  0  0  0  0  0  0  0  0
   45.0850   27.8640   44.2910 C   0  0  0  0  0  0  0  0  0  0  0  0
   45.1390   29.2280   44.0860 C   0  0  0  0  0  0  0  0  0  0  0  0
   45.1730   30.0440   45.1920 C   0  0  0  0  0  0  0  0  0  0  0  0
   45.1610   29.5770   46.4930 C   0  0  0  0  0  0  0  0  0  0  0  0
   45.0260   30.5550   49.6320 H   0  0  0  0  0  0  0  0  0  0  0  0
   44.8970   28.1510   50.0550 H   0  0  0  0  0  0  0  0  0  0  0  0
   44.9460   26.5990   48.1420 H   0  0  0  0  0  0  0  0  0  0  0  0
   45.0150   26.2690   45.7730 H   0  0  0  0  0  0  0  0  0  0  0  0
   45.0560   27.0830   43.5250 H   0  0  0  0  0  0  0  0  0  0  0  0
   45.1460   29.4290   43.0390 H   0  0  0  0  0  0  0  0  0  0  0  0
   45.1260   31.0150   44.7870 H   0  0  0  0  0  0  0  0  0  0  0  0
   44.6760   35.4660   45.1420 C   0  0  0  0  0  0  0  0  0  0  0  0
   45.2080   35.6290   43.8240 C   0  0  0  0  0  0  0  0  0  0  0  0
   46.1210   34.6580   43.3730 C   0  0  0  0  0  0  0  0  0  0  0  0
   46.4430   33.6460   44.1940 N   0  0  0  0  0  0  0  0  0  0  0  0
   45.9160   33.5260   45.4450 C   0  0  0  0  0  0  0  0  0  0  0  0
   45.0490   34.4200   45.9070 N   0  0  0  0  0  0  0  0  0  0  0  0
   43.9820   36.1950   45.4930 H   0  0  0  0  0  0  0  0  0  0  0  0
   44.9370   36.4760   43.2420 H   0  0  0  0  0  0  0  0  0  0  0  0
   46.4760   34.0710   40.9190 C   0  0  0  0  0  0  0  0  0  0  0  0
   46.8100   34.6710   42.1030 C   0  0  0  0  0  0  0  0  0  0  0  0
   48.0230   35.3730   42.0680 C   0  0  0  0  0  0  0  0  0  0  0  0
   48.3850   35.8880   42.9600 H   0  0  0  0  0  0  0  0  0  0  0  0
   48.8560   35.4960   40.9840 C   0  0  0  0  0  0  0  0  0  0  0  0
   49.7750   36.0500   41.0210 H   0  0  0  0  0  0  0  0  0  0  0  0
   48.4950   34.8890   39.8130 C   0  0  0  0  0  3  0  0  0  0  0  0
   47.3160   34.1900   39.8040 C   0  0  0  0  0  3  0  0  0  0  0  0
   45.0440   32.6360   39.4380 H   0  0  0  0  0  0  0  0  0  0  0  0
   45.0770   33.0840   40.7830 S   0  0  0  0  0  0  0  0  0  0  0  0
   45.1590   31.7850   41.5470 O   0  0  0  0  0  0  0  0  0  0  0  0
   43.7720   33.7880   40.9350 O   0  0  0  0  0  0  0  0  0  0  0  0
  1  4  1  6  0  0  0
  1  3  1  0  0  0  0
  1  2  1  0  0  0  0
  2  6  1  0  0  0  0
  2  5  1  0  0  0  0
  3  8  1  0  0  0  0
  3  2  1  0  0  0  0
  3  7  1  1  0  0  0
  8  9  1  0  0  0  0
  9 10  2  0  0  0  0
  9 18  1  0  0  0  0
 10 19  1  0  0  0  0
 11 20  1  0  0  0  0
 11 10  1  0  0  0  0
 12 11  2  0  0  0  0
 13 21  1  0  0  0  0
 13 12  1  0  0  0  0
 14 13  2  0  0  0  0
 15 14  1  0  0  0  0
 15 16  2  0  0  0  0
 16 17  1  0  0  0  0
 17 12  1  0  0  0  0
 17  8  2  0  0  0  0
 22 14  1  0  0  0  0
 23 15  1  0  0  0  0
 24 16  1  0  0  0  0
 25 31  1  0  0  0  0
 25 30  1  0  0  0  0
 26 25  2  0  0  0  0
 27 26  1  0  0  0  0
 27 28  2  0  0  0  0
 28 29  1  0  0  0  0
 29 30  2  0  0  0  0
 29  1  1  0  0  0  0
 32 26  1  0  0  0  0
 33 34  1  0  0  0  0
 34 27  1  0  0  0  0
 35 34  2  0  0  0  0
 35 36  1  0  0  0  0
 37 38  1  0  0  0  0
 37 35  1  0  0  0  0
 39 37  2  0  0  0  0
 40 39  1  0  0  0  0
 40 33  2  0  0  0  0
 41 42  1  0  0  0  0
 42 33  1  0  0  0  0
 42 44  2  0  0  0  0
 42 43  2  0  0  0  0
M  END
>  <minimizedAffinity>
-6.22750425

>  <minimizedRMSD>
0.587821424

$$$$
