
     RDKit          3D

 33 35  0  0  0  0  0  0  0  0999 V2000
   44.5634   35.5306   45.0032 C   0  0  0  0  0  0  0  0  0  0  0  0
   45.1974   35.4495   43.7658 C   0  0  0  0  0  0  0  0  0  0  0  0
   46.1446   34.4386   43.5894 C   0  0  0  0  0  0  0  0  0  0  0  0
   46.3967   33.5905   44.6311 N   0  0  0  0  0  0  0  0  0  0  0  0
   45.7652   33.6953   45.8187 C   0  0  0  0  0  0  0  0  0  0  0  0
   44.8391   34.6817   45.9946 N   0  0  0  0  0  0  0  0  0  0  0  0
   46.0183   32.8023   46.9426 C   0  0  0  0  0  0  0  0  0  0  0  0
   47.2151   32.1583   47.0794 C   0  0  0  0  0  0  0  0  0  0  0  0
   47.5052   31.3053   48.1216 C   0  0  0  0  0  0  0  0  0  0  0  0
   46.5391   31.0768   49.0951 C   0  0  0  0  0  0  0  0  0  0  0  0
   45.3335   31.7041   48.9884 C   0  0  0  0  0  0  0  0  0  0  0  0
   45.0924   32.5510   47.9221 C   0  0  0  0  0  0  0  0  0  0  0  0
   43.8204   36.2983   45.1890 H   0  0  0  0  0  0  0  0  0  0  0  0
   44.9887   36.1186   42.9656 H   0  0  0  0  0  0  0  0  0  0  0  0
   46.6753   34.3175   42.6536 H   0  0  0  0  0  0  0  0  0  0  0  0
   47.9899   32.3157   46.3430 H   0  0  0  0  0  0  0  0  0  0  0  0
   46.7144   30.4169   49.9342 H   0  0  0  0  0  0  0  0  0  0  0  0
   44.5456   31.5555   49.7275 H   0  0  0  0  0  0  0  0  0  0  0  0
   44.1216   33.0377   47.8628 H   0  0  0  0  0  0  0  0  0  0  0  0
   46.8099   29.1943   46.5871 H   0  0  0  0  0  0  0  0  0  0  0  0
   48.0987   28.7828   46.4555 S   0  0  0  0  0  0  0  0  0  0  0  0
   48.5590   29.0680   45.0404 O   0  0  0  0  0  0  0  0  0  0  0  0
   48.0783   27.2661   46.6079 O   0  0  0  0  0  0  0  0  0  0  0  0
   49.1674   29.4531   47.6516 C   0  0  0  0  0  0  0  0  0  0  0  0
   48.7579   30.5865   48.3209 C   0  0  0  0  0  0  0  0  0  0  0  0
   49.6142   31.1077   49.2758 C   0  0  0  0  0  0  0  0  0  0  0  0
   49.4006   32.0010   49.8712 H   0  0  0  0  0  0  0  0  0  0  0  0
   50.8404   30.5187   49.5553 C   0  0  0  0  0  0  0  0  0  0  0  0
   51.5474   30.8847   50.2913 H   0  0  0  0  0  0  0  0  0  0  0  0
   51.2149   29.3862   48.8646 C   0  0  0  0  0  0  0  0  0  0  0  0
   50.3796   28.8457   47.9073 C   0  0  0  0  0  0  0  0  0  0  0  0
   52.1531   28.8663   49.0220 H   0  0  0  0  0  0  0  0  0  0  0  0
   50.6325   27.9435   47.3289 H   0  0  0  0  0  0  0  0  0  0  0  0
  1  6  2  0
  2  1  1  0
  3  2  2  0
  3  4  1  0
  4  5  2  0
  5  6  1  0
  5  7  1  0
  7  8  2  0
  7 12  1  0
  8  9  1  0
  9 10  2  0
 11 10  1  0
 12 11  2  0
  1 13  1  0
  2 14  1  0
  3 15  1  0
  8 16  1  0
 10 17  1  0
 11 18  1  0
 12 19  1  0
 20 21  1  0
 21 22  2  0
 21 23  2  0
 21 24  1  0
 24 25  2  0
 25 26  1  0
 26 27  1  0
 26 28  2  0
 28 29  1  0
 28 30  1  0
 30 31  2  0
 31 24  1  0
 30 32  1  0
 31 33  1  0
  9 25  1  0
M  ISO  8  13  14  14  14  15  14  16  14  17  14  18  14  19  14  20  12
M  ISO  2  27  15  29  16
M  END
>  <DihAtoms>  (1) 
7,8,24,23

>  <DihDeg>  (1) 
-47.00910829204189

$$$$
