REMARK  Name = 
REMARK  3 active torsions:
REMARK  status: ('A' for Active; 'I' for Inactive)
REMARK    1  A    between atoms: C_2  and  C_22
REMARK    2  A    between atoms: C_3  and  C_7
REMARK    3  A    between atoms: S_18  and  C_21
REMARK                            x       y       z     vdW  Elec       q    Type
REMARK                         _______ _______ _______ _____ _____    ______ ____
ROOT
ATOM      1  C   UNL     1      44.568  35.908  44.316  0.00  0.00    +0.000 A 
ATOM      2  C   UNL     1      45.332  35.907  43.117  0.00  0.00    +0.000 A 
ATOM      3  C   UNL     1      46.308  34.914  43.036  0.00  0.00    +0.000 A 
ATOM      4  N   UNL     1      46.497  34.011  44.063  0.00  0.00    +0.000 NA
ATOM      5  C   UNL     1      45.740  34.062  45.175  0.00  0.00    +0.000 A 
ATOM      6  N   UNL     1      44.775  35.015  45.296  0.00  0.00    +0.000 NA
ATOM      7  H   UNL     1      43.806  36.658  44.417  0.00  0.00    +0.000 HD
ATOM      8  H   UNL     1      46.010  33.289  45.881  0.00  0.00    +0.000 HD
ENDROOT
BRANCH   3   9
ATOM      9  C   UNL     1      47.085  34.822  41.742  0.00  0.00    +0.000 C 
ATOM     10  C   UNL     1      48.472  35.452  41.890  0.00  0.00    +0.000 C 
ATOM     11  C   UNL     1      48.219  33.922  41.722  0.00  0.00    +0.000 C 
ATOM     12  H   UNL     1      46.594  35.376  40.898  0.00  0.00    +0.000 HD
ATOM     13  H   UNL     1      48.857  35.710  42.879  0.00  0.00    +0.000 HD
ATOM     14  H   UNL     1      48.946  35.936  41.031  0.00  0.00    +0.000 HD
ATOM     15  H   UNL     1      48.547  33.493  40.754  0.00  0.00    +0.000 HD
ATOM     16  H   UNL     1      48.380  33.284  42.605  0.00  0.00    +0.000 HD
ENDBRANCH   3   9
BRANCH   2  18
ATOM     17  C   UNL     1      44.778  36.583  40.761  0.00  0.00    +0.000 A 
ATOM     18  C   UNL     1      45.121  36.868  42.043  0.00  0.00    +0.000 A 
ATOM     19  C   UNL     1      45.304  38.199  42.430  0.00  0.00    +0.000 A 
ATOM     20  H   UNL     1      45.580  38.496  43.444  0.00  0.00    +0.000 HD
ATOM     21  C   UNL     1      45.132  39.221  41.497  0.00  0.00    +0.000 A 
ATOM     22  H   UNL     1      45.268  40.256  41.774  0.00  0.00    +0.000 HD
ATOM     23  C   UNL     1      44.780  38.853  40.201  0.00  0.00    +0.000 A 
ATOM     24  C   UNL     1      44.597  37.546  39.809  0.00  0.00    +0.000 A 
BRANCH  17  26
ATOM     25  H   UNL     1      45.274  34.677  39.162  0.00  0.00    +0.000 HD
ATOM     26  S   UNL     1      44.563  34.917  40.333  0.00  0.00    +0.000 S 
ATOM     27  O   UNL     1      43.135  34.586  39.996  0.00  0.00    +0.000 OA
ATOM     28  O   UNL     1      45.048  33.956  41.348  0.00  0.00    +0.000 OA
ENDBRANCH  17  26
ENDBRANCH   2  18
TORSDOF 3
