
     RDKit          3D

 30 32  0  0  0  0  0  0  0  0999 V2000
   44.5680   35.9082   44.3160 C   0  0  0  0  0  0  0  0  0  0  0  0
   45.3321   35.9073   43.1167 C   0  0  0  0  0  0  0  0  0  0  0  0
   46.3084   34.9143   43.0365 C   0  0  0  0  0  0  0  0  0  0  0  0
   46.4971   34.0107   44.0631 N   0  0  0  0  0  0  0  0  0  0  0  0
   45.7399   34.0618   45.1755 C   0  0  0  0  0  0  0  0  0  0  0  0
   44.7751   35.0152   45.2961 N   0  0  0  0  0  0  0  0  0  0  0  0
   47.0853   34.8224   41.7418 C   0  0  0  0  0  0  0  0  0  0  0  0
   48.4719   35.4523   41.8903 C   0  0  0  0  0  0  0  0  0  0  0  0
   48.2192   33.9217   41.7219 C   0  0  0  0  0  0  0  0  0  0  0  0
   43.8065   36.6576   44.4169 H   0  0  0  0  0  0  0  0  0  0  0  0
   46.0095   33.2891   45.8811 H   0  0  0  0  0  0  0  0  0  0  0  0
   46.5944   35.3758   40.8983 H   0  0  0  0  0  0  0  0  0  0  0  0
   48.8572   35.7100   42.8790 H   0  0  0  0  0  0  0  0  0  0  0  0
   48.9460   35.9357   41.0307 H   0  0  0  0  0  0  0  0  0  0  0  0
   48.5469   33.4934   40.7536 H   0  0  0  0  0  0  0  0  0  0  0  0
   48.3795   33.2838   42.6055 H   0  0  0  0  0  0  0  0  0  0  0  0
   45.6950   39.9738   43.8151 H   0  0  0  0  0  0  0  0  0  0  0  0
   46.3077   38.7818   43.4446 S   0  0  0  0  0  0  0  0  0  0  0  0
   47.7405   39.1495   43.1695 O   0  0  0  0  0  0  0  0  0  0  0  0
   46.2639   37.8806   44.6173 O   0  0  0  0  0  0  0  0  0  0  0  0
   45.4949   38.1721   42.0400 C   0  0  0  0  0  0  0  0  0  0  0  0
   45.1208   36.8676   42.0426 C   0  0  0  0  0  0  0  0  0  0  0  0
   44.4624   36.3355   40.9291 C   0  0  0  0  0  0  0  0  0  0  0  0
   44.1349   35.2959   40.8664 H   0  0  0  0  0  0  0  0  0  0  0  0
   44.1966   37.1487   39.8280 C   0  0  0  0  0  0  0  0  0  0  0  0
   43.6898   36.7591   38.9583 H   0  0  0  0  0  0  0  0  0  0  0  0
   44.6102   38.4765   39.8978 C   0  0  0  0  0  0  0  0  0  0  0  0
   45.2589   39.0110   40.9882 C   0  0  0  0  0  0  0  0  0  0  0  0
   44.4014   39.0925   39.0473 H   0  0  0  0  0  0  0  0  0  0  0  0
   45.5635   40.0581   40.9958 H   0  0  0  0  0  0  0  0  0  0  0  0
  1  6  2  0
  2  1  1  0
  3  2  2  0
  3  4  1  0
  4  5  2  0
  5  6  1  0
  7  8  1  0
  7  9  1  0
  7  3  1  0
  8  9  1  0
  1 10  1  0
  5 11  1  0
  7 12  1  0
  8 13  1  0
  8 14  1  0
  9 15  1  0
  9 16  1  0
 17 18  1  0
 18 19  2  0
 18 20  2  0
 18 21  1  0
 21 22  2  0
 22 23  1  0
 23 24  1  0
 23 25  2  0
 25 26  1  0
 25 27  1  0
 27 28  2  0
 28 21  1  0
 27 29  1  0
 28 30  1  0
  2 22  1  0
M  ISO  8  10  14  11  14  12  13  13  13  14  13  15  13  16  13  17  12
M  ISO  2  24  15  26  16
M  END
>  <DihAtoms>  (1) 
0,1,21,20

>  <DihDeg>  (1) 
89.99889221134985

$$$$
