
 OpenBabel03242516203D

 31 33  0  0  0  0  0  0  0  0999 V2000
   46.1560   32.7140   46.9090 C   0  0  0  0  0  0  0  0  0  0  0  0
   47.2370   31.8820   46.8420 C   0  0  0  0  0  0  0  0  0  0  0  0
   47.5720   30.9880   47.8370 C   0  0  0  0  0  0  0  0  0  0  0  0
   46.7770   30.9170   48.9750 C   0  0  0  0  0  0  0  0  0  0  0  0
   45.6900   31.7330   49.0720 C   0  0  0  0  0  0  0  0  0  0  0  0
   45.3970   32.6130   48.0460 C   0  0  0  0  0  0  0  0  0  0  0  0
   47.8790   31.9140   45.9740 H   0  0  0  0  0  0  0  0  0  0  0  0
   46.9940   30.2340   49.7840 H   0  0  0  0  0  0  0  0  0  0  0  0
   45.0370   31.7120   49.9450 H   0  0  0  0  0  0  0  0  0  0  0  0
   44.5240   33.2530   48.1520 H   0  0  0  0  0  0  0  0  0  0  0  0
   44.5600   35.4580   45.1060 C   0  0  0  0  0  0  0  0  0  0  0  0
   45.1770   35.4540   43.8580 C   0  0  0  0  0  0  0  0  0  0  0  0
   46.1620   34.4920   43.6250 C   0  0  0  0  0  0  0  0  0  0  0  0
   46.4650   33.6110   44.6270 N   0  0  0  0  0  0  0  0  0  0  0  0
   45.8490   33.6410   45.8270 C   0  0  0  0  0  0  0  0  0  0  0  0
   44.8860   34.5810   46.0580 N   0  0  0  0  0  0  0  0  0  0  0  0
   43.7890   36.1850   45.3350 H   0  0  0  0  0  0  0  0  0  0  0  0
   44.9290   36.1460   43.0900 H   0  0  0  0  0  0  0  0  0  0  0  0
   46.6820   34.4310   42.6790 H   0  0  0  0  0  0  0  0  0  0  0  0
   49.8260   30.1450   48.6250 C   0  0  0  0  0  0  0  0  0  0  0  0
   48.7070   30.0740   47.8230 C   0  0  0  0  0  0  0  0  0  0  0  0
   48.6400   29.0320   46.9150 C   0  0  0  0  0  0  0  0  0  0  0  0
   47.8040   28.8700   46.2260 H   0  0  0  0  0  0  0  0  0  0  0  0
   49.6540   28.0900   46.8080 C   0  0  0  0  0  0  0  0  0  0  0  0
   49.6510   27.2550   46.1150 H   0  0  0  0  0  0  0  0  0  0  0  0
   50.7570   28.1950   47.6270 C   0  0  0  0  0  3  0  0  0  0  0  0
   50.8500   29.2240   48.5430 C   0  0  0  0  0  3  0  0  0  0  0  0
   48.8210   32.2410   49.7900 H   0  0  0  0  0  0  0  0  0  0  0  0
   49.9290   31.4530   49.7650 S   0  0  0  0  0  0  0  0  0  0  0  0
   50.2180   30.9740   51.1740 O   0  0  0  0  0  0  0  0  0  0  0  0
   51.0880   32.3620   49.3700 O   0  0  0  0  0  0  0  0  0  0  0  0
  1  6  1  0  0  0  0
  2  1  2  0  0  0  0
  2  3  1  0  0  0  0
  3  4  2  0  0  0  0
  4  5  1  0  0  0  0
  4  8  1  0  0  0  0
  5  9  1  0  0  0  0
  6 10  1  0  0  0  0
  6  5  2  0  0  0  0
  7  2  1  0  0  0  0
 11 17  1  0  0  0  0
 11 16  1  0  0  0  0
 12 11  2  0  0  0  0
 13 12  1  0  0  0  0
 13 14  2  0  0  0  0
 14 15  1  0  0  0  0
 15 16  2  0  0  0  0
 15  1  1  0  0  0  0
 18 12  1  0  0  0  0
 19 13  1  0  0  0  0
 20 29  1  0  0  0  0
 21  3  1  0  0  0  0
 21 20  2  0  0  0  0
 22 21  1  0  0  0  0
 23 22  1  0  0  0  0
 24 22  2  0  0  0  0
 24 26  1  0  0  0  0
 25 24  1  0  0  0  0
 26 27  2  0  0  0  0
 27 20  1  0  0  0  0
 29 28  1  0  0  0  0
 29 30  2  0  0  0  0
 31 29  2  0  0  0  0
M  END
>  <minimizedAffinity>
-5.6102438

>  <minimizedRMSD>
0.758091509

$$$$
