
 OpenBabel03242522503D

 29 30  0  0  0  0  0  0  0  0999 V2000
   47.5540   31.9170   48.3350 O   0  0  0  0  0  0  0  0  0  0  0  0
   45.3540   30.7220   47.6150 O   0  0  0  0  0  0  0  0  0  0  0  0
   45.9020   31.9500   48.3910 P   0  0  1  0  0  0  0  0  0  0  0  0
   45.3030   31.7720   49.9520 O   0  0  0  0  0  0  0  0  0  0  0  0
   45.3970   30.8350   50.2130 H   0  0  0  0  0  0  0  0  0  0  0  0
   45.2670   33.3380   47.6700 O   0  0  0  0  0  0  0  0  0  0  0  0
   46.9290   33.2390   44.4390 C   0  0  0  0  0  0  0  0  0  0  0  0
   46.5900   32.9470   45.7680 C   0  0  0  0  0  0  0  0  0  0  0  0
   45.5710   33.6510   46.3630 C   0  0  0  0  0  0  0  0  0  0  0  0
   44.9330   34.6050   45.6290 N   0  0  0  0  0  0  0  0  0  0  0  0
   45.2670   34.8720   44.3610 C   0  0  0  0  0  0  0  0  0  0  0  0
   46.2570   34.2010   43.7590 N   0  0  0  0  0  0  0  0  0  0  0  0
   47.7130   32.7450   43.8830 H   0  0  0  0  0  0  0  0  0  0  0  0
   47.2020   32.1750   46.1550 H   0  0  0  0  0  0  0  0  0  0  0  0
   44.6490   35.6610   43.9390 H   0  0  0  0  0  0  0  0  0  0  0  0
   48.4820   31.0130   48.7040 C   0  0  0  0  0  0  0  0  0  0  0  0
   48.1840   30.4350   49.8460 O   0  0  0  0  0  0  0  0  0  0  0  0
   50.9390   30.7960   48.9120 C   0  0  0  0  0  0  0  0  0  0  0  0
   49.7850   30.3690   48.3270 C   0  0  0  0  0  0  0  0  0  0  0  0
   49.8370   29.3520   47.3570 C   0  0  0  0  0  0  0  0  0  0  0  0
   48.8580   29.0640   46.9310 H   0  0  0  0  0  0  0  0  0  0  0  0
   50.9560   28.7100   46.9080 C   0  0  0  0  0  0  0  0  0  0  0  0
   50.8380   27.9510   46.1590 H   0  0  0  0  0  0  0  0  0  0  0  0
   52.1170   29.1340   47.4900 C   0  0  0  0  0  3  0  0  0  0  0  0
   52.0870   30.1230   48.4370 C   0  0  0  0  0  3  0  0  0  0  0  0
   52.5240   32.1970   50.3020 H   0  0  0  0  0  0  0  0  0  0  0  0
   51.1520   32.0080   50.1230 S   0  0  0  0  0  0  0  0  0  0  0  0
   50.6420   33.3570   49.7030 O   0  0  0  0  0  0  0  0  0  0  0  0
   50.6760   31.6000   51.4990 O   0  0  0  0  0  0  0  0  0  0  0  0
  1  3  1  0  0  0  0
  1 16  1  0  0  0  0
  3  2  2  6  0  0  0
  3  4  1  0  0  0  0
  4  5  1  0  0  0  0
  6  3  1  0  0  0  0
  7  8  1  0  0  0  0
  8 14  1  0  0  0  0
  8  9  2  0  0  0  0
  9  6  1  0  0  0  0
 10  9  1  0  0  0  0
 11 10  2  0  0  0  0
 12 11  1  0  0  0  0
 12  7  2  0  0  0  0
 13  7  1  0  0  0  0
 15 11  1  0  0  0  0
 16 17  2  0  0  0  0
 18 27  1  0  0  0  0
 19 16  1  0  0  0  0
 19 18  2  0  0  0  0
 20 19  1  0  0  0  0
 21 20  1  0  0  0  0
 22 20  2  0  0  0  0
 22 24  1  0  0  0  0
 23 22  1  0  0  0  0
 24 25  2  0  0  0  0
 25 18  1  0  0  0  0
 27 26  1  0  0  0  0
 27 29  2  0  0  0  0
 28 27  2  0  0  0  0
M  END
>  <minimizedAffinity>
-4.59394979

>  <minimizedRMSD>
1.13335419

$$$$
