
     RDKit          3D

 31 32  0  0  0  0  0  0  0  0999 V2000
   46.5392   33.6229   44.3396 C   0  0  0  0  0  0  0  0  0  0  0  0
   46.2451   33.2114   45.6485 C   0  0  0  0  0  0  0  0  0  0  0  0
   45.2990   33.9033   46.3648 C   0  0  0  0  0  0  0  0  0  0  0  0
   44.6861   34.9626   45.7671 N   0  0  0  0  0  0  0  0  0  0  0  0
   44.9762   35.3443   44.5173 C   0  0  0  0  0  0  0  0  0  0  0  0
   45.8950   34.6865   43.7990 N   0  0  0  0  0  0  0  0  0  0  0  0
   45.0384   33.4708   47.6474 O   0  0  0  0  0  0  0  0  0  0  0  0
   45.3177   30.8737   47.4686 O   0  0  0  0  0  0  0  0  0  0  0  0
   45.8149   32.1078   48.2694 P   0  0  2  0  0  0  0  0  0  0  0  0
   45.3205   31.8200   49.8501 O   0  0  0  0  0  0  0  0  0  0  0  0
   47.4588   32.2062   48.1229 O   0  0  0  0  0  0  0  0  0  0  0  0
   48.4794   31.4245   48.5266 C   0  0  0  0  0  0  0  0  0  0  0  0
   49.2196   32.0078   49.4417 O   0  0  0  0  0  0  0  0  0  0  0  0
   47.2646   33.1478   43.6956 H   0  0  0  0  0  0  0  0  0  0  0  0
   46.8265   32.3697   45.9206 H   0  0  0  0  0  0  0  0  0  0  0  0
   44.3882   36.2061   44.2122 H   0  0  0  0  0  0  0  0  0  0  0  0
   45.5002   30.8843   50.0633 H   0  0  0  0  0  0  0  0  0  0  0  0
   46.7751   27.9281   46.2437 H   0  0  0  0  0  0  0  0  0  0  0  0
   46.9679   29.1513   46.8886 S   0  0  0  0  0  0  0  0  0  0  0  0
   45.8254   29.2444   47.8596 O   0  0  0  0  0  0  0  0  0  0  0  0
   46.8683   30.1554   45.7627 O   0  0  0  0  0  0  0  0  0  0  0  0
   48.5116   29.1046   47.6608 C   0  0  0  0  0  0  0  0  0  0  0  0
   49.1522   30.0938   48.3433 C   0  0  0  0  0  0  0  0  0  0  0  0
   50.4224   29.8434   48.8930 C   0  0  0  0  0  0  0  0  0  0  0  0
   50.8745   30.6977   49.4312 H   0  0  0  0  0  0  0  0  0  0  0  0
   51.1253   28.6736   48.8227 C   0  0  0  0  0  0  0  0  0  0  0  0
   52.0882   28.6322   49.2933 H   0  0  0  0  0  0  0  0  0  0  0  0
   50.4866   27.6781   48.1392 C   0  0  0  0  0  0  0  0  0  0  0  0
   49.2497   27.9027   47.5968 C   0  0  0  0  0  0  0  0  0  0  0  0
   50.9822   26.7346   48.0467 H   0  0  0  0  0  0  0  0  0  0  0  0
   48.8228   27.0476   47.0715 H   0  0  0  0  0  0  0  0  0  0  0  0
  1  2  2  0
  2  3  1  0
  3  7  1  0
  4  3  2  0
  5  4  1  0
  6  1  1  0
  6  5  2  0
  9  7  1  6
  9  8  2  0
  9 10  1  0
 11  9  1  0
 11 12  1  0
 12 13  2  0
  1 14  1  0
  2 15  1  0
  5 16  1  0
 10 17  1  0
 18 19  1  0
 19 20  2  0
 19 21  2  0
 19 22  1  0
 22 23  2  0
 23 24  1  0
 24 25  1  0
 24 26  2  0
 26 27  1  0
 26 28  1  0
 28 29  2  0
 29 22  1  0
 28 30  1  0
 29 31  1  0
 12 23  1  0
M  ISO  7  14  14  15  14  16  14  17   3  18  12  25  15  27  16
M  END
>  <DihAtoms>  (1) 
10,11,22,21

>  <DihDeg>  (1) 
-178.43772882615795

$$$$
