
 OpenBabel03242522503D

 29 30  0  0  0  0  0  0  0  0999 V2000
   47.4110   31.8160   48.0620 O   0  0  0  0  0  0  0  0  0  0  0  0
   45.0960   30.7150   47.5970 O   0  0  0  0  0  0  0  0  0  0  0  0
   45.7750   31.9370   48.2720 P   0  0  1  0  0  0  0  0  0  0  0  0
   45.3200   31.8410   49.8870 O   0  0  0  0  0  0  0  0  0  0  0  0
   45.3930   30.9100   50.1730 H   0  0  0  0  0  0  0  0  0  0  0  0
   45.1430   33.3320   47.5630 O   0  0  0  0  0  0  0  0  0  0  0  0
   46.9060   33.3200   44.3840 C   0  0  0  0  0  0  0  0  0  0  0  0
   46.5180   32.9840   45.6890 C   0  0  0  0  0  0  0  0  0  0  0  0
   45.4960   33.6880   46.2790 C   0  0  0  0  0  0  0  0  0  0  0  0
   44.9030   34.6850   45.5630 N   0  0  0  0  0  0  0  0  0  0  0  0
   45.2840   34.9930   44.3180 C   0  0  0  0  0  0  0  0  0  0  0  0
   46.2780   34.3230   43.7220 N   0  0  0  0  0  0  0  0  0  0  0  0
   47.6970   32.8290   43.8340 H   0  0  0  0  0  0  0  0  0  0  0  0
   47.1000   32.1840   46.0650 H   0  0  0  0  0  0  0  0  0  0  0  0
   44.6980   35.8120   43.9080 H   0  0  0  0  0  0  0  0  0  0  0  0
   48.3520   30.9760   48.5360 C   0  0  0  0  0  0  0  0  0  0  0  0
   48.1790   30.7050   49.8100 O   0  0  0  0  0  0  0  0  0  0  0  0
   49.4980   29.1720   47.2870 C   0  0  0  0  0  0  0  0  0  0  0  0
   49.5830   30.1910   48.1850 C   0  0  0  0  0  0  0  0  0  0  0  0
   50.8190   30.4720   48.7960 C   0  0  0  0  0  0  0  0  0  0  0  0
   50.8040   31.3150   49.5130 H   0  0  0  0  0  0  0  0  0  0  0  0
   52.0000   29.8160   48.5870 C   0  0  0  0  0  0  0  0  0  0  0  0
   52.8640   30.1460   49.1280 H   0  0  0  0  0  0  0  0  0  0  0  0
   51.9180   28.7930   47.6870 C   0  0  0  0  0  3  0  0  0  0  0  0
   50.7240   28.5030   47.0810 C   0  0  0  0  0  3  0  0  0  0  0  0
   48.5310   27.5850   45.5670 H   0  0  0  0  0  0  0  0  0  0  0  0
   48.1200   28.6290   46.3980 S   0  0  0  0  0  0  0  0  0  0  0  0
   47.0600   28.0170   47.2690 O   0  0  0  0  0  0  0  0  0  0  0  0
   47.5680   29.6480   45.4270 O   0  0  0  0  0  0  0  0  0  0  0  0
  1  3  1  0  0  0  0
  1 16  1  0  0  0  0
  3  2  2  6  0  0  0
  3  4  1  0  0  0  0
  4  5  1  0  0  0  0
  6  3  1  0  0  0  0
  7  8  1  0  0  0  0
  8 14  1  0  0  0  0
  8  9  2  0  0  0  0
  9  6  1  0  0  0  0
 10  9  1  0  0  0  0
 11 10  2  0  0  0  0
 12 11  1  0  0  0  0
 12  7  2  0  0  0  0
 13  7  1  0  0  0  0
 15 11  1  0  0  0  0
 16 17  2  0  0  0  0
 18 19  1  0  0  0  0
 19 16  1  0  0  0  0
 19 20  2  0  0  0  0
 20 21  1  0  0  0  0
 22 20  1  0  0  0  0
 22 23  1  0  0  0  0
 24 22  2  0  0  0  0
 25 18  2  0  0  0  0
 25 24  1  0  0  0  0
 26 27  1  0  0  0  0
 27 28  2  0  0  0  0
 27 18  1  0  0  0  0
 29 27  2  0  0  0  0
M  END
>  <minimizedAffinity>
-4.50537777

>  <minimizedRMSD>
1.08595562

$$$$
