
 OpenBabel03242522493D

 29 30  0  0  0  0  0  0  0  0999 V2000
   47.4170   31.9190   48.2050 O   0  0  0  0  0  0  0  0  0  0  0  0
   45.2840   30.8270   47.1820 O   0  0  0  0  0  0  0  0  0  0  0  0
   45.7670   31.9700   48.1150 P   0  0  1  0  0  0  0  0  0  0  0  0
   45.0280   31.6570   49.5930 O   0  0  0  0  0  0  0  0  0  0  0  0
   45.0930   30.6990   49.7730 H   0  0  0  0  0  0  0  0  0  0  0  0
   45.2090   33.4280   47.4740 O   0  0  0  0  0  0  0  0  0  0  0  0
   46.8850   33.4540   44.2480 C   0  0  0  0  0  0  0  0  0  0  0  0
   46.5440   33.1150   45.5660 C   0  0  0  0  0  0  0  0  0  0  0  0
   45.5140   33.7870   46.1790 C   0  0  0  0  0  0  0  0  0  0  0  0
   44.8670   34.7570   45.4730 N   0  0  0  0  0  0  0  0  0  0  0  0
   45.2030   35.0690   44.2160 C   0  0  0  0  0  0  0  0  0  0  0  0
   46.2040   34.4300   43.5970 N   0  0  0  0  0  0  0  0  0  0  0  0
   47.6770   32.9880   43.6800 H   0  0  0  0  0  0  0  0  0  0  0  0
   47.1640   32.3380   45.9300 H   0  0  0  0  0  0  0  0  0  0  0  0
   44.5780   35.8640   43.8170 H   0  0  0  0  0  0  0  0  0  0  0  0
   48.3010   30.9780   48.5890 C   0  0  0  0  0  0  0  0  0  0  0  0
   47.9970   30.4590   49.7580 O   0  0  0  0  0  0  0  0  0  0  0  0
   50.7360   30.5840   48.8090 C   0  0  0  0  0  0  0  0  0  0  0  0
   49.5590   30.2490   48.2110 C   0  0  0  0  0  0  0  0  0  0  0  0
   49.5450   29.2450   47.2260 C   0  0  0  0  0  0  0  0  0  0  0  0
   48.5500   29.0330   46.7910 H   0  0  0  0  0  0  0  0  0  0  0  0
   50.6190   28.5310   46.7740 C   0  0  0  0  0  0  0  0  0  0  0  0
   50.4530   27.7930   46.0130 H   0  0  0  0  0  0  0  0  0  0  0  0
   51.8020   28.8640   47.3700 C   0  0  0  0  0  3  0  0  0  0  0  0
   51.8360   29.8380   48.3310 C   0  0  0  0  0  3  0  0  0  0  0  0
   52.4080   31.9080   50.1730 H   0  0  0  0  0  0  0  0  0  0  0  0
   51.0260   31.7610   50.0390 S   0  0  0  0  0  0  0  0  0  0  0  0
   50.5400   33.1330   49.6680 O   0  0  0  0  0  0  0  0  0  0  0  0
   50.5880   31.3330   51.4210 O   0  0  0  0  0  0  0  0  0  0  0  0
  1 16  1  0  0  0  0
  3  2  2  6  0  0  0
  3  1  1  0  0  0  0
  3  4  1  0  0  0  0
  4  5  1  0  0  0  0
  6  3  1  0  0  0  0
  7  8  1  0  0  0  0
  8 14  1  0  0  0  0
  8  9  2  0  0  0  0
  9  6  1  0  0  0  0
 10  9  1  0  0  0  0
 11 10  2  0  0  0  0
 12 11  1  0  0  0  0
 12  7  2  0  0  0  0
 13  7  1  0  0  0  0
 15 11  1  0  0  0  0
 16 17  2  0  0  0  0
 18 27  1  0  0  0  0
 19 16  1  0  0  0  0
 19 18  2  0  0  0  0
 20 19  1  0  0  0  0
 21 20  1  0  0  0  0
 22 20  2  0  0  0  0
 22 24  1  0  0  0  0
 23 22  1  0  0  0  0
 24 25  2  0  0  0  0
 25 18  1  0  0  0  0
 27 26  1  0  0  0  0
 27 29  2  0  0  0  0
 28 27  2  0  0  0  0
M  END
>  <minimizedAffinity>
-4.50062895

>  <minimizedRMSD>
1.27799511

$$$$
