
     RDKit          3D

 43 45  0  0  0  0  0  0  0  0999 V2000
   45.2835   35.6221   44.2140 C   0  0  0  0  0  0  0  0  0  0  0  0
   46.2446   34.8618   43.5284 C   0  0  0  0  0  0  0  0  0  0  0  0
   46.7094   33.6623   44.0836 C   0  0  0  0  0  0  0  0  0  0  0  0
   46.2028   33.2961   45.2608 N   0  0  0  0  0  0  0  0  0  0  0  0
   45.2714   34.0457   45.9105 C   0  0  0  0  0  0  0  0  0  0  0  0
   44.8131   35.1967   45.3979 N   0  0  0  0  0  0  0  0  0  0  0  0
   48.6873   33.7722   42.5817 C   0  0  2  0  0  0  0  0  0  0  0  0
   47.7055   32.9276   43.3145 C   0  0  2  0  0  0  0  0  0  0  0  0
   47.1595   32.1564   42.2466 O   0  0  0  0  0  0  0  0  0  0  0  0
   48.2948   31.6769   41.6188 C   0  0  0  0  0  0  0  0  0  0  0  0
   49.4254   32.6419   41.8328 C   0  0  1  0  0  0  0  0  0  0  0  0
   49.4934   34.5366   43.3679 O   0  0  0  0  0  0  0  0  0  0  0  0
   49.9597   33.1622   40.6609 O   0  0  0  0  0  0  0  0  0  0  0  0
   44.8077   36.8999   43.6130 C   0  0  0  0  0  0  0  0  0  0  0  0
   45.3320   39.2656   44.4585 C   0  0  0  0  0  0  0  0  0  0  0  0
   45.6196   39.6178   43.2815 O   0  0  0  0  0  0  0  0  0  0  0  0
   44.9203   37.9161   44.6406 N   0  0  0  0  0  0  0  0  0  0  0  0
   46.5833   35.2524   42.5860 H   0  0  0  0  0  0  0  0  0  0  0  0
   44.9604   33.6133   46.8539 H   0  0  0  0  0  0  0  0  0  0  0  0
   48.2186   34.3493   41.7371 H   0  0  0  0  0  0  0  0  0  0  0  0
   48.2470   32.2136   43.9656 H   0  0  0  0  0  0  0  0  0  0  0  0
   48.5207   30.6722   42.0413 H   0  0  0  0  0  0  0  0  0  0  0  0
   48.0825   31.5263   40.5369 H   0  0  0  0  0  0  0  0  0  0  0  0
   50.2228   32.2054   42.4890 H   0  0  0  0  0  0  0  0  0  0  0  0
   49.1982   35.4928   43.3717 H   0  0  0  0  0  0  0  0  0  0  0  0
   50.5023   33.9519   40.9534 H   0  0  0  0  0  0  0  0  0  0  0  0
   43.7229   36.8008   43.3591 H   0  0  0  0  0  0  0  0  0  0  0  0
   45.4121   37.1319   42.7174 H   0  0  0  0  0  0  0  0  0  0  0  0
   44.6692   37.6168   45.6205 H   0  0  0  0  0  0  0  0  0  0  0  0
   43.9560   37.7187   45.8969 H   0  0  0  0  0  0  0  0  0  0  0  0
   44.1371   38.3843   47.0864 S   0  0  0  0  0  0  0  0  0  0  0  0
   42.8086   38.6252   47.7723 O   0  0  0  0  0  0  0  0  0  0  0  0
   45.0698   37.6060   47.9892 O   0  0  0  0  0  0  0  0  0  0  0  0
   44.9165   39.9279   46.8073 C   0  0  0  0  0  0  0  0  0  0  0  0
   45.4268   40.2184   45.5587 C   0  0  0  0  0  0  0  0  0  0  0  0
   46.0288   41.4628   45.4196 C   0  0  0  0  0  0  0  0  0  0  0  0
   46.4314   41.7128   44.4649 H   0  0  0  0  0  0  0  0  0  0  0  0
   46.1124   42.3673   46.4812 C   0  0  0  0  0  0  0  0  0  0  0  0
   46.6051   43.3078   46.2515 H   0  0  0  0  0  0  0  0  0  0  0  0
   45.5838   42.0312   47.7228 C   0  0  0  0  0  0  0  0  0  0  0  0
   44.9772   40.7929   47.8865 C   0  0  0  0  0  0  0  0  0  0  0  0
   45.6876   42.7831   48.4931 H   0  0  0  0  0  0  0  0  0  0  0  0
   44.5726   40.5553   48.8631 H   0  0  0  0  0  0  0  0  0  0  0  0
  1  6  2  0
  2  3  2  0
  2  1  1  0
  3  4  1  0
  4  5  2  0
  6  5  1  0
  7  8  1  0
  7 12  1  0
  8  3  1  0
  9  8  1  0
 10 11  1  0
 10  9  1  0
 11  7  1  0
 13 11  1  0
 14  1  1  0
 14 17  1  0
 15 17  1  0
 16 15  2  0
  2 18  1  0
  5 19  1  0
  7 20  1  6
  8 21  1  1
 10 22  1  0
 10 23  1  0
 11 24  1  1
 12 25  1  0
 13 26  1  0
 14 27  1  0
 14 28  1  0
 17 29  1  0
 30 31  1  0
 31 32  2  0
 31 33  2  0
 31 34  1  0
 34 35  2  0
 35 36  1  0
 36 37  1  0
 36 38  2  0
 38 39  1  0
 38 40  1  0
 40 41  2  0
 41 34  1  0
 40 42  1  0
 41 43  1  0
 15 35  1  0
M  ISO  8  18  14  19  14  20  13  21  13  22  13  23  13  24  13  25   3
M  ISO  6  26   3  27   8  28   8  30  12  37  15  39  16
M  END
>  <DihAtoms>  (1) 
16,14,34,33

>  <DihDeg>  (1) 
-85.65239745965303

$$$$
