
 OpenBabel03242522493D

 29 30  0  0  0  0  0  0  0  0999 V2000
   47.4470   32.2750   48.2510 O   0  0  0  0  0  0  0  0  0  0  0  0
   45.3880   30.8260   47.5810 O   0  0  0  0  0  0  0  0  0  0  0  0
   45.8040   32.1140   48.3410 P   0  0  1  0  0  0  0  0  0  0  0  0
   45.2610   31.8760   49.9150 O   0  0  0  0  0  0  0  0  0  0  0  0
   45.4700   30.9580   50.1770 H   0  0  0  0  0  0  0  0  0  0  0  0
   44.9960   33.4140   47.6290 O   0  0  0  0  0  0  0  0  0  0  0  0
   46.6720   33.5330   44.4060 C   0  0  0  0  0  0  0  0  0  0  0  0
   46.3120   33.1370   45.7020 C   0  0  0  0  0  0  0  0  0  0  0  0
   45.3220   33.8300   46.3570 C   0  0  0  0  0  0  0  0  0  0  0  0
   44.7330   34.8750   45.7110 N   0  0  0  0  0  0  0  0  0  0  0  0
   45.0860   35.2410   44.4730 C   0  0  0  0  0  0  0  0  0  0  0  0
   46.0490   34.5820   43.8150 N   0  0  0  0  0  0  0  0  0  0  0  0
   47.4360   33.0560   43.8090 H   0  0  0  0  0  0  0  0  0  0  0  0
   46.8860   32.3060   46.0190 H   0  0  0  0  0  0  0  0  0  0  0  0
   44.5080   36.0920   44.1240 H   0  0  0  0  0  0  0  0  0  0  0  0
   48.4810   31.4920   48.6150 C   0  0  0  0  0  0  0  0  0  0  0  0
   49.4120   32.1660   49.2540 O   0  0  0  0  0  0  0  0  0  0  0  0
   50.2230   29.8290   49.1910 C   0  0  0  0  0  0  0  0  0  0  0  0
   49.0350   30.0970   48.5810 C   0  0  0  0  0  0  0  0  0  0  0  0
   48.3590   29.0670   47.9030 C   0  0  0  0  0  0  0  0  0  0  0  0
   47.4020   29.3660   47.4350 H   0  0  0  0  0  0  0  0  0  0  0  0
   48.7690   27.7690   47.7740 C   0  0  0  0  0  0  0  0  0  0  0  0
   48.1440   27.0930   47.2240 H   0  0  0  0  0  0  0  0  0  0  0  0
   49.9610   27.4960   48.3830 C   0  0  0  0  0  3  0  0  0  0  0  0
   50.6330   28.4860   49.0490 C   0  0  0  0  0  3  0  0  0  0  0  0
   52.2970   30.1470   50.6070 H   0  0  0  0  0  0  0  0  0  0  0  0
   51.2400   30.8970   50.0880 S   0  0  0  0  0  0  0  0  0  0  0  0
   51.9070   31.9360   49.2300 O   0  0  0  0  0  0  0  0  0  0  0  0
   50.5900   31.4810   51.3220 O   0  0  0  0  0  0  0  0  0  0  0  0
  1  3  1  0  0  0  0
  1 16  1  0  0  0  0
  3  2  2  6  0  0  0
  3  4  1  0  0  0  0
  4  5  1  0  0  0  0
  6  3  1  0  0  0  0
  7  8  1  0  0  0  0
  8 14  1  0  0  0  0
  8  9  2  0  0  0  0
  9  6  1  0  0  0  0
 10  9  1  0  0  0  0
 11 10  2  0  0  0  0
 12  7  2  0  0  0  0
 12 11  1  0  0  0  0
 13  7  1  0  0  0  0
 15 11  1  0  0  0  0
 16 17  2  0  0  0  0
 18 27  1  0  0  0  0
 19 16  1  0  0  0  0
 19 18  2  0  0  0  0
 20 19  1  0  0  0  0
 21 20  1  0  0  0  0
 22 20  2  0  0  0  0
 22 24  1  0  0  0  0
 23 22  1  0  0  0  0
 24 25  2  0  0  0  0
 25 18  1  0  0  0  0
 27 26  1  0  0  0  0
 27 29  2  0  0  0  0
 28 27  2  0  0  0  0
M  END
>  <minimizedAffinity>
-5.01229572

>  <minimizedRMSD>
0.37717846

$$$$
