
 OpenBabel03242516553D

 48 51  0  0  1  0  0  0  0  0999 V2000
   36.6470   30.4770   39.1170 C   0  0  1  0  0  0  0  0  0  0  0  0
   36.8620   29.4920   38.0580 C   0  0  0  0  0  0  0  0  0  0  0  0
   35.4980   29.2450   37.4190 C   0  0  0  0  0  0  0  0  0  0  0  0
   34.6680   28.5000   38.4490 C   0  0  0  0  0  0  0  0  0  0  0  0
   34.5780   29.1800   39.7830 C   0  0  0  0  0  0  0  0  0  0  0  0
   35.7560   29.9360   40.2410 C   0  0  1  0  0  0  0  0  0  0  0  0
   36.0100   31.3180   38.7020 H   0  0  0  0  0  0  0  0  0  0  0  0
   37.4950   29.9320   37.2710 H   0  0  0  0  0  0  0  0  0  0  0  0
   37.2300   28.5060   38.3960 H   0  0  0  0  0  0  0  0  0  0  0  0
   35.0050   30.1840   37.1160 H   0  0  0  0  0  0  0  0  0  0  0  0
   35.6780   28.5490   36.5860 H   0  0  0  0  0  0  0  0  0  0  0  0
   35.1980   27.5250   38.5830 H   0  0  0  0  0  0  0  0  0  0  0  0
   33.6340   28.3240   38.0680 H   0  0  0  0  0  0  0  0  0  0  0  0
   33.6570   29.8240   39.7540 H   0  0  0  0  0  0  0  0  0  0  0  0
   34.3640   28.3800   40.5220 H   0  0  0  0  0  0  0  0  0  0  0  0
   35.3870   30.8590   40.7770 H   0  0  0  0  0  0  0  0  0  0  0  0
   38.8310   33.0200   40.8580 C   0  0  0  0  0  0  0  0  0  0  0  0
   37.7420   32.3560   40.2860 C   0  0  0  0  0  0  0  0  0  0  0  0
   37.8250   31.0910   39.6950 C   0  0  0  0  0  0  0  0  0  0  0  0
   39.0340   30.5320   39.7040 N   0  0  0  0  0  0  0  0  0  0  0  0
   40.1070   31.1610   40.2550 C   0  0  0  0  0  0  0  0  0  0  0  0
   40.0210   32.3720   40.8190 N   0  0  0  0  0  0  0  0  0  0  0  0
   38.7250   33.9830   41.2970 H   0  0  0  0  0  0  0  0  0  0  0  0
   36.7990   32.8830   40.3230 H   0  0  0  0  0  0  0  0  0  0  0  0
   41.0010   30.5530   40.1670 H   0  0  0  0  0  0  0  0  0  0  0  0
   36.5320   29.2160   41.2490 C   0  0  0  0  0  0  0  0  0  0  0  0
   37.1690   29.7930   42.3590 C   0  0  0  0  0  0  0  0  0  0  0  0
   37.8390   28.9000   43.2000 C   0  0  0  0  0  0  0  0  0  0  0  0
   37.8220   27.5580   42.8790 C   0  0  0  0  0  0  0  0  0  0  0  0
   37.1890   27.0190   41.7820 C   0  0  0  0  0  0  0  0  0  0  0  0
   36.5330   27.8850   40.9590 N   0  0  0  0  0  0  0  0  0  0  0  0
   37.0920   30.8420   42.4700 H   0  0  0  0  0  0  0  0  0  0  0  0
   38.3360   29.3200   44.0600 H   0  0  0  0  0  0  0  0  0  0  0  0
   38.3510   26.8860   43.5490 H   0  0  0  0  0  0  0  0  0  0  0  0
   37.2140   25.5760   41.5160 C   0  0  0  0  0  0  0  0  0  0  0  0
   36.7120   24.8070   42.3700 O   0  0  0  0  0  0  0  0  0  0  0  0
   39.1320   24.5900   40.4090 C   0  0  0  0  0  0  0  0  0  0  0  0
   37.7690   24.9050   40.3440 C   0  0  0  0  0  0  0  0  0  0  0  0
   37.0650   24.5660   39.2040 C   0  0  0  0  0  0  0  0  0  0  0  0
   36.0230   24.8210   39.1880 H   0  0  0  0  0  0  0  0  0  0  0  0
   37.6770   23.9300   38.1430 C   0  0  0  0  0  0  0  0  0  0  0  0
   37.1460   23.6620   37.2560 H   0  0  0  0  0  0  0  0  0  0  0  0
   39.0190   23.6070   38.1780 C   0  0  0  0  0  3  0  0  0  0  0  0
   39.7210   23.9470   39.3160 C   0  0  0  0  0  3  0  0  0  0  0  0
   39.6120   26.2010   42.2890 H   0  0  0  0  0  0  0  0  0  0  0  0
   40.0740   24.9940   41.8240 S   0  0  0  0  0  0  0  0  0  0  0  0
   41.5210   25.2160   41.5050 O   0  0  0  0  0  0  0  0  0  0  0  0
   39.8630   24.0240   42.9580 O   0  0  0  0  0  0  0  0  0  0  0  0
  1  7  1  6  0  0  0
  1 19  1  0  0  0  0
  1  6  1  0  0  0  0
  2  9  1  0  0  0  0
  2  1  1  0  0  0  0
  3  2  1  0  0  0  0
  3  4  1  0  0  0  0
  4 12  1  0  0  0  0
  4  5  1  0  0  0  0
  5  6  1  0  0  0  0
  5 15  1  0  0  0  0
  6 16  1  1  0  0  0
  6 26  1  0  0  0  0
  8  2  1  0  0  0  0
 10  3  1  0  0  0  0
 11  3  1  0  0  0  0
 13  4  1  0  0  0  0
 14  5  1  0  0  0  0
 17 23  1  0  0  0  0
 18 24  1  0  0  0  0
 18 17  2  0  0  0  0
 19 20  2  0  0  0  0
 19 18  1  0  0  0  0
 20 21  1  0  0  0  0
 21 22  2  0  0  0  0
 22 17  1  0  0  0  0
 25 21  1  0  0  0  0
 26 27  1  0  0  0  0
 27 32  1  0  0  0  0
 27 28  2  0  0  0  0
 28 33  1  0  0  0  0
 29 28  1  0  0  0  0
 29 34  1  0  0  0  0
 30 29  2  0  0  0  0
 31 26  2  0  0  0  0
 31 30  1  0  0  0  0
 35 30  1  0  0  0  0
 35 36  2  0  0  0  0
 37 46  1  0  0  0  0
 38 37  1  0  0  0  0
 38 35  1  0  0  0  0
 39 38  2  0  0  0  0
 40 39  1  0  0  0  0
 41 43  2  0  0  0  0
 41 39  1  0  0  0  0
 42 41  1  0  0  0  0
 43 44  1  0  0  0  0
 44 37  2  0  0  0  0
 46 45  1  0  0  0  0
 46 48  2  0  0  0  0
 47 46  2  0  0  0  0
M  END
>  <minimizedAffinity>
-6.31844568

$$$$

 OpenBabel03242516553D

 48 51  0  0  1  0  0  0  0  0999 V2000
   38.7650   31.4640   38.3670 C   0  0  1  0  0  0  0  0  0  0  0  0
   38.0620   30.1890   38.4950 C   0  0  0  0  0  0  0  0  0  0  0  0
   36.5970   30.5320   38.7550 C   0  0  0  0  0  0  0  0  0  0  0  0
   36.5340   31.1260   40.1510 C   0  0  0  0  0  0  0  0  0  0  0  0
   37.4580   32.2860   40.3730 C   0  0  0  0  0  0  0  0  0  0  0  0
   38.7540   32.2670   39.6730 C   0  0  1  0  0  0  0  0  0  0  0  0
   38.1680   32.1370   37.6770 H   0  0  0  0  0  0  0  0  0  0  0  0
   38.0870   29.6580   37.5300 H   0  0  0  0  0  0  0  0  0  0  0  0
   38.3850   29.5510   39.3380 H   0  0  0  0  0  0  0  0  0  0  0  0
   36.1950   31.2350   38.0050 H   0  0  0  0  0  0  0  0  0  0  0  0
   36.0650   29.5690   38.7900 H   0  0  0  0  0  0  0  0  0  0  0  0
   36.8450   30.2900   40.8240 H   0  0  0  0  0  0  0  0  0  0  0  0
   35.4930   31.4470   40.3940 H   0  0  0  0  0  0  0  0  0  0  0  0
   36.8710   33.2160   40.1340 H   0  0  0  0  0  0  0  0  0  0  0  0
   37.6480   32.3230   41.4660 H   0  0  0  0  0  0  0  0  0  0  0  0
   38.9910   33.3250   39.3560 H   0  0  0  0  0  0  0  0  0  0  0  0
   42.1010   30.0800   37.2620 C   0  0  0  0  0  0  0  0  0  0  0  0
   40.7960   30.2060   37.7470 C   0  0  0  0  0  0  0  0  0  0  0  0
   40.1150   31.4230   37.8440 C   0  0  0  0  0  0  0  0  0  0  0  0
   40.7960   32.4950   37.4400 N   0  0  0  0  0  0  0  0  0  0  0  0
   42.0660   32.3960   36.9650 C   0  0  0  0  0  0  0  0  0  0  0  0
   42.7120   31.2270   36.8740 N   0  0  0  0  0  0  0  0  0  0  0  0
   42.5840   29.1340   37.2050 H   0  0  0  0  0  0  0  0  0  0  0  0
   40.3190   29.2850   38.0530 H   0  0  0  0  0  0  0  0  0  0  0  0
   42.4540   33.3700   36.6860 H   0  0  0  0  0  0  0  0  0  0  0  0
   39.8620   31.8920   40.5490 C   0  0  0  0  0  0  0  0  0  0  0  0
   41.0250   32.6480   40.7680 C   0  0  0  0  0  0  0  0  0  0  0  0
   41.9420   32.0960   41.6660 C   0  0  0  0  0  0  0  0  0  0  0  0
   41.6390   30.8830   42.2500 C   0  0  0  0  0  0  0  0  0  0  0  0
   40.4900   30.1620   42.0170 C   0  0  0  0  0  0  0  0  0  0  0  0
   39.5920   30.6970   41.1420 N   0  0  0  0  0  0  0  0  0  0  0  0
   41.1140   33.5630   40.2430 H   0  0  0  0  0  0  0  0  0  0  0  0
   42.8430   32.6590   41.8510 H   0  0  0  0  0  0  0  0  0  0  0  0
   42.3690   30.4760   42.9440 H   0  0  0  0  0  0  0  0  0  0  0  0
   40.2420   28.8800   42.6850 C   0  0  0  0  0  0  0  0  0  0  0  0
   41.2020   28.3200   43.2670 O   0  0  0  0  0  0  0  0  0  0  0  0
   38.7970   27.1440   41.8070 C   0  0  0  0  0  0  0  0  0  0  0  0
   38.9770   28.1530   42.7600 C   0  0  0  0  0  0  0  0  0  0  0  0
   37.9720   28.3840   43.6790 C   0  0  0  0  0  0  0  0  0  0  0  0
   38.1430   29.1650   44.3950 H   0  0  0  0  0  0  0  0  0  0  0  0
   36.8070   27.6440   43.6720 C   0  0  0  0  0  0  0  0  0  0  0  0
   36.0210   27.8100   44.3750 H   0  0  0  0  0  0  0  0  0  0  0  0
   36.6000   26.6410   42.7450 C   0  0  0  0  0  3  0  0  0  0  0  0
   37.6050   26.4120   41.8280 C   0  0  0  0  0  3  0  0  0  0  0  0
   41.0420   27.7170   40.8140 H   0  0  0  0  0  0  0  0  0  0  0  0
   40.0340   26.8060   40.6200 S   0  0  0  0  0  0  0  0  0  0  0  0
   39.5580   27.0300   39.2170 O   0  0  0  0  0  0  0  0  0  0  0  0
   40.6750   25.4560   40.8160 O   0  0  0  0  0  0  0  0  0  0  0  0
  1  7  1  6  0  0  0
  1  2  1  0  0  0  0
  1  6  1  0  0  0  0
  2  3  1  0  0  0  0
  2  9  1  0  0  0  0
  3 11  1  0  0  0  0
  3  4  1  0  0  0  0
  4  5  1  0  0  0  0
  4 13  1  0  0  0  0
  4 12  1  0  0  0  0
  5 15  1  0  0  0  0
  6 16  1  6  0  0  0
  6  5  1  0  0  0  0
  6 26  1  0  0  0  0
  8  2  1  0  0  0  0
 10  3  1  0  0  0  0
 14  5  1  0  0  0  0
 17 18  1  0  0  0  0
 18 19  2  0  0  0  0
 18 24  1  0  0  0  0
 19  1  1  0  0  0  0
 20 19  1  0  0  0  0
 21 20  2  0  0  0  0
 22 21  1  0  0  0  0
 22 17  2  0  0  0  0
 23 17  1  0  0  0  0
 25 21  1  0  0  0  0
 26 27  2  0  0  0  0
 26 31  1  0  0  0  0
 27 28  1  0  0  0  0
 28 33  1  0  0  0  0
 28 29  2  0  0  0  0
 29 34  1  0  0  0  0
 30 29  1  0  0  0  0
 30 35  1  0  0  0  0
 31 30  2  0  0  0  0
 32 27  1  0  0  0  0
 35 38  1  0  0  0  0
 35 36  2  0  0  0  0
 37 44  2  0  0  0  0
 37 38  1  0  0  0  0
 38 39  2  0  0  0  0
 39 40  1  0  0  0  0
 41 39  1  0  0  0  0
 41 42  1  0  0  0  0
 43 41  2  0  0  0  0
 44 43  1  0  0  0  0
 46 45  1  0  0  0  0
 46 48  2  0  0  0  0
 46 37  1  0  0  0  0
 47 46  2  0  0  0  0
M  END
>  <minimizedAffinity>
-6.04892302

$$$$

 OpenBabel03242516553D

 48 51  0  0  1  0  0  0  0  0999 V2000
   36.6230   30.5590   39.1650 C   0  0  1  0  0  0  0  0  0  0  0  0
   36.7910   29.6520   38.0300 C   0  0  0  0  0  0  0  0  0  0  0  0
   35.3880   29.3610   37.5020 C   0  0  0  0  0  0  0  0  0  0  0  0
   34.6990   28.5090   38.5530 C   0  0  0  0  0  0  0  0  0  0  0  0
   34.6980   29.1040   39.9300 C   0  0  0  0  0  0  0  0  0  0  0  0
   35.8710   29.9010   40.3270 C   0  0  1  0  0  0  0  0  0  0  0  0
   35.9050   31.3830   38.8620 H   0  0  0  0  0  0  0  0  0  0  0  0
   37.3230   30.1730   37.2190 H   0  0  0  0  0  0  0  0  0  0  0  0
   37.2410   28.6710   38.2700 H   0  0  0  0  0  0  0  0  0  0  0  0
   34.8180   30.2860   37.3040 H   0  0  0  0  0  0  0  0  0  0  0  0
   35.5270   28.7270   36.6130 H   0  0  0  0  0  0  0  0  0  0  0  0
   35.2910   27.5620   38.5770 H   0  0  0  0  0  0  0  0  0  0  0  0
   33.6450   28.2950   38.2560 H   0  0  0  0  0  0  0  0  0  0  0  0
   33.7440   29.6930   40.0250 H   0  0  0  0  0  0  0  0  0  0  0  0
   34.5970   28.2510   40.6340 H   0  0  0  0  0  0  0  0  0  0  0  0
   35.5040   30.7680   40.9520 H   0  0  0  0  0  0  0  0  0  0  0  0
   38.8250   33.1460   40.8140 C   0  0  0  0  0  0  0  0  0  0  0  0
   37.7250   32.4510   40.3050 C   0  0  0  0  0  0  0  0  0  0  0  0
   37.8140   31.2070   39.6720 C   0  0  0  0  0  0  0  0  0  0  0  0
   39.0430   30.7000   39.5750 N   0  0  0  0  0  0  0  0  0  0  0  0
   40.1270   31.3600   40.0640 C   0  0  0  0  0  0  0  0  0  0  0  0
   40.0340   32.5510   40.6680 N   0  0  0  0  0  0  0  0  0  0  0  0
   38.7130   34.0920   41.2880 H   0  0  0  0  0  0  0  0  0  0  0  0
   36.7660   32.9360   40.4260 H   0  0  0  0  0  0  0  0  0  0  0  0
   41.0360   30.7930   39.8920 H   0  0  0  0  0  0  0  0  0  0  0  0
   36.7750   29.1710   41.2130 C   0  0  0  0  0  0  0  0  0  0  0  0
   37.3240   29.6620   42.4080 C   0  0  0  0  0  0  0  0  0  0  0  0
   38.1510   28.7720   43.1010 C   0  0  0  0  0  0  0  0  0  0  0  0
   38.3560   27.5160   42.5680 C   0  0  0  0  0  0  0  0  0  0  0  0
   37.8030   27.0610   41.3920 C   0  0  0  0  0  0  0  0  0  0  0  0
   36.9960   27.9240   40.7140 N   0  0  0  0  0  0  0  0  0  0  0  0
   37.0730   30.6510   42.6870 H   0  0  0  0  0  0  0  0  0  0  0  0
   38.5850   29.1270   44.0230 H   0  0  0  0  0  0  0  0  0  0  0  0
   39.0030   26.8450   43.1260 H   0  0  0  0  0  0  0  0  0  0  0  0
   38.0680   25.7050   40.8970 C   0  0  0  0  0  0  0  0  0  0  0  0
   39.1670   25.1730   41.1870 O   0  0  0  0  0  0  0  0  0  0  0  0
   37.3750   24.9530   38.7000 C   0  0  0  0  0  0  0  0  0  0  0  0
   37.1840   24.8740   40.0840 C   0  0  0  0  0  0  0  0  0  0  0  0
   36.1990   24.0360   40.5710 C   0  0  0  0  0  0  0  0  0  0  0  0
   36.0800   23.9990   41.6370 H   0  0  0  0  0  0  0  0  0  0  0  0
   35.4100   23.2860   39.7230 C   0  0  0  0  0  0  0  0  0  0  0  0
   34.6450   22.6340   40.0830 H   0  0  0  0  0  0  0  0  0  0  0  0
   35.5740   23.3430   38.3530 C   0  0  0  0  0  3  0  0  0  0  0  0
   36.5580   24.1810   37.8690 C   0  0  0  0  0  3  0  0  0  0  0  0
   38.8060   27.0170   38.9220 H   0  0  0  0  0  0  0  0  0  0  0  0
   38.6060   25.9950   38.0270 S   0  0  0  0  0  0  0  0  0  0  0  0
   38.1640   26.6570   36.7570 O   0  0  0  0  0  0  0  0  0  0  0  0
   39.9420   25.3100   37.9000 O   0  0  0  0  0  0  0  0  0  0  0  0
  1  7  1  6  0  0  0
  1 19  1  0  0  0  0
  1  6  1  0  0  0  0
  2  9  1  0  0  0  0
  2  1  1  0  0  0  0
  3  2  1  0  0  0  0
  3  4  1  0  0  0  0
  4 12  1  0  0  0  0
  4  5  1  0  0  0  0
  5 14  1  0  0  0  0
  5  6  1  0  0  0  0
  5 15  1  0  0  0  0
  6 16  1  1  0  0  0
  6 26  1  0  0  0  0
  8  2  1  0  0  0  0
 10  3  1  0  0  0  0
 11  3  1  0  0  0  0
 13  4  1  0  0  0  0
 17 23  1  0  0  0  0
 18 24  1  0  0  0  0
 18 17  2  0  0  0  0
 19 18  1  0  0  0  0
 20 19  2  0  0  0  0
 20 21  1  0  0  0  0
 21 22  2  0  0  0  0
 22 17  1  0  0  0  0
 25 21  1  0  0  0  0
 26 27  1  0  0  0  0
 27 32  1  0  0  0  0
 27 28  2  0  0  0  0
 28 33  1  0  0  0  0
 29 28  1  0  0  0  0
 29 34  1  0  0  0  0
 30 29  2  0  0  0  0
 31 26  2  0  0  0  0
 31 30  1  0  0  0  0
 35 36  2  0  0  0  0
 35 30  1  0  0  0  0
 37 38  1  0  0  0  0
 38 39  2  0  0  0  0
 38 35  1  0  0  0  0
 39 40  1  0  0  0  0
 41 42  1  0  0  0  0
 41 39  1  0  0  0  0
 43 41  2  0  0  0  0
 44 43  1  0  0  0  0
 44 37  2  0  0  0  0
 46 37  1  0  0  0  0
 46 45  1  0  0  0  0
 47 46  2  0  0  0  0
 48 46  2  0  0  0  0
M  END
>  <minimizedAffinity>
-5.9951272

$$$$

 OpenBabel03242516553D

 48 51  0  0  1  0  0  0  0  0999 V2000
   39.0320   24.8750   40.8900 C   0  0  1  0  0  0  0  0  0  0  0  0
   38.3190   23.8310   41.6250 C   0  0  0  0  0  0  0  0  0  0  0  0
   37.3350   23.2080   40.6370 C   0  0  0  0  0  0  0  0  0  0  0  0
   36.2710   24.2570   40.3690 C   0  0  0  0  0  0  0  0  0  0  0  0
   36.8070   25.5800   39.9100 C   0  0  0  0  0  0  0  0  0  0  0  0
   38.1030   26.0150   40.4560 C   0  0  1  0  0  0  0  0  0  0  0  0
   39.3600   24.4520   39.8910 H   0  0  0  0  0  0  0  0  0  0  0  0
   39.0250   23.0310   41.9020 H   0  0  0  0  0  0  0  0  0  0  0  0
   37.7180   24.1810   42.4830 H   0  0  0  0  0  0  0  0  0  0  0  0
   37.8280   22.8930   39.7010 H   0  0  0  0  0  0  0  0  0  0  0  0
   36.8460   22.3840   41.1800 H   0  0  0  0  0  0  0  0  0  0  0  0
   35.7660   24.4020   41.3560 H   0  0  0  0  0  0  0  0  0  0  0  0
   35.5370   23.8870   39.6140 H   0  0  0  0  0  0  0  0  0  0  0  0
   36.8200   25.5490   38.7850 H   0  0  0  0  0  0  0  0  0  0  0  0
   36.0390   26.3340   40.1810 H   0  0  0  0  0  0  0  0  0  0  0  0
   38.6680   26.5400   39.6300 H   0  0  0  0  0  0  0  0  0  0  0  0
   41.5210   25.8040   43.5740 C   0  0  0  0  0  0  0  0  0  0  0  0
   40.4150   25.2890   42.8920 C   0  0  0  0  0  0  0  0  0  0  0  0
   40.2120   25.4330   41.5160 C   0  0  0  0  0  0  0  0  0  0  0  0
   41.1580   26.1090   40.8650 N   0  0  0  0  0  0  0  0  0  0  0  0
   42.2420   26.6190   41.5090 C   0  0  0  0  0  0  0  0  0  0  0  0
   42.4300   26.4770   42.8270 N   0  0  0  0  0  0  0  0  0  0  0  0
   41.6370   25.6720   44.6230 H   0  0  0  0  0  0  0  0  0  0  0  0
   39.6970   24.7550   43.4990 H   0  0  0  0  0  0  0  0  0  0  0  0
   42.8990   27.1340   40.8160 H   0  0  0  0  0  0  0  0  0  0  0  0
   37.9630   27.0280   41.5010 C   0  0  0  0  0  0  0  0  0  0  0  0
   37.2240   26.8860   42.6860 C   0  0  0  0  0  0  0  0  0  0  0  0
   37.2510   27.9860   43.5480 C   0  0  0  0  0  0  0  0  0  0  0  0
   37.9830   29.0940   43.1750 C   0  0  0  0  0  0  0  0  0  0  0  0
   38.7010   29.2060   42.0060 C   0  0  0  0  0  0  0  0  0  0  0  0
   38.6780   28.1360   41.1620 N   0  0  0  0  0  0  0  0  0  0  0  0
   36.7110   25.9710   42.8300 H   0  0  0  0  0  0  0  0  0  0  0  0
   36.6890   27.9000   44.4650 H   0  0  0  0  0  0  0  0  0  0  0  0
   37.9870   29.9350   43.8630 H   0  0  0  0  0  0  0  0  0  0  0  0
   39.4590   30.4210   41.6870 C   0  0  0  0  0  0  0  0  0  0  0  0
   39.6990   31.2300   42.6150 O   0  0  0  0  0  0  0  0  0  0  0  0
   39.1470   31.6210   39.6050 C   0  0  0  0  0  0  0  0  0  0  0  0
   39.9860   30.8160   40.3830 C   0  0  0  0  0  0  0  0  0  0  0  0
   41.2210   30.4610   39.8760 C   0  0  0  0  0  0  0  0  0  0  0  0
   41.8400   29.8430   40.4980 H   0  0  0  0  0  0  0  0  0  0  0  0
   41.6350   30.8840   38.6290 C   0  0  0  0  0  0  0  0  0  0  0  0
   42.5860   30.6180   38.2230 H   0  0  0  0  0  0  0  0  0  0  0  0
   40.8290   31.6790   37.8380 C   0  0  0  0  0  3  0  0  0  0  0  0
   39.5960   32.0320   38.3460 C   0  0  0  0  0  3  0  0  0  0  0  0
   37.6520   32.1520   41.5650 H   0  0  0  0  0  0  0  0  0  0  0  0
   37.5740   32.1020   40.1950 S   0  0  0  0  0  0  0  0  0  0  0  0
   36.5140   31.0870   39.8920 O   0  0  0  0  0  0  0  0  0  0  0  0
   37.1930   33.4960   39.7670 O   0  0  0  0  0  0  0  0  0  0  0  0
  1  7  1  6  0  0  0
  1 19  1  0  0  0  0
  1  2  1  0  0  0  0
  2  8  1  0  0  0  0
  2  9  1  0  0  0  0
  3 11  1  0  0  0  0
  3  2  1  0  0  0  0
  4  3  1  0  0  0  0
  4 12  1  0  0  0  0
  5 15  1  0  0  0  0
  5  4  1  0  0  0  0
  5  6  1  0  0  0  0
  6 16  1  6  0  0  0
  6  1  1  0  0  0  0
  6 26  1  0  0  0  0
 10  3  1  0  0  0  0
 13  4  1  0  0  0  0
 14  5  1  0  0  0  0
 17 23  1  0  0  0  0
 18 24  1  0  0  0  0
 18 17  1  0  0  0  0
 19 18  2  0  0  0  0
 20 21  2  0  0  0  0
 20 19  1  0  0  0  0
 21 22  1  0  0  0  0
 22 17  2  0  0  0  0
 25 21  1  0  0  0  0
 26 27  1  0  0  0  0
 27 32  1  0  0  0  0
 27 28  2  0  0  0  0
 28 33  1  0  0  0  0
 29 28  1  0  0  0  0
 29 34  1  0  0  0  0
 30 29  2  0  0  0  0
 31 26  2  0  0  0  0
 31 30  1  0  0  0  0
 35 30  1  0  0  0  0
 35 36  2  0  0  0  0
 37 46  1  0  0  0  0
 37 38  1  0  0  0  0
 38 35  1  0  0  0  0
 39 38  2  0  0  0  0
 39 40  1  0  0  0  0
 41 39  1  0  0  0  0
 42 41  1  0  0  0  0
 43 44  1  0  0  0  0
 43 41  2  0  0  0  0
 44 37  2  0  0  0  0
 46 45  1  0  0  0  0
 47 46  2  0  0  0  0
 48 46  2  0  0  0  0
M  END
>  <minimizedAffinity>
-5.99250174

$$$$

 OpenBabel03242516553D

 48 51  0  0  1  0  0  0  0  0999 V2000
   38.9890   26.6920   41.9120 C   0  0  1  0  0  0  0  0  0  0  0  0
   38.8420   28.1330   42.1140 C   0  0  0  0  0  0  0  0  0  0  0  0
   38.3040   28.3150   43.5310 C   0  0  0  0  0  0  0  0  0  0  0  0
   36.8760   27.7990   43.5200 C   0  0  0  0  0  0  0  0  0  0  0  0
   36.7280   26.3960   43.0110 C   0  0  0  0  0  0  0  0  0  0  0  0
   37.6420   25.9610   41.9410 C   0  0  1  0  0  0  0  0  0  0  0  0
   39.5090   26.2540   42.8200 H   0  0  0  0  0  0  0  0  0  0  0  0
   39.8350   28.6090   42.0980 H   0  0  0  0  0  0  0  0  0  0  0  0
   38.1210   28.6340   41.4420 H   0  0  0  0  0  0  0  0  0  0  0  0
   38.9140   27.7800   44.2790 H   0  0  0  0  0  0  0  0  0  0  0  0
   38.2520   29.4020   43.6950 H   0  0  0  0  0  0  0  0  0  0  0  0
   36.3350   28.4880   42.8260 H   0  0  0  0  0  0  0  0  0  0  0  0
   36.4300   27.8570   44.5420 H   0  0  0  0  0  0  0  0  0  0  0  0
   36.7870   25.7200   43.9080 H   0  0  0  0  0  0  0  0  0  0  0  0
   35.6850   26.3130   42.6390 H   0  0  0  0  0  0  0  0  0  0  0  0
   37.9110   24.8810   42.1350 H   0  0  0  0  0  0  0  0  0  0  0  0
   40.6730   26.8080   38.5330 C   0  0  0  0  0  0  0  0  0  0  0  0
   39.9660   27.1450   39.6910 C   0  0  0  0  0  0  0  0  0  0  0  0
   39.7410   26.2620   40.7520 C   0  0  0  0  0  0  0  0  0  0  0  0
   40.2500   25.0410   40.5980 N   0  0  0  0  0  0  0  0  0  0  0  0
   40.9410   24.6910   39.4800 C   0  0  0  0  0  0  0  0  0  0  0  0
   41.1530   25.5410   38.4690 N   0  0  0  0  0  0  0  0  0  0  0  0
   40.8220   27.5100   37.7490 H   0  0  0  0  0  0  0  0  0  0  0  0
   39.5880   28.1580   39.7310 H   0  0  0  0  0  0  0  0  0  0  0  0
   41.2760   23.6600   39.5370 H   0  0  0  0  0  0  0  0  0  0  0  0
   37.0050   25.9480   40.6250 C   0  0  0  0  0  0  0  0  0  0  0  0
   36.8280   24.8170   39.8130 C   0  0  0  0  0  0  0  0  0  0  0  0
   36.1720   25.0430   38.6000 C   0  0  0  0  0  0  0  0  0  0  0  0
   35.7620   26.3280   38.3050 C   0  0  0  0  0  0  0  0  0  0  0  0
   35.9500   27.4200   39.1220 C   0  0  0  0  0  0  0  0  0  0  0  0
   36.5880   27.2040   40.3070 N   0  0  0  0  0  0  0  0  0  0  0  0
   37.1990   23.8950   40.1780 H   0  0  0  0  0  0  0  0  0  0  0  0
   36.0240   24.1890   37.9580 H   0  0  0  0  0  0  0  0  0  0  0  0
   35.2560   26.4770   37.3560 H   0  0  0  0  0  0  0  0  0  0  0  0
   35.4770   28.7540   38.7360 C   0  0  0  0  0  0  0  0  0  0  0  0
   34.3040   28.8650   38.3050 O   0  0  0  0  0  0  0  0  0  0  0  0
   36.8770   30.3820   37.6120 C   0  0  0  0  0  0  0  0  0  0  0  0
   36.2260   30.0070   38.7930 C   0  0  0  0  0  0  0  0  0  0  0  0
   36.3350   30.8270   39.8990 C   0  0  0  0  0  0  0  0  0  0  0  0
   35.8240   30.5090   40.7880 H   0  0  0  0  0  0  0  0  0  0  0  0
   37.0680   31.9950   39.8590 C   0  0  0  0  0  0  0  0  0  0  0  0
   37.1620   32.6400   40.7050 H   0  0  0  0  0  0  0  0  0  0  0  0
   37.7210   32.3930   38.7080 C   0  0  0  0  0  3  0  0  0  0  0  0
   37.6110   31.5720   37.6040 C   0  0  0  0  0  3  0  0  0  0  0  0
   35.6940   28.5540   36.3420 H   0  0  0  0  0  0  0  0  0  0  0  0
   36.7740   29.3850   36.1800 S   0  0  0  0  0  0  0  0  0  0  0  0
   37.9570   28.4780   36.0280 O   0  0  0  0  0  0  0  0  0  0  0  0
   36.4790   30.1830   34.9360 O   0  0  0  0  0  0  0  0  0  0  0  0
  1  6  1  0  0  0  0
  1  2  1  0  0  0  0
  1  7  1  1  0  0  0
  2  3  1  0  0  0  0
  3 11  1  0  0  0  0
  3 10  1  0  0  0  0
  4  3  1  0  0  0  0
  4 13  1  0  0  0  0
  5  4  1  0  0  0  0
  5 14  1  0  0  0  0
  6 16  1  1  0  0  0
  6  5  1  0  0  0  0
  8  2  1  0  0  0  0
  9  2  1  0  0  0  0
 12  4  1  0  0  0  0
 15  5  1  0  0  0  0
 17 18  1  0  0  0  0
 18 24  1  0  0  0  0
 18 19  2  0  0  0  0
 19  1  1  0  0  0  0
 20 19  1  0  0  0  0
 21 25  1  0  0  0  0
 21 20  2  0  0  0  0
 22 17  2  0  0  0  0
 22 21  1  0  0  0  0
 23 17  1  0  0  0  0
 26  6  1  0  0  0  0
 27 32  1  0  0  0  0
 27 26  2  0  0  0  0
 28 27  1  0  0  0  0
 29 28  2  0  0  0  0
 29 30  1  0  0  0  0
 30 31  2  0  0  0  0
 31 26  1  0  0  0  0
 33 28  1  0  0  0  0
 34 29  1  0  0  0  0
 35 38  1  0  0  0  0
 35 30  1  0  0  0  0
 36 35  2  0  0  0  0
 37 38  1  0  0  0  0
 38 39  2  0  0  0  0
 39 40  1  0  0  0  0
 41 39  1  0  0  0  0
 41 42  1  0  0  0  0
 43 41  2  0  0  0  0
 44 37  2  0  0  0  0
 44 43  1  0  0  0  0
 46 45  1  0  0  0  0
 46 37  1  0  0  0  0
 47 46  2  0  0  0  0
 48 46  2  0  0  0  0
M  END
>  <minimizedAffinity>
-5.98075151

$$$$

 OpenBabel03242516553D

 48 51  0  0  1  0  0  0  0  0999 V2000
   37.3380   30.2140   38.6730 C   0  0  1  0  0  0  0  0  0  0  0  0
   36.9570   28.8040   38.6050 C   0  0  0  0  0  0  0  0  0  0  0  0
   35.4480   28.7570   38.8340 C   0  0  0  0  0  0  0  0  0  0  0  0
   35.2200   29.1280   40.2880 C   0  0  0  0  0  0  0  0  0  0  0  0
   35.8360   30.4320   40.6990 C   0  0  0  0  0  0  0  0  0  0  0  0
   37.1110   30.8100   40.0670 C   0  0  1  0  0  0  0  0  0  0  0  0
   36.6090   30.8140   38.0440 H   0  0  0  0  0  0  0  0  0  0  0  0
   37.1260   28.4270   37.5840 H   0  0  0  0  0  0  0  0  0  0  0  0
   37.4080   28.1540   39.3770 H   0  0  0  0  0  0  0  0  0  0  0  0
   34.9030   29.4390   38.1590 H   0  0  0  0  0  0  0  0  0  0  0  0
   35.1610   27.6990   38.7220 H   0  0  0  0  0  0  0  0  0  0  0  0
   35.7100   28.3060   40.8670 H   0  0  0  0  0  0  0  0  0  0  0  0
   34.1280   29.1600   40.5190 H   0  0  0  0  0  0  0  0  0  0  0  0
   35.0480   31.2210   40.5490 H   0  0  0  0  0  0  0  0  0  0  0  0
   35.9920   30.3670   41.7960 H   0  0  0  0  0  0  0  0  0  0  0  0
   37.0940   31.9270   39.8970 H   0  0  0  0  0  0  0  0  0  0  0  0
   40.9620   29.8270   37.6840 C   0  0  0  0  0  0  0  0  0  0  0  0
   39.6540   29.5760   38.1080 C   0  0  0  0  0  0  0  0  0  0  0  0
   38.6680   30.5610   38.2160 C   0  0  0  0  0  0  0  0  0  0  0  0
   39.0500   31.7940   37.8850 N   0  0  0  0  0  0  0  0  0  0  0  0
   40.3170   32.0610   37.4710 C   0  0  0  0  0  0  0  0  0  0  0  0
   41.2570   31.1130   37.3690 N   0  0  0  0  0  0  0  0  0  0  0  0
   41.6830   29.0480   37.6160 H   0  0  0  0  0  0  0  0  0  0  0  0
   39.4320   28.5470   38.3560 H   0  0  0  0  0  0  0  0  0  0  0  0
   40.4380   33.1150   37.2470 H   0  0  0  0  0  0  0  0  0  0  0  0
   38.2610   30.5930   40.9430 C   0  0  0  0  0  0  0  0  0  0  0  0
   39.1980   31.5680   41.3220 C   0  0  0  0  0  0  0  0  0  0  0  0
   40.2060   31.1300   42.1860 C   0  0  0  0  0  0  0  0  0  0  0  0
   40.1990   29.8090   42.5860 C   0  0  0  0  0  0  0  0  0  0  0  0
   39.2670   28.8740   42.1980 C   0  0  0  0  0  0  0  0  0  0  0  0
   38.2820   29.2960   41.3560 N   0  0  0  0  0  0  0  0  0  0  0  0
   39.0690   32.5420   40.9290 H   0  0  0  0  0  0  0  0  0  0  0  0
   40.9370   31.8620   42.4910 H   0  0  0  0  0  0  0  0  0  0  0  0
   40.9940   29.4960   43.2570 H   0  0  0  0  0  0  0  0  0  0  0  0
   39.3290   27.4880   42.6750 C   0  0  0  0  0  0  0  0  0  0  0  0
   40.0390   27.2390   43.6800 O   0  0  0  0  0  0  0  0  0  0  0  0
   39.3630   25.6090   41.1450 C   0  0  0  0  0  0  0  0  0  0  0  0
   38.6470   26.3280   42.1090 C   0  0  0  0  0  0  0  0  0  0  0  0
   37.3780   25.8990   42.4470 C   0  0  0  0  0  0  0  0  0  0  0  0
   36.8560   26.4730   43.1890 H   0  0  0  0  0  0  0  0  0  0  0  0
   36.8120   24.7880   41.8560 C   0  0  0  0  0  0  0  0  0  0  0  0
   35.8330   24.4440   42.1060 H   0  0  0  0  0  0  0  0  0  0  0  0
   37.4950   24.0580   40.9020 C   0  0  0  0  0  3  0  0  0  0  0  0
   38.7620   24.4880   40.5650 C   0  0  0  0  0  3  0  0  0  0  0  0
   41.1950   27.3400   41.2320 H   0  0  0  0  0  0  0  0  0  0  0  0
   40.9730   26.1040   40.6770 S   0  0  0  0  0  0  0  0  0  0  0  0
   41.1040   26.3000   39.1970 O   0  0  0  0  0  0  0  0  0  0  0  0
   42.0440   25.2120   41.2500 O   0  0  0  0  0  0  0  0  0  0  0  0
  1  7  1  6  0  0  0
  1  6  1  0  0  0  0
  2  1  1  0  0  0  0
  2  3  1  0  0  0  0
  2  9  1  0  0  0  0
  3  4  1  0  0  0  0
  4 13  1  0  0  0  0
  4  5  1  0  0  0  0
  4 12  1  0  0  0  0
  5 15  1  0  0  0  0
  6 16  1  6  0  0  0
  6  5  1  0  0  0  0
  6 26  1  0  0  0  0
  8  2  1  0  0  0  0
 10  3  1  0  0  0  0
 11  3  1  0  0  0  0
 14  5  1  0  0  0  0
 17 18  1  0  0  0  0
 18 19  2  0  0  0  0
 18 24  1  0  0  0  0
 19  1  1  0  0  0  0
 20 19  1  0  0  0  0
 21 20  2  0  0  0  0
 22 21  1  0  0  0  0
 22 17  2  0  0  0  0
 23 17  1  0  0  0  0
 25 21  1  0  0  0  0
 26 27  2  0  0  0  0
 26 31  1  0  0  0  0
 27 28  1  0  0  0  0
 28 33  1  0  0  0  0
 28 29  2  0  0  0  0
 29 34  1  0  0  0  0
 30 29  1  0  0  0  0
 30 35  1  0  0  0  0
 31 30  2  0  0  0  0
 32 27  1  0  0  0  0
 35 36  2  0  0  0  0
 37 38  1  0  0  0  0
 38 39  2  0  0  0  0
 38 35  1  0  0  0  0
 39 40  1  0  0  0  0
 41 42  1  0  0  0  0
 41 39  1  0  0  0  0
 43 41  2  0  0  0  0
 44 43  1  0  0  0  0
 44 37  2  0  0  0  0
 46 37  1  0  0  0  0
 46 45  1  0  0  0  0
 46 48  2  0  0  0  0
 47 46  2  0  0  0  0
M  END
>  <minimizedAffinity>
-5.97100449

$$$$

 OpenBabel03242516553D

 48 51  0  0  1  0  0  0  0  0999 V2000
   40.1600   31.1290   39.7530 C   0  0  1  0  0  0  0  0  0  0  0  0
   39.8480   31.9180   38.5620 C   0  0  0  0  0  0  0  0  0  0  0  0
   40.1500   33.3720   38.9190 C   0  0  0  0  0  0  0  0  0  0  0  0
   39.0960   33.7960   39.9250 C   0  0  0  0  0  0  0  0  0  0  0  0
   38.9920   32.9050   41.1270 C   0  0  0  0  0  0  0  0  0  0  0  0
   39.2380   31.4670   40.9300 C   0  0  1  0  0  0  0  0  0  0  0  0
   41.1700   31.4600   40.1480 H   0  0  0  0  0  0  0  0  0  0  0  0
   40.5440   31.6500   37.7510 H   0  0  0  0  0  0  0  0  0  0  0  0
   38.7910   31.8910   38.2390 H   0  0  0  0  0  0  0  0  0  0  0  0
   41.1660   33.4960   39.3310 H   0  0  0  0  0  0  0  0  0  0  0  0
   39.9690   33.9500   38.0000 H   0  0  0  0  0  0  0  0  0  0  0  0
   38.1330   33.7450   39.3610 H   0  0  0  0  0  0  0  0  0  0  0  0
   39.2820   34.8410   40.2710 H   0  0  0  0  0  0  0  0  0  0  0  0
   39.6730   33.3400   41.9100 H   0  0  0  0  0  0  0  0  0  0  0  0
   37.9610   33.0360   41.5190 H   0  0  0  0  0  0  0  0  0  0  0  0
   39.7890   31.0830   41.8390 H   0  0  0  0  0  0  0  0  0  0  0  0
   41.1720   27.5370   40.3310 C   0  0  0  0  0  0  0  0  0  0  0  0
   41.0460   28.9260   40.4250 C   0  0  0  0  0  0  0  0  0  0  0  0
   40.2240   29.6920   39.5930 C   0  0  0  0  0  0  0  0  0  0  0  0
   39.5430   29.0080   38.6740 N   0  0  0  0  0  0  0  0  0  0  0  0
   39.6500   27.6570   38.5650 C   0  0  0  0  0  0  0  0  0  0  0  0
   40.4390   26.9300   39.3650 N   0  0  0  0  0  0  0  0  0  0  0  0
   41.8100   26.9920   40.9840 H   0  0  0  0  0  0  0  0  0  0  0  0
   41.6360   29.3990   41.1980 H   0  0  0  0  0  0  0  0  0  0  0  0
   39.0230   27.2810   37.7630 H   0  0  0  0  0  0  0  0  0  0  0  0
   38.0050   30.6830   40.8940 C   0  0  0  0  0  0  0  0  0  0  0  0
   36.8570   30.9960   40.1500 C   0  0  0  0  0  0  0  0  0  0  0  0
   35.8020   30.0850   40.2590 C   0  0  0  0  0  0  0  0  0  0  0  0
   35.9700   28.9800   41.0690 C   0  0  0  0  0  0  0  0  0  0  0  0
   37.1090   28.6980   41.7880 C   0  0  0  0  0  0  0  0  0  0  0  0
   38.1400   29.5830   41.6850 N   0  0  0  0  0  0  0  0  0  0  0  0
   36.8800   31.8830   39.5740 H   0  0  0  0  0  0  0  0  0  0  0  0
   34.9090   30.3040   39.6950 H   0  0  0  0  0  0  0  0  0  0  0  0
   35.1350   28.2890   41.1360 H   0  0  0  0  0  0  0  0  0  0  0  0
   37.2070   27.4960   42.6230 C   0  0  0  0  0  0  0  0  0  0  0  0
   36.2100   27.1680   43.3110 O   0  0  0  0  0  0  0  0  0  0  0  0
   38.3590   25.4810   41.9230 C   0  0  0  0  0  0  0  0  0  0  0  0
   38.3580   26.6060   42.7560 C   0  0  0  0  0  0  0  0  0  0  0  0
   39.4180   26.7890   43.6230 C   0  0  0  0  0  0  0  0  0  0  0  0
   39.3860   27.6620   44.2480 H   0  0  0  0  0  0  0  0  0  0  0  0
   40.4650   25.8920   43.6800 C   0  0  0  0  0  0  0  0  0  0  0  0
   41.2910   26.0190   44.3440 H   0  0  0  0  0  0  0  0  0  0  0  0
   40.4940   24.7730   42.8700 C   0  0  0  0  0  3  0  0  0  0  0  0
   39.4340   24.5910   42.0050 C   0  0  0  0  0  3  0  0  0  0  0  0
   36.2770   26.3340   40.7870 H   0  0  0  0  0  0  0  0  0  0  0  0
   37.0450   25.1970   40.8070 S   0  0  0  0  0  0  0  0  0  0  0  0
   36.1300   24.1030   41.2660 O   0  0  0  0  0  0  0  0  0  0  0  0
   37.5180   25.0110   39.3880 O   0  0  0  0  0  0  0  0  0  0  0  0
  1  7  1  1  0  0  0
  1  6  1  0  0  0  0
  2  3  1  0  0  0  0
  2  1  1  0  0  0  0
  3 10  1  0  0  0  0
  3  4  1  0  0  0  0
  4 13  1  0  0  0  0
  4  5  1  0  0  0  0
  5 15  1  0  0  0  0
  5 14  1  0  0  0  0
  6  5  1  0  0  0  0
  6 16  1  1  0  0  0
  8  2  1  0  0  0  0
  9  2  1  0  0  0  0
 11  3  1  0  0  0  0
 12  4  1  0  0  0  0
 17 18  1  0  0  0  0
 17 23  1  0  0  0  0
 18 24  1  0  0  0  0
 19  1  1  0  0  0  0
 19 18  2  0  0  0  0
 20 19  1  0  0  0  0
 21 20  2  0  0  0  0
 21 22  1  0  0  0  0
 22 17  2  0  0  0  0
 25 21  1  0  0  0  0
 26  6  1  0  0  0  0
 26 31  1  0  0  0  0
 27 28  1  0  0  0  0
 27 26  2  0  0  0  0
 28 29  2  0  0  0  0
 29 34  1  0  0  0  0
 29 30  1  0  0  0  0
 30 35  1  0  0  0  0
 31 30  2  0  0  0  0
 32 27  1  0  0  0  0
 33 28  1  0  0  0  0
 35 38  1  0  0  0  0
 35 36  2  0  0  0  0
 37 44  2  0  0  0  0
 37 38  1  0  0  0  0
 38 39  2  0  0  0  0
 39 41  1  0  0  0  0
 39 40  1  0  0  0  0
 41 42  1  0  0  0  0
 43 41  2  0  0  0  0
 44 43  1  0  0  0  0
 45 46  1  0  0  0  0
 46 47  2  0  0  0  0
 46 37  1  0  0  0  0
 48 46  2  0  0  0  0
M  END
>  <minimizedAffinity>
-5.95786905

$$$$

 OpenBabel03242516553D

 48 51  0  0  1  0  0  0  0  0999 V2000
   36.5900   30.5030   39.1500 C   0  0  1  0  0  0  0  0  0  0  0  0
   36.7340   29.5850   38.0220 C   0  0  0  0  0  0  0  0  0  0  0  0
   35.3320   29.3850   37.4510 C   0  0  0  0  0  0  0  0  0  0  0  0
   34.5580   28.5810   38.4800 C   0  0  0  0  0  0  0  0  0  0  0  0
   34.5520   29.1780   39.8560 C   0  0  0  0  0  0  0  0  0  0  0  0
   35.7620   29.8980   40.2890 C   0  0  1  0  0  0  0  0  0  0  0  0
   35.9370   31.3710   38.8250 H   0  0  0  0  0  0  0  0  0  0  0  0
   37.3230   30.0690   37.2270 H   0  0  0  0  0  0  0  0  0  0  0  0
   37.1120   28.5780   38.2760 H   0  0  0  0  0  0  0  0  0  0  0  0
   34.8300   30.3430   37.2350 H   0  0  0  0  0  0  0  0  0  0  0  0
   35.4570   28.7400   36.5670 H   0  0  0  0  0  0  0  0  0  0  0  0
   35.0860   27.5970   38.5220 H   0  0  0  0  0  0  0  0  0  0  0  0
   33.5020   28.4350   38.1500 H   0  0  0  0  0  0  0  0  0  0  0  0
   33.6360   29.8270   39.9220 H   0  0  0  0  0  0  0  0  0  0  0  0
   34.3750   28.3350   40.5560 H   0  0  0  0  0  0  0  0  0  0  0  0
   35.4320   30.7880   40.9020 H   0  0  0  0  0  0  0  0  0  0  0  0
   38.8950   32.9270   40.9040 C   0  0  0  0  0  0  0  0  0  0  0  0
   37.7690   32.3040   40.3580 C   0  0  0  0  0  0  0  0  0  0  0  0
   37.8040   31.0740   39.6940 C   0  0  0  0  0  0  0  0  0  0  0  0
   39.0060   30.5060   39.6030 N   0  0  0  0  0  0  0  0  0  0  0  0
   40.1150   31.0950   40.1270 C   0  0  0  0  0  0  0  0  0  0  0  0
   40.0740   32.2730   40.7620 N   0  0  0  0  0  0  0  0  0  0  0  0
   38.8250   33.8640   41.4020 H   0  0  0  0  0  0  0  0  0  0  0  0
   36.8350   32.8360   40.4780 H   0  0  0  0  0  0  0  0  0  0  0  0
   40.9960   30.4860   39.9550 H   0  0  0  0  0  0  0  0  0  0  0  0
   36.5890   29.1130   41.2030 C   0  0  0  0  0  0  0  0  0  0  0  0
   37.2000   29.5930   42.3720 C   0  0  0  0  0  0  0  0  0  0  0  0
   37.9320   28.6500   43.1000 C   0  0  0  0  0  0  0  0  0  0  0  0
   37.9920   27.3560   42.6230 C   0  0  0  0  0  0  0  0  0  0  0  0
   37.3820   26.9130   41.4720 C   0  0  0  0  0  0  0  0  0  0  0  0
   36.6680   27.8290   40.7590 N   0  0  0  0  0  0  0  0  0  0  0  0
   37.0620   30.6160   42.6070 H   0  0  0  0  0  0  0  0  0  0  0  0
   38.4100   28.9960   44.0030 H   0  0  0  0  0  0  0  0  0  0  0  0
   38.5670   26.6440   43.2080 H   0  0  0  0  0  0  0  0  0  0  0  0
   37.4920   25.5160   41.0370 C   0  0  0  0  0  0  0  0  0  0  0  0
   36.7740   24.6590   41.6080 O   0  0  0  0  0  0  0  0  0  0  0  0
   37.7400   24.6950   38.7700 C   0  0  0  0  0  0  0  0  0  0  0  0
   38.3610   24.9820   39.9910 C   0  0  0  0  0  0  0  0  0  0  0  0
   39.7160   24.7470   40.1160 C   0  0  0  0  0  0  0  0  0  0  0  0
   40.1610   24.9780   41.0660 H   0  0  0  0  0  0  0  0  0  0  0  0
   40.4580   24.2390   39.0690 C   0  0  0  0  0  0  0  0  0  0  0  0
   41.5060   24.0520   39.1500 H   0  0  0  0  0  0  0  0  0  0  0  0
   39.8740   23.9460   37.8520 C   0  0  0  0  0  3  0  0  0  0  0  0
   38.5200   24.1820   37.7290 C   0  0  0  0  0  3  0  0  0  0  0  0
   35.6460   25.9030   39.4870 H   0  0  0  0  0  0  0  0  0  0  0  0
   36.0280   24.9730   38.5530 S   0  0  0  0  0  0  0  0  0  0  0  0
   35.2090   23.7530   38.8450 O   0  0  0  0  0  0  0  0  0  0  0  0
   35.7050   25.5940   37.2180 O   0  0  0  0  0  0  0  0  0  0  0  0
  1  7  1  6  0  0  0
  1 19  1  0  0  0  0
  1  6  1  0  0  0  0
  2  9  1  0  0  0  0
  2  1  1  0  0  0  0
  3  2  1  0  0  0  0
  3  4  1  0  0  0  0
  4 12  1  0  0  0  0
  4  5  1  0  0  0  0
  5 14  1  0  0  0  0
  5  6  1  0  0  0  0
  5 15  1  0  0  0  0
  6 16  1  1  0  0  0
  6 26  1  0  0  0  0
  8  2  1  0  0  0  0
 10  3  1  0  0  0  0
 11  3  1  0  0  0  0
 13  4  1  0  0  0  0
 17 23  1  0  0  0  0
 18 24  1  0  0  0  0
 18 17  2  0  0  0  0
 19 18  1  0  0  0  0
 20 19  2  0  0  0  0
 20 21  1  0  0  0  0
 21 22  2  0  0  0  0
 22 17  1  0  0  0  0
 25 21  1  0  0  0  0
 26 27  1  0  0  0  0
 27 32  1  0  0  0  0
 27 28  2  0  0  0  0
 28 33  1  0  0  0  0
 29 28  1  0  0  0  0
 29 34  1  0  0  0  0
 30 29  2  0  0  0  0
 31 26  2  0  0  0  0
 31 30  1  0  0  0  0
 35 30  1  0  0  0  0
 35 36  2  0  0  0  0
 37 38  1  0  0  0  0
 38 39  2  0  0  0  0
 38 35  1  0  0  0  0
 39 40  1  0  0  0  0
 41 42  1  0  0  0  0
 41 39  1  0  0  0  0
 43 41  2  0  0  0  0
 44 43  1  0  0  0  0
 44 37  2  0  0  0  0
 46 37  1  0  0  0  0
 46 47  2  0  0  0  0
 46 45  1  0  0  0  0
 48 46  2  0  0  0  0
M  END
>  <minimizedAffinity>
-5.89573288

$$$$

 OpenBabel03242516553D

 48 51  0  0  1  0  0  0  0  0999 V2000
   38.7770   24.5910   40.5170 C   0  0  1  0  0  0  0  0  0  0  0  0
   38.1810   23.4200   41.1600 C   0  0  0  0  0  0  0  0  0  0  0  0
   37.2130   22.8190   40.1440 C   0  0  0  0  0  0  0  0  0  0  0  0
   36.0580   23.7960   40.0190 C   0  0  0  0  0  0  0  0  0  0  0  0
   36.4660   25.1990   39.6830 C   0  0  0  0  0  0  0  0  0  0  0  0
   37.7430   25.6850   40.2330 C   0  0  1  0  0  0  0  0  0  0  0  0
   39.1000   24.2990   39.4700 H   0  0  0  0  0  0  0  0  0  0  0  0
   38.9590   22.6600   41.3310 H   0  0  0  0  0  0  0  0  0  0  0  0
   37.5870   23.6300   42.0680 H   0  0  0  0  0  0  0  0  0  0  0  0
   37.6930   22.6440   39.1660 H   0  0  0  0  0  0  0  0  0  0  0  0
   36.8140   21.9060   40.6130 H   0  0  0  0  0  0  0  0  0  0  0  0
   35.5820   23.7970   41.0300 H   0  0  0  0  0  0  0  0  0  0  0  0
   35.3270   23.4430   39.2520 H   0  0  0  0  0  0  0  0  0  0  0  0
   36.4380   25.2830   38.5620 H   0  0  0  0  0  0  0  0  0  0  0  0
   35.6500   25.8540   40.0550 H   0  0  0  0  0  0  0  0  0  0  0  0
   38.2300   26.3370   39.4490 H   0  0  0  0  0  0  0  0  0  0  0  0
   41.3180   25.4060   43.1900 C   0  0  0  0  0  0  0  0  0  0  0  0
   40.2290   24.8740   42.4930 C   0  0  0  0  0  0  0  0  0  0  0  0
   39.9320   25.1800   41.1620 C   0  0  0  0  0  0  0  0  0  0  0  0
   40.7660   26.0350   40.5700 N   0  0  0  0  0  0  0  0  0  0  0  0
   41.8310   26.5650   41.2300 C   0  0  0  0  0  0  0  0  0  0  0  0
   42.1090   26.2660   42.5050 N   0  0  0  0  0  0  0  0  0  0  0  0
   41.5080   25.1460   44.2040 H   0  0  0  0  0  0  0  0  0  0  0  0
   39.6050   24.1890   43.0500 H   0  0  0  0  0  0  0  0  0  0  0  0
   42.3910   27.2360   40.5870 H   0  0  0  0  0  0  0  0  0  0  0  0
   37.5620   26.5720   41.3810 C   0  0  0  0  0  0  0  0  0  0  0  0
   36.9550   26.2220   42.5970 C   0  0  0  0  0  0  0  0  0  0  0  0
   36.9110   27.2340   43.5610 C   0  0  0  0  0  0  0  0  0  0  0  0
   37.4530   28.4640   43.2460 C   0  0  0  0  0  0  0  0  0  0  0  0
   38.0430   28.7790   42.0430 C   0  0  0  0  0  0  0  0  0  0  0  0
   38.0890   27.7950   41.1010 N   0  0  0  0  0  0  0  0  0  0  0  0
   36.5840   25.2350   42.6880 H   0  0  0  0  0  0  0  0  0  0  0  0
   36.4500   26.9890   44.5050 H   0  0  0  0  0  0  0  0  0  0  0  0
   37.4060   29.2320   44.0130 H   0  0  0  0  0  0  0  0  0  0  0  0
   38.6010   30.1120   41.7910 C   0  0  0  0  0  0  0  0  0  0  0  0
   39.3970   30.5900   42.6350 O   0  0  0  0  0  0  0  0  0  0  0  0
   39.2830   30.9280   39.6130 C   0  0  0  0  0  0  0  0  0  0  0  0
   38.3380   30.9770   40.6440 C   0  0  0  0  0  0  0  0  0  0  0  0
   37.2510   31.8190   40.5070 C   0  0  0  0  0  0  0  0  0  0  0  0
   36.5460   31.8320   41.3160 H   0  0  0  0  0  0  0  0  0  0  0  0
   37.0850   32.6020   39.3830 C   0  0  0  0  0  0  0  0  0  0  0  0
   36.2510   33.2580   39.2620 H   0  0  0  0  0  0  0  0  0  0  0  0
   38.0010   32.5750   38.3490 C   0  0  0  0  0  3  0  0  0  0  0  0
   39.0860   31.7340   38.4880 C   0  0  0  0  0  3  0  0  0  0  0  0
   40.4800   29.0610   40.8130 H   0  0  0  0  0  0  0  0  0  0  0  0
   40.6780   29.8810   39.7310 S   0  0  0  0  0  0  0  0  0  0  0  0
   41.9370   30.6370   40.0260 O   0  0  0  0  0  0  0  0  0  0  0  0
   40.8110   28.9550   38.5490 O   0  0  0  0  0  0  0  0  0  0  0  0
  1  7  1  6  0  0  0
  1  2  1  0  0  0  0
  1 19  1  0  0  0  0
  2  8  1  0  0  0  0
  2  9  1  0  0  0  0
  3 11  1  0  0  0  0
  3  2  1  0  0  0  0
  4  3  1  0  0  0  0
  4 12  1  0  0  0  0
  5  4  1  0  0  0  0
  5 15  1  0  0  0  0
  5  6  1  0  0  0  0
  6 16  1  6  0  0  0
  6  1  1  0  0  0  0
  6 26  1  0  0  0  0
 10  3  1  0  0  0  0
 13  4  1  0  0  0  0
 14  5  1  0  0  0  0
 17 23  1  0  0  0  0
 18 24  1  0  0  0  0
 18 17  2  0  0  0  0
 19 18  1  0  0  0  0
 20 19  2  0  0  0  0
 20 21  1  0  0  0  0
 21 22  2  0  0  0  0
 22 17  1  0  0  0  0
 25 21  1  0  0  0  0
 26 27  1  0  0  0  0
 27 32  1  0  0  0  0
 27 28  2  0  0  0  0
 28 33  1  0  0  0  0
 29 28  1  0  0  0  0
 29 34  1  0  0  0  0
 30 29  2  0  0  0  0
 31 26  2  0  0  0  0
 31 30  1  0  0  0  0
 35 30  1  0  0  0  0
 35 36  2  0  0  0  0
 37 46  1  0  0  0  0
 37 38  1  0  0  0  0
 38 35  1  0  0  0  0
 39 38  2  0  0  0  0
 39 40  1  0  0  0  0
 41 39  1  0  0  0  0
 42 41  1  0  0  0  0
 43 44  1  0  0  0  0
 43 41  2  0  0  0  0
 44 37  2  0  0  0  0
 46 47  2  0  0  0  0
 46 45  1  0  0  0  0
 48 46  2  0  0  0  0
M  END
>  <minimizedAffinity>
-5.84941721

$$$$
