
 OpenBabel03242521173D

 41 43  0  0  0  0  0  0  0  0999 V2000
   46.5720   32.6990   46.5190 C   0  0  0  0  0  0  0  0  0  0  0  0
   47.5110   33.1260   46.9610 H   0  0  0  0  0  0  0  0  0  0  0  0
   46.8770   31.8230   45.9050 H   0  0  0  0  0  0  0  0  0  0  0  0
   44.5880   35.4720   44.9570 C   0  0  0  0  0  0  0  0  0  0  0  0
   45.1630   35.4880   43.6700 C   0  0  0  0  0  0  0  0  0  0  0  0
   46.1790   34.5650   43.4170 C   0  0  0  0  0  0  0  0  0  0  0  0
   46.5510   33.7110   44.4200 N   0  0  0  0  0  0  0  0  0  0  0  0
   45.9780   33.7320   45.6230 C   0  0  0  0  0  0  0  0  0  0  0  0
   44.9820   34.6140   45.9190 N   0  0  0  0  0  0  0  0  0  0  0  0
   43.8040   36.1720   45.1790 H   0  0  0  0  0  0  0  0  0  0  0  0
   44.8240   36.1850   42.9270 H   0  0  0  0  0  0  0  0  0  0  0  0
   46.7720   34.5660   42.1230 N   0  0  0  0  0  0  0  0  0  0  0  0
   47.9610   35.2010   41.9740 C   0  0  0  0  0  0  0  0  0  0  0  0
   48.5510   35.2070   40.7090 C   0  0  0  0  0  0  0  0  0  0  0  0
   47.9020   34.5760   39.6990 C   0  0  0  0  0  0  0  0  0  0  0  0
   48.4450   34.5820   38.5350 O   0  0  0  0  0  0  0  0  0  0  0  0
   46.7170   33.9380   39.8270 N   0  0  0  0  0  0  0  0  0  0  0  0
   46.1970   33.9680   41.0780 C   0  0  0  0  0  0  0  0  0  0  0  0
   45.1050   33.4100   41.3130 O   0  0  0  0  0  0  0  0  0  0  0  0
   48.4650   35.6950   42.7760 H   0  0  0  0  0  0  0  0  0  0  0  0
   49.5050   35.7020   40.5210 H   0  0  0  0  0  0  0  0  0  0  0  0
   46.2120   33.4500   39.0510 H   0  0  0  0  0  0  0  0  0  0  0  0
   45.6030   32.2980   47.6120 C   0  0  0  0  0  0  0  0  0  0  0  0
   44.9000   33.1620   47.7980 H   0  0  0  0  0  0  0  0  0  0  0  0
   46.1480   32.1660   48.5690 H   0  0  0  0  0  0  0  0  0  0  0  0
   45.5010   29.8860   47.4170 C   0  0  0  0  0  0  0  0  0  0  0  0
   46.7000   29.8630   47.8120 O   0  0  0  0  0  0  0  0  0  0  0  0
   44.8780   31.1210   47.2240 N   0  0  0  0  0  0  0  0  0  0  0  0
   43.9210   31.1520   46.8110 H   0  0  0  0  0  0  0  0  0  0  0  0
   44.3680   28.0580   46.0340 C   0  0  0  0  0  0  0  0  0  0  0  0
   44.8770   28.5870   47.2000 C   0  0  0  0  0  0  0  0  0  0  0  0
   44.8260   27.8420   48.3850 C   0  0  0  0  0  0  0  0  0  0  0  0
   45.1990   28.1690   49.3580 H   0  0  0  0  0  0  0  0  0  0  0  0
   44.2650   26.5710   48.3870 C   0  0  0  0  0  0  0  0  0  0  0  0
   44.1970   25.9470   49.2680 H   0  0  0  0  0  0  0  0  0  0  0  0
   43.7620   26.0580   47.2100 C   0  0  0  0  0  0  0  0  0  0  0  0
   43.8100   26.7970   46.0230 C   0  0  0  0  0  0  0  0  0  0  0  0
   44.6900   30.4090   44.9670 H   0  0  0  0  0  0  0  0  0  0  0  0
   44.5030   29.1050   44.6360 S   0  0  0  0  0  0  0  0  0  0  0  0
   43.1470   29.0400   43.9520 O   0  0  0  0  0  0  0  0  0  0  0  0
   45.4970   28.5880   43.6460 O   0  0  0  0  0  0  0  0  0  0  0  0
  1  2  1  0  0  0  0
  1 23  1  0  0  0  0
  3  1  1  0  0  0  0
  4 10  1  0  0  0  0
  4  9  1  0  0  0  0
  5  4  2  0  0  0  0
  6  5  1  0  0  0  0
  6  7  2  0  0  0  0
  7  8  1  0  0  0  0
  8  9  2  0  0  0  0
  8  1  1  0  0  0  0
 11  5  1  0  0  0  0
 12  6  1  0  0  0  0
 13 12  1  0  0  0  0
 13 20  1  0  0  0  0
 14 13  2  0  0  0  0
 15 17  1  0  0  0  0
 15 14  1  0  0  0  0
 16 15  2  0  0  0  0
 17 18  1  0  0  0  0
 18 19  2  0  0  0  0
 18 12  1  0  0  0  0
 21 14  1  0  0  0  0
 22 17  1  0  0  0  0
 23 24  1  0  0  0  0
 23 25  1  0  0  0  0
 26 27  2  0  0  0  0
 28 26  1  0  0  0  0
 28 23  1  0  0  0  0
 29 28  1  0  0  0  0
 30 31  1  0  0  0  0
 31 26  1  0  0  0  0
 31 32  2  0  0  0  0
 32 34  1  0  0  0  0
 32 33  1  0  0  0  0
 34 35  1  0  0  0  0
 36 34  2  0  0  0  0
 37 30  2  0  0  0  0
 37 36  1  0  0  0  0
 39 38  1  0  0  0  0
 39 30  1  0  0  0  0
 40 39  2  0  0  0  0
 41 39  2  0  0  0  0
M  END
>  <minimizedAffinity>
-6.31846046

>  <minimizedRMSD>
2.20703411

$$$$
