
 OpenBabel03242519403D

 32 33  0  0  0  0  0  0  0  0999 V2000
   48.0720   32.8830   41.7740 O   0  0  0  0  0  0  0  0  0  0  0  0
   47.1630   34.0390   41.2740 P   0  0  2  0  0  0  0  0  0  0  0  0
   45.5830   33.7990   41.9010 O   0  0  0  0  0  0  0  0  0  0  0  0
   44.3930   35.8860   44.6360 C   0  0  0  0  0  0  0  0  0  0  0  0
   44.6720   35.4360   43.3250 C   0  0  0  0  0  0  0  0  0  0  0  0
   45.3250   34.2010   43.1940 C   0  0  0  0  0  0  0  0  0  0  0  0
   45.6490   33.5130   44.3080 N   0  0  0  0  0  0  0  0  0  0  0  0
   45.3680   33.9700   45.5480 C   0  0  0  0  0  0  0  0  0  0  0  0
   44.7450   35.1450   45.7250 N   0  0  0  0  0  0  0  0  0  0  0  0
   43.8920   36.8320   44.7260 H   0  0  0  0  0  0  0  0  0  0  0  0
   44.3730   36.0570   42.4890 H   0  0  0  0  0  0  0  0  0  0  0  0
   45.6750   33.3330   46.3780 H   0  0  0  0  0  0  0  0  0  0  0  0
   47.0960   33.9900   39.6210 O   0  0  0  0  0  0  0  0  0  0  0  0
   46.6160   33.0260   38.7910 C   0  0  0  0  0  0  0  0  0  0  0  0
   45.6780   33.3980   37.8920 O   0  0  0  0  0  0  0  0  0  0  0  0
   47.6260   31.1620   37.5300 C   0  0  0  0  0  0  0  0  0  0  0  0
   46.6490   31.6130   38.3580 C   0  0  0  0  0  0  0  0  0  0  0  0
   45.7340   30.6810   38.8380 C   0  0  0  0  0  0  0  0  0  0  0  0
   44.9570   31.0990   39.5120 H   0  0  0  0  0  0  0  0  0  0  0  0
   45.6430   29.3350   38.6160 C   0  0  0  0  0  0  0  0  0  0  0  0
   44.8670   28.7510   39.0680 H   0  0  0  0  0  0  0  0  0  0  0  0
   46.6270   28.8770   37.7830 C   0  0  0  0  0  3  0  0  0  0  0  0
   47.5400   29.7760   37.2960 C   0  0  0  0  0  3  0  0  0  0  0  0
   49.5320   31.1350   35.8780 H   0  0  0  0  0  0  0  0  0  0  0  0
   48.8710   32.0380   36.7350 S   0  0  0  0  0  0  0  0  0  0  0  0
   48.4150   33.1820   35.8700 O   0  0  0  0  0  0  0  0  0  0  0  0
   49.9130   32.4780   37.7220 O   0  0  0  0  0  0  0  0  0  0  0  0
   47.7830   35.4350   41.9120 O   0  0  0  0  0  0  0  0  0  0  0  0
   49.0320   35.7470   41.4000 C   0  0  0  0  0  0  0  0  0  0  0  0
   49.4510   37.0170   41.7600 F   0  0  0  0  0  0  0  0  0  0  0  0
   49.9320   34.7830   41.7200 F   0  0  0  0  0  0  0  0  0  0  0  0
   48.8890   35.7640   40.0150 F   0  0  0  0  0  0  0  0  0  0  0  0
  2  1  2  1  0  0  0
  2  3  1  0  0  0  0
  2 28  1  0  0  0  0
  3  6  1  0  0  0  0
  4 10  1  0  0  0  0
  4  9  1  0  0  0  0
  5  4  2  0  0  0  0
  6  5  1  0  0  0  0
  6  7  2  0  0  0  0
  7  8  1  0  0  0  0
  8  9  2  0  0  0  0
  8 12  1  0  0  0  0
 11  5  1  0  0  0  0
 13  2  1  0  0  0  0
 14 13  1  0  0  0  0
 15 14  2  0  0  0  0
 16 17  1  0  0  0  0
 17 14  1  0  0  0  0
 17 18  2  0  0  0  0
 18 19  1  0  0  0  0
 20 18  1  0  0  0  0
 20 21  1  0  0  0  0
 22 20  2  0  0  0  0
 23 16  2  0  0  0  0
 23 22  1  0  0  0  0
 24 25  1  0  0  0  0
 25 16  1  0  0  0  0
 25 27  2  0  0  0  0
 26 25  2  0  0  0  0
 29 31  1  0  0  0  0
 29 30  1  0  0  0  0
 29 28  1  0  0  0  0
 32 29  1  0  0  0  0
M  END
>  <minimizedAffinity>
-5.00861025

>  <minimizedRMSD>
0.630238652

$$$$
