
 OpenBabel03242519413D

 32 33  0  0  0  0  0  0  0  0999 V2000
   47.9240   32.8290   41.6830 O   0  0  0  0  0  0  0  0  0  0  0  0
   47.0540   34.0520   41.2790 P   0  0  2  0  0  0  0  0  0  0  0  0
   45.4820   33.8420   41.9370 O   0  0  0  0  0  0  0  0  0  0  0  0
   44.4060   35.9310   44.7170 C   0  0  0  0  0  0  0  0  0  0  0  0
   44.6470   35.4890   43.3960 C   0  0  0  0  0  0  0  0  0  0  0  0
   45.2610   34.2370   43.2390 C   0  0  0  0  0  0  0  0  0  0  0  0
   45.5860   33.5270   44.3380 N   0  0  0  0  0  0  0  0  0  0  0  0
   45.3420   33.9770   45.5890 C   0  0  0  0  0  0  0  0  0  0  0  0
   44.7570   35.1680   45.7910 N   0  0  0  0  0  0  0  0  0  0  0  0
   43.9360   36.8910   44.8270 H   0  0  0  0  0  0  0  0  0  0  0  0
   44.3510   36.1280   42.5730 H   0  0  0  0  0  0  0  0  0  0  0  0
   45.6460   33.3210   46.4050 H   0  0  0  0  0  0  0  0  0  0  0  0
   46.9420   34.1050   39.6290 O   0  0  0  0  0  0  0  0  0  0  0  0
   46.5140   33.1620   38.7480 C   0  0  0  0  0  0  0  0  0  0  0  0
   45.4150   32.4530   39.0890 O   0  0  0  0  0  0  0  0  0  0  0  0
   47.6560   31.5300   37.2930 C   0  0  0  0  0  0  0  0  0  0  0  0
   46.7010   32.4820   37.4490 C   0  0  0  0  0  0  0  0  0  0  0  0
   45.8640   32.7340   36.3660 C   0  0  0  0  0  0  0  0  0  0  0  0
   45.0980   33.5210   36.5440 H   0  0  0  0  0  0  0  0  0  0  0  0
   45.8300   32.1690   35.1230 C   0  0  0  0  0  0  0  0  0  0  0  0
   45.1110   32.4800   34.3930 H   0  0  0  0  0  0  0  0  0  0  0  0
   46.7900   31.2060   34.9620 C   0  0  0  0  0  3  0  0  0  0  0  0
   47.6270   30.9400   36.0150 C   0  0  0  0  0  3  0  0  0  0  0  0
   49.6810   30.0850   37.7100 H   0  0  0  0  0  0  0  0  0  0  0  0
   48.8650   31.0080   38.3940 S   0  0  0  0  0  0  0  0  0  0  0  0
   49.7860   32.0820   38.9110 O   0  0  0  0  0  0  0  0  0  0  0  0
   48.2470   30.2290   39.5190 O   0  0  0  0  0  0  0  0  0  0  0  0
   47.7530   35.3780   41.9800 O   0  0  0  0  0  0  0  0  0  0  0  0
   48.9880   35.6850   41.4310 C   0  0  0  0  0  0  0  0  0  0  0  0
   49.4140   36.9600   41.7590 F   0  0  0  0  0  0  0  0  0  0  0  0
   49.8980   34.7270   41.7420 F   0  0  0  0  0  0  0  0  0  0  0  0
   48.8080   35.6790   40.0500 F   0  0  0  0  0  0  0  0  0  0  0  0
  2  1  2  1  0  0  0
  2  3  1  0  0  0  0
  2 28  1  0  0  0  0
  3  6  1  0  0  0  0
  4 10  1  0  0  0  0
  4  9  1  0  0  0  0
  5  4  2  0  0  0  0
  6  5  1  0  0  0  0
  6  7  2  0  0  0  0
  7  8  1  0  0  0  0
  8  9  2  0  0  0  0
  8 12  1  0  0  0  0
 11  5  1  0  0  0  0
 13  2  1  0  0  0  0
 14 15  2  0  0  0  0
 14 13  1  0  0  0  0
 16 17  1  0  0  0  0
 16 25  1  0  0  0  0
 17 14  1  0  0  0  0
 18 19  1  0  0  0  0
 18 17  2  0  0  0  0
 20 18  1  0  0  0  0
 21 20  1  0  0  0  0
 22 20  2  0  0  0  0
 22 23  1  0  0  0  0
 23 16  2  0  0  0  0
 24 25  1  0  0  0  0
 25 26  2  0  0  0  0
 25 27  2  0  0  0  0
 29 31  1  0  0  0  0
 29 30  1  0  0  0  0
 29 28  1  0  0  0  0
 32 29  1  0  0  0  0
M  END
>  <minimizedAffinity>
-5.22885561

>  <minimizedRMSD>
2.12444901

$$$$
