
 OpenBabel03242516523D

 48 51  0  0  1  0  0  0  0  0999 V2000
   47.2520   34.4500   42.5310 C   0  0  1  0  0  0  0  0  0  0  0  0
   48.2090   33.3560   42.6920 C   0  0  0  0  0  0  0  0  0  0  0  0
   49.2320   33.5130   41.5690 C   0  0  0  0  0  0  0  0  0  0  0  0
   48.5080   33.1800   40.2770 C   0  0  0  0  0  0  0  0  0  0  0  0
   47.2560   33.9720   40.0460 C   0  0  0  0  0  0  0  0  0  0  0  0
   46.4560   34.3380   41.2270 C   0  0  1  0  0  0  0  0  0  0  0  0
   47.8310   35.4110   42.3670 H   0  0  0  0  0  0  0  0  0  0  0  0
   48.7630   33.4880   43.6340 H   0  0  0  0  0  0  0  0  0  0  0  0
   47.7870   32.3390   42.5870 H   0  0  0  0  0  0  0  0  0  0  0  0
   49.6590   34.5300   41.5350 H   0  0  0  0  0  0  0  0  0  0  0  0
   49.9800   32.7220   41.7330 H   0  0  0  0  0  0  0  0  0  0  0  0
   48.2330   32.1020   40.3800 H   0  0  0  0  0  0  0  0  0  0  0  0
   49.1860   33.3200   39.4010 H   0  0  0  0  0  0  0  0  0  0  0  0
   47.5530   34.8780   39.4490 H   0  0  0  0  0  0  0  0  0  0  0  0
   46.6250   33.3590   39.3680 H   0  0  0  0  0  0  0  0  0  0  0  0
   46.0450   35.3770   41.0570 H   0  0  0  0  0  0  0  0  0  0  0  0
   45.4480   33.9820   45.8170 C   0  0  0  0  0  0  0  0  0  0  0  0
   46.3040   33.8240   44.7230 C   0  0  0  0  0  0  0  0  0  0  0  0
   46.3390   34.6930   43.6290 C   0  0  0  0  0  0  0  0  0  0  0  0
   45.4860   35.7160   43.6810 N   0  0  0  0  0  0  0  0  0  0  0  0
   44.6440   35.8890   44.7350 C   0  0  0  0  0  0  0  0  0  0  0  0
   44.6160   35.0520   45.7800 N   0  0  0  0  0  0  0  0  0  0  0  0
   45.4540   33.2970   46.6300 H   0  0  0  0  0  0  0  0  0  0  0  0
   46.9630   32.9670   44.7630 H   0  0  0  0  0  0  0  0  0  0  0  0
   44.0280   36.7710   44.6000 H   0  0  0  0  0  0  0  0  0  0  0  0
   45.2690   33.4990   41.3860 C   0  0  0  0  0  0  0  0  0  0  0  0
   45.2700   32.1320   41.7050 C   0  0  0  0  0  0  0  0  0  0  0  0
   44.0090   31.5410   41.8240 C   0  0  0  0  0  0  0  0  0  0  0  0
   42.8930   32.3290   41.6230 C   0  0  0  0  0  0  0  0  0  0  0  0
   42.9230   33.6690   41.3110 C   0  0  0  0  0  0  0  0  0  0  0  0
   44.1500   34.2500   41.1940 N   0  0  0  0  0  0  0  0  0  0  0  0
   46.2110   31.6630   41.8280 H   0  0  0  0  0  0  0  0  0  0  0  0
   43.9840   30.4910   42.0690 H   0  0  0  0  0  0  0  0  0  0  0  0
   41.9260   31.8450   41.7210 H   0  0  0  0  0  0  0  0  0  0  0  0
   41.6870   34.4370   41.1190 C   0  0  0  0  0  0  0  0  0  0  0  0
   41.5810   35.5430   41.7000 O   0  0  0  0  0  0  0  0  0  0  0  0
   40.6640   34.2520   38.9290 C   0  0  0  0  0  0  0  0  0  0  0  0
   40.5310   34.0600   40.3090 C   0  0  0  0  0  0  0  0  0  0  0  0
   39.3460   33.5410   40.7950 C   0  0  0  0  0  0  0  0  0  0  0  0
   39.2780   33.4070   41.8580 H   0  0  0  0  0  0  0  0  0  0  0  0
   38.3050   33.2140   39.9510 C   0  0  0  0  0  0  0  0  0  0  0  0
   37.3830   32.8120   40.3110 H   0  0  0  0  0  0  0  0  0  0  0  0
   38.4060   33.3920   38.5850 C   0  0  0  0  0  0  0  0  0  0  0  0
   39.5890   33.9100   38.1020 C   0  0  0  0  0  0  0  0  0  0  0  0
   41.8810   35.2250   36.9480 H   0  0  0  0  0  0  0  0  0  0  0  0
   42.1390   34.9040   38.2570 S   0  0  0  0  0  0  0  0  0  0  0  0
   43.2440   33.8930   38.2120 O   0  0  0  0  0  0  0  0  0  0  0  0
   42.5520   36.1990   38.9100 O   0  0  0  0  0  0  0  0  0  0  0  0
  1  7  1  6  0  0  0
  1  2  1  0  0  0  0
  1 19  1  0  0  0  0
  2  8  1  0  0  0  0
  3 11  1  0  0  0  0
  3  2  1  0  0  0  0
  4 12  1  0  0  0  0
  4  3  1  0  0  0  0
  5  4  1  0  0  0  0
  5  6  1  0  0  0  0
  6 16  1  6  0  0  0
  6 26  1  0  0  0  0
  6  1  1  0  0  0  0
  9  2  1  0  0  0  0
 10  3  1  0  0  0  0
 13  4  1  0  0  0  0
 14  5  1  0  0  0  0
 15  5  1  0  0  0  0
 17 23  1  0  0  0  0
 18 24  1  0  0  0  0
 18 17  2  0  0  0  0
 19 20  2  0  0  0  0
 19 18  1  0  0  0  0
 20 21  1  0  0  0  0
 21 22  2  0  0  0  0
 22 17  1  0  0  0  0
 25 21  1  0  0  0  0
 26 27  1  0  0  0  0
 27 28  2  0  0  0  0
 27 32  1  0  0  0  0
 28 33  1  0  0  0  0
 29 34  1  0  0  0  0
 29 28  1  0  0  0  0
 30 29  2  0  0  0  0
 31 30  1  0  0  0  0
 31 26  2  0  0  0  0
 35 30  1  0  0  0  0
 35 36  2  0  0  0  0
 37 38  1  0  0  0  0
 38 39  2  0  0  0  0
 38 35  1  0  0  0  0
 39 40  1  0  0  0  0
 41 42  1  0  0  0  0
 41 39  1  0  0  0  0
 43 41  2  0  0  0  0
 44 43  1  0  0  0  0
 44 37  2  0  0  0  0
 45 46  1  0  0  0  0
 46 48  2  0  0  0  0
 46 37  1  0  0  0  0
 47 46  2  0  0  0  0
M  END
>  <minimizedAffinity>
-6.5324316

>  <minimizedRMSD>
3.54698706

$$$$
