
     RDKit          3D

 34 35  0  0  0  0  0  0  0  0999 V2000
   48.0888   32.9115   41.9098 O   0  0  0  0  0  0  0  0  0  0  0  0
   47.1926   34.0403   41.3298 P   0  0  2  0  0  0  0  0  0  0  0  0
   45.5960   33.8261   41.9234 O   0  0  0  0  0  0  0  0  0  0  0  0
   44.3631   35.9185   44.6337 C   0  0  0  0  0  0  0  0  0  0  0  0
   44.6627   35.4668   43.3286 C   0  0  0  0  0  0  0  0  0  0  0  0
   45.3184   34.2314   43.2106 C   0  0  0  0  0  0  0  0  0  0  0  0
   45.6248   33.5460   44.3314 N   0  0  0  0  0  0  0  0  0  0  0  0
   45.3237   34.0063   45.5657 C   0  0  0  0  0  0  0  0  0  0  0  0
   44.6982   35.1813   45.7301 N   0  0  0  0  0  0  0  0  0  0  0  0
   47.1734   33.9114   39.6797 O   0  0  0  0  0  0  0  0  0  0  0  0
   46.5336   33.0190   38.8781 C   0  0  0  0  0  0  0  0  0  0  0  0
   45.9449   33.5038   37.7617 O   0  0  0  0  0  0  0  0  0  0  0  0
   47.7929   35.4662   41.9168 O   0  0  0  0  0  0  0  0  0  0  0  0
   49.0435   35.7714   41.4037 C   0  0  0  0  0  0  0  0  0  0  0  0
   49.4525   37.0532   41.7283 F   0  0  0  0  0  0  0  0  0  0  0  0
   49.9477   34.8225   41.7585 F   0  0  0  0  0  0  0  0  0  0  0  0
   48.9091   35.7452   40.0182 F   0  0  0  0  0  0  0  0  0  0  0  0
   43.8614   36.8658   44.7140 H   0  0  0  0  0  0  0  0  0  0  0  0
   44.3771   36.0855   42.4868 H   0  0  0  0  0  0  0  0  0  0  0  0
   45.6181   33.3699   46.4024 H   0  0  0  0  0  0  0  0  0  0  0  0
   43.0973   30.7487   40.7679 H   0  0  0  0  0  0  0  0  0  0  0  0
   43.9570   31.7770   40.3314 S   0  0  0  0  0  0  0  0  0  0  0  0
   44.5997   32.3428   41.5697 O   0  0  0  0  0  0  0  0  0  0  0  0
   43.0622   32.7836   39.6691 O   0  0  0  0  0  0  0  0  0  0  0  0
   45.0316   31.0858   39.1843 C   0  0  0  0  0  0  0  0  0  0  0  0
   46.1480   31.6153   38.6208 C   0  0  0  0  0  0  0  0  0  0  0  0
   46.8638   30.8119   37.7383 C   0  0  0  0  0  0  0  0  0  0  0  0
   47.7674   31.2906   37.3037 H   0  0  0  0  0  0  0  0  0  0  0  0
   46.6317   29.5316   37.3204 C   0  0  0  0  0  0  0  0  0  0  0  0
   47.2896   29.0481   36.6262 H   0  0  0  0  0  0  0  0  0  0  0  0
   45.5068   28.9951   37.8848 C   0  0  0  0  0  0  0  0  0  0  0  0
   44.7845   29.7670   38.7583 C   0  0  0  0  0  0  0  0  0  0  0  0
   45.2233   28.0058   37.6357 H   0  0  0  0  0  0  0  0  0  0  0  0
   43.9006   29.2613   39.1581 H   0  0  0  0  0  0  0  0  0  0  0  0
  2  1  2  0
  2  3  1  1
  2 13  1  0
  3  6  1  0
  4  9  2  0
  5  4  1  0
  6  5  2  0
  6  7  1  0
  7  8  2  0
  8  9  1  0
 10  2  1  0
 11 10  1  0
 12 11  2  0
 14 16  1  0
 14 15  1  0
 14 13  1  0
 17 14  1  0
  4 18  1  0
  5 19  1  0
  8 20  1  0
 21 22  1  0
 22 23  2  0
 22 24  2  0
 22 25  1  0
 25 26  2  0
 26 27  1  0
 27 28  1  0
 27 29  2  0
 29 30  1  0
 29 31  1  0
 31 32  2  0
 32 25  1  0
 31 33  1  0
 32 34  1  0
 11 26  1  0
M  ISO  6  18  14  19  14  20  14  21  12  28  15  30  16
M  END
>  <DihAtoms>  (1) 
9,10,25,24

>  <DihDeg>  (1) 
175.3564772534302

$$$$
