
 OpenBabel03242521173D

 41 43  0  0  0  0  0  0  0  0999 V2000
   50.6240   29.5560   41.7410 C   0  0  0  0  0  0  0  0  0  0  0  0
   50.7210   28.4640   41.9790 H   0  0  0  0  0  0  0  0  0  0  0  0
   49.6350   29.6900   41.2490 H   0  0  0  0  0  0  0  0  0  0  0  0
   53.4830   31.0840   39.8560 C   0  0  0  0  0  0  0  0  0  0  0  0
   53.5350   30.2170   38.7450 C   0  0  0  0  0  0  0  0  0  0  0  0
   52.6040   29.1770   38.7080 C   0  0  0  0  0  0  0  0  0  0  0  0
   51.7090   29.0630   39.7380 N   0  0  0  0  0  0  0  0  0  0  0  0
   51.6980   29.9090   40.7680 C   0  0  0  0  0  0  0  0  0  0  0  0
   52.5860   30.9400   40.8500 N   0  0  0  0  0  0  0  0  0  0  0  0
   54.1890   31.8930   39.9100 H   0  0  0  0  0  0  0  0  0  0  0  0
   54.2630   30.3610   37.9700 H   0  0  0  0  0  0  0  0  0  0  0  0
   52.6420   28.2900   37.5960 N   0  0  0  0  0  0  0  0  0  0  0  0
   53.4140   27.1800   37.6990 C   0  0  0  0  0  0  0  0  0  0  0  0
   53.4550   26.3040   36.6130 C   0  0  0  0  0  0  0  0  0  0  0  0
   52.7200   26.6120   35.5150 C   0  0  0  0  0  0  0  0  0  0  0  0
   52.7590   25.8050   34.5170 O   0  0  0  0  0  0  0  0  0  0  0  0
   51.9440   27.7120   35.3940 N   0  0  0  0  0  0  0  0  0  0  0  0
   51.9470   28.5210   36.4800 C   0  0  0  0  0  0  0  0  0  0  0  0
   51.2650   29.5680   36.4800 O   0  0  0  0  0  0  0  0  0  0  0  0
   53.9890   26.9460   38.5670 H   0  0  0  0  0  0  0  0  0  0  0  0
   54.0580   25.3950   36.6300 H   0  0  0  0  0  0  0  0  0  0  0  0
   51.3760   27.9540   34.5490 H   0  0  0  0  0  0  0  0  0  0  0  0
   50.7320   30.3890   43.0010 C   0  0  0  0  0  0  0  0  0  0  0  0
   51.8220   30.6200   43.1830 H   0  0  0  0  0  0  0  0  0  0  0  0
   50.4210   29.7860   43.8790 H   0  0  0  0  0  0  0  0  0  0  0  0
   48.6090   31.5400   43.1870 C   0  0  0  0  0  0  0  0  0  0  0  0
   48.0950   30.4230   43.4710 O   0  0  0  0  0  0  0  0  0  0  0  0
   49.9670   31.5960   42.8650 N   0  0  0  0  0  0  0  0  0  0  0  0
   50.3780   32.4970   42.5400 H   0  0  0  0  0  0  0  0  0  0  0  0
   46.8730   33.0890   44.2480 C   0  0  0  0  0  0  0  0  0  0  0  0
   47.7080   32.6850   43.2280 C   0  0  0  0  0  0  0  0  0  0  0  0
   47.7590   33.4180   42.0370 C   0  0  0  0  0  0  0  0  0  0  0  0
   48.3850   33.1830   41.1710 H   0  0  0  0  0  0  0  0  0  0  0  0
   46.9710   34.5500   41.8780 C   0  0  0  0  0  0  0  0  0  0  0  0
   46.9660   35.1570   40.9830 H   0  0  0  0  0  0  0  0  0  0  0  0
   46.1420   34.9400   42.9100 C   0  0  0  0  0  3  0  0  0  0  0  0
   46.0860   34.2130   44.1030 C   0  0  0  0  0  3  0  0  0  0  0  0
   47.9210   31.1600   45.6440 H   0  0  0  0  0  0  0  0  0  0  0  0
   46.9180   32.0770   45.6760 S   0  0  0  0  0  0  0  0  0  0  0  0
   45.6250   31.2780   45.6450 O   0  0  0  0  0  0  0  0  0  0  0  0
   46.8820   32.8840   46.9330 O   0  0  0  0  0  0  0  0  0  0  0  0
  1  2  1  0  0  0  0
  1 23  1  0  0  0  0
  3  1  1  0  0  0  0
  4 10  1  0  0  0  0
  4  9  1  0  0  0  0
  5  4  2  0  0  0  0
  6  5  1  0  0  0  0
  6  7  2  0  0  0  0
  7  8  1  0  0  0  0
  8  9  2  0  0  0  0
  8  1  1  0  0  0  0
 11  5  1  0  0  0  0
 12 13  1  0  0  0  0
 12  6  1  0  0  0  0
 13 20  1  0  0  0  0
 14 21  1  0  0  0  0
 14 13  2  0  0  0  0
 15 14  1  0  0  0  0
 16 15  2  0  0  0  0
 17 15  1  0  0  0  0
 17 18  1  0  0  0  0
 18 12  1  0  0  0  0
 19 18  2  0  0  0  0
 22 17  1  0  0  0  0
 23 24  1  0  0  0  0
 23 25  1  0  0  0  0
 26 31  1  0  0  0  0
 26 27  2  0  0  0  0
 28 23  1  0  0  0  0
 28 26  1  0  0  0  0
 29 28  1  0  0  0  0
 30 39  1  0  0  0  0
 31 30  2  0  0  0  0
 32 31  1  0  0  0  0
 33 32  1  0  0  0  0
 34 32  2  0  0  0  0
 34 36  1  0  0  0  0
 35 34  1  0  0  0  0
 36 37  2  0  0  0  0
 37 30  1  0  0  0  0
 38 39  1  0  0  0  0
 39 41  2  0  0  0  0
 40 39  2  0  0  0  0
M  END
>  <minimizedAffinity>
-3.13541222

>  <minimizedRMSD>
8.97458458

$$$$
