REMARK  Name = 
REMARK  4 active torsions:
REMARK  status: ('A' for Active; 'I' for Inactive)
REMARK    1  A    between atoms: C_1  and  N_9
REMARK    2  A    between atoms: C_2  and  N_10
REMARK    3  A    between atoms: C_7  and  C_21
REMARK    4  A    between atoms: S_17  and  C_20
REMARK                            x       y       z     vdW  Elec       q    Type
REMARK                         _______ _______ _______ _____ _____    ______ ____
ROOT
ATOM      1  C   UNL     1      43.979  35.391  43.289  0.00  0.00    +0.000 C 
ATOM      2  O   UNL     1      44.416  34.287  42.841  0.00  0.00    +0.000 OA
ATOM      3  N   UNL     1      44.440  35.652  44.621  0.00  0.00    +0.000 N 
ATOM      4  H   UNL     1      44.177  36.494  45.155  0.00  0.00    +0.000 HD
ENDROOT
BRANCH   3   5
ATOM      5  C   UNL     1      45.298  34.557  45.038  0.00  0.00    +0.000 A 
ATOM      6  C   UNL     1      45.268  33.939  46.272  0.00  0.00    +0.000 A 
ATOM      7  C   UNL     1      46.173  32.906  46.479  0.00  0.00    +0.000 A 
ATOM      8  N   UNL     1      47.006  32.578  45.480  0.00  0.00    +0.000 NA
ATOM      9  C   UNL     1      47.007  33.207  44.281  0.00  0.00    +0.000 A 
ATOM     10  N   UNL     1      46.153  34.205  44.042  0.00  0.00    +0.000 NA
ATOM     11  H   UNL     1      46.131  32.438  47.453  0.00  0.00    +0.000 HD
ATOM     12  H   UNL     1      47.733  32.843  43.560  0.00  0.00    +0.000 HD
BRANCH   6  13
ATOM     13  N   UNL     1      44.313  34.430  47.186  0.00  0.00    +0.000 N 
ATOM     14  H   UNL     1      44.113  35.444  47.284  0.00  0.00    +0.000 HD
ATOM     15  H   UNL     1      43.716  33.867  47.848  0.00  0.00    +0.000 HD
ENDBRANCH   6  13
ENDBRANCH   3   5
BRANCH   1  17
ATOM     16  C   UNL     1      43.529  37.576  42.117  0.00  0.00    +0.000 A 
ATOM     17  C   UNL     1      43.105  36.363  42.618  0.00  0.00    +0.000 A 
ATOM     18  C   UNL     1      41.785  35.951  42.527  0.00  0.00    +0.000 A 
ATOM     19  H   UNL     1      41.402  35.023  42.897  0.00  0.00    +0.000 HD
ATOM     20  C   UNL     1      40.844  36.781  41.910  0.00  0.00    +0.000 A 
ATOM     21  H   UNL     1      39.786  36.507  41.810  0.00  0.00    +0.000 HD
ATOM     22  C   UNL     1      41.286  37.982  41.420  0.00  0.00    +0.000 A 
ATOM     23  C   UNL     1      42.602  38.414  41.500  0.00  0.00    +0.000 A 
BRANCH  16  25
ATOM     24  H   UNL     1      45.633  37.888  43.602  0.00  0.00    +0.000 HD
ATOM     25  S   UNL     1      45.216  37.971  42.299  0.00  0.00    +0.000 S 
ATOM     26  O   UNL     1      46.027  37.099  41.391  0.00  0.00    +0.000 OA
ATOM     27  O   UNL     1      45.376  39.409  41.860  0.00  0.00    +0.000 OA
ENDBRANCH  16  25
ENDBRANCH   1  17
TORSDOF 4
