
     RDKit          3D

 27 28  0  0  0  0  0  0  0  0999 V2000
   44.6745   36.0767   44.2888 C   0  0  0  0  0  0  0  0  0  0  0  0
   45.4737   35.5910   43.2445 C   0  0  0  0  0  0  0  0  0  0  0  0
   46.1726   34.3881   43.4609 C   0  0  0  0  0  0  0  0  0  0  0  0
   46.0395   33.7546   44.6703 N   0  0  0  0  0  0  0  0  0  0  0  0
   45.2548   34.2652   45.6470 C   0  0  0  0  0  0  0  0  0  0  0  0
   44.5747   35.4298   45.4459 N   0  0  0  0  0  0  0  0  0  0  0  0
   46.1612   32.5859   47.1329 C   0  0  0  0  0  0  0  0  0  0  0  0
   47.1127   32.2927   46.3687 O   0  0  0  0  0  0  0  0  0  0  0  0
   45.1633   33.5571   46.8780 N   0  0  0  0  0  0  0  0  0  0  0  0
   44.0930   36.9931   44.2365 H   0  0  0  0  0  0  0  0  0  0  0  0
   45.5110   36.1659   42.3327 H   0  0  0  0  0  0  0  0  0  0  0  0
   46.7881   34.0159   42.6532 H   0  0  0  0  0  0  0  0  0  0  0  0
   44.3657   33.8187   47.4918 H   0  0  0  0  0  0  0  0  0  0  0  0
   43.1965   31.8296   47.0799 H   0  0  0  0  0  0  0  0  0  0  0  0
   43.8094   30.6811   47.4662 S   0  0  0  0  0  0  0  0  0  0  0  0
   42.7366   29.8588   48.1741 O   0  0  0  0  0  0  0  0  0  0  0  0
   44.2960   29.8386   46.3200 O   0  0  0  0  0  0  0  0  0  0  0  0
   45.0680   30.9441   48.6708 C   0  0  0  0  0  0  0  0  0  0  0  0
   46.0944   31.8393   48.4060 C   0  0  0  0  0  0  0  0  0  0  0  0
   47.0446   32.0022   49.3740 C   0  0  0  0  0  0  0  0  0  0  0  0
   47.8898   32.6698   49.2751 H   0  0  0  0  0  0  0  0  0  0  0  0
   47.0686   31.3505   50.5938 C   0  0  0  0  0  0  0  0  0  0  0  0
   47.8241   31.4815   51.3546 H   0  0  0  0  0  0  0  0  0  0  0  0
   46.0357   30.4620   50.8401 C   0  0  0  0  0  0  0  0  0  0  0  0
   45.0589   30.2678   49.8917 C   0  0  0  0  0  0  0  0  0  0  0  0
   45.9415   29.8841   51.7673 H   0  0  0  0  0  0  0  0  0  0  0  0
   44.2465   29.5647   50.0992 H   0  0  0  0  0  0  0  0  0  0  0  0
  1  6  2  0
  2  3  2  0
  2  1  1  0
  3  4  1  0
  4  5  2  0
  5  9  1  0
  6  5  1  0
  8  7  2  0
  9  7  1  0
  1 10  1  0
  2 11  1  0
  3 12  1  0
  9 13  1  0
 14 15  1  0
 15 16  2  0
 15 17  2  0
 15 18  1  0
 18 19  2  0
 19 20  1  0
 20 21  1  0
 20 22  2  0
 22 23  1  0
 22 24  1  0
 24 25  2  0
 25 18  1  0
 24 26  1  0
 25 27  1  0
  7 19  1  0
M  ISO  6  10  14  11  14  12  14  14  12  21  15  23  16
M  END
>  <DihAtoms>  (1) 
7,6,18,17

>  <DihDeg>  (1) 
-7.720278544230371

$$$$
