
     RDKit          3D

 27 28  0  0  0  0  0  0  0  0999 V2000
   44.6745   36.0767   44.2888 C   0  0  0  0  0  0  0  0  0  0  0  0
   45.4737   35.5910   43.2445 C   0  0  0  0  0  0  0  0  0  0  0  0
   46.1726   34.3881   43.4609 C   0  0  0  0  0  0  0  0  0  0  0  0
   46.0395   33.7546   44.6703 N   0  0  0  0  0  0  0  0  0  0  0  0
   45.2548   34.2652   45.6470 C   0  0  0  0  0  0  0  0  0  0  0  0
   44.5747   35.4298   45.4459 N   0  0  0  0  0  0  0  0  0  0  0  0
   46.1612   32.5859   47.1329 C   0  0  0  0  0  0  0  0  0  0  0  0
   47.1127   32.2927   46.3687 O   0  0  0  0  0  0  0  0  0  0  0  0
   45.1633   33.5571   46.8780 N   0  0  0  0  0  0  0  0  0  0  0  0
   44.0930   36.9931   44.2365 H   0  0  0  0  0  0  0  0  0  0  0  0
   45.5110   36.1659   42.3327 H   0  0  0  0  0  0  0  0  0  0  0  0
   46.7881   34.0159   42.6532 H   0  0  0  0  0  0  0  0  0  0  0  0
   44.3657   33.8187   47.4918 H   0  0  0  0  0  0  0  0  0  0  0  0
   49.0283   31.5185   47.2035 H   0  0  0  0  0  0  0  0  0  0  0  0
   48.8200   31.9509   48.4738 S   0  0  0  0  0  0  0  0  0  0  0  0
   49.8339   31.2039   49.3353 O   0  0  0  0  0  0  0  0  0  0  0  0
   49.1005   33.4149   48.6694 O   0  0  0  0  0  0  0  0  0  0  0  0
   47.2407   31.4928   49.1066 C   0  0  0  0  0  0  0  0  0  0  0  0
   46.0944   31.8393   48.4060 C   0  0  0  0  0  0  0  0  0  0  0  0
   44.8970   31.4610   48.9440 C   0  0  0  0  0  0  0  0  0  0  0  0
   43.9412   31.6794   48.4871 H   0  0  0  0  0  0  0  0  0  0  0  0
   44.7323   30.7626   50.1265 C   0  0  0  0  0  0  0  0  0  0  0  0
   43.7825   30.4683   50.5483 H   0  0  0  0  0  0  0  0  0  0  0  0
   45.8877   30.4250   50.8106 C   0  0  0  0  0  0  0  0  0  0  0  0
   47.1139   30.7874   50.3042 C   0  0  0  0  0  0  0  0  0  0  0  0
   45.8916   29.8730   51.7581 H   0  0  0  0  0  0  0  0  0  0  0  0
   48.0198   30.5126   50.8531 H   0  0  0  0  0  0  0  0  0  0  0  0
  1  6  2  0
  2  3  2  0
  2  1  1  0
  3  4  1  0
  4  5  2  0
  5  9  1  0
  6  5  1  0
  8  7  2  0
  9  7  1  0
  1 10  1  0
  2 11  1  0
  3 12  1  0
  9 13  1  0
 14 15  1  0
 15 16  2  0
 15 17  2  0
 15 18  1  0
 18 19  2  0
 19 20  1  0
 20 21  1  0
 20 22  2  0
 22 23  1  0
 22 24  1  0
 24 25  2  0
 25 18  1  0
 24 26  1  0
 25 27  1  0
  7 19  1  0
M  ISO  6  10  14  11  14  12  14  14  12  21  15  23  16
M  END
>  <DihAtoms>  (1) 
7,6,18,17

>  <DihDeg>  (1) 
-7.720278544230371

$$$$
