
 OpenBabel03252501323D

 27 28  0  0  0  0  0  0  0  0999 V2000
   46.4420   33.9820   40.9650 C   0  0  0  0  0  0  0  0  0  0  0  0
   47.3970   34.5020   40.3090 O   0  0  0  0  0  0  0  0  0  0  0  0
   46.8880   32.9150   41.8110 N   0  0  0  0  0  0  0  0  0  0  0  0
   46.2520   32.3640   42.4080 H   0  0  0  0  0  0  0  0  0  0  0  0
   48.3260   32.7770   41.6650 C   0  0  0  0  0  0  0  0  0  0  0  0
   48.9650   31.9770   40.7390 C   0  0  0  0  0  0  0  0  0  0  0  0
   50.3540   31.9820   40.7580 C   0  0  0  0  0  0  0  0  0  0  0  0
   50.9770   32.7530   41.6620 N   0  0  0  0  0  0  0  0  0  0  0  0
   50.3170   33.5250   42.5560 C   0  0  0  0  0  0  0  0  0  0  0  0
   48.9820   33.5490   42.5710 N   0  0  0  0  0  0  0  0  0  0  0  0
   50.8320   31.3470   40.0240 H   0  0  0  0  0  0  0  0  0  0  0  0
   50.9420   34.1010   43.2330 H   0  0  0  0  0  0  0  0  0  0  0  0
   48.1280   31.2450   39.8720 N   0  0  0  0  0  0  0  0  0  0  0  0
   47.2550   30.7900   40.2020 H   0  0  0  0  0  0  0  0  0  0  0  0
   48.2720   31.0740   38.8420 H   0  0  0  0  0  0  0  0  0  0  0  0
   44.4020   35.1400   41.8850 C   0  0  0  0  0  0  0  0  0  0  0  0
   45.0190   34.3460   40.9410 C   0  0  0  0  0  0  0  0  0  0  0  0
   44.3270   33.8140   39.8650 C   0  0  0  0  0  0  0  0  0  0  0  0
   44.7550   33.1930   39.1040 H   0  0  0  0  0  0  0  0  0  0  0  0
   42.9630   34.0810   39.7190 C   0  0  0  0  0  0  0  0  0  0  0  0
   42.3660   33.6860   38.8870 H   0  0  0  0  0  0  0  0  0  0  0  0
   42.3710   34.8710   40.6680 C   0  0  0  0  0  3  0  0  0  0  0  0
   43.0420   35.4150   41.7530 C   0  0  0  0  0  3  0  0  0  0  0  0
   46.7080   35.4050   43.0430 H   0  0  0  0  0  0  0  0  0  0  0  0
   45.3880   35.7450   43.1880 S   0  0  0  0  0  0  0  0  0  0  0  0
   45.1950   37.2260   43.3050 O   0  0  0  0  0  0  0  0  0  0  0  0
   44.8860   35.0890   44.4550 O   0  0  0  0  0  0  0  0  0  0  0  0
  1  3  1  0  0  0  0
  2  1  2  0  0  0  0
  3  4  1  0  0  0  0
  5  3  1  0  0  0  0
  5 10  1  0  0  0  0
  6  7  1  0  0  0  0
  6  5  2  0  0  0  0
  7  8  2  0  0  0  0
  8  9  1  0  0  0  0
  9 10  2  0  0  0  0
  9 12  1  0  0  0  0
 11  7  1  0  0  0  0
 13 14  1  0  0  0  0
 13  6  1  0  0  0  0
 15 13  1  0  0  0  0
 16 25  1  0  0  0  0
 17  1  1  0  0  0  0
 17 16  2  0  0  0  0
 18 17  1  0  0  0  0
 19 18  1  0  0  0  0
 20 18  2  0  0  0  0
 20 22  1  0  0  0  0
 21 20  1  0  0  0  0
 22 23  2  0  0  0  0
 23 16  1  0  0  0  0
 24 25  1  0  0  0  0
 25 26  2  0  0  0  0
 25 27  2  0  0  0  0
M  END
>  <minimizedAffinity>
-4.47733879

>  <minimizedRMSD>
4.90160084

$$$$
