REMARK  Name = 
REMARK  2 active torsions:
REMARK  status: ('A' for Active; 'I' for Inactive)
REMARK    1  A    between atoms: C_7  and  C_19
REMARK    2  A    between atoms: S_15  and  C_18
REMARK                            x       y       z     vdW  Elec       q    Type
REMARK                         _______ _______ _______ _____ _____    ______ ____
ROOT
ATOM      1  C   UNL     1      44.675  36.077  44.289  0.00  0.00    +0.000 A 
ATOM      2  C   UNL     1      45.474  35.591  43.245  0.00  0.00    +0.000 A 
ATOM      3  C   UNL     1      46.173  34.388  43.461  0.00  0.00    +0.000 A 
ATOM      4  N   UNL     1      46.039  33.755  44.670  0.00  0.00    +0.000 NA
ATOM      5  C   UNL     1      45.255  34.265  45.647  0.00  0.00    +0.000 A 
ATOM      6  N   UNL     1      44.575  35.430  45.446  0.00  0.00    +0.000 NA
ATOM      7  C   UNL     1      46.161  32.586  47.133  0.00  0.00    +0.000 C 
ATOM      8  O   UNL     1      47.113  32.293  46.369  0.00  0.00    +0.000 OA
ATOM      9  N   UNL     1      45.163  33.557  46.878  0.00  0.00    +0.000 N 
ATOM     10  H   UNL     1      44.093  36.993  44.236  0.00  0.00    +0.000 HD
ATOM     11  H   UNL     1      45.511  36.166  42.333  0.00  0.00    +0.000 HD
ATOM     12  H   UNL     1      46.788  34.016  42.653  0.00  0.00    +0.000 HD
ATOM     13  H   UNL     1      44.366  33.819  47.492  0.00  0.00    +0.000 HD
ENDROOT
BRANCH   7  15
ATOM     14  C   UNL     1      47.241  31.493  49.107  0.00  0.00    +0.000 A 
ATOM     15  C   UNL     1      46.094  31.839  48.406  0.00  0.00    +0.000 A 
ATOM     16  C   UNL     1      44.897  31.461  48.944  0.00  0.00    +0.000 A 
ATOM     17  H   UNL     1      43.941  31.679  48.487  0.00  0.00    +0.000 HD
ATOM     18  C   UNL     1      44.732  30.763  50.127  0.00  0.00    +0.000 A 
ATOM     19  H   UNL     1      43.782  30.468  50.548  0.00  0.00    +0.000 HD
ATOM     20  C   UNL     1      45.888  30.425  50.811  0.00  0.00    +0.000 A 
ATOM     21  C   UNL     1      47.114  30.787  50.304  0.00  0.00    +0.000 A 
BRANCH  14  23
ATOM     22  H   UNL     1      49.028  31.518  47.203  0.00  0.00    +0.000 HD
ATOM     23  S   UNL     1      48.820  31.951  48.474  0.00  0.00    +0.000 S 
ATOM     24  O   UNL     1      49.834  31.204  49.335  0.00  0.00    +0.000 OA
ATOM     25  O   UNL     1      49.100  33.415  48.669  0.00  0.00    +0.000 OA
ENDBRANCH  14  23
ENDBRANCH   7  15
TORSDOF 2
