
 OpenBabel03242510493D

 25 26  0  0  0  0  0  0  0  0999 V2000
   45.0850   34.8600   43.7500 C   0  0  0  0  0  0  0  0  0  0  0  0
   44.1960   35.6260   42.9830 C   0  0  0  0  0  0  0  0  0  0  0  0
   43.8950   35.1730   41.6850 C   0  0  0  0  0  0  0  0  0  0  0  0
   44.4780   34.0150   41.2380 N   0  0  0  0  0  0  0  0  0  0  0  0
   45.3300   33.3110   42.0170 C   0  0  0  0  0  0  0  0  0  0  0  0
   45.6280   33.7440   43.2760 N   0  0  0  0  0  0  0  0  0  0  0  0
   45.8350   31.9460   40.0860 C   0  0  0  0  0  0  0  0  0  0  0  0
   45.3140   32.7470   39.2710 O   0  0  0  0  0  0  0  0  0  0  0  0
   45.9010   32.1200   41.4890 N   0  0  0  0  0  0  0  0  0  0  0  0
   45.3910   35.1130   44.7620 H   0  0  0  0  0  0  0  0  0  0  0  0
   43.7930   36.5210   43.4290 H   0  0  0  0  0  0  0  0  0  0  0  0
   43.2080   35.7650   41.0960 H   0  0  0  0  0  0  0  0  0  0  0  0
   46.3260   31.4750   42.1850 H   0  0  0  0  0  0  0  0  0  0  0  0
   47.7730   30.6430   39.1900 C   0  0  0  0  0  0  0  0  0  0  0  0
   46.4250   30.7210   39.5090 C   0  0  0  0  0  0  0  0  0  0  0  0
   45.6630   29.6140   39.2650 C   0  0  0  0  0  0  0  0  0  0  0  0
   44.6030   29.5600   39.4760 H   0  0  0  0  0  0  0  0  0  0  0  0
   46.1220   28.4240   38.7300 C   0  0  0  0  0  0  0  0  0  0  0  0
   45.5140   27.5510   38.5420 H   0  0  0  0  0  0  0  0  0  0  0  0
   47.4700   28.3660   38.4180 C   0  0  0  0  0  3  0  0  0  0  0  0
   48.2720   29.4590   38.6480 C   0  0  0  0  0  3  0  0  0  0  0  0
   48.1390   33.2070   39.5220 H   0  0  0  0  0  0  0  0  0  0  0  0
   48.8180   32.0320   39.4800 S   0  0  0  0  0  0  0  0  0  0  0  0
   49.7220   32.1220   38.2550 O   0  0  0  0  0  0  0  0  0  0  0  0
   49.7260   31.8160   40.6590 O   0  0  0  0  0  0  0  0  0  0  0  0
  1 10  1  0  0  0  0
  2 11  1  0  0  0  0
  2  1  2  0  0  0  0
  3  2  1  0  0  0  0
  4  3  2  0  0  0  0
  4  5  1  0  0  0  0
  5  6  2  0  0  0  0
  6  1  1  0  0  0  0
  7  9  1  0  0  0  0
  8  7  2  0  0  0  0
  9  5  1  0  0  0  0
  9 13  1  0  0  0  0
 12  3  1  0  0  0  0
 14 23  1  0  0  0  0
 14 15  1  0  0  0  0
 15  7  1  0  0  0  0
 16 17  1  0  0  0  0
 16 15  2  0  0  0  0
 18 16  1  0  0  0  0
 19 18  1  0  0  0  0
 20 21  1  0  0  0  0
 20 18  2  0  0  0  0
 21 14  2  0  0  0  0
 23 22  1  0  0  0  0
 23 25  2  0  0  0  0
 24 23  2  0  0  0  0
M  END
>  <minimizedAffinity>
-2.45344591

>  <minimizedRMSD>
8.57770061

$$$$
