REMARK  Name = 
REMARK  2 active torsions:
REMARK  status: ('A' for Active; 'I' for Inactive)
REMARK    1  A    between atoms: C_7  and  C_19
REMARK    2  A    between atoms: S_15  and  C_18
REMARK                            x       y       z     vdW  Elec       q    Type
REMARK                         _______ _______ _______ _____ _____    ______ ____
ROOT
ATOM      1  C   UNL     1      44.675  36.077  44.289  0.00  0.00    +0.000 A 
ATOM      2  C   UNL     1      45.474  35.591  43.245  0.00  0.00    +0.000 A 
ATOM      3  C   UNL     1      46.173  34.388  43.461  0.00  0.00    +0.000 A 
ATOM      4  N   UNL     1      46.039  33.755  44.670  0.00  0.00    +0.000 NA
ATOM      5  C   UNL     1      45.255  34.265  45.647  0.00  0.00    +0.000 A 
ATOM      6  N   UNL     1      44.575  35.430  45.446  0.00  0.00    +0.000 NA
ATOM      7  C   UNL     1      46.161  32.586  47.133  0.00  0.00    +0.000 C 
ATOM      8  O   UNL     1      47.113  32.293  46.369  0.00  0.00    +0.000 OA
ATOM      9  N   UNL     1      45.163  33.557  46.878  0.00  0.00    +0.000 N 
ATOM     10  H   UNL     1      44.093  36.993  44.236  0.00  0.00    +0.000 HD
ATOM     11  H   UNL     1      45.511  36.166  42.333  0.00  0.00    +0.000 HD
ATOM     12  H   UNL     1      46.788  34.016  42.653  0.00  0.00    +0.000 HD
ATOM     13  H   UNL     1      44.366  33.819  47.492  0.00  0.00    +0.000 HD
ENDROOT
BRANCH   7  15
ATOM     14  C   UNL     1      45.068  30.944  48.671  0.00  0.00    +0.000 A 
ATOM     15  C   UNL     1      46.094  31.839  48.406  0.00  0.00    +0.000 A 
ATOM     16  C   UNL     1      47.045  32.002  49.374  0.00  0.00    +0.000 A 
ATOM     17  H   UNL     1      47.890  32.670  49.275  0.00  0.00    +0.000 HD
ATOM     18  C   UNL     1      47.069  31.351  50.594  0.00  0.00    +0.000 A 
ATOM     19  H   UNL     1      47.824  31.482  51.355  0.00  0.00    +0.000 HD
ATOM     20  C   UNL     1      46.036  30.462  50.840  0.00  0.00    +0.000 A 
ATOM     21  C   UNL     1      45.059  30.268  49.892  0.00  0.00    +0.000 A 
BRANCH  14  23
ATOM     22  H   UNL     1      43.197  31.830  47.080  0.00  0.00    +0.000 HD
ATOM     23  S   UNL     1      43.809  30.681  47.466  0.00  0.00    +0.000 S 
ATOM     24  O   UNL     1      42.737  29.859  48.174  0.00  0.00    +0.000 OA
ATOM     25  O   UNL     1      44.296  29.839  46.320  0.00  0.00    +0.000 OA
ENDBRANCH  14  23
ENDBRANCH   7  15
TORSDOF 2
