
 OpenBabel03242520193D

 38 40  0  0  0  0  0  0  0  0999 V2000
   40.8650   35.6480   39.4040 C   0  0  0  0  0  0  0  0  0  0  0  0
   40.6580   35.3350   38.3530 H   0  0  0  0  0  0  0  0  0  0  0  0
   40.9440   36.7530   39.5030 H   0  0  0  0  0  0  0  0  0  0  0  0
   43.9150   34.7480   41.4440 C   0  0  0  0  0  0  0  0  0  0  0  0
   42.6870   35.3400   41.0720 C   0  0  0  0  0  0  0  0  0  0  0  0
   42.1610   35.0480   39.8220 C   0  0  0  0  0  0  0  0  0  0  0  0
   42.8680   34.1960   39.0180 N   0  0  0  0  0  0  0  0  0  0  0  0
   44.0420   33.6550   39.4230 C   0  0  0  0  0  0  0  0  0  0  0  0
   44.5580   33.9260   40.6190 N   0  0  0  0  0  0  0  0  0  0  0  0
   42.1950   36.0060   41.7760 H   0  0  0  0  0  0  0  0  0  0  0  0
   44.6180   32.9800   38.8060 H   0  0  0  0  0  0  0  0  0  0  0  0
   44.4740   35.0760   42.7850 C   0  0  0  0  0  0  0  0  0  0  0  0
   46.0180   35.3190   42.7300 C   0  0  0  0  0  0  0  0  0  0  0  0
   45.0270   36.3330   43.1380 C   0  0  0  0  0  0  0  0  0  0  0  0
   44.1490   34.3490   43.5520 H   0  0  0  0  0  0  0  0  0  0  0  0
   46.4880   35.3730   41.7370 H   0  0  0  0  0  0  0  0  0  0  0  0
   46.5680   34.8130   43.5550 H   0  0  0  0  0  0  0  0  0  0  0  0
   44.9430   36.6790   44.2070 H   0  0  0  0  0  0  0  0  0  0  0  0
   44.9110   37.2030   42.4350 H   0  0  0  0  0  0  0  0  0  0  0  0
   39.7360   35.1530   40.2760 C   0  0  0  0  0  0  0  0  0  0  0  0
   40.0830   35.1260   41.3050 H   0  0  0  0  0  0  0  0  0  0  0  0
   38.9040   35.9110   40.1970 H   0  0  0  0  0  0  0  0  0  0  0  0
   39.3720   32.7900   40.6480 C   0  0  0  0  0  0  0  0  0  0  0  0
   40.0350   32.7040   41.7090 O   0  0  0  0  0  0  0  0  0  0  0  0
   39.1970   33.8950   39.7840 N   0  0  0  0  0  0  0  0  0  0  0  0
   38.7310   33.8380   38.8830 H   0  0  0  0  0  0  0  0  0  0  0  0
   38.7110   30.8040   39.0980 C   0  0  0  0  0  0  0  0  0  0  0  0
   38.6640   31.5520   40.2300 C   0  0  0  0  0  0  0  0  0  0  0  0
   37.8130   31.1770   41.2780 C   0  0  0  0  0  0  0  0  0  0  0  0
   37.6530   31.6620   42.2510 H   0  0  0  0  0  0  0  0  0  0  0  0
   37.0080   30.0420   41.1730 C   0  0  0  0  0  0  0  0  0  0  0  0
   36.3270   29.6880   41.9330 H   0  0  0  0  0  0  0  0  0  0  0  0
   37.0790   29.3040   40.0100 C   0  0  0  0  0  3  0  0  0  0  0  0
   37.9220   29.6820   38.9850 C   0  0  0  0  0  3  0  0  0  0  0  0
   39.4590   32.6580   37.4400 H   0  0  0  0  0  0  0  0  0  0  0  0
   39.8350   31.4540   37.9280 S   0  0  0  0  0  0  0  0  0  0  0  0
   39.8710   30.4930   36.7610 O   0  0  0  0  0  0  0  0  0  0  0  0
   41.2250   31.4790   38.4920 O   0  0  0  0  0  0  0  0  0  0  0  0
  1  3  1  0  0  0  0
  1  6  1  0  0  0  0
  1 20  1  0  0  0  0
  2  1  1  0  0  0  0
  4 12  1  0  0  0  0
  5  4  1  0  0  0  0
  5 10  1  0  0  0  0
  6  5  2  0  0  0  0
  7  8  2  0  0  0  0
  7  6  1  0  0  0  0
  8  9  1  0  0  0  0
  9  4  2  0  0  0  0
 11  8  1  0  0  0  0
 12 14  1  0  0  0  0
 12 15  1  0  0  0  0
 13 12  1  0  0  0  0
 13 14  1  0  0  0  0
 13 17  1  0  0  0  0
 14 18  1  0  0  0  0
 16 13  1  0  0  0  0
 19 14  1  0  0  0  0
 20 21  1  0  0  0  0
 22 20  1  0  0  0  0
 23 24  2  0  0  0  0
 25 20  1  0  0  0  0
 25 23  1  0  0  0  0
 26 25  1  0  0  0  0
 27 28  1  0  0  0  0
 28 23  1  0  0  0  0
 28 29  2  0  0  0  0
 29 30  1  0  0  0  0
 31 29  1  0  0  0  0
 31 32  1  0  0  0  0
 33 31  2  0  0  0  0
 34 27  2  0  0  0  0
 34 33  1  0  0  0  0
 35 36  1  0  0  0  0
 36 38  2  0  0  0  0
 36 27  1  0  0  0  0
 37 36  2  0  0  0  0
M  END
>  <minimizedAffinity>
-5.16676331

>  <minimizedRMSD>
1.22302091

$$$$
