
 OpenBabel03252507593D

 32 34  0  0  1  0  0  0  0  0999 V2000
   45.9670   34.7070   43.5130 C   0  0  0  0  0  0  0  0  0  0  0  0
   45.0520   35.6720   44.0310 C   0  0  0  0  0  0  0  0  0  0  0  0
   44.5990   35.4420   45.3210 C   0  0  0  0  0  0  0  0  0  0  0  0
   45.0430   34.3470   45.9870 N   0  0  0  0  0  0  0  0  0  0  0  0
   45.9180   33.4590   45.4390 C   0  0  0  0  0  0  0  0  0  0  0  0
   46.3860   33.6180   44.2200 N   0  0  0  0  0  0  0  0  0  0  0  0
   44.7660   36.5100   43.4100 H   0  0  0  0  0  0  0  0  0  0  0  0
   43.9080   36.1460   45.7520 H   0  0  0  0  0  0  0  0  0  0  0  0
   46.3400   32.2940   46.2530 C   0  0  1  0  0  0  0  0  0  0  0  0
   47.0760   32.5200   47.5520 C   0  0  0  0  0  0  0  0  0  0  0  0
   45.6190   32.1380   47.5350 C   0  0  1  0  0  0  0  0  0  0  0  0
   46.6450   31.4340   45.6350 H   0  0  0  0  0  0  0  0  0  0  0  0
   47.7570   31.7290   47.8940 H   0  0  0  0  0  0  0  0  0  0  0  0
   47.3770   33.5510   47.7420 H   0  0  0  0  0  0  0  0  0  0  0  0
   45.3230   31.1260   47.8360 H   0  0  0  0  0  0  0  0  0  0  0  0
   44.7610   33.1970   48.0160 N   0  0  0  0  0  0  0  0  0  0  0  0
   43.7930   33.1740   47.7380 H   0  0  0  0  0  0  0  0  0  0  0  0
   45.2130   34.0820   48.2390 H   0  0  0  0  0  0  0  0  0  0  0  0
   46.4510   34.9610   42.1710 C   0  0  0  0  0  0  0  0  0  0  0  0
   47.5410   35.5970   41.9380 O   0  0  0  0  0  0  0  0  0  0  0  0
   45.8990   33.4050   40.2680 C   0  0  0  0  0  0  0  0  0  0  0  0
   45.5620   34.4130   41.1480 C   0  0  0  0  0  0  0  0  0  0  0  0
   44.2630   34.9220   41.0170 C   0  0  0  0  0  0  0  0  0  0  0  0
   43.9820   35.7180   41.7050 H   0  0  0  0  0  0  0  0  0  0  0  0
   43.3530   34.4700   40.0840 C   0  0  0  0  0  0  0  0  0  0  0  0
   42.3670   34.9120   40.0410 H   0  0  0  0  0  0  0  0  0  0  0  0
   43.7290   33.4610   39.2200 C   0  0  0  0  0  3  0  0  0  0  0  0
   45.0020   32.9410   39.3270 C   0  0  0  0  0  3  0  0  0  0  0  0
   47.9630   32.8330   41.6440 H   0  0  0  0  0  0  0  0  0  0  0  0
   47.4960   32.7270   40.3720 S   0  0  0  0  0  0  0  0  0  0  0  0
   48.3790   33.5170   39.4160 O   0  0  0  0  0  0  0  0  0  0  0  0
   47.5260   31.2840   39.9660 O   0  0  0  0  0  0  0  0  0  0  0  0
  1  2  2  0  0  0  0
  1  6  1  0  0  0  0
  2  3  1  0  0  0  0
  3  8  1  0  0  0  0
  3  4  2  0  0  0  0
  5  4  1  0  0  0  0
  5  9  1  0  0  0  0
  6  5  2  0  0  0  0
  7  2  1  0  0  0  0
  9 12  1  6  0  0  0
  9 11  1  0  0  0  0
  9 10  1  0  0  0  0
 10 14  1  0  0  0  0
 10 13  1  0  0  0  0
 11 10  1  0  0  0  0
 11 15  1  1  0  0  0
 11 16  1  0  0  0  0
 16 18  1  0  0  0  0
 17 16  1  0  0  0  0
 19  1  1  0  0  0  0
 20 19  2  0  0  0  0
 21 30  1  0  0  0  0
 21 22  1  0  0  0  0
 22 19  1  0  0  0  0
 23 22  2  0  0  0  0
 23 24  1  0  0  0  0
 25 23  1  0  0  0  0
 26 25  1  0  0  0  0
 27 28  1  0  0  0  0
 27 25  2  0  0  0  0
 28 21  2  0  0  0  0
 30 29  1  0  0  0  0
 31 30  2  0  0  0  0
 32 30  2  0  0  0  0
M  END
>  <minimizedAffinity>
-5.75884914

>  <minimizedRMSD>
1.53867722

$$$$
