
 OpenBabel03252508003D

 32 34  0  0  1  0  0  0  0  0999 V2000
   46.8560   31.6630   44.2220 C   0  0  0  0  0  0  0  0  0  0  0  0
   46.4670   33.0350   44.1900 C   0  0  0  0  0  0  0  0  0  0  0  0
   46.2250   33.6210   45.4230 C   0  0  0  0  0  0  0  0  0  0  0  0
   46.3680   32.8740   46.5460 N   0  0  0  0  0  0  0  0  0  0  0  0
   46.7410   31.5650   46.5130 C   0  0  0  0  0  0  0  0  0  0  0  0
   46.9870   30.9480   45.3760 N   0  0  0  0  0  0  0  0  0  0  0  0
   46.3840   33.5350   43.2350 H   0  0  0  0  0  0  0  0  0  0  0  0
   45.9300   34.6570   45.4460 H   0  0  0  0  0  0  0  0  0  0  0  0
   46.8690   30.8370   47.7980 C   0  0  1  0  0  0  0  0  0  0  0  0
   47.6780   31.4440   48.9200 C   0  0  0  0  0  0  0  0  0  0  0  0
   46.1730   31.4670   48.9400 C   0  0  1  0  0  0  0  0  0  0  0  0
   46.9200   29.7450   47.6630 H   0  0  0  0  0  0  0  0  0  0  0  0
   48.1390   30.7560   49.6420 H   0  0  0  0  0  0  0  0  0  0  0  0
   48.2440   32.3370   48.6550 H   0  0  0  0  0  0  0  0  0  0  0  0
   45.6320   30.8120   49.6340 H   0  0  0  0  0  0  0  0  0  0  0  0
   45.6360   32.8030   48.8130 N   0  0  0  0  0  0  0  0  0  0  0  0
   44.6880   32.8950   48.4850 H   0  0  0  0  0  0  0  0  0  0  0  0
   46.3100   33.5500   48.6570 H   0  0  0  0  0  0  0  0  0  0  0  0
   47.1260   31.0590   42.9330 C   0  0  0  0  0  0  0  0  0  0  0  0
   46.2890   30.2850   42.3440 O   0  0  0  0  0  0  0  0  0  0  0  0
   48.6450   32.2980   41.3500 C   0  0  0  0  0  0  0  0  0  0  0  0
   48.4370   31.4350   42.4070 C   0  0  0  0  0  0  0  0  0  0  0  0
   49.5940   30.9040   42.9910 C   0  0  0  0  0  0  0  0  0  0  0  0
   49.4470   30.2210   43.8260 H   0  0  0  0  0  0  0  0  0  0  0  0
   50.8730   31.1990   42.5660 C   0  0  0  0  0  0  0  0  0  0  0  0
   51.7200   30.7500   43.0660 H   0  0  0  0  0  0  0  0  0  0  0  0
   51.0400   32.0670   41.5050 C   0  0  0  0  0  3  0  0  0  0  0  0
   49.9170   32.6050   40.9110 C   0  0  0  0  0  3  0  0  0  0  0  0
   46.2020   33.0090   41.4380 H   0  0  0  0  0  0  0  0  0  0  0  0
   47.2530   32.9960   40.5770 S   0  0  0  0  0  0  0  0  0  0  0  0
   46.9360   32.1300   39.3650 O   0  0  0  0  0  0  0  0  0  0  0  0
   47.5100   34.3970   40.1080 O   0  0  0  0  0  0  0  0  0  0  0  0
  1  6  1  0  0  0  0
  2  1  2  0  0  0  0
  2  3  1  0  0  0  0
  3  8  1  0  0  0  0
  3  4  2  0  0  0  0
  5  4  1  0  0  0  0
  5  9  1  0  0  0  0
  6  5  2  0  0  0  0
  7  2  1  0  0  0  0
  9 12  1  6  0  0  0
  9 10  1  0  0  0  0
  9 11  1  0  0  0  0
 10 11  1  0  0  0  0
 10 13  1  0  0  0  0
 11 15  1  1  0  0  0
 14 10  1  0  0  0  0
 16 11  1  0  0  0  0
 17 16  1  0  0  0  0
 18 16  1  0  0  0  0
 19  1  1  0  0  0  0
 20 19  2  0  0  0  0
 21 22  1  0  0  0  0
 22 19  1  0  0  0  0
 22 23  2  0  0  0  0
 23 24  1  0  0  0  0
 25 23  1  0  0  0  0
 25 26  1  0  0  0  0
 27 25  2  0  0  0  0
 28 21  2  0  0  0  0
 28 27  1  0  0  0  0
 30 21  1  0  0  0  0
 30 29  1  0  0  0  0
 31 30  2  0  0  0  0
 32 30  2  0  0  0  0
M  END
>  <minimizedAffinity>
-4.29155254

>  <minimizedRMSD>
4.1735692

$$$$
