
     RDKit          3D

 34 36  0  0  0  0  0  0  0  0999 V2000
   46.2573   34.7547   43.2365 C   0  0  0  0  0  0  0  0  0  0  0  0
   45.2922   35.7463   43.5879 C   0  0  0  0  0  0  0  0  0  0  0  0
   44.6631   35.5666   44.8105 C   0  0  0  0  0  0  0  0  0  0  0  0
   44.9949   34.4934   45.5688 N   0  0  0  0  0  0  0  0  0  0  0  0
   45.9250   33.5782   45.1788 C   0  0  0  0  0  0  0  0  0  0  0  0
   46.5594   33.6893   44.0314 N   0  0  0  0  0  0  0  0  0  0  0  0
   46.2154   32.4402   46.0840 C   0  0  1  0  0  0  0  0  0  0  0  0
   47.0321   32.6709   47.3327 C   0  0  0  0  0  0  0  0  0  0  0  0
   45.5368   32.5017   47.3964 C   0  0  1  0  0  0  0  0  0  0  0  0
   44.8577   33.7107   47.8041 N   0  0  0  0  0  0  0  0  0  0  0  0
   46.9249   34.9547   41.9659 C   0  0  0  0  0  0  0  0  0  0  0  0
   48.0764   35.5133   41.8711 O   0  0  0  0  0  0  0  0  0  0  0  0
   45.1061   36.5626   42.9039 H   0  0  0  0  0  0  0  0  0  0  0  0
   43.9279   36.2917   45.1157 H   0  0  0  0  0  0  0  0  0  0  0  0
   46.3688   31.4951   45.5391 H   0  0  0  0  0  0  0  0  0  0  0  0
   47.6103   31.8229   47.7248 H   0  0  0  0  0  0  0  0  0  0  0  0
   47.4826   33.6600   47.4170 H   0  0  0  0  0  0  0  0  0  0  0  0
   45.1152   31.5725   47.7992 H   0  0  0  0  0  0  0  0  0  0  0  0
   43.8851   33.8037   47.5588 H   0  0  0  0  0  0  0  0  0  0  0  0
   45.4394   34.5382   47.9304 H   0  0  0  0  0  0  0  0  0  0  0  0
   44.3482   36.1946   42.5603 H   0  0  0  0  0  0  0  0  0  0  0  0
   43.8802   34.9754   42.1852 S   0  0  0  0  0  0  0  0  0  0  0  0
   44.0930   33.9597   43.2992 O   0  0  0  0  0  0  0  0  0  0  0  0
   42.4098   35.0849   41.9143 O   0  0  0  0  0  0  0  0  0  0  0  0
   44.7606   34.4015   40.7996 C   0  0  0  0  0  0  0  0  0  0  0  0
   46.1388   34.4522   40.8402 C   0  0  0  0  0  0  0  0  0  0  0  0
   46.7951   33.9770   39.6971 C   0  0  0  0  0  0  0  0  0  0  0  0
   47.8835   34.0101   39.7131 H   0  0  0  0  0  0  0  0  0  0  0  0
   46.1414   33.4840   38.5862 C   0  0  0  0  0  0  0  0  0  0  0  0
   46.7161   33.1342   37.7398 H   0  0  0  0  0  0  0  0  0  0  0  0
   44.7616   33.4502   38.5851 C   0  0  0  0  0  0  0  0  0  0  0  0
   44.0893   33.9121   39.6980 C   0  0  0  0  0  0  0  0  0  0  0  0
   44.2235   33.0679   37.7255 H   0  0  0  0  0  0  0  0  0  0  0  0
   43.0054   33.8720   39.6659 H   0  0  0  0  0  0  0  0  0  0  0  0
  1  2  2  0
  1  6  1  0
  2  3  1  0
  3  4  2  0
  5  4  1  0
  5  7  1  0
  6  5  2  0
  7  8  1  0
  7  9  1  0
  8  9  1  0
  9 10  1  0
 11  1  1  0
 12 11  2  0
  2 13  1  0
  3 14  1  0
  7 15  1  6
  8 16  1  0
  8 17  1  0
  9 18  1  1
 10 19  1  0
 10 20  1  0
 21 22  1  0
 22 23  2  0
 22 24  2  0
 22 25  1  0
 25 26  2  0
 26 27  1  0
 27 28  1  0
 27 29  2  0
 29 30  1  0
 29 31  1  0
 31 32  2  0
 32 25  1  0
 31 33  1  0
 32 34  1  0
 11 26  1  0
M  ISO  8  13  14  14  14  15  13  16  13  17  13  18  13  19   5  20   5
M  ISO  3  21  12  28  15  30  16
M  END
>  <DihAtoms>  (1) 
0,10,25,24

>  <DihDeg>  (1) 
134.99805064701934

$$$$
