
 OpenBabel03242519123D

 50 53  0  0  1  0  0  0  0  0999 V2000
   39.2550   31.0210   39.6560 C   0  0  0  0  0  0  0  0  0  0  0  0
   39.0760   32.3900   39.3760 C   0  0  0  0  0  0  0  0  0  0  0  0
   37.8240   32.8490   39.6840 C   0  0  0  0  0  0  0  0  0  0  0  0
   36.7950   32.1030   40.2140 C   0  0  0  0  0  0  0  0  0  0  0  0
   37.0180   30.7630   40.4720 C   0  0  0  0  0  0  0  0  0  0  0  0
   38.2550   30.2450   40.1850 C   0  0  0  0  0  0  0  0  0  0  0  0
   37.6070   33.9030   39.4950 H   0  0  0  0  0  0  0  0  0  0  0  0
   35.8320   32.5440   40.4250 H   0  0  0  0  0  0  0  0  0  0  0  0
   36.2010   30.1870   40.8870 H   0  0  0  0  0  0  0  0  0  0  0  0
   38.5930   28.4410   41.8280 C   0  0  0  0  0  0  0  0  0  0  0  0
   38.6970   29.3140   42.7390 O   0  0  0  0  0  0  0  0  0  0  0  0
   38.4370   28.8580   40.4630 N   0  0  0  0  0  0  0  0  0  0  0  0
   38.4330   28.2910   39.6060 H   0  0  0  0  0  0  0  0  0  0  0  0
   39.5870   26.1130   42.3540 C   0  0  0  0  0  0  0  0  0  0  0  0
   38.6140   27.0020   42.0530 C   0  0  0  0  0  0  0  0  0  0  0  0
   37.3010   26.5290   41.8980 C   0  0  0  0  0  0  0  0  0  0  0  0
   36.3830   27.0840   41.6550 H   0  0  0  0  0  0  0  0  0  0  0  0
   36.9870   25.1710   42.0480 C   0  0  0  0  0  0  0  0  0  0  0  0
   36.0030   24.7440   41.9430 H   0  0  0  0  0  0  0  0  0  0  0  0
   37.9990   24.2710   42.3570 C   0  0  0  0  0  3  0  0  0  0  0  0
   39.2860   24.7810   42.5020 C   0  0  0  0  0  3  0  0  0  0  0  0
   41.4280   27.8410   41.6870 H   0  0  0  0  0  0  0  0  0  0  0  0
   41.1650   26.7990   42.5140 S   0  0  0  0  0  0  0  0  0  0  0  0
   41.2710   27.2890   43.9580 O   0  0  0  0  0  0  0  0  0  0  0  0
   42.1690   25.6620   42.3490 O   0  0  0  0  0  0  0  0  0  0  0  0
   40.0740   33.2160   38.8380 N   0  0  0  0  0  0  0  0  0  0  0  0
   40.0920   33.0610   37.8010 H   0  0  0  0  0  0  0  0  0  0  0  0
   42.0160   34.9930   41.2490 N   0  0  0  0  0  0  0  0  0  0  0  0
   41.5080   33.7040   40.7710 C   0  0  0  0  0  0  0  0  0  0  0  0
   40.9800   34.1440   39.4420 C   0  0  2  0  0  0  0  0  0  0  0  0
   40.1850   35.3870   39.8030 C   0  0  0  0  0  0  0  0  0  0  0  0
   40.9900   35.9520   40.9520 C   0  0  0  0  0  0  0  0  0  0  0  0
   42.3230   32.9750   40.6960 H   0  0  0  0  0  0  0  0  0  0  0  0
   40.6900   33.3530   41.4440 H   0  0  0  0  0  0  0  0  0  0  0  0
   41.8380   34.4170   38.7980 H   0  0  0  0  0  0  0  0  0  0  0  0
   39.1820   35.0400   40.1410 H   0  0  0  0  0  0  0  0  0  0  0  0
   40.0730   36.0690   38.9550 H   0  0  0  0  0  0  0  0  0  0  0  0
   40.3160   36.0090   41.8280 H   0  0  0  0  0  0  0  0  0  0  0  0
   41.3960   36.9390   40.6800 H   0  0  0  0  0  0  0  0  0  0  0  0
   44.6260   36.4600   43.4670 C   0  0  0  0  0  0  0  0  0  0  0  0
   43.3540   36.2200   42.9380 C   0  0  0  0  0  0  0  0  0  0  0  0
   43.2320   35.3200   41.8750 C   0  0  0  0  0  0  0  0  0  0  0  0
   44.3780   34.7340   41.4260 N   0  0  0  0  0  0  0  0  0  0  0  0
   45.5880   34.9650   41.9310 C   0  0  0  0  0  0  0  0  0  0  0  0
   45.7070   35.8440   42.9710 N   0  0  0  0  0  0  0  0  0  0  0  0
   44.6360   37.1640   44.2880 H   0  0  0  0  0  0  0  0  0  0  0  0
   42.4130   36.6250   43.2290 H   0  0  0  0  0  0  0  0  0  0  0  0
   46.4450   34.4540   41.5070 H   0  0  0  0  0  0  0  0  0  0  0  0
   41.6120   30.0080   39.1410 N   0  0  0  0  0  0  0  0  0  0  0  0
   40.5650   30.4550   39.3580 C   0  0  0  0  0  0  0  0  0  0  0  0
  1  6  1  0  0  0  0
  2  1  2  0  0  0  0
  2  3  1  0  0  0  0
  3  4  2  0  0  0  0
  4  8  1  0  0  0  0
  4  5  1  0  0  0  0
  5  9  1  0  0  0  0
  6 12  1  0  0  0  0
  6  5  2  0  0  0  0
  7  3  1  0  0  0  0
 10 15  1  0  0  0  0
 10 11  2  0  0  0  0
 12 10  1  0  0  0  0
 13 12  1  0  0  0  0
 14 21  1  0  0  0  0
 14 23  1  0  0  0  0
 15 14  2  0  0  0  0
 16 18  2  0  0  0  0
 16 15  1  0  0  0  0
 17 16  1  0  0  0  0
 18 20  1  0  0  0  0
 19 18  1  0  0  0  0
 20 21  2  0  0  0  0
 22 23  1  0  0  0  0
 23 24  2  0  0  0  0
 25 23  2  0  0  0  0
 26  2  1  0  0  0  0
 26 30  1  0  0  0  0
 27 26  1  0  0  0  0
 28 42  1  0  0  0  0
 29 28  1  0  0  0  0
 29 34  1  0  0  0  0
 30 35  1  6  0  0  0
 30 31  1  0  0  0  0
 30 29  1  0  0  0  0
 31 36  1  0  0  0  0
 31 32  1  0  0  0  0
 32 28  1  0  0  0  0
 32 38  1  0  0  0  0
 33 29  1  0  0  0  0
 37 31  1  0  0  0  0
 39 32  1  0  0  0  0
 40 46  1  0  0  0  0
 41 47  1  0  0  0  0
 41 40  2  0  0  0  0
 42 41  1  0  0  0  0
 43 42  2  0  0  0  0
 43 44  1  0  0  0  0
 44 45  2  0  0  0  0
 45 40  1  0  0  0  0
 48 44  1  0  0  0  0
 49 50  3  0  0  0  0
 50  1  1  0  0  0  0
M  END
>  <minimizedAffinity>
-6.73994398

$$$$

 OpenBabel03242519123D

 50 53  0  0  1  0  0  0  0  0999 V2000
   39.4420   31.1610   39.5480 C   0  0  0  0  0  0  0  0  0  0  0  0
   39.2480   32.5320   39.2910 C   0  0  0  0  0  0  0  0  0  0  0  0
   37.9840   32.9670   39.5860 C   0  0  0  0  0  0  0  0  0  0  0  0
   36.9580   32.1960   40.0840 C   0  0  0  0  0  0  0  0  0  0  0  0
   37.1960   30.8530   40.3200 C   0  0  0  0  0  0  0  0  0  0  0  0
   38.4460   30.3600   40.0440 C   0  0  0  0  0  0  0  0  0  0  0  0
   37.7540   34.0200   39.4130 H   0  0  0  0  0  0  0  0  0  0  0  0
   35.9840   32.6170   40.2860 H   0  0  0  0  0  0  0  0  0  0  0  0
   36.3810   30.2580   40.7090 H   0  0  0  0  0  0  0  0  0  0  0  0
   38.4680   28.4810   41.6370 C   0  0  0  0  0  0  0  0  0  0  0  0
   38.2720   29.3010   42.5810 O   0  0  0  0  0  0  0  0  0  0  0  0
   38.6440   28.9700   40.2990 N   0  0  0  0  0  0  0  0  0  0  0  0
   38.9030   28.4580   39.4480 H   0  0  0  0  0  0  0  0  0  0  0  0
   37.9430   25.9950   41.1600 C   0  0  0  0  0  0  0  0  0  0  0  0
   38.5290   27.0340   41.7960 C   0  0  0  0  0  0  0  0  0  0  0  0
   39.4010   26.7600   42.8620 C   0  0  0  0  0  0  0  0  0  0  0  0
   39.9670   27.4570   43.4980 H   0  0  0  0  0  0  0  0  0  0  0  0
   39.6720   25.4470   43.2710 C   0  0  0  0  0  0  0  0  0  0  0  0
   40.3290   25.1690   44.0790 H   0  0  0  0  0  0  0  0  0  0  0  0
   39.0600   24.3910   42.6070 C   0  0  0  0  0  3  0  0  0  0  0  0
   38.2030   24.7060   41.5560 C   0  0  0  0  0  3  0  0  0  0  0  0
   36.0970   27.5200   40.1190 H   0  0  0  0  0  0  0  0  0  0  0  0
   36.8840   26.4440   39.8720 S   0  0  0  0  0  0  0  0  0  0  0  0
   37.7800   26.7660   38.6760 O   0  0  0  0  0  0  0  0  0  0  0  0
   36.0710   25.2060   39.5040 O   0  0  0  0  0  0  0  0  0  0  0  0
   40.2430   33.3830   38.7860 N   0  0  0  0  0  0  0  0  0  0  0  0
   40.2760   33.2530   37.7460 H   0  0  0  0  0  0  0  0  0  0  0  0
   42.1170   35.1360   41.2670 N   0  0  0  0  0  0  0  0  0  0  0  0
   41.6300   33.8520   40.7590 C   0  0  0  0  0  0  0  0  0  0  0  0
   41.1280   34.3080   39.4240 C   0  0  2  0  0  0  0  0  0  0  0  0
   40.3160   35.5400   39.7860 C   0  0  0  0  0  0  0  0  0  0  0  0
   41.0920   36.0930   40.9610 C   0  0  0  0  0  0  0  0  0  0  0  0
   42.4510   33.1300   40.6910 H   0  0  0  0  0  0  0  0  0  0  0  0
   40.7980   33.4850   41.4080 H   0  0  0  0  0  0  0  0  0  0  0  0
   41.9980   34.5970   38.8040 H   0  0  0  0  0  0  0  0  0  0  0  0
   39.3080   35.1810   40.0960 H   0  0  0  0  0  0  0  0  0  0  0  0
   40.2190   36.2340   38.9460 H   0  0  0  0  0  0  0  0  0  0  0  0
   40.3980   36.1330   41.8230 H   0  0  0  0  0  0  0  0  0  0  0  0
   41.4970   37.0870   40.7130 H   0  0  0  0  0  0  0  0  0  0  0  0
   44.6680   36.5970   43.5570 C   0  0  0  0  0  0  0  0  0  0  0  0
   43.4100   36.3570   42.9950 C   0  0  0  0  0  0  0  0  0  0  0  0
   43.3160   35.4620   41.9250 C   0  0  0  0  0  0  0  0  0  0  0  0
   44.4740   34.8790   41.5030 N   0  0  0  0  0  0  0  0  0  0  0  0
   45.6710   35.1090   42.0400 C   0  0  0  0  0  0  0  0  0  0  0  0
   45.7630   35.9840   43.0860 N   0  0  0  0  0  0  0  0  0  0  0  0
   44.6560   37.2980   44.3800 H   0  0  0  0  0  0  0  0  0  0  0  0
   42.4610   36.7610   43.2630 H   0  0  0  0  0  0  0  0  0  0  0  0
   46.5390   34.6010   41.6360 H   0  0  0  0  0  0  0  0  0  0  0  0
   41.8240   30.2100   39.0280 N   0  0  0  0  0  0  0  0  0  0  0  0
   40.7660   30.6210   39.2620 C   0  0  0  0  0  0  0  0  0  0  0  0
  1  6  1  0  0  0  0
  2  1  2  0  0  0  0
  2  3  1  0  0  0  0
  3  4  2  0  0  0  0
  4  8  1  0  0  0  0
  4  5  1  0  0  0  0
  5  9  1  0  0  0  0
  6 12  1  0  0  0  0
  6  5  2  0  0  0  0
  7  3  1  0  0  0  0
 10 15  1  0  0  0  0
 10 11  2  0  0  0  0
 12 10  1  0  0  0  0
 13 12  1  0  0  0  0
 14 21  2  0  0  0  0
 14 15  1  0  0  0  0
 15 16  2  0  0  0  0
 16 18  1  0  0  0  0
 16 17  1  0  0  0  0
 18 19  1  0  0  0  0
 20 18  2  0  0  0  0
 21 20  1  0  0  0  0
 23 22  1  0  0  0  0
 23 14  1  0  0  0  0
 24 23  2  0  0  0  0
 25 23  2  0  0  0  0
 26  2  1  0  0  0  0
 26 30  1  0  0  0  0
 27 26  1  0  0  0  0
 28 42  1  0  0  0  0
 29 28  1  0  0  0  0
 29 34  1  0  0  0  0
 30 35  1  6  0  0  0
 30 31  1  0  0  0  0
 30 29  1  0  0  0  0
 31 36  1  0  0  0  0
 31 32  1  0  0  0  0
 32 28  1  0  0  0  0
 32 38  1  0  0  0  0
 33 29  1  0  0  0  0
 37 31  1  0  0  0  0
 39 32  1  0  0  0  0
 40 46  1  0  0  0  0
 41 47  1  0  0  0  0
 41 40  2  0  0  0  0
 42 41  1  0  0  0  0
 43 42  2  0  0  0  0
 43 44  1  0  0  0  0
 44 45  2  0  0  0  0
 45 40  1  0  0  0  0
 48 44  1  0  0  0  0
 49 50  3  0  0  0  0
 50  1  1  0  0  0  0
M  END
>  <minimizedAffinity>
-6.66090441

$$$$

 OpenBabel03242519123D

 50 53  0  0  1  0  0  0  0  0999 V2000
   38.3170   30.9390   39.6970 C   0  0  0  0  0  0  0  0  0  0  0  0
   38.1800   32.1890   39.0630 C   0  0  0  0  0  0  0  0  0  0  0  0
   37.7000   32.1010   37.7840 C   0  0  0  0  0  0  0  0  0  0  0  0
   37.3670   30.9400   37.1220 C   0  0  0  0  0  0  0  0  0  0  0  0
   37.5190   29.7360   37.7860 C   0  0  0  0  0  0  0  0  0  0  0  0
   37.9960   29.7610   39.0710 C   0  0  0  0  0  0  0  0  0  0  0  0
   37.5660   33.0290   37.2250 H   0  0  0  0  0  0  0  0  0  0  0  0
   36.9980   30.9580   36.1070 H   0  0  0  0  0  0  0  0  0  0  0  0
   37.2560   28.8310   37.2540 H   0  0  0  0  0  0  0  0  0  0  0  0
   37.0490   27.9910   40.5000 C   0  0  0  0  0  0  0  0  0  0  0  0
   36.0410   28.7260   40.7140 O   0  0  0  0  0  0  0  0  0  0  0  0
   38.1400   28.4960   39.7140 N   0  0  0  0  0  0  0  0  0  0  0  0
   39.0570   28.0730   39.5280 H   0  0  0  0  0  0  0  0  0  0  0  0
   37.7750   26.0870   42.0910 C   0  0  0  0  0  0  0  0  0  0  0  0
   37.2010   26.6290   40.9940 C   0  0  0  0  0  0  0  0  0  0  0  0
   36.5940   25.7700   40.0630 C   0  0  0  0  0  0  0  0  0  0  0  0
   36.0820   26.0120   39.1200 H   0  0  0  0  0  0  0  0  0  0  0  0
   36.5740   24.3800   40.2500 C   0  0  0  0  0  0  0  0  0  0  0  0
   36.1270   23.6680   39.5770 H   0  0  0  0  0  0  0  0  0  0  0  0
   37.1700   23.8400   41.3830 C   0  0  0  0  0  3  0  0  0  0  0  0
   37.7600   24.7270   42.2800 C   0  0  0  0  0  3  0  0  0  0  0  0
   39.0850   28.2970   42.5640 H   0  0  0  0  0  0  0  0  0  0  0  0
   38.4980   27.2320   43.1640 S   0  0  0  0  0  0  0  0  0  0  0  0
   37.3720   27.7430   44.0630 O   0  0  0  0  0  0  0  0  0  0  0  0
   39.4700   26.4630   44.0550 O   0  0  0  0  0  0  0  0  0  0  0  0
   38.4960   33.4140   39.6700 N   0  0  0  0  0  0  0  0  0  0  0  0
   37.6130   33.8060   40.0770 H   0  0  0  0  0  0  0  0  0  0  0  0
   41.3760   35.0040   41.0550 N   0  0  0  0  0  0  0  0  0  0  0  0
   40.4620   33.8600   41.0740 C   0  0  0  0  0  0  0  0  0  0  0  0
   39.7270   34.1320   39.7980 C   0  0  2  0  0  0  0  0  0  0  0  0
   39.3830   35.6050   39.9300 C   0  0  0  0  0  0  0  0  0  0  0  0
   40.5750   36.1390   40.6940 C   0  0  0  0  0  0  0  0  0  0  0  0
   41.0250   32.9190   41.0590 H   0  0  0  0  0  0  0  0  0  0  0  0
   39.7890   33.9340   41.9610 H   0  0  0  0  0  0  0  0  0  0  0  0
   40.4250   33.9800   38.9530 H   0  0  0  0  0  0  0  0  0  0  0  0
   38.4510   35.6650   40.5370 H   0  0  0  0  0  0  0  0  0  0  0  0
   39.2230   36.0820   38.9580 H   0  0  0  0  0  0  0  0  0  0  0  0
   40.1900   36.5930   41.6270 H   0  0  0  0  0  0  0  0  0  0  0  0
   41.1230   36.8690   40.0770 H   0  0  0  0  0  0  0  0  0  0  0  0
   44.7140   35.8300   42.4910 C   0  0  0  0  0  0  0  0  0  0  0  0
   43.3240   35.8430   42.3400 C   0  0  0  0  0  0  0  0  0  0  0  0
   42.7550   35.0760   41.3190 C   0  0  0  0  0  0  0  0  0  0  0  0
   43.6100   34.3600   40.5340 N   0  0  0  0  0  0  0  0  0  0  0  0
   44.9340   34.3490   40.6800 C   0  0  0  0  0  0  0  0  0  0  0  0
   45.4890   35.0990   41.6790 N   0  0  0  0  0  0  0  0  0  0  0  0
   45.0740   36.4450   43.3040 H   0  0  0  0  0  0  0  0  0  0  0  0
   42.5870   36.3650   42.9060 H   0  0  0  0  0  0  0  0  0  0  0  0
   45.5350   33.7500   40.0060 H   0  0  0  0  0  0  0  0  0  0  0  0
   39.2400   30.9620   42.1460 N   0  0  0  0  0  0  0  0  0  0  0  0
   38.8210   30.9480   41.0650 C   0  0  0  0  0  0  0  0  0  0  0  0
  1 50  1  0  0  0  0
  2 26  1  0  0  0  0
  2  1  2  0  0  0  0
  3  2  1  0  0  0  0
  4  3  2  0  0  0  0
  4  5  1  0  0  0  0
  5  6  2  0  0  0  0
  6  1  1  0  0  0  0
  6 12  1  0  0  0  0
  7  3  1  0  0  0  0
  8  4  1  0  0  0  0
  9  5  1  0  0  0  0
 10 11  2  0  0  0  0
 10 15  1  0  0  0  0
 12 10  1  0  0  0  0
 13 12  1  0  0  0  0
 14 21  1  0  0  0  0
 14 23  1  0  0  0  0
 15 14  2  0  0  0  0
 16 18  2  0  0  0  0
 16 15  1  0  0  0  0
 17 16  1  0  0  0  0
 18 20  1  0  0  0  0
 19 18  1  0  0  0  0
 20 21  2  0  0  0  0
 22 23  1  0  0  0  0
 23 25  2  0  0  0  0
 23 24  2  0  0  0  0
 26 30  1  0  0  0  0
 26 27  1  0  0  0  0
 28 29  1  0  0  0  0
 28 42  1  0  0  0  0
 29 34  1  0  0  0  0
 30 35  1  6  0  0  0
 30 31  1  0  0  0  0
 30 29  1  0  0  0  0
 31 36  1  0  0  0  0
 31 32  1  0  0  0  0
 32 28  1  0  0  0  0
 32 38  1  0  0  0  0
 33 29  1  0  0  0  0
 37 31  1  0  0  0  0
 39 32  1  0  0  0  0
 40 46  1  0  0  0  0
 41 40  1  0  0  0  0
 41 47  1  0  0  0  0
 42 41  2  0  0  0  0
 43 44  2  0  0  0  0
 43 42  1  0  0  0  0
 44 45  1  0  0  0  0
 45 40  2  0  0  0  0
 48 44  1  0  0  0  0
 50 49  3  0  0  0  0
M  END
>  <minimizedAffinity>
-6.54706049

$$$$

 OpenBabel03242519123D

 50 53  0  0  1  0  0  0  0  0999 V2000
   39.3340   32.2110   39.8570 C   0  0  0  0  0  0  0  0  0  0  0  0
   38.1430   31.8990   39.1720 C   0  0  0  0  0  0  0  0  0  0  0  0
   37.2620   32.9450   39.1100 C   0  0  0  0  0  0  0  0  0  0  0  0
   37.4550   34.2000   39.6430 C   0  0  0  0  0  0  0  0  0  0  0  0
   38.6400   34.4590   40.3080 C   0  0  0  0  0  0  0  0  0  0  0  0
   39.5640   33.4500   40.4010 C   0  0  0  0  0  0  0  0  0  0  0  0
   36.3140   32.7810   38.5940 H   0  0  0  0  0  0  0  0  0  0  0  0
   36.7030   34.9700   39.5520 H   0  0  0  0  0  0  0  0  0  0  0  0
   38.7780   35.4480   40.7230 H   0  0  0  0  0  0  0  0  0  0  0  0
   41.7450   34.5920   40.4540 C   0  0  0  0  0  0  0  0  0  0  0  0
   41.5830   34.9210   39.2420 O   0  0  0  0  0  0  0  0  0  0  0  0
   40.7680   33.7610   41.0990 N   0  0  0  0  0  0  0  0  0  0  0  0
   40.7940   33.3310   42.0310 H   0  0  0  0  0  0  0  0  0  0  0  0
   44.1760   34.6400   41.3330 C   0  0  0  0  0  0  0  0  0  0  0  0
   42.8740   35.0000   41.2790 C   0  0  0  0  0  0  0  0  0  0  0  0
   42.4110   35.9730   42.1800 C   0  0  0  0  0  0  0  0  0  0  0  0
   41.4010   36.3930   42.2940 H   0  0  0  0  0  0  0  0  0  0  0  0
   43.2630   36.5680   43.1210 C   0  0  0  0  0  0  0  0  0  0  0  0
   42.9720   37.3170   43.8380 H   0  0  0  0  0  0  0  0  0  0  0  0
   44.5990   36.1860   43.1630 C   0  0  0  0  0  3  0  0  0  0  0  0
   45.0170   35.2190   42.2520 C   0  0  0  0  0  3  0  0  0  0  0  0
   43.6870   32.5050   39.9110 H   0  0  0  0  0  0  0  0  0  0  0  0
   44.6380   33.4330   40.1870 S   0  0  0  0  0  0  0  0  0  0  0  0
   44.9750   34.1780   38.8960 O   0  0  0  0  0  0  0  0  0  0  0  0
   45.9310   32.8010   40.6940 O   0  0  0  0  0  0  0  0  0  0  0  0
   37.8740   30.6470   38.6010 N   0  0  0  0  0  0  0  0  0  0  0  0
   38.1520   30.6900   37.5910 H   0  0  0  0  0  0  0  0  0  0  0  0
   37.1890   27.1980   39.2110 N   0  0  0  0  0  0  0  0  0  0  0  0
   38.1870   28.2330   38.9340 C   0  0  0  0  0  0  0  0  0  0  0  0
   37.3280   29.4410   39.1450 C   0  0  2  0  0  0  0  0  0  0  0  0
   36.0850   29.1010   38.3410 C   0  0  0  0  0  0  0  0  0  0  0  0
   36.0020   27.6000   38.5130 C   0  0  0  0  0  0  0  0  0  0  0  0
   39.0200   28.1630   39.6430 H   0  0  0  0  0  0  0  0  0  0  0  0
   38.5270   28.1490   37.8740 H   0  0  0  0  0  0  0  0  0  0  0  0
   37.0770   29.5080   40.2200 H   0  0  0  0  0  0  0  0  0  0  0  0
   36.3000   29.3780   37.2830 H   0  0  0  0  0  0  0  0  0  0  0  0
   35.2020   29.6420   38.6930 H   0  0  0  0  0  0  0  0  0  0  0  0
   36.0350   27.1510   37.5010 H   0  0  0  0  0  0  0  0  0  0  0  0
   35.0790   27.3320   39.0510 H   0  0  0  0  0  0  0  0  0  0  0  0
   36.6370   23.8130   40.6720 C   0  0  0  0  0  0  0  0  0  0  0  0
   36.4420   24.9160   39.8330 C   0  0  0  0  0  0  0  0  0  0  0  0
   37.2790   26.0250   39.9840 C   0  0  0  0  0  0  0  0  0  0  0  0
   38.2380   25.9500   40.9500 N   0  0  0  0  0  0  0  0  0  0  0  0
   38.4220   24.8990   41.7470 C   0  0  0  0  0  0  0  0  0  0  0  0
   37.6030   23.8150   41.6000 N   0  0  0  0  0  0  0  0  0  0  0  0
   35.9520   22.9960   40.4900 H   0  0  0  0  0  0  0  0  0  0  0  0
   35.7280   25.0560   39.0550 H   0  0  0  0  0  0  0  0  0  0  0  0
   39.2090   24.9300   42.4910 H   0  0  0  0  0  0  0  0  0  0  0  0
   41.1030   30.2940   40.0600 N   0  0  0  0  0  0  0  0  0  0  0  0
   40.3280   31.1490   39.9640 C   0  0  0  0  0  0  0  0  0  0  0  0
  1 50  1  0  0  0  0
  1  6  1  0  0  0  0
  2  1  2  0  0  0  0
  3  2  1  0  0  0  0
  3  4  2  0  0  0  0
  4  5  1  0  0  0  0
  5  6  2  0  0  0  0
  5  9  1  0  0  0  0
  6 12  1  0  0  0  0
  7  3  1  0  0  0  0
  8  4  1  0  0  0  0
 10 12  1  0  0  0  0
 10 15  1  0  0  0  0
 11 10  2  0  0  0  0
 12 13  1  0  0  0  0
 14 21  1  0  0  0  0
 15 14  2  0  0  0  0
 15 16  1  0  0  0  0
 16 17  1  0  0  0  0
 16 18  2  0  0  0  0
 18 20  1  0  0  0  0
 18 19  1  0  0  0  0
 21 20  2  0  0  0  0
 22 23  1  0  0  0  0
 23 25  2  0  0  0  0
 23 14  1  0  0  0  0
 24 23  2  0  0  0  0
 26 30  1  0  0  0  0
 26  2  1  0  0  0  0
 27 26  1  0  0  0  0
 28 42  1  0  0  0  0
 29 30  1  0  0  0  0
 29 28  1  0  0  0  0
 29 33  1  0  0  0  0
 30 35  1  1  0  0  0
 31 32  1  0  0  0  0
 31 37  1  0  0  0  0
 31 30  1  0  0  0  0
 32 39  1  0  0  0  0
 32 28  1  0  0  0  0
 34 29  1  0  0  0  0
 36 31  1  0  0  0  0
 38 32  1  0  0  0  0
 40 45  1  0  0  0  0
 41 42  1  0  0  0  0
 41 40  2  0  0  0  0
 42 43  2  0  0  0  0
 43 44  1  0  0  0  0
 44 48  1  0  0  0  0
 45 44  2  0  0  0  0
 46 40  1  0  0  0  0
 47 41  1  0  0  0  0
 50 49  3  0  0  0  0
M  END
>  <minimizedAffinity>
-6.35967445

$$$$

 OpenBabel03242519123D

 50 53  0  0  1  0  0  0  0  0999 V2000
   37.9140   29.4880   41.6840 C   0  0  0  0  0  0  0  0  0  0  0  0
   37.0470   28.3790   41.7360 C   0  0  0  0  0  0  0  0  0  0  0  0
   35.8400   28.6030   41.1290 C   0  0  0  0  0  0  0  0  0  0  0  0
   35.4470   29.7710   40.5150 C   0  0  0  0  0  0  0  0  0  0  0  0
   36.3330   30.8330   40.4900 C   0  0  0  0  0  0  0  0  0  0  0  0
   37.5590   30.6680   41.0810 C   0  0  0  0  0  0  0  0  0  0  0  0
   35.1120   27.7890   41.1270 H   0  0  0  0  0  0  0  0  0  0  0  0
   34.4710   29.8670   40.0620 H   0  0  0  0  0  0  0  0  0  0  0  0
   36.0110   31.7460   40.0060 H   0  0  0  0  0  0  0  0  0  0  0  0
   38.8200   32.3170   39.7540 C   0  0  0  0  0  0  0  0  0  0  0  0
   38.4810   31.7030   38.7000 O   0  0  0  0  0  0  0  0  0  0  0  0
   38.4370   31.7910   41.0340 N   0  0  0  0  0  0  0  0  0  0  0  0
   38.7060   32.1070   41.9740 H   0  0  0  0  0  0  0  0  0  0  0  0
   40.8970   33.8520   39.6410 C   0  0  0  0  0  0  0  0  0  0  0  0
   39.5850   33.5570   39.7820 C   0  0  0  0  0  0  0  0  0  0  0  0
   38.6830   34.6080   40.0120 C   0  0  0  0  0  0  0  0  0  0  0  0
   37.5930   34.5730   40.1520 H   0  0  0  0  0  0  0  0  0  0  0  0
   39.1130   35.9390   40.0970 C   0  0  0  0  0  0  0  0  0  0  0  0
   38.4750   36.7900   40.2720 H   0  0  0  0  0  0  0  0  0  0  0  0
   40.4650   36.2260   39.9520 C   0  0  0  0  0  3  0  0  0  0  0  0
   41.3250   35.1550   39.7240 C   0  0  0  0  0  3  0  0  0  0  0  0
   43.2430   32.7100   39.5520 H   0  0  0  0  0  0  0  0  0  0  0  0
   41.9180   32.4860   39.3700 S   0  0  0  0  0  0  0  0  0  0  0  0
   41.4690   31.4150   40.3630 O   0  0  0  0  0  0  0  0  0  0  0  0
   41.6080   31.9620   37.9700 O   0  0  0  0  0  0  0  0  0  0  0  0
   37.3750   27.1560   42.3410 N   0  0  0  0  0  0  0  0  0  0  0  0
   37.0940   27.2140   43.3490 H   0  0  0  0  0  0  0  0  0  0  0  0
   38.3480   24.5050   40.1590 N   0  0  0  0  0  0  0  0  0  0  0  0
   38.1150   25.9400   40.3390 C   0  0  0  0  0  0  0  0  0  0  0  0
   37.9780   25.9640   41.8300 C   0  0  2  0  0  0  0  0  0  0  0  0
   37.0120   24.8200   42.0850 C   0  0  0  0  0  0  0  0  0  0  0  0
   37.3850   23.8440   40.9920 C   0  0  0  0  0  0  0  0  0  0  0  0
   38.9720   26.5160   39.9730 H   0  0  0  0  0  0  0  0  0  0  0  0
   37.1630   26.2300   39.8330 H   0  0  0  0  0  0  0  0  0  0  0  0
   38.9640   25.7330   42.2760 H   0  0  0  0  0  0  0  0  0  0  0  0
   35.9850   25.2260   41.9350 H   0  0  0  0  0  0  0  0  0  0  0  0
   37.1050   24.4160   43.0980 H   0  0  0  0  0  0  0  0  0  0  0  0
   36.4760   23.6670   40.3840 H   0  0  0  0  0  0  0  0  0  0  0  0
   37.7710   22.9110   41.4320 H   0  0  0  0  0  0  0  0  0  0  0  0
   40.1070   21.9890   38.0460 C   0  0  0  0  0  0  0  0  0  0  0  0
   39.0860   22.5550   38.8160 C   0  0  0  0  0  0  0  0  0  0  0  0
   39.2880   23.8250   39.3630 C   0  0  0  0  0  0  0  0  0  0  0  0
   40.4830   24.4280   39.1010 N   0  0  0  0  0  0  0  0  0  0  0  0
   41.4530   23.8880   38.3680 C   0  0  0  0  0  0  0  0  0  0  0  0
   41.2560   22.6460   37.8330 N   0  0  0  0  0  0  0  0  0  0  0  0
   39.8730   21.0080   37.6560 H   0  0  0  0  0  0  0  0  0  0  0  0
   38.1280   22.1600   39.0640 H   0  0  0  0  0  0  0  0  0  0  0  0
   42.3720   24.4410   38.2150 H   0  0  0  0  0  0  0  0  0  0  0  0
   40.2720   29.2120   42.7860 N   0  0  0  0  0  0  0  0  0  0  0  0
   39.2230   29.3280   42.3060 C   0  0  0  0  0  0  0  0  0  0  0  0
  1  2  1  0  0  0  0
  1 50  1  0  0  0  0
  2 26  1  0  0  0  0
  3  2  2  0  0  0  0
  4  3  1  0  0  0  0
  5  4  2  0  0  0  0
  5  6  1  0  0  0  0
  6  1  2  0  0  0  0
  7  3  1  0  0  0  0
  8  4  1  0  0  0  0
  9  5  1  0  0  0  0
 10 15  1  0  0  0  0
 10 12  1  0  0  0  0
 11 10  2  0  0  0  0
 12  6  1  0  0  0  0
 12 13  1  0  0  0  0
 14 21  2  0  0  0  0
 14 15  1  0  0  0  0
 15 16  2  0  0  0  0
 16 18  1  0  0  0  0
 16 17  1  0  0  0  0
 18 19  1  0  0  0  0
 20 18  2  0  0  0  0
 21 20  1  0  0  0  0
 23 22  1  0  0  0  0
 23 14  1  0  0  0  0
 23 24  2  0  0  0  0
 25 23  2  0  0  0  0
 26 27  1  0  0  0  0
 28 29  1  0  0  0  0
 28 32  1  0  0  0  0
 29 30  1  0  0  0  0
 30 31  1  0  0  0  0
 30 35  1  1  0  0  0
 30 26  1  0  0  0  0
 31 37  1  0  0  0  0
 32 39  1  0  0  0  0
 32 31  1  0  0  0  0
 33 29  1  0  0  0  0
 34 29  1  0  0  0  0
 36 31  1  0  0  0  0
 38 32  1  0  0  0  0
 40 41  1  0  0  0  0
 41 47  1  0  0  0  0
 41 42  2  0  0  0  0
 42 28  1  0  0  0  0
 43 42  1  0  0  0  0
 44 43  2  0  0  0  0
 45 40  2  0  0  0  0
 45 44  1  0  0  0  0
 46 40  1  0  0  0  0
 48 44  1  0  0  0  0
 50 49  3  0  0  0  0
M  END
>  <minimizedAffinity>
-6.24371767

$$$$

 OpenBabel03242519123D

 50 53  0  0  1  0  0  0  0  0999 V2000
   37.9720   29.5800   41.5810 C   0  0  0  0  0  0  0  0  0  0  0  0
   37.1660   28.4280   41.5000 C   0  0  0  0  0  0  0  0  0  0  0  0
   35.9520   28.6550   40.9080 C   0  0  0  0  0  0  0  0  0  0  0  0
   35.5010   29.8610   40.4210 C   0  0  0  0  0  0  0  0  0  0  0  0
   36.3280   30.9650   40.5240 C   0  0  0  0  0  0  0  0  0  0  0  0
   37.5590   30.8000   41.1070 C   0  0  0  0  0  0  0  0  0  0  0  0
   35.2690   27.8090   40.8080 H   0  0  0  0  0  0  0  0  0  0  0  0
   34.5240   29.9550   39.9710 H   0  0  0  0  0  0  0  0  0  0  0  0
   35.9610   31.9070   40.1400 H   0  0  0  0  0  0  0  0  0  0  0  0
   39.0800   32.4060   40.0250 C   0  0  0  0  0  0  0  0  0  0  0  0
   39.0690   31.6880   38.9830 O   0  0  0  0  0  0  0  0  0  0  0  0
   38.3750   31.9660   41.1950 N   0  0  0  0  0  0  0  0  0  0  0  0
   38.3610   32.3740   42.1380 H   0  0  0  0  0  0  0  0  0  0  0  0
   41.0530   34.0480   40.3310 C   0  0  0  0  0  0  0  0  0  0  0  0
   39.7650   33.6870   40.1410 C   0  0  0  0  0  0  0  0  0  0  0  0
   38.7970   34.6980   40.0230 C   0  0  0  0  0  0  0  0  0  0  0  0
   37.7110   34.6100   39.8690 H   0  0  0  0  0  0  0  0  0  0  0  0
   39.1390   36.0550   40.0970 C   0  0  0  0  0  0  0  0  0  0  0  0
   38.4470   36.8770   40.0150 H   0  0  0  0  0  0  0  0  0  0  0  0
   40.4680   36.4090   40.2940 C   0  0  0  0  0  3  0  0  0  0  0  0
   41.3950   35.3770   40.4050 C   0  0  0  0  0  3  0  0  0  0  0  0
   41.9900   31.7350   39.5630 H   0  0  0  0  0  0  0  0  0  0  0  0
   42.1580   32.7280   40.4710 S   0  0  0  0  0  0  0  0  0  0  0  0
   43.5550   33.3210   40.2870 O   0  0  0  0  0  0  0  0  0  0  0  0
   42.0710   32.2180   41.9070 O   0  0  0  0  0  0  0  0  0  0  0  0
   37.5550   27.1650   41.9700 N   0  0  0  0  0  0  0  0  0  0  0  0
   37.5610   27.2030   43.0180 H   0  0  0  0  0  0  0  0  0  0  0  0
   37.7900   23.7230   41.0580 N   0  0  0  0  0  0  0  0  0  0  0  0
   36.9440   24.8310   41.5050 C   0  0  0  0  0  0  0  0  0  0  0  0
   37.9090   25.9560   41.2920 C   0  0  2  0  0  0  0  0  0  0  0  0
   39.1760   25.4250   41.9410 C   0  0  0  0  0  0  0  0  0  0  0  0
   39.0750   23.9420   41.6600 C   0  0  0  0  0  0  0  0  0  0  0  0
   36.0470   24.9050   40.8810 H   0  0  0  0  0  0  0  0  0  0  0  0
   36.6970   24.7000   42.5860 H   0  0  0  0  0  0  0  0  0  0  0  0
   38.0650   26.0810   40.2040 H   0  0  0  0  0  0  0  0  0  0  0  0
   39.0920   25.6390   43.0320 H   0  0  0  0  0  0  0  0  0  0  0  0
   40.0770   25.8980   41.5400 H   0  0  0  0  0  0  0  0  0  0  0  0
   39.0850   23.4210   42.6360 H   0  0  0  0  0  0  0  0  0  0  0  0
   39.9080   23.6220   41.0140 H   0  0  0  0  0  0  0  0  0  0  0  0
   37.9300   20.5120   39.1700 C   0  0  0  0  0  0  0  0  0  0  0  0
   38.3400   21.5300   40.0380 C   0  0  0  0  0  0  0  0  0  0  0  0
   37.4980   22.6310   40.2210 C   0  0  0  0  0  0  0  0  0  0  0  0
   36.3220   22.6320   39.5300 N   0  0  0  0  0  0  0  0  0  0  0  0
   35.9340   21.6620   38.7050 C   0  0  0  0  0  0  0  0  0  0  0  0
   36.7580   20.5850   38.5270 N   0  0  0  0  0  0  0  0  0  0  0  0
   38.6340   19.6960   39.0860 H   0  0  0  0  0  0  0  0  0  0  0  0
   39.2310   21.6080   40.6170 H   0  0  0  0  0  0  0  0  0  0  0  0
   34.9820   21.7500   38.1960 H   0  0  0  0  0  0  0  0  0  0  0  0
   40.3350   29.3070   42.6720 N   0  0  0  0  0  0  0  0  0  0  0  0
   39.2840   29.4210   42.1970 C   0  0  0  0  0  0  0  0  0  0  0  0
  1 50  1  0  0  0  0
  2  1  1  0  0  0  0
  2 26  1  0  0  0  0
  3  2  2  0  0  0  0
  4  5  2  0  0  0  0
  4  3  1  0  0  0  0
  5  6  1  0  0  0  0
  6 12  1  0  0  0  0
  6  1  2  0  0  0  0
  7  3  1  0  0  0  0
  8  4  1  0  0  0  0
  9  5  1  0  0  0  0
 10 15  1  0  0  0  0
 10 12  1  0  0  0  0
 11 10  2  0  0  0  0
 12 13  1  0  0  0  0
 14 21  1  0  0  0  0
 14 23  1  0  0  0  0
 15 14  2  0  0  0  0
 16 18  2  0  0  0  0
 16 15  1  0  0  0  0
 17 16  1  0  0  0  0
 18 20  1  0  0  0  0
 19 18  1  0  0  0  0
 20 21  2  0  0  0  0
 22 23  1  0  0  0  0
 23 25  2  0  0  0  0
 24 23  2  0  0  0  0
 26 27  1  0  0  0  0
 28 29  1  0  0  0  0
 28 32  1  0  0  0  0
 29 34  1  0  0  0  0
 30 35  1  6  0  0  0
 30 29  1  0  0  0  0
 30 31  1  0  0  0  0
 30 26  1  0  0  0  0
 31 36  1  0  0  0  0
 32 31  1  0  0  0  0
 32 38  1  0  0  0  0
 33 29  1  0  0  0  0
 37 31  1  0  0  0  0
 39 32  1  0  0  0  0
 40 41  1  0  0  0  0
 41 42  2  0  0  0  0
 41 47  1  0  0  0  0
 42 28  1  0  0  0  0
 43 42  1  0  0  0  0
 44 43  2  0  0  0  0
 45 44  1  0  0  0  0
 45 40  2  0  0  0  0
 46 40  1  0  0  0  0
 48 44  1  0  0  0  0
 50 49  3  0  0  0  0
M  END
>  <minimizedAffinity>
-6.22315216

$$$$

 OpenBabel03242519123D

 50 53  0  0  1  0  0  0  0  0999 V2000
   38.6480   26.8300   41.8440 C   0  0  0  0  0  0  0  0  0  0  0  0
   38.7860   28.1480   42.3210 C   0  0  0  0  0  0  0  0  0  0  0  0
   37.7930   28.5180   43.1880 C   0  0  0  0  0  0  0  0  0  0  0  0
   36.7370   27.7340   43.5940 C   0  0  0  0  0  0  0  0  0  0  0  0
   36.6440   26.4460   43.0970 C   0  0  0  0  0  0  0  0  0  0  0  0
   37.6100   26.0170   42.2240 C   0  0  0  0  0  0  0  0  0  0  0  0
   37.8300   29.5280   43.6030 H   0  0  0  0  0  0  0  0  0  0  0  0
   35.9920   28.1060   44.2810 H   0  0  0  0  0  0  0  0  0  0  0  0
   35.8080   25.8400   43.4220 H   0  0  0  0  0  0  0  0  0  0  0  0
   36.8750   24.4790   40.4460 C   0  0  0  0  0  0  0  0  0  0  0  0
   36.3690   25.4620   39.8290 O   0  0  0  0  0  0  0  0  0  0  0  0
   37.4710   24.6840   41.7360 N   0  0  0  0  0  0  0  0  0  0  0  0
   37.8350   23.9920   42.4020 H   0  0  0  0  0  0  0  0  0  0  0  0
   36.0370   22.3460   39.2500 C   0  0  0  0  0  0  0  0  0  0  0  0
   36.9090   23.1130   39.9420 C   0  0  0  0  0  0  0  0  0  0  0  0
   38.1470   22.5580   40.3030 C   0  0  0  0  0  0  0  0  0  0  0  0
   38.9800   23.0130   40.8590 H   0  0  0  0  0  0  0  0  0  0  0  0
   38.4890   21.2410   39.9640 C   0  0  0  0  0  0  0  0  0  0  0  0
   39.4200   20.7570   40.2100 H   0  0  0  0  0  0  0  0  0  0  0  0
   37.5810   20.4670   39.2540 C   0  0  0  0  0  3  0  0  0  0  0  0
   36.3650   21.0550   38.9150 C   0  0  0  0  0  3  0  0  0  0  0  0
   34.6140   24.4690   38.7110 H   0  0  0  0  0  0  0  0  0  0  0  0
   34.5430   23.1230   38.8650 S   0  0  0  0  0  0  0  0  0  0  0  0
   34.0730   22.5110   37.5460 O   0  0  0  0  0  0  0  0  0  0  0  0
   33.5340   22.7160   39.9350 O   0  0  0  0  0  0  0  0  0  0  0  0
   39.8330   29.0080   41.9570 N   0  0  0  0  0  0  0  0  0  0  0  0
   40.7010   28.6760   42.4420 H   0  0  0  0  0  0  0  0  0  0  0  0
   39.2600   32.2580   40.5980 N   0  0  0  0  0  0  0  0  0  0  0  0
   39.5060   31.4360   41.7850 C   0  0  0  0  0  0  0  0  0  0  0  0
   39.8790   30.1560   41.1050 C   0  0  2  0  0  0  0  0  0  0  0  0
   38.7750   30.0030   40.0730 C   0  0  0  0  0  0  0  0  0  0  0  0
   38.4810   31.4420   39.7110 C   0  0  0  0  0  0  0  0  0  0  0  0
   40.3180   31.8620   42.3850 H   0  0  0  0  0  0  0  0  0  0  0  0
   38.5600   31.3320   42.3690 H   0  0  0  0  0  0  0  0  0  0  0  0
   40.8530   30.3000   40.5990 H   0  0  0  0  0  0  0  0  0  0  0  0
   37.9110   29.5300   40.5950 H   0  0  0  0  0  0  0  0  0  0  0  0
   39.0810   29.3800   39.2270 H   0  0  0  0  0  0  0  0  0  0  0  0
   37.4120   31.6250   39.9320 H   0  0  0  0  0  0  0  0  0  0  0  0
   38.7180   31.6200   38.6500 H   0  0  0  0  0  0  0  0  0  0  0  0
   39.3650   35.9530   40.1180 C   0  0  0  0  0  0  0  0  0  0  0  0
   38.8460   34.6990   40.4580 C   0  0  0  0  0  0  0  0  0  0  0  0
   39.6590   33.5730   40.2990 C   0  0  0  0  0  0  0  0  0  0  0  0
   40.9170   33.7820   39.8170 N   0  0  0  0  0  0  0  0  0  0  0  0
   41.4090   34.9760   39.4940 C   0  0  0  0  0  0  0  0  0  0  0  0
   40.6140   36.0770   39.6490 N   0  0  0  0  0  0  0  0  0  0  0  0
   38.6760   36.7710   40.2720 H   0  0  0  0  0  0  0  0  0  0  0  0
   37.8840   34.4470   40.8440 H   0  0  0  0  0  0  0  0  0  0  0  0
   42.4220   35.0460   39.1150 H   0  0  0  0  0  0  0  0  0  0  0  0
   40.4950   25.9910   40.1900 N   0  0  0  0  0  0  0  0  0  0  0  0
   39.6690   26.3580   40.9160 C   0  0  0  0  0  0  0  0  0  0  0  0
  1  6  2  0  0  0  0
  1  2  1  0  0  0  0
  2  3  2  0  0  0  0
  3  4  1  0  0  0  0
  3  7  1  0  0  0  0
  4  8  1  0  0  0  0
  5  9  1  0  0  0  0
  5  4  2  0  0  0  0
  6  5  1  0  0  0  0
 10 12  1  0  0  0  0
 11 10  2  0  0  0  0
 12  6  1  0  0  0  0
 12 13  1  0  0  0  0
 14 15  1  0  0  0  0
 15 16  2  0  0  0  0
 15 10  1  0  0  0  0
 16 17  1  0  0  0  0
 18 19  1  0  0  0  0
 18 16  1  0  0  0  0
 20 18  2  0  0  0  0
 21 14  2  0  0  0  0
 21 20  1  0  0  0  0
 22 23  1  0  0  0  0
 23 14  1  0  0  0  0
 23 25  2  0  0  0  0
 24 23  2  0  0  0  0
 26  2  1  0  0  0  0
 26 27  1  0  0  0  0
 28 29  1  0  0  0  0
 29 34  1  0  0  0  0
 29 33  1  0  0  0  0
 30 35  1  6  0  0  0
 30 29  1  0  0  0  0
 30 26  1  0  0  0  0
 31 36  1  0  0  0  0
 31 30  1  0  0  0  0
 32 38  1  0  0  0  0
 32 31  1  0  0  0  0
 32 28  1  0  0  0  0
 37 31  1  0  0  0  0
 39 32  1  0  0  0  0
 40 46  1  0  0  0  0
 40 41  1  0  0  0  0
 41 47  1  0  0  0  0
 42 41  2  0  0  0  0
 42 28  1  0  0  0  0
 43 42  1  0  0  0  0
 44 45  1  0  0  0  0
 44 43  2  0  0  0  0
 45 40  2  0  0  0  0
 48 44  1  0  0  0  0
 49 50  3  0  0  0  0
 50  1  1  0  0  0  0
M  END
>  <minimizedAffinity>
-6.12883949

$$$$

 OpenBabel03242519123D

 50 53  0  0  1  0  0  0  0  0999 V2000
   38.0860   26.8450   42.3410 C   0  0  0  0  0  0  0  0  0  0  0  0
   38.9840   27.6610   43.0560 C   0  0  0  0  0  0  0  0  0  0  0  0
   39.9920   26.9600   43.6610 C   0  0  0  0  0  0  0  0  0  0  0  0
   40.1690   25.5950   43.6180 C   0  0  0  0  0  0  0  0  0  0  0  0
   39.2600   24.8350   42.9040 C   0  0  0  0  0  0  0  0  0  0  0  0
   38.2280   25.4820   42.2740 C   0  0  0  0  0  0  0  0  0  0  0  0
   40.7310   27.5230   44.2350 H   0  0  0  0  0  0  0  0  0  0  0  0
   40.9920   25.1190   44.1290 H   0  0  0  0  0  0  0  0  0  0  0  0
   39.4090   23.7630   42.8800 H   0  0  0  0  0  0  0  0  0  0  0  0
   37.6300   24.2920   40.2020 C   0  0  0  0  0  0  0  0  0  0  0  0
   38.6380   24.8080   39.6360 O   0  0  0  0  0  0  0  0  0  0  0  0
   37.3140   24.6570   41.5540 N   0  0  0  0  0  0  0  0  0  0  0  0
   36.4930   24.4100   42.1200 H   0  0  0  0  0  0  0  0  0  0  0  0
   36.7980   21.9870   39.3760 C   0  0  0  0  0  0  0  0  0  0  0  0
   36.7370   23.3220   39.5820 C   0  0  0  0  0  0  0  0  0  0  0  0
   35.6030   24.0170   39.1300 C   0  0  0  0  0  0  0  0  0  0  0  0
   35.3690   25.0900   39.2000 H   0  0  0  0  0  0  0  0  0  0  0  0
   34.5500   23.3600   38.4790 C   0  0  0  0  0  0  0  0  0  0  0  0
   33.6550   23.8340   38.1090 H   0  0  0  0  0  0  0  0  0  0  0  0
   34.6300   21.9880   38.2750 C   0  0  0  0  0  3  0  0  0  0  0  0
   35.7700   21.3380   38.7390 C   0  0  0  0  0  3  0  0  0  0  0  0
   38.7390   21.7590   41.1090 H   0  0  0  0  0  0  0  0  0  0  0  0
   38.2370   21.2340   39.9640 S   0  0  0  0  0  0  0  0  0  0  0  0
   37.8770   19.7710   40.2210 O   0  0  0  0  0  0  0  0  0  0  0  0
   39.2530   21.2540   38.8250 O   0  0  0  0  0  0  0  0  0  0  0  0
   38.8730   29.0570   43.1460 N   0  0  0  0  0  0  0  0  0  0  0  0
   38.1480   29.2730   43.8720 H   0  0  0  0  0  0  0  0  0  0  0  0
   39.6110   31.6700   40.8300 N   0  0  0  0  0  0  0  0  0  0  0  0
   38.6210   31.0210   41.6910 C   0  0  0  0  0  0  0  0  0  0  0  0
   39.5390   30.1190   42.4560 C   0  0  2  0  0  0  0  0  0  0  0  0
   40.3720   29.4910   41.3520 C   0  0  0  0  0  0  0  0  0  0  0  0
   40.4600   30.6180   40.3460 C   0  0  0  0  0  0  0  0  0  0  0  0
   38.1160   31.7620   42.3210 H   0  0  0  0  0  0  0  0  0  0  0  0
   37.9030   30.4410   41.0640 H   0  0  0  0  0  0  0  0  0  0  0  0
   40.1810   30.7430   43.1070 H   0  0  0  0  0  0  0  0  0  0  0  0
   39.7840   28.6340   40.9520 H   0  0  0  0  0  0  0  0  0  0  0  0
   41.3420   29.1370   41.7140 H   0  0  0  0  0  0  0  0  0  0  0  0
   40.0300   30.2450   39.3970 H   0  0  0  0  0  0  0  0  0  0  0  0
   41.5070   30.9370   40.2260 H   0  0  0  0  0  0  0  0  0  0  0  0
   39.0620   35.2990   40.1850 C   0  0  0  0  0  0  0  0  0  0  0  0
   38.7640   33.9850   40.5600 C   0  0  0  0  0  0  0  0  0  0  0  0
   39.7770   33.0240   40.4880 C   0  0  0  0  0  0  0  0  0  0  0  0
   40.9980   33.4450   40.0510 N   0  0  0  0  0  0  0  0  0  0  0  0
   41.2790   34.6960   39.6950 C   0  0  0  0  0  0  0  0  0  0  0  0
   40.2890   35.6360   39.7650 N   0  0  0  0  0  0  0  0  0  0  0  0
   38.2270   35.9810   40.2720 H   0  0  0  0  0  0  0  0  0  0  0  0
   37.8470   33.5740   40.9150 H   0  0  0  0  0  0  0  0  0  0  0  0
   42.2800   34.9380   39.3570 H   0  0  0  0  0  0  0  0  0  0  0  0
   36.1160   28.0710   41.1300 N   0  0  0  0  0  0  0  0  0  0  0  0
   36.9830   27.5180   41.6650 C   0  0  0  0  0  0  0  0  0  0  0  0
  1  2  1  0  0  0  0
  2 26  1  0  0  0  0
  2  3  2  0  0  0  0
  3  7  1  0  0  0  0
  4  3  1  0  0  0  0
  4  8  1  0  0  0  0
  5  4  2  0  0  0  0
  6  1  2  0  0  0  0
  6  5  1  0  0  0  0
  9  5  1  0  0  0  0
 10 12  1  0  0  0  0
 11 10  2  0  0  0  0
 12 13  1  0  0  0  0
 12  6  1  0  0  0  0
 14 15  1  0  0  0  0
 14 23  1  0  0  0  0
 15 10  1  0  0  0  0
 16 17  1  0  0  0  0
 16 15  2  0  0  0  0
 18 16  1  0  0  0  0
 19 18  1  0  0  0  0
 20 18  2  0  0  0  0
 20 21  1  0  0  0  0
 21 14  2  0  0  0  0
 23 24  2  0  0  0  0
 23 22  1  0  0  0  0
 25 23  2  0  0  0  0
 26 27  1  0  0  0  0
 28 29  1  0  0  0  0
 29 33  1  0  0  0  0
 29 30  1  0  0  0  0
 30 35  1  1  0  0  0
 30 26  1  0  0  0  0
 31 37  1  0  0  0  0
 31 30  1  0  0  0  0
 32 28  1  0  0  0  0
 32 31  1  0  0  0  0
 34 29  1  0  0  0  0
 36 31  1  0  0  0  0
 38 32  1  0  0  0  0
 39 32  1  0  0  0  0
 40 46  1  0  0  0  0
 40 41  1  0  0  0  0
 41 47  1  0  0  0  0
 42 41  2  0  0  0  0
 42 28  1  0  0  0  0
 43 42  1  0  0  0  0
 44 45  1  0  0  0  0
 44 43  2  0  0  0  0
 45 40  2  0  0  0  0
 48 44  1  0  0  0  0
 49 50  3  0  0  0  0
 50  1  1  0  0  0  0
M  END
>  <minimizedAffinity>
-6.08037996

$$$$

 OpenBabel03242519123D

 50 53  0  0  1  0  0  0  0  0999 V2000
   39.6230   29.3870   42.4630 C   0  0  0  0  0  0  0  0  0  0  0  0
   39.7840   28.0180   42.7530 C   0  0  0  0  0  0  0  0  0  0  0  0
   41.0650   27.6840   43.1050 C   0  0  0  0  0  0  0  0  0  0  0  0
   42.1340   28.5480   43.1860 C   0  0  0  0  0  0  0  0  0  0  0  0
   41.9260   29.8830   42.8900 C   0  0  0  0  0  0  0  0  0  0  0  0
   40.6630   30.2790   42.5320 C   0  0  0  0  0  0  0  0  0  0  0  0
   41.2700   26.6390   43.3460 H   0  0  0  0  0  0  0  0  0  0  0  0
   43.1170   28.2010   43.4680 H   0  0  0  0  0  0  0  0  0  0  0  0
   42.7750   30.5510   42.9550 H   0  0  0  0  0  0  0  0  0  0  0  0
   40.7980   32.1250   40.9080 C   0  0  0  0  0  0  0  0  0  0  0  0
   41.3230   31.3310   40.0740 O   0  0  0  0  0  0  0  0  0  0  0  0
   40.4980   31.6630   42.2330 N   0  0  0  0  0  0  0  0  0  0  0  0
   40.1640   32.1940   43.0470 H   0  0  0  0  0  0  0  0  0  0  0  0
   39.3500   34.1300   40.1530 C   0  0  0  0  0  0  0  0  0  0  0  0
   40.4560   33.5130   40.6270 C   0  0  0  0  0  0  0  0  0  0  0  0
   41.5760   34.2990   40.9440 C   0  0  0  0  0  0  0  0  0  0  0  0
   42.5560   33.9910   41.3350 H   0  0  0  0  0  0  0  0  0  0  0  0
   41.5670   35.6910   40.7790 C   0  0  0  0  0  0  0  0  0  0  0  0
   42.3900   36.3500   41.0030 H   0  0  0  0  0  0  0  0  0  0  0  0
   40.4220   36.3080   40.2900 C   0  0  0  0  0  3  0  0  0  0  0  0
   39.3350   35.4930   39.9890 C   0  0  0  0  0  3  0  0  0  0  0  0
   37.6190   32.2900   40.8170 H   0  0  0  0  0  0  0  0  0  0  0  0
   38.0350   33.0700   39.7880 S   0  0  0  0  0  0  0  0  0  0  0  0
   36.8730   33.9650   39.3600 O   0  0  0  0  0  0  0  0  0  0  0  0
   38.4440   32.2480   38.5690 O   0  0  0  0  0  0  0  0  0  0  0  0
   38.7450   27.0770   42.6960 N   0  0  0  0  0  0  0  0  0  0  0  0
   38.2380   27.1060   43.6130 H   0  0  0  0  0  0  0  0  0  0  0  0
   36.7080   25.2160   40.4320 N   0  0  0  0  0  0  0  0  0  0  0  0
   36.9830   26.4980   41.0860 C   0  0  0  0  0  0  0  0  0  0  0  0
   38.3230   26.1750   41.6690 C   0  0  2  0  0  0  0  0  0  0  0  0
   38.0760   24.8260   42.3220 C   0  0  0  0  0  0  0  0  0  0  0  0
   37.0620   24.2050   41.3870 C   0  0  0  0  0  0  0  0  0  0  0  0
   37.0140   27.3060   40.3470 H   0  0  0  0  0  0  0  0  0  0  0  0
   36.2210   26.6820   41.8810 H   0  0  0  0  0  0  0  0  0  0  0  0
   39.0480   26.0680   40.8410 H   0  0  0  0  0  0  0  0  0  0  0  0
   37.6350   25.0290   43.3250 H   0  0  0  0  0  0  0  0  0  0  0  0
   38.9970   24.2450   42.4350 H   0  0  0  0  0  0  0  0  0  0  0  0
   36.1600   23.9750   41.9870 H   0  0  0  0  0  0  0  0  0  0  0  0
   37.4830   23.3030   40.9160 H   0  0  0  0  0  0  0  0  0  0  0  0
   35.4960   23.5050   37.3510 C   0  0  0  0  0  0  0  0  0  0  0  0
   35.9970   23.6460   38.6490 C   0  0  0  0  0  0  0  0  0  0  0  0
   36.2060   24.9350   39.1490 C   0  0  0  0  0  0  0  0  0  0  0  0
   35.9000   25.9750   38.3230 N   0  0  0  0  0  0  0  0  0  0  0  0
   35.4230   25.8390   37.0870 C   0  0  0  0  0  0  0  0  0  0  0  0
   35.2190   24.5790   36.5990 N   0  0  0  0  0  0  0  0  0  0  0  0
   35.3600   22.4790   37.0410 H   0  0  0  0  0  0  0  0  0  0  0  0
   36.2550   22.8950   39.3600 H   0  0  0  0  0  0  0  0  0  0  0  0
   35.2120   26.7260   36.5010 H   0  0  0  0  0  0  0  0  0  0  0  0
   37.2220   30.1850   41.7950 N   0  0  0  0  0  0  0  0  0  0  0  0
   38.2850   29.8240   42.0820 C   0  0  0  0  0  0  0  0  0  0  0  0
  1  6  2  0  0  0  0
  1  2  1  0  0  0  0
  2  3  2  0  0  0  0
  3  4  1  0  0  0  0
  3  7  1  0  0  0  0
  4  8  1  0  0  0  0
  5  9  1  0  0  0  0
  5  4  2  0  0  0  0
  6  5  1  0  0  0  0
 10 12  1  0  0  0  0
 11 10  2  0  0  0  0
 12  6  1  0  0  0  0
 12 13  1  0  0  0  0
 14 15  1  0  0  0  0
 15 10  1  0  0  0  0
 15 16  2  0  0  0  0
 16 17  1  0  0  0  0
 18 16  1  0  0  0  0
 18 19  1  0  0  0  0
 20 18  2  0  0  0  0
 21 14  2  0  0  0  0
 21 20  1  0  0  0  0
 23 14  1  0  0  0  0
 23 22  1  0  0  0  0
 24 23  2  0  0  0  0
 25 23  2  0  0  0  0
 26  2  1  0  0  0  0
 26 27  1  0  0  0  0
 28 29  1  0  0  0  0
 28 32  1  0  0  0  0
 29 30  1  0  0  0  0
 29 34  1  0  0  0  0
 30 35  1  6  0  0  0
 30 31  1  0  0  0  0
 30 26  1  0  0  0  0
 31 37  1  0  0  0  0
 31 36  1  0  0  0  0
 32 38  1  0  0  0  0
 32 31  1  0  0  0  0
 33 29  1  0  0  0  0
 39 32  1  0  0  0  0
 40 41  1  0  0  0  0
 41 42  2  0  0  0  0
 41 47  1  0  0  0  0
 42 28  1  0  0  0  0
 43 42  1  0  0  0  0
 44 43  2  0  0  0  0
 45 44  1  0  0  0  0
 45 40  2  0  0  0  0
 46 40  1  0  0  0  0
 48 44  1  0  0  0  0
 49 50  3  0  0  0  0
 50  1  1  0  0  0  0
M  END
>  <minimizedAffinity>
-6.02796841

$$$$
