
 OpenBabel03252506213D

 38 40  0  0  0  0  0  0  0  0999 V2000
   45.1560   36.6980   43.3930 C   0  0  0  0  0  0  0  0  0  0  0  0
   44.1420   36.5440   42.4280 C   0  0  0  0  0  0  0  0  0  0  0  0
   44.2940   35.5120   41.4930 C   0  0  0  0  0  0  0  0  0  0  0  0
   45.3910   34.7210   41.5590 N   0  0  0  0  0  0  0  0  0  0  0  0
   46.3340   34.9060   42.5010 C   0  0  0  0  0  0  0  0  0  0  0  0
   46.2250   35.8900   43.4200 N   0  0  0  0  0  0  0  0  0  0  0  0
   43.3180   37.2230   42.4630 H   0  0  0  0  0  0  0  0  0  0  0  0
   43.5170   35.3880   40.7480 H   0  0  0  0  0  0  0  0  0  0  0  0
   48.9020   36.1080   41.4430 Cl  0  0  0  0  0  0  0  0  0  0  0  0
   48.7090   34.4900   42.0270 C   0  0  0  0  0  0  0  0  0  0  0  0
   47.4980   33.9980   42.5010 C   0  0  0  0  0  0  0  0  0  0  0  0
   47.3260   32.7250   42.9660 C   0  0  0  0  0  0  0  0  0  0  0  0
   48.4240   31.9030   42.9540 C   0  0  0  0  0  0  0  0  0  0  0  0
   49.6660   32.2810   42.5100 C   0  0  0  0  0  0  0  0  0  0  0  0
   49.7460   33.5850   42.0580 C   0  0  0  0  0  0  0  0  0  0  0  0
   46.3890   32.3440   43.3320 H   0  0  0  0  0  0  0  0  0  0  0  0
   48.3050   30.8800   43.3230 H   0  0  0  0  0  0  0  0  0  0  0  0
   50.5360   31.6290   42.5010 H   0  0  0  0  0  0  0  0  0  0  0  0
   50.7220   33.9320   41.6930 H   0  0  0  0  0  0  0  0  0  0  0  0
   45.0060   37.7830   44.3810 C   0  0  0  0  0  0  0  0  0  0  0  0
   45.3400   39.0010   44.0220 C   0  0  0  0  0  0  0  0  0  0  0  0
   45.1980   40.1120   45.0020 C   0  0  0  0  0  0  0  0  0  0  0  0
   46.2440   40.4630   45.1980 H   0  0  0  0  0  0  0  0  0  0  0  0
   44.7130   39.8300   45.9360 H   0  0  0  0  0  0  0  0  0  0  0  0
   44.4990   41.2020   44.3220 N   0  0  0  0  0  0  0  0  0  0  0  0
   45.1590   41.7090   43.6930 H   0  0  0  0  0  0  0  0  0  0  0  0
   44.0730   42.3220   45.5920 S   0  0  0  0  0  0  0  0  0  0  0  0
   44.0570   41.6450   46.9180 O   0  0  0  0  0  0  0  0  0  0  0  0
   45.1020   43.4170   45.5490 O   0  0  0  0  0  0  0  0  0  0  0  0
   42.5150   43.0150   45.1800 C   0  0  0  0  0  0  0  0  0  0  0  0
   42.3110   43.6960   43.9940 C   0  0  0  0  0  0  0  0  0  0  0  0
   43.1350   43.8180   43.2760 H   0  0  0  0  0  0  0  0  0  0  0  0
   41.1000   44.2360   43.6720 C   0  0  0  0  0  0  0  0  0  0  0  0
   40.8850   44.7760   42.7610 H   0  0  0  0  0  0  0  0  0  0  0  0
   40.0910   44.0520   44.6170 C   0  0  0  0  0  0  0  0  0  0  0  0
   39.1100   44.4850   44.3640 H   0  0  0  0  0  0  0  0  0  0  0  0
   40.2360   43.3780   45.8240 C   0  0  0  0  0  0  0  0  0  0  0  0
   41.4960   42.8470   46.1000 C   0  0  0  0  0  0  0  0  0  0  0  0
  1  6  1  0  0  0  0
  1 20  1  0  0  0  0
  2  7  1  0  0  0  0
  2  1  2  0  0  0  0
  3  4  2  0  0  0  0
  3  2  1  0  0  0  0
  4  5  1  0  0  0  0
  5  6  2  0  0  0  0
  8  3  1  0  0  0  0
  9 10  1  0  0  0  0
 10 15  2  0  0  0  0
 10 11  1  0  0  0  0
 11  5  1  0  0  0  0
 11 12  2  0  0  0  0
 12 16  1  0  0  0  0
 13 12  1  0  0  0  0
 13 17  1  0  0  0  0
 14 13  2  0  0  0  0
 15 14  1  0  0  0  0
 18 14  1  0  0  0  0
 19 15  1  0  0  0  0
 21 20  2  0  0  0  0
 21 22  1  0  0  0  0
 22 23  1  0  0  0  0
 22 24  1  0  0  0  0
 25 22  1  0  0  0  0
 25 27  1  0  0  0  0
 26 25  1  0  0  0  0
 27 28  2  0  0  0  0
 29 27  2  0  0  0  0
 30 27  1  0  0  0  0
 30 38  1  0  0  0  0
 31 30  2  0  0  0  0
 32 31  1  0  0  0  0
 33 31  1  0  0  0  0
 33 35  2  0  0  0  0
 34 33  1  0  0  0  0
 35 37  1  0  0  0  0
 36 35  1  0  0  0  0
 37 38  2  0  0  0  0
M  END
>  <minimizedAffinity>
-4.04624605

>  <minimizedRMSD>
0.84378767

$$$$
