
     RDKit          3D

 34 36  0  0  0  0  0  0  0  0999 V2000
   45.2589   36.1566   43.1695 C   0  0  0  0  0  0  0  0  0  0  0  0
   45.8635   34.9058   42.9149 C   0  0  0  0  0  0  0  0  0  0  0  0
   45.8341   33.9474   43.9013 C   0  0  0  0  0  0  0  0  0  0  0  0
   45.2339   34.2262   45.0753 N   0  0  0  0  0  0  0  0  0  0  0  0
   44.6507   35.4449   45.3096 C   0  0  0  0  0  0  0  0  0  0  0  0
   44.6812   36.3690   44.3528 N   0  0  0  0  0  0  0  0  0  0  0  0
   46.4549   32.6642   43.6346 C   0  0  0  0  0  0  0  0  0  0  0  0
   45.6614   31.5765   43.2951 C   0  0  0  0  0  0  0  0  0  0  0  0
   46.2774   30.3713   43.0481 C   0  0  0  0  0  0  0  0  0  0  0  0
   47.6540   30.1798   43.1192 C   0  0  0  0  0  0  0  0  0  0  0  0
   48.3719   31.3028   43.4609 C   0  0  0  0  0  0  0  0  0  0  0  0
   47.7717   32.4881   43.7044 N   0  0  0  0  0  0  0  0  0  0  0  0
   46.4865   34.6878   41.6348 C   0  0  0  0  0  0  0  0  0  0  0  0
   47.6697   35.1377   41.4887 O   0  0  0  0  0  0  0  0  0  0  0  0
   45.2566   36.9446   42.4216 H   0  0  0  0  0  0  0  0  0  0  0  0
   44.1657   35.6814   46.2475 H   0  0  0  0  0  0  0  0  0  0  0  0
   44.5698   31.6479   43.2187 H   0  0  0  0  0  0  0  0  0  0  0  0
   45.6853   29.4949   42.7787 H   0  0  0  0  0  0  0  0  0  0  0  0
   48.1480   29.2483   42.9299 H   0  0  0  0  0  0  0  0  0  0  0  0
   49.4494   31.3110   43.5559 H   0  0  0  0  0  0  0  0  0  0  0  0
   47.6762   32.3146   42.0627 H   0  0  0  0  0  0  0  0  0  0  0  0
   47.1104   31.7563   40.9641 S   0  0  0  0  0  0  0  0  0  0  0  0
   48.1533   31.4376   39.9040 O   0  0  0  0  0  0  0  0  0  0  0  0
   46.5779   30.3985   41.3826 O   0  0  0  0  0  0  0  0  0  0  0  0
   45.7946   32.6649   40.2914 C   0  0  0  0  0  0  0  0  0  0  0  0
   45.6524   33.9761   40.6893 C   0  0  0  0  0  0  0  0  0  0  0  0
   44.5730   34.6403   40.0946 C   0  0  0  0  0  0  0  0  0  0  0  0
   44.3860   35.6753   40.3492 H   0  0  0  0  0  0  0  0  0  0  0  0
   43.7149   34.0547   39.1891 C   0  0  0  0  0  0  0  0  0  0  0  0
   42.9060   34.6249   38.7717 H   0  0  0  0  0  0  0  0  0  0  0  0
   43.9041   32.7396   38.8273 C   0  0  0  0  0  0  0  0  0  0  0  0
   44.9585   32.0437   39.3895 C   0  0  0  0  0  0  0  0  0  0  0  0
   43.2395   32.2811   38.1241 H   0  0  0  0  0  0  0  0  0  0  0  0
   45.1129   31.0064   39.1082 H   0  0  0  0  0  0  0  0  0  0  0  0
  1  6  2  0
  2  1  1  0
  2  3  2  0
  3  4  1  0
  4  5  2  0
  6  5  1  0
  7 12  1  0
  7  3  1  0
  8  7  2  0
  9 10  2  0
  9  8  1  0
 10 11  1  0
 11 12  2  0
 13  2  1  0
 14 13  2  0
  1 15  1  0
  5 16  1  0
  8 17  1  0
  9 18  1  0
 10 19  1  0
 11 20  1  0
 21 22  1  0
 22 23  2  0
 22 24  2  0
 22 25  1  0
 25 26  2  0
 26 27  1  0
 27 28  1  0
 27 29  2  0
 29 30  1  0
 29 31  1  0
 31 32  2  0
 32 25  1  0
 31 33  1  0
 32 34  1  0
 13 26  1  0
M  ISO  8  15  14  16  14  17  14  18  14  19  14  20  14  21  12  28  15
M  ISO  1  30  16
M  END
>  <DihAtoms>  (1) 
1,12,25,24

>  <DihDeg>  (1) 
-136.09259128966576

$$$$
