
 OpenBabel03252508013D

 32 34  0  0  1  0  0  0  0  0999 V2000
   37.8280   29.5990   41.6850 C   0  0  0  0  0  0  0  0  0  0  0  0
   38.8580   29.5620   42.6710 C   0  0  0  0  0  0  0  0  0  0  0  0
   39.8140   30.5620   42.5830 C   0  0  0  0  0  0  0  0  0  0  0  0
   39.7110   31.4830   41.5930 N   0  0  0  0  0  0  0  0  0  0  0  0
   38.7030   31.4670   40.6770 C   0  0  0  0  0  0  0  0  0  0  0  0
   37.7640   30.5460   40.7050 N   0  0  0  0  0  0  0  0  0  0  0  0
   38.8420   28.7780   43.4170 H   0  0  0  0  0  0  0  0  0  0  0  0
   40.6100   30.5720   43.3080 H   0  0  0  0  0  0  0  0  0  0  0  0
   38.6830   32.5220   39.6350 C   0  0  1  0  0  0  0  0  0  0  0  0
   37.5090   33.4690   39.5570 C   0  0  0  0  0  0  0  0  0  0  0  0
   38.8260   33.9020   40.1460 C   0  0  1  0  0  0  0  0  0  0  0  0
   39.1360   32.1890   38.6880 H   0  0  0  0  0  0  0  0  0  0  0  0
   37.2740   33.9070   38.5770 H   0  0  0  0  0  0  0  0  0  0  0  0
   36.6670   33.2200   40.2040 H   0  0  0  0  0  0  0  0  0  0  0  0
   39.4680   34.5920   39.5840 H   0  0  0  0  0  0  0  0  0  0  0  0
   38.7410   34.1610   41.5650 N   0  0  0  0  0  0  0  0  0  0  0  0
   39.5970   34.1250   42.0970 H   0  0  0  0  0  0  0  0  0  0  0  0
   37.8480   33.9600   42.0120 H   0  0  0  0  0  0  0  0  0  0  0  0
   36.8210   28.5630   41.7910 C   0  0  0  0  0  0  0  0  0  0  0  0
   36.5860   27.9370   42.8860 O   0  0  0  0  0  0  0  0  0  0  0  0
   36.4690   27.3600   39.6050 C   0  0  0  0  0  0  0  0  0  0  0  0
   36.1280   28.3300   40.5250 C   0  0  0  0  0  0  0  0  0  0  0  0
   35.0300   29.1290   40.1810 C   0  0  0  0  0  0  0  0  0  0  0  0
   34.7480   29.9000   40.8970 H   0  0  0  0  0  0  0  0  0  0  0  0
   34.3130   28.9860   39.0110 C   0  0  0  0  0  0  0  0  0  0  0  0
   33.4760   29.6420   38.8140 H   0  0  0  0  0  0  0  0  0  0  0  0
   34.6860   28.0040   38.1170 C   0  0  0  0  0  3  0  0  0  0  0  0
   35.7640   27.2010   38.4290 C   0  0  0  0  0  3  0  0  0  0  0  0
   38.8170   27.0550   40.5430 H   0  0  0  0  0  0  0  0  0  0  0  0
   37.8230   26.3300   39.9660 S   0  0  0  0  0  0  0  0  0  0  0  0
   38.2960   25.7390   38.6450 O   0  0  0  0  0  0  0  0  0  0  0  0
   37.4490   25.2070   40.8850 O   0  0  0  0  0  0  0  0  0  0  0  0
  1 19  1  0  0  0  0
  1  2  1  0  0  0  0
  2  7  1  0  0  0  0
  3  2  2  0  0  0  0
  3  8  1  0  0  0  0
  4  3  1  0  0  0  0
  5  6  1  0  0  0  0
  5  4  2  0  0  0  0
  6  1  2  0  0  0  0
  9 12  1  6  0  0  0
  9 11  1  0  0  0  0
  9  5  1  0  0  0  0
 10  9  1  0  0  0  0
 10 11  1  0  0  0  0
 10 14  1  0  0  0  0
 11 15  1  6  0  0  0
 11 16  1  0  0  0  0
 13 10  1  0  0  0  0
 16 18  1  0  0  0  0
 16 17  1  0  0  0  0
 19 20  2  0  0  0  0
 21 30  1  0  0  0  0
 21 22  1  0  0  0  0
 22 19  1  0  0  0  0
 23 22  2  0  0  0  0
 23 24  1  0  0  0  0
 25 23  1  0  0  0  0
 26 25  1  0  0  0  0
 27 28  1  0  0  0  0
 27 25  2  0  0  0  0
 28 21  2  0  0  0  0
 30 29  1  0  0  0  0
 30 32  2  0  0  0  0
 31 30  2  0  0  0  0
M  END
>  <minimizedAffinity>
-5.47835779

$$$$

 OpenBabel03252508013D

 32 34  0  0  1  0  0  0  0  0999 V2000
   37.3170   30.7090   40.1790 C   0  0  0  0  0  0  0  0  0  0  0  0
   36.9020   32.0640   40.3510 C   0  0  0  0  0  0  0  0  0  0  0  0
   37.8260   33.0280   39.9780 C   0  0  0  0  0  0  0  0  0  0  0  0
   39.0280   32.6330   39.4890 N   0  0  0  0  0  0  0  0  0  0  0  0
   39.3680   31.3220   39.3490 C   0  0  0  0  0  0  0  0  0  0  0  0
   38.5380   30.3570   39.6840 N   0  0  0  0  0  0  0  0  0  0  0  0
   35.9180   32.2650   40.7510 H   0  0  0  0  0  0  0  0  0  0  0  0
   37.5540   34.0640   40.0890 H   0  0  0  0  0  0  0  0  0  0  0  0
   40.7070   30.9960   38.8040 C   0  0  1  0  0  0  0  0  0  0  0  0
   40.8190   30.1480   37.5590 C   0  0  0  0  0  0  0  0  0  0  0  0
   41.0240   31.6390   37.5110 C   0  0  1  0  0  0  0  0  0  0  0  0
   41.4610   30.8480   39.5940 H   0  0  0  0  0  0  0  0  0  0  0  0
   41.7330   29.5520   37.4320 H   0  0  0  0  0  0  0  0  0  0  0  0
   39.8850   29.7050   37.2140 H   0  0  0  0  0  0  0  0  0  0  0  0
   42.0350   32.0420   37.3730 H   0  0  0  0  0  0  0  0  0  0  0  0
   39.9880   32.3180   36.7670 N   0  0  0  0  0  0  0  0  0  0  0  0
   39.8460   33.2990   36.9530 H   0  0  0  0  0  0  0  0  0  0  0  0
   39.2190   31.7420   36.4290 H   0  0  0  0  0  0  0  0  0  0  0  0
   36.3420   29.7040   40.5540 C   0  0  0  0  0  0  0  0  0  0  0  0
   35.1270   29.7350   40.1470 O   0  0  0  0  0  0  0  0  0  0  0  0
   37.0990   27.3600   41.0820 C   0  0  0  0  0  0  0  0  0  0  0  0
   36.9100   28.6810   41.4310 C   0  0  0  0  0  0  0  0  0  0  0  0
   37.3030   29.0250   42.7300 C   0  0  0  0  0  0  0  0  0  0  0  0
   37.1600   30.0650   43.0210 H   0  0  0  0  0  0  0  0  0  0  0  0
   37.8480   28.1310   43.6300 C   0  0  0  0  0  0  0  0  0  0  0  0
   38.1280   28.4710   44.6170 H   0  0  0  0  0  0  0  0  0  0  0  0
   38.0210   26.8190   43.2430 C   0  0  0  0  0  3  0  0  0  0  0  0
   37.6420   26.4510   41.9670 C   0  0  0  0  0  3  0  0  0  0  0  0
   35.5100   27.5230   39.0980 H   0  0  0  0  0  0  0  0  0  0  0  0
   36.6330   26.8600   39.4830 S   0  0  0  0  0  0  0  0  0  0  0  0
   36.3690   25.3620   39.5450 O   0  0  0  0  0  0  0  0  0  0  0  0
   37.7120   27.1140   38.4750 O   0  0  0  0  0  0  0  0  0  0  0  0
  1  2  1  0  0  0  0
  1 19  1  0  0  0  0
  2  7  1  0  0  0  0
  3  8  1  0  0  0  0
  3  2  2  0  0  0  0
  4  3  1  0  0  0  0
  5  4  2  0  0  0  0
  5  6  1  0  0  0  0
  6  1  2  0  0  0  0
  9  5  1  0  0  0  0
  9 12  1  1  0  0  0
 10  9  1  0  0  0  0
 11 15  1  6  0  0  0
 11 10  1  0  0  0  0
 11  9  1  0  0  0  0
 13 10  1  0  0  0  0
 14 10  1  0  0  0  0
 16 17  1  0  0  0  0
 16 11  1  0  0  0  0
 18 16  1  0  0  0  0
 19 22  1  0  0  0  0
 20 19  2  0  0  0  0
 21 22  2  0  0  0  0
 21 28  1  0  0  0  0
 22 23  1  0  0  0  0
 23 24  1  0  0  0  0
 23 25  2  0  0  0  0
 25 26  1  0  0  0  0
 27 25  1  0  0  0  0
 28 27  2  0  0  0  0
 29 30  1  0  0  0  0
 30 31  2  0  0  0  0
 30 21  1  0  0  0  0
 32 30  2  0  0  0  0
M  END
>  <minimizedAffinity>
-5.32865572

$$$$

 OpenBabel03252508013D

 32 34  0  0  1  0  0  0  0  0999 V2000
   37.0540   29.9990   39.1840 C   0  0  0  0  0  0  0  0  0  0  0  0
   35.6400   29.8050   39.2100 C   0  0  0  0  0  0  0  0  0  0  0  0
   35.1720   28.9160   40.1660 C   0  0  0  0  0  0  0  0  0  0  0  0
   36.0620   28.3070   40.9880 N   0  0  0  0  0  0  0  0  0  0  0  0
   37.4030   28.5320   40.9140 C   0  0  0  0  0  0  0  0  0  0  0  0
   37.9130   29.3630   40.0310 N   0  0  0  0  0  0  0  0  0  0  0  0
   35.0230   30.3460   38.5050 H   0  0  0  0  0  0  0  0  0  0  0  0
   34.1120   28.7400   40.2220 H   0  0  0  0  0  0  0  0  0  0  0  0
   38.2900   27.8140   41.8610 C   0  0  1  0  0  0  0  0  0  0  0  0
   39.2380   28.6000   42.7350 C   0  0  0  0  0  0  0  0  0  0  0  0
   37.9660   28.0150   43.2890 C   0  0  1  0  0  0  0  0  0  0  0  0
   38.6420   26.8490   41.4620 H   0  0  0  0  0  0  0  0  0  0  0  0
   40.1590   28.0990   43.0640 H   0  0  0  0  0  0  0  0  0  0  0  0
   39.3070   29.6640   42.5070 H   0  0  0  0  0  0  0  0  0  0  0  0
   38.0160   27.1440   43.9540 H   0  0  0  0  0  0  0  0  0  0  0  0
   37.0120   29.0290   43.6790 N   0  0  0  0  0  0  0  0  0  0  0  0
   36.0430   28.7590   43.7380 H   0  0  0  0  0  0  0  0  0  0  0  0
   37.2670   29.9940   43.4770 H   0  0  0  0  0  0  0  0  0  0  0  0
   37.5380   30.9420   38.1960 C   0  0  0  0  0  0  0  0  0  0  0  0
   37.2860   30.8210   36.9440 O   0  0  0  0  0  0  0  0  0  0  0  0
   39.6960   32.1440   38.6920 C   0  0  0  0  0  0  0  0  0  0  0  0
   38.3260   32.0180   38.7950 C   0  0  0  0  0  0  0  0  0  0  0  0
   37.6820   33.0170   39.5360 C   0  0  0  0  0  0  0  0  0  0  0  0
   36.6000   32.9320   39.6270 H   0  0  0  0  0  0  0  0  0  0  0  0
   38.3390   34.0710   40.1380 C   0  0  0  0  0  0  0  0  0  0  0  0
   37.7730   34.8040   40.6950 H   0  0  0  0  0  0  0  0  0  0  0  0
   39.7100   34.1610   40.0120 C   0  0  0  0  0  3  0  0  0  0  0  0
   40.3710   33.1910   39.2860 C   0  0  0  0  0  3  0  0  0  0  0  0
   39.7000   30.2340   37.0070 H   0  0  0  0  0  0  0  0  0  0  0  0
   40.5630   30.9390   37.7860 S   0  0  0  0  0  0  0  0  0  0  0  0
   41.2360   30.0220   38.7960 O   0  0  0  0  0  0  0  0  0  0  0  0
   41.6200   31.5420   36.9100 O   0  0  0  0  0  0  0  0  0  0  0  0
  1  2  2  0  0  0  0
  1  6  1  0  0  0  0
  2  3  1  0  0  0  0
  3  8  1  0  0  0  0
  3  4  2  0  0  0  0
  5  4  1  0  0  0  0
  5  9  1  0  0  0  0
  6  5  2  0  0  0  0
  7  2  1  0  0  0  0
  9 12  1  6  0  0  0
  9 10  1  0  0  0  0
  9 11  1  0  0  0  0
 10 13  1  0  0  0  0
 10 11  1  0  0  0  0
 11 16  1  0  0  0  0
 11 15  1  1  0  0  0
 14 10  1  0  0  0  0
 16 17  1  0  0  0  0
 18 16  1  0  0  0  0
 19 22  1  0  0  0  0
 19  1  1  0  0  0  0
 20 19  2  0  0  0  0
 21 22  2  0  0  0  0
 21 28  1  0  0  0  0
 22 23  1  0  0  0  0
 23 24  1  0  0  0  0
 23 25  2  0  0  0  0
 25 26  1  0  0  0  0
 27 25  1  0  0  0  0
 28 27  2  0  0  0  0
 29 30  1  0  0  0  0
 30 21  1  0  0  0  0
 30 31  2  0  0  0  0
 32 30  2  0  0  0  0
M  END
>  <minimizedAffinity>
-5.28866911

$$$$

 OpenBabel03252508013D

 32 34  0  0  1  0  0  0  0  0999 V2000
   37.8940   29.1100   42.3870 C   0  0  0  0  0  0  0  0  0  0  0  0
   39.1000   29.6660   42.9090 C   0  0  0  0  0  0  0  0  0  0  0  0
   39.4990   30.8700   42.3520 C   0  0  0  0  0  0  0  0  0  0  0  0
   38.7410   31.4250   41.3740 N   0  0  0  0  0  0  0  0  0  0  0  0
   37.5970   30.8460   40.9140 C   0  0  0  0  0  0  0  0  0  0  0  0
   37.1620   29.7040   41.4010 N   0  0  0  0  0  0  0  0  0  0  0  0
   39.6260   29.1350   43.6910 H   0  0  0  0  0  0  0  0  0  0  0  0
   40.4040   31.3260   42.7170 H   0  0  0  0  0  0  0  0  0  0  0  0
   36.8400   31.5370   39.8430 C   0  0  1  0  0  0  0  0  0  0  0  0
   37.5390   31.9030   38.5550 C   0  0  0  0  0  0  0  0  0  0  0  0
   36.6020   30.7260   38.6300 C   0  0  1  0  0  0  0  0  0  0  0  0
   36.0950   32.2450   40.2400 H   0  0  0  0  0  0  0  0  0  0  0  0
   37.1530   32.7660   37.9960 H   0  0  0  0  0  0  0  0  0  0  0  0
   38.6190   31.7540   38.5530 H   0  0  0  0  0  0  0  0  0  0  0  0
   35.6150   30.7910   38.1560 H   0  0  0  0  0  0  0  0  0  0  0  0
   37.2830   29.4630   38.4580 N   0  0  0  0  0  0  0  0  0  0  0  0
   36.8290   28.6370   38.8150 H   0  0  0  0  0  0  0  0  0  0  0  0
   38.2980   29.5000   38.3800 H   0  0  0  0  0  0  0  0  0  0  0  0
   37.4700   27.8600   42.9840 C   0  0  0  0  0  0  0  0  0  0  0  0
   36.3520   27.7320   43.6000 O   0  0  0  0  0  0  0  0  0  0  0  0
   38.4100   25.8440   41.8000 C   0  0  0  0  0  0  0  0  0  0  0  0
   38.4540   26.7940   42.7990 C   0  0  0  0  0  0  0  0  0  0  0  0
   39.5390   26.6950   43.6800 C   0  0  0  0  0  0  0  0  0  0  0  0
   39.5890   27.4380   44.4740 H   0  0  0  0  0  0  0  0  0  0  0  0
   40.5180   25.7260   43.5860 C   0  0  0  0  0  0  0  0  0  0  0  0
   41.3260   25.7130   44.3040 H   0  0  0  0  0  0  0  0  0  0  0  0
   40.4370   24.7940   42.5730 C   0  0  0  0  0  3  0  0  0  0  0  0
   39.3790   24.8680   41.6900 C   0  0  0  0  0  3  0  0  0  0  0  0
   35.9910   26.4380   41.2670 H   0  0  0  0  0  0  0  0  0  0  0  0
   37.0900   25.9060   40.6690 S   0  0  0  0  0  0  0  0  0  0  0  0
   36.8140   24.4750   40.2300 O   0  0  0  0  0  0  0  0  0  0  0  0
   37.4220   26.7220   39.4570 O   0  0  0  0  0  0  0  0  0  0  0  0
  1  2  1  0  0  0  0
  1 19  1  0  0  0  0
  2  7  1  0  0  0  0
  3  8  1  0  0  0  0
  3  2  2  0  0  0  0
  4  3  1  0  0  0  0
  5  4  2  0  0  0  0
  5  6  1  0  0  0  0
  6  1  2  0  0  0  0
  9 12  1  1  0  0  0
  9  5  1  0  0  0  0
 10 11  1  0  0  0  0
 10  9  1  0  0  0  0
 11 15  1  6  0  0  0
 11  9  1  0  0  0  0
 13 10  1  0  0  0  0
 14 10  1  0  0  0  0
 16 11  1  0  0  0  0
 16 17  1  0  0  0  0
 18 16  1  0  0  0  0
 19 20  2  0  0  0  0
 21 22  1  0  0  0  0
 22 19  1  0  0  0  0
 22 23  2  0  0  0  0
 23 24  1  0  0  0  0
 25 23  1  0  0  0  0
 25 26  1  0  0  0  0
 27 25  2  0  0  0  0
 28 21  2  0  0  0  0
 28 27  1  0  0  0  0
 30 29  1  0  0  0  0
 30 21  1  0  0  0  0
 31 30  2  0  0  0  0
 32 30  2  0  0  0  0
M  END
>  <minimizedAffinity>
-5.24748993

$$$$

 OpenBabel03252508013D

 32 34  0  0  1  0  0  0  0  0999 V2000
   37.0270   28.9380   41.6470 C   0  0  0  0  0  0  0  0  0  0  0  0
   38.1490   29.3450   42.4290 C   0  0  0  0  0  0  0  0  0  0  0  0
   38.8070   28.3340   43.1100 C   0  0  0  0  0  0  0  0  0  0  0  0
   38.3540   27.0600   42.9940 N   0  0  0  0  0  0  0  0  0  0  0  0
   37.2740   26.7320   42.2320 C   0  0  0  0  0  0  0  0  0  0  0  0
   36.6050   27.6440   41.5600 N   0  0  0  0  0  0  0  0  0  0  0  0
   38.4220   30.3920   42.4490 H   0  0  0  0  0  0  0  0  0  0  0  0
   39.6600   28.5960   43.7120 H   0  0  0  0  0  0  0  0  0  0  0  0
   36.8610   25.3100   42.1730 C   0  0  1  0  0  0  0  0  0  0  0  0
   36.7920   24.6090   40.8360 C   0  0  0  0  0  0  0  0  0  0  0  0
   37.9340   24.3680   41.7880 C   0  0  1  0  0  0  0  0  0  0  0  0
   36.0920   25.0610   42.9210 H   0  0  0  0  0  0  0  0  0  0  0  0
   36.0870   23.7730   40.7380 H   0  0  0  0  0  0  0  0  0  0  0  0
   36.9220   25.2540   39.9670 H   0  0  0  0  0  0  0  0  0  0  0  0
   37.9950   23.4140   42.3270 H   0  0  0  0  0  0  0  0  0  0  0  0
   39.1920   24.8700   41.2850 N   0  0  0  0  0  0  0  0  0  0  0  0
   39.9200   25.0590   41.9560 H   0  0  0  0  0  0  0  0  0  0  0  0
   39.1590   25.3790   40.4040 H   0  0  0  0  0  0  0  0  0  0  0  0
   36.3520   29.9960   40.9220 C   0  0  0  0  0  0  0  0  0  0  0  0
   36.1960   31.1740   41.4050 O   0  0  0  0  0  0  0  0  0  0  0  0
   36.6480   29.5790   38.4540 C   0  0  0  0  0  0  0  0  0  0  0  0
   35.8880   29.5580   39.6060 C   0  0  0  0  0  0  0  0  0  0  0  0
   34.5810   29.0750   39.4590 C   0  0  0  0  0  0  0  0  0  0  0  0
   33.9690   29.0530   40.3590 H   0  0  0  0  0  0  0  0  0  0  0  0
   34.0540   28.6400   38.2610 C   0  0  0  0  0  0  0  0  0  0  0  0
   33.0340   28.2810   38.2250 H   0  0  0  0  0  0  0  0  0  0  0  0
   34.8450   28.6760   37.1320 C   0  0  0  0  0  3  0  0  0  0  0  0
   36.1380   29.1470   37.2460 C   0  0  0  0  0  3  0  0  0  0  0  0
   38.7970   29.8830   39.7860 H   0  0  0  0  0  0  0  0  0  0  0  0
   38.2810   30.1660   38.5610 S   0  0  0  0  0  0  0  0  0  0  0  0
   38.2270   31.6710   38.3430 O   0  0  0  0  0  0  0  0  0  0  0  0
   39.1680   29.5630   37.5140 O   0  0  0  0  0  0  0  0  0  0  0  0
  1  2  1  0  0  0  0
  2  7  1  0  0  0  0
  2  3  2  0  0  0  0
  3  8  1  0  0  0  0
  4  3  1  0  0  0  0
  5  4  2  0  0  0  0
  6  1  2  0  0  0  0
  6  5  1  0  0  0  0
  9  5  1  0  0  0  0
  9 12  1  1  0  0  0
 10 11  1  0  0  0  0
 10  9  1  0  0  0  0
 11  9  1  0  0  0  0
 11 15  1  1  0  0  0
 13 10  1  0  0  0  0
 14 10  1  0  0  0  0
 16 11  1  0  0  0  0
 16 17  1  0  0  0  0
 18 16  1  0  0  0  0
 19 20  2  0  0  0  0
 19  1  1  0  0  0  0
 21 30  1  0  0  0  0
 21 22  1  0  0  0  0
 22 19  1  0  0  0  0
 23 22  2  0  0  0  0
 23 24  1  0  0  0  0
 25 23  1  0  0  0  0
 26 25  1  0  0  0  0
 27 28  1  0  0  0  0
 27 25  2  0  0  0  0
 28 21  2  0  0  0  0
 30 29  1  0  0  0  0
 31 30  2  0  0  0  0
 32 30  2  0  0  0  0
M  END
>  <minimizedAffinity>
-5.2171855

$$$$

 OpenBabel03252508013D

 32 34  0  0  1  0  0  0  0  0999 V2000
   36.4310   30.2600   39.6010 C   0  0  0  0  0  0  0  0  0  0  0  0
   36.6470   29.8920   38.2390 C   0  0  0  0  0  0  0  0  0  0  0  0
   37.3130   30.8250   37.4600 C   0  0  0  0  0  0  0  0  0  0  0  0
   37.7030   31.9940   38.0270 N   0  0  0  0  0  0  0  0  0  0  0  0
   37.4670   32.2910   39.3340 C   0  0  0  0  0  0  0  0  0  0  0  0
   36.8410   31.4490   40.1280 N   0  0  0  0  0  0  0  0  0  0  0  0
   36.2920   28.9300   37.8930 H   0  0  0  0  0  0  0  0  0  0  0  0
   37.4980   30.5880   36.4270 H   0  0  0  0  0  0  0  0  0  0  0  0
   37.9370   33.5980   39.8550 C   0  0  1  0  0  0  0  0  0  0  0  0
   38.8690   33.6350   41.0430 C   0  0  0  0  0  0  0  0  0  0  0  0
   39.3740   33.8700   39.6430 C   0  0  1  0  0  0  0  0  0  0  0  0
   37.1670   34.3830   39.7840 H   0  0  0  0  0  0  0  0  0  0  0  0
   38.8420   34.5290   41.6810 H   0  0  0  0  0  0  0  0  0  0  0  0
   39.0300   32.6770   41.5370 H   0  0  0  0  0  0  0  0  0  0  0  0
   39.6640   34.8830   39.3370 H   0  0  0  0  0  0  0  0  0  0  0  0
   40.2510   32.8160   39.1850 N   0  0  0  0  0  0  0  0  0  0  0  0
   40.3650   32.7050   38.1900 H   0  0  0  0  0  0  0  0  0  0  0  0
   40.3700   32.0210   39.8090 H   0  0  0  0  0  0  0  0  0  0  0  0
   35.7510   29.2740   40.4150 C   0  0  0  0  0  0  0  0  0  0  0  0
   34.4910   29.0520   40.3230 O   0  0  0  0  0  0  0  0  0  0  0  0
   37.1490   27.3080   41.1430 C   0  0  0  0  0  0  0  0  0  0  0  0
   36.6610   28.5850   41.3290 C   0  0  0  0  0  0  0  0  0  0  0  0
   37.0940   29.2350   42.4930 C   0  0  0  0  0  0  0  0  0  0  0  0
   36.7180   30.2430   42.6540 H   0  0  0  0  0  0  0  0  0  0  0  0
   37.9520   28.6680   43.4140 C   0  0  0  0  0  0  0  0  0  0  0  0
   38.2420   29.2310   44.2900 H   0  0  0  0  0  0  0  0  0  0  0  0
   38.4180   27.3890   43.1910 C   0  0  0  0  0  3  0  0  0  0  0  0
   38.0080   26.7250   42.0530 C   0  0  0  0  0  3  0  0  0  0  0  0
   35.4610   26.9220   39.2750 H   0  0  0  0  0  0  0  0  0  0  0  0
   36.6530   26.4420   39.7200 S   0  0  0  0  0  0  0  0  0  0  0  0
   36.5210   24.9780   40.1140 O   0  0  0  0  0  0  0  0  0  0  0  0
   37.6590   26.5500   38.6130 O   0  0  0  0  0  0  0  0  0  0  0  0
  1  6  1  0  0  0  0
  1 19  1  0  0  0  0
  2  1  2  0  0  0  0
  3  4  2  0  0  0  0
  3  2  1  0  0  0  0
  4  5  1  0  0  0  0
  5  9  1  0  0  0  0
  5  6  2  0  0  0  0
  7  2  1  0  0  0  0
  8  3  1  0  0  0  0
  9 12  1  6  0  0  0
  9 10  1  0  0  0  0
 10 14  1  0  0  0  0
 10 13  1  0  0  0  0
 11 15  1  6  0  0  0
 11  9  1  0  0  0  0
 11 10  1  0  0  0  0
 16 11  1  0  0  0  0
 16 18  1  0  0  0  0
 17 16  1  0  0  0  0
 19 22  1  0  0  0  0
 20 19  2  0  0  0  0
 21 22  2  0  0  0  0
 21 28  1  0  0  0  0
 22 23  1  0  0  0  0
 23 24  1  0  0  0  0
 23 25  2  0  0  0  0
 25 26  1  0  0  0  0
 27 25  1  0  0  0  0
 28 27  2  0  0  0  0
 29 30  1  0  0  0  0
 30 31  2  0  0  0  0
 30 21  1  0  0  0  0
 32 30  2  0  0  0  0
M  END
>  <minimizedAffinity>
-5.18021202

$$$$

 OpenBabel03252508013D

 32 34  0  0  1  0  0  0  0  0999 V2000
   37.9050   29.0000   40.1390 C   0  0  0  0  0  0  0  0  0  0  0  0
   36.4800   28.9280   40.1760 C   0  0  0  0  0  0  0  0  0  0  0  0
   35.8240   30.1120   40.4740 C   0  0  0  0  0  0  0  0  0  0  0  0
   36.5570   31.2290   40.7050 N   0  0  0  0  0  0  0  0  0  0  0  0
   37.9180   31.2370   40.6570 C   0  0  0  0  0  0  0  0  0  0  0  0
   38.6020   30.1470   40.3800 N   0  0  0  0  0  0  0  0  0  0  0  0
   35.9980   27.9810   39.9750 H   0  0  0  0  0  0  0  0  0  0  0  0
   34.7480   30.1030   40.5110 H   0  0  0  0  0  0  0  0  0  0  0  0
   38.6240   32.5130   40.9250 C   0  0  1  0  0  0  0  0  0  0  0  0
   39.5660   33.0750   39.8870 C   0  0  0  0  0  0  0  0  0  0  0  0
   38.1890   33.6510   40.0880 C   0  0  1  0  0  0  0  0  0  0  0  0
   38.9030   32.6270   41.9850 H   0  0  0  0  0  0  0  0  0  0  0  0
   40.3890   33.7110   40.2400 H   0  0  0  0  0  0  0  0  0  0  0  0
   39.7750   32.4170   39.0430 H   0  0  0  0  0  0  0  0  0  0  0  0
   38.0780   34.6290   40.5710 H   0  0  0  0  0  0  0  0  0  0  0  0
   37.3220   33.4260   38.9540 N   0  0  0  0  0  0  0  0  0  0  0  0
   36.3280   33.4650   39.1130 H   0  0  0  0  0  0  0  0  0  0  0  0
   37.7010   32.8590   38.1970 H   0  0  0  0  0  0  0  0  0  0  0  0
   38.5870   27.7650   39.8100 C   0  0  0  0  0  0  0  0  0  0  0  0
   39.6510   27.7320   39.0950 O   0  0  0  0  0  0  0  0  0  0  0  0
   37.9910   26.2200   41.7090 C   0  0  0  0  0  0  0  0  0  0  0  0
   37.9220   26.5950   40.3830 C   0  0  0  0  0  0  0  0  0  0  0  0
   37.1500   25.7660   39.5600 C   0  0  0  0  0  0  0  0  0  0  0  0
   37.0860   26.0490   38.5100 H   0  0  0  0  0  0  0  0  0  0  0  0
   36.4860   24.6420   40.0080 C   0  0  0  0  0  0  0  0  0  0  0  0
   35.9080   24.0510   39.3110 H   0  0  0  0  0  0  0  0  0  0  0  0
   36.5790   24.3010   41.3410 C   0  0  0  0  0  3  0  0  0  0  0  0
   37.3340   25.0990   42.1760 C   0  0  0  0  0  3  0  0  0  0  0  0
   39.7750   27.9980   42.0800 H   0  0  0  0  0  0  0  0  0  0  0  0
   38.9330   27.2030   42.7910 S   0  0  0  0  0  0  0  0  0  0  0  0
   39.7230   26.2530   43.6790 O   0  0  0  0  0  0  0  0  0  0  0  0
   38.0730   28.0680   43.6620 O   0  0  0  0  0  0  0  0  0  0  0  0
  1  2  2  0  0  0  0
  1  6  1  0  0  0  0
  2  3  1  0  0  0  0
  3  8  1  0  0  0  0
  3  4  2  0  0  0  0
  5  4  1  0  0  0  0
  5  9  1  0  0  0  0
  6  5  2  0  0  0  0
  7  2  1  0  0  0  0
  9 12  1  1  0  0  0
 10 11  1  0  0  0  0
 10 13  1  0  0  0  0
 10  9  1  0  0  0  0
 11 15  1  1  0  0  0
 11  9  1  0  0  0  0
 14 10  1  0  0  0  0
 16 17  1  0  0  0  0
 16 11  1  0  0  0  0
 18 16  1  0  0  0  0
 19  1  1  0  0  0  0
 19 22  1  0  0  0  0
 20 19  2  0  0  0  0
 21 28  1  0  0  0  0
 21 30  1  0  0  0  0
 22 21  2  0  0  0  0
 23 25  2  0  0  0  0
 23 22  1  0  0  0  0
 24 23  1  0  0  0  0
 25 27  1  0  0  0  0
 26 25  1  0  0  0  0
 27 28  2  0  0  0  0
 29 30  1  0  0  0  0
 30 32  2  0  0  0  0
 30 31  2  0  0  0  0
M  END
>  <minimizedAffinity>
-5.11636162

$$$$

 OpenBabel03252508013D

 32 34  0  0  1  0  0  0  0  0999 V2000
   38.1320   29.1080   40.4910 C   0  0  0  0  0  0  0  0  0  0  0  0
   38.4920   28.5740   39.2170 C   0  0  0  0  0  0  0  0  0  0  0  0
   39.2790   29.3920   38.4220 C   0  0  0  0  0  0  0  0  0  0  0  0
   39.6440   30.6110   38.8920 N   0  0  0  0  0  0  0  0  0  0  0  0
   39.2680   31.0670   40.1180 C   0  0  0  0  0  0  0  0  0  0  0  0
   38.5210   30.3410   40.9230 N   0  0  0  0  0  0  0  0  0  0  0  0
   38.1430   27.5870   38.9440 H   0  0  0  0  0  0  0  0  0  0  0  0
   39.5750   29.0290   37.4520 H   0  0  0  0  0  0  0  0  0  0  0  0
   39.7220   32.4150   40.5370 C   0  0  1  0  0  0  0  0  0  0  0  0
   39.5200   33.5910   39.6110 C   0  0  0  0  0  0  0  0  0  0  0  0
   38.6360   33.3790   40.8120 C   0  0  1  0  0  0  0  0  0  0  0  0
   40.6510   32.3830   41.1290 H   0  0  0  0  0  0  0  0  0  0  0  0
   40.2220   34.4310   39.6970 H   0  0  0  0  0  0  0  0  0  0  0  0
   39.1670   33.3390   38.6110 H   0  0  0  0  0  0  0  0  0  0  0  0
   38.7420   34.0360   41.6840 H   0  0  0  0  0  0  0  0  0  0  0  0
   37.2740   33.0580   40.4490 N   0  0  0  0  0  0  0  0  0  0  0  0
   36.7090   32.5820   41.1350 H   0  0  0  0  0  0  0  0  0  0  0  0
   37.0840   32.9420   39.4550 H   0  0  0  0  0  0  0  0  0  0  0  0
   37.3230   28.2420   41.3260 C   0  0  0  0  0  0  0  0  0  0  0  0
   36.0540   28.3830   41.4420 O   0  0  0  0  0  0  0  0  0  0  0  0
   38.0450   25.8640   41.7420 C   0  0  0  0  0  0  0  0  0  0  0  0
   38.1210   27.2170   41.9980 C   0  0  0  0  0  0  0  0  0  0  0  0
   39.0420   27.5950   42.9840 C   0  0  0  0  0  0  0  0  0  0  0  0
   39.1140   28.6600   43.1980 H   0  0  0  0  0  0  0  0  0  0  0  0
   39.8390   26.7030   43.6720 C   0  0  0  0  0  0  0  0  0  0  0  0
   40.5270   27.0690   44.4210 H   0  0  0  0  0  0  0  0  0  0  0  0
   39.7330   25.3570   43.3860 C   0  0  0  0  0  3  0  0  0  0  0  0
   38.8330   24.9560   42.4200 C   0  0  0  0  0  3  0  0  0  0  0  0
   35.9350   26.2430   40.3670 H   0  0  0  0  0  0  0  0  0  0  0  0
   36.9220   25.3220   40.5300 S   0  0  0  0  0  0  0  0  0  0  0  0
   36.3410   24.0040   41.0200 O   0  0  0  0  0  0  0  0  0  0  0  0
   37.5870   25.0890   39.2070 O   0  0  0  0  0  0  0  0  0  0  0  0
  1  6  1  0  0  0  0
  1 19  1  0  0  0  0
  2  1  2  0  0  0  0
  3  4  2  0  0  0  0
  3  2  1  0  0  0  0
  4  5  1  0  0  0  0
  5  9  1  0  0  0  0
  5  6  2  0  0  0  0
  7  2  1  0  0  0  0
  8  3  1  0  0  0  0
  9 11  1  0  0  0  0
  9 12  1  1  0  0  0
 10 13  1  0  0  0  0
 10  9  1  0  0  0  0
 10 11  1  0  0  0  0
 11 15  1  1  0  0  0
 14 10  1  0  0  0  0
 16 11  1  0  0  0  0
 16 17  1  0  0  0  0
 18 16  1  0  0  0  0
 19 20  2  0  0  0  0
 19 22  1  0  0  0  0
 21 22  2  0  0  0  0
 21 28  1  0  0  0  0
 22 23  1  0  0  0  0
 23 24  1  0  0  0  0
 23 25  2  0  0  0  0
 25 26  1  0  0  0  0
 27 25  1  0  0  0  0
 28 27  2  0  0  0  0
 29 30  1  0  0  0  0
 30 31  2  0  0  0  0
 30 21  1  0  0  0  0
 32 30  2  0  0  0  0
M  END
>  <minimizedAffinity>
-5.07953835

$$$$

 OpenBabel03252508013D

 32 34  0  0  1  0  0  0  0  0999 V2000
   36.5660   28.4690   41.4640 C   0  0  0  0  0  0  0  0  0  0  0  0
   37.3550   29.1670   42.4270 C   0  0  0  0  0  0  0  0  0  0  0  0
   38.0860   28.3730   43.2970 C   0  0  0  0  0  0  0  0  0  0  0  0
   38.0060   27.0240   43.1790 N   0  0  0  0  0  0  0  0  0  0  0  0
   37.2340   26.4130   42.2380 C   0  0  0  0  0  0  0  0  0  0  0  0
   36.5150   27.1090   41.3820 N   0  0  0  0  0  0  0  0  0  0  0  0
   37.3430   30.2490   42.4300 H   0  0  0  0  0  0  0  0  0  0  0  0
   38.6950   28.8580   44.0400 H   0  0  0  0  0  0  0  0  0  0  0  0
   37.2180   24.9320   42.1940 C   0  0  1  0  0  0  0  0  0  0  0  0
   37.6000   24.2200   40.9180 C   0  0  0  0  0  0  0  0  0  0  0  0
   38.5500   24.3000   42.0840 C   0  0  1  0  0  0  0  0  0  0  0  0
   36.4040   24.4990   42.7980 H   0  0  0  0  0  0  0  0  0  0  0  0
   37.1660   23.2260   40.7420 H   0  0  0  0  0  0  0  0  0  0  0  0
   37.7320   24.8640   40.0490 H   0  0  0  0  0  0  0  0  0  0  0  0
   38.7430   23.4030   42.6850 H   0  0  0  0  0  0  0  0  0  0  0  0
   39.7130   25.1080   41.7970 N   0  0  0  0  0  0  0  0  0  0  0  0
   40.2190   25.4910   42.5810 H   0  0  0  0  0  0  0  0  0  0  0  0
   39.7290   25.5790   40.8940 H   0  0  0  0  0  0  0  0  0  0  0  0
   35.8170   29.3030   40.5460 C   0  0  0  0  0  0  0  0  0  0  0  0
   34.5670   29.1290   40.3170 O   0  0  0  0  0  0  0  0  0  0  0  0
   37.4060   30.1680   38.7920 C   0  0  0  0  0  0  0  0  0  0  0  0
   36.6480   30.3380   39.9320 C   0  0  0  0  0  0  0  0  0  0  0  0
   36.7070   31.6110   40.5130 C   0  0  0  0  0  0  0  0  0  0  0  0
   36.1150   31.7610   41.4140 H   0  0  0  0  0  0  0  0  0  0  0  0
   37.4610   32.6510   40.0070 C   0  0  0  0  0  0  0  0  0  0  0  0
   37.4570   33.6070   40.5120 H   0  0  0  0  0  0  0  0  0  0  0  0
   38.2050   32.4410   38.8650 C   0  0  0  0  0  3  0  0  0  0  0  0
   38.1660   31.1960   38.2710 C   0  0  0  0  0  3  0  0  0  0  0  0
   36.1890   27.9990   38.2440 H   0  0  0  0  0  0  0  0  0  0  0  0
   37.3810   28.6120   38.0160 S   0  0  0  0  0  0  0  0  0  0  0  0
   38.5190   27.7980   38.6150 O   0  0  0  0  0  0  0  0  0  0  0  0
   37.5950   28.7140   36.5360 O   0  0  0  0  0  0  0  0  0  0  0  0
  1  2  1  0  0  0  0
  2  7  1  0  0  0  0
  2  3  2  0  0  0  0
  3  8  1  0  0  0  0
  4  3  1  0  0  0  0
  5  4  2  0  0  0  0
  6  1  2  0  0  0  0
  6  5  1  0  0  0  0
  9  5  1  0  0  0  0
  9 12  1  1  0  0  0
 10 11  1  0  0  0  0
 10  9  1  0  0  0  0
 11  9  1  0  0  0  0
 11 15  1  1  0  0  0
 13 10  1  0  0  0  0
 14 10  1  0  0  0  0
 16 11  1  0  0  0  0
 16 17  1  0  0  0  0
 18 16  1  0  0  0  0
 19  1  1  0  0  0  0
 20 19  2  0  0  0  0
 21 22  1  0  0  0  0
 22 23  2  0  0  0  0
 22 19  1  0  0  0  0
 23 24  1  0  0  0  0
 25 26  1  0  0  0  0
 25 23  1  0  0  0  0
 27 25  2  0  0  0  0
 28 21  2  0  0  0  0
 28 27  1  0  0  0  0
 30 29  1  0  0  0  0
 30 31  2  0  0  0  0
 30 21  1  0  0  0  0
 32 30  2  0  0  0  0
M  END
>  <minimizedAffinity>
-5.07210684

$$$$
