
 OpenBabel03252508003D

 32 34  0  0  1  0  0  0  0  0999 V2000
   45.9870   34.6880   43.5230 C   0  0  0  0  0  0  0  0  0  0  0  0
   45.0880   35.6840   44.0080 C   0  0  0  0  0  0  0  0  0  0  0  0
   44.5900   35.4760   45.2850 C   0  0  0  0  0  0  0  0  0  0  0  0
   44.9780   34.3720   45.9700 N   0  0  0  0  0  0  0  0  0  0  0  0
   45.8410   33.4530   45.4530 C   0  0  0  0  0  0  0  0  0  0  0  0
   46.3500   33.5900   44.2470 N   0  0  0  0  0  0  0  0  0  0  0  0
   44.8470   36.5260   43.3740 H   0  0  0  0  0  0  0  0  0  0  0  0
   43.9090   36.2040   45.6910 H   0  0  0  0  0  0  0  0  0  0  0  0
   46.2020   32.2810   46.2860 C   0  0  1  0  0  0  0  0  0  0  0  0
   47.1280   32.4610   47.4640 C   0  0  0  0  0  0  0  0  0  0  0  0
   45.6440   32.2960   47.6550 C   0  0  1  0  0  0  0  0  0  0  0  0
   46.2990   31.3560   45.6950 H   0  0  0  0  0  0  0  0  0  0  0  0
   47.7330   31.5960   47.7710 H   0  0  0  0  0  0  0  0  0  0  0  0
   47.5930   33.4440   47.5440 H   0  0  0  0  0  0  0  0  0  0  0  0
   45.2520   31.3540   48.0590 H   0  0  0  0  0  0  0  0  0  0  0  0
   45.0130   33.4920   48.1660 N   0  0  0  0  0  0  0  0  0  0  0  0
   44.0230   33.5980   48.0130 H   0  0  0  0  0  0  0  0  0  0  0  0
   45.6100   34.3110   48.2700 H   0  0  0  0  0  0  0  0  0  0  0  0
   46.5190   34.9170   42.1950 C   0  0  0  0  0  0  0  0  0  0  0  0
   47.5470   35.6530   41.9800 O   0  0  0  0  0  0  0  0  0  0  0  0
   46.1970   33.1240   40.4530 C   0  0  0  0  0  0  0  0  0  0  0  0
   45.7530   34.2200   41.1620 C   0  0  0  0  0  0  0  0  0  0  0  0
   44.4650   34.6680   40.8390 C   0  0  0  0  0  0  0  0  0  0  0  0
   44.0980   35.5320   41.3900 H   0  0  0  0  0  0  0  0  0  0  0  0
   43.6650   34.0780   39.8810 C   0  0  0  0  0  0  0  0  0  0  0  0
   42.6810   34.4790   39.6850 H   0  0  0  0  0  0  0  0  0  0  0  0
   44.1480   32.9830   39.1930 C   0  0  0  0  0  3  0  0  0  0  0  0
   45.4130   32.5200   39.4910 C   0  0  0  0  0  3  0  0  0  0  0  0
   48.1750   32.9120   42.0440 H   0  0  0  0  0  0  0  0  0  0  0  0
   47.7880   32.5150   40.8030 S   0  0  0  0  0  0  0  0  0  0  0  0
   48.7260   33.0860   39.7480 O   0  0  0  0  0  0  0  0  0  0  0  0
   47.8480   31.0190   40.7340 O   0  0  0  0  0  0  0  0  0  0  0  0
  1  2  2  0  0  0  0
  1  6  1  0  0  0  0
  2  3  1  0  0  0  0
  3  8  1  0  0  0  0
  3  4  2  0  0  0  0
  5  4  1  0  0  0  0
  5  9  1  0  0  0  0
  6  5  2  0  0  0  0
  7  2  1  0  0  0  0
  9 12  1  6  0  0  0
  9 10  1  0  0  0  0
  9 11  1  0  0  0  0
 10 14  1  0  0  0  0
 10 11  1  0  0  0  0
 10 13  1  0  0  0  0
 11 15  1  1  0  0  0
 11 16  1  0  0  0  0
 16 18  1  0  0  0  0
 17 16  1  0  0  0  0
 19  1  1  0  0  0  0
 20 19  2  0  0  0  0
 21 30  1  0  0  0  0
 21 22  1  0  0  0  0
 22 19  1  0  0  0  0
 23 22  2  0  0  0  0
 23 24  1  0  0  0  0
 25 23  1  0  0  0  0
 26 25  1  0  0  0  0
 27 28  1  0  0  0  0
 27 25  2  0  0  0  0
 28 21  2  0  0  0  0
 30 29  1  0  0  0  0
 31 30  2  0  0  0  0
 32 30  2  0  0  0  0
M  END
>  <minimizedAffinity>
-5.47513914

>  <minimizedRMSD>
0.552385509

$$$$
