
 OpenBabel03252503333D

 44 46  0  0  1  0  0  0  0  0999 V2000
   42.6200   32.0280   42.5390 C   0  0  0  0  0  0  0  0  0  0  0  0
   43.0990   33.2750   42.0170 C   0  0  0  0  0  0  0  0  0  0  0  0
   44.4880   33.4910   42.1440 C   0  0  0  0  0  0  0  0  0  0  0  0
   45.2330   32.5390   42.7280 N   0  0  0  0  0  0  0  0  0  0  0  0
   44.7240   31.3760   43.2040 C   0  0  0  0  0  0  0  0  0  0  0  0
   43.4020   31.1290   43.1030 N   0  0  0  0  0  0  0  0  0  0  0  0
   40.8530   31.3680   41.1420 C   0  0  0  0  0  0  0  0  0  0  0  0
   41.7380   31.3950   40.2200 O   0  0  0  0  0  0  0  0  0  0  0  0
   41.2200   31.7230   42.4540 N   0  0  0  0  0  0  0  0  0  0  0  0
   39.5450   30.9710   40.7670 N   0  0  0  0  0  0  0  0  0  0  0  0
   39.1700   30.9460   39.3400 C   0  0  0  0  0  0  0  0  0  0  0  0
   37.7090   31.2720   39.3900 C   0  0  0  0  0  0  0  0  0  0  0  0
   37.3480   31.3480   40.8440 C   0  0  0  0  0  0  0  0  0  0  0  0
   38.4150   30.5330   41.5330 C   0  0  1  0  0  0  0  0  0  0  0  0
   42.4060   33.9700   41.5650 H   0  0  0  0  0  0  0  0  0  0  0  0
   45.3780   30.6420   43.6670 H   0  0  0  0  0  0  0  0  0  0  0  0
   40.4860   31.7260   43.1660 H   0  0  0  0  0  0  0  0  0  0  0  0
   39.3120   29.9070   38.9610 H   0  0  0  0  0  0  0  0  0  0  0  0
   39.7510   31.6660   38.7470 H   0  0  0  0  0  0  0  0  0  0  0  0
   37.5580   32.2490   38.8680 H   0  0  0  0  0  0  0  0  0  0  0  0
   37.1010   30.5380   38.8190 H   0  0  0  0  0  0  0  0  0  0  0  0
   36.3540   31.3790   41.1500 H   0  0  0  0  0  0  0  0  0  0  0  0
   37.7080   32.4050   41.1090 H   0  0  0  0  0  0  0  0  0  0  0  0
   38.4040   30.8060   42.5800 H   0  0  0  0  0  0  0  0  0  0  0  0
   38.0370   28.1960   42.5320 C   0  0  0  0  0  0  0  0  0  0  0  0
   37.7110   28.8550   43.5500 O   0  0  0  0  0  0  0  0  0  0  0  0
   38.2670   29.0930   41.4130 N   0  0  0  0  0  0  0  0  0  0  0  0
   38.3250   28.6180   40.4590 H   0  0  0  0  0  0  0  0  0  0  0  0
   39.2220   25.9620   42.8420 C   0  0  0  0  0  0  0  0  0  0  0  0
   38.1540   26.7660   42.5190 C   0  0  0  0  0  0  0  0  0  0  0  0
   36.9730   26.1430   42.1060 C   0  0  0  0  0  0  0  0  0  0  0  0
   36.0520   26.6660   41.8200 H   0  0  0  0  0  0  0  0  0  0  0  0
   36.8580   24.7570   42.0150 C   0  0  0  0  0  0  0  0  0  0  0  0
   35.9520   24.2640   41.6970 H   0  0  0  0  0  0  0  0  0  0  0  0
   37.9780   24.0370   42.3580 C   0  0  0  0  0  3  0  0  0  0  0  0
   39.1680   24.5910   42.7720 C   0  0  0  0  0  3  0  0  0  0  0  0
   40.3950   27.6250   44.4330 H   0  0  0  0  0  0  0  0  0  0  0  0
   40.6530   26.8050   43.3470 S   0  0  0  0  0  0  0  0  0  0  0  0
   41.7560   25.8890   43.7790 O   0  0  0  0  0  0  0  0  0  0  0  0
   41.1750   27.6120   42.1970 O   0  0  0  0  0  0  0  0  0  0  0  0
   44.9530   34.7640   41.6050 C   0  0  0  0  0  0  0  0  0  0  0  0
   45.9360   35.2770   42.4480 F   0  0  0  0  0  0  0  0  0  0  0  0
   43.8800   35.6600   41.7050 F   0  0  0  0  0  0  0  0  0  0  0  0
   45.4580   34.6830   40.3370 F   0  0  0  0  0  0  0  0  0  0  0  0
  1  6  1  0  0  0  0
  2  3  1  0  0  0  0
  2  1  2  0  0  0  0
  3  4  2  0  0  0  0
  4  5  1  0  0  0  0
  5 16  1  0  0  0  0
  6  5  2  0  0  0  0
  7  9  1  0  0  0  0
  8  7  2  0  0  0  0
  9  1  1  0  0  0  0
  9 17  1  0  0  0  0
 10  7  1  0  0  0  0
 10 14  1  0  0  0  0
 11 12  1  0  0  0  0
 11 10  1  0  0  0  0
 12 13  1  0  0  0  0
 13 23  1  0  0  0  0
 13 22  1  0  0  0  0
 13 14  1  0  0  0  0
 14 24  1  1  0  0  0
 15  2  1  0  0  0  0
 18 11  1  0  0  0  0
 19 11  1  0  0  0  0
 20 12  1  0  0  0  0
 21 12  1  0  0  0  0
 25 26  2  0  0  0  0
 27 14  1  0  0  0  0
 27 25  1  0  0  0  0
 28 27  1  0  0  0  0
 29 38  1  0  0  0  0
 30 25  1  0  0  0  0
 30 29  2  0  0  0  0
 31 30  1  0  0  0  0
 32 31  1  0  0  0  0
 33 31  2  0  0  0  0
 33 35  1  0  0  0  0
 34 33  1  0  0  0  0
 35 36  2  0  0  0  0
 36 29  1  0  0  0  0
 38 39  2  0  0  0  0
 38 37  1  0  0  0  0
 40 38  2  0  0  0  0
 41 43  1  0  0  0  0
 41  3  1  0  0  0  0
 41 42  1  0  0  0  0
 44 41  1  0  0  0  0
M  END
>  <minimizedAffinity>
-6.36671591

$$$$

 OpenBabel03252503333D

 44 46  0  0  1  0  0  0  0  0999 V2000
   38.4180   29.8740   39.9010 C   0  0  0  0  0  0  0  0  0  0  0  0
   37.1580   29.9180   39.2170 C   0  0  0  0  0  0  0  0  0  0  0  0
   36.2940   28.8310   39.4690 C   0  0  0  0  0  0  0  0  0  0  0  0
   36.7070   27.8660   40.3070 N   0  0  0  0  0  0  0  0  0  0  0  0
   37.9130   27.8770   40.9260 C   0  0  0  0  0  0  0  0  0  0  0  0
   38.7690   28.8970   40.7140 N   0  0  0  0  0  0  0  0  0  0  0  0
   38.9730   32.1000   40.3970 C   0  0  0  0  0  0  0  0  0  0  0  0
   37.8740   32.0970   41.0490 O   0  0  0  0  0  0  0  0  0  0  0  0
   39.3610   30.9380   39.7040 N   0  0  0  0  0  0  0  0  0  0  0  0
   39.7350   33.2950   40.4240 N   0  0  0  0  0  0  0  0  0  0  0  0
   39.1080   34.5510   40.8800 C   0  0  0  0  0  0  0  0  0  0  0  0
   39.8350   35.5810   40.0730 C   0  0  0  0  0  0  0  0  0  0  0  0
   40.8900   34.8400   39.3060 C   0  0  0  0  0  0  0  0  0  0  0  0
   41.1030   33.5730   40.0970 C   0  0  1  0  0  0  0  0  0  0  0  0
   36.9300   30.7480   38.5640 H   0  0  0  0  0  0  0  0  0  0  0  0
   38.1910   27.0660   41.5940 H   0  0  0  0  0  0  0  0  0  0  0  0
   40.2280   30.9770   39.1620 H   0  0  0  0  0  0  0  0  0  0  0  0
   39.3430   34.6840   41.9620 H   0  0  0  0  0  0  0  0  0  0  0  0
   38.0230   34.5570   40.7080 H   0  0  0  0  0  0  0  0  0  0  0  0
   39.0930   36.0740   39.3990 H   0  0  0  0  0  0  0  0  0  0  0  0
   40.2400   36.3970   40.7100 H   0  0  0  0  0  0  0  0  0  0  0  0
   41.6510   35.3490   38.8100 H   0  0  0  0  0  0  0  0  0  0  0  0
   40.2780   34.4230   38.4290 H   0  0  0  0  0  0  0  0  0  0  0  0
   41.5990   32.8650   39.4470 H   0  0  0  0  0  0  0  0  0  0  0  0
   43.2760   33.3540   41.4500 C   0  0  0  0  0  0  0  0  0  0  0  0
   43.7780   33.1500   40.3180 O   0  0  0  0  0  0  0  0  0  0  0  0
   41.8790   33.7270   41.3160 N   0  0  0  0  0  0  0  0  0  0  0  0
   41.4350   34.1370   42.1950 H   0  0  0  0  0  0  0  0  0  0  0  0
   44.0700   32.1820   43.5690 C   0  0  0  0  0  0  0  0  0  0  0  0
   44.0120   33.2260   42.6750 C   0  0  0  0  0  0  0  0  0  0  0  0
   44.7690   34.3670   42.9590 C   0  0  0  0  0  0  0  0  0  0  0  0
   44.8110   35.2660   42.3330 H   0  0  0  0  0  0  0  0  0  0  0  0
   45.5610   34.4650   44.1020 C   0  0  0  0  0  0  0  0  0  0  0  0
   46.1500   35.3410   44.3320 H   0  0  0  0  0  0  0  0  0  0  0  0
   45.5550   33.3720   44.9350 C   0  0  0  0  0  3  0  0  0  0  0  0
   44.8320   32.2220   44.7100 C   0  0  0  0  0  3  0  0  0  0  0  0
   43.4310   30.3250   41.8920 H   0  0  0  0  0  0  0  0  0  0  0  0
   43.1050   30.8010   43.1510 S   0  0  0  0  0  0  0  0  0  0  0  0
   43.2920   29.6460   44.0850 O   0  0  0  0  0  0  0  0  0  0  0  0
   41.6570   31.1820   43.2050 O   0  0  0  0  0  0  0  0  0  0  0  0
   35.0190   28.8980   38.7650 C   0  0  0  0  0  0  0  0  0  0  0  0
   34.7560   27.6560   38.1910 F   0  0  0  0  0  0  0  0  0  0  0  0
   35.2000   29.7710   37.6840 F   0  0  0  0  0  0  0  0  0  0  0  0
   33.9610   29.2490   39.5570 F   0  0  0  0  0  0  0  0  0  0  0  0
  1  6  1  0  0  0  0
  2  3  1  0  0  0  0
  2  1  2  0  0  0  0
  3  4  2  0  0  0  0
  4  5  1  0  0  0  0
  5 16  1  0  0  0  0
  6  5  2  0  0  0  0
  7 10  1  0  0  0  0
  7  8  2  0  0  0  0
  9  1  1  0  0  0  0
  9  7  1  0  0  0  0
 10 11  1  0  0  0  0
 11 18  1  0  0  0  0
 12 21  1  0  0  0  0
 12 11  1  0  0  0  0
 13 12  1  0  0  0  0
 13 14  1  0  0  0  0
 14 24  1  6  0  0  0
 14 10  1  0  0  0  0
 14 27  1  0  0  0  0
 15  2  1  0  0  0  0
 17  9  1  0  0  0  0
 19 11  1  0  0  0  0
 20 12  1  0  0  0  0
 22 13  1  0  0  0  0
 23 13  1  0  0  0  0
 25 30  1  0  0  0  0
 26 25  2  0  0  0  0
 27 25  1  0  0  0  0
 27 28  1  0  0  0  0
 29 36  1  0  0  0  0
 30 31  1  0  0  0  0
 30 29  2  0  0  0  0
 31 33  2  0  0  0  0
 32 31  1  0  0  0  0
 33 34  1  0  0  0  0
 33 35  1  0  0  0  0
 36 35  2  0  0  0  0
 37 38  1  0  0  0  0
 38 40  2  0  0  0  0
 38 29  1  0  0  0  0
 38 39  2  0  0  0  0
 41  3  1  0  0  0  0
 41 44  1  0  0  0  0
 42 41  1  0  0  0  0
 43 41  1  0  0  0  0
M  END
>  <minimizedAffinity>
-6.31955242

$$$$

 OpenBabel03252503333D

 44 46  0  0  1  0  0  0  0  0999 V2000
   40.1460   28.0380   42.0260 C   0  0  0  0  0  0  0  0  0  0  0  0
   38.8790   27.4090   41.7850 C   0  0  0  0  0  0  0  0  0  0  0  0
   38.5900   26.2970   42.6060 C   0  0  0  0  0  0  0  0  0  0  0  0
   39.4980   25.9250   43.5230 N   0  0  0  0  0  0  0  0  0  0  0  0
   40.6820   26.5600   43.7060 C   0  0  0  0  0  0  0  0  0  0  0  0
   40.9980   27.6260   42.9440 N   0  0  0  0  0  0  0  0  0  0  0  0
   39.8230   30.3300   41.6350 C   0  0  0  0  0  0  0  0  0  0  0  0
   38.9510   30.2370   42.5650 O   0  0  0  0  0  0  0  0  0  0  0  0
   40.5240   29.1760   41.2380 N   0  0  0  0  0  0  0  0  0  0  0  0
   40.0250   31.6120   41.0660 N   0  0  0  0  0  0  0  0  0  0  0  0
   39.0300   32.6780   41.2960 C   0  0  0  0  0  0  0  0  0  0  0  0
   39.1240   33.4780   40.0340 C   0  0  0  0  0  0  0  0  0  0  0  0
   40.2400   32.8690   39.2370 C   0  0  0  0  0  0  0  0  0  0  0  0
   41.0830   32.1550   40.2650 C   0  0  1  0  0  0  0  0  0  0  0  0
   38.2250   27.7950   41.0180 H   0  0  0  0  0  0  0  0  0  0  0  0
   41.3760   26.2120   44.4650 H   0  0  0  0  0  0  0  0  0  0  0  0
   41.1920   29.2700   40.4690 H   0  0  0  0  0  0  0  0  0  0  0  0
   39.3730   33.2940   42.1600 H   0  0  0  0  0  0  0  0  0  0  0  0
   38.0250   32.2730   41.4740 H   0  0  0  0  0  0  0  0  0  0  0  0
   38.1420   33.4030   39.5070 H   0  0  0  0  0  0  0  0  0  0  0  0
   39.2650   34.5610   40.2390 H   0  0  0  0  0  0  0  0  0  0  0  0
   40.6300   33.3520   38.4020 H   0  0  0  0  0  0  0  0  0  0  0  0
   39.7090   31.9700   38.7600 H   0  0  0  0  0  0  0  0  0  0  0  0
   41.7030   31.4440   39.7360 H   0  0  0  0  0  0  0  0  0  0  0  0
   43.3780   32.9920   41.0590 C   0  0  0  0  0  0  0  0  0  0  0  0
   43.7850   32.3440   40.0640 O   0  0  0  0  0  0  0  0  0  0  0  0
   41.9260   33.0140   41.0780 N   0  0  0  0  0  0  0  0  0  0  0  0
   41.4950   33.7230   41.7480 H   0  0  0  0  0  0  0  0  0  0  0  0
   44.7190   33.1360   43.2210 C   0  0  0  0  0  0  0  0  0  0  0  0
   44.2540   33.6070   42.0150 C   0  0  0  0  0  0  0  0  0  0  0  0
   44.6690   34.8790   41.6110 C   0  0  0  0  0  0  0  0  0  0  0  0
   44.3730   35.3700   40.6760 H   0  0  0  0  0  0  0  0  0  0  0  0
   45.5230   35.6610   42.3870 C   0  0  0  0  0  0  0  0  0  0  0  0
   45.8500   36.6450   42.0860 H   0  0  0  0  0  0  0  0  0  0  0  0
   45.9340   35.1070   43.5750 C   0  0  0  0  0  3  0  0  0  0  0  0
   45.5610   33.8610   44.0270 C   0  0  0  0  0  3  0  0  0  0  0  0
   44.5960   30.6000   42.7470 H   0  0  0  0  0  0  0  0  0  0  0  0
   44.1620   31.5500   43.6560 S   0  0  0  0  0  0  0  0  0  0  0  0
   44.6630   31.0950   44.9920 O   0  0  0  0  0  0  0  0  0  0  0  0
   42.6650   31.5600   43.7260 O   0  0  0  0  0  0  0  0  0  0  0  0
   37.2980   25.6750   42.3450 C   0  0  0  0  0  0  0  0  0  0  0  0
   37.0220   25.7630   40.9830 F   0  0  0  0  0  0  0  0  0  0  0  0
   36.3310   26.4760   42.9680 F   0  0  0  0  0  0  0  0  0  0  0  0
   37.2220   24.3630   42.7250 F   0  0  0  0  0  0  0  0  0  0  0  0
  1  6  1  0  0  0  0
  2  1  2  0  0  0  0
  2  3  1  0  0  0  0
  3  4  2  0  0  0  0
  4  5  1  0  0  0  0
  5 16  1  0  0  0  0
  6  5  2  0  0  0  0
  7  8  2  0  0  0  0
  9  7  1  0  0  0  0
  9  1  1  0  0  0  0
 10 11  1  0  0  0  0
 10  7  1  0  0  0  0
 11 19  1  0  0  0  0
 11 18  1  0  0  0  0
 12 21  1  0  0  0  0
 12 11  1  0  0  0  0
 13 12  1  0  0  0  0
 13 14  1  0  0  0  0
 14 24  1  6  0  0  0
 14 10  1  0  0  0  0
 14 27  1  0  0  0  0
 15  2  1  0  0  0  0
 17  9  1  0  0  0  0
 20 12  1  0  0  0  0
 22 13  1  0  0  0  0
 23 13  1  0  0  0  0
 25 27  1  0  0  0  0
 25 30  1  0  0  0  0
 26 25  2  0  0  0  0
 27 28  1  0  0  0  0
 29 38  1  0  0  0  0
 29 36  1  0  0  0  0
 30 29  2  0  0  0  0
 31 30  1  0  0  0  0
 31 33  2  0  0  0  0
 32 31  1  0  0  0  0
 33 35  1  0  0  0  0
 34 33  1  0  0  0  0
 35 36  2  0  0  0  0
 37 38  1  0  0  0  0
 38 40  2  0  0  0  0
 38 39  2  0  0  0  0
 41  3  1  0  0  0  0
 41 44  1  0  0  0  0
 41 43  1  0  0  0  0
 42 41  1  0  0  0  0
M  END
>  <minimizedAffinity>
-6.19962835

$$$$

 OpenBabel03252503333D

 44 46  0  0  1  0  0  0  0  0999 V2000
   38.9680   27.3310   39.6550 C   0  0  0  0  0  0  0  0  0  0  0  0
   37.9740   26.7320   40.4980 C   0  0  0  0  0  0  0  0  0  0  0  0
   38.3380   25.4990   41.0800 C   0  0  0  0  0  0  0  0  0  0  0  0
   39.5530   24.9950   40.8070 N   0  0  0  0  0  0  0  0  0  0  0  0
   40.4530   25.6080   40.0000 C   0  0  0  0  0  0  0  0  0  0  0  0
   40.1470   26.7880   39.4240 N   0  0  0  0  0  0  0  0  0  0  0  0
   38.7560   29.6510   39.9380 C   0  0  0  0  0  0  0  0  0  0  0  0
   39.0050   29.3980   41.1650 O   0  0  0  0  0  0  0  0  0  0  0  0
   38.6850   28.5860   39.0200 N   0  0  0  0  0  0  0  0  0  0  0  0
   38.5690   31.0120   39.5860 N   0  0  0  0  0  0  0  0  0  0  0  0
   38.3250   32.0130   40.6430 C   0  0  0  0  0  0  0  0  0  0  0  0
   37.4520   33.0080   39.9430 C   0  0  0  0  0  0  0  0  0  0  0  0
   37.3600   32.5510   38.5170 C   0  0  0  0  0  0  0  0  0  0  0  0
   38.5850   31.6910   38.3240 C   0  0  1  0  0  0  0  0  0  0  0  0
   37.0270   27.2290   40.6480 H   0  0  0  0  0  0  0  0  0  0  0  0
   41.4220   25.1510   39.8170 H   0  0  0  0  0  0  0  0  0  0  0  0
   38.4510   28.8130   38.0510 H   0  0  0  0  0  0  0  0  0  0  0  0
   39.3000   32.4860   40.9070 H   0  0  0  0  0  0  0  0  0  0  0  0
   37.8470   31.5710   41.5280 H   0  0  0  0  0  0  0  0  0  0  0  0
   36.4560   33.0060   40.4490 H   0  0  0  0  0  0  0  0  0  0  0  0
   37.8350   34.0450   40.0530 H   0  0  0  0  0  0  0  0  0  0  0  0
   36.9630   33.1680   37.7790 H   0  0  0  0  0  0  0  0  0  0  0  0
   36.5580   31.7330   38.5950 H   0  0  0  0  0  0  0  0  0  0  0  0
   38.4180   31.0830   37.4450 H   0  0  0  0  0  0  0  0  0  0  0  0
   41.1240   31.7930   37.9420 C   0  0  0  0  0  0  0  0  0  0  0  0
   40.9670   30.5900   37.6190 O   0  0  0  0  0  0  0  0  0  0  0  0
   39.8340   32.4180   38.1720 N   0  0  0  0  0  0  0  0  0  0  0  0
   39.8530   33.4840   38.2270 H   0  0  0  0  0  0  0  0  0  0  0  0
   42.8440   33.4010   38.9160 C   0  0  0  0  0  0  0  0  0  0  0  0
   42.4100   32.4200   38.0550 C   0  0  0  0  0  0  0  0  0  0  0  0
   43.3240   31.9240   37.1210 C   0  0  0  0  0  0  0  0  0  0  0  0
   43.1070   31.1450   36.3790 H   0  0  0  0  0  0  0  0  0  0  0  0
   44.6350   32.3910   37.0470 C   0  0  0  0  0  0  0  0  0  0  0  0
   45.3500   32.0160   36.3300 H   0  0  0  0  0  0  0  0  0  0  0  0
   44.9780   33.3700   37.9480 C   0  0  0  0  0  3  0  0  0  0  0  0
   44.1240   33.8990   38.8900 C   0  0  0  0  0  3  0  0  0  0  0  0
   40.8970   32.9200   40.5440 H   0  0  0  0  0  0  0  0  0  0  0  0
   41.6550   33.9670   40.0470 S   0  0  0  0  0  0  0  0  0  0  0  0
   42.2530   34.6420   41.2420 O   0  0  0  0  0  0  0  0  0  0  0  0
   40.7750   34.9720   39.3670 O   0  0  0  0  0  0  0  0  0  0  0  0
   37.3140   24.9090   41.9350 C   0  0  0  0  0  0  0  0  0  0  0  0
   36.2980   24.3970   41.1310 F   0  0  0  0  0  0  0  0  0  0  0  0
   36.7230   25.9640   42.6440 F   0  0  0  0  0  0  0  0  0  0  0  0
   37.7730   23.9140   42.7520 F   0  0  0  0  0  0  0  0  0  0  0  0
  1  2  1  0  0  0  0
  2 15  1  0  0  0  0
  2  3  2  0  0  0  0
  3 41  1  0  0  0  0
  4  3  1  0  0  0  0
  5  4  2  0  0  0  0
  6  1  2  0  0  0  0
  6  5  1  0  0  0  0
  7  8  2  0  0  0  0
  9  1  1  0  0  0  0
  9  7  1  0  0  0  0
 10  7  1  0  0  0  0
 10 11  1  0  0  0  0
 11 18  1  0  0  0  0
 11 19  1  0  0  0  0
 12 21  1  0  0  0  0
 12 20  1  0  0  0  0
 12 11  1  0  0  0  0
 13 23  1  0  0  0  0
 13 12  1  0  0  0  0
 14 24  1  6  0  0  0
 14 13  1  0  0  0  0
 14 10  1  0  0  0  0
 16  5  1  0  0  0  0
 17  9  1  0  0  0  0
 22 13  1  0  0  0  0
 25 30  1  0  0  0  0
 25 27  1  0  0  0  0
 26 25  2  0  0  0  0
 27 28  1  0  0  0  0
 27 14  1  0  0  0  0
 29 38  1  0  0  0  0
 30 29  2  0  0  0  0
 31 30  1  0  0  0  0
 32 31  1  0  0  0  0
 33 31  2  0  0  0  0
 33 35  1  0  0  0  0
 34 33  1  0  0  0  0
 35 36  2  0  0  0  0
 36 29  1  0  0  0  0
 38 37  1  0  0  0  0
 38 39  2  0  0  0  0
 40 38  2  0  0  0  0
 41 43  1  0  0  0  0
 41 44  1  0  0  0  0
 42 41  1  0  0  0  0
M  END
>  <minimizedAffinity>
-6.16870737

$$$$

 OpenBabel03252503333D

 44 46  0  0  1  0  0  0  0  0999 V2000
   40.5170   31.0740   39.5910 C   0  0  0  0  0  0  0  0  0  0  0  0
   40.8400   32.3130   40.2360 C   0  0  0  0  0  0  0  0  0  0  0  0
   41.0800   33.4020   39.3710 C   0  0  0  0  0  0  0  0  0  0  0  0
   40.9890   33.1990   38.0470 N   0  0  0  0  0  0  0  0  0  0  0  0
   40.6800   32.0020   37.4920 C   0  0  0  0  0  0  0  0  0  0  0  0
   40.4430   30.9360   38.2820 N   0  0  0  0  0  0  0  0  0  0  0  0
   38.9900   29.9800   40.9970 C   0  0  0  0  0  0  0  0  0  0  0  0
   38.2700   31.0200   40.8160 O   0  0  0  0  0  0  0  0  0  0  0  0
   40.2590   29.9120   40.3920 N   0  0  0  0  0  0  0  0  0  0  0  0
   38.4450   28.9530   41.8080 N   0  0  0  0  0  0  0  0  0  0  0  0
   37.2790   29.2400   42.6660 C   0  0  0  0  0  0  0  0  0  0  0  0
   37.5020   28.3200   43.8260 C   0  0  0  0  0  0  0  0  0  0  0  0
   38.7160   27.5070   43.4840 C   0  0  0  0  0  0  0  0  0  0  0  0
   38.7940   27.5730   41.9780 C   0  0  1  0  0  0  0  0  0  0  0  0
   40.8850   32.3610   41.3150 H   0  0  0  0  0  0  0  0  0  0  0  0
   40.6210   31.9000   36.4110 H   0  0  0  0  0  0  0  0  0  0  0  0
   40.8290   29.0840   40.5810 H   0  0  0  0  0  0  0  0  0  0  0  0
   36.3580   28.9360   42.1150 H   0  0  0  0  0  0  0  0  0  0  0  0
   37.2330   30.2980   42.9590 H   0  0  0  0  0  0  0  0  0  0  0  0
   37.6610   28.9490   44.7360 H   0  0  0  0  0  0  0  0  0  0  0  0
   36.6030   27.7060   44.0470 H   0  0  0  0  0  0  0  0  0  0  0  0
   38.9740   26.6670   44.0420 H   0  0  0  0  0  0  0  0  0  0  0  0
   39.5590   28.2370   43.7550 H   0  0  0  0  0  0  0  0  0  0  0  0
   39.7980   27.2890   41.6940 H   0  0  0  0  0  0  0  0  0  0  0  0
   37.8400   26.5250   39.8350 C   0  0  0  0  0  0  0  0  0  0  0  0
   38.9190   26.9350   39.3400 O   0  0  0  0  0  0  0  0  0  0  0  0
   37.8420   26.7330   41.2720 N   0  0  0  0  0  0  0  0  0  0  0  0
   37.0750   26.2160   41.8030 H   0  0  0  0  0  0  0  0  0  0  0  0
   36.3970   24.6270   38.9360 C   0  0  0  0  0  0  0  0  0  0  0  0
   36.7850   25.9410   39.0570 C   0  0  0  0  0  0  0  0  0  0  0  0
   36.0750   26.8990   38.3270 C   0  0  0  0  0  0  0  0  0  0  0  0
   36.2810   27.9760   38.3330 H   0  0  0  0  0  0  0  0  0  0  0  0
   35.0070   26.5570   37.4990 C   0  0  0  0  0  0  0  0  0  0  0  0
   34.4510   27.2870   36.9300 H   0  0  0  0  0  0  0  0  0  0  0  0
   34.6920   25.2200   37.4420 C   0  0  0  0  0  3  0  0  0  0  0  0
   35.3530   24.2320   38.1360 C   0  0  0  0  0  3  0  0  0  0  0  0
   38.6790   23.6350   39.6260 H   0  0  0  0  0  0  0  0  0  0  0  0
   37.3240   23.4960   39.8720 S   0  0  0  0  0  0  0  0  0  0  0  0
   37.1560   23.6760   41.3490 O   0  0  0  0  0  0  0  0  0  0  0  0
   36.8730   22.1050   39.5430 O   0  0  0  0  0  0  0  0  0  0  0  0
   41.4050   34.6520   40.0490 C   0  0  0  0  0  0  0  0  0  0  0  0
   40.3350   35.0120   40.8650 F   0  0  0  0  0  0  0  0  0  0  0  0
   41.4620   35.6440   39.0610 F   0  0  0  0  0  0  0  0  0  0  0  0
   42.5390   34.5970   40.8100 F   0  0  0  0  0  0  0  0  0  0  0  0
  1  2  1  0  0  0  0
  1  9  1  0  0  0  0
  2 15  1  0  0  0  0
  3 41  1  0  0  0  0
  3  2  2  0  0  0  0
  4  3  1  0  0  0  0
  5  4  2  0  0  0  0
  5  6  1  0  0  0  0
  6  1  2  0  0  0  0
  7 10  1  0  0  0  0
  8  7  2  0  0  0  0
  9 17  1  0  0  0  0
  9  7  1  0  0  0  0
 10 14  1  0  0  0  0
 10 11  1  0  0  0  0
 11 19  1  0  0  0  0
 11 12  1  0  0  0  0
 12 21  1  0  0  0  0
 12 20  1  0  0  0  0
 13 23  1  0  0  0  0
 13 12  1  0  0  0  0
 13 22  1  0  0  0  0
 14 24  1  6  0  0  0
 14 13  1  0  0  0  0
 16  5  1  0  0  0  0
 18 11  1  0  0  0  0
 25 27  1  0  0  0  0
 26 25  2  0  0  0  0
 27 28  1  0  0  0  0
 27 14  1  0  0  0  0
 29 30  1  0  0  0  0
 29 38  1  0  0  0  0
 30 25  1  0  0  0  0
 31 32  1  0  0  0  0
 31 30  2  0  0  0  0
 33 31  1  0  0  0  0
 34 33  1  0  0  0  0
 35 33  2  0  0  0  0
 35 36  1  0  0  0  0
 36 29  2  0  0  0  0
 37 38  1  0  0  0  0
 38 39  2  0  0  0  0
 40 38  2  0  0  0  0
 41 44  1  0  0  0  0
 41 42  1  0  0  0  0
 43 41  1  0  0  0  0
M  END
>  <minimizedAffinity>
-6.09993172

$$$$

 OpenBabel03252503333D

 44 46  0  0  1  0  0  0  0  0999 V2000
   40.2830   30.8920   39.7210 C   0  0  0  0  0  0  0  0  0  0  0  0
   40.5930   32.1330   40.3700 C   0  0  0  0  0  0  0  0  0  0  0  0
   40.7900   33.2340   39.5090 C   0  0  0  0  0  0  0  0  0  0  0  0
   40.6740   33.0410   38.1850 N   0  0  0  0  0  0  0  0  0  0  0  0
   40.3780   31.8410   37.6270 C   0  0  0  0  0  0  0  0  0  0  0  0
   40.1820   30.7640   38.4120 N   0  0  0  0  0  0  0  0  0  0  0  0
   38.8110   29.7540   41.1510 C   0  0  0  0  0  0  0  0  0  0  0  0
   38.0650   30.7800   40.9950 O   0  0  0  0  0  0  0  0  0  0  0  0
   40.0680   29.7190   40.5170 N   0  0  0  0  0  0  0  0  0  0  0  0
   38.3070   28.7080   41.9650 N   0  0  0  0  0  0  0  0  0  0  0  0
   37.1540   28.9630   42.8510 C   0  0  0  0  0  0  0  0  0  0  0  0
   37.4240   28.0390   43.9970 C   0  0  0  0  0  0  0  0  0  0  0  0
   38.6460   27.2550   43.6210 C   0  0  0  0  0  0  0  0  0  0  0  0
   38.6900   27.3350   42.1150 C   0  0  1  0  0  0  0  0  0  0  0  0
   40.6610   32.1730   41.4470 H   0  0  0  0  0  0  0  0  0  0  0  0
   40.2980   31.7470   36.5470 H   0  0  0  0  0  0  0  0  0  0  0  0
   40.6590   28.9020   40.6860 H   0  0  0  0  0  0  0  0  0  0  0  0
   36.2280   28.6440   42.3180 H   0  0  0  0  0  0  0  0  0  0  0  0
   37.0920   30.0170   43.1540 H   0  0  0  0  0  0  0  0  0  0  0  0
   37.5890   28.6630   44.9090 H   0  0  0  0  0  0  0  0  0  0  0  0
   36.5440   27.4030   44.2330 H   0  0  0  0  0  0  0  0  0  0  0  0
   38.9350   26.4160   44.1660 H   0  0  0  0  0  0  0  0  0  0  0  0
   39.4790   28.0010   43.8800 H   0  0  0  0  0  0  0  0  0  0  0  0
   39.6930   27.0750   41.8060 H   0  0  0  0  0  0  0  0  0  0  0  0
   37.8990   26.0170   40.0560 C   0  0  0  0  0  0  0  0  0  0  0  0
   39.0760   26.2220   39.6670 O   0  0  0  0  0  0  0  0  0  0  0  0
   37.7400   26.4810   41.4220 N   0  0  0  0  0  0  0  0  0  0  0  0
   36.8520   26.1470   41.9110 H   0  0  0  0  0  0  0  0  0  0  0  0
   35.9540   25.9900   38.4090 C   0  0  0  0  0  0  0  0  0  0  0  0
   36.8900   25.4110   39.2360 C   0  0  0  0  0  0  0  0  0  0  0  0
   36.9000   24.0170   39.3290 C   0  0  0  0  0  0  0  0  0  0  0  0
   37.5900   23.4320   39.9500 H   0  0  0  0  0  0  0  0  0  0  0  0
   36.0030   23.2190   38.6200 C   0  0  0  0  0  0  0  0  0  0  0  0
   36.0000   22.1420   38.6840 H   0  0  0  0  0  0  0  0  0  0  0  0
   35.1060   23.8870   37.8200 C   0  0  0  0  0  3  0  0  0  0  0  0
   35.0470   25.2560   37.6860 C   0  0  0  0  0  3  0  0  0  0  0  0
   37.2600   28.1770   37.9820 H   0  0  0  0  0  0  0  0  0  0  0  0
   36.0030   27.7240   38.3430 S   0  0  0  0  0  0  0  0  0  0  0  0
   35.0550   28.3020   37.3380 O   0  0  0  0  0  0  0  0  0  0  0  0
   35.6140   28.2740   39.6830 O   0  0  0  0  0  0  0  0  0  0  0  0
   41.1030   34.4850   40.1910 C   0  0  0  0  0  0  0  0  0  0  0  0
   39.9600   34.9380   40.8460 F   0  0  0  0  0  0  0  0  0  0  0  0
   41.3540   35.4360   39.1930 F   0  0  0  0  0  0  0  0  0  0  0  0
   42.1210   34.3880   41.0980 F   0  0  0  0  0  0  0  0  0  0  0  0
  1  2  1  0  0  0  0
  1  9  1  0  0  0  0
  2 15  1  0  0  0  0
  3 41  1  0  0  0  0
  3  2  2  0  0  0  0
  4  3  1  0  0  0  0
  5  4  2  0  0  0  0
  5  6  1  0  0  0  0
  6  1  2  0  0  0  0
  7 10  1  0  0  0  0
  8  7  2  0  0  0  0
  9 17  1  0  0  0  0
  9  7  1  0  0  0  0
 10 14  1  0  0  0  0
 10 11  1  0  0  0  0
 11 19  1  0  0  0  0
 11 12  1  0  0  0  0
 12 21  1  0  0  0  0
 12 20  1  0  0  0  0
 13 23  1  0  0  0  0
 13 12  1  0  0  0  0
 13 22  1  0  0  0  0
 14 24  1  6  0  0  0
 14 13  1  0  0  0  0
 16  5  1  0  0  0  0
 18 11  1  0  0  0  0
 25 27  1  0  0  0  0
 26 25  2  0  0  0  0
 27 28  1  0  0  0  0
 27 14  1  0  0  0  0
 29 30  1  0  0  0  0
 30 31  2  0  0  0  0
 30 25  1  0  0  0  0
 31 32  1  0  0  0  0
 33 34  1  0  0  0  0
 33 31  1  0  0  0  0
 35 33  2  0  0  0  0
 36 35  1  0  0  0  0
 36 29  2  0  0  0  0
 37 38  1  0  0  0  0
 38 29  1  0  0  0  0
 38 40  2  0  0  0  0
 39 38  2  0  0  0  0
 41 42  1  0  0  0  0
 41 44  1  0  0  0  0
 43 41  1  0  0  0  0
M  END
>  <minimizedAffinity>
-5.95747995

$$$$

 OpenBabel03252503333D

 44 46  0  0  1  0  0  0  0  0999 V2000
   39.3410   31.4840   40.8810 C   0  0  0  0  0  0  0  0  0  0  0  0
   39.3110   32.8520   40.4500 C   0  0  0  0  0  0  0  0  0  0  0  0
   40.5380   33.5440   40.5480 C   0  0  0  0  0  0  0  0  0  0  0  0
   41.6080   32.8870   41.0230 N   0  0  0  0  0  0  0  0  0  0  0  0
   41.5760   31.5900   41.4170 C   0  0  0  0  0  0  0  0  0  0  0  0
   40.4260   30.8910   41.3410 N   0  0  0  0  0  0  0  0  0  0  0  0
   37.8420   30.3270   39.4950 C   0  0  0  0  0  0  0  0  0  0  0  0
   38.6000   30.7320   38.5500 O   0  0  0  0  0  0  0  0  0  0  0  0
   38.1400   30.7030   40.8190 N   0  0  0  0  0  0  0  0  0  0  0  0
   36.7400   29.5120   39.1340 N   0  0  0  0  0  0  0  0  0  0  0  0
   36.3100   29.4480   37.7230 C   0  0  0  0  0  0  0  0  0  0  0  0
   34.8350   29.2230   37.8500 C   0  0  0  0  0  0  0  0  0  0  0  0
   34.5630   29.0670   39.3170 C   0  0  0  0  0  0  0  0  0  0  0  0
   35.8900   28.6470   39.8980 C   0  0  1  0  0  0  0  0  0  0  0  0
   38.3900   33.2790   40.0820 H   0  0  0  0  0  0  0  0  0  0  0  0
   42.4760   31.1120   41.7940 H   0  0  0  0  0  0  0  0  0  0  0  0
   37.4980   30.3940   41.5530 H   0  0  0  0  0  0  0  0  0  0  0  0
   36.7890   28.5570   37.2530 H   0  0  0  0  0  0  0  0  0  0  0  0
   36.5590   30.3660   37.1740 H   0  0  0  0  0  0  0  0  0  0  0  0
   34.3150   30.1120   37.4180 H   0  0  0  0  0  0  0  0  0  0  0  0
   34.4940   28.3580   37.2410 H   0  0  0  0  0  0  0  0  0  0  0  0
   33.6430   28.7180   39.6580 H   0  0  0  0  0  0  0  0  0  0  0  0
   34.5380   30.1630   39.6570 H   0  0  0  0  0  0  0  0  0  0  0  0
   35.8480   28.8280   40.9640 H   0  0  0  0  0  0  0  0  0  0  0  0
   37.0380   26.4520   40.5820 C   0  0  0  0  0  0  0  0  0  0  0  0
   37.1050   27.0170   41.7010 O   0  0  0  0  0  0  0  0  0  0  0  0
   36.2580   27.2610   39.6630 N   0  0  0  0  0  0  0  0  0  0  0  0
   35.9570   26.7630   38.7680 H   0  0  0  0  0  0  0  0  0  0  0  0
   38.8870   24.9120   39.7420 C   0  0  0  0  0  0  0  0  0  0  0  0
   37.6580   25.1900   40.2950 C   0  0  0  0  0  0  0  0  0  0  0  0
   36.8450   24.1100   40.6490 C   0  0  0  0  0  0  0  0  0  0  0  0
   35.8470   24.1930   41.0960 H   0  0  0  0  0  0  0  0  0  0  0  0
   37.2440   22.7880   40.4580 C   0  0  0  0  0  0  0  0  0  0  0  0
   36.6250   21.9450   40.7270 H   0  0  0  0  0  0  0  0  0  0  0  0
   38.4870   22.6090   39.9000 C   0  0  0  0  0  3  0  0  0  0  0  0
   39.3330   23.6310   39.5310 C   0  0  0  0  0  3  0  0  0  0  0  0
   41.0060   25.9360   38.6780 H   0  0  0  0  0  0  0  0  0  0  0  0
   39.8400   26.3030   39.3290 S   0  0  0  0  0  0  0  0  0  0  0  0
   39.1350   27.2460   38.4050 O   0  0  0  0  0  0  0  0  0  0  0  0
   40.1580   27.0650   40.5800 O   0  0  0  0  0  0  0  0  0  0  0  0
   40.4850   34.9320   40.1020 C   0  0  0  0  0  0  0  0  0  0  0  0
   41.0690   35.0220   38.8410 F   0  0  0  0  0  0  0  0  0  0  0  0
   41.3290   35.6600   40.9510 F   0  0  0  0  0  0  0  0  0  0  0  0
   39.2210   35.4500   40.0400 F   0  0  0  0  0  0  0  0  0  0  0  0
  1  6  1  0  0  0  0
  2  3  1  0  0  0  0
  2  1  2  0  0  0  0
  3  4  2  0  0  0  0
  4  5  1  0  0  0  0
  5 16  1  0  0  0  0
  6  5  2  0  0  0  0
  7  9  1  0  0  0  0
  8  7  2  0  0  0  0
  9  1  1  0  0  0  0
  9 17  1  0  0  0  0
 10  7  1  0  0  0  0
 10 14  1  0  0  0  0
 11 12  1  0  0  0  0
 11 10  1  0  0  0  0
 12 13  1  0  0  0  0
 13 23  1  0  0  0  0
 13 22  1  0  0  0  0
 13 14  1  0  0  0  0
 14 24  1  1  0  0  0
 15  2  1  0  0  0  0
 18 11  1  0  0  0  0
 19 11  1  0  0  0  0
 20 12  1  0  0  0  0
 21 12  1  0  0  0  0
 25 26  2  0  0  0  0
 27 14  1  0  0  0  0
 27 25  1  0  0  0  0
 28 27  1  0  0  0  0
 29 30  1  0  0  0  0
 30 25  1  0  0  0  0
 30 31  2  0  0  0  0
 31 32  1  0  0  0  0
 33 31  1  0  0  0  0
 33 34  1  0  0  0  0
 35 33  2  0  0  0  0
 36 29  2  0  0  0  0
 36 35  1  0  0  0  0
 37 38  1  0  0  0  0
 38 29  1  0  0  0  0
 38 40  2  0  0  0  0
 39 38  2  0  0  0  0
 41  3  1  0  0  0  0
 41 43  1  0  0  0  0
 42 41  1  0  0  0  0
 44 41  1  0  0  0  0
M  END
>  <minimizedAffinity>
-5.93167114

$$$$

 OpenBabel03252503333D

 44 46  0  0  1  0  0  0  0  0999 V2000
   40.4440   30.9980   39.7600 C   0  0  0  0  0  0  0  0  0  0  0  0
   40.4340   32.3380   40.2730 C   0  0  0  0  0  0  0  0  0  0  0  0
   40.6130   33.3550   39.3110 C   0  0  0  0  0  0  0  0  0  0  0  0
   40.7740   33.0010   38.0260 N   0  0  0  0  0  0  0  0  0  0  0  0
   40.7750   31.7150   37.5980 C   0  0  0  0  0  0  0  0  0  0  0  0
   40.6070   30.7110   38.4830 N   0  0  0  0  0  0  0  0  0  0  0  0
   38.9280   29.7810   41.0750 C   0  0  0  0  0  0  0  0  0  0  0  0
   38.0750   30.6360   40.6580 O   0  0  0  0  0  0  0  0  0  0  0  0
   40.2700   29.8990   40.6650 N   0  0  0  0  0  0  0  0  0  0  0  0
   38.4510   28.7580   41.9320 N   0  0  0  0  0  0  0  0  0  0  0  0
   37.1300   28.9010   42.5740 C   0  0  0  0  0  0  0  0  0  0  0  0
   37.3240   28.1690   43.8660 C   0  0  0  0  0  0  0  0  0  0  0  0
   38.7000   27.5770   43.8070 C   0  0  0  0  0  0  0  0  0  0  0  0
   39.0070   27.4990   42.3310 C   0  0  1  0  0  0  0  0  0  0  0  0
   40.2950   32.5070   41.3310 H   0  0  0  0  0  0  0  0  0  0  0  0
   40.9100   31.4900   36.5440 H   0  0  0  0  0  0  0  0  0  0  0  0
   40.9400   29.2230   41.0400 H   0  0  0  0  0  0  0  0  0  0  0  0
   36.3780   28.3670   41.9470 H   0  0  0  0  0  0  0  0  0  0  0  0
   36.8500   29.9540   42.7150 H   0  0  0  0  0  0  0  0  0  0  0  0
   37.2200   28.9090   44.6980 H   0  0  0  0  0  0  0  0  0  0  0  0
   36.5240   27.4180   44.0410 H   0  0  0  0  0  0  0  0  0  0  0  0
   39.0110   26.8670   44.5020 H   0  0  0  0  0  0  0  0  0  0  0  0
   39.3460   28.4820   44.0930 H   0  0  0  0  0  0  0  0  0  0  0  0
   40.0780   27.3880   42.2290 H   0  0  0  0  0  0  0  0  0  0  0  0
   39.0130   25.2250   41.1360 C   0  0  0  0  0  0  0  0  0  0  0  0
   40.1520   25.1300   41.6550 O   0  0  0  0  0  0  0  0  0  0  0  0
   38.3450   26.4200   41.6180 N   0  0  0  0  0  0  0  0  0  0  0  0
   37.2990   26.4650   41.4130 H   0  0  0  0  0  0  0  0  0  0  0  0
   38.2220   24.3940   38.8600 C   0  0  0  0  0  0  0  0  0  0  0  0
   38.4870   24.2680   40.2040 C   0  0  0  0  0  0  0  0  0  0  0  0
   38.2180   23.0360   40.8070 C   0  0  0  0  0  0  0  0  0  0  0  0
   38.3820   22.8040   41.8660 H   0  0  0  0  0  0  0  0  0  0  0  0
   37.6980   21.9590   40.0910 C   0  0  0  0  0  0  0  0  0  0  0  0
   37.4850   21.0030   40.5450 H   0  0  0  0  0  0  0  0  0  0  0  0
   37.4660   22.1790   38.7540 C   0  0  0  0  0  3  0  0  0  0  0  0
   37.7110   23.3680   38.1050 C   0  0  0  0  0  3  0  0  0  0  0  0
   39.8380   26.3880   38.5690 H   0  0  0  0  0  0  0  0  0  0  0  0
   38.5820   25.9510   38.1810 S   0  0  0  0  0  0  0  0  0  0  0  0
   38.5930   25.9530   36.6840 O   0  0  0  0  0  0  0  0  0  0  0  0
   37.5320   26.9280   38.6170 O   0  0  0  0  0  0  0  0  0  0  0  0
   40.5980   34.7090   39.8550 C   0  0  0  0  0  0  0  0  0  0  0  0
   41.3590   34.7340   41.0210 F   0  0  0  0  0  0  0  0  0  0  0  0
   39.2830   34.9620   40.2690 F   0  0  0  0  0  0  0  0  0  0  0  0
   41.0750   35.6610   38.9970 F   0  0  0  0  0  0  0  0  0  0  0  0
  1  2  1  0  0  0  0
  1  9  1  0  0  0  0
  2 15  1  0  0  0  0
  3 41  1  0  0  0  0
  3  2  2  0  0  0  0
  4  3  1  0  0  0  0
  5  4  2  0  0  0  0
  5  6  1  0  0  0  0
  6  1  2  0  0  0  0
  7 10  1  0  0  0  0
  8  7  2  0  0  0  0
  9 17  1  0  0  0  0
  9  7  1  0  0  0  0
 10 14  1  0  0  0  0
 10 11  1  0  0  0  0
 11 19  1  0  0  0  0
 11 12  1  0  0  0  0
 12 21  1  0  0  0  0
 12 20  1  0  0  0  0
 13 12  1  0  0  0  0
 13 23  1  0  0  0  0
 13 22  1  0  0  0  0
 14 24  1  6  0  0  0
 14 13  1  0  0  0  0
 16  5  1  0  0  0  0
 18 11  1  0  0  0  0
 25 27  1  0  0  0  0
 25 26  2  0  0  0  0
 27 14  1  0  0  0  0
 28 27  1  0  0  0  0
 29 30  1  0  0  0  0
 30 31  2  0  0  0  0
 30 25  1  0  0  0  0
 31 32  1  0  0  0  0
 33 34  1  0  0  0  0
 33 31  1  0  0  0  0
 35 33  2  0  0  0  0
 36 35  1  0  0  0  0
 36 29  2  0  0  0  0
 38 37  1  0  0  0  0
 38 40  2  0  0  0  0
 38 29  1  0  0  0  0
 39 38  2  0  0  0  0
 41 43  1  0  0  0  0
 41 42  1  0  0  0  0
 44 41  1  0  0  0  0
M  END
>  <minimizedAffinity>
-5.90356684

$$$$

 OpenBabel03252503333D

 44 46  0  0  1  0  0  0  0  0999 V2000
   38.7940   30.0630   39.4140 C   0  0  0  0  0  0  0  0  0  0  0  0
   39.0200   31.3410   40.0240 C   0  0  0  0  0  0  0  0  0  0  0  0
   38.3710   32.4310   39.4040 C   0  0  0  0  0  0  0  0  0  0  0  0
   37.6130   32.1930   38.3220 N   0  0  0  0  0  0  0  0  0  0  0  0
   37.4360   30.9590   37.7880 C   0  0  0  0  0  0  0  0  0  0  0  0
   38.0370   29.8910   38.3490 N   0  0  0  0  0  0  0  0  0  0  0  0
   38.7720   28.4970   41.1630 C   0  0  0  0  0  0  0  0  0  0  0  0
   37.7960   29.1930   41.6050 O   0  0  0  0  0  0  0  0  0  0  0  0
   39.4160   28.8980   39.9770 N   0  0  0  0  0  0  0  0  0  0  0  0
   39.1390   27.3510   41.9120 N   0  0  0  0  0  0  0  0  0  0  0  0
   38.6480   27.1950   43.2960 C   0  0  0  0  0  0  0  0  0  0  0  0
   39.7650   26.4390   43.9450 C   0  0  0  0  0  0  0  0  0  0  0  0
   40.7480   26.1300   42.8560 C   0  0  0  0  0  0  0  0  0  0  0  0
   39.9320   26.2020   41.5880 C   0  0  1  0  0  0  0  0  0  0  0  0
   39.6520   31.4160   40.8980 H   0  0  0  0  0  0  0  0  0  0  0  0
   36.8090   30.8290   36.9100 H   0  0  0  0  0  0  0  0  0  0  0  0
   40.2150   28.3440   39.6620 H   0  0  0  0  0  0  0  0  0  0  0  0
   37.7290   26.5640   43.2710 H   0  0  0  0  0  0  0  0  0  0  0  0
   38.4500   28.1640   43.7750 H   0  0  0  0  0  0  0  0  0  0  0  0
   40.2070   27.0930   44.7370 H   0  0  0  0  0  0  0  0  0  0  0  0
   39.3980   25.5370   44.4810 H   0  0  0  0  0  0  0  0  0  0  0  0
   41.5240   25.4530   43.0080 H   0  0  0  0  0  0  0  0  0  0  0  0
   41.3170   27.1240   42.7780 H   0  0  0  0  0  0  0  0  0  0  0  0
   40.6240   26.3080   40.7630 H   0  0  0  0  0  0  0  0  0  0  0  0
   39.1050   24.2460   40.1420 C   0  0  0  0  0  0  0  0  0  0  0  0
   40.1500   24.4910   39.4900 O   0  0  0  0  0  0  0  0  0  0  0  0
   39.0680   25.0600   41.3440 N   0  0  0  0  0  0  0  0  0  0  0  0
   38.3420   24.7620   42.0670 H   0  0  0  0  0  0  0  0  0  0  0  0
   36.9230   23.4860   39.0670 C   0  0  0  0  0  0  0  0  0  0  0  0
   38.1170   23.2940   39.7240 C   0  0  0  0  0  0  0  0  0  0  0  0
   38.4690   21.9840   40.0610 C   0  0  0  0  0  0  0  0  0  0  0  0
   39.3890   21.6940   40.5840 H   0  0  0  0  0  0  0  0  0  0  0  0
   37.6550   20.8950   39.7540 C   0  0  0  0  0  0  0  0  0  0  0  0
   37.9160   19.8790   40.0100 H   0  0  0  0  0  0  0  0  0  0  0  0
   36.4830   21.1850   39.0980 C   0  0  0  0  0  3  0  0  0  0  0  0
   36.0820   22.4520   38.7380 C   0  0  0  0  0  3  0  0  0  0  0  0
   37.5320   25.6940   37.8740 H   0  0  0  0  0  0  0  0  0  0  0  0
   36.5540   25.1370   38.6800 S   0  0  0  0  0  0  0  0  0  0  0  0
   35.2680   25.2930   37.9290 O   0  0  0  0  0  0  0  0  0  0  0  0
   36.4190   25.9180   39.9520 O   0  0  0  0  0  0  0  0  0  0  0  0
   38.6130   33.7200   40.0420 C   0  0  0  0  0  0  0  0  0  0  0  0
   37.5780   34.5890   39.7070 F   0  0  0  0  0  0  0  0  0  0  0  0
   39.7560   34.2600   39.4370 F   0  0  0  0  0  0  0  0  0  0  0  0
   38.7130   33.6590   41.4040 F   0  0  0  0  0  0  0  0  0  0  0  0
  1  9  1  0  0  0  0
  1  2  1  0  0  0  0
  2 15  1  0  0  0  0
  3  2  2  0  0  0  0
  3 41  1  0  0  0  0
  4  3  1  0  0  0  0
  5  4  2  0  0  0  0
  5  6  1  0  0  0  0
  6  1  2  0  0  0  0
  7  8  2  0  0  0  0
  7 10  1  0  0  0  0
  9  7  1  0  0  0  0
 10 11  1  0  0  0  0
 11 19  1  0  0  0  0
 11 12  1  0  0  0  0
 12 21  1  0  0  0  0
 12 20  1  0  0  0  0
 13 22  1  0  0  0  0
 13 12  1  0  0  0  0
 14 24  1  6  0  0  0
 14 10  1  0  0  0  0
 14 13  1  0  0  0  0
 16  5  1  0  0  0  0
 17  9  1  0  0  0  0
 18 11  1  0  0  0  0
 23 13  1  0  0  0  0
 25 27  1  0  0  0  0
 26 25  2  0  0  0  0
 27 14  1  0  0  0  0
 27 28  1  0  0  0  0
 29 30  1  0  0  0  0
 30 31  2  0  0  0  0
 30 25  1  0  0  0  0
 31 32  1  0  0  0  0
 33 34  1  0  0  0  0
 33 31  1  0  0  0  0
 35 33  2  0  0  0  0
 36 29  2  0  0  0  0
 36 35  1  0  0  0  0
 37 38  1  0  0  0  0
 38 29  1  0  0  0  0
 38 40  2  0  0  0  0
 39 38  2  0  0  0  0
 41 44  1  0  0  0  0
 42 41  1  0  0  0  0
 43 41  1  0  0  0  0
M  END
>  <minimizedAffinity>
-5.90082836

$$$$
