
 OpenBabel03252507593D

 32 34  0  0  1  0  0  0  0  0999 V2000
   46.7400   34.6050   43.2040 C   0  0  0  0  0  0  0  0  0  0  0  0
   45.6580   35.5270   43.3370 C   0  0  0  0  0  0  0  0  0  0  0  0
   44.8370   35.3380   44.4370 C   0  0  0  0  0  0  0  0  0  0  0  0
   45.1060   34.3180   45.2900 N   0  0  0  0  0  0  0  0  0  0  0  0
   46.1540   33.4680   45.1100 C   0  0  0  0  0  0  0  0  0  0  0  0
   46.9720   33.5920   44.0870 N   0  0  0  0  0  0  0  0  0  0  0  0
   45.5380   36.3050   42.5940 H   0  0  0  0  0  0  0  0  0  0  0  0
   44.0090   36.0120   44.5770 H   0  0  0  0  0  0  0  0  0  0  0  0
   46.3600   32.3860   46.1020 C   0  0  1  0  0  0  0  0  0  0  0  0
   47.0050   32.7060   47.4300 C   0  0  0  0  0  0  0  0  0  0  0  0
   45.5200   32.4860   47.3140 C   0  0  1  0  0  0  0  0  0  0  0  0
   46.6100   31.4220   45.6310 H   0  0  0  0  0  0  0  0  0  0  0  0
   47.5540   31.8990   47.9350 H   0  0  0  0  0  0  0  0  0  0  0  0
   47.4130   33.7130   47.5180 H   0  0  0  0  0  0  0  0  0  0  0  0
   45.0780   31.5630   47.7090 H   0  0  0  0  0  0  0  0  0  0  0  0
   44.7590   33.6890   47.5700 N   0  0  0  0  0  0  0  0  0  0  0  0
   43.8230   33.7350   47.2010 H   0  0  0  0  0  0  0  0  0  0  0  0
   45.2950   34.5410   47.7250 H   0  0  0  0  0  0  0  0  0  0  0  0
   47.6060   34.8170   42.0620 C   0  0  0  0  0  0  0  0  0  0  0  0
   48.4100   35.8140   41.9800 O   0  0  0  0  0  0  0  0  0  0  0  0
   48.2700   32.6750   40.9130 C   0  0  0  0  0  0  0  0  0  0  0  0
   47.4510   33.7770   41.0460 C   0  0  0  0  0  0  0  0  0  0  0  0
   46.4030   33.8670   40.1200 C   0  0  0  0  0  0  0  0  0  0  0  0
   45.7480   34.7320   40.2120 H   0  0  0  0  0  0  0  0  0  0  0  0
   46.1750   32.9370   39.1260 C   0  0  0  0  0  0  0  0  0  0  0  0
   45.3460   33.0750   38.4480 H   0  0  0  0  0  0  0  0  0  0  0  0
   47.0170   31.8490   39.0270 C   0  0  0  0  0  3  0  0  0  0  0  0
   48.0570   31.7350   39.9260 C   0  0  0  0  0  3  0  0  0  0  0  0
   49.6820   33.6000   42.8200 H   0  0  0  0  0  0  0  0  0  0  0  0
   49.5920   32.4980   42.0300 S   0  0  0  0  0  0  0  0  0  0  0  0
   50.8570   32.3370   41.1980 O   0  0  0  0  0  0  0  0  0  0  0  0
   49.4350   31.2890   42.9020 O   0  0  0  0  0  0  0  0  0  0  0  0
  1  2  2  0  0  0  0
  1  6  1  0  0  0  0
  2  3  1  0  0  0  0
  3  8  1  0  0  0  0
  3  4  2  0  0  0  0
  5  4  1  0  0  0  0
  5  9  1  0  0  0  0
  6  5  2  0  0  0  0
  7  2  1  0  0  0  0
  9 12  1  6  0  0  0
  9 11  1  0  0  0  0
  9 10  1  0  0  0  0
 10 14  1  0  0  0  0
 10 13  1  0  0  0  0
 11 10  1  0  0  0  0
 11 16  1  0  0  0  0
 11 15  1  1  0  0  0
 16 18  1  0  0  0  0
 17 16  1  0  0  0  0
 19  1  1  0  0  0  0
 20 19  2  0  0  0  0
 21 22  1  0  0  0  0
 21 30  1  0  0  0  0
 22 19  1  0  0  0  0
 23 24  1  0  0  0  0
 23 22  2  0  0  0  0
 25 23  1  0  0  0  0
 26 25  1  0  0  0  0
 27 25  2  0  0  0  0
 27 28  1  0  0  0  0
 28 21  2  0  0  0  0
 30 29  1  0  0  0  0
 30 32  2  0  0  0  0
 31 30  2  0  0  0  0
M  END
>  <minimizedAffinity>
-5.4329114

>  <minimizedRMSD>
1.93162453

$$$$
