
 OpenBabel03242519043D

 35 37  0  0  1  0  0  0  0  0999 V2000
   38.4940   31.8130   40.3100 N   0  0  0  0  0  0  0  0  0  0  0  0
   38.6240   31.1290   41.5810 C   0  0  0  0  0  0  0  0  0  0  0  0
   37.5310   30.0940   41.3740 C   0  0  2  0  0  0  0  0  0  0  0  0
   36.3920   30.9720   40.9740 C   0  0  0  0  0  0  0  0  0  0  0  0
   37.0600   32.0200   40.1020 C   0  0  0  0  0  0  0  0  0  0  0  0
   38.3380   31.7930   42.4140 H   0  0  0  0  0  0  0  0  0  0  0  0
   39.6210   30.7040   41.6970 H   0  0  0  0  0  0  0  0  0  0  0  0
   37.8310   29.3790   40.5960 H   0  0  0  0  0  0  0  0  0  0  0  0
   35.6950   30.4100   40.2960 H   0  0  0  0  0  0  0  0  0  0  0  0
   35.8690   31.3870   41.8490 H   0  0  0  0  0  0  0  0  0  0  0  0
   36.7860   31.9270   39.0340 H   0  0  0  0  0  0  0  0  0  0  0  0
   36.8290   33.0190   40.5350 H   0  0  0  0  0  0  0  0  0  0  0  0
   40.7130   32.1210   37.3410 C   0  0  0  0  0  0  0  0  0  0  0  0
   39.7340   31.6140   38.1750 C   0  0  0  0  0  0  0  0  0  0  0  0
   39.4630   32.2390   39.3870 C   0  0  0  0  0  0  0  0  0  0  0  0
   40.2020   33.3510   39.6920 N   0  0  0  0  0  0  0  0  0  0  0  0
   41.1550   33.8460   38.8820 C   0  0  0  0  0  0  0  0  0  0  0  0
   41.4100   33.2210   37.6960 N   0  0  0  0  0  0  0  0  0  0  0  0
   40.8560   31.5710   36.4180 H   0  0  0  0  0  0  0  0  0  0  0  0
   39.1060   30.7460   38.0140 H   0  0  0  0  0  0  0  0  0  0  0  0
   41.7220   34.7270   39.1540 H   0  0  0  0  0  0  0  0  0  0  0  0
   37.1820   29.4820   42.6320 N   0  0  0  0  0  0  0  0  0  0  0  0
   37.9110   29.7290   43.3440 H   0  0  0  0  0  0  0  0  0  0  0  0
   37.1420   27.7710   42.5560 S   0  0  0  0  0  0  0  0  0  0  0  0
   36.6080   27.2650   41.2540 O   0  0  0  0  0  0  0  0  0  0  0  0
   36.1570   27.3060   43.6030 O   0  0  0  0  0  0  0  0  0  0  0  0
   38.6790   27.0290   42.9450 C   0  0  0  0  0  0  0  0  0  0  0  0
   39.7710   27.7590   43.3650 C   0  0  0  0  0  0  0  0  0  0  0  0
   39.6810   28.8530   43.4640 H   0  0  0  0  0  0  0  0  0  0  0  0
   40.9980   27.1930   43.6770 C   0  0  0  0  0  0  0  0  0  0  0  0
   41.8280   27.8040   44.0030 H   0  0  0  0  0  0  0  0  0  0  0  0
   41.0970   25.8210   43.5500 C   0  0  0  0  0  0  0  0  0  0  0  0
   42.0700   25.3690   43.7970 H   0  0  0  0  0  0  0  0  0  0  0  0
   40.0560   25.0070   43.1360 C   0  0  0  0  0  3  0  0  0  0  0  0
   38.8790   25.6670   42.8490 C   0  0  0  0  0  3  0  0  0  0  0  0
  1  2  1  0  0  0  0
  2  7  1  0  0  0  0
  2  6  1  0  0  0  0
  3  8  1  6  0  0  0
  3  2  1  0  0  0  0
  3 22  1  0  0  0  0
  4  3  1  0  0  0  0
  4 10  1  0  0  0  0
  5  1  1  0  0  0  0
  5 12  1  0  0  0  0
  5  4  1  0  0  0  0
  9  4  1  0  0  0  0
 11  5  1  0  0  0  0
 13 18  2  0  0  0  0
 13 14  1  0  0  0  0
 14 15  2  0  0  0  0
 15 16  1  0  0  0  0
 15  1  1  0  0  0  0
 17 21  1  0  0  0  0
 17 16  2  0  0  0  0
 18 17  1  0  0  0  0
 19 13  1  0  0  0  0
 20 14  1  0  0  0  0
 22 23  1  0  0  0  0
 24 22  1  0  0  0  0
 24 27  1  0  0  0  0
 24 26  2  0  0  0  0
 25 24  2  0  0  0  0
 27 28  1  0  0  0  0
 28 29  1  0  0  0  0
 28 30  2  0  0  0  0
 30 31  1  0  0  0  0
 32 30  1  0  0  0  0
 32 33  1  0  0  0  0
 34 32  2  0  0  0  0
 35 27  2  0  0  0  0
 35 34  1  0  0  0  0
M  END
>  <minimizedAffinity>
-5.64435053

$$$$

 OpenBabel03242519043D

 35 37  0  0  1  0  0  0  0  0999 V2000
   39.7510   33.6790   40.2880 N   0  0  0  0  0  0  0  0  0  0  0  0
   38.9930   32.6950   41.0340 C   0  0  0  0  0  0  0  0  0  0  0  0
   37.8460   32.5260   40.0520 C   0  0  2  0  0  0  0  0  0  0  0  0
   37.4500   33.9500   39.8430 C   0  0  0  0  0  0  0  0  0  0  0  0
   38.7830   34.6750   39.8250 C   0  0  0  0  0  0  0  0  0  0  0  0
   38.6040   33.1280   41.9710 H   0  0  0  0  0  0  0  0  0  0  0  0
   39.5780   31.7880   41.1940 H   0  0  0  0  0  0  0  0  0  0  0  0
   38.2000   32.0290   39.1400 H   0  0  0  0  0  0  0  0  0  0  0  0
   37.0170   34.0800   38.8150 H   0  0  0  0  0  0  0  0  0  0  0  0
   36.7610   34.3020   40.6280 H   0  0  0  0  0  0  0  0  0  0  0  0
   39.0460   35.0630   38.8230 H   0  0  0  0  0  0  0  0  0  0  0  0
   38.7530   35.4610   40.6120 H   0  0  0  0  0  0  0  0  0  0  0  0
   43.0270   34.1840   38.6020 C   0  0  0  0  0  0  0  0  0  0  0  0
   41.6560   34.1320   38.7720 C   0  0  0  0  0  0  0  0  0  0  0  0
   41.1240   33.7670   40.0020 C   0  0  0  0  0  0  0  0  0  0  0  0
   42.0120   33.4710   41.0020 N   0  0  0  0  0  0  0  0  0  0  0  0
   43.3460   33.5210   40.8380 C   0  0  0  0  0  0  0  0  0  0  0  0
   43.8540   33.8810   39.6240 N   0  0  0  0  0  0  0  0  0  0  0  0
   43.3540   34.4780   37.6100 H   0  0  0  0  0  0  0  0  0  0  0  0
   40.8860   34.3480   38.0410 H   0  0  0  0  0  0  0  0  0  0  0  0
   44.0200   33.2810   41.6500 H   0  0  0  0  0  0  0  0  0  0  0  0
   36.7380   31.8600   40.6920 N   0  0  0  0  0  0  0  0  0  0  0  0
   36.8690   31.9070   41.7320 H   0  0  0  0  0  0  0  0  0  0  0  0
   36.6360   30.1970   40.2940 S   0  0  0  0  0  0  0  0  0  0  0  0
   37.3260   29.8700   39.0080 O   0  0  0  0  0  0  0  0  0  0  0  0
   35.1760   29.8880   40.0580 O   0  0  0  0  0  0  0  0  0  0  0  0
   37.1720   29.1460   41.5880 C   0  0  0  0  0  0  0  0  0  0  0  0
   36.3870   28.1300   42.0910 C   0  0  0  0  0  0  0  0  0  0  0  0
   35.3830   27.9660   41.6700 H   0  0  0  0  0  0  0  0  0  0  0  0
   36.7910   27.2860   43.1160 C   0  0  0  0  0  0  0  0  0  0  0  0
   36.1430   26.5020   43.4810 H   0  0  0  0  0  0  0  0  0  0  0  0
   38.0530   27.5020   43.6360 C   0  0  0  0  0  0  0  0  0  0  0  0
   38.3750   26.8330   44.4480 H   0  0  0  0  0  0  0  0  0  0  0  0
   38.9100   28.4960   43.1940 C   0  0  0  0  0  3  0  0  0  0  0  0
   38.4140   29.2810   42.1730 C   0  0  0  0  0  3  0  0  0  0  0  0
  1  2  1  0  0  0  0
  2  7  1  0  0  0  0
  2  6  1  0  0  0  0
  3  8  1  6  0  0  0
  3 22  1  0  0  0  0
  3  2  1  0  0  0  0
  4  3  1  0  0  0  0
  4 10  1  0  0  0  0
  5  4  1  0  0  0  0
  5  1  1  0  0  0  0
  5 12  1  0  0  0  0
  9  4  1  0  0  0  0
 11  5  1  0  0  0  0
 13 14  2  0  0  0  0
 13 18  1  0  0  0  0
 14 15  1  0  0  0  0
 15  1  1  0  0  0  0
 15 16  2  0  0  0  0
 17 16  1  0  0  0  0
 17 21  1  0  0  0  0
 18 17  2  0  0  0  0
 19 13  1  0  0  0  0
 20 14  1  0  0  0  0
 22 23  1  0  0  0  0
 24 22  1  0  0  0  0
 24 27  1  0  0  0  0
 25 24  2  0  0  0  0
 26 24  2  0  0  0  0
 27 28  2  0  0  0  0
 27 35  1  0  0  0  0
 28 30  1  0  0  0  0
 29 28  1  0  0  0  0
 30 31  1  0  0  0  0
 30 32  2  0  0  0  0
 32 33  1  0  0  0  0
 34 32  1  0  0  0  0
 35 34  2  0  0  0  0
M  END
>  <minimizedAffinity>
-5.60169458

$$$$

 OpenBabel03242519043D

 35 37  0  0  1  0  0  0  0  0999 V2000
   37.7140   31.3230   39.9670 N   0  0  0  0  0  0  0  0  0  0  0  0
   36.8520   30.9060   41.0550 C   0  0  0  0  0  0  0  0  0  0  0  0
   37.1790   29.4230   41.0240 C   0  0  2  0  0  0  0  0  0  0  0  0
   36.9590   29.1220   39.5780 C   0  0  0  0  0  0  0  0  0  0  0  0
   37.5050   30.3590   38.8860 C   0  0  0  0  0  0  0  0  0  0  0  0
   35.7910   31.0470   40.7890 H   0  0  0  0  0  0  0  0  0  0  0  0
   37.1280   31.4020   41.9860 H   0  0  0  0  0  0  0  0  0  0  0  0
   38.2120   29.2570   41.3560 H   0  0  0  0  0  0  0  0  0  0  0  0
   37.6230   28.2750   39.2580 H   0  0  0  0  0  0  0  0  0  0  0  0
   35.8990   28.9200   39.3590 H   0  0  0  0  0  0  0  0  0  0  0  0
   38.4410   30.1600   38.3310 H   0  0  0  0  0  0  0  0  0  0  0  0
   36.6930   30.7800   38.2530 H   0  0  0  0  0  0  0  0  0  0  0  0
   40.6640   33.4640   39.2270 C   0  0  0  0  0  0  0  0  0  0  0  0
   39.8690   32.3350   39.2820 C   0  0  0  0  0  0  0  0  0  0  0  0
   38.6050   32.4040   39.8560 C   0  0  0  0  0  0  0  0  0  0  0  0
   38.2100   33.6200   40.3470 N   0  0  0  0  0  0  0  0  0  0  0  0
   38.9820   34.7200   40.2940 C   0  0  0  0  0  0  0  0  0  0  0  0
   40.2210   34.6360   39.7280 N   0  0  0  0  0  0  0  0  0  0  0  0
   41.6330   33.3180   38.7630 H   0  0  0  0  0  0  0  0  0  0  0  0
   40.1000   31.3400   38.9210 H   0  0  0  0  0  0  0  0  0  0  0  0
   38.6390   35.6660   40.6920 H   0  0  0  0  0  0  0  0  0  0  0  0
   36.1940   28.6810   41.7720 N   0  0  0  0  0  0  0  0  0  0  0  0
   35.5830   29.3580   42.2920 H   0  0  0  0  0  0  0  0  0  0  0  0
   36.8860   27.6510   42.9530 S   0  0  0  0  0  0  0  0  0  0  0  0
   35.9270   27.3030   44.0470 O   0  0  0  0  0  0  0  0  0  0  0  0
   37.9950   28.4290   43.6220 O   0  0  0  0  0  0  0  0  0  0  0  0
   37.6170   26.2150   42.2690 C   0  0  0  0  0  0  0  0  0  0  0  0
   38.9390   26.1690   41.8780 C   0  0  0  0  0  0  0  0  0  0  0  0
   39.5660   27.0670   41.9970 H   0  0  0  0  0  0  0  0  0  0  0  0
   39.5390   25.0430   41.3330 C   0  0  0  0  0  0  0  0  0  0  0  0
   40.5780   25.0520   41.0400 H   0  0  0  0  0  0  0  0  0  0  0  0
   38.7410   23.9240   41.1900 C   0  0  0  0  0  0  0  0  0  0  0  0
   39.2150   23.0300   40.7580 H   0  0  0  0  0  0  0  0  0  0  0  0
   37.4050   23.8770   41.5540 C   0  0  0  0  0  3  0  0  0  0  0  0
   36.9050   25.0480   42.0850 C   0  0  0  0  0  3  0  0  0  0  0  0
  1  2  1  0  0  0  0
  2  7  1  0  0  0  0
  3  2  1  0  0  0  0
  3  8  1  1  0  0  0
  3 22  1  0  0  0  0
  4  3  1  0  0  0  0
  5  4  1  0  0  0  0
  5  1  1  0  0  0  0
  6  2  1  0  0  0  0
  9  4  1  0  0  0  0
 10  4  1  0  0  0  0
 11  5  1  0  0  0  0
 12  5  1  0  0  0  0
 13 14  2  0  0  0  0
 13 18  1  0  0  0  0
 14 15  1  0  0  0  0
 15  1  1  0  0  0  0
 15 16  2  0  0  0  0
 17 16  1  0  0  0  0
 17 21  1  0  0  0  0
 18 17  2  0  0  0  0
 19 13  1  0  0  0  0
 20 14  1  0  0  0  0
 22 23  1  0  0  0  0
 22 24  1  0  0  0  0
 24 26  2  0  0  0  0
 24 25  2  0  0  0  0
 27 24  1  0  0  0  0
 28 29  1  0  0  0  0
 28 27  2  0  0  0  0
 30 28  1  0  0  0  0
 31 30  1  0  0  0  0
 32 30  2  0  0  0  0
 32 34  1  0  0  0  0
 33 32  1  0  0  0  0
 34 35  2  0  0  0  0
 35 27  1  0  0  0  0
M  END
>  <minimizedAffinity>
-5.52250576

$$$$

 OpenBabel03242519043D

 35 37  0  0  1  0  0  0  0  0999 V2000
   37.1720   30.6290   41.1970 N   0  0  0  0  0  0  0  0  0  0  0  0
   37.3280   29.5960   42.2010 C   0  0  0  0  0  0  0  0  0  0  0  0
   36.8980   28.4120   41.3510 C   0  0  2  0  0  0  0  0  0  0  0  0
   35.5980   28.9140   40.8160 C   0  0  0  0  0  0  0  0  0  0  0  0
   35.8820   30.3820   40.5520 C   0  0  0  0  0  0  0  0  0  0  0  0
   36.6020   29.7330   43.0200 H   0  0  0  0  0  0  0  0  0  0  0  0
   38.3600   29.5410   42.5500 H   0  0  0  0  0  0  0  0  0  0  0  0
   37.6480   28.2140   40.5730 H   0  0  0  0  0  0  0  0  0  0  0  0
   35.3950   28.4560   39.8110 H   0  0  0  0  0  0  0  0  0  0  0  0
   34.7710   28.7400   41.5230 H   0  0  0  0  0  0  0  0  0  0  0  0
   35.9140   30.6230   39.4730 H   0  0  0  0  0  0  0  0  0  0  0  0
   35.1360   30.9800   41.1200 H   0  0  0  0  0  0  0  0  0  0  0  0
   40.1160   32.8290   40.6240 C   0  0  0  0  0  0  0  0  0  0  0  0
   39.3870   31.7260   41.0260 C   0  0  0  0  0  0  0  0  0  0  0  0
   38.0110   31.6950   40.8290 C   0  0  0  0  0  0  0  0  0  0  0  0
   37.4420   32.7890   40.2340 N   0  0  0  0  0  0  0  0  0  0  0  0
   38.1500   33.8640   39.8430 C   0  0  0  0  0  0  0  0  0  0  0  0
   39.5000   33.8800   40.0420 N   0  0  0  0  0  0  0  0  0  0  0  0
   41.1810   32.7680   40.8170 H   0  0  0  0  0  0  0  0  0  0  0  0
   39.7520   30.8230   41.5020 H   0  0  0  0  0  0  0  0  0  0  0  0
   37.6690   34.7130   39.3750 H   0  0  0  0  0  0  0  0  0  0  0  0
   36.6090   27.2760   42.1910 N   0  0  0  0  0  0  0  0  0  0  0  0
   36.8780   27.5070   43.1780 H   0  0  0  0  0  0  0  0  0  0  0  0
   37.5050   25.8810   41.7620 S   0  0  0  0  0  0  0  0  0  0  0  0
   37.5290   25.6440   40.2860 O   0  0  0  0  0  0  0  0  0  0  0  0
   36.7790   24.6920   42.3490 O   0  0  0  0  0  0  0  0  0  0  0  0
   39.1210   25.8670   42.4350 C   0  0  0  0  0  0  0  0  0  0  0  0
   40.1120   25.0280   41.9700 C   0  0  0  0  0  0  0  0  0  0  0  0
   39.8860   24.3350   41.1430 H   0  0  0  0  0  0  0  0  0  0  0  0
   41.3990   25.0000   42.4880 C   0  0  0  0  0  0  0  0  0  0  0  0
   42.1440   24.3240   42.0930 H   0  0  0  0  0  0  0  0  0  0  0  0
   41.6690   25.8730   43.5230 C   0  0  0  0  0  0  0  0  0  0  0  0
   42.6890   25.8520   43.9360 H   0  0  0  0  0  0  0  0  0  0  0  0
   40.7390   26.7510   44.0550 C   0  0  0  0  0  3  0  0  0  0  0  0
   39.4900   26.7010   43.4700 C   0  0  0  0  0  3  0  0  0  0  0  0
  1  2  1  0  0  0  0
  2  7  1  0  0  0  0
  2  6  1  0  0  0  0
  3  8  1  6  0  0  0
  3 22  1  0  0  0  0
  3  2  1  0  0  0  0
  4  3  1  0  0  0  0
  4 10  1  0  0  0  0
  5  4  1  0  0  0  0
  5 12  1  0  0  0  0
  5  1  1  0  0  0  0
  9  4  1  0  0  0  0
 11  5  1  0  0  0  0
 13 19  1  0  0  0  0
 13 14  1  0  0  0  0
 14 20  1  0  0  0  0
 15 14  2  0  0  0  0
 15  1  1  0  0  0  0
 16 15  1  0  0  0  0
 17 18  1  0  0  0  0
 17 16  2  0  0  0  0
 18 13  2  0  0  0  0
 21 17  1  0  0  0  0
 22 23  1  0  0  0  0
 24 22  1  0  0  0  0
 24 26  2  0  0  0  0
 24 27  1  0  0  0  0
 25 24  2  0  0  0  0
 27 35  1  0  0  0  0
 28 27  2  0  0  0  0
 28 30  1  0  0  0  0
 29 28  1  0  0  0  0
 30 32  2  0  0  0  0
 31 30  1  0  0  0  0
 32 33  1  0  0  0  0
 32 34  1  0  0  0  0
 35 34  2  0  0  0  0
M  END
>  <minimizedAffinity>
-5.37273693

$$$$

 OpenBabel03242519043D

 35 37  0  0  1  0  0  0  0  0999 V2000
   36.9570   29.8800   38.9040 N   0  0  0  0  0  0  0  0  0  0  0  0
   37.4050   29.2120   40.1100 C   0  0  0  0  0  0  0  0  0  0  0  0
   36.4140   29.8390   41.0770 C   0  0  2  0  0  0  0  0  0  0  0  0
   36.6030   31.2860   40.7650 C   0  0  0  0  0  0  0  0  0  0  0  0
   36.7840   31.2890   39.2570 C   0  0  0  0  0  0  0  0  0  0  0  0
   38.4250   29.5360   40.3790 H   0  0  0  0  0  0  0  0  0  0  0  0
   37.3120   28.1300   40.0170 H   0  0  0  0  0  0  0  0  0  0  0  0
   35.4010   29.4710   40.8690 H   0  0  0  0  0  0  0  0  0  0  0  0
   35.6490   31.8470   40.9590 H   0  0  0  0  0  0  0  0  0  0  0  0
   37.4530   31.7160   41.3160 H   0  0  0  0  0  0  0  0  0  0  0  0
   35.9250   31.7400   38.7240 H   0  0  0  0  0  0  0  0  0  0  0  0
   37.7550   31.7830   39.0330 H   0  0  0  0  0  0  0  0  0  0  0  0
   37.3240   28.5340   35.4560 C   0  0  0  0  0  0  0  0  0  0  0  0
   37.6860   29.0080   36.7040 C   0  0  0  0  0  0  0  0  0  0  0  0
   36.7060   29.3850   37.6130 C   0  0  0  0  0  0  0  0  0  0  0  0
   35.4030   29.2640   37.2100 N   0  0  0  0  0  0  0  0  0  0  0  0
   35.0480   28.8030   35.9970 C   0  0  0  0  0  0  0  0  0  0  0  0
   36.0220   28.4360   35.1150 N   0  0  0  0  0  0  0  0  0  0  0  0
   38.1530   28.2640   34.8120 H   0  0  0  0  0  0  0  0  0  0  0  0
   38.6850   29.1370   37.1030 H   0  0  0  0  0  0  0  0  0  0  0  0
   34.0080   28.7190   35.7100 H   0  0  0  0  0  0  0  0  0  0  0  0
   36.8480   29.6310   42.4360 N   0  0  0  0  0  0  0  0  0  0  0  0
   37.7340   30.1690   42.5960 H   0  0  0  0  0  0  0  0  0  0  0  0
   37.2100   27.9930   42.7810 S   0  0  0  0  0  0  0  0  0  0  0  0
   36.6920   27.0570   41.7360 O   0  0  0  0  0  0  0  0  0  0  0  0
   36.4690   27.6340   44.0470 O   0  0  0  0  0  0  0  0  0  0  0  0
   38.9100   27.7160   43.0950 C   0  0  0  0  0  0  0  0  0  0  0  0
   39.8930   28.5960   42.6940 C   0  0  0  0  0  0  0  0  0  0  0  0
   39.6060   29.5130   42.1540 H   0  0  0  0  0  0  0  0  0  0  0  0
   41.2450   28.3960   42.9320 C   0  0  0  0  0  0  0  0  0  0  0  0
   41.9820   29.1130   42.5990 H   0  0  0  0  0  0  0  0  0  0  0  0
   41.5910   27.2440   43.6110 C   0  0  0  0  0  0  0  0  0  0  0  0
   42.6630   27.0830   43.8010 H   0  0  0  0  0  0  0  0  0  0  0  0
   40.6740   26.3030   44.0520 C   0  0  0  0  0  3  0  0  0  0  0  0
   39.3570   26.5950   43.7650 C   0  0  0  0  0  3  0  0  0  0  0  0
  1  5  1  0  0  0  0
  1  2  1  0  0  0  0
  2  6  1  0  0  0  0
  2  3  1  0  0  0  0
  3  8  1  6  0  0  0
  3 22  1  0  0  0  0
  4  9  1  0  0  0  0
  4  3  1  0  0  0  0
  4 10  1  0  0  0  0
  5  4  1  0  0  0  0
  7  2  1  0  0  0  0
 11  5  1  0  0  0  0
 12  5  1  0  0  0  0
 13 14  1  0  0  0  0
 14 20  1  0  0  0  0
 14 15  2  0  0  0  0
 15  1  1  0  0  0  0
 16 15  1  0  0  0  0
 17 16  2  0  0  0  0
 18 13  2  0  0  0  0
 18 17  1  0  0  0  0
 19 13  1  0  0  0  0
 21 17  1  0  0  0  0
 22 23  1  0  0  0  0
 22 24  1  0  0  0  0
 24 27  1  0  0  0  0
 24 26  2  0  0  0  0
 25 24  2  0  0  0  0
 27 35  1  0  0  0  0
 28 30  1  0  0  0  0
 28 27  2  0  0  0  0
 29 28  1  0  0  0  0
 30 32  2  0  0  0  0
 31 30  1  0  0  0  0
 32 33  1  0  0  0  0
 32 34  1  0  0  0  0
 35 34  2  0  0  0  0
M  END
>  <minimizedAffinity>
-5.32257175

$$$$

 OpenBabel03242519043D

 35 37  0  0  1  0  0  0  0  0999 V2000
   39.8190   31.4860   38.1110 N   0  0  0  0  0  0  0  0  0  0  0  0
   38.3750   31.3940   38.0260 C   0  0  0  0  0  0  0  0  0  0  0  0
   38.1760   30.2890   39.0500 C   0  0  2  0  0  0  0  0  0  0  0  0
   39.1420   29.2690   38.5470 C   0  0  0  0  0  0  0  0  0  0  0  0
   40.3190   30.1110   38.0880 C   0  0  0  0  0  0  0  0  0  0  0  0
   38.0650   31.0250   37.0340 H   0  0  0  0  0  0  0  0  0  0  0  0
   37.9050   32.3400   38.2960 H   0  0  0  0  0  0  0  0  0  0  0  0
   38.4110   30.6610   40.0560 H   0  0  0  0  0  0  0  0  0  0  0  0
   39.5240   28.6490   39.4020 H   0  0  0  0  0  0  0  0  0  0  0  0
   38.7020   28.6470   37.7520 H   0  0  0  0  0  0  0  0  0  0  0  0
   41.2090   29.9910   38.7350 H   0  0  0  0  0  0  0  0  0  0  0  0
   40.5110   29.8720   37.0190 H   0  0  0  0  0  0  0  0  0  0  0  0
   41.4690   34.6510   39.1580 C   0  0  0  0  0  0  0  0  0  0  0  0
   40.5760   33.5960   39.1660 C   0  0  0  0  0  0  0  0  0  0  0  0
   40.6700   32.6000   38.2000 C   0  0  0  0  0  0  0  0  0  0  0  0
   41.6690   32.7260   37.2720 N   0  0  0  0  0  0  0  0  0  0  0  0
   42.5390   33.7520   37.2630 C   0  0  0  0  0  0  0  0  0  0  0  0
   42.4340   34.7220   38.2180 N   0  0  0  0  0  0  0  0  0  0  0  0
   41.3210   35.3800   39.9470 H   0  0  0  0  0  0  0  0  0  0  0  0
   39.7600   33.4180   39.8570 H   0  0  0  0  0  0  0  0  0  0  0  0
   43.3180   33.8210   36.5150 H   0  0  0  0  0  0  0  0  0  0  0  0
   36.8530   29.7280   38.9250 N   0  0  0  0  0  0  0  0  0  0  0  0
   36.2700   30.3660   38.3300 H   0  0  0  0  0  0  0  0  0  0  0  0
   36.0390   29.5900   40.4260 S   0  0  0  0  0  0  0  0  0  0  0  0
   34.6030   29.2050   40.2680 O   0  0  0  0  0  0  0  0  0  0  0  0
   36.0220   30.9670   41.0470 O   0  0  0  0  0  0  0  0  0  0  0  0
   36.8590   28.5360   41.5580 C   0  0  0  0  0  0  0  0  0  0  0  0
   37.4250   28.9990   42.7270 C   0  0  0  0  0  0  0  0  0  0  0  0
   37.3630   30.0730   42.9670 H   0  0  0  0  0  0  0  0  0  0  0  0
   38.0790   28.1820   43.6380 C   0  0  0  0  0  0  0  0  0  0  0  0
   38.5090   28.5880   44.5430 H   0  0  0  0  0  0  0  0  0  0  0  0
   38.1490   26.8380   43.3260 C   0  0  0  0  0  0  0  0  0  0  0  0
   38.6680   26.1890   44.0480 H   0  0  0  0  0  0  0  0  0  0  0  0
   37.6110   26.2840   42.1770 C   0  0  0  0  0  3  0  0  0  0  0  0
   36.9820   27.1800   41.3370 C   0  0  0  0  0  3  0  0  0  0  0  0
  1 15  1  0  0  0  0
  2  1  1  0  0  0  0
  2  7  1  0  0  0  0
  2  3  1  0  0  0  0
  3  8  1  1  0  0  0
  4  3  1  0  0  0  0
  4  9  1  0  0  0  0
  5  1  1  0  0  0  0
  5  4  1  0  0  0  0
  5 11  1  0  0  0  0
  6  2  1  0  0  0  0
 10  4  1  0  0  0  0
 12  5  1  0  0  0  0
 13 14  1  0  0  0  0
 13 19  1  0  0  0  0
 14 20  1  0  0  0  0
 15 14  2  0  0  0  0
 16 15  1  0  0  0  0
 17 16  2  0  0  0  0
 17 18  1  0  0  0  0
 18 13  2  0  0  0  0
 21 17  1  0  0  0  0
 22  3  1  0  0  0  0
 22 24  1  0  0  0  0
 23 22  1  0  0  0  0
 24 26  2  0  0  0  0
 24 27  1  0  0  0  0
 25 24  2  0  0  0  0
 27 28  1  0  0  0  0
 28 29  1  0  0  0  0
 28 30  2  0  0  0  0
 30 31  1  0  0  0  0
 32 30  1  0  0  0  0
 32 33  1  0  0  0  0
 34 32  2  0  0  0  0
 35 27  2  0  0  0  0
 35 34  1  0  0  0  0
M  END
>  <minimizedAffinity>
-5.21375179

$$$$

 OpenBabel03242519043D

 35 37  0  0  1  0  0  0  0  0999 V2000
   37.5840   30.1310   41.6800 N   0  0  0  0  0  0  0  0  0  0  0  0
   38.2850   29.3700   42.6940 C   0  0  0  0  0  0  0  0  0  0  0  0
   38.1510   27.9980   42.0560 C   0  0  2  0  0  0  0  0  0  0  0  0
   36.6820   27.9550   41.7990 C   0  0  0  0  0  0  0  0  0  0  0  0
   36.3690   29.3770   41.3680 C   0  0  0  0  0  0  0  0  0  0  0  0
   37.7270   29.3810   43.6460 H   0  0  0  0  0  0  0  0  0  0  0  0
   39.3150   29.7130   42.8000 H   0  0  0  0  0  0  0  0  0  0  0  0
   38.7600   27.9460   41.1430 H   0  0  0  0  0  0  0  0  0  0  0  0
   36.4680   27.3110   40.9040 H   0  0  0  0  0  0  0  0  0  0  0  0
   36.1210   27.6250   42.6880 H   0  0  0  0  0  0  0  0  0  0  0  0
   36.1080   29.4510   40.2960 H   0  0  0  0  0  0  0  0  0  0  0  0
   35.5810   29.7720   42.0470 H   0  0  0  0  0  0  0  0  0  0  0  0
   37.4850   33.2230   39.6150 C   0  0  0  0  0  0  0  0  0  0  0  0
   37.0670   32.0320   40.1780 C   0  0  0  0  0  0  0  0  0  0  0  0
   37.9030   31.3470   41.0510 C   0  0  0  0  0  0  0  0  0  0  0  0
   39.1270   31.9060   41.3090 N   0  0  0  0  0  0  0  0  0  0  0  0
   39.5350   33.0640   40.7620 C   0  0  0  0  0  0  0  0  0  0  0  0
   38.7030   33.7260   39.9060 N   0  0  0  0  0  0  0  0  0  0  0  0
   36.7690   33.6890   38.9460 H   0  0  0  0  0  0  0  0  0  0  0  0
   36.1230   31.5210   40.0310 H   0  0  0  0  0  0  0  0  0  0  0  0
   40.5090   33.4790   40.9870 H   0  0  0  0  0  0  0  0  0  0  0  0
   38.4500   26.9690   43.0220 N   0  0  0  0  0  0  0  0  0  0  0  0
   39.1590   27.3380   43.7020 H   0  0  0  0  0  0  0  0  0  0  0  0
   39.1420   25.5700   42.3180 S   0  0  0  0  0  0  0  0  0  0  0  0
   39.5510   24.5550   43.3370 O   0  0  0  0  0  0  0  0  0  0  0  0
   40.4230   26.0020   41.6430 O   0  0  0  0  0  0  0  0  0  0  0  0
   38.1340   24.8540   41.0770 C   0  0  0  0  0  0  0  0  0  0  0  0
   36.9130   24.2760   41.3550 C   0  0  0  0  0  0  0  0  0  0  0  0
   36.5490   24.2590   42.3940 H   0  0  0  0  0  0  0  0  0  0  0  0
   36.0990   23.7040   40.3880 C   0  0  0  0  0  0  0  0  0  0  0  0
   35.1490   23.2610   40.6510 H   0  0  0  0  0  0  0  0  0  0  0  0
   36.5660   23.7320   39.0880 C   0  0  0  0  0  0  0  0  0  0  0  0
   35.9210   23.2780   38.3200 H   0  0  0  0  0  0  0  0  0  0  0  0
   37.7780   24.2900   38.7160 C   0  0  0  0  0  3  0  0  0  0  0  0
   38.5120   24.8330   39.7510 C   0  0  0  0  0  3  0  0  0  0  0  0
  1  2  1  0  0  0  0
  2  7  1  0  0  0  0
  2  6  1  0  0  0  0
  3  8  1  6  0  0  0
  3  2  1  0  0  0  0
  3 22  1  0  0  0  0
  4  3  1  0  0  0  0
  4 10  1  0  0  0  0
  5  1  1  0  0  0  0
  5  4  1  0  0  0  0
  5 12  1  0  0  0  0
  9  4  1  0  0  0  0
 11  5  1  0  0  0  0
 13 18  2  0  0  0  0
 13 14  1  0  0  0  0
 14 15  2  0  0  0  0
 15 16  1  0  0  0  0
 15  1  1  0  0  0  0
 17 21  1  0  0  0  0
 17 16  2  0  0  0  0
 18 17  1  0  0  0  0
 19 13  1  0  0  0  0
 20 14  1  0  0  0  0
 22 23  1  0  0  0  0
 24 22  1  0  0  0  0
 24 25  2  0  0  0  0
 26 24  2  0  0  0  0
 27 28  1  0  0  0  0
 27 24  1  0  0  0  0
 28 29  1  0  0  0  0
 30 31  1  0  0  0  0
 30 28  2  0  0  0  0
 32 30  1  0  0  0  0
 33 32  1  0  0  0  0
 34 32  2  0  0  0  0
 34 35  1  0  0  0  0
 35 27  2  0  0  0  0
M  END
>  <minimizedAffinity>
-5.04745722

$$$$

 OpenBabel03242519043D

 35 37  0  0  1  0  0  0  0  0999 V2000
   39.9760   29.3600   42.7870 N   0  0  0  0  0  0  0  0  0  0  0  0
   39.9470   30.8080   42.7900 C   0  0  0  0  0  0  0  0  0  0  0  0
   41.0240   31.0410   41.7430 C   0  0  2  0  0  0  0  0  0  0  0  0
   42.1260   30.1930   42.2870 C   0  0  0  0  0  0  0  0  0  0  0  0
   41.3890   28.9780   42.8210 C   0  0  0  0  0  0  0  0  0  0  0  0
   40.2960   31.2040   43.7590 H   0  0  0  0  0  0  0  0  0  0  0  0
   38.9630   31.1820   42.5060 H   0  0  0  0  0  0  0  0  0  0  0  0
   40.6660   30.7180   40.7570 H   0  0  0  0  0  0  0  0  0  0  0  0
   42.7690   29.8160   41.4480 H   0  0  0  0  0  0  0  0  0  0  0  0
   42.7140   30.7280   43.0490 H   0  0  0  0  0  0  0  0  0  0  0  0
   41.5780   28.0660   42.2240 H   0  0  0  0  0  0  0  0  0  0  0  0
   41.6500   28.8680   43.8970 H   0  0  0  0  0  0  0  0  0  0  0  0
   36.7420   27.5860   43.2670 C   0  0  0  0  0  0  0  0  0  0  0  0
   37.6930   28.5850   43.3570 C   0  0  0  0  0  0  0  0  0  0  0  0
   38.9360   28.4150   42.7590 C   0  0  0  0  0  0  0  0  0  0  0  0
   39.1530   27.2350   42.0980 N   0  0  0  0  0  0  0  0  0  0  0  0
   38.2290   26.2620   42.0090 C   0  0  0  0  0  0  0  0  0  0  0  0
   37.0130   26.4430   42.6010 N   0  0  0  0  0  0  0  0  0  0  0  0
   35.8020   27.8030   43.7620 H   0  0  0  0  0  0  0  0  0  0  0  0
   37.6080   29.5420   43.8560 H   0  0  0  0  0  0  0  0  0  0  0  0
   38.4330   25.3410   41.4790 H   0  0  0  0  0  0  0  0  0  0  0  0
   41.4720   32.4110   41.7880 N   0  0  0  0  0  0  0  0  0  0  0  0
   40.9350   32.9200   42.5300 H   0  0  0  0  0  0  0  0  0  0  0  0
   41.1910   33.2550   40.3240 S   0  0  0  0  0  0  0  0  0  0  0  0
   42.3320   33.1390   39.3640 O   0  0  0  0  0  0  0  0  0  0  0  0
   41.1040   34.7230   40.6710 O   0  0  0  0  0  0  0  0  0  0  0  0
   39.6740   32.8260   39.5630 C   0  0  0  0  0  0  0  0  0  0  0  0
   39.6050   32.0060   38.4560 C   0  0  0  0  0  0  0  0  0  0  0  0
   40.5350   31.6020   38.0270 H   0  0  0  0  0  0  0  0  0  0  0  0
   38.4140   31.6530   37.8360 C   0  0  0  0  0  0  0  0  0  0  0  0
   38.4070   31.0080   36.9700 H   0  0  0  0  0  0  0  0  0  0  0  0
   37.2550   32.1670   38.3850 C   0  0  0  0  0  0  0  0  0  0  0  0
   36.3100   31.8880   37.8950 H   0  0  0  0  0  0  0  0  0  0  0  0
   37.2270   32.9960   39.4940 C   0  0  0  0  0  3  0  0  0  0  0  0
   38.4630   33.2870   40.0350 C   0  0  0  0  0  3  0  0  0  0  0  0
  1  2  1  0  0  0  0
  1  5  1  0  0  0  0
  2  6  1  0  0  0  0
  3  8  1  6  0  0  0
  3 22  1  0  0  0  0
  3  4  1  0  0  0  0
  3  2  1  0  0  0  0
  4  5  1  0  0  0  0
  4 10  1  0  0  0  0
  5 12  1  0  0  0  0
  7  2  1  0  0  0  0
  9  4  1  0  0  0  0
 11  5  1  0  0  0  0
 13 14  1  0  0  0  0
 13 19  1  0  0  0  0
 14 20  1  0  0  0  0
 15  1  1  0  0  0  0
 15 14  2  0  0  0  0
 16 15  1  0  0  0  0
 17 16  2  0  0  0  0
 17 18  1  0  0  0  0
 18 13  2  0  0  0  0
 21 17  1  0  0  0  0
 22 23  1  0  0  0  0
 24 26  2  0  0  0  0
 24 22  1  0  0  0  0
 25 24  2  0  0  0  0
 27 35  1  0  0  0  0
 27 24  1  0  0  0  0
 28 27  2  0  0  0  0
 29 28  1  0  0  0  0
 30 32  2  0  0  0  0
 30 28  1  0  0  0  0
 31 30  1  0  0  0  0
 32 34  1  0  0  0  0
 33 32  1  0  0  0  0
 34 35  2  0  0  0  0
M  END
>  <minimizedAffinity>
-5.04613352

$$$$

 OpenBabel03242519043D

 35 37  0  0  1  0  0  0  0  0999 V2000
   39.5510   28.0890   42.8650 N   0  0  0  0  0  0  0  0  0  0  0  0
   38.9610   29.4110   42.9270 C   0  0  0  0  0  0  0  0  0  0  0  0
   39.9520   30.1250   42.0220 C   0  0  2  0  0  0  0  0  0  0  0  0
   41.2420   29.7200   42.6530 C   0  0  0  0  0  0  0  0  0  0  0  0
   40.9920   28.2750   43.0450 C   0  0  0  0  0  0  0  0  0  0  0  0
   39.0390   29.8270   43.9460 H   0  0  0  0  0  0  0  0  0  0  0  0
   37.9390   29.4020   42.5470 H   0  0  0  0  0  0  0  0  0  0  0  0
   39.8380   29.7750   40.9880 H   0  0  0  0  0  0  0  0  0  0  0  0
   42.0540   29.6900   41.8780 H   0  0  0  0  0  0  0  0  0  0  0  0
   41.5050   30.3730   43.5000 H   0  0  0  0  0  0  0  0  0  0  0  0
   41.5740   27.5590   42.4360 H   0  0  0  0  0  0  0  0  0  0  0  0
   41.1780   28.1830   44.1380 H   0  0  0  0  0  0  0  0  0  0  0  0
   37.1840   25.3170   42.1290 C   0  0  0  0  0  0  0  0  0  0  0  0
   37.6530   26.6080   42.2830 C   0  0  0  0  0  0  0  0  0  0  0  0
   38.9680   26.8240   42.6760 C   0  0  0  0  0  0  0  0  0  0  0  0
   39.7440   25.7170   42.8930 N   0  0  0  0  0  0  0  0  0  0  0  0
   39.2890   24.4600   42.7430 C   0  0  0  0  0  0  0  0  0  0  0  0
   37.9950   24.2630   42.3570 N   0  0  0  0  0  0  0  0  0  0  0  0
   36.1460   25.2420   41.8200 H   0  0  0  0  0  0  0  0  0  0  0  0
   37.1130   27.5350   42.1340 H   0  0  0  0  0  0  0  0  0  0  0  0
   39.9290   23.6060   42.9230 H   0  0  0  0  0  0  0  0  0  0  0  0
   39.8250   31.5530   42.1770 N   0  0  0  0  0  0  0  0  0  0  0  0
   39.0680   31.7530   42.8750 H   0  0  0  0  0  0  0  0  0  0  0  0
   39.3670   32.3460   40.7290 S   0  0  0  0  0  0  0  0  0  0  0  0
   40.5390   32.6930   39.8680 O   0  0  0  0  0  0  0  0  0  0  0  0
   38.7520   33.6680   41.1250 O   0  0  0  0  0  0  0  0  0  0  0  0
   38.1490   31.4730   39.8230 C   0  0  0  0  0  0  0  0  0  0  0  0
   36.9380   31.1060   40.3710 C   0  0  0  0  0  0  0  0  0  0  0  0
   36.7190   31.3680   41.4180 H   0  0  0  0  0  0  0  0  0  0  0  0
   35.9590   30.4150   39.6720 C   0  0  0  0  0  0  0  0  0  0  0  0
   35.0230   30.1470   40.1410 H   0  0  0  0  0  0  0  0  0  0  0  0
   36.2450   30.0930   38.3590 C   0  0  0  0  0  0  0  0  0  0  0  0
   35.4700   29.5450   37.8030 H   0  0  0  0  0  0  0  0  0  0  0  0
   37.4330   30.4200   37.7260 C   0  0  0  0  0  3  0  0  0  0  0  0
   38.3400   31.1070   38.5070 C   0  0  0  0  0  3  0  0  0  0  0  0
  1  2  1  0  0  0  0
  1  5  1  0  0  0  0
  2  6  1  0  0  0  0
  3  8  1  6  0  0  0
  3 22  1  0  0  0  0
  3  4  1  0  0  0  0
  3  2  1  0  0  0  0
  4  5  1  0  0  0  0
  4 10  1  0  0  0  0
  5 12  1  0  0  0  0
  7  2  1  0  0  0  0
  9  4  1  0  0  0  0
 11  5  1  0  0  0  0
 13 14  2  0  0  0  0
 13 18  1  0  0  0  0
 14 15  1  0  0  0  0
 15  1  1  0  0  0  0
 15 16  2  0  0  0  0
 17 16  1  0  0  0  0
 17 21  1  0  0  0  0
 18 17  2  0  0  0  0
 19 13  1  0  0  0  0
 20 14  1  0  0  0  0
 22 23  1  0  0  0  0
 24 26  2  0  0  0  0
 24 22  1  0  0  0  0
 25 24  2  0  0  0  0
 27 28  1  0  0  0  0
 27 24  1  0  0  0  0
 28 29  1  0  0  0  0
 30 31  1  0  0  0  0
 30 28  2  0  0  0  0
 32 30  1  0  0  0  0
 33 32  1  0  0  0  0
 34 32  2  0  0  0  0
 34 35  1  0  0  0  0
 35 27  2  0  0  0  0
M  END
>  <minimizedAffinity>
-5.01839352

$$$$
