
     RDKit          3D

 38 39  0  0  0  0  0  0  0  0999 V2000
   44.7583   34.9377   43.6322 C   0  0  0  0  0  0  0  0  0  0  0  0
   45.6592   35.5106   42.7205 C   0  0  0  0  0  0  0  0  0  0  0  0
   46.9804   35.0847   42.7199 C   0  0  0  0  0  0  0  0  0  0  0  0
   47.3151   34.1285   43.6162 N   0  0  0  0  0  0  0  0  0  0  0  0
   46.4520   33.5929   44.4756 C   0  0  0  0  0  0  0  0  0  0  0  0
   45.1617   33.9937   44.4910 N   0  0  0  0  0  0  0  0  0  0  0  0
   46.8635   32.5582   45.4248 C   0  0  0  0  0  0  0  0  0  0  0  0
   46.7342   32.6859   46.7178 C   0  0  0  0  0  0  0  0  0  0  0  0
   47.1621   31.6187   47.6387 C   0  0  0  0  0  0  0  0  0  0  0  0
   45.3828   30.6566   48.8166 C   0  0  0  0  0  0  0  0  0  0  0  0
   45.2535   31.5072   49.7287 O   0  0  0  0  0  0  0  0  0  0  0  0
   46.2239   30.5250   47.6959 N   0  0  0  0  0  0  0  0  0  0  0  0
   47.9627   35.5620   41.8816 O   0  0  0  0  0  0  0  0  0  0  0  0
   48.1992   34.8113   40.6732 C   0  0  0  0  0  0  0  0  0  0  0  0
   46.9659   34.4054   40.1543 F   0  0  0  0  0  0  0  0  0  0  0  0
   48.8161   35.6883   39.7711 F   0  0  0  0  0  0  0  0  0  0  0  0
   49.0475   33.7250   40.8920 F   0  0  0  0  0  0  0  0  0  0  0  0
   43.7722   35.3622   43.5181 H   0  0  0  0  0  0  0  0  0  0  0  0
   45.4521   36.2739   41.9836 H   0  0  0  0  0  0  0  0  0  0  0  0
   47.3000   31.6404   45.0028 H   0  0  0  0  0  0  0  0  0  0  0  0
   46.2911   33.6304   47.0744 H   0  0  0  0  0  0  0  0  0  0  0  0
   47.5333   31.9721   48.6186 H   0  0  0  0  0  0  0  0  0  0  0  0
   48.0755   31.1704   47.1397 H   0  0  0  0  0  0  0  0  0  0  0  0
   46.1308   29.7396   47.0512 H   0  0  0  0  0  0  0  0  0  0  0  0
   44.7866   30.3653   46.2784 H   0  0  0  0  0  0  0  0  0  0  0  0
   44.0601   29.2376   46.4159 S   0  0  0  0  0  0  0  0  0  0  0  0
   44.8925   28.1191   45.8191 O   0  0  0  0  0  0  0  0  0  0  0  0
   42.7606   29.2943   45.6447 O   0  0  0  0  0  0  0  0  0  0  0  0
   43.7419   28.8498   48.0660 C   0  0  0  0  0  0  0  0  0  0  0  0
   44.3933   29.5599   49.0288 C   0  0  0  0  0  0  0  0  0  0  0  0
   44.1948   29.3118   50.3926 C   0  0  0  0  0  0  0  0  0  0  0  0
   44.6798   29.8373   51.2025 H   0  0  0  0  0  0  0  0  0  0  0  0
   43.2978   28.3012   50.7629 C   0  0  0  0  0  0  0  0  0  0  0  0
   43.1333   28.1012   51.8015 H   0  0  0  0  0  0  0  0  0  0  0  0
   42.6225   27.5635   49.7928 C   0  0  0  0  0  0  0  0  0  0  0  0
   42.8649   27.8607   48.4486 C   0  0  0  0  0  0  0  0  0  0  0  0
   41.9493   26.8047   50.1544 H   0  0  0  0  0  0  0  0  0  0  0  0
   42.3329   27.2800   47.7067 H   0  0  0  0  0  0  0  0  0  0  0  0
  1  6  2  0
  2  1  1  0
  3  2  2  0
  3  4  1  0
  4  5  2  0
  5  6  1  0
  5  7  1  0
  7  8  2  0
  8  9  1  0
  9 12  1  0
 10 11  2  0
 12 10  1  0
 13  3  1  0
 14 17  1  0
 14 13  1  0
 15 14  1  0
 16 14  1  0
  1 18  1  0
  2 19  1  0
  7 20  1  0
  8 21  1  0
  9 22  1  0
  9 23  1  0
 12 24  1  0
 25 26  1  0
 26 27  2  0
 26 28  2  0
 26 29  1  0
 29 30  2  0
 30 31  1  0
 31 32  1  0
 31 33  2  0
 33 34  1  0
 33 35  1  0
 35 36  2  0
 36 29  1  0
 35 37  1  0
 36 38  1  0
 10 30  1  0
M  ISO  7  18  14  19  14  22   8  23   8  25  12  32  15  34  16
M  END
>  <DihAtoms>  (1) 
10,9,29,28

>  <DihDeg>  (1) 
115.39844107411595

$$$$
