
 OpenBabel03242520443D

 25 26  0  0  0  0  0  0  0  0999 V2000
   48.2870   34.8420   42.1360 C   0  0  0  0  0  0  0  0  0  0  0  0
   48.6020   35.9720   41.7080 O   0  0  0  0  0  0  0  0  0  0  0  0
   45.0070   35.0520   43.7770 C   0  0  0  0  0  0  0  0  0  0  0  0
   46.0920   35.2900   42.8920 C   0  0  0  0  0  0  0  0  0  0  0  0
   47.2490   34.5400   43.0740 C   0  0  0  0  0  0  0  0  0  0  0  0
   47.3160   33.6300   44.0560 N   0  0  0  0  0  0  0  0  0  0  0  0
   46.2570   33.4230   44.8910 C   0  0  0  0  0  0  0  0  0  0  0  0
   45.1200   34.1300   44.7470 N   0  0  0  0  0  0  0  0  0  0  0  0
   43.8030   35.7720   43.6540 N   0  0  0  0  0  0  0  0  0  0  0  0
   45.8930   36.0500   42.1530 H   0  0  0  0  0  0  0  0  0  0  0  0
   46.2790   32.7070   45.6830 H   0  0  0  0  0  0  0  0  0  0  0  0
   43.6430   36.7800   43.8750 H   0  0  0  0  0  0  0  0  0  0  0  0
   43.0350   35.1470   43.2920 H   0  0  0  0  0  0  0  0  0  0  0  0
   48.6960   33.0960   40.4390 C   0  0  0  0  0  0  0  0  0  0  0  0
   49.1060   33.7520   41.5790 C   0  0  0  0  0  0  0  0  0  0  0  0
   50.2800   33.3650   42.1650 C   0  0  0  0  0  0  0  0  0  0  0  0
   50.6530   33.8410   43.0590 H   0  0  0  0  0  0  0  0  0  0  0  0
   51.0780   32.3520   41.6790 C   0  0  0  0  0  0  0  0  0  0  0  0
   52.0020   32.0470   42.1400 H   0  0  0  0  0  0  0  0  0  0  0  0
   50.6900   31.6770   40.5380 C   0  0  0  0  0  0  0  0  0  0  0  0
   49.5070   32.0690   39.9470 C   0  0  0  0  0  0  0  0  0  0  0  0
   46.8790   34.8140   39.9380 H   0  0  0  0  0  0  0  0  0  0  0  0
   47.2310   33.5140   39.6300 S   0  0  0  0  0  0  0  0  0  0  0  0
   47.2290   33.2450   38.1640 O   0  0  0  0  0  0  0  0  0  0  0  0
   46.1280   32.6560   40.2090 O   0  0  0  0  0  0  0  0  0  0  0  0
  1  5  1  0  0  0  0
  2  1  2  0  0  0  0
  3  8  1  0  0  0  0
  4  5  1  0  0  0  0
  4  3  2  0  0  0  0
  5  6  2  0  0  0  0
  6  7  1  0  0  0  0
  7 11  1  0  0  0  0
  8  7  2  0  0  0  0
  9  3  1  0  0  0  0
  9 12  1  0  0  0  0
 10  4  1  0  0  0  0
 13  9  1  0  0  0  0
 14 15  1  0  0  0  0
 15  1  1  0  0  0  0
 15 16  2  0  0  0  0
 16 17  1  0  0  0  0
 18 19  1  0  0  0  0
 18 16  1  0  0  0  0
 20 18  2  0  0  0  0
 21 14  2  0  0  0  0
 21 20  1  0  0  0  0
 23 22  1  0  0  0  0
 23 25  2  0  0  0  0
 23 14  1  0  0  0  0
 24 23  2  0  0  0  0
M  END
>  <minimizedAffinity>
-5.05587578

>  <minimizedRMSD>
2.90408134

$$$$
