
     RDKit          3D

 27 28  0  0  0  0  0  0  0  0999 V2000
   44.9109   35.1455   44.0340 C   0  0  0  0  0  0  0  0  0  0  0  0
   45.7580   35.3932   42.9211 C   0  0  0  0  0  0  0  0  0  0  0  0
   46.9460   34.6745   42.8413 C   0  0  0  0  0  0  0  0  0  0  0  0
   47.2613   33.7842   43.7926 N   0  0  0  0  0  0  0  0  0  0  0  0
   46.4281   33.5672   44.8505 C   0  0  0  0  0  0  0  0  0  0  0  0
   45.2692   34.2432   44.9628 N   0  0  0  0  0  0  0  0  0  0  0  0
   43.6918   35.8338   44.1817 N   0  0  0  0  0  0  0  0  0  0  0  0
   47.7327   34.9847   41.6871 C   0  0  0  0  0  0  0  0  0  0  0  0
   48.6690   35.8087   41.6200 O   0  0  0  0  0  0  0  0  0  0  0  0
   45.3743   36.1348   42.2391 H   0  0  0  0  0  0  0  0  0  0  0  0
   46.6499   32.8651   45.6250 H   0  0  0  0  0  0  0  0  0  0  0  0
   43.5590   36.8409   44.4221 H   0  0  0  0  0  0  0  0  0  0  0  0
   42.8791   35.1840   44.0133 H   0  0  0  0  0  0  0  0  0  0  0  0
   48.6086   31.5589   42.0683 H   0  0  0  0  0  0  0  0  0  0  0  0
   47.3174   31.9908   41.8385 S   0  0  0  0  0  0  0  0  0  0  0  0
   46.7015   32.6383   43.0314 O   0  0  0  0  0  0  0  0  0  0  0  0
   46.5153   30.7314   41.5944 O   0  0  0  0  0  0  0  0  0  0  0  0
   47.2619   32.9342   40.3955 C   0  0  0  0  0  0  0  0  0  0  0  0
   47.4624   34.2965   40.4133 C   0  0  0  0  0  0  0  0  0  0  0  0
   47.4033   34.9777   39.2287 C   0  0  0  0  0  0  0  0  0  0  0  0
   47.5520   36.0460   39.1793 H   0  0  0  0  0  0  0  0  0  0  0  0
   47.1535   34.3760   38.0143 C   0  0  0  0  0  0  0  0  0  0  0  0
   47.1070   34.9131   37.0811 H   0  0  0  0  0  0  0  0  0  0  0  0
   46.9488   33.0116   37.9666 C   0  0  0  0  0  0  0  0  0  0  0  0
   47.0086   32.3248   39.1628 C   0  0  0  0  0  0  0  0  0  0  0  0
   46.7495   32.4991   37.0329 H   0  0  0  0  0  0  0  0  0  0  0  0
   46.8535   31.2535   39.1672 H   0  0  0  0  0  0  0  0  0  0  0  0
  1  7  1  0
  1  6  2  0
  2  1  1  0
  3  2  2  0
  3  4  1  0
  4  5  2  0
  5  6  1  0
  8  3  1  0
  9  8  2  0
  2 10  1  0
  5 11  1  0
  7 12  1  0
  7 13  1  0
 14 15  1  0
 15 16  2  0
 15 17  2  0
 15 18  1  0
 18 19  2  0
 19 20  1  0
 20 21  1  0
 20 22  2  0
 22 23  1  0
 22 24  1  0
 24 25  2  0
 25 18  1  0
 24 26  1  0
 25 27  1  0
  8 19  1  0
M  ISO  5  10  14  11  14  14  12  21  15  23  16
M  END
>  <DihAtoms>  (1) 
2,7,18,17

>  <DihDeg>  (1) 
-135.00088339273293

$$$$
