
 OpenBabel03252503363D

 25 26  0  0  0  0  0  0  0  0999 V2000
   39.2510   30.0460   41.2200 C   0  0  0  0  0  0  0  0  0  0  0  0
   39.8000   29.8510   40.0930 O   0  0  0  0  0  0  0  0  0  0  0  0
   39.3710   31.3800   41.6820 N   0  0  0  0  0  0  0  0  0  0  0  0
   38.8490   31.6630   42.5550 H   0  0  0  0  0  0  0  0  0  0  0  0
   40.5400   34.1600   39.4880 C   0  0  0  0  0  0  0  0  0  0  0  0
   39.6540   33.2510   40.0860 C   0  0  0  0  0  0  0  0  0  0  0  0
   40.1680   32.3450   41.0140 C   0  0  0  0  0  0  0  0  0  0  0  0
   41.4950   32.3730   41.3060 N   0  0  0  0  0  0  0  0  0  0  0  0
   42.3310   33.2740   40.7040 C   0  0  0  0  0  0  0  0  0  0  0  0
   41.8420   34.1560   39.8020 N   0  0  0  0  0  0  0  0  0  0  0  0
   40.0650   34.8300   38.7820 H   0  0  0  0  0  0  0  0  0  0  0  0
   38.5870   33.1830   39.8950 H   0  0  0  0  0  0  0  0  0  0  0  0
   43.3700   33.3710   40.8740 H   0  0  0  0  0  0  0  0  0  0  0  0
   37.1750   28.9220   41.7650 C   0  0  0  0  0  0  0  0  0  0  0  0
   38.5450   29.0330   42.0170 C   0  0  0  0  0  0  0  0  0  0  0  0
   39.1970   28.2520   42.9450 C   0  0  0  0  0  0  0  0  0  0  0  0
   40.2630   28.3640   43.1170 H   0  0  0  0  0  0  0  0  0  0  0  0
   38.4410   27.3210   43.6500 C   0  0  0  0  0  0  0  0  0  0  0  0
   38.9070   26.6720   44.3870 H   0  0  0  0  0  0  0  0  0  0  0  0
   37.0750   27.1630   43.4430 C   0  0  0  0  0  3  0  0  0  0  0  0
   36.4560   27.9750   42.4940 C   0  0  0  0  0  3  0  0  0  0  0  0
   37.1700   29.8910   39.4380 H   0  0  0  0  0  0  0  0  0  0  0  0
   36.3800   29.9430   40.5680 S   0  0  0  0  0  0  0  0  0  0  0  0
   36.2970   31.3620   40.9940 O   0  0  0  0  0  0  0  0  0  0  0  0
   35.0370   29.3680   40.1930 O   0  0  0  0  0  0  0  0  0  0  0  0
  1  3  1  0  0  0  0
  1 15  1  0  0  0  0
  2  1  2  0  0  0  0
  3  4  1  0  0  0  0
  5 10  2  0  0  0  0
  5  6  1  0  0  0  0
  6  7  2  0  0  0  0
  7  8  1  0  0  0  0
  7  3  1  0  0  0  0
  9 13  1  0  0  0  0
  9  8  2  0  0  0  0
 10  9  1  0  0  0  0
 11  5  1  0  0  0  0
 12  6  1  0  0  0  0
 14 15  2  0  0  0  0
 14 21  1  0  0  0  0
 15 16  1  0  0  0  0
 16 17  1  0  0  0  0
 16 18  2  0  0  0  0
 18 19  1  0  0  0  0
 20 18  1  0  0  0  0
 21 20  2  0  0  0  0
 22 23  1  0  0  0  0
 23 24  2  0  0  0  0
 23 14  1  0  0  0  0
 25 23  2  0  0  0  0
M  END
>  <minimizedAffinity>
-4.71827078

$$$$

 OpenBabel03252503363D

 25 26  0  0  0  0  0  0  0  0999 V2000
   37.8400   28.4050   40.1100 C   0  0  0  0  0  0  0  0  0  0  0  0
   38.7850   28.7400   39.3320 O   0  0  0  0  0  0  0  0  0  0  0  0
   37.0910   29.5070   40.5920 N   0  0  0  0  0  0  0  0  0  0  0  0
   36.2170   29.3180   41.1540 H   0  0  0  0  0  0  0  0  0  0  0  0
   37.3840   32.9470   39.1840 C   0  0  0  0  0  0  0  0  0  0  0  0
   36.9240   31.6290   39.3310 C   0  0  0  0  0  0  0  0  0  0  0  0
   37.4740   30.8500   40.3490 C   0  0  0  0  0  0  0  0  0  0  0  0
   38.4260   31.3880   41.1570 N   0  0  0  0  0  0  0  0  0  0  0  0
   38.8500   32.6780   40.9860 C   0  0  0  0  0  0  0  0  0  0  0  0
   38.3230   33.4410   40.0010 N   0  0  0  0  0  0  0  0  0  0  0  0
   36.9080   33.4860   38.3740 H   0  0  0  0  0  0  0  0  0  0  0  0
   36.1670   31.1480   38.7180 H   0  0  0  0  0  0  0  0  0  0  0  0
   39.5770   33.1770   41.5690 H   0  0  0  0  0  0  0  0  0  0  0  0
   37.9280   26.6600   41.7880 C   0  0  0  0  0  0  0  0  0  0  0  0
   37.5040   27.0320   40.5090 C   0  0  0  0  0  0  0  0  0  0  0  0
   36.8180   26.1780   39.6750 C   0  0  0  0  0  0  0  0  0  0  0  0
   36.5030   26.4990   38.6860 H   0  0  0  0  0  0  0  0  0  0  0  0
   36.5470   24.8970   40.1440 C   0  0  0  0  0  0  0  0  0  0  0  0
   35.9990   24.1860   39.5300 H   0  0  0  0  0  0  0  0  0  0  0  0
   36.9410   24.4690   41.4060 C   0  0  0  0  0  3  0  0  0  0  0  0
   37.6330   25.3660   42.2180 C   0  0  0  0  0  3  0  0  0  0  0  0
   39.4830   28.6350   41.9740 H   0  0  0  0  0  0  0  0  0  0  0  0
   38.8040   27.7840   42.8240 S   0  0  0  0  0  0  0  0  0  0  0  0
   39.8110   27.1060   43.6780 O   0  0  0  0  0  0  0  0  0  0  0  0
   37.8420   28.6310   43.6170 O   0  0  0  0  0  0  0  0  0  0  0  0
  1 15  1  0  0  0  0
  1  3  1  0  0  0  0
  2  1  2  0  0  0  0
  3  4  1  0  0  0  0
  5  6  2  0  0  0  0
  5 10  1  0  0  0  0
  6  7  1  0  0  0  0
  7  3  1  0  0  0  0
  7  8  2  0  0  0  0
  9  8  1  0  0  0  0
  9 13  1  0  0  0  0
 10  9  2  0  0  0  0
 11  5  1  0  0  0  0
 12  6  1  0  0  0  0
 14 21  1  0  0  0  0
 14 23  1  0  0  0  0
 15 14  2  0  0  0  0
 16 18  2  0  0  0  0
 16 15  1  0  0  0  0
 17 16  1  0  0  0  0
 18 20  1  0  0  0  0
 19 18  1  0  0  0  0
 20 21  2  0  0  0  0
 22 23  1  0  0  0  0
 23 25  2  0  0  0  0
 23 24  2  0  0  0  0
M  END
>  <minimizedAffinity>
-4.58129501

$$$$

 OpenBabel03252503363D

 25 26  0  0  0  0  0  0  0  0999 V2000
   38.3050   28.8620   42.0270 C   0  0  0  0  0  0  0  0  0  0  0  0
   37.3250   29.4750   42.5480 O   0  0  0  0  0  0  0  0  0  0  0  0
   38.9870   29.6230   41.0440 N   0  0  0  0  0  0  0  0  0  0  0  0
   39.8830   29.2380   40.6380 H   0  0  0  0  0  0  0  0  0  0  0  0
   37.1230   32.3040   39.2450 C   0  0  0  0  0  0  0  0  0  0  0  0
   37.5160   31.0090   39.6170 C   0  0  0  0  0  0  0  0  0  0  0  0
   38.5080   30.8770   40.5890 C   0  0  0  0  0  0  0  0  0  0  0  0
   39.0550   31.9950   41.1370 N   0  0  0  0  0  0  0  0  0  0  0  0
   38.6470   33.2420   40.7500 C   0  0  0  0  0  0  0  0  0  0  0  0
   37.6860   33.3810   39.8080 N   0  0  0  0  0  0  0  0  0  0  0  0
   36.3490   32.3230   38.4880 H   0  0  0  0  0  0  0  0  0  0  0  0
   37.1150   30.0830   39.2160 H   0  0  0  0  0  0  0  0  0  0  0  0
   39.0110   34.1610   41.1260 H   0  0  0  0  0  0  0  0  0  0  0  0
   38.2540   26.4920   41.5300 C   0  0  0  0  0  0  0  0  0  0  0  0
   38.7420   27.5010   42.3630 C   0  0  0  0  0  0  0  0  0  0  0  0
   39.5770   27.2460   43.4290 C   0  0  0  0  0  0  0  0  0  0  0  0
   39.9390   28.0530   44.0580 H   0  0  0  0  0  0  0  0  0  0  0  0
   39.9350   25.9230   43.6670 C   0  0  0  0  0  0  0  0  0  0  0  0
   40.5990   25.6670   44.4890 H   0  0  0  0  0  0  0  0  0  0  0  0
   39.4820   24.8760   42.8720 C   0  0  0  0  0  3  0  0  0  0  0  0
   38.6390   25.1790   41.8040 C   0  0  0  0  0  3  0  0  0  0  0  0
   36.3300   27.8460   40.6240 H   0  0  0  0  0  0  0  0  0  0  0  0
   37.1870   26.8610   40.1760 S   0  0  0  0  0  0  0  0  0  0  0  0
   36.3590   25.6980   39.7680 O   0  0  0  0  0  0  0  0  0  0  0  0
   37.9710   27.4480   39.0310 O   0  0  0  0  0  0  0  0  0  0  0  0
  1 15  1  0  0  0  0
  1  2  2  0  0  0  0
  3  1  1  0  0  0  0
  4  3  1  0  0  0  0
  5  6  2  0  0  0  0
  5 10  1  0  0  0  0
  6  7  1  0  0  0  0
  7  3  1  0  0  0  0
  7  8  2  0  0  0  0
  9 13  1  0  0  0  0
  9  8  1  0  0  0  0
 10  9  2  0  0  0  0
 11  5  1  0  0  0  0
 12  6  1  0  0  0  0
 14 21  2  0  0  0  0
 14 15  1  0  0  0  0
 15 16  2  0  0  0  0
 16 18  1  0  0  0  0
 16 17  1  0  0  0  0
 18 19  1  0  0  0  0
 20 18  2  0  0  0  0
 21 20  1  0  0  0  0
 23 22  1  0  0  0  0
 23 14  1  0  0  0  0
 24 23  2  0  0  0  0
 25 23  2  0  0  0  0
M  END
>  <minimizedAffinity>
-4.57103157

$$$$

 OpenBabel03252503363D

 25 26  0  0  0  0  0  0  0  0999 V2000
   39.2790   29.1450   42.5470 C   0  0  0  0  0  0  0  0  0  0  0  0
   38.5230   29.8480   43.2840 O   0  0  0  0  0  0  0  0  0  0  0  0
   39.5360   29.7330   41.2830 N   0  0  0  0  0  0  0  0  0  0  0  0
   40.2440   29.2760   40.6470 H   0  0  0  0  0  0  0  0  0  0  0  0
   38.6380   33.2820   40.5750 C   0  0  0  0  0  0  0  0  0  0  0  0
   39.3810   32.1920   41.0540 C   0  0  0  0  0  0  0  0  0  0  0  0
   38.8760   30.9090   40.8440 C   0  0  0  0  0  0  0  0  0  0  0  0
   37.6950   30.7590   40.1890 N   0  0  0  0  0  0  0  0  0  0  0  0
   36.9970   31.8440   39.7340 C   0  0  0  0  0  0  0  0  0  0  0  0
   37.4780   33.0930   39.9340 N   0  0  0  0  0  0  0  0  0  0  0  0
   39.0970   34.2430   40.7760 H   0  0  0  0  0  0  0  0  0  0  0  0
   40.3290   32.2510   41.5820 H   0  0  0  0  0  0  0  0  0  0  0  0
   36.0780   31.8200   39.2120 H   0  0  0  0  0  0  0  0  0  0  0  0
   39.0130   26.7460   42.7540 C   0  0  0  0  0  0  0  0  0  0  0  0
   39.8620   27.8460   42.9070 C   0  0  0  0  0  0  0  0  0  0  0  0
   41.1560   27.7290   43.3610 C   0  0  0  0  0  0  0  0  0  0  0  0
   41.7900   28.6050   43.4690 H   0  0  0  0  0  0  0  0  0  0  0  0
   41.6170   26.4550   43.6770 C   0  0  0  0  0  0  0  0  0  0  0  0
   42.6340   26.3060   44.0310 H   0  0  0  0  0  0  0  0  0  0  0  0
   40.8210   25.3240   43.5450 C   0  0  0  0  0  3  0  0  0  0  0  0
   39.5170   25.4870   43.0810 C   0  0  0  0  0  3  0  0  0  0  0  0
   37.3740   28.0570   41.3580 H   0  0  0  0  0  0  0  0  0  0  0  0
   37.3620   26.9400   42.1690 S   0  0  0  0  0  0  0  0  0  0  0  0
   36.3940   27.1920   43.2650 O   0  0  0  0  0  0  0  0  0  0  0  0
   36.9690   25.7720   41.3010 O   0  0  0  0  0  0  0  0  0  0  0  0
  1 15  1  0  0  0  0
  1  2  2  0  0  0  0
  3  1  1  0  0  0  0
  4  3  1  0  0  0  0
  5 11  1  0  0  0  0
  5  6  1  0  0  0  0
  6 12  1  0  0  0  0
  7  6  2  0  0  0  0
  7  3  1  0  0  0  0
  8  7  1  0  0  0  0
  9 10  1  0  0  0  0
  9  8  2  0  0  0  0
 10  5  2  0  0  0  0
 13  9  1  0  0  0  0
 14 15  2  0  0  0  0
 14 21  1  0  0  0  0
 15 16  1  0  0  0  0
 16 17  1  0  0  0  0
 16 18  2  0  0  0  0
 18 19  1  0  0  0  0
 20 18  1  0  0  0  0
 21 20  2  0  0  0  0
 22 23  1  0  0  0  0
 23 14  1  0  0  0  0
 23 24  2  0  0  0  0
 25 23  2  0  0  0  0
M  END
>  <minimizedAffinity>
-4.50603056

$$$$

 OpenBabel03252503363D

 25 26  0  0  0  0  0  0  0  0999 V2000
   37.9100   28.8100   40.0890 C   0  0  0  0  0  0  0  0  0  0  0  0
   38.8030   28.0600   39.5900 O   0  0  0  0  0  0  0  0  0  0  0  0
   36.9400   28.1040   40.8440 N   0  0  0  0  0  0  0  0  0  0  0  0
   36.2240   28.6560   41.3900 H   0  0  0  0  0  0  0  0  0  0  0  0
   37.1950   24.5480   41.9350 C   0  0  0  0  0  0  0  0  0  0  0  0
   37.2800   25.9470   42.0080 C   0  0  0  0  0  0  0  0  0  0  0  0
   36.8970   26.6880   40.8890 C   0  0  0  0  0  0  0  0  0  0  0  0
   36.4580   26.0370   39.7800 N   0  0  0  0  0  0  0  0  0  0  0  0
   36.3880   24.6710   39.7440 C   0  0  0  0  0  0  0  0  0  0  0  0
   36.7580   23.9440   40.8240 N   0  0  0  0  0  0  0  0  0  0  0  0
   37.5080   24.0460   42.8430 H   0  0  0  0  0  0  0  0  0  0  0  0
   37.6200   26.5200   42.8660 H   0  0  0  0  0  0  0  0  0  0  0  0
   36.0540   24.0850   38.9290 H   0  0  0  0  0  0  0  0  0  0  0  0
   38.4870   31.0080   40.9280 C   0  0  0  0  0  0  0  0  0  0  0  0
   37.8330   30.2690   39.9390 C   0  0  0  0  0  0  0  0  0  0  0  0
   37.1620   30.8590   38.8910 C   0  0  0  0  0  0  0  0  0  0  0  0
   36.6640   30.2550   38.1390 H   0  0  0  0  0  0  0  0  0  0  0  0
   37.1450   32.2490   38.8360 C   0  0  0  0  0  0  0  0  0  0  0  0
   36.6380   32.7650   38.0240 H   0  0  0  0  0  0  0  0  0  0  0  0
   37.7770   33.0380   39.7890 C   0  0  0  0  0  3  0  0  0  0  0  0
   38.4450   32.3990   40.8330 C   0  0  0  0  0  3  0  0  0  0  0  0
   40.0640   29.1910   41.6800 H   0  0  0  0  0  0  0  0  0  0  0  0
   39.3340   30.2130   42.2530 S   0  0  0  0  0  0  0  0  0  0  0  0
   38.4070   29.6040   43.2390 O   0  0  0  0  0  0  0  0  0  0  0  0
   40.3240   31.1560   42.8890 O   0  0  0  0  0  0  0  0  0  0  0  0
  1  3  1  0  0  0  0
  2  1  2  0  0  0  0
  3  7  1  0  0  0  0
  3  4  1  0  0  0  0
  5  6  1  0  0  0  0
  5 11  1  0  0  0  0
  6 12  1  0  0  0  0
  7  6  2  0  0  0  0
  8  7  1  0  0  0  0
  9  8  2  0  0  0  0
  9 10  1  0  0  0  0
 10  5  2  0  0  0  0
 13  9  1  0  0  0  0
 14 23  1  0  0  0  0
 15  1  1  0  0  0  0
 15 14  2  0  0  0  0
 16 15  1  0  0  0  0
 17 16  1  0  0  0  0
 18 16  2  0  0  0  0
 18 20  1  0  0  0  0
 19 18  1  0  0  0  0
 20 21  2  0  0  0  0
 21 14  1  0  0  0  0
 22 23  1  0  0  0  0
 23 25  2  0  0  0  0
 23 24  2  0  0  0  0
M  END
>  <minimizedAffinity>
-4.4629159

$$$$

 OpenBabel03252503363D

 25 26  0  0  0  0  0  0  0  0999 V2000
   37.9370   28.5210   41.9300 C   0  0  0  0  0  0  0  0  0  0  0  0
   37.4830   29.3180   42.8060 O   0  0  0  0  0  0  0  0  0  0  0  0
   38.4050   29.1750   40.7630 N   0  0  0  0  0  0  0  0  0  0  0  0
   38.9040   28.6030   40.0290 H   0  0  0  0  0  0  0  0  0  0  0  0
   37.0660   32.4900   39.7040 C   0  0  0  0  0  0  0  0  0  0  0  0
   37.1370   31.0960   39.8550 C   0  0  0  0  0  0  0  0  0  0  0  0
   38.2250   30.5640   40.5480 C   0  0  0  0  0  0  0  0  0  0  0  0
   39.1690   31.4050   41.0490 N   0  0  0  0  0  0  0  0  0  0  0  0
   39.0670   32.7590   40.8830 C   0  0  0  0  0  0  0  0  0  0  0  0
   38.0160   33.2840   40.2120 N   0  0  0  0  0  0  0  0  0  0  0  0
   36.1930   32.8240   39.1570 H   0  0  0  0  0  0  0  0  0  0  0  0
   36.4140   30.3780   39.4790 H   0  0  0  0  0  0  0  0  0  0  0  0
   39.7490   33.4840   41.2420 H   0  0  0  0  0  0  0  0  0  0  0  0
   39.2380   26.5460   42.4540 C   0  0  0  0  0  0  0  0  0  0  0  0
   38.0020   27.0590   42.0530 C   0  0  0  0  0  0  0  0  0  0  0  0
   36.9140   26.2570   41.7890 C   0  0  0  0  0  0  0  0  0  0  0  0
   35.9670   26.6880   41.4780 H   0  0  0  0  0  0  0  0  0  0  0  0
   37.0750   24.8830   41.9330 C   0  0  0  0  0  0  0  0  0  0  0  0
   36.2450   24.2050   41.7470 H   0  0  0  0  0  0  0  0  0  0  0  0
   38.2790   24.3130   42.3300 C   0  0  0  0  0  3  0  0  0  0  0  0
   39.3540   25.1620   42.5870 C   0  0  0  0  0  3  0  0  0  0  0  0
   40.0970   28.6780   43.4890 H   0  0  0  0  0  0  0  0  0  0  0  0
   40.6060   27.6080   42.7810 S   0  0  0  0  0  0  0  0  0  0  0  0
   41.2230   28.1420   41.5410 O   0  0  0  0  0  0  0  0  0  0  0  0
   41.6040   26.9220   43.6800 O   0  0  0  0  0  0  0  0  0  0  0  0
  1 15  1  0  0  0  0
  1  2  2  0  0  0  0
  3  1  1  0  0  0  0
  4  3  1  0  0  0  0
  5  6  2  0  0  0  0
  5 10  1  0  0  0  0
  6  7  1  0  0  0  0
  7  3  1  0  0  0  0
  7  8  2  0  0  0  0
  9  8  1  0  0  0  0
  9 13  1  0  0  0  0
 10  9  2  0  0  0  0
 11  5  1  0  0  0  0
 12  6  1  0  0  0  0
 14 21  1  0  0  0  0
 14 23  1  0  0  0  0
 15 14  2  0  0  0  0
 16 18  2  0  0  0  0
 16 15  1  0  0  0  0
 17 16  1  0  0  0  0
 18 20  1  0  0  0  0
 19 18  1  0  0  0  0
 20 21  2  0  0  0  0
 23 22  1  0  0  0  0
 23 25  2  0  0  0  0
 24 23  2  0  0  0  0
M  END
>  <minimizedAffinity>
-4.44847059

$$$$

 OpenBabel03252503363D

 25 26  0  0  0  0  0  0  0  0999 V2000
   36.7980   28.3550   40.8350 C   0  0  0  0  0  0  0  0  0  0  0  0
   35.8370   29.1080   41.1770 O   0  0  0  0  0  0  0  0  0  0  0  0
   37.9010   29.0620   40.2930 N   0  0  0  0  0  0  0  0  0  0  0  0
   38.7900   28.5310   40.0860 H   0  0  0  0  0  0  0  0  0  0  0  0
   37.2750   32.3790   38.7090 C   0  0  0  0  0  0  0  0  0  0  0  0
   37.2630   30.9850   38.8720 C   0  0  0  0  0  0  0  0  0  0  0  0
   37.8510   30.4520   40.0200 C   0  0  0  0  0  0  0  0  0  0  0  0
   38.4080   31.2920   40.9320 N   0  0  0  0  0  0  0  0  0  0  0  0
   38.4000   32.6470   40.7410 C   0  0  0  0  0  0  0  0  0  0  0  0
   37.8340   33.1730   39.6310 N   0  0  0  0  0  0  0  0  0  0  0  0
   36.7990   32.7140   37.7950 H   0  0  0  0  0  0  0  0  0  0  0  0
   36.8320   30.2670   38.1800 H   0  0  0  0  0  0  0  0  0  0  0  0
   38.8030   33.3710   41.3980 H   0  0  0  0  0  0  0  0  0  0  0  0
   36.5250   26.1840   39.7960 C   0  0  0  0  0  0  0  0  0  0  0  0
   36.8290   26.8920   40.9610 C   0  0  0  0  0  0  0  0  0  0  0  0
   37.1390   26.2700   42.1500 C   0  0  0  0  0  0  0  0  0  0  0  0
   37.3700   26.8500   43.0380 H   0  0  0  0  0  0  0  0  0  0  0  0
   37.1420   24.8790   42.1690 C   0  0  0  0  0  0  0  0  0  0  0  0
   37.3890   24.3370   43.0790 H   0  0  0  0  0  0  0  0  0  0  0  0
   36.8480   24.1200   41.0430 C   0  0  0  0  0  3  0  0  0  0  0  0
   36.5400   24.7910   39.8600 C   0  0  0  0  0  3  0  0  0  0  0  0
   35.4520   28.1640   38.6610 H   0  0  0  0  0  0  0  0  0  0  0  0
   36.1330   27.0200   38.2950 S   0  0  0  0  0  0  0  0  0  0  0  0
   35.2370   26.2270   37.4170 O   0  0  0  0  0  0  0  0  0  0  0  0
   37.3920   27.4640   37.5940 O   0  0  0  0  0  0  0  0  0  0  0  0
  1 15  1  0  0  0  0
  1  2  2  0  0  0  0
  3  1  1  0  0  0  0
  4  3  1  0  0  0  0
  5  6  2  0  0  0  0
  5 10  1  0  0  0  0
  6  7  1  0  0  0  0
  7  3  1  0  0  0  0
  7  8  2  0  0  0  0
  9  8  1  0  0  0  0
  9 13  1  0  0  0  0
 10  9  2  0  0  0  0
 11  5  1  0  0  0  0
 12  6  1  0  0  0  0
 14 21  2  0  0  0  0
 14 15  1  0  0  0  0
 15 16  2  0  0  0  0
 16 18  1  0  0  0  0
 16 17  1  0  0  0  0
 18 19  1  0  0  0  0
 20 18  2  0  0  0  0
 21 20  1  0  0  0  0
 23 22  1  0  0  0  0
 23 14  1  0  0  0  0
 24 23  2  0  0  0  0
 25 23  2  0  0  0  0
M  END
>  <minimizedAffinity>
-4.43699598

$$$$

 OpenBabel03252503363D

 25 26  0  0  0  0  0  0  0  0999 V2000
   37.2690   28.2360   40.5680 C   0  0  0  0  0  0  0  0  0  0  0  0
   36.3920   29.1430   40.6950 O   0  0  0  0  0  0  0  0  0  0  0  0
   38.5650   28.7400   40.2920 N   0  0  0  0  0  0  0  0  0  0  0  0
   39.3790   28.0670   40.2830 H   0  0  0  0  0  0  0  0  0  0  0  0
   39.3260   32.3730   40.6420 C   0  0  0  0  0  0  0  0  0  0  0  0
   39.1100   31.0400   41.0240 C   0  0  0  0  0  0  0  0  0  0  0  0
   38.8050   30.1120   40.0280 C   0  0  0  0  0  0  0  0  0  0  0  0
   38.7290   30.5250   38.7350 N   0  0  0  0  0  0  0  0  0  0  0  0
   38.9470   31.8330   38.3980 C   0  0  0  0  0  0  0  0  0  0  0  0
   39.2430   32.7410   39.3570 N   0  0  0  0  0  0  0  0  0  0  0  0
   39.5590   33.0310   41.4700 H   0  0  0  0  0  0  0  0  0  0  0  0
   39.1590   30.6530   42.0380 H   0  0  0  0  0  0  0  0  0  0  0  0
   38.9150   32.2390   37.4220 H   0  0  0  0  0  0  0  0  0  0  0  0
   37.3260   26.2340   41.9310 C   0  0  0  0  0  0  0  0  0  0  0  0
   37.0320   26.7910   40.6840 C   0  0  0  0  0  0  0  0  0  0  0  0
   36.5510   26.0450   39.6310 C   0  0  0  0  0  0  0  0  0  0  0  0
   36.3320   26.5080   38.6750 H   0  0  0  0  0  0  0  0  0  0  0  0
   36.3590   24.6830   39.8400 C   0  0  0  0  0  0  0  0  0  0  0  0
   35.9720   24.0490   39.0450 H   0  0  0  0  0  0  0  0  0  0  0  0
   36.6330   24.0720   41.0580 C   0  0  0  0  0  3  0  0  0  0  0  0
   37.1180   24.8640   42.0970 C   0  0  0  0  0  3  0  0  0  0  0  0
   38.1270   26.3680   44.3180 H   0  0  0  0  0  0  0  0  0  0  0  0
   37.9410   27.2250   43.2530 S   0  0  0  0  0  0  0  0  0  0  0  0
   36.9760   28.2690   43.6790 O   0  0  0  0  0  0  0  0  0  0  0  0
   39.2940   27.7910   42.9030 O   0  0  0  0  0  0  0  0  0  0  0  0
  1 15  1  0  0  0  0
  1  2  2  0  0  0  0
  3  1  1  0  0  0  0
  4  3  1  0  0  0  0
  5  6  1  0  0  0  0
  5 11  1  0  0  0  0
  6 12  1  0  0  0  0
  7  3  1  0  0  0  0
  7  6  2  0  0  0  0
  8  7  1  0  0  0  0
  9  8  2  0  0  0  0
  9 10  1  0  0  0  0
 10  5  2  0  0  0  0
 13  9  1  0  0  0  0
 14 21  1  0  0  0  0
 14 23  1  0  0  0  0
 15 14  2  0  0  0  0
 16 18  2  0  0  0  0
 16 15  1  0  0  0  0
 17 16  1  0  0  0  0
 18 20  1  0  0  0  0
 19 18  1  0  0  0  0
 20 21  2  0  0  0  0
 23 24  2  0  0  0  0
 23 22  1  0  0  0  0
 25 23  2  0  0  0  0
M  END
>  <minimizedAffinity>
-4.4059186

$$$$

 OpenBabel03252503363D

 25 26  0  0  0  0  0  0  0  0999 V2000
   37.7370   29.3970   41.6120 C   0  0  0  0  0  0  0  0  0  0  0  0
   37.1910   29.0830   42.7130 O   0  0  0  0  0  0  0  0  0  0  0  0
   38.1490   28.2760   40.8490 N   0  0  0  0  0  0  0  0  0  0  0  0
   38.5100   28.4360   39.8690 H   0  0  0  0  0  0  0  0  0  0  0  0
   37.0850   24.7990   41.6740 C   0  0  0  0  0  0  0  0  0  0  0  0
   37.0260   26.0880   41.1210 C   0  0  0  0  0  0  0  0  0  0  0  0
   38.0960   26.9530   41.3540 C   0  0  0  0  0  0  0  0  0  0  0  0
   39.1480   26.5220   42.1000 N   0  0  0  0  0  0  0  0  0  0  0  0
   39.1720   25.2590   42.6230 C   0  0  0  0  0  0  0  0  0  0  0  0
   38.1390   24.4130   42.4030 N   0  0  0  0  0  0  0  0  0  0  0  0
   36.2190   24.1890   41.4470 H   0  0  0  0  0  0  0  0  0  0  0  0
   36.2150   26.4850   40.5170 H   0  0  0  0  0  0  0  0  0  0  0  0
   39.9480   24.8400   43.2070 H   0  0  0  0  0  0  0  0  0  0  0  0
   39.1990   31.3180   41.4090 C   0  0  0  0  0  0  0  0  0  0  0  0
   37.9490   30.7640   41.1190 C   0  0  0  0  0  0  0  0  0  0  0  0
   36.9770   31.4460   40.4200 C   0  0  0  0  0  0  0  0  0  0  0  0
   36.0160   30.9870   40.2130 H   0  0  0  0  0  0  0  0  0  0  0  0
   37.2730   32.7370   39.9960 C   0  0  0  0  0  0  0  0  0  0  0  0
   36.5460   33.3160   39.4320 H   0  0  0  0  0  0  0  0  0  0  0  0
   38.4990   33.3410   40.2520 C   0  0  0  0  0  3  0  0  0  0  0  0
   39.4530   32.6150   40.9630 C   0  0  0  0  0  3  0  0  0  0  0  0
   39.7240   29.6900   43.2600 H   0  0  0  0  0  0  0  0  0  0  0  0
   40.4140   30.4110   42.3070 S   0  0  0  0  0  0  0  0  0  0  0  0
   41.3740   31.2920   43.0170 O   0  0  0  0  0  0  0  0  0  0  0  0
   41.0970   29.4110   41.4090 O   0  0  0  0  0  0  0  0  0  0  0  0
  1  2  2  0  0  0  0
  3  7  1  0  0  0  0
  3  1  1  0  0  0  0
  4  3  1  0  0  0  0
  5 10  1  0  0  0  0
  6  7  1  0  0  0  0
  6  5  2  0  0  0  0
  7  8  2  0  0  0  0
  8  9  1  0  0  0  0
  9 13  1  0  0  0  0
 10  9  2  0  0  0  0
 11  5  1  0  0  0  0
 12  6  1  0  0  0  0
 14 23  1  0  0  0  0
 15 14  1  0  0  0  0
 15  1  1  0  0  0  0
 16 15  2  0  0  0  0
 17 16  1  0  0  0  0
 18 20  2  0  0  0  0
 18 16  1  0  0  0  0
 19 18  1  0  0  0  0
 20 21  1  0  0  0  0
 21 14  2  0  0  0  0
 23 24  2  0  0  0  0
 23 22  1  0  0  0  0
 25 23  2  0  0  0  0
M  END
>  <minimizedAffinity>
-4.34027481

$$$$
