
     RDKit          3D

 30 31  0  0  0  0  0  0  0  0999 V2000
   45.4295   35.1984   43.0931 C   0  0  0  0  0  0  0  0  0  0  0  0
   46.4561   35.5606   42.2081 C   0  0  0  0  0  0  0  0  0  0  0  0
   47.6819   34.8796   42.3842 C   0  0  0  0  0  0  0  0  0  0  0  0
   47.7608   33.9629   43.3618 N   0  0  0  0  0  0  0  0  0  0  0  0
   46.7479   33.6422   44.1943 C   0  0  0  0  0  0  0  0  0  0  0  0
   45.5625   34.2780   44.0493 N   0  0  0  0  0  0  0  0  0  0  0  0
   43.4104   35.3636   41.8844 C   0  0  0  0  0  0  0  0  0  0  0  0
   43.9415   34.4486   41.1569 O   0  0  0  0  0  0  0  0  0  0  0  0
   44.1421   35.8279   43.0032 N   0  0  0  0  0  0  0  0  0  0  0  0
   48.7419   35.2732   41.4489 C   0  0  0  0  0  0  0  0  0  0  0  0
   49.8534   34.4420   41.6657 F   0  0  0  0  0  0  0  0  0  0  0  0
   49.1525   36.5399   41.8111 F   0  0  0  0  0  0  0  0  0  0  0  0
   48.3916   35.1550   40.1351 F   0  0  0  0  0  0  0  0  0  0  0  0
   46.2881   36.3025   41.4662 H   0  0  0  0  0  0  0  0  0  0  0  0
   46.9285   32.8856   44.9467 H   0  0  0  0  0  0  0  0  0  0  0  0
   43.6443   36.5291   43.5630 H   0  0  0  0  0  0  0  0  0  0  0  0
   42.8625   36.8185   44.0093 H   0  0  0  0  0  0  0  0  0  0  0  0
   41.4989   36.6829   43.8480 S   0  0  0  0  0  0  0  0  0  0  0  0
   40.8835   37.9842   44.3096 O   0  0  0  0  0  0  0  0  0  0  0  0
   40.9689   35.6021   44.7639 O   0  0  0  0  0  0  0  0  0  0  0  0
   41.1498   36.3793   42.1858 C   0  0  0  0  0  0  0  0  0  0  0  0
   42.0933   35.7803   41.4103 C   0  0  0  0  0  0  0  0  0  0  0  0
   41.8680   35.5137   40.0754 C   0  0  0  0  0  0  0  0  0  0  0  0
   42.5896   35.0407   39.4269 H   0  0  0  0  0  0  0  0  0  0  0  0
   40.6613   35.8443   39.4515 C   0  0  0  0  0  0  0  0  0  0  0  0
   40.4357   35.6571   38.4108 H   0  0  0  0  0  0  0  0  0  0  0  0
   39.7127   36.4590   40.2771 C   0  0  0  0  0  0  0  0  0  0  0  0
   39.9214   36.7335   41.6160 C   0  0  0  0  0  0  0  0  0  0  0  0
   38.7669   36.7390   39.8653 H   0  0  0  0  0  0  0  0  0  0  0  0
   39.1555   37.2109   42.2125 H   0  0  0  0  0  0  0  0  0  0  0  0
  1  6  2  0
  2  3  2  0
  2  1  1  0
  3  4  1  0
  4  5  2  0
  6  5  1  0
  7  9  1  0
  8  7  2  0
  9  1  1  0
 10 11  1  0
 10 12  1  0
 10  3  1  0
 13 10  1  0
  2 14  1  0
  5 15  1  0
  9 16  1  0
 17 18  1  0
 18 19  2  0
 18 20  2  0
 18 21  1  0
 21 22  2  0
 22 23  1  0
 23 24  1  0
 23 25  2  0
 25 26  1  0
 25 27  1  0
 27 28  2  0
 28 21  1  0
 27 29  1  0
 28 30  1  0
  7 22  1  0
M  ISO  5  14  14  15  14  17  12  24  15  26  16
M  END
>  <DihAtoms>  (1) 
8,6,21,20

>  <DihDeg>  (1) 
-82.29474850081074

$$$$
