
     RDKit          3D

 27 28  0  0  0  0  0  0  0  0999 V2000
   44.5361   36.0441   44.5687 C   0  0  0  0  0  0  0  0  0  0  0  0
   45.2430   36.0124   43.3568 C   0  0  0  0  0  0  0  0  0  0  0  0
   46.1313   34.9575   43.1410 C   0  0  0  0  0  0  0  0  0  0  0  0
   46.2787   34.0069   44.1011 N   0  0  0  0  0  0  0  0  0  0  0  0
   45.5731   34.0695   45.2712 C   0  0  0  0  0  0  0  0  0  0  0  0
   44.7104   35.0879   45.4903 N   0  0  0  0  0  0  0  0  0  0  0  0
   46.3803   34.2279   40.7800 C   0  0  0  0  0  0  0  0  0  0  0  0
   45.2310   33.7149   40.9394 O   0  0  0  0  0  0  0  0  0  0  0  0
   46.9000   34.8199   41.9575 N   0  0  0  0  0  0  0  0  0  0  0  0
   43.8671   36.8907   44.6605 H   0  0  0  0  0  0  0  0  0  0  0  0
   45.1642   36.7410   42.5551 H   0  0  0  0  0  0  0  0  0  0  0  0
   45.6206   33.3734   46.0662 H   0  0  0  0  0  0  0  0  0  0  0  0
   47.8961   35.1712   41.9514 H   0  0  0  0  0  0  0  0  0  0  0  0
   44.2830   33.3299   37.1934 H   0  0  0  0  0  0  0  0  0  0  0  0
   44.7551   33.3375   38.4901 S   0  0  0  0  0  0  0  0  0  0  0  0
   43.9260   34.2943   39.2638 O   0  0  0  0  0  0  0  0  0  0  0  0
   44.6466   31.9246   39.0058 O   0  0  0  0  0  0  0  0  0  0  0  0
   46.4437   33.8305   38.3915 C   0  0  0  0  0  0  0  0  0  0  0  0
   47.1476   34.2402   39.5277 C   0  0  0  0  0  0  0  0  0  0  0  0
   48.4663   34.6308   39.4846 C   0  0  0  0  0  0  0  0  0  0  0  0
   48.9844   34.9434   40.3861 H   0  0  0  0  0  0  0  0  0  0  0  0
   49.1072   34.6084   38.2501 C   0  0  0  0  0  0  0  0  0  0  0  0
   50.1460   34.9156   38.1586 H   0  0  0  0  0  0  0  0  0  0  0  0
   48.4610   34.2116   37.0853 C   0  0  0  0  0  0  0  0  0  0  0  0
   47.1252   33.8234   37.1742 C   0  0  0  0  0  0  0  0  0  0  0  0
   48.9357   34.1853   36.1268 H   0  0  0  0  0  0  0  0  0  0  0  0
   46.5301   33.4936   36.3088 H   0  0  0  0  0  0  0  0  0  0  0  0
  1  6  2  0
  2  1  1  0
  3  2  2  0
  3  4  1  0
  4  5  2  0
  5  6  1  0
  7  8  2  0
  7  9  1  0
  9  3  1  0
  1 10  1  0
  2 11  1  0
  5 12  1  0
  9 13  1  0
 14 15  1  0
 15 16  2  0
 15 17  2  0
 15 18  1  0
 18 19  2  0
 19 20  1  0
 20 21  1  0
 20 22  2  0
 22 23  1  0
 22 24  1  0
 24 25  2  0
 25 18  1  0
 24 26  1  0
 25 27  1  0
  7 19  1  0
M  ISO  6  10  14  11  14  12  14  14  12  21  15  23  16
M  END
>  <DihAtoms>  (1) 
7,6,18,17

>  <DihDeg>  (1) 
40.320400727552205

$$$$
