
     RDKit          3D

 27 28  0  0  0  0  0  0  0  0999 V2000
   44.9109   35.1455   44.0340 C   0  0  0  0  0  0  0  0  0  0  0  0
   45.7580   35.3932   42.9211 C   0  0  0  0  0  0  0  0  0  0  0  0
   46.9460   34.6745   42.8413 C   0  0  0  0  0  0  0  0  0  0  0  0
   47.2613   33.7842   43.7926 N   0  0  0  0  0  0  0  0  0  0  0  0
   46.4281   33.5672   44.8505 C   0  0  0  0  0  0  0  0  0  0  0  0
   45.2692   34.2432   44.9628 N   0  0  0  0  0  0  0  0  0  0  0  0
   43.6918   35.8338   44.1817 N   0  0  0  0  0  0  0  0  0  0  0  0
   47.7327   34.9847   41.6871 C   0  0  0  0  0  0  0  0  0  0  0  0
   48.6690   35.8087   41.6200 O   0  0  0  0  0  0  0  0  0  0  0  0
   45.3743   36.1348   42.2391 H   0  0  0  0  0  0  0  0  0  0  0  0
   46.6499   32.8651   45.6250 H   0  0  0  0  0  0  0  0  0  0  0  0
   43.5590   36.8409   44.4221 H   0  0  0  0  0  0  0  0  0  0  0  0
   42.8791   35.1840   44.0133 H   0  0  0  0  0  0  0  0  0  0  0  0
   46.0713   31.9241   42.4094 H   0  0  0  0  0  0  0  0  0  0  0  0
   45.4859   32.9574   41.7049 S   0  0  0  0  0  0  0  0  0  0  0  0
   45.1178   34.1138   42.5703 O   0  0  0  0  0  0  0  0  0  0  0  0
   44.1782   32.3961   41.1909 O   0  0  0  0  0  0  0  0  0  0  0  0
   46.4564   33.3592   40.3368 C   0  0  0  0  0  0  0  0  0  0  0  0
   47.4624   34.2965   40.4133 C   0  0  0  0  0  0  0  0  0  0  0  0
   48.1901   34.5625   39.2861 C   0  0  0  0  0  0  0  0  0  0  0  0
   48.9908   35.2867   39.2842 H   0  0  0  0  0  0  0  0  0  0  0  0
   47.9727   33.9437   38.0740 C   0  0  0  0  0  0  0  0  0  0  0  0
   48.5463   34.1535   37.1861 H   0  0  0  0  0  0  0  0  0  0  0  0
   46.9708   32.9998   37.9683 C   0  0  0  0  0  0  0  0  0  0  0  0
   46.2368   32.7320   39.1066 C   0  0  0  0  0  0  0  0  0  0  0  0
   46.7667   32.4898   37.0342 H   0  0  0  0  0  0  0  0  0  0  0  0
   45.4422   31.9981   39.0644 H   0  0  0  0  0  0  0  0  0  0  0  0
  1  7  1  0
  1  6  2  0
  2  1  1  0
  3  2  2  0
  3  4  1  0
  4  5  2  0
  5  6  1  0
  8  3  1  0
  9  8  2  0
  2 10  1  0
  5 11  1  0
  7 12  1  0
  7 13  1  0
 14 15  1  0
 15 16  2  0
 15 17  2  0
 15 18  1  0
 18 19  2  0
 19 20  1  0
 20 21  1  0
 20 22  2  0
 22 23  1  0
 22 24  1  0
 24 25  2  0
 25 18  1  0
 24 26  1  0
 25 27  1  0
  8 19  1  0
M  ISO  5  10  14  11  14  14  12  21  15  23  16
M  END
>  <DihAtoms>  (1) 
2,7,18,17

>  <DihDeg>  (1) 
-135.00088339273293

$$$$
