
 OpenBabel03242520543D

 34 35  0  0  0  0  0  0  0  0999 V2000
   35.7830   30.1780   40.6600 C   0  0  0  0  0  0  0  0  0  0  0  0
   35.3470   30.0440   39.6520 H   0  0  0  0  0  0  0  0  0  0  0  0
   34.9400   30.6220   41.2720 H   0  0  0  0  0  0  0  0  0  0  0  0
   36.9590   28.1560   40.5660 C   0  0  0  0  0  0  0  0  0  0  0  0
   37.5010   28.2840   39.4430 O   0  0  0  0  0  0  0  0  0  0  0  0
   36.1100   28.9560   41.3530 N   0  0  0  0  0  0  0  0  0  0  0  0
   35.8050   28.6560   42.2790 H   0  0  0  0  0  0  0  0  0  0  0  0
   38.2460   26.6010   42.1300 C   0  0  0  0  0  0  0  0  0  0  0  0
   37.3370   26.8320   41.1420 C   0  0  0  0  0  0  0  0  0  0  0  0
   36.6170   25.7930   40.5410 C   0  0  0  0  0  0  0  0  0  0  0  0
   35.8840   25.9100   39.7570 H   0  0  0  0  0  0  0  0  0  0  0  0
   36.8490   24.4810   40.9780 C   0  0  0  0  0  0  0  0  0  0  0  0
   36.3090   23.6760   40.5270 H   0  0  0  0  0  0  0  0  0  0  0  0
   37.7760   24.2250   41.9880 C   0  0  0  0  0  3  0  0  0  0  0  0
   38.4610   25.3070   42.5470 C   0  0  0  0  0  3  0  0  0  0  0  0
   39.5030   28.8220   41.8600 H   0  0  0  0  0  0  0  0  0  0  0  0
   39.0780   27.9550   42.8010 S   0  0  0  0  0  0  0  0  0  0  0  0
   38.1040   28.7210   43.6780 O   0  0  0  0  0  0  0  0  0  0  0  0
   40.2040   27.4740   43.6890 O   0  0  0  0  0  0  0  0  0  0  0  0
   37.1950   31.8990   39.7030 C   0  0  0  0  0  3  0  0  0  0  0  0
   36.8580   31.1820   40.7410 C   0  0  0  0  0  3  0  0  0  0  0  0
   38.8840   35.0980   40.1820 C   0  0  0  0  0  0  0  0  0  0  0  0
   40.2060   34.7980   39.8170 C   0  0  0  0  0  0  0  0  0  0  0  0
   40.5180   33.5080   39.4100 C   0  0  0  0  0  0  0  0  0  0  0  0
   39.5060   32.6110   39.3930 N   0  0  0  0  0  0  0  0  0  0  0  0
   38.2560   32.9070   39.7410 C   0  0  0  0  0  0  0  0  0  0  0  0
   37.9330   34.1570   40.1400 N   0  0  0  0  0  0  0  0  0  0  0  0
   38.7900   36.1330   40.4730 H   0  0  0  0  0  0  0  0  0  0  0  0
   41.0540   35.4690   39.8090 H   0  0  0  0  0  0  0  0  0  0  0  0
   41.7700   33.0820   39.0270 O   0  0  0  0  0  0  0  0  0  0  0  0
   42.0910   33.2040   37.6250 C   0  0  0  0  0  0  0  0  0  0  0  0
   43.2140   32.4160   37.3570 F   0  0  0  0  0  0  0  0  0  0  0  0
   40.9910   32.7010   36.9170 F   0  0  0  0  0  0  0  0  0  0  0  0
   42.2940   34.5330   37.2520 F   0  0  0  0  0  0  0  0  0  0  0  0
  1 21  1  0  0  0  0
  1  3  1  0  0  0  0
  1  6  1  0  0  0  0
  2  1  1  0  0  0  0
  4  9  1  0  0  0  0
  4  6  1  0  0  0  0
  5  4  2  0  0  0  0
  6  7  1  0  0  0  0
  8 15  1  0  0  0  0
  8 17  1  0  0  0  0
  9  8  2  0  0  0  0
 10 12  2  0  0  0  0
 10  9  1  0  0  0  0
 11 10  1  0  0  0  0
 12 14  1  0  0  0  0
 13 12  1  0  0  0  0
 14 15  2  0  0  0  0
 16 17  1  0  0  0  0
 17 18  2  0  0  0  0
 17 19  2  0  0  0  0
 20 26  1  0  0  0  0
 20 21  2  0  0  0  0
 22 28  1  0  0  0  0
 23 22  2  0  0  0  0
 24 23  1  0  0  0  0
 25 24  2  0  0  0  0
 25 26  1  0  0  0  0
 26 27  2  0  0  0  0
 27 22  1  0  0  0  0
 29 23  1  0  0  0  0
 30 24  1  0  0  0  0
 31 30  1  0  0  0  0
 32 31  1  0  0  0  0
 33 31  1  0  0  0  0
 34 31  1  0  0  0  0
M  END
>  <minimizedAffinity>
-5.82943106

$$$$

 OpenBabel03242520543D

 34 35  0  0  0  0  0  0  0  0999 V2000
   39.4560   32.7010   40.9150 C   0  0  0  0  0  0  0  0  0  0  0  0
   38.8800   33.5890   41.2340 H   0  0  0  0  0  0  0  0  0  0  0  0
   39.3230   32.6720   39.7900 H   0  0  0  0  0  0  0  0  0  0  0  0
   41.3620   34.0170   40.5730 C   0  0  0  0  0  0  0  0  0  0  0  0
   40.8300   35.0160   40.0340 O   0  0  0  0  0  0  0  0  0  0  0  0
   40.8840   32.8000   41.0940 N   0  0  0  0  0  0  0  0  0  0  0  0
   41.5130   32.1230   41.5260 H   0  0  0  0  0  0  0  0  0  0  0  0
   43.7550   33.9150   39.6870 C   0  0  0  0  0  0  0  0  0  0  0  0
   42.8380   34.2290   40.6440 C   0  0  0  0  0  0  0  0  0  0  0  0
   43.2070   34.8240   41.8560 C   0  0  0  0  0  0  0  0  0  0  0  0
   42.5300   35.0960   42.6520 H   0  0  0  0  0  0  0  0  0  0  0  0
   44.5640   35.0980   42.0780 C   0  0  0  0  0  0  0  0  0  0  0  0
   44.8620   35.5500   43.0010 H   0  0  0  0  0  0  0  0  0  0  0  0
   45.5170   34.7850   41.1100 C   0  0  0  0  0  3  0  0  0  0  0  0
   45.0820   34.1930   39.9210 C   0  0  0  0  0  3  0  0  0  0  0  0
   42.1600   32.3420   38.4370 H   0  0  0  0  0  0  0  0  0  0  0  0
   43.1910   33.1850   38.2300 S   0  0  0  0  0  0  0  0  0  0  0  0
   42.6680   34.2820   37.3220 O   0  0  0  0  0  0  0  0  0  0  0  0
   44.3440   32.5160   37.5140 O   0  0  0  0  0  0  0  0  0  0  0  0
   39.5080   30.7240   42.3140 C   0  0  0  0  0  3  0  0  0  0  0  0
   38.9140   31.4120   41.3770 C   0  0  0  0  0  3  0  0  0  0  0  0
   37.1800   28.1360   43.4090 C   0  0  0  0  0  0  0  0  0  0  0  0
   38.0380   27.0670   43.7110 C   0  0  0  0  0  0  0  0  0  0  0  0
   39.4060   27.2300   43.5400 C   0  0  0  0  0  0  0  0  0  0  0  0
   39.8260   28.4330   43.0850 N   0  0  0  0  0  0  0  0  0  0  0  0
   39.0030   29.4400   42.8020 C   0  0  0  0  0  0  0  0  0  0  0  0
   37.6690   29.2990   42.9630 N   0  0  0  0  0  0  0  0  0  0  0  0
   36.1510   27.8670   43.5900 H   0  0  0  0  0  0  0  0  0  0  0  0
   37.7640   26.0870   44.0770 H   0  0  0  0  0  0  0  0  0  0  0  0
   40.3550   26.2660   43.7980 O   0  0  0  0  0  0  0  0  0  0  0  0
   40.5000   25.2250   42.8090 C   0  0  0  0  0  0  0  0  0  0  0  0
   41.8630   24.9970   42.6000 F   0  0  0  0  0  0  0  0  0  0  0  0
   39.9150   24.0740   43.3530 F   0  0  0  0  0  0  0  0  0  0  0  0
   39.8430   25.5420   41.6200 F   0  0  0  0  0  0  0  0  0  0  0  0
  1  6  1  0  0  0  0
  1  2  1  0  0  0  0
  1 21  1  0  0  0  0
  3  1  1  0  0  0  0
  4  9  1  0  0  0  0
  4  6  1  0  0  0  0
  5  4  2  0  0  0  0
  6  7  1  0  0  0  0
  8 15  2  0  0  0  0
  8  9  1  0  0  0  0
  9 10  2  0  0  0  0
 10 12  1  0  0  0  0
 10 11  1  0  0  0  0
 12 13  1  0  0  0  0
 14 12  2  0  0  0  0
 15 14  1  0  0  0  0
 17 16  1  0  0  0  0
 17  8  1  0  0  0  0
 18 17  2  0  0  0  0
 19 17  2  0  0  0  0
 20 26  1  0  0  0  0
 21 20  2  0  0  0  0
 22 28  1  0  0  0  0
 22 23  1  0  0  0  0
 23 29  1  0  0  0  0
 24 23  2  0  0  0  0
 24 30  1  0  0  0  0
 25 24  1  0  0  0  0
 26 27  1  0  0  0  0
 26 25  2  0  0  0  0
 27 22  2  0  0  0  0
 31 33  1  0  0  0  0
 31 30  1  0  0  0  0
 32 31  1  0  0  0  0
 34 31  1  0  0  0  0
M  END
>  <minimizedAffinity>
-5.55896187

$$$$

 OpenBabel03242520543D

 34 35  0  0  0  0  0  0  0  0999 V2000
   35.4430   29.4450   40.6680 C   0  0  0  0  0  0  0  0  0  0  0  0
   34.4230   29.3530   41.0830 H   0  0  0  0  0  0  0  0  0  0  0  0
   35.2860   29.4800   39.5460 H   0  0  0  0  0  0  0  0  0  0  0  0
   36.9250   31.0760   39.8800 C   0  0  0  0  0  0  0  0  0  0  0  0
   37.1560   30.6130   38.7380 O   0  0  0  0  0  0  0  0  0  0  0  0
   36.1160   30.6860   40.9640 N   0  0  0  0  0  0  0  0  0  0  0  0
   36.0570   31.2480   41.8130 H   0  0  0  0  0  0  0  0  0  0  0  0
   38.9410   32.4290   40.6720 C   0  0  0  0  0  0  0  0  0  0  0  0
   37.7240   32.3230   40.0710 C   0  0  0  0  0  0  0  0  0  0  0  0
   37.0650   33.4350   39.5320 C   0  0  0  0  0  0  0  0  0  0  0  0
   36.1020   33.4170   39.0440 H   0  0  0  0  0  0  0  0  0  0  0  0
   37.6880   34.6870   39.6230 C   0  0  0  0  0  0  0  0  0  0  0  0
   37.1970   35.5470   39.2180 H   0  0  0  0  0  0  0  0  0  0  0  0
   38.9340   34.8150   40.2340 C   0  0  0  0  0  3  0  0  0  0  0  0
   39.5390   33.6660   40.7510 C   0  0  0  0  0  3  0  0  0  0  0  0
   39.8060   30.0320   40.3700 H   0  0  0  0  0  0  0  0  0  0  0  0
   39.6630   30.9950   41.3020 S   0  0  0  0  0  0  0  0  0  0  0  0
   41.0630   31.3390   41.7760 O   0  0  0  0  0  0  0  0  0  0  0  0
   38.8830   30.5170   42.5070 O   0  0  0  0  0  0  0  0  0  0  0  0
   36.6510   27.8850   42.0750 C   0  0  0  0  0  3  0  0  0  0  0  0
   36.3050   28.2690   40.8760 C   0  0  0  0  0  3  0  0  0  0  0  0
   37.8830   24.4510   42.0370 C   0  0  0  0  0  0  0  0  0  0  0  0
   39.0700   24.5480   42.7790 C   0  0  0  0  0  0  0  0  0  0  0  0
   39.4470   25.7820   43.2900 C   0  0  0  0  0  0  0  0  0  0  0  0
   38.6280   26.8270   43.0320 N   0  0  0  0  0  0  0  0  0  0  0  0
   37.5050   26.7230   42.3260 C   0  0  0  0  0  0  0  0  0  0  0  0
   37.1210   25.5300   41.8210 N   0  0  0  0  0  0  0  0  0  0  0  0
   37.7170   23.4370   41.7060 H   0  0  0  0  0  0  0  0  0  0  0  0
   39.7620   23.7530   43.0190 H   0  0  0  0  0  0  0  0  0  0  0  0
   40.5830   26.0160   44.0330 O   0  0  0  0  0  0  0  0  0  0  0  0
   41.8240   26.1020   43.3020 C   0  0  0  0  0  0  0  0  0  0  0  0
   42.7210   26.8810   44.0390 F   0  0  0  0  0  0  0  0  0  0  0  0
   42.3190   24.7950   43.2000 F   0  0  0  0  0  0  0  0  0  0  0  0
   41.6370   26.6120   42.0170 F   0  0  0  0  0  0  0  0  0  0  0  0
  1 21  1  0  0  0  0
  1  6  1  0  0  0  0
  1  2  1  0  0  0  0
  3  1  1  0  0  0  0
  4  9  1  0  0  0  0
  4  6  1  0  0  0  0
  5  4  2  0  0  0  0
  6  7  1  0  0  0  0
  8 15  1  0  0  0  0
  8 17  1  0  0  0  0
  9  8  2  0  0  0  0
 10 12  2  0  0  0  0
 10  9  1  0  0  0  0
 11 10  1  0  0  0  0
 12 14  1  0  0  0  0
 13 12  1  0  0  0  0
 14 15  2  0  0  0  0
 16 17  1  0  0  0  0
 17 18  2  0  0  0  0
 17 19  2  0  0  0  0
 20 26  1  0  0  0  0
 21 20  2  0  0  0  0
 22 23  1  0  0  0  0
 23 29  1  0  0  0  0
 23 24  2  0  0  0  0
 24 30  1  0  0  0  0
 25 24  1  0  0  0  0
 26 25  2  0  0  0  0
 27 22  2  0  0  0  0
 27 26  1  0  0  0  0
 28 22  1  0  0  0  0
 31 30  1  0  0  0  0
 31 32  1  0  0  0  0
 33 31  1  0  0  0  0
 34 31  1  0  0  0  0
M  END
>  <minimizedAffinity>
-5.54685974

$$$$

 OpenBabel03242520543D

 34 35  0  0  0  0  0  0  0  0999 V2000
   35.3000   29.8230   40.5390 C   0  0  0  0  0  0  0  0  0  0  0  0
   34.2640   29.8480   40.9220 H   0  0  0  0  0  0  0  0  0  0  0  0
   35.1850   29.8990   39.4140 H   0  0  0  0  0  0  0  0  0  0  0  0
   36.8050   31.4340   39.7530 C   0  0  0  0  0  0  0  0  0  0  0  0
   36.8490   31.1050   38.5440 O   0  0  0  0  0  0  0  0  0  0  0  0
   36.1100   30.9660   40.8830 N   0  0  0  0  0  0  0  0  0  0  0  0
   36.2080   31.4180   41.7930 H   0  0  0  0  0  0  0  0  0  0  0  0
   38.9810   32.5400   40.5040 C   0  0  0  0  0  0  0  0  0  0  0  0
   37.7260   32.5870   39.9780 C   0  0  0  0  0  0  0  0  0  0  0  0
   37.1430   33.7900   39.5620 C   0  0  0  0  0  0  0  0  0  0  0  0
   36.1550   33.8950   39.1380 H   0  0  0  0  0  0  0  0  0  0  0  0
   37.8840   34.9730   39.6990 C   0  0  0  0  0  0  0  0  0  0  0  0
   37.4510   35.9010   39.3890 H   0  0  0  0  0  0  0  0  0  0  0  0
   39.1700   34.9440   40.2350 C   0  0  0  0  0  3  0  0  0  0  0  0
   39.6950   33.7100   40.6300 C   0  0  0  0  0  3  0  0  0  0  0  0
   39.3730   30.0420   40.0680 H   0  0  0  0  0  0  0  0  0  0  0  0
   39.6030   31.0040   40.9830 S   0  0  0  0  0  0  0  0  0  0  0  0
   41.1110   31.1220   41.1070 O   0  0  0  0  0  0  0  0  0  0  0  0
   39.0650   30.6380   42.3490 O   0  0  0  0  0  0  0  0  0  0  0  0
   36.6830   28.3140   41.8360 C   0  0  0  0  0  3  0  0  0  0  0  0
   36.0060   28.5460   40.7440 C   0  0  0  0  0  3  0  0  0  0  0  0
   39.2110   25.9730   43.0390 C   0  0  0  0  0  0  0  0  0  0  0  0
   38.7470   24.7460   42.5420 C   0  0  0  0  0  0  0  0  0  0  0  0
   37.5750   24.7190   41.7980 C   0  0  0  0  0  0  0  0  0  0  0  0
   36.9480   25.9010   41.6010 N   0  0  0  0  0  0  0  0  0  0  0  0
   37.3980   27.0600   42.0790 C   0  0  0  0  0  0  0  0  0  0  0  0
   38.5370   27.1060   42.8040 N   0  0  0  0  0  0  0  0  0  0  0  0
   40.1280   25.8430   43.5940 H   0  0  0  0  0  0  0  0  0  0  0  0
   39.2020   23.7730   42.6640 H   0  0  0  0  0  0  0  0  0  0  0  0
   37.0110   23.5870   41.2530 O   0  0  0  0  0  0  0  0  0  0  0  0
   37.6920   23.0090   40.1210 C   0  0  0  0  0  0  0  0  0  0  0  0
   38.5590   22.0140   40.5830 F   0  0  0  0  0  0  0  0  0  0  0  0
   36.7050   22.4270   39.3140 F   0  0  0  0  0  0  0  0  0  0  0  0
   38.3700   23.9730   39.3730 F   0  0  0  0  0  0  0  0  0  0  0  0
  1 21  1  0  0  0  0
  1  6  1  0  0  0  0
  1  2  1  0  0  0  0
  3  1  1  0  0  0  0
  4  9  1  0  0  0  0
  4  6  1  0  0  0  0
  5  4  2  0  0  0  0
  6  7  1  0  0  0  0
  8 15  1  0  0  0  0
  8 17  1  0  0  0  0
  9  8  2  0  0  0  0
 10 12  2  0  0  0  0
 10  9  1  0  0  0  0
 11 10  1  0  0  0  0
 12 14  1  0  0  0  0
 13 12  1  0  0  0  0
 14 15  2  0  0  0  0
 16 17  1  0  0  0  0
 17 18  2  0  0  0  0
 17 19  2  0  0  0  0
 20 26  1  0  0  0  0
 21 20  2  0  0  0  0
 22 28  1  0  0  0  0
 23 29  1  0  0  0  0
 23 22  2  0  0  0  0
 24 23  1  0  0  0  0
 25 24  2  0  0  0  0
 25 26  1  0  0  0  0
 26 27  2  0  0  0  0
 27 22  1  0  0  0  0
 30 24  1  0  0  0  0
 31 32  1  0  0  0  0
 31 30  1  0  0  0  0
 33 31  1  0  0  0  0
 34 31  1  0  0  0  0
M  END
>  <minimizedAffinity>
-5.51824284

$$$$

 OpenBabel03242520543D

 34 35  0  0  0  0  0  0  0  0999 V2000
   33.9270   28.3290   37.7950 C   0  0  0  0  0  0  0  0  0  0  0  0
   33.2880   27.4430   37.9680 H   0  0  0  0  0  0  0  0  0  0  0  0
   34.5530   28.0500   36.8930 H   0  0  0  0  0  0  0  0  0  0  0  0
   32.1070   29.1790   36.5940 C   0  0  0  0  0  0  0  0  0  0  0  0
   31.5840   28.1030   36.2200 O   0  0  0  0  0  0  0  0  0  0  0  0
   33.2270   29.5180   37.3770 N   0  0  0  0  0  0  0  0  0  0  0  0
   33.4560   30.4900   37.5840 H   0  0  0  0  0  0  0  0  0  0  0  0
   30.2810   30.9630   36.6570 C   0  0  0  0  0  0  0  0  0  0  0  0
   31.3160   30.3210   36.0480 C   0  0  0  0  0  0  0  0  0  0  0  0
   31.7760   30.6960   34.7800 C   0  0  0  0  0  0  0  0  0  0  0  0
   32.5900   30.2300   34.2450 H   0  0  0  0  0  0  0  0  0  0  0  0
   31.1420   31.7640   34.1300 C   0  0  0  0  0  0  0  0  0  0  0  0
   31.4790   32.0610   33.1590 H   0  0  0  0  0  0  0  0  0  0  0  0
   30.0810   32.4330   34.7370 C   0  0  0  0  0  3  0  0  0  0  0  0
   29.6710   32.0100   36.0050 C   0  0  0  0  0  3  0  0  0  0  0  0
   30.8400   30.2180   39.0480 H   0  0  0  0  0  0  0  0  0  0  0  0
   29.7950   30.4190   38.2200 S   0  0  0  0  0  0  0  0  0  0  0  0
   28.9500   31.5060   38.8580 O   0  0  0  0  0  0  0  0  0  0  0  0
   28.9240   29.1900   38.0860 O   0  0  0  0  0  0  0  0  0  0  0  0
   35.7910   29.5580   38.7380 C   0  0  0  0  0  3  0  0  0  0  0  0
   34.9160   28.5950   38.8540 C   0  0  0  0  0  3  0  0  0  0  0  0
   38.0840   31.4420   40.8610 C   0  0  0  0  0  0  0  0  0  0  0  0
   38.6460   30.4370   41.6630 C   0  0  0  0  0  0  0  0  0  0  0  0
   38.2430   29.1210   41.4790 C   0  0  0  0  0  0  0  0  0  0  0  0
   37.3160   28.8940   40.5200 N   0  0  0  0  0  0  0  0  0  0  0  0
   36.7890   29.8560   39.7650 C   0  0  0  0  0  0  0  0  0  0  0  0
   37.1700   31.1410   39.9290 N   0  0  0  0  0  0  0  0  0  0  0  0
   38.4900   32.4090   41.1130 H   0  0  0  0  0  0  0  0  0  0  0  0
   39.3870   30.5550   42.4410 H   0  0  0  0  0  0  0  0  0  0  0  0
   38.7130   28.0430   42.1950 O   0  0  0  0  0  0  0  0  0  0  0  0
   37.9790   27.6920   43.3870 C   0  0  0  0  0  0  0  0  0  0  0  0
   37.4220   28.8560   43.9240 F   0  0  0  0  0  0  0  0  0  0  0  0
   36.9520   26.8280   42.9850 F   0  0  0  0  0  0  0  0  0  0  0  0
   38.7820   27.0310   44.3160 F   0  0  0  0  0  0  0  0  0  0  0  0
  1  2  1  0  0  0  0
  1 21  1  0  0  0  0
  3  1  1  0  0  0  0
  4  6  1  0  0  0  0
  5  4  2  0  0  0  0
  6  7  1  0  0  0  0
  6  1  1  0  0  0  0
  8 17  1  0  0  0  0
  9  4  1  0  0  0  0
  9  8  1  0  0  0  0
 10  9  2  0  0  0  0
 11 10  1  0  0  0  0
 12 14  2  0  0  0  0
 12 10  1  0  0  0  0
 13 12  1  0  0  0  0
 14 15  1  0  0  0  0
 15  8  2  0  0  0  0
 17 18  2  0  0  0  0
 17 16  1  0  0  0  0
 19 17  2  0  0  0  0
 20 21  2  0  0  0  0
 20 26  1  0  0  0  0
 22 28  1  0  0  0  0
 22 23  1  0  0  0  0
 23 29  1  0  0  0  0
 24 23  2  0  0  0  0
 24 30  1  0  0  0  0
 25 24  1  0  0  0  0
 26 27  1  0  0  0  0
 26 25  2  0  0  0  0
 27 22  2  0  0  0  0
 30 31  1  0  0  0  0
 31 32  1  0  0  0  0
 31 34  1  0  0  0  0
 33 31  1  0  0  0  0
M  END
>  <minimizedAffinity>
-5.51252985

$$$$

 OpenBabel03242520543D

 34 35  0  0  0  0  0  0  0  0999 V2000
   38.5340   34.3900   40.0400 C   0  0  0  0  0  0  0  0  0  0  0  0
   37.8410   35.2290   40.2380 H   0  0  0  0  0  0  0  0  0  0  0  0
   39.0510   34.6760   39.0730 H   0  0  0  0  0  0  0  0  0  0  0  0
   40.8390   34.0900   40.3080 C   0  0  0  0  0  0  0  0  0  0  0  0
   41.1880   34.0720   39.1040 O   0  0  0  0  0  0  0  0  0  0  0  0
   39.6150   34.2510   40.9840 N   0  0  0  0  0  0  0  0  0  0  0  0
   39.5680   34.2610   42.0030 H   0  0  0  0  0  0  0  0  0  0  0  0
   42.5080   32.6950   41.6480 C   0  0  0  0  0  0  0  0  0  0  0  0
   42.0420   33.8820   41.1680 C   0  0  0  0  0  0  0  0  0  0  0  0
   42.6880   35.0940   41.4380 C   0  0  0  0  0  0  0  0  0  0  0  0
   42.3710   36.0650   41.0870 H   0  0  0  0  0  0  0  0  0  0  0  0
   43.8450   35.0710   42.2290 C   0  0  0  0  0  0  0  0  0  0  0  0
   44.3480   35.9890   42.4480 H   0  0  0  0  0  0  0  0  0  0  0  0
   44.3360   33.8670   42.7300 C   0  0  0  0  0  3  0  0  0  0  0  0
   43.6450   32.6920   42.4220 C   0  0  0  0  0  3  0  0  0  0  0  0
   40.4760   31.5170   40.6150 H   0  0  0  0  0  0  0  0  0  0  0  0
   41.6350   31.2610   41.2540 S   0  0  0  0  0  0  0  0  0  0  0  0
   42.4780   30.4430   40.2940 O   0  0  0  0  0  0  0  0  0  0  0  0
   41.4310   30.4280   42.5000 O   0  0  0  0  0  0  0  0  0  0  0  0
   37.6100   32.2410   40.6760 C   0  0  0  0  0  3  0  0  0  0  0  0
   37.8790   33.1060   39.7350 C   0  0  0  0  0  3  0  0  0  0  0  0
   35.9120   29.5430   38.9000 C   0  0  0  0  0  0  0  0  0  0  0  0
   35.7500   28.5770   39.9050 C   0  0  0  0  0  0  0  0  0  0  0  0
   36.2190   28.8470   41.1830 C   0  0  0  0  0  0  0  0  0  0  0  0
   36.8130   30.0470   41.3760 N   0  0  0  0  0  0  0  0  0  0  0  0
   36.9620   30.9560   40.4150 C   0  0  0  0  0  0  0  0  0  0  0  0
   36.5110   30.7110   39.1650 N   0  0  0  0  0  0  0  0  0  0  0  0
   35.5010   29.1990   37.9640 H   0  0  0  0  0  0  0  0  0  0  0  0
   35.2850   27.6050   39.8130 H   0  0  0  0  0  0  0  0  0  0  0  0
   36.1240   27.9900   42.2570 O   0  0  0  0  0  0  0  0  0  0  0  0
   37.2930   27.1990   42.5550 C   0  0  0  0  0  0  0  0  0  0  0  0
   37.8050   27.6100   43.7890 F   0  0  0  0  0  0  0  0  0  0  0  0
   36.8630   25.8690   42.6500 F   0  0  0  0  0  0  0  0  0  0  0  0
   38.2520   27.2870   41.5450 F   0  0  0  0  0  0  0  0  0  0  0  0
  1  2  1  0  0  0  0
  1  6  1  0  0  0  0
  3  1  1  0  0  0  0
  4  6  1  0  0  0  0
  4  9  1  0  0  0  0
  5  4  2  0  0  0  0
  6  7  1  0  0  0  0
  8 15  1  0  0  0  0
  9 10  1  0  0  0  0
  9  8  2  0  0  0  0
 10 12  2  0  0  0  0
 11 10  1  0  0  0  0
 12 13  1  0  0  0  0
 12 14  1  0  0  0  0
 15 14  2  0  0  0  0
 16 17  1  0  0  0  0
 17  8  1  0  0  0  0
 17 19  2  0  0  0  0
 18 17  2  0  0  0  0
 21  1  1  0  0  0  0
 21 20  2  0  0  0  0
 22 27  2  0  0  0  0
 22 23  1  0  0  0  0
 23 24  2  0  0  0  0
 24 25  1  0  0  0  0
 24 30  1  0  0  0  0
 26 20  1  0  0  0  0
 26 25  2  0  0  0  0
 27 26  1  0  0  0  0
 28 22  1  0  0  0  0
 29 23  1  0  0  0  0
 30 31  1  0  0  0  0
 31 33  1  0  0  0  0
 31 32  1  0  0  0  0
 34 31  1  0  0  0  0
M  END
>  <minimizedAffinity>
-5.42209101

$$$$

 OpenBabel03242520543D

 34 35  0  0  0  0  0  0  0  0999 V2000
   38.7390   29.2750   42.9810 C   0  0  0  0  0  0  0  0  0  0  0  0
   37.8430   29.5100   43.5850 H   0  0  0  0  0  0  0  0  0  0  0  0
   39.4940   28.8980   43.7370 H   0  0  0  0  0  0  0  0  0  0  0  0
   37.3240   27.5720   42.2200 C   0  0  0  0  0  0  0  0  0  0  0  0
   36.3210   27.7990   42.9380 O   0  0  0  0  0  0  0  0  0  0  0  0
   38.5870   28.1730   42.0630 N   0  0  0  0  0  0  0  0  0  0  0  0
   39.2580   27.8280   41.3760 H   0  0  0  0  0  0  0  0  0  0  0  0
   36.6900   26.3820   40.0510 C   0  0  0  0  0  0  0  0  0  0  0  0
   37.0510   26.3800   41.3650 C   0  0  0  0  0  0  0  0  0  0  0  0
   37.2220   25.1910   42.0830 C   0  0  0  0  0  0  0  0  0  0  0  0
   37.5070   25.1210   43.1220 H   0  0  0  0  0  0  0  0  0  0  0  0
   37.0110   23.9740   41.4180 C   0  0  0  0  0  0  0  0  0  0  0  0
   37.1350   23.0570   41.9540 H   0  0  0  0  0  0  0  0  0  0  0  0
   36.6420   23.9570   40.0750 C   0  0  0  0  0  3  0  0  0  0  0  0
   36.4880   25.1790   39.4150 C   0  0  0  0  0  3  0  0  0  0  0  0
   35.8590   28.8100   40.0230 H   0  0  0  0  0  0  0  0  0  0  0  0
   36.5070   27.9050   39.2620 S   0  0  0  0  0  0  0  0  0  0  0  0
   37.8900   28.4750   39.0080 O   0  0  0  0  0  0  0  0  0  0  0  0
   35.8450   27.7070   37.9170 O   0  0  0  0  0  0  0  0  0  0  0  0
   38.7890   31.1550   41.4540 C   0  0  0  0  0  3  0  0  0  0  0  0
   39.3940   30.4410   42.3640 C   0  0  0  0  0  3  0  0  0  0  0  0
   39.3330   34.6000   40.3800 C   0  0  0  0  0  0  0  0  0  0  0  0
   40.5210   34.5000   39.6390 C   0  0  0  0  0  0  0  0  0  0  0  0
   41.1320   33.2610   39.5070 C   0  0  0  0  0  0  0  0  0  0  0  0
   40.5300   32.2140   40.1150 N   0  0  0  0  0  0  0  0  0  0  0  0
   39.4030   32.3200   40.8160 C   0  0  0  0  0  0  0  0  0  0  0  0
   38.7930   33.5180   40.9540 N   0  0  0  0  0  0  0  0  0  0  0  0
   38.9720   35.6170   40.3950 H   0  0  0  0  0  0  0  0  0  0  0  0
   41.0470   35.2970   39.1320 H   0  0  0  0  0  0  0  0  0  0  0  0
   42.2960   33.0250   38.8100 O   0  0  0  0  0  0  0  0  0  0  0  0
   42.1930   33.0100   37.3710 C   0  0  0  0  0  0  0  0  0  0  0  0
   42.3980   34.3090   36.8970 F   0  0  0  0  0  0  0  0  0  0  0  0
   43.2210   32.1780   36.9050 F   0  0  0  0  0  0  0  0  0  0  0  0
   40.9710   32.4920   36.9420 F   0  0  0  0  0  0  0  0  0  0  0  0
  1  2  1  0  0  0  0
  1  3  1  0  0  0  0
  4  5  2  0  0  0  0
  6  4  1  0  0  0  0
  6  1  1  0  0  0  0
  7  6  1  0  0  0  0
  8  9  1  0  0  0  0
  9 10  2  0  0  0  0
  9  4  1  0  0  0  0
 10 11  1  0  0  0  0
 12 13  1  0  0  0  0
 12 10  1  0  0  0  0
 14 12  2  0  0  0  0
 15  8  2  0  0  0  0
 15 14  1  0  0  0  0
 17 16  1  0  0  0  0
 17  8  1  0  0  0  0
 18 17  2  0  0  0  0
 19 17  2  0  0  0  0
 20 21  2  0  0  0  0
 21  1  1  0  0  0  0
 22 28  1  0  0  0  0
 22 27  1  0  0  0  0
 23 22  2  0  0  0  0
 24 23  1  0  0  0  0
 24 25  2  0  0  0  0
 25 26  1  0  0  0  0
 26 27  2  0  0  0  0
 26 20  1  0  0  0  0
 29 23  1  0  0  0  0
 30 24  1  0  0  0  0
 31 30  1  0  0  0  0
 32 31  1  0  0  0  0
 33 31  1  0  0  0  0
 34 31  1  0  0  0  0
M  END
>  <minimizedAffinity>
-5.41336203

$$$$

 OpenBabel03242520543D

 34 35  0  0  0  0  0  0  0  0999 V2000
   36.4980   29.8460   41.3070 C   0  0  0  0  0  0  0  0  0  0  0  0
   35.7570   29.8200   42.1280 H   0  0  0  0  0  0  0  0  0  0  0  0
   37.0060   30.8530   41.4220 H   0  0  0  0  0  0  0  0  0  0  0  0
   37.2280   27.8630   42.3120 C   0  0  0  0  0  0  0  0  0  0  0  0
   36.2060   27.5800   42.9790 O   0  0  0  0  0  0  0  0  0  0  0  0
   37.5770   28.8970   41.4220 N   0  0  0  0  0  0  0  0  0  0  0  0
   38.4840   28.9130   40.9560 H   0  0  0  0  0  0  0  0  0  0  0  0
   38.4550   25.6620   41.8940 C   0  0  0  0  0  0  0  0  0  0  0  0
   38.2780   26.8330   42.5670 C   0  0  0  0  0  0  0  0  0  0  0  0
   39.1180   27.2160   43.6200 C   0  0  0  0  0  0  0  0  0  0  0  0
   39.0320   28.1280   44.1910 H   0  0  0  0  0  0  0  0  0  0  0  0
   40.1660   26.3570   43.9820 C   0  0  0  0  0  0  0  0  0  0  0  0
   40.8150   26.6330   44.7870 H   0  0  0  0  0  0  0  0  0  0  0  0
   40.3630   25.1550   43.3050 C   0  0  0  0  0  3  0  0  0  0  0  0
   39.4890   24.8330   42.2620 C   0  0  0  0  0  3  0  0  0  0  0  0
   36.7880   26.3890   40.0840 H   0  0  0  0  0  0  0  0  0  0  0  0
   37.3620   25.2900   40.6130 S   0  0  0  0  0  0  0  0  0  0  0  0
   38.1520   24.6400   39.4920 O   0  0  0  0  0  0  0  0  0  0  0  0
   36.3400   24.2810   41.0900 O   0  0  0  0  0  0  0  0  0  0  0  0
   35.0370   29.0050   39.5660 C   0  0  0  0  0  3  0  0  0  0  0  0
   35.9190   29.8860   39.9520 C   0  0  0  0  0  3  0  0  0  0  0  0
   34.7420   28.9540   35.9290 C   0  0  0  0  0  0  0  0  0  0  0  0
   33.3530   29.0180   35.7390 C   0  0  0  0  0  0  0  0  0  0  0  0
   32.5220   29.0790   36.8490 C   0  0  0  0  0  0  0  0  0  0  0  0
   33.1190   29.0700   38.0620 N   0  0  0  0  0  0  0  0  0  0  0  0
   34.4380   29.0080   38.2310 C   0  0  0  0  0  0  0  0  0  0  0  0
   35.2630   28.9500   37.1630 N   0  0  0  0  0  0  0  0  0  0  0  0
   35.2600   28.9130   34.9830 H   0  0  0  0  0  0  0  0  0  0  0  0
   32.8190   29.0290   34.7990 H   0  0  0  0  0  0  0  0  0  0  0  0
   31.1470   29.1450   36.8030 O   0  0  0  0  0  0  0  0  0  0  0  0
   30.5600   30.4530   36.9620 C   0  0  0  0  0  0  0  0  0  0  0  0
   29.2370   30.4040   36.5100 F   0  0  0  0  0  0  0  0  0  0  0  0
   30.5710   30.7330   38.3350 F   0  0  0  0  0  0  0  0  0  0  0  0
   31.2930   31.4370   36.2980 F   0  0  0  0  0  0  0  0  0  0  0  0
  1  3  1  0  0  0  0
  1  6  1  0  0  0  0
  1  2  1  0  0  0  0
  4  9  1  0  0  0  0
  4  5  2  0  0  0  0
  6  4  1  0  0  0  0
  7  6  1  0  0  0  0
  8 15  2  0  0  0  0
  8  9  1  0  0  0  0
  9 10  2  0  0  0  0
 10 12  1  0  0  0  0
 10 11  1  0  0  0  0
 12 13  1  0  0  0  0
 14 12  2  0  0  0  0
 15 14  1  0  0  0  0
 16 17  1  0  0  0  0
 17 19  2  0  0  0  0
 17  8  1  0  0  0  0
 18 17  2  0  0  0  0
 20 21  2  0  0  0  0
 21  1  1  0  0  0  0
 22 27  1  0  0  0  0
 23 22  2  0  0  0  0
 23 24  1  0  0  0  0
 24 25  2  0  0  0  0
 25 26  1  0  0  0  0
 26 20  1  0  0  0  0
 27 26  2  0  0  0  0
 28 22  1  0  0  0  0
 29 23  1  0  0  0  0
 30 24  1  0  0  0  0
 30 31  1  0  0  0  0
 31 33  1  0  0  0  0
 32 31  1  0  0  0  0
 34 31  1  0  0  0  0
M  END
>  <minimizedAffinity>
-5.40408373

$$$$

 OpenBabel03242520543D

 34 35  0  0  0  0  0  0  0  0999 V2000
   37.4530   29.5960   37.7330 C   0  0  0  0  0  0  0  0  0  0  0  0
   37.8080   29.4240   36.7000 H   0  0  0  0  0  0  0  0  0  0  0  0
   36.3230   29.5640   37.6490 H   0  0  0  0  0  0  0  0  0  0  0  0
   36.5830   28.0590   39.2700 C   0  0  0  0  0  0  0  0  0  0  0  0
   35.3620   28.3110   39.1460 O   0  0  0  0  0  0  0  0  0  0  0  0
   37.7610   28.5440   38.6710 N   0  0  0  0  0  0  0  0  0  0  0  0
   38.6760   28.1620   38.9110 H   0  0  0  0  0  0  0  0  0  0  0  0
   37.0570   27.1840   41.6210 C   0  0  0  0  0  0  0  0  0  0  0  0
   36.7610   26.9990   40.3050 C   0  0  0  0  0  0  0  0  0  0  0  0
   36.5720   25.7220   39.7610 C   0  0  0  0  0  0  0  0  0  0  0  0
   36.3350   25.5090   38.7300 H   0  0  0  0  0  0  0  0  0  0  0  0
   36.6960   24.6120   40.6080 C   0  0  0  0  0  0  0  0  0  0  0  0
   36.5570   23.6300   40.2070 H   0  0  0  0  0  0  0  0  0  0  0  0
   36.9980   24.7810   41.9580 C   0  0  0  0  0  3  0  0  0  0  0  0
   37.1740   26.0820   42.4380 C   0  0  0  0  0  3  0  0  0  0  0  0
   36.2100   29.5870   41.9170 H   0  0  0  0  0  0  0  0  0  0  0  0
   37.2690   28.7990   42.1870 S   0  0  0  0  0  0  0  0  0  0  0  0
   37.3950   28.7580   43.6980 O   0  0  0  0  0  0  0  0  0  0  0  0
   38.5610   29.3660   41.6410 O   0  0  0  0  0  0  0  0  0  0  0  0
   38.9380   31.2670   38.6680 C   0  0  0  0  0  3  0  0  0  0  0  0
   37.7390   30.9370   38.2710 C   0  0  0  0  0  3  0  0  0  0  0  0
   38.5300   34.5480   40.2110 C   0  0  0  0  0  0  0  0  0  0  0  0
   39.8420   35.0460   40.2130 C   0  0  0  0  0  0  0  0  0  0  0  0
   40.8610   34.2630   39.6880 C   0  0  0  0  0  0  0  0  0  0  0  0
   40.5130   33.0500   39.2030 N   0  0  0  0  0  0  0  0  0  0  0  0
   39.2650   32.5870   39.2080 C   0  0  0  0  0  0  0  0  0  0  0  0
   38.2590   33.3350   39.7130 N   0  0  0  0  0  0  0  0  0  0  0  0
   37.8460   35.2610   40.6450 H   0  0  0  0  0  0  0  0  0  0  0  0
   40.1810   36.0030   40.5830 H   0  0  0  0  0  0  0  0  0  0  0  0
   42.1870   34.6290   39.6280 O   0  0  0  0  0  0  0  0  0  0  0  0
   43.0870   33.9420   40.5230 C   0  0  0  0  0  0  0  0  0  0  0  0
   44.0460   34.8520   40.9740 F   0  0  0  0  0  0  0  0  0  0  0  0
   42.3150   33.5050   41.6080 F   0  0  0  0  0  0  0  0  0  0  0  0
   43.6760   32.8320   39.9170 F   0  0  0  0  0  0  0  0  0  0  0  0
  1 21  1  0  0  0  0
  1  6  1  0  0  0  0
  2  1  1  0  0  0  0
  3  1  1  0  0  0  0
  4  9  1  0  0  0  0
  5  4  2  0  0  0  0
  6  7  1  0  0  0  0
  6  4  1  0  0  0  0
  8 17  1  0  0  0  0
  8 15  1  0  0  0  0
  9  8  2  0  0  0  0
 10  9  1  0  0  0  0
 10 12  2  0  0  0  0
 11 10  1  0  0  0  0
 12 14  1  0  0  0  0
 13 12  1  0  0  0  0
 14 15  2  0  0  0  0
 16 17  1  0  0  0  0
 17 18  2  0  0  0  0
 19 17  2  0  0  0  0
 20 26  1  0  0  0  0
 21 20  2  0  0  0  0
 22 23  1  0  0  0  0
 22 28  1  0  0  0  0
 23 29  1  0  0  0  0
 24 23  2  0  0  0  0
 25 26  2  0  0  0  0
 25 24  1  0  0  0  0
 26 27  1  0  0  0  0
 27 22  2  0  0  0  0
 30 24  1  0  0  0  0
 30 31  1  0  0  0  0
 31 32  1  0  0  0  0
 31 33  1  0  0  0  0
 34 31  1  0  0  0  0
M  END
>  <minimizedAffinity>
-5.40322113

$$$$
