
 OpenBabel03252503273D

 28 29  0  0  0  0  0  0  0  0999 V2000
   45.2310   34.6270   43.0190 C   0  0  0  0  0  0  0  0  0  0  0  0
   46.2050   35.1270   42.1410 C   0  0  0  0  0  0  0  0  0  0  0  0
   47.5280   34.6930   42.3840 C   0  0  0  0  0  0  0  0  0  0  0  0
   47.7390   33.8560   43.4140 N   0  0  0  0  0  0  0  0  0  0  0  0
   46.7730   33.3970   44.2370 C   0  0  0  0  0  0  0  0  0  0  0  0
   45.4970   33.7960   44.0280 N   0  0  0  0  0  0  0  0  0  0  0  0
   43.2590   34.3580   41.7540 C   0  0  0  0  0  0  0  0  0  0  0  0
   43.9720   33.5210   41.0920 O   0  0  0  0  0  0  0  0  0  0  0  0
   43.8550   35.0050   42.8630 N   0  0  0  0  0  0  0  0  0  0  0  0
   45.9300   35.7870   41.3550 H   0  0  0  0  0  0  0  0  0  0  0  0
   47.0620   32.7260   45.0350 H   0  0  0  0  0  0  0  0  0  0  0  0
   43.2190   35.6300   43.3700 H   0  0  0  0  0  0  0  0  0  0  0  0
   41.0000   33.4890   41.1410 C   0  0  0  0  0  0  0  0  0  0  0  0
   41.9050   34.5010   41.2250 C   0  0  0  0  0  0  0  0  0  0  0  0
   41.6000   35.7800   40.8040 C   0  0  0  0  0  0  0  0  0  0  0  0
   42.2900   36.6090   40.8540 H   0  0  0  0  0  0  0  0  0  0  0  0
   40.3490   36.1010   40.2700 C   0  0  0  0  0  0  0  0  0  0  0  0
   40.0620   37.0840   39.9260 H   0  0  0  0  0  0  0  0  0  0  0  0
   39.4420   35.0370   40.1970 C   0  0  0  0  0  0  0  0  0  0  0  0
   39.7300   33.7510   40.6140 C   0  0  0  0  0  0  0  0  0  0  0  0
   42.6510   31.9920   42.3580 H   0  0  0  0  0  0  0  0  0  0  0  0
   41.4490   31.9160   41.6870 S   0  0  0  0  0  0  0  0  0  0  0  0
   40.4430   31.3690   42.6740 O   0  0  0  0  0  0  0  0  0  0  0  0
   41.5410   30.9100   40.5600 O   0  0  0  0  0  0  0  0  0  0  0  0
   48.5300   35.2260   41.4550 C   0  0  0  0  0  0  0  0  0  0  0  0
   49.7180   34.4960   41.6200 F   0  0  0  0  0  0  0  0  0  0  0  0
   48.8250   36.5090   41.8700 F   0  0  0  0  0  0  0  0  0  0  0  0
   48.1710   35.1330   40.1420 F   0  0  0  0  0  0  0  0  0  0  0  0
  1  6  1  0  0  0  0
  2  3  1  0  0  0  0
  2  1  2  0  0  0  0
  3  4  2  0  0  0  0
  4  5  1  0  0  0  0
  5 11  1  0  0  0  0
  6  5  2  0  0  0  0
  7  9  1  0  0  0  0
  8  7  2  0  0  0  0
  9  1  1  0  0  0  0
  9 12  1  0  0  0  0
 10  2  1  0  0  0  0
 13 14  1  0  0  0  0
 13 22  1  0  0  0  0
 14  7  1  0  0  0  0
 15 16  1  0  0  0  0
 15 14  2  0  0  0  0
 17 15  1  0  0  0  0
 18 17  1  0  0  0  0
 19 17  2  0  0  0  0
 19 20  1  0  0  0  0
 20 13  2  0  0  0  0
 22 21  1  0  0  0  0
 22 23  2  0  0  0  0
 24 22  2  0  0  0  0
 25 26  1  0  0  0  0
 25 27  1  0  0  0  0
 25  3  1  0  0  0  0
 28 25  1  0  0  0  0
M  END
>  <minimizedAffinity>
-6.57569456

>  <minimizedRMSD>
1.10306203

$$$$
