REMARK  Name = 
REMARK  7 active torsions:
REMARK  status: ('A' for Active; 'I' for Inactive)
REMARK    1  A    between atoms: C_3  and  O_13
REMARK    2  A    between atoms: C_5  and  C_7
REMARK    3  A    between atoms: C_8  and  C_9
REMARK    4  A    between atoms: C_9  and  N_12
REMARK    5  A    between atoms: C_10  and  C_30
REMARK    6  A    between atoms: O_13  and  C_14
REMARK    7  A    between atoms: S_26  and  C_29
REMARK                            x       y       z     vdW  Elec       q    Type
REMARK                         _______ _______ _______ _____ _____    ______ ____
ROOT
ATOM      1  C   UNL     1      47.162  31.619  47.639  0.00  0.00    +0.000 C 
ATOM      2  H   UNL     1      47.533  31.972  48.619  0.00  0.00    +0.000 HD
ATOM      3  H   UNL     1      48.075  31.170  47.140  0.00  0.00    +0.000 HD
ENDROOT
BRANCH   1   6
ATOM      4  C   UNL     1      45.383  30.657  48.817  0.00  0.00    +0.000 C 
ATOM      5  O   UNL     1      45.254  31.507  49.729  0.00  0.00    +0.000 OA
ATOM      6  N   UNL     1      46.224  30.525  47.696  0.00  0.00    +0.000 N 
ATOM      7  H   UNL     1      46.131  29.740  47.051  0.00  0.00    +0.000 HD
BRANCH   4   9
ATOM      8  C   UNL     1      43.742  28.850  48.066  0.00  0.00    +0.000 A 
ATOM      9  C   UNL     1      44.393  29.560  49.029  0.00  0.00    +0.000 A 
ATOM     10  C   UNL     1      44.195  29.312  50.393  0.00  0.00    +0.000 A 
ATOM     11  H   UNL     1      44.680  29.837  51.203  0.00  0.00    +0.000 HD
ATOM     12  C   UNL     1      43.298  28.301  50.763  0.00  0.00    +0.000 A 
ATOM     13  H   UNL     1      43.133  28.101  51.801  0.00  0.00    +0.000 HD
ATOM     14  C   UNL     1      42.623  27.564  49.793  0.00  0.00    +0.000 A 
ATOM     15  C   UNL     1      42.865  27.861  48.449  0.00  0.00    +0.000 A 
BRANCH   8  17
ATOM     16  H   UNL     1      44.787  30.365  46.278  0.00  0.00    +0.000 HD
ATOM     17  S   UNL     1      44.060  29.238  46.416  0.00  0.00    +0.000 S 
ATOM     18  O   UNL     1      44.892  28.119  45.819  0.00  0.00    +0.000 OA
ATOM     19  O   UNL     1      42.761  29.294  45.645  0.00  0.00    +0.000 OA
ENDBRANCH   8  17
ENDBRANCH   4   9
ENDBRANCH   1   6
BRANCH   1  21
ATOM     20  C   UNL     1      46.864  32.558  45.425  0.00  0.00    +0.000 C 
ATOM     21  C   UNL     1      46.734  32.686  46.718  0.00  0.00    +0.000 C 
BRANCH  20  26
ATOM     22  C   UNL     1      44.758  34.938  43.632  0.00  0.00    +0.000 A 
ATOM     23  C   UNL     1      45.659  35.511  42.721  0.00  0.00    +0.000 A 
ATOM     24  C   UNL     1      46.980  35.085  42.720  0.00  0.00    +0.000 A 
ATOM     25  N   UNL     1      47.315  34.129  43.616  0.00  0.00    +0.000 NA
ATOM     26  C   UNL     1      46.452  33.593  44.476  0.00  0.00    +0.000 A 
ATOM     27  N   UNL     1      45.162  33.994  44.491  0.00  0.00    +0.000 NA
ATOM     28  H   UNL     1      43.772  35.362  43.518  0.00  0.00    +0.000 HD
ATOM     29  H   UNL     1      45.452  36.274  41.984  0.00  0.00    +0.000 HD
BRANCH  24  30
ATOM     30  O   UNL     1      47.963  35.562  41.882  0.00  0.00    +0.000 OA
BRANCH  30  31
ATOM     31  C   UNL     1      48.199  34.811  40.673  0.00  0.00    +0.000 C 
ATOM     32  F   UNL     1      46.966  34.405  40.154  0.00  0.00    +0.000 F 
ATOM     33  F   UNL     1      48.816  35.688  39.771  0.00  0.00    +0.000 F 
ATOM     34  F   UNL     1      49.047  33.725  40.892  0.00  0.00    +0.000 F 
ENDBRANCH  30  31
ENDBRANCH  24  30
ENDBRANCH  20  26
ENDBRANCH   1  21
TORSDOF 7
