
 OpenBabel03242520443D

 25 26  0  0  0  0  0  0  0  0999 V2000
   49.1560   33.1250   42.2060 C   0  0  0  0  0  0  0  0  0  0  0  0
   50.2720   33.6850   42.1790 O   0  0  0  0  0  0  0  0  0  0  0  0
   45.9030   34.2070   40.8860 C   0  0  0  0  0  0  0  0  0  0  0  0
   47.1870   33.6070   40.9910 C   0  0  0  0  0  0  0  0  0  0  0  0
   47.8760   33.7640   42.1880 C   0  0  0  0  0  0  0  0  0  0  0  0
   47.3290   34.4610   43.1950 N   0  0  0  0  0  0  0  0  0  0  0  0
   46.0950   35.0250   43.0650 C   0  0  0  0  0  0  0  0  0  0  0  0
   45.3960   34.8960   41.9220 N   0  0  0  0  0  0  0  0  0  0  0  0
   45.1460   34.0900   39.7040 N   0  0  0  0  0  0  0  0  0  0  0  0
   47.4950   33.0800   40.1020 H   0  0  0  0  0  0  0  0  0  0  0  0
   45.6320   35.5860   43.8480 H   0  0  0  0  0  0  0  0  0  0  0  0
   45.3330   34.5470   38.7850 H   0  0  0  0  0  0  0  0  0  0  0  0
   44.3200   33.4530   39.8580 H   0  0  0  0  0  0  0  0  0  0  0  0
   49.6880   30.9480   41.1700 C   0  0  0  0  0  0  0  0  0  0  0  0
   49.2360   31.6550   42.2620 C   0  0  0  0  0  0  0  0  0  0  0  0
   48.8690   30.9580   43.3800 C   0  0  0  0  0  0  0  0  0  0  0  0
   48.5070   31.4570   44.2670 H   0  0  0  0  0  0  0  0  0  0  0  0
   48.9270   29.5850   43.4770 C   0  0  0  0  0  0  0  0  0  0  0  0
   48.6380   29.0370   44.3580 H   0  0  0  0  0  0  0  0  0  0  0  0
   49.3760   28.8510   42.3970 C   0  0  0  0  0  3  0  0  0  0  0  0
   49.7460   29.5540   41.2690 C   0  0  0  0  0  3  0  0  0  0  0  0
   49.7830   33.0620   39.7460 H   0  0  0  0  0  0  0  0  0  0  0  0
   50.1730   31.7380   39.7150 S   0  0  0  0  0  0  0  0  0  0  0  0
   51.6100   31.5660   39.3610 O   0  0  0  0  0  0  0  0  0  0  0  0
   49.3920   31.1210   38.5750 O   0  0  0  0  0  0  0  0  0  0  0  0
  1 15  1  0  0  0  0
  2  1  2  0  0  0  0
  3  4  2  0  0  0  0
  3  8  1  0  0  0  0
  4  5  1  0  0  0  0
  5  1  1  0  0  0  0
  5  6  2  0  0  0  0
  7  6  1  0  0  0  0
  7 11  1  0  0  0  0
  8  7  2  0  0  0  0
  9 13  1  0  0  0  0
  9  3  1  0  0  0  0
 10  4  1  0  0  0  0
 12  9  1  0  0  0  0
 14 21  2  0  0  0  0
 14 15  1  0  0  0  0
 15 16  2  0  0  0  0
 16 18  1  0  0  0  0
 16 17  1  0  0  0  0
 18 19  1  0  0  0  0
 20 18  2  0  0  0  0
 21 20  1  0  0  0  0
 23 22  1  0  0  0  0
 23 14  1  0  0  0  0
 24 23  2  0  0  0  0
 25 23  2  0  0  0  0
M  END
>  <minimizedAffinity>
-3.34749722

>  <minimizedRMSD>
4.48192883

$$$$
