REMARK  Name = 
REMARK  3 active torsions:
REMARK  status: ('A' for Active; 'I' for Inactive)
REMARK    1  A    between atoms: C_3  and  C_8
REMARK    2  A    between atoms: C_8  and  C_19
REMARK    3  A    between atoms: S_15  and  C_18
REMARK                            x       y       z     vdW  Elec       q    Type
REMARK                         _______ _______ _______ _____ _____    ______ ____
ROOT
ATOM      1  C   UNL     1      47.733  34.985  41.687  0.00  0.00    +0.000 C 
ATOM      2  O   UNL     1      48.669  35.809  41.620  0.00  0.00    +0.000 OA
ENDROOT
BRANCH   1   5
ATOM      3  C   UNL     1      44.911  35.145  44.034  0.00  0.00    +0.000 A 
ATOM      4  C   UNL     1      45.758  35.393  42.921  0.00  0.00    +0.000 A 
ATOM      5  C   UNL     1      46.946  34.675  42.841  0.00  0.00    +0.000 A 
ATOM      6  N   UNL     1      47.261  33.784  43.793  0.00  0.00    +0.000 NA
ATOM      7  C   UNL     1      46.428  33.567  44.850  0.00  0.00    +0.000 A 
ATOM      8  N   UNL     1      45.269  34.243  44.963  0.00  0.00    +0.000 NA
ATOM      9  N   UNL     1      43.692  35.834  44.182  0.00  0.00    +0.000 N 
ATOM     10  H   UNL     1      45.374  36.135  42.239  0.00  0.00    +0.000 HD
ATOM     11  H   UNL     1      46.650  32.865  45.625  0.00  0.00    +0.000 HD
ATOM     12  H   UNL     1      43.559  36.841  44.422  0.00  0.00    +0.000 HD
ATOM     13  H   UNL     1      42.879  35.184  44.013  0.00  0.00    +0.000 HD
ENDBRANCH   1   5
BRANCH   1  15
ATOM     14  C   UNL     1      47.262  32.934  40.395  0.00  0.00    +0.000 A 
ATOM     15  C   UNL     1      47.462  34.297  40.413  0.00  0.00    +0.000 A 
ATOM     16  C   UNL     1      47.403  34.978  39.229  0.00  0.00    +0.000 A 
ATOM     17  H   UNL     1      47.552  36.046  39.179  0.00  0.00    +0.000 HD
ATOM     18  C   UNL     1      47.154  34.376  38.014  0.00  0.00    +0.000 A 
ATOM     19  H   UNL     1      47.107  34.913  37.081  0.00  0.00    +0.000 HD
ATOM     20  C   UNL     1      46.949  33.012  37.967  0.00  0.00    +0.000 A 
ATOM     21  C   UNL     1      47.009  32.325  39.163  0.00  0.00    +0.000 A 
BRANCH  14  23
ATOM     22  H   UNL     1      48.609  31.559  42.068  0.00  0.00    +0.000 HD
ATOM     23  S   UNL     1      47.317  31.991  41.839  0.00  0.00    +0.000 S 
ATOM     24  O   UNL     1      46.702  32.638  43.031  0.00  0.00    +0.000 OA
ATOM     25  O   UNL     1      46.515  30.731  41.594  0.00  0.00    +0.000 OA
ENDBRANCH  14  23
ENDBRANCH   1  15
TORSDOF 3
