
 OpenBabel03242520543D

 34 35  0  0  0  0  0  0  0  0999 V2000
   48.7090   29.4960   47.1430 C   0  0  0  0  0  0  0  0  0  0  0  0
   48.8590   30.0370   48.0950 H   0  0  0  0  0  0  0  0  0  0  0  0
   49.6040   29.7870   46.5120 H   0  0  0  0  0  0  0  0  0  0  0  0
   50.0840   27.6240   46.8570 C   0  0  0  0  0  0  0  0  0  0  0  0
   51.1420   28.1950   46.5050 O   0  0  0  0  0  0  0  0  0  0  0  0
   48.7990   28.0600   47.2320 N   0  0  0  0  0  0  0  0  0  0  0  0
   48.0760   27.3990   47.5180 H   0  0  0  0  0  0  0  0  0  0  0  0
   49.3610   25.1820   47.0490 C   0  0  0  0  0  0  0  0  0  0  0  0
   50.3020   26.1470   46.8530 C   0  0  0  0  0  0  0  0  0  0  0  0
   51.6440   25.8330   46.6040 C   0  0  0  0  0  0  0  0  0  0  0  0
   52.4360   26.5500   46.4390 H   0  0  0  0  0  0  0  0  0  0  0  0
   52.0150   24.4830   46.5580 C   0  0  0  0  0  0  0  0  0  0  0  0
   53.0370   24.2260   46.3720 H   0  0  0  0  0  0  0  0  0  0  0  0
   51.0670   23.4810   46.7560 C   0  0  0  0  0  3  0  0  0  0  0  0
   49.7450   23.8610   47.0010 C   0  0  0  0  0  3  0  0  0  0  0  0
   47.6670   26.8400   48.0310 H   0  0  0  0  0  0  0  0  0  0  0  0
   47.7370   25.6790   47.3490 S   0  0  0  0  0  0  0  0  0  0  0  0
   47.0660   25.9300   46.0120 O   0  0  0  0  0  0  0  0  0  0  0  0
   46.9790   24.5640   48.0320 O   0  0  0  0  0  0  0  0  0  0  0  0
   47.6060   30.0270   45.0510 C   0  0  0  0  0  3  0  0  0  0  0  0
   47.5490   29.9440   46.3530 C   0  0  0  0  0  3  0  0  0  0  0  0
   44.3480   30.0420   43.4090 C   0  0  0  0  0  0  0  0  0  0  0  0
   44.3690   31.2570   42.7070 C   0  0  0  0  0  0  0  0  0  0  0  0
   45.4930   32.0670   42.7950 C   0  0  0  0  0  0  0  0  0  0  0  0
   46.5100   31.6210   43.5680 N   0  0  0  0  0  0  0  0  0  0  0  0
   46.4780   30.4670   44.2290 C   0  0  0  0  0  0  0  0  0  0  0  0
   45.3930   29.6650   44.1550 N   0  0  0  0  0  0  0  0  0  0  0  0
   43.4170   29.5200   43.2470 H   0  0  0  0  0  0  0  0  0  0  0  0
   43.5930   31.6650   42.0760 H   0  0  0  0  0  0  0  0  0  0  0  0
   45.6450   33.2790   42.1600 O   0  0  0  0  0  0  0  0  0  0  0  0
   46.6300   33.3360   41.1070 C   0  0  0  0  0  0  0  0  0  0  0  0
   46.5450   32.1600   40.3550 F   0  0  0  0  0  0  0  0  0  0  0  0
   46.2900   34.4290   40.2990 F   0  0  0  0  0  0  0  0  0  0  0  0
   47.9170   33.5340   41.6090 F   0  0  0  0  0  0  0  0  0  0  0  0
  1  6  1  0  0  0  0
  1  2  1  0  0  0  0
  3  1  1  0  0  0  0
  4  6  1  0  0  0  0
  5  4  2  0  0  0  0
  6  7  1  0  0  0  0
  8 17  1  0  0  0  0
  9  4  1  0  0  0  0
  9  8  2  0  0  0  0
 10  9  1  0  0  0  0
 11 10  1  0  0  0  0
 12 10  2  0  0  0  0
 12 14  1  0  0  0  0
 13 12  1  0  0  0  0
 14 15  2  0  0  0  0
 15  8  1  0  0  0  0
 17 16  1  0  0  0  0
 17 19  2  0  0  0  0
 18 17  2  0  0  0  0
 20 21  2  0  0  0  0
 21  1  1  0  0  0  0
 22 27  1  0  0  0  0
 23 24  1  0  0  0  0
 23 22  2  0  0  0  0
 24 25  2  0  0  0  0
 25 26  1  0  0  0  0
 26 20  1  0  0  0  0
 27 26  2  0  0  0  0
 28 22  1  0  0  0  0
 29 23  1  0  0  0  0
 30 24  1  0  0  0  0
 31 34  1  0  0  0  0
 31 30  1  0  0  0  0
 32 31  1  0  0  0  0
 33 31  1  0  0  0  0
M  END
>  <minimizedAffinity>
-2.10156035

>  <minimizedRMSD>
5.48100471

$$$$
