
 OpenBabel03252503343D

 25 26  0  0  0  0  0  0  0  0999 V2000
   46.6210   33.5060   41.0760 C   0  0  0  0  0  0  0  0  0  0  0  0
   45.4580   33.0330   41.2580 O   0  0  0  0  0  0  0  0  0  0  0  0
   47.0670   34.3290   42.1390 N   0  0  0  0  0  0  0  0  0  0  0  0
   48.0650   34.6740   42.1280 H   0  0  0  0  0  0  0  0  0  0  0  0
   44.6060   36.1070   44.3050 C   0  0  0  0  0  0  0  0  0  0  0  0
   45.4000   35.8330   43.1800 C   0  0  0  0  0  0  0  0  0  0  0  0
   46.2220   34.7060   43.2130 C   0  0  0  0  0  0  0  0  0  0  0  0
   46.2250   33.9190   44.3210 N   0  0  0  0  0  0  0  0  0  0  0  0
   45.4380   34.2160   45.4000 C   0  0  0  0  0  0  0  0  0  0  0  0
   44.6380   35.3070   45.3780 N   0  0  0  0  0  0  0  0  0  0  0  0
   43.9970   36.9960   44.2010 H   0  0  0  0  0  0  0  0  0  0  0  0
   45.4370   36.4230   42.2680 H   0  0  0  0  0  0  0  0  0  0  0  0
   45.3740   33.6590   46.2970 H   0  0  0  0  0  0  0  0  0  0  0  0
   48.5880   32.4530   40.1330 C   0  0  0  0  0  0  0  0  0  0  0  0
   47.4710   33.2610   39.9040 C   0  0  0  0  0  0  0  0  0  0  0  0
   47.1800   33.7930   38.6680 C   0  0  0  0  0  0  0  0  0  0  0  0
   46.3030   34.4170   38.5240 H   0  0  0  0  0  0  0  0  0  0  0  0
   48.0460   33.5040   37.6190 C   0  0  0  0  0  0  0  0  0  0  0  0
   47.8570   33.8920   36.6210 H   0  0  0  0  0  0  0  0  0  0  0  0
   49.1720   32.7070   37.7840 C   0  0  0  0  0  3  0  0  0  0  0  0
   49.4310   32.1890   39.0530 C   0  0  0  0  0  3  0  0  0  0  0  0
   49.9240   30.8550   41.5540 H   0  0  0  0  0  0  0  0  0  0  0  0
   48.9260   31.7920   41.7310 S   0  0  0  0  0  0  0  0  0  0  0  0
   47.7560   31.0950   42.3190 O   0  0  0  0  0  0  0  0  0  0  0  0
   49.4820   32.8600   42.6380 O   0  0  0  0  0  0  0  0  0  0  0  0
  1  2  2  0  0  0  0
  1  3  1  0  0  0  0
  3  7  1  0  0  0  0
  4  3  1  0  0  0  0
  5 10  1  0  0  0  0
  6  7  1  0  0  0  0
  6  5  2  0  0  0  0
  7  8  2  0  0  0  0
  8  9  1  0  0  0  0
  9 13  1  0  0  0  0
 10  9  2  0  0  0  0
 11  5  1  0  0  0  0
 12  6  1  0  0  0  0
 14 23  1  0  0  0  0
 15 14  1  0  0  0  0
 15  1  1  0  0  0  0
 16 15  2  0  0  0  0
 17 16  1  0  0  0  0
 18 20  2  0  0  0  0
 18 16  1  0  0  0  0
 19 18  1  0  0  0  0
 20 21  1  0  0  0  0
 21 14  2  0  0  0  0
 22 23  1  0  0  0  0
 23 24  2  0  0  0  0
 23 25  2  0  0  0  0
M  END
>  <minimizedAffinity>
-4.14701509

>  <minimizedRMSD>
1.23206639

$$$$
