
     RDKit          3D

 42 44  0  0  0  0  0  0  0  0999 V2000
   46.3160   34.9949   41.9088 C   0  0  0  0  0  0  0  0  0  0  0  0
   44.8566   34.9420   41.6933 C   0  0  0  0  0  0  0  0  0  0  0  0
   43.9810   35.4344   42.6984 C   0  0  0  0  0  0  0  0  0  0  0  0
   42.3175   35.1557   41.9776 S   0  0  0  0  0  0  0  0  0  0  0  0
   43.1038   34.4048   40.4068 C   0  0  0  0  0  0  0  0  0  0  0  0
   44.2195   34.4802   40.6484 N   0  0  0  0  0  0  0  0  0  0  0  0
   42.3551   33.9325   39.3316 O   0  0  0  0  0  0  0  0  0  0  0  0
   40.4012   34.3964   37.6075 O   0  0  0  0  0  0  0  0  0  0  0  0
   41.4860   35.0730   38.4273 P   0  0  0  0  0  0  0  0  0  0  0  0
   40.7680   36.1638   39.4958 O   0  0  0  0  0  0  0  0  0  0  0  0
   42.5531   35.9272   37.4210 O   0  0  0  0  0  0  0  0  0  0  0  0
   47.1410   34.3486   40.8288 C   0  0  0  0  0  0  0  0  0  0  0  0
   48.4646   33.9220   41.2916 C   0  0  0  0  0  0  0  0  0  0  0  0
   48.9294   32.7171   40.7976 C   0  0  0  0  0  0  0  0  0  0  0  0
   50.1756   32.2225   41.1597 C   0  0  0  0  0  0  0  0  0  0  0  0
   50.9151   32.9732   42.0186 N   0  0  0  0  0  0  0  0  0  0  0  0
   50.4282   34.1584   42.4891 C   0  0  0  0  0  0  0  0  0  0  0  0
   49.2365   34.5915   42.1181 N   0  0  0  0  0  0  0  0  0  0  0  0
   47.9318   31.7508   39.6380 S   0  0  0  0  0  0  0  0  0  0  0  0
   46.5814   36.0721   41.9526 H   0  0  0  0  0  0  0  0  0  0  0  0
   46.6314   34.4959   42.8680 H   0  0  0  0  0  0  0  0  0  0  0  0
   44.2406   35.8661   43.6519 H   0  0  0  0  0  0  0  0  0  0  0  0
   40.3400   36.9308   39.0278 H   0  0  0  0  0  0  0  0  0  0  0  0
   43.0913   35.2481   36.9594 H   0  0  0  0  0  0  0  0  0  0  0  0
   47.2564   35.0904   39.9801 H   0  0  0  0  0  0  0  0  0  0  0  0
   46.5368   33.5292   40.3998 H   0  0  0  0  0  0  0  0  0  0  0  0
   50.5977   31.3119   40.8225 H   0  0  0  0  0  0  0  0  0  0  0  0
   50.9635   34.8047   43.1743 H   0  0  0  0  0  0  0  0  0  0  0  0
   45.8125   32.0221   37.9006 H   0  0  0  0  0  0  0  0  0  0  0  0
   45.1212   30.9329   38.3116 S   0  0  0  0  0  0  0  0  0  0  0  0
   43.6581   31.2820   38.4349 O   0  0  0  0  0  0  0  0  0  0  0  0
   45.2150   29.8846   37.2358 O   0  0  0  0  0  0  0  0  0  0  0  0
   45.7249   30.2593   39.8021 C   0  0  0  0  0  0  0  0  0  0  0  0
   46.9224   30.5447   40.4605 C   0  0  0  0  0  0  0  0  0  0  0  0
   47.1602   29.8702   41.6369 C   0  0  0  0  0  0  0  0  0  0  0  0
   48.0774   30.1105   42.1152 H   0  0  0  0  0  0  0  0  0  0  0  0
   46.2928   28.9498   42.1799 C   0  0  0  0  0  0  0  0  0  0  0  0
   46.5689   28.4733   43.1071 H   0  0  0  0  0  0  0  0  0  0  0  0
   45.1095   28.6656   41.5322 C   0  0  0  0  0  0  0  0  0  0  0  0
   44.8440   29.3329   40.3419 C   0  0  0  0  0  0  0  0  0  0  0  0
   44.4516   27.9384   41.9855 H   0  0  0  0  0  0  0  0  0  0  0  0
   43.8834   29.0268   39.9237 H   0  0  0  0  0  0  0  0  0  0  0  0
  2  1  1  0
  2  3  2  0
  4  3  1  0
  5  6  2  0
  5  4  1  0
  6  2  1  0
  7  5  1  0
  8  9  2  0
  9  7  1  0
  9 10  1  0
 11  9  1  0
 12 13  1  0
 12  1  1  0
 13 18  2  0
 14 15  2  0
 14 13  1  0
 15 16  1  0
 16 17  2  0
 18 17  1  0
 19 14  1  0
  1 20  1  0
  1 21  1  0
  3 22  1  0
 10 23  1  0
 11 24  1  0
 12 25  1  0
 12 26  1  0
 15 27  1  0
 17 28  1  0
 29 30  1  0
 30 31  2  0
 30 32  2  0
 30 33  1  0
 33 34  2  0
 34 35  1  0
 35 36  1  0
 35 37  2  0
 37 38  1  0
 37 39  1  0
 39 40  2  0
 40 33  1  0
 39 41  1  0
 40 42  1  0
 19 34  1  0
M  ISO  8  20   8  21   8  22  14  23   3  24   3  25   8  26   8  27  14
M  ISO  4  28  14  29  12  36  15  38  16
M  END
>  <DihAtoms>  (1) 
13,18,33,32

>  <DihDeg>  (1) 
-90.26644043136989

$$$$
