
 OpenBabel03252507453D

 40 42  0  0  0  0  0  0  0  0999 V2000
   48.6870   33.9600   41.2580 C   0  0  0  0  0  0  0  0  0  0  0  0
   48.9160   32.7650   40.6010 C   0  0  0  0  0  0  0  0  0  0  0  0
   50.0640   32.0200   40.8410 C   0  0  0  0  0  0  0  0  0  0  0  0
   50.9470   32.5160   41.7490 N   0  0  0  0  0  0  0  0  0  0  0  0
   50.6900   33.6980   42.3800 C   0  0  0  0  0  0  0  0  0  0  0  0
   49.5850   34.3760   42.1210 N   0  0  0  0  0  0  0  0  0  0  0  0
   50.3090   31.1010   40.3760 H   0  0  0  0  0  0  0  0  0  0  0  0
   51.3490   34.1500   43.1120 H   0  0  0  0  0  0  0  0  0  0  0  0
   47.4480   34.6650   40.9130 C   0  0  0  0  0  0  0  0  0  0  0  0
   47.6980   35.6500   40.4130 H   0  0  0  0  0  0  0  0  0  0  0  0
   46.8260   34.1290   40.1730 H   0  0  0  0  0  0  0  0  0  0  0  0
   46.5770   34.9510   42.1060 C   0  0  0  0  0  0  0  0  0  0  0  0
   46.8100   35.9730   42.4710 H   0  0  0  0  0  0  0  0  0  0  0  0
   46.8820   34.2000   42.8880 H   0  0  0  0  0  0  0  0  0  0  0  0
   45.1270   34.9340   41.8360 C   0  0  0  0  0  0  0  0  0  0  0  0
   44.2330   35.5260   42.7690 C   0  0  0  0  0  0  0  0  0  0  0  0
   42.5890   35.2570   42.0040 S   0  0  0  0  0  0  0  0  0  0  0  0
   43.4040   34.3700   40.5210 C   0  0  0  0  0  0  0  0  0  0  0  0
   44.5110   34.4220   40.8010 N   0  0  0  0  0  0  0  0  0  0  0  0
   44.4730   36.0150   43.7010 H   0  0  0  0  0  0  0  0  0  0  0  0
   42.6780   33.8490   39.4520 O   0  0  0  0  0  0  0  0  0  0  0  0
   40.6880   34.1900   37.7410 O   0  0  0  0  0  0  0  0  0  0  0  0
   41.7390   34.9330   38.5480 P   0  0  0  0  0  0  0  0  0  0  0  0
   40.9670   35.9880   39.6160 O   0  0  0  0  0  0  0  0  0  0  0  0
   40.4930   36.7260   39.1480 H   0  0  0  0  0  0  0  0  0  0  0  0
   42.7470   35.8410   37.5280 O   0  0  0  0  0  0  0  0  0  0  0  0
   43.3190   35.1910   37.0660 H   0  0  0  0  0  0  0  0  0  0  0  0
   47.7350   32.1420   39.3810 S   0  0  0  0  0  0  0  0  0  0  0  0
   45.2250   31.2420   39.2510 C   0  0  0  0  0  0  0  0  0  0  0  0
   46.2770   31.4690   40.1400 C   0  0  0  0  0  0  0  0  0  0  0  0
   46.0540   31.1490   41.4600 C   0  0  0  0  0  0  0  0  0  0  0  0
   46.8720   31.3350   42.1110 H   0  0  0  0  0  0  0  0  0  0  0  0
   44.8700   30.6300   41.9320 C   0  0  0  0  0  0  0  0  0  0  0  0
   44.7920   30.4110   42.9850 H   0  0  0  0  0  0  0  0  0  0  0  0
   43.8290   30.4050   41.0570 C   0  0  0  0  0  3  0  0  0  0  0  0
   44.0280   30.7190   39.7170 C   0  0  0  0  0  3  0  0  0  0  0  0
   45.8920   32.6260   37.1590 H   0  0  0  0  0  0  0  0  0  0  0  0
   45.1750   31.5390   37.5330 S   0  0  0  0  0  0  0  0  0  0  0  0
   43.7510   31.6860   37.0550 O   0  0  0  0  0  0  0  0  0  0  0  0
   45.7360   30.3390   36.8200 O   0  0  0  0  0  0  0  0  0  0  0  0
  1  6  1  0  0  0  0
  2  3  1  0  0  0  0
  2  1  2  0  0  0  0
  3  4  2  0  0  0  0
  4  5  1  0  0  0  0
  5  8  1  0  0  0  0
  6  5  2  0  0  0  0
  7  3  1  0  0  0  0
  9  1  1  0  0  0  0
  9 12  1  0  0  0  0
 10  9  1  0  0  0  0
 11  9  1  0  0  0  0
 12 13  1  0  0  0  0
 12 14  1  0  0  0  0
 15 12  1  0  0  0  0
 15 16  2  0  0  0  0
 16 20  1  0  0  0  0
 17 16  1  0  0  0  0
 18 19  2  0  0  0  0
 18 17  1  0  0  0  0
 19 15  1  0  0  0  0
 21 18  1  0  0  0  0
 22 23  2  0  0  0  0
 23 21  1  0  0  0  0
 23 24  1  0  0  0  0
 25 24  1  0  0  0  0
 26 23  1  0  0  0  0
 27 26  1  0  0  0  0
 28 30  1  0  0  0  0
 28  2  1  0  0  0  0
 29 36  2  0  0  0  0
 29 30  1  0  0  0  0
 30 31  2  0  0  0  0
 31 33  1  0  0  0  0
 31 32  1  0  0  0  0
 33 34  1  0  0  0  0
 35 33  2  0  0  0  0
 36 35  1  0  0  0  0
 37 38  1  0  0  0  0
 38 29  1  0  0  0  0
 39 38  2  0  0  0  0
 40 38  2  0  0  0  0
M  END
>  <minimizedAffinity>
-4.50582981

>  <minimizedRMSD>
1.03138077

$$$$
