
 OpenBabel03252508023D

 45 48  0  0  1  0  0  0  0  0999 V2000
   41.9440   33.2960   41.1140 C   0  0  0  0  0  0  0  0  0  0  0  0
   42.7510   34.3820   41.2880 C   0  0  0  0  0  0  0  0  0  0  0  0
   42.1520   35.6580   41.2540 C   0  0  0  0  0  0  0  0  0  0  0  0
   40.8100   35.8600   41.0570 C   0  0  0  0  0  0  0  0  0  0  0  0
   40.0090   34.7670   40.8840 C   0  0  0  0  0  0  0  0  0  0  0  0
   40.5770   33.5290   40.9150 C   0  0  0  0  0  0  0  0  0  0  0  0
   42.7190   36.5780   41.3740 H   0  0  0  0  0  0  0  0  0  0  0  0
   40.3710   36.8210   41.0340 H   0  0  0  0  0  0  0  0  0  0  0  0
   38.9620   34.8520   40.7280 H   0  0  0  0  0  0  0  0  0  0  0  0
   39.9190   32.6600   40.7740 H   0  0  0  0  0  0  0  0  0  0  0  0
   42.5010   31.7150   41.2240 S   0  0  0  0  0  0  0  0  0  0  0  0
   41.2710   30.9380   40.6510 O   0  0  0  0  0  0  0  0  0  0  0  0
   42.6850   31.2600   42.6190 O   0  0  0  0  0  0  0  0  0  0  0  0
   43.8010   29.4890   40.6240 C   0  0  0  0  0  0  0  0  0  0  0  0
   43.4890   30.8080   40.2130 C   0  0  0  0  0  0  0  0  0  0  0  0
   44.0470   31.0850   38.9380 C   0  0  0  0  0  0  0  0  0  0  0  0
   43.7570   32.1050   38.6110 H   0  0  0  0  0  0  0  0  0  0  0  0
   44.8050   30.3270   38.0750 C   0  0  0  0  0  0  0  0  0  0  0  0
   45.1180   30.7480   37.1590 H   0  0  0  0  0  0  0  0  0  0  0  0
   45.0030   29.1110   38.6250 C   0  0  0  0  0  3  0  0  0  0  0  0
   44.5520   28.6530   39.8310 C   0  0  0  0  0  3  0  0  0  0  0  0
   42.8610   29.7350   43.0510 H   0  0  0  0  0  0  0  0  0  0  0  0
   43.2810   28.8160   42.1590 S   0  0  0  0  0  0  0  0  0  0  0  0
   44.2950   27.8310   42.7150 O   0  0  0  0  0  0  0  0  0  0  0  0
   42.0560   27.9270   41.9610 O   0  0  0  0  0  0  0  0  0  0  0  0
   44.1820   34.2750   41.5000 C   0  0  0  0  0  0  0  0  0  0  0  0
   45.0350   34.0960   40.5760 O   0  0  0  0  0  0  0  0  0  0  0  0
   44.5590   34.3930   42.8840 C   0  0  0  0  0  0  0  0  0  0  0  0
   44.3120   35.6740   43.4900 C   0  0  0  0  0  0  0  0  0  0  0  0
   44.6600   35.8060   44.8240 C   0  0  0  0  0  0  0  0  0  0  0  0
   45.2070   34.7370   45.4650 N   0  0  0  0  0  0  0  0  0  0  0  0
   45.4210   33.5370   44.8370 C   0  0  0  0  0  0  0  0  0  0  0  0
   45.0990   33.4100   43.5980 N   0  0  0  0  0  0  0  0  0  0  0  0
   43.8970   36.5470   43.0650 H   0  0  0  0  0  0  0  0  0  0  0  0
   44.5230   36.7190   45.3880 H   0  0  0  0  0  0  0  0  0  0  0  0
   46.0110   32.4320   45.6150 C   0  0  1  0  0  0  0  0  0  0  0  0
   46.9610   32.7530   46.7490 C   0  0  0  0  0  0  0  0  0  0  0  0
   45.5430   32.3460   47.0240 C   0  0  1  0  0  0  0  0  0  0  0  0
   46.1980   31.4860   45.0870 H   0  0  0  0  0  0  0  0  0  0  0  0
   47.2500   33.8360   46.7640 H   0  0  0  0  0  0  0  0  0  0  0  0
   47.7880   32.0470   46.9120 H   0  0  0  0  0  0  0  0  0  0  0  0
   45.4600   31.3220   47.4570 H   0  0  0  0  0  0  0  0  0  0  0  0
   44.7650   33.4230   47.5990 N   0  0  0  0  0  0  0  0  0  0  0  0
   44.1170   33.0470   48.3260 H   0  0  0  0  0  0  0  0  0  0  0  0
   45.3160   34.2330   47.9090 H   0  0  0  0  0  0  0  0  0  0  0  0
  1 11  1  0  0  0  0
  1  2  1  0  0  0  0
  2 26  1  0  0  0  0
  3  2  2  0  0  0  0
  3  7  1  0  0  0  0
  4  3  1  0  0  0  0
  5  6  1  0  0  0  0
  5  4  2  0  0  0  0
  6  1  2  0  0  0  0
  8  4  1  0  0  0  0
  9  5  1  0  0  0  0
 10  6  1  0  0  0  0
 11 13  2  0  0  0  0
 12 11  2  0  0  0  0
 14 23  1  0  0  0  0
 15 14  1  0  0  0  0
 15 11  1  0  0  0  0
 16 15  2  0  0  0  0
 17 16  1  0  0  0  0
 18 20  2  0  0  0  0
 18 16  1  0  0  0  0
 19 18  1  0  0  0  0
 20 21  1  0  0  0  0
 21 14  2  0  0  0  0
 23 24  2  0  0  0  0
 23 22  1  0  0  0  0
 25 23  2  0  0  0  0
 26 28  1  0  0  0  0
 27 26  2  0  0  0  0
 28 29  2  0  0  0  0
 28 33  1  0  0  0  0
 29 30  1  0  0  0  0
 30 35  1  0  0  0  0
 30 31  2  0  0  0  0
 32 31  1  0  0  0  0
 32 36  1  0  0  0  0
 33 32  2  0  0  0  0
 34 29  1  0  0  0  0
 36 39  1  6  0  0  0
 36 37  1  0  0  0  0
 36 38  1  0  0  0  0
 37 40  1  0  0  0  0
 37 41  1  0  0  0  0
 37 38  1  0  0  0  0
 38 42  1  1  0  0  0
 38 43  1  0  0  0  0
 43 45  1  0  0  0  0
 43 44  1  0  0  0  0
M  END
>  <minimizedAffinity>
-5.56749582

>  <minimizedRMSD>
1.82822204

$$$$
