REMARK  Name = 
REMARK  10 active torsions:
REMARK  status: ('A' for Active; 'I' for Inactive)
REMARK    1  A    between atoms: C_1  and  C_2
REMARK    2  A    between atoms: C_1  and  C_12
REMARK    3  A    between atoms: C_5  and  O_7
REMARK    4  A    between atoms: O_7  and  P_9
REMARK    5  A    between atoms: P_9  and  O_10
REMARK    6  A    between atoms: P_9  and  O_11
REMARK    7  A    between atoms: C_12  and  C_13
REMARK    8  A    between atoms: C_14  and  S_19
REMARK    9  A    between atoms: S_19  and  C_34
REMARK   10  A    between atoms: S_30  and  C_33
REMARK                            x       y       z     vdW  Elec       q    Type
REMARK                         _______ _______ _______ _____ _____    ______ ____
ROOT
ATOM      1  C   UNL     1      48.465  33.922  41.292  0.00  0.00    +0.000 A 
ATOM      2  C   UNL     1      48.929  32.717  40.798  0.00  0.00    +0.000 A 
ATOM      3  C   UNL     1      50.176  32.222  41.160  0.00  0.00    +0.000 A 
ATOM      4  N   UNL     1      50.915  32.973  42.019  0.00  0.00    +0.000 NA
ATOM      5  C   UNL     1      50.428  34.158  42.489  0.00  0.00    +0.000 A 
ATOM      6  N   UNL     1      49.236  34.592  42.118  0.00  0.00    +0.000 NA
ATOM      7  H   UNL     1      50.598  31.312  40.822  0.00  0.00    +0.000 HD
ATOM      8  H   UNL     1      50.964  34.805  43.174  0.00  0.00    +0.000 HD
ENDROOT
BRANCH   1   9
ATOM      9  C   UNL     1      47.141  34.349  40.829  0.00  0.00    +0.000 C 
ATOM     10  H   UNL     1      47.256  35.090  39.980  0.00  0.00    +0.000 HD
ATOM     11  H   UNL     1      46.537  33.529  40.400  0.00  0.00    +0.000 HD
BRANCH   9  12
ATOM     12  C   UNL     1      46.316  34.995  41.909  0.00  0.00    +0.000 C 
ATOM     13  H   UNL     1      46.581  36.072  41.953  0.00  0.00    +0.000 HD
ATOM     14  H   UNL     1      46.631  34.496  42.868  0.00  0.00    +0.000 HD
BRANCH  12  15
ATOM     15  C   UNL     1      44.857  34.942  41.693  0.00  0.00    +0.000 A 
ATOM     16  C   UNL     1      43.981  35.434  42.698  0.00  0.00    +0.000 A 
ATOM     17  S   UNL     1      42.318  35.156  41.978  0.00  0.00    +0.000 S 
ATOM     18  C   UNL     1      43.104  34.405  40.407  0.00  0.00    +0.000 A 
ATOM     19  N   UNL     1      44.219  34.480  40.648  0.00  0.00    +0.000 NA
ATOM     20  H   UNL     1      44.241  35.866  43.652  0.00  0.00    +0.000 HD
BRANCH  18  21
ATOM     21  O   UNL     1      42.355  33.932  39.332  0.00  0.00    +0.000 OA
BRANCH  21  23
ATOM     22  O   UNL     1      40.401  34.396  37.608  0.00  0.00    +0.000 OA
ATOM     23  P   UNL     1      41.486  35.073  38.427  0.00  0.00    +0.000 P 
BRANCH  23  24
ATOM     24  O   UNL     1      40.768  36.164  39.496  0.00  0.00    +0.000 OA
ATOM     25  H   UNL     1      40.340  36.931  39.028  0.00  0.00    +0.000 HD
ENDBRANCH  23  24
BRANCH  23  26
ATOM     26  O   UNL     1      42.553  35.927  37.421  0.00  0.00    +0.000 OA
ATOM     27  H   UNL     1      43.091  35.248  36.959  0.00  0.00    +0.000 HD
ENDBRANCH  23  26
ENDBRANCH  21  23
ENDBRANCH  18  21
ENDBRANCH  12  15
ENDBRANCH   9  12
ENDBRANCH   1   9
BRANCH   2  28
ATOM     28  S   UNL     1      47.932  31.751  39.638  0.00  0.00    +0.000 S 
BRANCH  28  30
ATOM     29  C   UNL     1      45.552  30.710  40.251  0.00  0.00    +0.000 A 
ATOM     30  C   UNL     1      46.922  30.545  40.461  0.00  0.00    +0.000 A 
ATOM     31  C   UNL     1      47.306  29.492  41.261  0.00  0.00    +0.000 A 
ATOM     32  H   UNL     1      48.353  29.394  41.403  0.00  0.00    +0.000 HD
ATOM     33  C   UNL     1      46.421  28.617  41.849  0.00  0.00    +0.000 A 
ATOM     34  H   UNL     1      46.819  27.822  42.460  0.00  0.00    +0.000 HD
ATOM     35  C   UNL     1      45.067  28.777  41.644  0.00  0.00    +0.000 A 
ATOM     36  C   UNL     1      44.653  29.833  40.840  0.00  0.00    +0.000 A 
BRANCH  29  38
ATOM     37  H   UNL     1      45.553  32.951  38.944  0.00  0.00    +0.000 HD
ATOM     38  S   UNL     1      44.740  31.931  39.307  0.00  0.00    +0.000 S 
ATOM     39  O   UNL     1      43.546  32.478  40.051  0.00  0.00    +0.000 OA
ATOM     40  O   UNL     1      44.201  31.292  38.056  0.00  0.00    +0.000 OA
ENDBRANCH  29  38
ENDBRANCH  28  30
ENDBRANCH   2  28
TORSDOF 10
