
 OpenBabel03252508053D

 45 48  0  0  1  0  0  0  0  0999 V2000
   36.4880   29.7840   38.4140 C   0  0  0  0  0  0  0  0  0  0  0  0
   35.7300   29.5390   39.5230 C   0  0  0  0  0  0  0  0  0  0  0  0
   34.4580   28.9620   39.3340 C   0  0  0  0  0  0  0  0  0  0  0  0
   33.9490   28.6360   38.1030 C   0  0  0  0  0  0  0  0  0  0  0  0
   34.7140   28.8830   36.9990 C   0  0  0  0  0  0  0  0  0  0  0  0
   35.9450   29.4420   37.1690 C   0  0  0  0  0  0  0  0  0  0  0  0
   33.7840   28.7410   40.1580 H   0  0  0  0  0  0  0  0  0  0  0  0
   32.9940   28.2020   37.9730 H   0  0  0  0  0  0  0  0  0  0  0  0
   34.3800   28.6550   36.0170 H   0  0  0  0  0  0  0  0  0  0  0  0
   36.5480   29.6360   36.2700 H   0  0  0  0  0  0  0  0  0  0  0  0
   38.0570   30.3800   38.4910 S   0  0  0  0  0  0  0  0  0  0  0  0
   38.2020   30.9870   37.0590 O   0  0  0  0  0  0  0  0  0  0  0  0
   39.0770   29.3160   38.6140 O   0  0  0  0  0  0  0  0  0  0  0  0
   40.0770   32.0030   39.0280 C   0  0  0  0  0  0  0  0  0  0  0  0
   38.6760   31.8120   39.1130 C   0  0  0  0  0  0  0  0  0  0  0  0
   38.0430   32.9530   39.6710 C   0  0  0  0  0  0  0  0  0  0  0  0
   36.9440   32.8050   39.6890 H   0  0  0  0  0  0  0  0  0  0  0  0
   38.5360   34.1560   40.1240 C   0  0  0  0  0  0  0  0  0  0  0  0
   37.8660   34.8740   40.5090 H   0  0  0  0  0  0  0  0  0  0  0  0
   39.8750   34.1610   39.9680 C   0  0  0  0  0  3  0  0  0  0  0  0
   40.6650   33.1710   39.4540 C   0  0  0  0  0  3  0  0  0  0  0  0
   40.6150   29.5700   38.2400 H   0  0  0  0  0  0  0  0  0  0  0  0
   41.1730   30.7860   38.3970 S   0  0  0  0  0  0  0  0  0  0  0  0
   42.4930   30.7720   39.1510 O   0  0  0  0  0  0  0  0  0  0  0  0
   41.6210   31.1570   36.9860 O   0  0  0  0  0  0  0  0  0  0  0  0
   36.1770   29.8500   40.8670 C   0  0  0  0  0  0  0  0  0  0  0  0
   36.0470   30.9840   41.4250 O   0  0  0  0  0  0  0  0  0  0  0  0
   36.7940   28.7320   41.5310 C   0  0  0  0  0  0  0  0  0  0  0  0
   37.6490   29.0600   42.6400 C   0  0  0  0  0  0  0  0  0  0  0  0
   38.2470   27.9980   43.2970 C   0  0  0  0  0  0  0  0  0  0  0  0
   37.9940   26.7330   42.8600 N   0  0  0  0  0  0  0  0  0  0  0  0
   37.1690   26.4780   41.7940 C   0  0  0  0  0  0  0  0  0  0  0  0
   36.6120   27.4620   41.1810 N   0  0  0  0  0  0  0  0  0  0  0  0
   37.8970   30.0060   43.0380 H   0  0  0  0  0  0  0  0  0  0  0  0
   38.9100   28.1180   44.1440 H   0  0  0  0  0  0  0  0  0  0  0  0
   36.9480   25.0750   41.3970 C   0  0  1  0  0  0  0  0  0  0  0  0
   37.3000   24.6430   39.9900 C   0  0  0  0  0  0  0  0  0  0  0  0
   38.1910   24.2970   41.1470 C   0  0  1  0  0  0  0  0  0  0  0  0
   36.1070   24.5450   41.8650 H   0  0  0  0  0  0  0  0  0  0  0  0
   37.5460   25.5140   39.3290 H   0  0  0  0  0  0  0  0  0  0  0  0
   36.6530   23.8790   39.5340 H   0  0  0  0  0  0  0  0  0  0  0  0
   38.1600   23.2160   41.4120 H   0  0  0  0  0  0  0  0  0  0  0  0
   39.4700   24.9740   41.0750 N   0  0  0  0  0  0  0  0  0  0  0  0
   40.2300   24.3350   41.3980 H   0  0  0  0  0  0  0  0  0  0  0  0
   39.6630   25.4320   40.1760 H   0  0  0  0  0  0  0  0  0  0  0  0
  1 11  1  0  0  0  0
  1  2  1  0  0  0  0
  2 26  1  0  0  0  0
  3  2  2  0  0  0  0
  3  7  1  0  0  0  0
  4  3  1  0  0  0  0
  5  6  1  0  0  0  0
  5  4  2  0  0  0  0
  6  1  2  0  0  0  0
  8  4  1  0  0  0  0
  9  5  1  0  0  0  0
 10  6  1  0  0  0  0
 11 13  2  0  0  0  0
 11 15  1  0  0  0  0
 12 11  2  0  0  0  0
 14 15  2  0  0  0  0
 14 21  1  0  0  0  0
 15 16  1  0  0  0  0
 16 17  1  0  0  0  0
 16 18  2  0  0  0  0
 18 19  1  0  0  0  0
 20 18  1  0  0  0  0
 21 20  2  0  0  0  0
 22 23  1  0  0  0  0
 23 14  1  0  0  0  0
 23 24  2  0  0  0  0
 25 23  2  0  0  0  0
 26 27  2  0  0  0  0
 26 28  1  0  0  0  0
 28 29  1  0  0  0  0
 29 34  1  0  0  0  0
 29 30  2  0  0  0  0
 30 35  1  0  0  0  0
 31 30  1  0  0  0  0
 32 31  2  0  0  0  0
 33 28  2  0  0  0  0
 33 32  1  0  0  0  0
 36 32  1  0  0  0  0
 36 39  1  1  0  0  0
 37 38  1  0  0  0  0
 37 36  1  0  0  0  0
 38 36  1  0  0  0  0
 38 42  1  1  0  0  0
 40 37  1  0  0  0  0
 41 37  1  0  0  0  0
 43 38  1  0  0  0  0
 43 44  1  0  0  0  0
 45 43  1  0  0  0  0
M  END
>  <minimizedAffinity>
-6.36264896

$$$$

 OpenBabel03252508053D

 45 48  0  0  1  0  0  0  0  0999 V2000
   38.7130   26.2220   41.2760 C   0  0  0  0  0  0  0  0  0  0  0  0
   38.6250   27.1700   42.2530 C   0  0  0  0  0  0  0  0  0  0  0  0
   39.3350   26.9470   43.4500 C   0  0  0  0  0  0  0  0  0  0  0  0
   40.1040   25.8350   43.6790 C   0  0  0  0  0  0  0  0  0  0  0  0
   40.1880   24.8910   42.6960 C   0  0  0  0  0  0  0  0  0  0  0  0
   39.5050   25.0950   41.5350 C   0  0  0  0  0  0  0  0  0  0  0  0
   39.3150   27.6440   44.2850 H   0  0  0  0  0  0  0  0  0  0  0  0
   40.6330   25.6780   44.5810 H   0  0  0  0  0  0  0  0  0  0  0  0
   40.7650   24.0070   42.8080 H   0  0  0  0  0  0  0  0  0  0  0  0
   39.5820   24.3260   40.7530 H   0  0  0  0  0  0  0  0  0  0  0  0
   38.0000   26.3960   39.7650 S   0  0  0  0  0  0  0  0  0  0  0  0
   36.5080   26.0940   40.1160 O   0  0  0  0  0  0  0  0  0  0  0  0
   38.4320   25.3640   38.7960 O   0  0  0  0  0  0  0  0  0  0  0  0
   38.4530   28.4690   38.1830 C   0  0  0  0  0  0  0  0  0  0  0  0
   37.4820   27.7560   38.9270 C   0  0  0  0  0  0  0  0  0  0  0  0
   36.1930   28.3230   38.7490 C   0  0  0  0  0  0  0  0  0  0  0  0
   35.4370   27.7270   39.3010 H   0  0  0  0  0  0  0  0  0  0  0  0
   35.7480   29.3990   38.0130 C   0  0  0  0  0  0  0  0  0  0  0  0
   34.7220   29.6460   38.0320 H   0  0  0  0  0  0  0  0  0  0  0  0
   36.8000   29.9520   37.3770 C   0  0  0  0  0  3  0  0  0  0  0  0
   38.1080   29.5570   37.4160 C   0  0  0  0  0  3  0  0  0  0  0  0
   40.4020   26.7440   38.4180 H   0  0  0  0  0  0  0  0  0  0  0  0
   40.1570   28.0470   38.1810 S   0  0  0  0  0  0  0  0  0  0  0  0
   40.9730   28.9990   39.0400 O   0  0  0  0  0  0  0  0  0  0  0  0
   40.7580   28.2780   36.7980 O   0  0  0  0  0  0  0  0  0  0  0  0
   37.8370   28.3790   42.1090 C   0  0  0  0  0  0  0  0  0  0  0  0
   36.5750   28.4360   42.2420 O   0  0  0  0  0  0  0  0  0  0  0  0
   38.6310   29.5380   41.7970 C   0  0  0  0  0  0  0  0  0  0  0  0
   39.8420   29.6880   42.5580 C   0  0  0  0  0  0  0  0  0  0  0  0
   40.6250   30.7920   42.2670 C   0  0  0  0  0  0  0  0  0  0  0  0
   40.2060   31.6530   41.2990 N   0  0  0  0  0  0  0  0  0  0  0  0
   39.0400   31.4620   40.6040 C   0  0  0  0  0  0  0  0  0  0  0  0
   38.3100   30.4360   40.8710 N   0  0  0  0  0  0  0  0  0  0  0  0
   40.2350   29.0710   43.3210 H   0  0  0  0  0  0  0  0  0  0  0  0
   41.5570   31.0120   42.7710 H   0  0  0  0  0  0  0  0  0  0  0  0
   38.6710   32.4430   39.5660 C   0  0  1  0  0  0  0  0  0  0  0  0
   37.3550   33.1810   39.6840 C   0  0  0  0  0  0  0  0  0  0  0  0
   38.6480   33.8570   40.0290 C   0  0  1  0  0  0  0  0  0  0  0  0
   39.0240   32.2530   38.5430 H   0  0  0  0  0  0  0  0  0  0  0  0
   36.7040   32.7590   40.4940 H   0  0  0  0  0  0  0  0  0  0  0  0
   36.8360   33.4120   38.7420 H   0  0  0  0  0  0  0  0  0  0  0  0
   38.9500   34.6270   39.2820 H   0  0  0  0  0  0  0  0  0  0  0  0
   38.7490   34.1610   41.4410 N   0  0  0  0  0  0  0  0  0  0  0  0
   39.2120   35.0870   41.5750 H   0  0  0  0  0  0  0  0  0  0  0  0
   37.8730   34.0530   41.9670 H   0  0  0  0  0  0  0  0  0  0  0  0
  1  6  2  0  0  0  0
  1  2  1  0  0  0  0
  2  3  2  0  0  0  0
  3  4  1  0  0  0  0
  3  7  1  0  0  0  0
  4  8  1  0  0  0  0
  5  9  1  0  0  0  0
  5  4  2  0  0  0  0
  6  5  1  0  0  0  0
 10  6  1  0  0  0  0
 11 12  2  0  0  0  0
 11  1  1  0  0  0  0
 13 11  2  0  0  0  0
 14 15  1  0  0  0  0
 15 11  1  0  0  0  0
 16 15  2  0  0  0  0
 16 17  1  0  0  0  0
 18 19  1  0  0  0  0
 18 16  1  0  0  0  0
 20 21  1  0  0  0  0
 20 18  2  0  0  0  0
 21 14  2  0  0  0  0
 23 14  1  0  0  0  0
 23 22  1  0  0  0  0
 23 24  2  0  0  0  0
 25 23  2  0  0  0  0
 26 27  2  0  0  0  0
 26  2  1  0  0  0  0
 28 26  1  0  0  0  0
 28 29  1  0  0  0  0
 29 34  1  0  0  0  0
 30 29  2  0  0  0  0
 30 35  1  0  0  0  0
 31 30  1  0  0  0  0
 32 33  1  0  0  0  0
 32 31  2  0  0  0  0
 33 28  2  0  0  0  0
 36 39  1  6  0  0  0
 36 37  1  0  0  0  0
 36 38  1  0  0  0  0
 36 32  1  0  0  0  0
 37 38  1  0  0  0  0
 37 40  1  0  0  0  0
 38 42  1  6  0  0  0
 38 43  1  0  0  0  0
 41 37  1  0  0  0  0
 43 44  1  0  0  0  0
 43 45  1  0  0  0  0
M  END
>  <minimizedAffinity>
-6.12191534

$$$$

 OpenBabel03252508053D

 45 48  0  0  1  0  0  0  0  0999 V2000
   38.9440   26.5270   42.5490 C   0  0  0  0  0  0  0  0  0  0  0  0
   39.6240   27.6570   42.9010 C   0  0  0  0  0  0  0  0  0  0  0  0
   40.9060   27.5030   43.4670 C   0  0  0  0  0  0  0  0  0  0  0  0
   41.5000   26.2850   43.6770 C   0  0  0  0  0  0  0  0  0  0  0  0
   40.8140   25.1590   43.3210 C   0  0  0  0  0  0  0  0  0  0  0  0
   39.5740   25.2960   42.7740 C   0  0  0  0  0  0  0  0  0  0  0  0
   41.5140   28.3470   43.7850 H   0  0  0  0  0  0  0  0  0  0  0  0
   42.4630   26.1810   44.1010 H   0  0  0  0  0  0  0  0  0  0  0  0
   41.2150   24.1860   43.4560 H   0  0  0  0  0  0  0  0  0  0  0  0
   39.0340   24.3800   42.4940 H   0  0  0  0  0  0  0  0  0  0  0  0
   37.4510   26.5600   41.7800 S   0  0  0  0  0  0  0  0  0  0  0  0
   36.5450   27.0920   42.9370 O   0  0  0  0  0  0  0  0  0  0  0  0
   36.9510   25.2140   41.4260 O   0  0  0  0  0  0  0  0  0  0  0  0
   37.1860   27.7240   39.4180 C   0  0  0  0  0  0  0  0  0  0  0  0
   36.7450   27.6950   40.7640 C   0  0  0  0  0  0  0  0  0  0  0  0
   35.6970   28.6290   40.9730 C   0  0  0  0  0  0  0  0  0  0  0  0
   35.3330   28.5630   42.0180 H   0  0  0  0  0  0  0  0  0  0  0  0
   35.0680   29.5190   40.1300 C   0  0  0  0  0  0  0  0  0  0  0  0
   34.2980   30.1320   40.5110 H   0  0  0  0  0  0  0  0  0  0  0  0
   35.6130   29.4090   38.9020 C   0  0  0  0  0  3  0  0  0  0  0  0
   36.6200   28.5770   38.5000 C   0  0  0  0  0  3  0  0  0  0  0  0
   39.3130   26.2460   39.7670 H   0  0  0  0  0  0  0  0  0  0  0  0
   38.4800   26.7050   38.8130 S   0  0  0  0  0  0  0  0  0  0  0  0
   39.1850   27.3370   37.6240 O   0  0  0  0  0  0  0  0  0  0  0  0
   37.9070   25.4310   38.1980 O   0  0  0  0  0  0  0  0  0  0  0  0
   39.0820   28.9910   42.7230 C   0  0  0  0  0  0  0  0  0  0  0  0
   38.3370   29.5840   43.5630 O   0  0  0  0  0  0  0  0  0  0  0  0
   39.4740   29.5980   41.4780 C   0  0  0  0  0  0  0  0  0  0  0  0
   40.6530   29.0520   40.8620 C   0  0  0  0  0  0  0  0  0  0  0  0
   41.0430   29.6170   39.6600 C   0  0  0  0  0  0  0  0  0  0  0  0
   40.3010   30.6360   39.1460 N   0  0  0  0  0  0  0  0  0  0  0  0
   39.1830   31.1190   39.7770 C   0  0  0  0  0  0  0  0  0  0  0  0
   38.8180   30.5960   40.8950 N   0  0  0  0  0  0  0  0  0  0  0  0
   41.2810   28.2700   41.1930 H   0  0  0  0  0  0  0  0  0  0  0  0
   41.9120   29.2920   39.1020 H   0  0  0  0  0  0  0  0  0  0  0  0
   38.4370   32.2210   39.1410 C   0  0  1  0  0  0  0  0  0  0  0  0
   37.1330   32.6800   39.7550 C   0  0  0  0  0  0  0  0  0  0  0  0
   38.3900   33.4780   39.9340 C   0  0  1  0  0  0  0  0  0  0  0  0
   38.5130   32.3160   38.0490 H   0  0  0  0  0  0  0  0  0  0  0  0
   36.7820   31.9900   40.5670 H   0  0  0  0  0  0  0  0  0  0  0  0
   36.3520   33.0140   39.0570 H   0  0  0  0  0  0  0  0  0  0  0  0
   38.3880   34.4300   39.3540 H   0  0  0  0  0  0  0  0  0  0  0  0
   38.8430   33.4870   41.3100 N   0  0  0  0  0  0  0  0  0  0  0  0
   39.2210   34.4290   41.5550 H   0  0  0  0  0  0  0  0  0  0  0  0
   38.1630   33.1210   41.9880 H   0  0  0  0  0  0  0  0  0  0  0  0
  1  6  2  0  0  0  0
  1  2  1  0  0  0  0
  2  3  2  0  0  0  0
  3  4  1  0  0  0  0
  3  7  1  0  0  0  0
  4  8  1  0  0  0  0
  5  9  1  0  0  0  0
  5  4  2  0  0  0  0
  6  5  1  0  0  0  0
 10  6  1  0  0  0  0
 11  1  1  0  0  0  0
 11 12  2  0  0  0  0
 13 11  2  0  0  0  0
 14 15  1  0  0  0  0
 15 16  2  0  0  0  0
 15 11  1  0  0  0  0
 16 17  1  0  0  0  0
 18 19  1  0  0  0  0
 18 16  1  0  0  0  0
 20 18  2  0  0  0  0
 21 20  1  0  0  0  0
 21 14  2  0  0  0  0
 23 14  1  0  0  0  0
 23 22  1  0  0  0  0
 24 23  2  0  0  0  0
 25 23  2  0  0  0  0
 26  2  1  0  0  0  0
 26 27  2  0  0  0  0
 28 26  1  0  0  0  0
 29 34  1  0  0  0  0
 29 28  2  0  0  0  0
 30 29  1  0  0  0  0
 31 30  2  0  0  0  0
 31 32  1  0  0  0  0
 32 33  2  0  0  0  0
 33 28  1  0  0  0  0
 35 30  1  0  0  0  0
 36 39  1  6  0  0  0
 36 37  1  0  0  0  0
 36 32  1  0  0  0  0
 36 38  1  0  0  0  0
 37 38  1  0  0  0  0
 37 40  1  0  0  0  0
 38 42  1  6  0  0  0
 38 43  1  0  0  0  0
 41 37  1  0  0  0  0
 43 44  1  0  0  0  0
 43 45  1  0  0  0  0
M  END
>  <minimizedAffinity>
-6.07135391

$$$$

 OpenBabel03252508053D

 45 48  0  0  1  0  0  0  0  0999 V2000
   36.7730   26.8110   40.3120 C   0  0  0  0  0  0  0  0  0  0  0  0
   36.4350   28.0430   40.7900 C   0  0  0  0  0  0  0  0  0  0  0  0
   35.5580   28.8300   40.0150 C   0  0  0  0  0  0  0  0  0  0  0  0
   35.0320   28.4210   38.8170 C   0  0  0  0  0  0  0  0  0  0  0  0
   35.3740   27.1850   38.3460 C   0  0  0  0  0  0  0  0  0  0  0  0
   36.2210   26.4170   39.0860 C   0  0  0  0  0  0  0  0  0  0  0  0
   35.2430   29.8270   40.3130 H   0  0  0  0  0  0  0  0  0  0  0  0
   34.3740   29.0190   38.2440 H   0  0  0  0  0  0  0  0  0  0  0  0
   35.0030   26.8080   37.4260 H   0  0  0  0  0  0  0  0  0  0  0  0
   36.4880   25.4250   38.6930 H   0  0  0  0  0  0  0  0  0  0  0  0
   37.7300   25.7280   41.1690 S   0  0  0  0  0  0  0  0  0  0  0  0
   38.1940   24.7810   40.0150 O   0  0  0  0  0  0  0  0  0  0  0  0
   36.9600   24.9000   42.1220 O   0  0  0  0  0  0  0  0  0  0  0  0
   40.2120   26.6120   40.9130 C   0  0  0  0  0  0  0  0  0  0  0  0
   39.3280   25.8150   41.6800 C   0  0  0  0  0  0  0  0  0  0  0  0
   39.9870   25.2820   42.8180 C   0  0  0  0  0  0  0  0  0  0  0  0
   39.2710   24.6990   43.4320 H   0  0  0  0  0  0  0  0  0  0  0  0
   41.2790   25.4010   43.2800 C   0  0  0  0  0  0  0  0  0  0  0  0
   41.5550   24.9040   44.1690 H   0  0  0  0  0  0  0  0  0  0  0  0
   41.9700   26.1870   42.4310 C   0  0  0  0  0  3  0  0  0  0  0  0
   41.5210   26.7920   41.2910 C   0  0  0  0  0  3  0  0  0  0  0  0
   38.4290   27.7580   39.3830 H   0  0  0  0  0  0  0  0  0  0  0  0
   39.7310   27.4160   39.4280 S   0  0  0  0  0  0  0  0  0  0  0  0
   40.2200   26.6670   38.1990 O   0  0  0  0  0  0  0  0  0  0  0  0
   40.4560   28.7520   39.2910 O   0  0  0  0  0  0  0  0  0  0  0  0
   36.9400   28.5680   42.0440 C   0  0  0  0  0  0  0  0  0  0  0  0
   36.5690   28.1720   43.1920 O   0  0  0  0  0  0  0  0  0  0  0  0
   37.9250   29.6040   41.8680 C   0  0  0  0  0  0  0  0  0  0  0  0
   39.0070   29.6030   42.8150 C   0  0  0  0  0  0  0  0  0  0  0  0
   39.9690   30.5860   42.6590 C   0  0  0  0  0  0  0  0  0  0  0  0
   39.8330   31.4760   41.6380 N   0  0  0  0  0  0  0  0  0  0  0  0
   38.7780   31.4310   40.7620 C   0  0  0  0  0  0  0  0  0  0  0  0
   37.8820   30.5190   40.9050 N   0  0  0  0  0  0  0  0  0  0  0  0
   39.1830   28.9540   43.6300 H   0  0  0  0  0  0  0  0  0  0  0  0
   40.8290   30.6870   43.3080 H   0  0  0  0  0  0  0  0  0  0  0  0
   38.7180   32.4330   39.6820 C   0  0  1  0  0  0  0  0  0  0  0  0
   37.5180   33.3500   39.5920 C   0  0  0  0  0  0  0  0  0  0  0  0
   38.8250   33.8450   40.1380 C   0  0  1  0  0  0  0  0  0  0  0  0
   39.1960   32.1740   38.7270 H   0  0  0  0  0  0  0  0  0  0  0  0
   36.6960   33.0410   40.2900 H   0  0  0  0  0  0  0  0  0  0  0  0
   37.1900   33.6330   38.5820 H   0  0  0  0  0  0  0  0  0  0  0  0
   39.3460   34.5500   39.4490 H   0  0  0  0  0  0  0  0  0  0  0  0
   38.7460   34.1610   41.5490 N   0  0  0  0  0  0  0  0  0  0  0  0
   39.3100   35.0150   41.7560 H   0  0  0  0  0  0  0  0  0  0  0  0
   37.7930   34.1880   41.9300 H   0  0  0  0  0  0  0  0  0  0  0  0
  1  2  1  0  0  0  0
  1 11  1  0  0  0  0
  2 26  1  0  0  0  0
  3  7  1  0  0  0  0
  3  2  2  0  0  0  0
  4  3  1  0  0  0  0
  5  4  2  0  0  0  0
  5  6  1  0  0  0  0
  6  1  2  0  0  0  0
  8  4  1  0  0  0  0
  9  5  1  0  0  0  0
 10  6  1  0  0  0  0
 11 15  1  0  0  0  0
 11 13  2  0  0  0  0
 12 11  2  0  0  0  0
 14 21  2  0  0  0  0
 14 15  1  0  0  0  0
 15 16  2  0  0  0  0
 16 18  1  0  0  0  0
 16 17  1  0  0  0  0
 18 19  1  0  0  0  0
 20 18  2  0  0  0  0
 21 20  1  0  0  0  0
 22 23  1  0  0  0  0
 23 14  1  0  0  0  0
 24 23  2  0  0  0  0
 25 23  2  0  0  0  0
 26 27  2  0  0  0  0
 28 26  1  0  0  0  0
 28 29  1  0  0  0  0
 29 34  1  0  0  0  0
 30 29  2  0  0  0  0
 30 35  1  0  0  0  0
 31 30  1  0  0  0  0
 32 33  1  0  0  0  0
 32 31  2  0  0  0  0
 33 28  2  0  0  0  0
 36 39  1  6  0  0  0
 36 38  1  0  0  0  0
 36 32  1  0  0  0  0
 37 36  1  0  0  0  0
 37 38  1  0  0  0  0
 37 40  1  0  0  0  0
 38 42  1  6  0  0  0
 38 43  1  0  0  0  0
 41 37  1  0  0  0  0
 43 44  1  0  0  0  0
 43 45  1  0  0  0  0
M  END
>  <minimizedAffinity>
-6.04519844

$$$$

 OpenBabel03252508053D

 45 48  0  0  1  0  0  0  0  0999 V2000
   40.2510   28.4510   42.5150 C   0  0  0  0  0  0  0  0  0  0  0  0
   39.2490   29.3740   42.5970 C   0  0  0  0  0  0  0  0  0  0  0  0
   39.6130   30.7280   42.7360 C   0  0  0  0  0  0  0  0  0  0  0  0
   40.9130   31.1620   42.7920 C   0  0  0  0  0  0  0  0  0  0  0  0
   41.9100   30.2330   42.7090 C   0  0  0  0  0  0  0  0  0  0  0  0
   41.5710   28.9200   42.5740 C   0  0  0  0  0  0  0  0  0  0  0  0
   38.8810   31.5290   42.8180 H   0  0  0  0  0  0  0  0  0  0  0  0
   41.1750   32.1810   42.8960 H   0  0  0  0  0  0  0  0  0  0  0  0
   42.9370   30.5000   42.7450 H   0  0  0  0  0  0  0  0  0  0  0  0
   42.3850   28.1850   42.5090 H   0  0  0  0  0  0  0  0  0  0  0  0
   39.9710   26.8160   42.2530 S   0  0  0  0  0  0  0  0  0  0  0  0
   39.5120   26.3720   43.6790 O   0  0  0  0  0  0  0  0  0  0  0  0
   41.2030   26.0580   41.9410 O   0  0  0  0  0  0  0  0  0  0  0  0
   38.4330   26.0940   40.2240 C   0  0  0  0  0  0  0  0  0  0  0  0
   38.6460   26.0000   41.6200 C   0  0  0  0  0  0  0  0  0  0  0  0
   37.6930   25.1370   42.2200 C   0  0  0  0  0  0  0  0  0  0  0  0
   37.9010   25.0370   43.3050 H   0  0  0  0  0  0  0  0  0  0  0  0
   36.6430   24.4120   41.7000 C   0  0  0  0  0  0  0  0  0  0  0  0
   36.0510   23.8270   42.3480 H   0  0  0  0  0  0  0  0  0  0  0  0
   36.5910   24.6230   40.3690 C   0  0  0  0  0  3  0  0  0  0  0  0
   37.4110   25.4080   39.6100 C   0  0  0  0  0  3  0  0  0  0  0  0
   40.2510   27.9270   39.8200 H   0  0  0  0  0  0  0  0  0  0  0  0
   39.4230   27.0870   39.1690 S   0  0  0  0  0  0  0  0  0  0  0  0
   38.5960   27.7510   38.0800 O   0  0  0  0  0  0  0  0  0  0  0  0
   40.3720   26.2120   38.3540 O   0  0  0  0  0  0  0  0  0  0  0  0
   37.8440   29.0170   42.5500 C   0  0  0  0  0  0  0  0  0  0  0  0
   37.2160   28.4390   43.4910 O   0  0  0  0  0  0  0  0  0  0  0  0
   37.2070   29.3860   41.3130 C   0  0  0  0  0  0  0  0  0  0  0  0
   36.0530   28.6090   40.9500 C   0  0  0  0  0  0  0  0  0  0  0  0
   35.4210   28.9530   39.7670 C   0  0  0  0  0  0  0  0  0  0  0  0
   35.9220   29.9850   39.0350 N   0  0  0  0  0  0  0  0  0  0  0  0
   37.0290   30.6930   39.4290 C   0  0  0  0  0  0  0  0  0  0  0  0
   37.6190   30.3760   40.5280 N   0  0  0  0  0  0  0  0  0  0  0  0
   35.6040   27.7990   41.4580 H   0  0  0  0  0  0  0  0  0  0  0  0
   34.5440   28.4430   39.3890 H   0  0  0  0  0  0  0  0  0  0  0  0
   37.4960   31.8010   38.5740 C   0  0  1  0  0  0  0  0  0  0  0  0
   38.9010   31.7580   38.0140 C   0  0  0  0  0  0  0  0  0  0  0  0
   37.7170   31.4350   37.1500 C   0  0  1  0  0  0  0  0  0  0  0  0
   37.0930   32.8020   38.7820 H   0  0  0  0  0  0  0  0  0  0  0  0
   39.5120   30.9330   38.4650 H   0  0  0  0  0  0  0  0  0  0  0  0
   39.4200   32.7220   37.9140 H   0  0  0  0  0  0  0  0  0  0  0  0
   37.5000   32.2260   36.3960 H   0  0  0  0  0  0  0  0  0  0  0  0
   37.6970   30.0450   36.7450 N   0  0  0  0  0  0  0  0  0  0  0  0
   37.3640   29.9650   35.7580 H   0  0  0  0  0  0  0  0  0  0  0  0
   38.5650   29.5290   36.9350 H   0  0  0  0  0  0  0  0  0  0  0  0
  1  6  2  0  0  0  0
  1  2  1  0  0  0  0
  2  3  2  0  0  0  0
  3  4  1  0  0  0  0
  3  7  1  0  0  0  0
  4  8  1  0  0  0  0
  5  9  1  0  0  0  0
  5  4  2  0  0  0  0
  6  5  1  0  0  0  0
 10  6  1  0  0  0  0
 11  1  1  0  0  0  0
 11 12  2  0  0  0  0
 13 11  2  0  0  0  0
 14 15  1  0  0  0  0
 15 16  2  0  0  0  0
 15 11  1  0  0  0  0
 16 17  1  0  0  0  0
 18 16  1  0  0  0  0
 18 19  1  0  0  0  0
 20 18  2  0  0  0  0
 21 14  2  0  0  0  0
 21 20  1  0  0  0  0
 23 22  1  0  0  0  0
 23 14  1  0  0  0  0
 24 23  2  0  0  0  0
 25 23  2  0  0  0  0
 26  2  1  0  0  0  0
 26 27  2  0  0  0  0
 28 26  1  0  0  0  0
 29 28  1  0  0  0  0
 29 34  1  0  0  0  0
 30 29  2  0  0  0  0
 31 32  2  0  0  0  0
 31 30  1  0  0  0  0
 32 33  1  0  0  0  0
 33 28  2  0  0  0  0
 35 30  1  0  0  0  0
 36 39  1  1  0  0  0
 36 32  1  0  0  0  0
 37 40  1  0  0  0  0
 37 36  1  0  0  0  0
 38 42  1  6  0  0  0
 38 37  1  0  0  0  0
 38 36  1  0  0  0  0
 41 37  1  0  0  0  0
 43 45  1  0  0  0  0
 43 38  1  0  0  0  0
 44 43  1  0  0  0  0
M  END
>  <minimizedAffinity>
-6.0108285

$$$$

 OpenBabel03252508053D

 45 48  0  0  1  0  0  0  0  0999 V2000
   37.4950   28.1260   41.2270 C   0  0  0  0  0  0  0  0  0  0  0  0
   37.2570   27.6950   39.9550 C   0  0  0  0  0  0  0  0  0  0  0  0
   36.9600   26.3300   39.7690 C   0  0  0  0  0  0  0  0  0  0  0  0
   36.8990   25.4210   40.7940 C   0  0  0  0  0  0  0  0  0  0  0  0
   37.1370   25.8610   42.0650 C   0  0  0  0  0  0  0  0  0  0  0  0
   37.4250   27.1780   42.2570 C   0  0  0  0  0  0  0  0  0  0  0  0
   36.7670   25.8980   38.7900 H   0  0  0  0  0  0  0  0  0  0  0  0
   36.6750   24.3990   40.6430 H   0  0  0  0  0  0  0  0  0  0  0  0
   37.1060   25.2110   42.9030 H   0  0  0  0  0  0  0  0  0  0  0  0
   37.6160   27.5170   43.2850 H   0  0  0  0  0  0  0  0  0  0  0  0
   37.7670   29.7390   41.6120 S   0  0  0  0  0  0  0  0  0  0  0  0
   38.0780   29.6200   43.1390 O   0  0  0  0  0  0  0  0  0  0  0  0
   36.5560   30.5790   41.4830 O   0  0  0  0  0  0  0  0  0  0  0  0
   38.9900   31.9080   40.7140 C   0  0  0  0  0  0  0  0  0  0  0  0
   39.1290   30.7080   41.4540 C   0  0  0  0  0  0  0  0  0  0  0  0
   40.4360   30.5980   41.9960 C   0  0  0  0  0  0  0  0  0  0  0  0
   40.5150   29.6780   42.6100 H   0  0  0  0  0  0  0  0  0  0  0  0
   41.5400   31.4190   41.9260 C   0  0  0  0  0  0  0  0  0  0  0  0
   42.4280   31.1290   42.4160 H   0  0  0  0  0  0  0  0  0  0  0  0
   41.2260   32.5020   41.1880 C   0  0  0  0  0  3  0  0  0  0  0  0
   40.0340   32.7930   40.5860 C   0  0  0  0  0  3  0  0  0  0  0  0
   36.3880   31.8730   40.4690 H   0  0  0  0  0  0  0  0  0  0  0  0
   37.5050   32.3600   39.8950 S   0  0  0  0  0  0  0  0  0  0  0  0
   37.5910   32.1150   38.3970 O   0  0  0  0  0  0  0  0  0  0  0  0
   37.3060   33.8720   39.9550 O   0  0  0  0  0  0  0  0  0  0  0  0
   37.3010   28.5760   38.8030 C   0  0  0  0  0  0  0  0  0  0  0  0
   36.3240   29.2780   38.3950 O   0  0  0  0  0  0  0  0  0  0  0  0
   38.5820   28.5850   38.1470 C   0  0  0  0  0  0  0  0  0  0  0  0
   38.8370   27.4820   37.2610 C   0  0  0  0  0  0  0  0  0  0  0  0
   40.0610   27.4760   36.6140 C   0  0  0  0  0  0  0  0  0  0  0  0
   40.9310   28.4950   36.8530 N   0  0  0  0  0  0  0  0  0  0  0  0
   40.6360   29.5240   37.7110 C   0  0  0  0  0  0  0  0  0  0  0  0
   39.5000   29.5330   38.3140 N   0  0  0  0  0  0  0  0  0  0  0  0
   38.2210   26.6570   37.0230 H   0  0  0  0  0  0  0  0  0  0  0  0
   40.3670   26.7000   35.9230 H   0  0  0  0  0  0  0  0  0  0  0  0
   41.6380   30.5890   37.9020 C   0  0  1  0  0  0  0  0  0  0  0  0
   42.2560   31.2470   36.6870 C   0  0  0  0  0  0  0  0  0  0  0  0
   41.1920   31.9440   37.4820 C   0  0  1  0  0  0  0  0  0  0  0  0
   42.2820   30.5230   38.7900 H   0  0  0  0  0  0  0  0  0  0  0  0
   41.9920   30.7130   35.7370 H   0  0  0  0  0  0  0  0  0  0  0  0
   43.3100   31.5490   36.7750 H   0  0  0  0  0  0  0  0  0  0  0  0
   41.5840   32.8010   38.0770 H   0  0  0  0  0  0  0  0  0  0  0  0
   39.9640   32.1050   36.7320 N   0  0  0  0  0  0  0  0  0  0  0  0
   39.5350   33.0340   36.9430 H   0  0  0  0  0  0  0  0  0  0  0  0
   40.0450   31.9020   35.7280 H   0  0  0  0  0  0  0  0  0  0  0  0
  1 11  1  0  0  0  0
  1  6  1  0  0  0  0
  2  1  2  0  0  0  0
  3  2  1  0  0  0  0
  3  4  2  0  0  0  0
  4  5  1  0  0  0  0
  5  6  2  0  0  0  0
  5  9  1  0  0  0  0
  6 10  1  0  0  0  0
  7  3  1  0  0  0  0
  8  4  1  0  0  0  0
 11 12  2  0  0  0  0
 13 11  2  0  0  0  0
 14 15  1  0  0  0  0
 15 11  1  0  0  0  0
 15 16  2  0  0  0  0
 16 17  1  0  0  0  0
 18 16  1  0  0  0  0
 18 19  1  0  0  0  0
 20 18  2  0  0  0  0
 21 14  2  0  0  0  0
 21 20  1  0  0  0  0
 23 25  2  0  0  0  0
 23 22  1  0  0  0  0
 23 14  1  0  0  0  0
 24 23  2  0  0  0  0
 26  2  1  0  0  0  0
 27 26  2  0  0  0  0
 28 33  1  0  0  0  0
 28 26  1  0  0  0  0
 29 28  2  0  0  0  0
 30 31  2  0  0  0  0
 30 29  1  0  0  0  0
 31 32  1  0  0  0  0
 32 36  1  0  0  0  0
 32 33  2  0  0  0  0
 34 29  1  0  0  0  0
 35 30  1  0  0  0  0
 36 39  1  1  0  0  0
 37 41  1  0  0  0  0
 37 38  1  0  0  0  0
 37 36  1  0  0  0  0
 38 36  1  0  0  0  0
 38 42  1  1  0  0  0
 40 37  1  0  0  0  0
 43 44  1  0  0  0  0
 43 38  1  0  0  0  0
 45 43  1  0  0  0  0
M  END
>  <minimizedAffinity>
-5.97746515

$$$$

 OpenBabel03252508053D

 45 48  0  0  1  0  0  0  0  0999 V2000
   37.9400   29.3100   40.0810 C   0  0  0  0  0  0  0  0  0  0  0  0
   37.3120   28.9360   41.2330 C   0  0  0  0  0  0  0  0  0  0  0  0
   35.9050   28.8650   41.2210 C   0  0  0  0  0  0  0  0  0  0  0  0
   35.1410   29.1500   40.1180 C   0  0  0  0  0  0  0  0  0  0  0  0
   35.7780   29.5230   38.9680 C   0  0  0  0  0  0  0  0  0  0  0  0
   37.1380   29.5950   38.9680 C   0  0  0  0  0  0  0  0  0  0  0  0
   35.3210   28.5850   42.0950 H   0  0  0  0  0  0  0  0  0  0  0  0
   34.0860   29.0930   40.1190 H   0  0  0  0  0  0  0  0  0  0  0  0
   35.2470   29.7570   38.0790 H   0  0  0  0  0  0  0  0  0  0  0  0
   37.6350   29.8980   38.0360 H   0  0  0  0  0  0  0  0  0  0  0  0
   39.6120   29.3470   39.9200 S   0  0  0  0  0  0  0  0  0  0  0  0
   39.9100   27.8300   39.6890 O   0  0  0  0  0  0  0  0  0  0  0  0
   40.3070   29.7370   41.1650 O   0  0  0  0  0  0  0  0  0  0  0  0
   40.8560   31.0600   38.3320 C   0  0  0  0  0  0  0  0  0  0  0  0
   40.5980   29.6950   38.6050 C   0  0  0  0  0  0  0  0  0  0  0  0
   41.3150   28.8570   37.7120 C   0  0  0  0  0  0  0  0  0  0  0  0
   41.1380   27.7920   37.9680 H   0  0  0  0  0  0  0  0  0  0  0  0
   42.1750   29.1330   36.6730 C   0  0  0  0  0  0  0  0  0  0  0  0
   42.6010   28.3330   36.1310 H   0  0  0  0  0  0  0  0  0  0  0  0
   42.3010   30.4700   36.5590 C   0  0  0  0  0  3  0  0  0  0  0  0
   41.7020   31.4370   37.3150 C   0  0  0  0  0  3  0  0  0  0  0  0
   40.2920   32.2830   40.5720 H   0  0  0  0  0  0  0  0  0  0  0  0
   40.1240   32.3730   39.2380 S   0  0  0  0  0  0  0  0  0  0  0  0
   38.6870   32.6210   38.8090 O   0  0  0  0  0  0  0  0  0  0  0  0
   40.7910   33.6990   38.8830 O   0  0  0  0  0  0  0  0  0  0  0  0
   38.0290   28.6170   42.4530 C   0  0  0  0  0  0  0  0  0  0  0  0
   38.3340   29.4620   43.3510 O   0  0  0  0  0  0  0  0  0  0  0  0
   38.3700   27.2230   42.5610 C   0  0  0  0  0  0  0  0  0  0  0  0
   39.5660   26.9290   43.3030 C   0  0  0  0  0  0  0  0  0  0  0  0
   39.9080   25.5930   43.4240 C   0  0  0  0  0  0  0  0  0  0  0  0
   39.1070   24.6580   42.8440 N   0  0  0  0  0  0  0  0  0  0  0  0
   37.9760   24.9950   42.1460 C   0  0  0  0  0  0  0  0  0  0  0  0
   37.6550   26.2350   42.0310 N   0  0  0  0  0  0  0  0  0  0  0  0
   40.2390   27.5900   43.7790 H   0  0  0  0  0  0  0  0  0  0  0  0
   40.7850   25.2480   43.9590 H   0  0  0  0  0  0  0  0  0  0  0  0
   37.1640   23.9130   41.5580 C   0  0  1  0  0  0  0  0  0  0  0  0
   36.5550   24.1090   40.1870 C   0  0  0  0  0  0  0  0  0  0  0  0
   37.7740   23.2540   40.3710 C   0  0  1  0  0  0  0  0  0  0  0  0
   36.5930   23.2770   42.2500 H   0  0  0  0  0  0  0  0  0  0  0  0
   36.6570   25.1670   39.8270 H   0  0  0  0  0  0  0  0  0  0  0  0
   35.5700   23.6510   40.0160 H   0  0  0  0  0  0  0  0  0  0  0  0
   37.5650   22.1670   40.2470 H   0  0  0  0  0  0  0  0  0  0  0  0
   38.9460   23.8280   39.7440 N   0  0  0  0  0  0  0  0  0  0  0  0
   39.5260   23.0740   39.3140 H   0  0  0  0  0  0  0  0  0  0  0  0
   38.7540   24.6170   39.1150 H   0  0  0  0  0  0  0  0  0  0  0  0
  1  2  1  0  0  0  0
  2 26  1  0  0  0  0
  3  2  2  0  0  0  0
  3  7  1  0  0  0  0
  4  8  1  0  0  0  0
  4  3  1  0  0  0  0
  5  6  1  0  0  0  0
  5  4  2  0  0  0  0
  6  1  2  0  0  0  0
  9  5  1  0  0  0  0
 10  6  1  0  0  0  0
 11  1  1  0  0  0  0
 11 13  2  0  0  0  0
 12 11  2  0  0  0  0
 14 15  1  0  0  0  0
 14 23  1  0  0  0  0
 15 11  1  0  0  0  0
 16 17  1  0  0  0  0
 16 15  2  0  0  0  0
 18 16  1  0  0  0  0
 19 18  1  0  0  0  0
 20 18  2  0  0  0  0
 20 21  1  0  0  0  0
 21 14  2  0  0  0  0
 23 22  1  0  0  0  0
 24 23  2  0  0  0  0
 25 23  2  0  0  0  0
 26 28  1  0  0  0  0
 26 27  2  0  0  0  0
 28 29  1  0  0  0  0
 29 30  2  0  0  0  0
 29 34  1  0  0  0  0
 30 35  1  0  0  0  0
 31 30  1  0  0  0  0
 32 31  2  0  0  0  0
 33 32  1  0  0  0  0
 33 28  2  0  0  0  0
 36 32  1  0  0  0  0
 36 39  1  1  0  0  0
 37 38  1  0  0  0  0
 37 36  1  0  0  0  0
 38 42  1  6  0  0  0
 38 36  1  0  0  0  0
 40 37  1  0  0  0  0
 41 37  1  0  0  0  0
 43 38  1  0  0  0  0
 44 43  1  0  0  0  0
 45 43  1  0  0  0  0
M  END
>  <minimizedAffinity>
-5.8803792

$$$$

 OpenBabel03252508053D

 45 48  0  0  1  0  0  0  0  0999 V2000
   37.3930   29.7560   38.3110 C   0  0  0  0  0  0  0  0  0  0  0  0
   36.4180   29.4330   39.2090 C   0  0  0  0  0  0  0  0  0  0  0  0
   35.1410   29.1110   38.7040 C   0  0  0  0  0  0  0  0  0  0  0  0
   34.8340   29.1050   37.3680 C   0  0  0  0  0  0  0  0  0  0  0  0
   35.8160   29.4290   36.4760 C   0  0  0  0  0  0  0  0  0  0  0  0
   37.0540   29.7420   36.9520 C   0  0  0  0  0  0  0  0  0  0  0  0
   34.3030   28.8510   39.3460 H   0  0  0  0  0  0  0  0  0  0  0  0
   33.8730   28.8610   37.0000 H   0  0  0  0  0  0  0  0  0  0  0  0
   35.6460   29.4440   35.4280 H   0  0  0  0  0  0  0  0  0  0  0  0
   37.8330   30.0010   36.2210 H   0  0  0  0  0  0  0  0  0  0  0  0
   38.9820   30.0680   38.7590 S   0  0  0  0  0  0  0  0  0  0  0  0
   39.7480   29.1530   37.7500 O   0  0  0  0  0  0  0  0  0  0  0  0
   39.3100   29.5820   40.1160 O   0  0  0  0  0  0  0  0  0  0  0  0
   39.8410   32.5590   39.0070 C   0  0  0  0  0  0  0  0  0  0  0  0
   40.0290   31.3180   38.3530 C   0  0  0  0  0  0  0  0  0  0  0  0
   41.1610   31.3630   37.4980 C   0  0  0  0  0  0  0  0  0  0  0  0
   41.3220   30.3710   37.0290 H   0  0  0  0  0  0  0  0  0  0  0  0
   42.0630   32.3620   37.2090 C   0  0  0  0  0  0  0  0  0  0  0  0
   42.8440   32.1690   36.5250 H   0  0  0  0  0  0  0  0  0  0  0  0
   41.7310   33.4620   37.9150 C   0  0  0  0  0  3  0  0  0  0  0  0
   40.6890   33.6190   38.7850 C   0  0  0  0  0  3  0  0  0  0  0  0
   38.4120   31.9400   41.1060 H   0  0  0  0  0  0  0  0  0  0  0  0
   38.5250   32.8610   40.1290 S   0  0  0  0  0  0  0  0  0  0  0  0
   37.2240   33.1610   39.4030 O   0  0  0  0  0  0  0  0  0  0  0  0
   38.7670   34.1610   40.8910 O   0  0  0  0  0  0  0  0  0  0  0  0
   36.6410   29.4120   40.6420 C   0  0  0  0  0  0  0  0  0  0  0  0
   36.6670   30.4450   41.3810 O   0  0  0  0  0  0  0  0  0  0  0  0
   36.8340   28.0860   41.1660 C   0  0  0  0  0  0  0  0  0  0  0  0
   36.5880   27.9290   42.5740 C   0  0  0  0  0  0  0  0  0  0  0  0
   36.7610   26.6590   43.0960 C   0  0  0  0  0  0  0  0  0  0  0  0
   37.1460   25.6560   42.2610 N   0  0  0  0  0  0  0  0  0  0  0  0
   37.3660   25.8620   40.9230 C   0  0  0  0  0  0  0  0  0  0  0  0
   37.2070   27.0410   40.4340 N   0  0  0  0  0  0  0  0  0  0  0  0
   36.2920   28.6510   43.2870 H   0  0  0  0  0  0  0  0  0  0  0  0
   36.6060   26.4170   44.1400 H   0  0  0  0  0  0  0  0  0  0  0  0
   37.7740   24.7120   40.0930 C   0  0  1  0  0  0  0  0  0  0  0  0
   36.8410   23.5280   39.9650 C   0  0  0  0  0  0  0  0  0  0  0  0
   36.9720   24.5260   38.8540 C   0  0  1  0  0  0  0  0  0  0  0  0
   38.8470   24.4850   40.0380 H   0  0  0  0  0  0  0  0  0  0  0  0
   35.9790   23.5890   40.6800 H   0  0  0  0  0  0  0  0  0  0  0  0
   37.3120   22.5370   39.8870 H   0  0  0  0  0  0  0  0  0  0  0  0
   37.5160   24.1230   37.9680 H   0  0  0  0  0  0  0  0  0  0  0  0
   35.7570   25.2870   38.6530 N   0  0  0  0  0  0  0  0  0  0  0  0
   35.5990   25.4460   37.6330 H   0  0  0  0  0  0  0  0  0  0  0  0
   34.9350   24.9230   39.1510 H   0  0  0  0  0  0  0  0  0  0  0  0
  1 11  1  0  0  0  0
  1  2  1  0  0  0  0
  2 26  1  0  0  0  0
  3  2  2  0  0  0  0
  3  7  1  0  0  0  0
  4  3  1  0  0  0  0
  5  6  1  0  0  0  0
  5  4  2  0  0  0  0
  6  1  2  0  0  0  0
  8  4  1  0  0  0  0
  9  5  1  0  0  0  0
 10  6  1  0  0  0  0
 11 13  2  0  0  0  0
 12 11  2  0  0  0  0
 14 23  1  0  0  0  0
 15 11  1  0  0  0  0
 15 14  2  0  0  0  0
 16 15  1  0  0  0  0
 17 16  1  0  0  0  0
 18 16  2  0  0  0  0
 18 20  1  0  0  0  0
 19 18  1  0  0  0  0
 20 21  2  0  0  0  0
 21 14  1  0  0  0  0
 23 25  2  0  0  0  0
 23 22  1  0  0  0  0
 24 23  2  0  0  0  0
 26 28  1  0  0  0  0
 26 27  2  0  0  0  0
 28 29  1  0  0  0  0
 29 30  2  0  0  0  0
 29 34  1  0  0  0  0
 30 35  1  0  0  0  0
 31 30  1  0  0  0  0
 32 31  2  0  0  0  0
 33 32  1  0  0  0  0
 33 28  2  0  0  0  0
 36 39  1  6  0  0  0
 36 32  1  0  0  0  0
 37 36  1  0  0  0  0
 37 40  1  0  0  0  0
 38 42  1  6  0  0  0
 38 37  1  0  0  0  0
 38 36  1  0  0  0  0
 41 37  1  0  0  0  0
 43 38  1  0  0  0  0
 43 45  1  0  0  0  0
 44 43  1  0  0  0  0
M  END
>  <minimizedAffinity>
-5.77854204

$$$$

 OpenBabel03252508053D

 45 48  0  0  1  0  0  0  0  0999 V2000
   39.2500   27.6980   41.2660 C   0  0  0  0  0  0  0  0  0  0  0  0
   39.2460   28.9170   41.8790 C   0  0  0  0  0  0  0  0  0  0  0  0
   40.3930   29.2860   42.6120 C   0  0  0  0  0  0  0  0  0  0  0  0
   41.5010   28.4890   42.7370 C   0  0  0  0  0  0  0  0  0  0  0  0
   41.4970   27.2710   42.1200 C   0  0  0  0  0  0  0  0  0  0  0  0
   40.3950   26.9030   41.4090 C   0  0  0  0  0  0  0  0  0  0  0  0
   40.4740   30.2340   43.1390 H   0  0  0  0  0  0  0  0  0  0  0  0
   42.3560   28.7770   43.2890 H   0  0  0  0  0  0  0  0  0  0  0  0
   42.3220   26.6050   42.1760 H   0  0  0  0  0  0  0  0  0  0  0  0
   40.4060   25.9190   40.9190 H   0  0  0  0  0  0  0  0  0  0  0  0
   37.9960   27.1650   40.2830 S   0  0  0  0  0  0  0  0  0  0  0  0
   36.9040   26.8540   41.3570 O   0  0  0  0  0  0  0  0  0  0  0  0
   38.2990   25.8910   39.5950 O   0  0  0  0  0  0  0  0  0  0  0  0
   37.2210   28.5250   38.1490 C   0  0  0  0  0  0  0  0  0  0  0  0
   36.8330   28.0020   39.4060 C   0  0  0  0  0  0  0  0  0  0  0  0
   35.4560   28.2430   39.6510 C   0  0  0  0  0  0  0  0  0  0  0  0
   35.1580   27.7880   40.6170 H   0  0  0  0  0  0  0  0  0  0  0  0
   34.4810   28.8710   38.9090 C   0  0  0  0  0  0  0  0  0  0  0  0
   33.5020   28.9380   39.2990 H   0  0  0  0  0  0  0  0  0  0  0  0
   35.0260   29.3030   37.7550 C   0  0  0  0  0  3  0  0  0  0  0  0
   36.3200   29.1700   37.3350 C   0  0  0  0  0  3  0  0  0  0  0  0
   39.6330   27.5190   38.1740 H   0  0  0  0  0  0  0  0  0  0  0  0
   38.8610   28.4160   37.5310 S   0  0  0  0  0  0  0  0  0  0  0  0
   39.4970   29.7880   37.3770 O   0  0  0  0  0  0  0  0  0  0  0  0
   38.8510   27.9100   36.0910 O   0  0  0  0  0  0  0  0  0  0  0  0
   38.1230   29.8320   41.8090 C   0  0  0  0  0  0  0  0  0  0  0  0
   37.0510   29.7080   42.4790 O   0  0  0  0  0  0  0  0  0  0  0  0
   38.3360   30.9200   40.8910 C   0  0  0  0  0  0  0  0  0  0  0  0
   37.1460   31.5300   40.3610 C   0  0  0  0  0  0  0  0  0  0  0  0
   37.3290   32.5840   39.4820 C   0  0  0  0  0  0  0  0  0  0  0  0
   38.5990   32.9690   39.1790 N   0  0  0  0  0  0  0  0  0  0  0  0
   39.6990   32.3500   39.7140 C   0  0  0  0  0  0  0  0  0  0  0  0
   39.5330   31.3700   40.5310 N   0  0  0  0  0  0  0  0  0  0  0  0
   36.1330   31.2930   40.5430 H   0  0  0  0  0  0  0  0  0  0  0  0
   36.5120   33.1230   39.0190 H   0  0  0  0  0  0  0  0  0  0  0  0
   41.0370   32.8410   39.3330 C   0  0  1  0  0  0  0  0  0  0  0  0
   41.9810   31.9140   38.6000 C   0  0  0  0  0  0  0  0  0  0  0  0
   41.2470   32.9980   37.8680 C   0  0  1  0  0  0  0  0  0  0  0  0
   41.5090   33.5830   39.9920 H   0  0  0  0  0  0  0  0  0  0  0  0
   41.6030   30.8580   38.5730 H   0  0  0  0  0  0  0  0  0  0  0  0
   43.0510   32.0200   38.8300 H   0  0  0  0  0  0  0  0  0  0  0  0
   41.9090   33.8350   37.5500 H   0  0  0  0  0  0  0  0  0  0  0  0
   40.2750   32.4690   36.9340 N   0  0  0  0  0  0  0  0  0  0  0  0
   40.2630   33.0480   36.0650 H   0  0  0  0  0  0  0  0  0  0  0  0
   40.3510   31.4590   36.7620 H   0  0  0  0  0  0  0  0  0  0  0  0
  1  6  2  0  0  0  0
  1  2  1  0  0  0  0
  2  3  2  0  0  0  0
  3  4  1  0  0  0  0
  3  7  1  0  0  0  0
  4  8  1  0  0  0  0
  5  9  1  0  0  0  0
  5  4  2  0  0  0  0
  6  5  1  0  0  0  0
 10  6  1  0  0  0  0
 11  1  1  0  0  0  0
 11 12  2  0  0  0  0
 13 11  2  0  0  0  0
 14 15  1  0  0  0  0
 15 16  2  0  0  0  0
 15 11  1  0  0  0  0
 16 17  1  0  0  0  0
 18 19  1  0  0  0  0
 18 16  1  0  0  0  0
 20 18  2  0  0  0  0
 21 20  1  0  0  0  0
 21 14  2  0  0  0  0
 23 14  1  0  0  0  0
 23 22  1  0  0  0  0
 24 23  2  0  0  0  0
 25 23  2  0  0  0  0
 26  2  1  0  0  0  0
 26 27  2  0  0  0  0
 28 26  1  0  0  0  0
 29 34  1  0  0  0  0
 29 28  2  0  0  0  0
 30 29  1  0  0  0  0
 31 30  2  0  0  0  0
 31 32  1  0  0  0  0
 32 33  2  0  0  0  0
 33 28  1  0  0  0  0
 35 30  1  0  0  0  0
 36 32  1  0  0  0  0
 36 39  1  1  0  0  0
 37 41  1  0  0  0  0
 37 36  1  0  0  0  0
 38 42  1  6  0  0  0
 38 37  1  0  0  0  0
 38 36  1  0  0  0  0
 40 37  1  0  0  0  0
 43 38  1  0  0  0  0
 44 43  1  0  0  0  0
 45 43  1  0  0  0  0
M  END
>  <minimizedAffinity>
-5.76399851

$$$$
