
 OpenBabel03252508023D

 45 48  0  0  1  0  0  0  0  0999 V2000
   42.0810   33.2460   41.1470 C   0  0  0  0  0  0  0  0  0  0  0  0
   42.8120   34.3860   41.3210 C   0  0  0  0  0  0  0  0  0  0  0  0
   42.1300   35.6180   41.2640 C   0  0  0  0  0  0  0  0  0  0  0  0
   40.7810   35.7290   41.0450 C   0  0  0  0  0  0  0  0  0  0  0  0
   40.0560   34.5840   40.8730 C   0  0  0  0  0  0  0  0  0  0  0  0
   40.7040   33.3870   40.9250 C   0  0  0  0  0  0  0  0  0  0  0  0
   42.6330   36.5750   41.3810 H   0  0  0  0  0  0  0  0  0  0  0  0
   40.2790   36.6590   41.0040 H   0  0  0  0  0  0  0  0  0  0  0  0
   39.0090   34.5980   40.7000 H   0  0  0  0  0  0  0  0  0  0  0  0
   40.1070   32.4740   40.7840 H   0  0  0  0  0  0  0  0  0  0  0  0
   42.7390   31.7070   41.2830 S   0  0  0  0  0  0  0  0  0  0  0  0
   41.6930   30.8760   40.4710 O   0  0  0  0  0  0  0  0  0  0  0  0
   42.7200   31.1870   42.6680 O   0  0  0  0  0  0  0  0  0  0  0  0
   44.6390   29.8770   41.0700 C   0  0  0  0  0  0  0  0  0  0  0  0
   43.9560   30.9350   40.4210 C   0  0  0  0  0  0  0  0  0  0  0  0
   44.4140   31.0880   39.0880 C   0  0  0  0  0  0  0  0  0  0  0  0
   43.8400   31.8900   38.5800 H   0  0  0  0  0  0  0  0  0  0  0  0
   45.3680   30.4180   38.3530 C   0  0  0  0  0  0  0  0  0  0  0  0
   45.5490   30.7120   37.3550 H   0  0  0  0  0  0  0  0  0  0  0  0
   45.9100   29.4540   39.1240 C   0  0  0  0  0  3  0  0  0  0  0  0
   45.6070   29.1460   40.4200 C   0  0  0  0  0  3  0  0  0  0  0  0
   43.1990   29.9380   43.2510 H   0  0  0  0  0  0  0  0  0  0  0  0
   44.3310   29.4180   42.7360 S   0  0  0  0  0  0  0  0  0  0  0  0
   45.5570   29.6130   43.6110 O   0  0  0  0  0  0  0  0  0  0  0  0
   44.1090   27.9120   42.8380 O   0  0  0  0  0  0  0  0  0  0  0  0
   44.2430   34.3760   41.5550 C   0  0  0  0  0  0  0  0  0  0  0  0
   45.1220   34.3010   40.6410 O   0  0  0  0  0  0  0  0  0  0  0  0
   44.5890   34.4610   42.9500 C   0  0  0  0  0  0  0  0  0  0  0  0
   44.3080   35.7200   43.5850 C   0  0  0  0  0  0  0  0  0  0  0  0
   44.6260   35.8210   44.9290 C   0  0  0  0  0  0  0  0  0  0  0  0
   45.1750   34.7430   45.5530 N   0  0  0  0  0  0  0  0  0  0  0  0
   45.4220   33.5640   44.8970 C   0  0  0  0  0  0  0  0  0  0  0  0
   45.1280   33.4670   43.6480 N   0  0  0  0  0  0  0  0  0  0  0  0
   43.8890   36.5990   43.1750 H   0  0  0  0  0  0  0  0  0  0  0  0
   44.4620   36.7160   45.5150 H   0  0  0  0  0  0  0  0  0  0  0  0
   46.0120   32.4470   45.6570 C   0  0  1  0  0  0  0  0  0  0  0  0
   46.9630   32.7500   46.7950 C   0  0  0  0  0  0  0  0  0  0  0  0
   45.5460   32.3390   47.0650 C   0  0  1  0  0  0  0  0  0  0  0  0
   46.1980   31.5090   45.1140 H   0  0  0  0  0  0  0  0  0  0  0  0
   47.2520   33.8330   46.8270 H   0  0  0  0  0  0  0  0  0  0  0  0
   47.7900   32.0410   46.9460 H   0  0  0  0  0  0  0  0  0  0  0  0
   45.4630   31.3090   47.4820 H   0  0  0  0  0  0  0  0  0  0  0  0
   44.7680   33.4080   47.6570 N   0  0  0  0  0  0  0  0  0  0  0  0
   44.1210   33.0220   48.3790 H   0  0  0  0  0  0  0  0  0  0  0  0
   45.3200   34.2130   47.9790 H   0  0  0  0  0  0  0  0  0  0  0  0
  1 11  1  0  0  0  0
  1  2  1  0  0  0  0
  2 26  1  0  0  0  0
  3  2  2  0  0  0  0
  3  7  1  0  0  0  0
  4  3  1  0  0  0  0
  5  6  1  0  0  0  0
  5  4  2  0  0  0  0
  6  1  2  0  0  0  0
  8  4  1  0  0  0  0
  9  5  1  0  0  0  0
 10  6  1  0  0  0  0
 11 13  2  0  0  0  0
 12 11  2  0  0  0  0
 14 23  1  0  0  0  0
 15 14  1  0  0  0  0
 15 11  1  0  0  0  0
 16 15  2  0  0  0  0
 17 16  1  0  0  0  0
 18 16  1  0  0  0  0
 18 20  2  0  0  0  0
 19 18  1  0  0  0  0
 20 21  1  0  0  0  0
 21 14  2  0  0  0  0
 23 25  2  0  0  0  0
 23 22  1  0  0  0  0
 23 24  2  0  0  0  0
 26 28  1  0  0  0  0
 27 26  2  0  0  0  0
 28 29  2  0  0  0  0
 28 33  1  0  0  0  0
 29 30  1  0  0  0  0
 30 35  1  0  0  0  0
 30 31  2  0  0  0  0
 32 31  1  0  0  0  0
 32 36  1  0  0  0  0
 33 32  2  0  0  0  0
 34 29  1  0  0  0  0
 36 39  1  6  0  0  0
 36 37  1  0  0  0  0
 36 38  1  0  0  0  0
 37 40  1  0  0  0  0
 37 41  1  0  0  0  0
 37 38  1  0  0  0  0
 38 42  1  1  0  0  0
 38 43  1  0  0  0  0
 43 45  1  0  0  0  0
 43 44  1  0  0  0  0
M  END
>  <minimizedAffinity>
-5.52511168

>  <minimizedRMSD>
1.32564628

$$$$
