
 OpenBabel03242512333D

 23 24  0  0  0  0  0  0  0  0999 V2000
   45.3600   33.7790   40.3790 C   0  0  0  0  0  0  0  0  0  0  0  0
   46.6110   34.1150   40.8630 C   0  0  0  0  0  0  0  0  0  0  0  0
   47.7160   33.6580   40.1620 C   0  0  0  0  0  0  0  0  0  0  0  0
   48.7150   33.9040   40.5140 H   0  0  0  0  0  0  0  0  0  0  0  0
   47.5590   32.8930   39.0180 C   0  0  0  0  0  0  0  0  0  0  0  0
   48.4080   32.5420   38.4790 H   0  0  0  0  0  0  0  0  0  0  0  0
   46.2960   32.5540   38.5320 C   0  0  0  0  0  0  0  0  0  0  0  0
   45.2010   33.0140   39.2380 C   0  0  0  0  0  0  0  0  0  0  0  0
   44.3090   34.6860   42.5500 H   0  0  0  0  0  0  0  0  0  0  0  0
   43.9640   34.3570   41.2680 S   0  0  0  0  0  0  0  0  0  0  0  0
   42.9180   33.2560   41.2700 O   0  0  0  0  0  0  0  0  0  0  0  0
   43.3060   35.5230   40.5510 O   0  0  0  0  0  0  0  0  0  0  0  0
   46.8570   34.9170   42.0590 C   0  0  0  0  0  0  0  0  0  0  0  0
   47.8460   35.6910   41.8350 O   0  0  0  0  0  0  0  0  0  0  0  0
   46.1350   34.8820   43.3120 C   0  0  0  0  0  0  0  0  0  0  0  0
   45.2890   35.9830   43.5490 C   0  0  0  0  0  0  0  0  0  0  0  0
   44.5850   35.9720   44.7480 C   0  0  0  0  0  0  0  0  0  0  0  0
   44.7520   34.9260   45.5950 N   0  0  0  0  0  0  0  0  0  0  0  0
   45.5690   33.9010   45.3240 C   0  0  0  0  0  0  0  0  0  0  0  0
   46.2620   33.8660   44.1920 N   0  0  0  0  0  0  0  0  0  0  0  0
   45.1650   36.7990   42.8780 H   0  0  0  0  0  0  0  0  0  0  0  0
   43.9160   36.7950   44.9860 H   0  0  0  0  0  0  0  0  0  0  0  0
   45.7220   33.0530   45.9780 H   0  0  0  0  0  0  0  0  0  0  0  0
  1  2  1  0  0  0  0
  1 10  1  0  0  0  0
  2 13  1  0  0  0  0
  3  4  1  0  0  0  0
  3  2  2  0  0  0  0
  5  3  1  0  0  0  0
  6  5  1  0  0  0  0
  7  5  2  0  0  0  0
  7  8  1  0  0  0  0
  8  1  2  0  0  0  0
 10 11  2  0  0  0  0
 10  9  1  0  0  0  0
 12 10  2  0  0  0  0
 13 15  1  0  0  0  0
 14 13  2  0  0  0  0
 15 16  2  0  0  0  0
 15 20  1  0  0  0  0
 16 17  1  0  0  0  0
 17 22  1  0  0  0  0
 17 18  2  0  0  0  0
 19 18  1  0  0  0  0
 19 23  1  0  0  0  0
 20 19  2  0  0  0  0
 21 16  1  0  0  0  0
M  END
>  <minimizedAffinity>
-4.50593138

>  <minimizedRMSD>
0.270847082

$$$$
