
     RDKit          3D

 42 44  0  0  0  0  0  0  0  0999 V2000
   46.3160   34.9949   41.9088 C   0  0  0  0  0  0  0  0  0  0  0  0
   44.8566   34.9420   41.6933 C   0  0  0  0  0  0  0  0  0  0  0  0
   43.9810   35.4344   42.6984 C   0  0  0  0  0  0  0  0  0  0  0  0
   42.3175   35.1557   41.9776 S   0  0  0  0  0  0  0  0  0  0  0  0
   43.1038   34.4048   40.4068 C   0  0  0  0  0  0  0  0  0  0  0  0
   44.2195   34.4802   40.6484 N   0  0  0  0  0  0  0  0  0  0  0  0
   42.3551   33.9325   39.3316 O   0  0  0  0  0  0  0  0  0  0  0  0
   40.4012   34.3964   37.6075 O   0  0  0  0  0  0  0  0  0  0  0  0
   41.4860   35.0730   38.4273 P   0  0  0  0  0  0  0  0  0  0  0  0
   40.7680   36.1638   39.4958 O   0  0  0  0  0  0  0  0  0  0  0  0
   42.5531   35.9272   37.4210 O   0  0  0  0  0  0  0  0  0  0  0  0
   47.1410   34.3486   40.8288 C   0  0  0  0  0  0  0  0  0  0  0  0
   48.4646   33.9220   41.2916 C   0  0  0  0  0  0  0  0  0  0  0  0
   48.9294   32.7171   40.7976 C   0  0  0  0  0  0  0  0  0  0  0  0
   50.1756   32.2225   41.1597 C   0  0  0  0  0  0  0  0  0  0  0  0
   50.9151   32.9732   42.0186 N   0  0  0  0  0  0  0  0  0  0  0  0
   50.4282   34.1584   42.4891 C   0  0  0  0  0  0  0  0  0  0  0  0
   49.2365   34.5915   42.1181 N   0  0  0  0  0  0  0  0  0  0  0  0
   47.9318   31.7508   39.6380 S   0  0  0  0  0  0  0  0  0  0  0  0
   46.5814   36.0721   41.9526 H   0  0  0  0  0  0  0  0  0  0  0  0
   46.6314   34.4959   42.8680 H   0  0  0  0  0  0  0  0  0  0  0  0
   44.2406   35.8661   43.6519 H   0  0  0  0  0  0  0  0  0  0  0  0
   40.3400   36.9308   39.0278 H   0  0  0  0  0  0  0  0  0  0  0  0
   43.0913   35.2481   36.9594 H   0  0  0  0  0  0  0  0  0  0  0  0
   47.2564   35.0904   39.9801 H   0  0  0  0  0  0  0  0  0  0  0  0
   46.5368   33.5292   40.3998 H   0  0  0  0  0  0  0  0  0  0  0  0
   50.5977   31.3119   40.8225 H   0  0  0  0  0  0  0  0  0  0  0  0
   50.9635   34.8047   43.1743 H   0  0  0  0  0  0  0  0  0  0  0  0
   49.3448   29.5929   38.6734 H   0  0  0  0  0  0  0  0  0  0  0  0
   48.7938   28.6587   39.4839 S   0  0  0  0  0  0  0  0  0  0  0  0
   48.4684   27.4234   38.6802 O   0  0  0  0  0  0  0  0  0  0  0  0
   49.8300   28.2437   40.4934 O   0  0  0  0  0  0  0  0  0  0  0  0
   47.3843   29.2333   40.3341 C   0  0  0  0  0  0  0  0  0  0  0  0
   46.9224   30.5447   40.4605 C   0  0  0  0  0  0  0  0  0  0  0  0
   45.7690   30.7292   41.1892 C   0  0  0  0  0  0  0  0  0  0  0  0
   45.4418   31.7366   41.2651 H   0  0  0  0  0  0  0  0  0  0  0  0
   45.0679   29.7052   41.7843 C   0  0  0  0  0  0  0  0  0  0  0  0
   44.1741   29.9512   42.3353 H   0  0  0  0  0  0  0  0  0  0  0  0
   45.5214   28.4091   41.6615 C   0  0  0  0  0  0  0  0  0  0  0  0
   46.6842   28.1943   40.9306 C   0  0  0  0  0  0  0  0  0  0  0  0
   44.9475   27.6293   42.1410 H   0  0  0  0  0  0  0  0  0  0  0  0
   46.9430   27.1343   40.9034 H   0  0  0  0  0  0  0  0  0  0  0  0
  2  1  1  0
  2  3  2  0
  4  3  1  0
  5  6  2  0
  5  4  1  0
  6  2  1  0
  7  5  1  0
  8  9  2  0
  9  7  1  0
  9 10  1  0
 11  9  1  0
 12 13  1  0
 12  1  1  0
 13 18  2  0
 14 15  2  0
 14 13  1  0
 15 16  1  0
 16 17  2  0
 18 17  1  0
 19 14  1  0
  1 20  1  0
  1 21  1  0
  3 22  1  0
 10 23  1  0
 11 24  1  0
 12 25  1  0
 12 26  1  0
 15 27  1  0
 17 28  1  0
 29 30  1  0
 30 31  2  0
 30 32  2  0
 30 33  1  0
 33 34  2  0
 34 35  1  0
 35 36  1  0
 35 37  2  0
 37 38  1  0
 37 39  1  0
 39 40  2  0
 40 33  1  0
 39 41  1  0
 40 42  1  0
 19 34  1  0
M  ISO  8  20   8  21   8  22  14  23   3  24   3  25   8  26   8  27  14
M  ISO  4  28  14  29  12  36  15  38  16
M  END
>  <DihAtoms>  (1) 
13,18,33,32

>  <DihDeg>  (1) 
-90.26644043136989

$$$$
