
 OpenBabel03252507463D

 40 42  0  0  0  0  0  0  0  0999 V2000
   48.9480   33.8650   41.2290 C   0  0  0  0  0  0  0  0  0  0  0  0
   49.1570   32.7910   40.3840 C   0  0  0  0  0  0  0  0  0  0  0  0
   50.2580   31.9570   40.5370 C   0  0  0  0  0  0  0  0  0  0  0  0
   51.1150   32.2430   41.5520 N   0  0  0  0  0  0  0  0  0  0  0  0
   50.8800   33.3100   42.3700 C   0  0  0  0  0  0  0  0  0  0  0  0
   49.8200   34.0780   42.1880 N   0  0  0  0  0  0  0  0  0  0  0  0
   50.4850   31.1210   39.9290 H   0  0  0  0  0  0  0  0  0  0  0  0
   51.5220   33.5940   43.1960 H   0  0  0  0  0  0  0  0  0  0  0  0
   47.7600   34.6820   40.9630 C   0  0  0  0  0  0  0  0  0  0  0  0
   48.0770   35.6910   40.5550 H   0  0  0  0  0  0  0  0  0  0  0  0
   47.1020   34.2630   40.1810 H   0  0  0  0  0  0  0  0  0  0  0  0
   46.9130   34.9130   42.1850 C   0  0  0  0  0  0  0  0  0  0  0  0
   47.1370   35.9270   42.5780 H   0  0  0  0  0  0  0  0  0  0  0  0
   47.2490   34.1420   42.9340 H   0  0  0  0  0  0  0  0  0  0  0  0
   45.4570   34.8790   41.9480 C   0  0  0  0  0  0  0  0  0  0  0  0
   44.6220   35.8400   42.5800 C   0  0  0  0  0  0  0  0  0  0  0  0
   42.9450   35.3930   41.9860 S   0  0  0  0  0  0  0  0  0  0  0  0
   43.6720   33.9520   40.9630 C   0  0  0  0  0  0  0  0  0  0  0  0
   44.7880   34.0430   41.1960 N   0  0  0  0  0  0  0  0  0  0  0  0
   44.9120   36.6370   43.2460 H   0  0  0  0  0  0  0  0  0  0  0  0
   42.8920   33.1010   40.1840 O   0  0  0  0  0  0  0  0  0  0  0  0
   41.5850   32.6220   37.9320 O   0  0  0  0  0  0  0  0  0  0  0  0
   42.3330   33.7000   38.6990 P   0  0  0  0  0  0  0  0  0  0  0  0
   41.2830   34.9850   39.0050 O   0  0  0  0  0  0  0  0  0  0  0  0
   41.0100   35.4610   38.1740 H   0  0  0  0  0  0  0  0  0  0  0  0
   43.6460   34.2790   37.7940 O   0  0  0  0  0  0  0  0  0  0  0  0
   44.3200   33.5660   37.8070 H   0  0  0  0  0  0  0  0  0  0  0  0
   48.0110   32.4500   39.0270 S   0  0  0  0  0  0  0  0  0  0  0  0
   45.7330   31.1550   38.5190 C   0  0  0  0  0  0  0  0  0  0  0  0
   46.6250   31.4690   39.5460 C   0  0  0  0  0  0  0  0  0  0  0  0
   46.3230   30.9890   40.8000 C   0  0  0  0  0  0  0  0  0  0  0  0
   47.0190   31.2460   41.5600 H   0  0  0  0  0  0  0  0  0  0  0  0
   45.2080   30.2330   41.0820 C   0  0  0  0  0  0  0  0  0  0  0  0
   45.0580   29.9030   42.0970 H   0  0  0  0  0  0  0  0  0  0  0  0
   44.3250   29.9200   40.0710 C   0  0  0  0  0  3  0  0  0  0  0  0
   44.6070   30.3920   38.7930 C   0  0  0  0  0  3  0  0  0  0  0  0
   46.5210   32.7390   36.6220 H   0  0  0  0  0  0  0  0  0  0  0  0
   45.8160   31.6040   36.8370 S   0  0  0  0  0  0  0  0  0  0  0  0
   44.4320   31.7540   36.2540 O   0  0  0  0  0  0  0  0  0  0  0  0
   46.4770   30.4890   36.0720 O   0  0  0  0  0  0  0  0  0  0  0  0
  1  6  1  0  0  0  0
  2  3  1  0  0  0  0
  2  1  2  0  0  0  0
  3  4  2  0  0  0  0
  4  5  1  0  0  0  0
  5  8  1  0  0  0  0
  6  5  2  0  0  0  0
  7  3  1  0  0  0  0
  9  1  1  0  0  0  0
  9 12  1  0  0  0  0
 10  9  1  0  0  0  0
 11  9  1  0  0  0  0
 12 13  1  0  0  0  0
 12 14  1  0  0  0  0
 15 12  1  0  0  0  0
 15 16  2  0  0  0  0
 16 20  1  0  0  0  0
 17 16  1  0  0  0  0
 18 19  2  0  0  0  0
 18 17  1  0  0  0  0
 19 15  1  0  0  0  0
 21 18  1  0  0  0  0
 22 23  2  0  0  0  0
 23 24  1  0  0  0  0
 23 21  1  0  0  0  0
 25 24  1  0  0  0  0
 26 27  1  0  0  0  0
 26 23  1  0  0  0  0
 28 30  1  0  0  0  0
 28  2  1  0  0  0  0
 29 36  2  0  0  0  0
 29 30  1  0  0  0  0
 30 31  2  0  0  0  0
 31 33  1  0  0  0  0
 31 32  1  0  0  0  0
 33 34  1  0  0  0  0
 35 33  2  0  0  0  0
 36 35  1  0  0  0  0
 37 38  1  0  0  0  0
 38 29  1  0  0  0  0
 39 38  2  0  0  0  0
 40 38  2  0  0  0  0
M  END
>  <minimizedAffinity>
-4.2882781

>  <minimizedRMSD>
1.94789135

$$$$
