
 OpenBabel03252507483D

 40 42  0  0  0  0  0  0  0  0999 V2000
   36.4010   29.1880   37.6650 C   0  0  0  0  0  0  0  0  0  0  0  0
   36.7100   27.9530   38.2040 C   0  0  0  0  0  0  0  0  0  0  0  0
   35.8520   26.8700   38.0610 C   0  0  0  0  0  0  0  0  0  0  0  0
   34.7000   27.0780   37.3700 N   0  0  0  0  0  0  0  0  0  0  0  0
   34.4250   28.3100   36.8500 C   0  0  0  0  0  0  0  0  0  0  0  0
   35.2690   29.3140   37.0100 N   0  0  0  0  0  0  0  0  0  0  0  0
   36.0190   25.8980   38.4460 H   0  0  0  0  0  0  0  0  0  0  0  0
   33.5270   28.5450   36.2900 H   0  0  0  0  0  0  0  0  0  0  0  0
   37.3760   30.2600   37.8910 C   0  0  0  0  0  0  0  0  0  0  0  0
   38.3310   29.8220   38.3140 H   0  0  0  0  0  0  0  0  0  0  0  0
   37.6930   30.7720   36.9650 H   0  0  0  0  0  0  0  0  0  0  0  0
   36.8830   31.3180   38.8410 C   0  0  0  0  0  0  0  0  0  0  0  0
   36.4710   30.8150   39.7400 H   0  0  0  0  0  0  0  0  0  0  0  0
   36.0500   31.8460   38.2970 H   0  0  0  0  0  0  0  0  0  0  0  0
   37.9200   32.2460   39.3310 C   0  0  0  0  0  0  0  0  0  0  0  0
   37.5770   33.2400   40.2880 C   0  0  0  0  0  0  0  0  0  0  0  0
   39.1620   34.1150   40.5710 S   0  0  0  0  0  0  0  0  0  0  0  0
   40.0400   32.9670   39.3210 C   0  0  0  0  0  0  0  0  0  0  0  0
   39.1830   32.2870   38.9910 N   0  0  0  0  0  0  0  0  0  0  0  0
   36.6120   33.4260   40.7350 H   0  0  0  0  0  0  0  0  0  0  0  0
   41.3940   33.0740   39.0100 O   0  0  0  0  0  0  0  0  0  0  0  0
   42.8690   31.6240   37.3580 O   0  0  0  0  0  0  0  0  0  0  0  0
   41.8510   32.7500   37.4090 P   0  0  0  0  0  0  0  0  0  0  0  0
   40.4770   32.2880   36.5460 O   0  0  0  0  0  0  0  0  0  0  0  0
   40.6510   32.1980   35.5700 H   0  0  0  0  0  0  0  0  0  0  0  0
   42.4810   34.1610   36.7060 O   0  0  0  0  0  0  0  0  0  0  0  0
   43.1450   34.5060   37.3410 H   0  0  0  0  0  0  0  0  0  0  0  0
   38.2400   27.7120   39.1390 S   0  0  0  0  0  0  0  0  0  0  0  0
   37.8920   26.7510   41.6040 C   0  0  0  0  0  0  0  0  0  0  0  0
   38.0050   27.9410   40.8840 C   0  0  0  0  0  0  0  0  0  0  0  0
   37.9230   29.1120   41.6020 C   0  0  0  0  0  0  0  0  0  0  0  0
   38.0110   30.0000   41.0260 H   0  0  0  0  0  0  0  0  0  0  0  0
   37.7370   29.1620   42.9650 C   0  0  0  0  0  0  0  0  0  0  0  0
   37.6860   30.1300   43.4380 H   0  0  0  0  0  0  0  0  0  0  0  0
   37.6250   27.9880   43.6800 C   0  0  0  0  0  3  0  0  0  0  0  0
   37.7040   26.7910   42.9780 C   0  0  0  0  0  3  0  0  0  0  0  0
   38.7420   24.9690   39.9200 H   0  0  0  0  0  0  0  0  0  0  0  0
   37.9470   25.1140   41.0070 S   0  0  0  0  0  0  0  0  0  0  0  0
   36.5590   24.6130   40.6860 O   0  0  0  0  0  0  0  0  0  0  0  0
   38.4750   24.2210   42.0970 O   0  0  0  0  0  0  0  0  0  0  0  0
  1  9  1  0  0  0  0
  1  2  1  0  0  0  0
  2 28  1  0  0  0  0
  3  2  2  0  0  0  0
  3  7  1  0  0  0  0
  4  3  1  0  0  0  0
  5  6  1  0  0  0  0
  5  4  2  0  0  0  0
  6  1  2  0  0  0  0
  8  5  1  0  0  0  0
  9 10  1  0  0  0  0
  9 12  1  0  0  0  0
 11  9  1  0  0  0  0
 12 15  1  0  0  0  0
 12 13  1  0  0  0  0
 14 12  1  0  0  0  0
 15 16  2  0  0  0  0
 16 17  1  0  0  0  0
 16 20  1  0  0  0  0
 18 17  1  0  0  0  0
 19 18  2  0  0  0  0
 19 15  1  0  0  0  0
 21 18  1  0  0  0  0
 22 23  2  0  0  0  0
 23 21  1  0  0  0  0
 24 23  1  0  0  0  0
 25 24  1  0  0  0  0
 26 27  1  0  0  0  0
 26 23  1  0  0  0  0
 28 30  1  0  0  0  0
 29 36  1  0  0  0  0
 30 31  1  0  0  0  0
 30 29  2  0  0  0  0
 31 33  2  0  0  0  0
 32 31  1  0  0  0  0
 33 34  1  0  0  0  0
 33 35  1  0  0  0  0
 36 35  2  0  0  0  0
 37 38  1  0  0  0  0
 38 29  1  0  0  0  0
 38 40  2  0  0  0  0
 39 38  2  0  0  0  0
M  END
>  <minimizedAffinity>
-5.90537024

$$$$

 OpenBabel03252507483D

 40 42  0  0  0  0  0  0  0  0999 V2000
   38.2220   28.5960   42.3410 C   0  0  0  0  0  0  0  0  0  0  0  0
   37.1210   28.3530   41.5400 C   0  0  0  0  0  0  0  0  0  0  0  0
   36.7570   27.0590   41.1880 C   0  0  0  0  0  0  0  0  0  0  0  0
   37.5300   26.0470   41.6650 N   0  0  0  0  0  0  0  0  0  0  0  0
   38.6100   26.3200   42.4530 C   0  0  0  0  0  0  0  0  0  0  0  0
   38.9210   27.5670   42.7630 N   0  0  0  0  0  0  0  0  0  0  0  0
   35.9320   26.7970   40.5790 H   0  0  0  0  0  0  0  0  0  0  0  0
   39.2670   25.5620   42.8650 H   0  0  0  0  0  0  0  0  0  0  0  0
   38.5170   30.0020   42.6350 C   0  0  0  0  0  0  0  0  0  0  0  0
   37.7090   30.6600   42.1890 H   0  0  0  0  0  0  0  0  0  0  0  0
   38.5030   30.2400   43.7140 H   0  0  0  0  0  0  0  0  0  0  0  0
   39.8450   30.4540   42.0920 C   0  0  0  0  0  0  0  0  0  0  0  0
   40.2260   29.6720   41.4030 H   0  0  0  0  0  0  0  0  0  0  0  0
   40.5270   30.5250   42.9860 H   0  0  0  0  0  0  0  0  0  0  0  0
   39.8040   31.7040   41.3080 C   0  0  0  0  0  0  0  0  0  0  0  0
   38.6370   32.5130   41.3390 C   0  0  0  0  0  0  0  0  0  0  0  0
   39.0670   33.9130   40.2370 S   0  0  0  0  0  0  0  0  0  0  0  0
   40.7890   33.1520   39.9120 C   0  0  0  0  0  0  0  0  0  0  0  0
   40.7440   32.2010   40.5440 N   0  0  0  0  0  0  0  0  0  0  0  0
   37.7220   32.3380   41.8840 H   0  0  0  0  0  0  0  0  0  0  0  0
   41.7390   33.7420   39.0820 O   0  0  0  0  0  0  0  0  0  0  0  0
   42.8290   31.7770   37.6840 O   0  0  0  0  0  0  0  0  0  0  0  0
   41.9890   33.0360   37.5600 P   0  0  0  0  0  0  0  0  0  0  0  0
   40.4860   32.6340   36.9070 O   0  0  0  0  0  0  0  0  0  0  0  0
   40.5510   32.3240   35.9640 H   0  0  0  0  0  0  0  0  0  0  0  0
   42.7400   34.1600   36.5330 O   0  0  0  0  0  0  0  0  0  0  0  0
   43.5050   34.5170   37.0360 H   0  0  0  0  0  0  0  0  0  0  0  0
   36.1260   29.7230   40.9020 S   0  0  0  0  0  0  0  0  0  0  0  0
   36.3010   29.5990   38.2420 C   0  0  0  0  0  0  0  0  0  0  0  0
   35.4320   29.3640   39.3080 C   0  0  0  0  0  0  0  0  0  0  0  0
   34.1770   28.8930   38.9940 C   0  0  0  0  0  0  0  0  0  0  0  0
   33.5380   28.7260   39.8260 H   0  0  0  0  0  0  0  0  0  0  0  0
   33.7490   28.6520   37.7080 C   0  0  0  0  0  0  0  0  0  0  0  0
   32.7460   28.2840   37.5640 H   0  0  0  0  0  0  0  0  0  0  0  0
   34.6050   28.8840   36.6520 C   0  0  0  0  0  3  0  0  0  0  0  0
   35.8790   29.3600   36.9420 C   0  0  0  0  0  3  0  0  0  0  0  0
   38.4800   30.1640   39.5320 H   0  0  0  0  0  0  0  0  0  0  0  0
   37.9390   30.1940   38.2900 S   0  0  0  0  0  0  0  0  0  0  0  0
   38.0170   31.5980   37.7410 O   0  0  0  0  0  0  0  0  0  0  0  0
   38.7880   29.3410   37.3870 O   0  0  0  0  0  0  0  0  0  0  0  0
  1  9  1  0  0  0  0
  1  6  1  0  0  0  0
  2  1  2  0  0  0  0
  3  2  1  0  0  0  0
  3  4  2  0  0  0  0
  4  5  1  0  0  0  0
  5  6  2  0  0  0  0
  5  8  1  0  0  0  0
  7  3  1  0  0  0  0
  9 11  1  0  0  0  0
 10  9  1  0  0  0  0
 12  9  1  0  0  0  0
 12 14  1  0  0  0  0
 13 12  1  0  0  0  0
 15 16  2  0  0  0  0
 15 12  1  0  0  0  0
 16 20  1  0  0  0  0
 17 16  1  0  0  0  0
 18 17  1  0  0  0  0
 18 19  2  0  0  0  0
 19 15  1  0  0  0  0
 21 18  1  0  0  0  0
 23 22  2  0  0  0  0
 23 21  1  0  0  0  0
 24 23  1  0  0  0  0
 25 24  1  0  0  0  0
 26 27  1  0  0  0  0
 26 23  1  0  0  0  0
 28  2  1  0  0  0  0
 29 38  1  0  0  0  0
 29 30  1  0  0  0  0
 30 28  1  0  0  0  0
 31 30  2  0  0  0  0
 31 32  1  0  0  0  0
 33 31  1  0  0  0  0
 34 33  1  0  0  0  0
 35 36  1  0  0  0  0
 35 33  2  0  0  0  0
 36 29  2  0  0  0  0
 38 37  1  0  0  0  0
 39 38  2  0  0  0  0
 40 38  2  0  0  0  0
M  END
>  <minimizedAffinity>
-5.88022041

$$$$

 OpenBabel03252507483D

 40 42  0  0  0  0  0  0  0  0999 V2000
   36.3690   29.0370   37.8070 C   0  0  0  0  0  0  0  0  0  0  0  0
   37.2870   28.0220   37.6110 C   0  0  0  0  0  0  0  0  0  0  0  0
   37.3440   27.3250   36.4100 C   0  0  0  0  0  0  0  0  0  0  0  0
   36.4610   27.6850   35.4420 N   0  0  0  0  0  0  0  0  0  0  0  0
   35.5670   28.6910   35.6670 C   0  0  0  0  0  0  0  0  0  0  0  0
   35.5470   29.3280   36.8250 N   0  0  0  0  0  0  0  0  0  0  0  0
   38.0160   26.5370   36.1880 H   0  0  0  0  0  0  0  0  0  0  0  0
   34.8360   29.0270   34.9400 H   0  0  0  0  0  0  0  0  0  0  0  0
   36.3930   29.6920   39.1180 C   0  0  0  0  0  0  0  0  0  0  0  0
   35.3630   29.6420   39.5870 H   0  0  0  0  0  0  0  0  0  0  0  0
   37.0530   29.1920   39.8500 H   0  0  0  0  0  0  0  0  0  0  0  0
   36.8100   31.1360   39.0510 C   0  0  0  0  0  0  0  0  0  0  0  0
   36.0540   31.7430   39.5910 H   0  0  0  0  0  0  0  0  0  0  0  0
   36.7900   31.4050   37.9580 H   0  0  0  0  0  0  0  0  0  0  0  0
   38.1070   31.4390   39.6880 C   0  0  0  0  0  0  0  0  0  0  0  0
   38.2590   31.2560   41.0890 C   0  0  0  0  0  0  0  0  0  0  0  0
   39.9980   31.7530   41.3900 S   0  0  0  0  0  0  0  0  0  0  0  0
   40.2300   32.1330   39.5320 C   0  0  0  0  0  0  0  0  0  0  0  0
   39.1970   31.8770   39.1130 N   0  0  0  0  0  0  0  0  0  0  0  0
   37.5240   30.9080   41.7980 H   0  0  0  0  0  0  0  0  0  0  0  0
   41.4270   32.5990   38.9940 O   0  0  0  0  0  0  0  0  0  0  0  0
   42.3940   31.3570   36.8660 O   0  0  0  0  0  0  0  0  0  0  0  0
   41.5860   32.5650   37.3050 P   0  0  0  0  0  0  0  0  0  0  0  0
   40.0430   32.4710   36.6280 O   0  0  0  0  0  0  0  0  0  0  0  0
   40.0550   32.5680   35.6370 H   0  0  0  0  0  0  0  0  0  0  0  0
   42.3190   34.0020   36.7790 O   0  0  0  0  0  0  0  0  0  0  0  0
   43.1160   34.1210   37.3400 H   0  0  0  0  0  0  0  0  0  0  0  0
   38.4350   27.5500   38.9270 S   0  0  0  0  0  0  0  0  0  0  0  0
   38.0880   26.4400   41.3290 C   0  0  0  0  0  0  0  0  0  0  0  0
   37.7680   26.2850   39.9790 C   0  0  0  0  0  0  0  0  0  0  0  0
   36.9940   25.1970   39.6460 C   0  0  0  0  0  0  0  0  0  0  0  0
   36.7700   25.1050   38.6120 H   0  0  0  0  0  0  0  0  0  0  0  0
   36.5340   24.2760   40.5590 C   0  0  0  0  0  0  0  0  0  0  0  0
   35.9330   23.4560   40.1990 H   0  0  0  0  0  0  0  0  0  0  0  0
   36.8480   24.4260   41.8930 C   0  0  0  0  0  3  0  0  0  0  0  0
   37.6290   25.5170   42.2580 C   0  0  0  0  0  3  0  0  0  0  0  0
   38.7720   28.9290   41.5990 H   0  0  0  0  0  0  0  0  0  0  0  0
   39.0420   27.6910   42.0790 S   0  0  0  0  0  0  0  0  0  0  0  0
   40.5170   27.4040   41.9290 O   0  0  0  0  0  0  0  0  0  0  0  0
   38.7620   27.6910   43.5580 O   0  0  0  0  0  0  0  0  0  0  0  0
  1  9  1  0  0  0  0
  2  1  1  0  0  0  0
  2 28  1  0  0  0  0
  3  2  2  0  0  0  0
  4  5  2  0  0  0  0
  4  3  1  0  0  0  0
  5  6  1  0  0  0  0
  6  1  2  0  0  0  0
  7  3  1  0  0  0  0
  8  5  1  0  0  0  0
  9 10  1  0  0  0  0
  9 11  1  0  0  0  0
 12  9  1  0  0  0  0
 12 13  1  0  0  0  0
 12 15  1  0  0  0  0
 14 12  1  0  0  0  0
 15 16  2  0  0  0  0
 16 17  1  0  0  0  0
 16 20  1  0  0  0  0
 18 17  1  0  0  0  0
 19 18  2  0  0  0  0
 19 15  1  0  0  0  0
 21 18  1  0  0  0  0
 22 23  2  0  0  0  0
 23 21  1  0  0  0  0
 24 23  1  0  0  0  0
 25 24  1  0  0  0  0
 26 23  1  0  0  0  0
 26 27  1  0  0  0  0
 28 30  1  0  0  0  0
 29 38  1  0  0  0  0
 29 36  1  0  0  0  0
 30 29  2  0  0  0  0
 31 30  1  0  0  0  0
 31 33  2  0  0  0  0
 32 31  1  0  0  0  0
 33 35  1  0  0  0  0
 34 33  1  0  0  0  0
 35 36  2  0  0  0  0
 37 38  1  0  0  0  0
 38 40  2  0  0  0  0
 39 38  2  0  0  0  0
M  END
>  <minimizedAffinity>
-5.6438818

$$$$

 OpenBabel03252507483D

 40 42  0  0  0  0  0  0  0  0999 V2000
   38.4900   28.5390   42.4420 C   0  0  0  0  0  0  0  0  0  0  0  0
   37.4930   27.7710   41.8700 C   0  0  0  0  0  0  0  0  0  0  0  0
   37.5410   26.3820   41.9080 C   0  0  0  0  0  0  0  0  0  0  0  0
   38.6080   25.8170   42.5330 N   0  0  0  0  0  0  0  0  0  0  0  0
   39.5750   26.6030   43.0880 C   0  0  0  0  0  0  0  0  0  0  0  0
   39.4900   27.9210   43.0280 N   0  0  0  0  0  0  0  0  0  0  0  0
   36.8190   25.7300   41.4910 H   0  0  0  0  0  0  0  0  0  0  0  0
   40.4500   26.2180   43.5990 H   0  0  0  0  0  0  0  0  0  0  0  0
   38.3390   29.9930   42.3270 C   0  0  0  0  0  0  0  0  0  0  0  0
   37.7490   30.2410   41.3920 H   0  0  0  0  0  0  0  0  0  0  0  0
   37.7550   30.4430   43.1500 H   0  0  0  0  0  0  0  0  0  0  0  0
   39.6540   30.7210   42.2610 C   0  0  0  0  0  0  0  0  0  0  0  0
   40.4200   30.0230   41.8630 H   0  0  0  0  0  0  0  0  0  0  0  0
   39.9080   30.9820   43.3260 H   0  0  0  0  0  0  0  0  0  0  0  0
   39.6700   31.8960   41.3680 C   0  0  0  0  0  0  0  0  0  0  0  0
   38.5030   32.6980   41.2440 C   0  0  0  0  0  0  0  0  0  0  0  0
   39.0120   33.9980   40.0560 S   0  0  0  0  0  0  0  0  0  0  0  0
   40.7530   33.2220   39.9240 C   0  0  0  0  0  0  0  0  0  0  0  0
   40.6620   32.3300   40.6330 N   0  0  0  0  0  0  0  0  0  0  0  0
   37.5510   32.5660   41.7340 H   0  0  0  0  0  0  0  0  0  0  0  0
   41.7610   33.7430   39.1160 O   0  0  0  0  0  0  0  0  0  0  0  0
   42.8260   31.7800   37.6970 O   0  0  0  0  0  0  0  0  0  0  0  0
   41.9790   33.0360   37.5910 P   0  0  0  0  0  0  0  0  0  0  0  0
   40.4630   32.6260   36.9730 O   0  0  0  0  0  0  0  0  0  0  0  0
   40.5070   32.3140   36.0290 H   0  0  0  0  0  0  0  0  0  0  0  0
   42.7020   34.1600   36.5450 O   0  0  0  0  0  0  0  0  0  0  0  0
   43.4760   34.5210   37.0290 H   0  0  0  0  0  0  0  0  0  0  0  0
   36.0980   28.5520   41.0250 S   0  0  0  0  0  0  0  0  0  0  0  0
   36.4560   28.1900   38.4050 C   0  0  0  0  0  0  0  0  0  0  0  0
   36.5370   29.1520   39.4130 C   0  0  0  0  0  0  0  0  0  0  0  0
   36.9370   30.4140   39.0350 C   0  0  0  0  0  0  0  0  0  0  0  0
   36.9900   31.1230   39.8240 H   0  0  0  0  0  0  0  0  0  0  0  0
   37.2550   30.7610   37.7420 C   0  0  0  0  0  0  0  0  0  0  0  0
   37.5580   31.7770   37.5460 H   0  0  0  0  0  0  0  0  0  0  0  0
   37.1770   29.8130   36.7440 C   0  0  0  0  0  3  0  0  0  0  0  0
   36.7750   28.5300   37.0990 C   0  0  0  0  0  3  0  0  0  0  0  0
   35.3120   26.2410   39.6810 H   0  0  0  0  0  0  0  0  0  0  0  0
   35.9940   26.5140   38.5420 S   0  0  0  0  0  0  0  0  0  0  0  0
   37.2030   25.6140   38.4510 O   0  0  0  0  0  0  0  0  0  0  0  0
   35.1160   26.1600   37.3730 O   0  0  0  0  0  0  0  0  0  0  0  0
  1  6  1  0  0  0  0
  2  3  1  0  0  0  0
  2  1  2  0  0  0  0
  3  4  2  0  0  0  0
  4  5  1  0  0  0  0
  5  8  1  0  0  0  0
  6  5  2  0  0  0  0
  7  3  1  0  0  0  0
  9  1  1  0  0  0  0
  9 11  1  0  0  0  0
 10  9  1  0  0  0  0
 12  9  1  0  0  0  0
 12 14  1  0  0  0  0
 13 12  1  0  0  0  0
 15 12  1  0  0  0  0
 16 15  2  0  0  0  0
 16 20  1  0  0  0  0
 17 16  1  0  0  0  0
 18 17  1  0  0  0  0
 18 19  2  0  0  0  0
 19 15  1  0  0  0  0
 21 18  1  0  0  0  0
 23 22  2  0  0  0  0
 23 21  1  0  0  0  0
 24 23  1  0  0  0  0
 25 24  1  0  0  0  0
 26 27  1  0  0  0  0
 26 23  1  0  0  0  0
 28  2  1  0  0  0  0
 29 38  1  0  0  0  0
 29 30  1  0  0  0  0
 30 28  1  0  0  0  0
 31 30  2  0  0  0  0
 31 32  1  0  0  0  0
 33 31  1  0  0  0  0
 34 33  1  0  0  0  0
 35 36  1  0  0  0  0
 35 33  2  0  0  0  0
 36 29  2  0  0  0  0
 38 37  1  0  0  0  0
 39 38  2  0  0  0  0
 40 38  2  0  0  0  0
M  END
>  <minimizedAffinity>
-5.62891579

$$$$

 OpenBabel03252507483D

 40 42  0  0  0  0  0  0  0  0999 V2000
   36.0910   28.9490   37.5940 C   0  0  0  0  0  0  0  0  0  0  0  0
   36.3370   27.6740   38.0690 C   0  0  0  0  0  0  0  0  0  0  0  0
   35.3940   26.6620   37.9410 C   0  0  0  0  0  0  0  0  0  0  0  0
   34.2230   26.9810   37.3290 N   0  0  0  0  0  0  0  0  0  0  0  0
   34.0110   28.2480   36.8700 C   0  0  0  0  0  0  0  0  0  0  0  0
   34.9350   29.1810   37.0130 N   0  0  0  0  0  0  0  0  0  0  0  0
   35.5100   25.6670   38.2820 H   0  0  0  0  0  0  0  0  0  0  0  0
   33.1020   28.5690   36.3740 H   0  0  0  0  0  0  0  0  0  0  0  0
   37.1540   29.9370   37.7980 C   0  0  0  0  0  0  0  0  0  0  0  0
   38.1450   29.4060   37.9350 H   0  0  0  0  0  0  0  0  0  0  0  0
   37.3140   30.6010   36.9290 H   0  0  0  0  0  0  0  0  0  0  0  0
   36.9220   30.8170   38.9960 C   0  0  0  0  0  0  0  0  0  0  0  0
   36.3720   30.2290   39.7600 H   0  0  0  0  0  0  0  0  0  0  0  0
   36.2670   31.6570   38.6310 H   0  0  0  0  0  0  0  0  0  0  0  0
   38.1490   31.3010   39.6600 C   0  0  0  0  0  0  0  0  0  0  0  0
   38.3290   31.0750   41.0510 C   0  0  0  0  0  0  0  0  0  0  0  0
   39.9600   31.8400   41.3930 S   0  0  0  0  0  0  0  0  0  0  0  0
   40.1260   32.3480   39.5580 C   0  0  0  0  0  0  0  0  0  0  0  0
   39.1510   31.9440   39.1180 N   0  0  0  0  0  0  0  0  0  0  0  0
   37.6620   30.5720   41.7340 H   0  0  0  0  0  0  0  0  0  0  0  0
   41.2280   33.0350   39.0550 O   0  0  0  0  0  0  0  0  0  0  0  0
   42.6230   31.5850   37.3350 O   0  0  0  0  0  0  0  0  0  0  0  0
   41.6520   32.7480   37.4380 P   0  0  0  0  0  0  0  0  0  0  0  0
   40.2490   32.3710   36.5800 O   0  0  0  0  0  0  0  0  0  0  0  0
   40.4070   32.3070   35.5990 H   0  0  0  0  0  0  0  0  0  0  0  0
   42.3280   34.1560   36.7740 O   0  0  0  0  0  0  0  0  0  0  0  0
   43.0140   34.4530   37.4100 H   0  0  0  0  0  0  0  0  0  0  0  0
   37.8960   27.2870   38.9010 S   0  0  0  0  0  0  0  0  0  0  0  0
   39.0170   27.4740   41.3160 C   0  0  0  0  0  0  0  0  0  0  0  0
   37.7840   27.4730   40.6630 C   0  0  0  0  0  0  0  0  0  0  0  0
   36.6640   27.6140   41.4510 C   0  0  0  0  0  0  0  0  0  0  0  0
   35.7410   27.6070   40.9260 H   0  0  0  0  0  0  0  0  0  0  0  0
   36.7040   27.7510   42.8200 C   0  0  0  0  0  0  0  0  0  0  0  0
   35.7710   27.8550   43.3500 H   0  0  0  0  0  0  0  0  0  0  0  0
   37.9210   27.7520   43.4680 C   0  0  0  0  0  3  0  0  0  0  0  0
   39.0680   27.6110   42.6960 C   0  0  0  0  0  3  0  0  0  0  0  0
   40.5970   27.2310   39.2720 H   0  0  0  0  0  0  0  0  0  0  0  0
   40.6090   27.3130   40.6240 S   0  0  0  0  0  0  0  0  0  0  0  0
   41.3230   26.1100   41.1940 O   0  0  0  0  0  0  0  0  0  0  0  0
   41.4290   28.5120   41.0150 O   0  0  0  0  0  0  0  0  0  0  0  0
  1  9  1  0  0  0  0
  1  2  1  0  0  0  0
  2 28  1  0  0  0  0
  3  2  2  0  0  0  0
  3  7  1  0  0  0  0
  4  3  1  0  0  0  0
  5  6  1  0  0  0  0
  5  4  2  0  0  0  0
  6  1  2  0  0  0  0
  8  5  1  0  0  0  0
  9 10  1  0  0  0  0
  9 12  1  0  0  0  0
 11  9  1  0  0  0  0
 12 15  1  0  0  0  0
 12 13  1  0  0  0  0
 14 12  1  0  0  0  0
 15 16  2  0  0  0  0
 16 17  1  0  0  0  0
 16 20  1  0  0  0  0
 18 17  1  0  0  0  0
 19 18  2  0  0  0  0
 19 15  1  0  0  0  0
 21 18  1  0  0  0  0
 22 23  2  0  0  0  0
 23 21  1  0  0  0  0
 24 23  1  0  0  0  0
 25 24  1  0  0  0  0
 26 27  1  0  0  0  0
 26 23  1  0  0  0  0
 28 30  1  0  0  0  0
 29 36  1  0  0  0  0
 30 29  2  0  0  0  0
 30 31  1  0  0  0  0
 31 33  2  0  0  0  0
 32 31  1  0  0  0  0
 33 34  1  0  0  0  0
 33 35  1  0  0  0  0
 36 35  2  0  0  0  0
 37 38  1  0  0  0  0
 38 40  2  0  0  0  0
 38 39  2  0  0  0  0
 38 29  1  0  0  0  0
M  END
>  <minimizedAffinity>
-5.60330582

$$$$

 OpenBabel03252507483D

 40 42  0  0  0  0  0  0  0  0999 V2000
   36.3400   28.8760   41.3150 C   0  0  0  0  0  0  0  0  0  0  0  0
   37.1160   30.0100   41.4630 C   0  0  0  0  0  0  0  0  0  0  0  0
   38.1450   30.0630   42.3960 C   0  0  0  0  0  0  0  0  0  0  0  0
   38.3520   28.9520   43.1530 N   0  0  0  0  0  0  0  0  0  0  0  0
   37.5680   27.8480   42.9820 C   0  0  0  0  0  0  0  0  0  0  0  0
   36.6000   27.8420   42.0820 N   0  0  0  0  0  0  0  0  0  0  0  0
   38.7770   30.8940   42.5680 H   0  0  0  0  0  0  0  0  0  0  0  0
   37.6780   26.9320   43.5510 H   0  0  0  0  0  0  0  0  0  0  0  0
   35.2760   28.9420   40.3080 C   0  0  0  0  0  0  0  0  0  0  0  0
   34.3130   28.5380   40.7460 H   0  0  0  0  0  0  0  0  0  0  0  0
   35.0270   29.9720   39.9950 H   0  0  0  0  0  0  0  0  0  0  0  0
   35.5910   28.1590   39.0620 C   0  0  0  0  0  0  0  0  0  0  0  0
   35.4030   27.0850   39.2680 H   0  0  0  0  0  0  0  0  0  0  0  0
   36.6910   28.3150   38.8780 H   0  0  0  0  0  0  0  0  0  0  0  0
   34.7640   28.5000   37.8880 C   0  0  0  0  0  0  0  0  0  0  0  0
   33.3990   28.8500   38.0690 C   0  0  0  0  0  0  0  0  0  0  0  0
   32.8190   29.1780   36.3610 S   0  0  0  0  0  0  0  0  0  0  0  0
   34.5560   28.7780   35.6750 C   0  0  0  0  0  0  0  0  0  0  0  0
   35.1300   28.5270   36.6320 N   0  0  0  0  0  0  0  0  0  0  0  0
   32.8450   28.9060   38.9940 H   0  0  0  0  0  0  0  0  0  0  0  0
   34.8700   28.8280   34.3190 O   0  0  0  0  0  0  0  0  0  0  0  0
   36.4330   30.9530   34.1000 O   0  0  0  0  0  0  0  0  0  0  0  0
   36.3900   29.4490   33.8950 P   0  0  0  0  0  0  0  0  0  0  0  0
   37.5540   28.7260   34.8800 O   0  0  0  0  0  0  0  0  0  0  0  0
   38.4820   28.9560   34.6060 H   0  0  0  0  0  0  0  0  0  0  0  0
   36.7310   29.0540   32.2800 O   0  0  0  0  0  0  0  0  0  0  0  0
   35.9370   29.3160   31.7640 H   0  0  0  0  0  0  0  0  0  0  0  0
   36.8020   31.4800   40.4570 S   0  0  0  0  0  0  0  0  0  0  0  0
   39.0890   31.7480   39.1080 C   0  0  0  0  0  0  0  0  0  0  0  0
   38.2920   32.3650   40.0740 C   0  0  0  0  0  0  0  0  0  0  0  0
   38.7540   33.5540   40.5920 C   0  0  0  0  0  0  0  0  0  0  0  0
   38.1270   33.9980   41.3250 H   0  0  0  0  0  0  0  0  0  0  0  0
   39.9370   34.1460   40.2120 C   0  0  0  0  0  0  0  0  0  0  0  0
   40.2130   35.0790   40.6770 H   0  0  0  0  0  0  0  0  0  0  0  0
   40.7260   33.5390   39.2590 C   0  0  0  0  0  3  0  0  0  0  0  0
   40.2830   32.3370   38.7190 C   0  0  0  0  0  3  0  0  0  0  0  0
   38.3130   29.2720   39.0640 H   0  0  0  0  0  0  0  0  0  0  0  0
   38.8020   30.2500   38.2630 S   0  0  0  0  0  0  0  0  0  0  0  0
   40.0620   29.7640   37.5880 O   0  0  0  0  0  0  0  0  0  0  0  0
   37.8050   30.4990   37.1640 O   0  0  0  0  0  0  0  0  0  0  0  0
  1  2  2  0  0  0  0
  1  6  1  0  0  0  0
  2  3  1  0  0  0  0
  3  7  1  0  0  0  0
  3  4  2  0  0  0  0
  5  4  1  0  0  0  0
  5  8  1  0  0  0  0
  6  5  2  0  0  0  0
  9 10  1  0  0  0  0
  9  1  1  0  0  0  0
 11  9  1  0  0  0  0
 12 13  1  0  0  0  0
 12  9  1  0  0  0  0
 14 12  1  0  0  0  0
 15 16  2  0  0  0  0
 15 12  1  0  0  0  0
 16 20  1  0  0  0  0
 17 16  1  0  0  0  0
 18 17  1  0  0  0  0
 18 19  2  0  0  0  0
 19 15  1  0  0  0  0
 21 18  1  0  0  0  0
 23 22  2  0  0  0  0
 23 21  1  0  0  0  0
 23 24  1  0  0  0  0
 25 24  1  0  0  0  0
 26 23  1  0  0  0  0
 27 26  1  0  0  0  0
 28  2  1  0  0  0  0
 29 30  1  0  0  0  0
 30 28  1  0  0  0  0
 30 31  2  0  0  0  0
 31 32  1  0  0  0  0
 33 31  1  0  0  0  0
 33 34  1  0  0  0  0
 35 33  2  0  0  0  0
 36 29  2  0  0  0  0
 36 35  1  0  0  0  0
 38 37  1  0  0  0  0
 38 29  1  0  0  0  0
 39 38  2  0  0  0  0
 40 38  2  0  0  0  0
M  END
>  <minimizedAffinity>
-5.51068974

$$$$

 OpenBabel03252507483D

 40 42  0  0  0  0  0  0  0  0999 V2000
   35.0320   28.8880   36.9950 C   0  0  0  0  0  0  0  0  0  0  0  0
   34.2130   29.0550   35.8930 C   0  0  0  0  0  0  0  0  0  0  0  0
   34.6830   29.6520   34.7300 C   0  0  0  0  0  0  0  0  0  0  0  0
   35.9800   30.0620   34.7240 N   0  0  0  0  0  0  0  0  0  0  0  0
   36.7620   29.8820   35.8280 C   0  0  0  0  0  0  0  0  0  0  0  0
   36.2730   29.3100   36.9150 N   0  0  0  0  0  0  0  0  0  0  0  0
   34.1170   29.8150   33.8510 H   0  0  0  0  0  0  0  0  0  0  0  0
   37.8000   30.1860   35.8920 H   0  0  0  0  0  0  0  0  0  0  0  0
   34.4220   28.2580   38.1700 C   0  0  0  0  0  0  0  0  0  0  0  0
   33.4350   27.7850   37.8780 H   0  0  0  0  0  0  0  0  0  0  0  0
   35.0160   27.4240   38.5830 H   0  0  0  0  0  0  0  0  0  0  0  0
   34.1660   29.2250   39.2940 C   0  0  0  0  0  0  0  0  0  0  0  0
   33.4080   28.7790   39.9720 H   0  0  0  0  0  0  0  0  0  0  0  0
   33.7340   30.1450   38.8090 H   0  0  0  0  0  0  0  0  0  0  0  0
   35.3400   29.5250   40.1360 C   0  0  0  0  0  0  0  0  0  0  0  0
   35.8600   28.5220   40.9980 C   0  0  0  0  0  0  0  0  0  0  0  0
   37.2770   29.3580   41.8080 S   0  0  0  0  0  0  0  0  0  0  0  0
   36.9190   30.9560   40.8250 C   0  0  0  0  0  0  0  0  0  0  0  0
   36.0090   30.6480   40.2060 N   0  0  0  0  0  0  0  0  0  0  0  0
   35.5010   27.5140   41.1360 H   0  0  0  0  0  0  0  0  0  0  0  0
   37.6790   32.1160   40.9540 O   0  0  0  0  0  0  0  0  0  0  0  0
   39.4790   33.5370   39.6320 O   0  0  0  0  0  0  0  0  0  0  0  0
   38.0840   32.9450   39.5310 P   0  0  0  0  0  0  0  0  0  0  0  0
   38.0440   31.8480   38.2480 O   0  0  0  0  0  0  0  0  0  0  0  0
   38.1560   32.2910   37.3640 H   0  0  0  0  0  0  0  0  0  0  0  0
   36.9360   34.1590   39.2380 O   0  0  0  0  0  0  0  0  0  0  0  0
   36.8460   34.6550   40.0800 H   0  0  0  0  0  0  0  0  0  0  0  0
   32.4860   28.5200   35.9390 S   0  0  0  0  0  0  0  0  0  0  0  0
   31.0650   30.7790   35.9020 C   0  0  0  0  0  0  0  0  0  0  0  0
   31.4320   29.7140   36.7250 C   0  0  0  0  0  0  0  0  0  0  0  0
   30.9400   29.7240   38.0100 C   0  0  0  0  0  0  0  0  0  0  0  0
   31.2390   28.9020   38.6120 H   0  0  0  0  0  0  0  0  0  0  0  0
   30.1250   30.7140   38.5100 C   0  0  0  0  0  0  0  0  0  0  0  0
   29.7910   30.6340   39.5320 H   0  0  0  0  0  0  0  0  0  0  0  0
   29.7610   31.7690   37.6990 C   0  0  0  0  0  3  0  0  0  0  0  0
   30.2440   31.7820   36.3960 C   0  0  0  0  0  3  0  0  0  0  0  0
   32.6130   30.3790   33.8580 H   0  0  0  0  0  0  0  0  0  0  0  0
   31.5130   31.0690   34.2420 S   0  0  0  0  0  0  0  0  0  0  0  0
   31.7310   32.5430   33.9940 O   0  0  0  0  0  0  0  0  0  0  0  0
   30.3680   30.6590   33.3550 O   0  0  0  0  0  0  0  0  0  0  0  0
  1  9  1  0  0  0  0
  2 28  1  0  0  0  0
  2  1  2  0  0  0  0
  3  2  1  0  0  0  0
  4  3  2  0  0  0  0
  4  5  1  0  0  0  0
  5  8  1  0  0  0  0
  5  6  2  0  0  0  0
  6  1  1  0  0  0  0
  7  3  1  0  0  0  0
  9 11  1  0  0  0  0
  9 12  1  0  0  0  0
 10  9  1  0  0  0  0
 12 13  1  0  0  0  0
 12 15  1  0  0  0  0
 14 12  1  0  0  0  0
 15 19  1  0  0  0  0
 15 16  2  0  0  0  0
 16 20  1  0  0  0  0
 16 17  1  0  0  0  0
 18 21  1  0  0  0  0
 18 17  1  0  0  0  0
 19 18  2  0  0  0  0
 23 22  2  0  0  0  0
 23 21  1  0  0  0  0
 24 23  1  0  0  0  0
 25 24  1  0  0  0  0
 26 23  1  0  0  0  0
 26 27  1  0  0  0  0
 28 30  1  0  0  0  0
 29 36  2  0  0  0  0
 29 30  1  0  0  0  0
 30 31  2  0  0  0  0
 31 33  1  0  0  0  0
 31 32  1  0  0  0  0
 33 34  1  0  0  0  0
 35 33  2  0  0  0  0
 36 35  1  0  0  0  0
 37 38  1  0  0  0  0
 38 29  1  0  0  0  0
 39 38  2  0  0  0  0
 40 38  2  0  0  0  0
M  END
>  <minimizedAffinity>
-5.47747135

$$$$

 OpenBabel03252507483D

 40 42  0  0  0  0  0  0  0  0999 V2000
   36.6980   29.2220   37.6620 C   0  0  0  0  0  0  0  0  0  0  0  0
   37.2060   28.1020   38.2950 C   0  0  0  0  0  0  0  0  0  0  0  0
   36.4270   26.9670   38.4870 C   0  0  0  0  0  0  0  0  0  0  0  0
   35.1490   27.0070   38.0250 N   0  0  0  0  0  0  0  0  0  0  0  0
   34.6780   28.1280   37.4050 C   0  0  0  0  0  0  0  0  0  0  0  0
   35.4530   29.1860   37.2440 N   0  0  0  0  0  0  0  0  0  0  0  0
   36.7450   26.0770   38.9630 H   0  0  0  0  0  0  0  0  0  0  0  0
   33.6710   28.2270   37.0150 H   0  0  0  0  0  0  0  0  0  0  0  0
   37.6070   30.3640   37.5290 C   0  0  0  0  0  0  0  0  0  0  0  0
   38.6190   30.0960   37.9630 H   0  0  0  0  0  0  0  0  0  0  0  0
   37.8210   30.6390   36.4800 H   0  0  0  0  0  0  0  0  0  0  0  0
   37.1100   31.6020   38.2250 C   0  0  0  0  0  0  0  0  0  0  0  0
   36.4070   31.2920   39.0260 H   0  0  0  0  0  0  0  0  0  0  0  0
   36.5470   32.1820   37.4410 H   0  0  0  0  0  0  0  0  0  0  0  0
   38.1550   32.4060   38.8870 C   0  0  0  0  0  0  0  0  0  0  0  0
   37.7810   33.4130   39.8170 C   0  0  0  0  0  0  0  0  0  0  0  0
   39.3900   34.1110   40.3500 S   0  0  0  0  0  0  0  0  0  0  0  0
   40.3170   32.8990   39.2000 C   0  0  0  0  0  0  0  0  0  0  0  0
   39.4510   32.3190   38.7290 N   0  0  0  0  0  0  0  0  0  0  0  0
   36.7860   33.6930   40.1290 H   0  0  0  0  0  0  0  0  0  0  0  0
   41.7050   32.8670   39.0860 O   0  0  0  0  0  0  0  0  0  0  0  0
   43.7770   32.1230   37.6170 O   0  0  0  0  0  0  0  0  0  0  0  0
   42.3540   32.6470   37.5350 P   0  0  0  0  0  0  0  0  0  0  0  0
   41.4000   31.5230   36.7140 O   0  0  0  0  0  0  0  0  0  0  0  0
   41.6530   31.4340   35.7560 H   0  0  0  0  0  0  0  0  0  0  0  0
   42.3030   34.1170   36.6880 O   0  0  0  0  0  0  0  0  0  0  0  0
   42.6950   34.7880   37.2880 H   0  0  0  0  0  0  0  0  0  0  0  0
   38.9040   28.0870   38.9190 S   0  0  0  0  0  0  0  0  0  0  0  0
   38.8490   28.2250   41.5840 C   0  0  0  0  0  0  0  0  0  0  0  0
   39.0250   27.3350   40.5230 C   0  0  0  0  0  0  0  0  0  0  0  0
   39.2620   26.0190   40.8490 C   0  0  0  0  0  0  0  0  0  0  0  0
   39.3930   25.3680   40.0200 H   0  0  0  0  0  0  0  0  0  0  0  0
   39.3350   25.5520   42.1410 C   0  0  0  0  0  0  0  0  0  0  0  0
   39.5260   24.5020   42.2940 H   0  0  0  0  0  0  0  0  0  0  0  0
   39.1630   26.4280   43.1920 C   0  0  0  0  0  3  0  0  0  0  0  0
   38.9210   27.7630   42.8900 C   0  0  0  0  0  3  0  0  0  0  0  0
   38.8560   30.4940   40.3250 H   0  0  0  0  0  0  0  0  0  0  0  0
   38.5400   29.9390   41.5200 S   0  0  0  0  0  0  0  0  0  0  0  0
   39.2810   30.6600   42.6210 O   0  0  0  0  0  0  0  0  0  0  0  0
   37.0760   30.1750   41.7740 O   0  0  0  0  0  0  0  0  0  0  0  0
  1  2  1  0  0  0  0
  2  3  2  0  0  0  0
  2 28  1  0  0  0  0
  3  7  1  0  0  0  0
  4  3  1  0  0  0  0
  5  4  2  0  0  0  0
  6  5  1  0  0  0  0
  6  1  2  0  0  0  0
  8  5  1  0  0  0  0
  9  1  1  0  0  0  0
  9 10  1  0  0  0  0
  9 12  1  0  0  0  0
 11  9  1  0  0  0  0
 12 15  1  0  0  0  0
 12 13  1  0  0  0  0
 14 12  1  0  0  0  0
 15 16  2  0  0  0  0
 16 20  1  0  0  0  0
 16 17  1  0  0  0  0
 18 17  1  0  0  0  0
 19 15  1  0  0  0  0
 19 18  2  0  0  0  0
 21 18  1  0  0  0  0
 23 22  2  0  0  0  0
 23 21  1  0  0  0  0
 24 23  1  0  0  0  0
 25 24  1  0  0  0  0
 26 27  1  0  0  0  0
 26 23  1  0  0  0  0
 28 30  1  0  0  0  0
 29 36  1  0  0  0  0
 30 31  1  0  0  0  0
 30 29  2  0  0  0  0
 31 33  2  0  0  0  0
 32 31  1  0  0  0  0
 33 34  1  0  0  0  0
 33 35  1  0  0  0  0
 36 35  2  0  0  0  0
 37 38  1  0  0  0  0
 38 29  1  0  0  0  0
 38 40  2  0  0  0  0
 38 39  2  0  0  0  0
M  END
>  <minimizedAffinity>
-5.44802713

$$$$

 OpenBabel03252507483D

 40 42  0  0  0  0  0  0  0  0999 V2000
   36.9910   28.9530   37.4510 C   0  0  0  0  0  0  0  0  0  0  0  0
   36.0130   29.3680   38.3350 C   0  0  0  0  0  0  0  0  0  0  0  0
   34.6890   28.9740   38.1820 C   0  0  0  0  0  0  0  0  0  0  0  0
   34.4020   28.1640   37.1290 N   0  0  0  0  0  0  0  0  0  0  0  0
   35.3910   27.7720   36.2740 C   0  0  0  0  0  0  0  0  0  0  0  0
   36.6370   28.1710   36.4560 N   0  0  0  0  0  0  0  0  0  0  0  0
   33.8880   29.2520   38.8150 H   0  0  0  0  0  0  0  0  0  0  0  0
   35.2310   27.1300   35.4160 H   0  0  0  0  0  0  0  0  0  0  0  0
   38.3490   29.4440   37.7050 C   0  0  0  0  0  0  0  0  0  0  0  0
   38.6410   30.1880   36.9020 H   0  0  0  0  0  0  0  0  0  0  0  0
   38.4460   30.0070   38.6510 H   0  0  0  0  0  0  0  0  0  0  0  0
   39.3800   28.3480   37.7280 C   0  0  0  0  0  0  0  0  0  0  0  0
   39.0900   27.5810   36.9800 H   0  0  0  0  0  0  0  0  0  0  0  0
   39.3220   27.9020   38.7600 H   0  0  0  0  0  0  0  0  0  0  0  0
   40.7470   28.7730   37.3680 C   0  0  0  0  0  0  0  0  0  0  0  0
   41.6300   27.8450   36.7510 C   0  0  0  0  0  0  0  0  0  0  0  0
   43.1620   28.8220   36.5080 S   0  0  0  0  0  0  0  0  0  0  0  0
   42.3340   30.3520   37.2980 C   0  0  0  0  0  0  0  0  0  0  0  0
   41.2930   29.9480   37.5470 N   0  0  0  0  0  0  0  0  0  0  0  0
   41.4360   26.8160   36.4920 H   0  0  0  0  0  0  0  0  0  0  0  0
   42.9830   31.5740   37.4550 O   0  0  0  0  0  0  0  0  0  0  0  0
   41.8810   33.4720   38.9350 O   0  0  0  0  0  0  0  0  0  0  0  0
   42.0180   32.9670   37.5090 P   0  0  0  0  0  0  0  0  0  0  0  0
   42.7550   34.1610   36.5710 O   0  0  0  0  0  0  0  0  0  0  0  0
   42.1820   34.9680   36.4610 H   0  0  0  0  0  0  0  0  0  0  0  0
   40.4940   32.6240   36.8450 O   0  0  0  0  0  0  0  0  0  0  0  0
   40.1860   31.8020   37.2850 H   0  0  0  0  0  0  0  0  0  0  0  0
   36.4220   30.4650   39.7140 S   0  0  0  0  0  0  0  0  0  0  0  0
   38.2600   29.9900   41.5910 C   0  0  0  0  0  0  0  0  0  0  0  0
   37.0100   29.5720   41.1320 C   0  0  0  0  0  0  0  0  0  0  0  0
   36.4060   28.5460   41.8230 C   0  0  0  0  0  0  0  0  0  0  0  0
   35.4580   28.2490   41.4480 H   0  0  0  0  0  0  0  0  0  0  0  0
   36.9660   27.9260   42.9160 C   0  0  0  0  0  0  0  0  0  0  0  0
   36.4150   27.1300   43.3910 H   0  0  0  0  0  0  0  0  0  0  0  0
   38.2010   28.3360   43.3720 C   0  0  0  0  0  3  0  0  0  0  0  0
   38.8330   29.3720   42.6930 C   0  0  0  0  0  3  0  0  0  0  0  0
   39.5230   31.1140   39.6220 H   0  0  0  0  0  0  0  0  0  0  0  0
   39.2850   31.2460   40.9490 S   0  0  0  0  0  0  0  0  0  0  0  0
   40.5980   31.3000   41.6930 O   0  0  0  0  0  0  0  0  0  0  0  0
   38.6180   32.5760   41.1760 O   0  0  0  0  0  0  0  0  0  0  0  0
  1  9  1  0  0  0  0
  1  2  1  0  0  0  0
  2 28  1  0  0  0  0
  3  2  2  0  0  0  0
  3  7  1  0  0  0  0
  4  3  1  0  0  0  0
  5  6  1  0  0  0  0
  5  4  2  0  0  0  0
  6  1  2  0  0  0  0
  8  5  1  0  0  0  0
  9 12  1  0  0  0  0
  9 11  1  0  0  0  0
 10  9  1  0  0  0  0
 12 14  1  0  0  0  0
 13 12  1  0  0  0  0
 15 19  1  0  0  0  0
 15 12  1  0  0  0  0
 16 15  2  0  0  0  0
 17 16  1  0  0  0  0
 17 18  1  0  0  0  0
 18 21  1  0  0  0  0
 18 19  2  0  0  0  0
 20 16  1  0  0  0  0
 21 23  1  0  0  0  0
 23 22  2  0  0  0  0
 24 23  1  0  0  0  0
 25 24  1  0  0  0  0
 26 27  1  0  0  0  0
 26 23  1  0  0  0  0
 28 30  1  0  0  0  0
 29 36  1  0  0  0  0
 30 29  2  0  0  0  0
 30 31  1  0  0  0  0
 31 33  2  0  0  0  0
 32 31  1  0  0  0  0
 33 35  1  0  0  0  0
 33 34  1  0  0  0  0
 36 35  2  0  0  0  0
 37 38  1  0  0  0  0
 38 40  2  0  0  0  0
 38 29  1  0  0  0  0
 38 39  2  0  0  0  0
M  END
>  <minimizedAffinity>
-5.43984938

$$$$
