
 OpenBabel03252501123D

 23 24  0  0  0  0  0  0  0  0999 V2000
   37.6490   29.6480   41.7220 C   0  0  0  0  0  0  0  0  0  0  0  0
   36.6950   28.6880   41.6140 C   0  0  0  0  0  0  0  0  0  0  0  0
   35.6840   28.8830   40.6890 C   0  0  0  0  0  0  0  0  0  0  0  0
   34.8990   28.1180   40.5830 H   0  0  0  0  0  0  0  0  0  0  0  0
   35.5960   29.9900   39.8780 C   0  0  0  0  0  0  0  0  0  0  0  0
   34.7800   30.0980   39.1640 H   0  0  0  0  0  0  0  0  0  0  0  0
   36.5650   30.9670   39.9860 C   0  0  0  0  0  3  0  0  0  0  0  0
   37.5700   30.7660   40.9120 C   0  0  0  0  0  3  0  0  0  0  0  0
   38.5620   29.2730   44.1100 H   0  0  0  0  0  0  0  0  0  0  0  0
   38.9840   29.5760   42.8200 S   0  0  0  0  0  0  0  0  0  0  0  0
   40.0350   28.5830   42.4380 O   0  0  0  0  0  0  0  0  0  0  0  0
   39.6310   30.9390   42.9250 O   0  0  0  0  0  0  0  0  0  0  0  0
   36.7710   27.5010   42.4700 C   0  0  0  0  0  0  0  0  0  0  0  0
   36.4320   27.4100   43.6800 O   0  0  0  0  0  0  0  0  0  0  0  0
   37.4590   24.0170   41.4640 C   0  0  0  0  0  0  0  0  0  0  0  0
   36.9480   25.1160   42.1780 C   0  0  0  0  0  0  0  0  0  0  0  0
   37.3150   26.3860   41.7120 C   0  0  0  0  0  0  0  0  0  0  0  0
   38.1200   26.4920   40.6310 N   0  0  0  0  0  0  0  0  0  0  0  0
   38.5860   25.4150   39.9780 C   0  0  0  0  0  0  0  0  0  0  0  0
   38.2530   24.1590   40.3970 N   0  0  0  0  0  0  0  0  0  0  0  0
   37.1980   23.0200   41.7930 H   0  0  0  0  0  0  0  0  0  0  0  0
   36.3180   24.8870   43.0210 H   0  0  0  0  0  0  0  0  0  0  0  0
   39.2200   25.4990   39.1260 H   0  0  0  0  0  0  0  0  0  0  0  0
  1 10  1  0  0  0  0
  2  1  1  0  0  0  0
  2 13  1  0  0  0  0
  3  2  2  0  0  0  0
  4  3  1  0  0  0  0
  5  7  2  0  0  0  0
  5  3  1  0  0  0  0
  6  5  1  0  0  0  0
  7  8  1  0  0  0  0
  8  1  2  0  0  0  0
 10 12  2  0  0  0  0
 10  9  1  0  0  0  0
 11 10  2  0  0  0  0
 13 14  2  0  0  0  0
 15 21  1  0  0  0  0
 15 16  1  0  0  0  0
 16 22  1  0  0  0  0
 17 16  2  0  0  0  0
 17 13  1  0  0  0  0
 18 17  1  0  0  0  0
 19 20  1  0  0  0  0
 19 18  2  0  0  0  0
 20 15  2  0  0  0  0
 23 19  1  0  0  0  0
M  END
>  <minimizedAffinity>
-4.61642933

$$$$

 OpenBabel03252501123D

 23 24  0  0  0  0  0  0  0  0999 V2000
   36.9080   28.4690   40.6940 C   0  0  0  0  0  0  0  0  0  0  0  0
   36.9310   27.2100   41.2040 C   0  0  0  0  0  0  0  0  0  0  0  0
   36.7780   26.1540   40.3230 C   0  0  0  0  0  0  0  0  0  0  0  0
   36.7930   25.1240   40.7110 H   0  0  0  0  0  0  0  0  0  0  0  0
   36.6050   26.3110   38.9660 C   0  0  0  0  0  0  0  0  0  0  0  0
   36.4890   25.4470   38.3130 H   0  0  0  0  0  0  0  0  0  0  0  0
   36.5810   27.5890   38.4470 C   0  0  0  0  0  3  0  0  0  0  0  0
   36.7330   28.6390   39.3330 C   0  0  0  0  0  3  0  0  0  0  0  0
   36.6340   29.7120   42.9430 H   0  0  0  0  0  0  0  0  0  0  0  0
   37.0820   29.9060   41.6410 S   0  0  0  0  0  0  0  0  0  0  0  0
   38.4850   30.4220   41.7130 O   0  0  0  0  0  0  0  0  0  0  0  0
   36.2000   30.9970   41.0770 O   0  0  0  0  0  0  0  0  0  0  0  0
   37.1140   27.0220   42.6450 C   0  0  0  0  0  0  0  0  0  0  0  0
   36.2810   27.2660   43.5580 O   0  0  0  0  0  0  0  0  0  0  0  0
   40.6560   26.9400   43.6800 C   0  0  0  0  0  0  0  0  0  0  0  0
   39.3610   27.4220   43.4180 C   0  0  0  0  0  0  0  0  0  0  0  0
   38.4430   26.4940   42.9040 C   0  0  0  0  0  0  0  0  0  0  0  0
   38.8360   25.2190   42.6900 N   0  0  0  0  0  0  0  0  0  0  0  0
   40.0840   24.8000   42.9540 C   0  0  0  0  0  0  0  0  0  0  0  0
   41.0090   25.6690   43.4560 N   0  0  0  0  0  0  0  0  0  0  0  0
   41.3920   27.6260   44.0770 H   0  0  0  0  0  0  0  0  0  0  0  0
   39.1840   28.4620   43.6350 H   0  0  0  0  0  0  0  0  0  0  0  0
   40.3930   23.7940   42.7860 H   0  0  0  0  0  0  0  0  0  0  0  0
  1  2  1  0  0  0  0
  1 10  1  0  0  0  0
  2 13  1  0  0  0  0
  3  4  1  0  0  0  0
  3  2  2  0  0  0  0
  5  3  1  0  0  0  0
  6  5  1  0  0  0  0
  7  5  2  0  0  0  0
  7  8  1  0  0  0  0
  8  1  2  0  0  0  0
 10 11  2  0  0  0  0
 10  9  1  0  0  0  0
 12 10  2  0  0  0  0
 13 17  1  0  0  0  0
 13 14  2  0  0  0  0
 15 21  1  0  0  0  0
 16 22  1  0  0  0  0
 16 15  2  0  0  0  0
 17 16  1  0  0  0  0
 18 17  2  0  0  0  0
 18 19  1  0  0  0  0
 19 20  2  0  0  0  0
 20 15  1  0  0  0  0
 23 19  1  0  0  0  0
M  END
>  <minimizedAffinity>
-4.54529095

$$$$

 OpenBabel03252501123D

 23 24  0  0  0  0  0  0  0  0999 V2000
   36.9330   27.2520   40.8280 C   0  0  0  0  0  0  0  0  0  0  0  0
   36.4970   28.4360   41.3310 C   0  0  0  0  0  0  0  0  0  0  0  0
   36.9200   28.7920   42.6000 C   0  0  0  0  0  0  0  0  0  0  0  0
   36.5810   29.7480   43.0310 H   0  0  0  0  0  0  0  0  0  0  0  0
   37.7530   28.0160   43.3730 C   0  0  0  0  0  0  0  0  0  0  0  0
   38.0580   28.3410   44.3670 H   0  0  0  0  0  0  0  0  0  0  0  0
   38.1960   26.8130   42.8630 C   0  0  0  0  0  3  0  0  0  0  0  0
   37.7690   26.4630   41.5970 C   0  0  0  0  0  3  0  0  0  0  0  0
   35.3300   27.2170   38.8010 H   0  0  0  0  0  0  0  0  0  0  0  0
   36.5090   26.6430   39.2650 S   0  0  0  0  0  0  0  0  0  0  0  0
   37.5620   26.8540   38.2230 O   0  0  0  0  0  0  0  0  0  0  0  0
   36.2180   25.1620   39.3580 O   0  0  0  0  0  0  0  0  0  0  0  0
   35.6100   29.2760   40.5250 C   0  0  0  0  0  0  0  0  0  0  0  0
   34.3860   29.0900   40.2920 O   0  0  0  0  0  0  0  0  0  0  0  0
   37.3860   31.4120   38.0930 C   0  0  0  0  0  0  0  0  0  0  0  0
   36.6660   30.3300   38.6320 C   0  0  0  0  0  0  0  0  0  0  0  0
   36.3540   30.4080   39.9970 C   0  0  0  0  0  0  0  0  0  0  0  0
   36.7500   31.4870   40.7090 N   0  0  0  0  0  0  0  0  0  0  0  0
   37.4360   32.4980   40.1540 C   0  0  0  0  0  0  0  0  0  0  0  0
   37.7600   32.4640   38.8290 N   0  0  0  0  0  0  0  0  0  0  0  0
   37.6450   31.3870   37.0430 H   0  0  0  0  0  0  0  0  0  0  0  0
   36.4150   29.5340   37.9500 H   0  0  0  0  0  0  0  0  0  0  0  0
   37.7470   33.3490   40.7160 H   0  0  0  0  0  0  0  0  0  0  0  0
  1  2  2  0  0  0  0
  1  8  1  0  0  0  0
  2  3  1  0  0  0  0
  3  4  1  0  0  0  0
  3  5  2  0  0  0  0
  5  6  1  0  0  0  0
  7  5  1  0  0  0  0
  8  7  2  0  0  0  0
  9 10  1  0  0  0  0
 10 12  2  0  0  0  0
 10  1  1  0  0  0  0
 11 10  2  0  0  0  0
 13  2  1  0  0  0  0
 14 13  2  0  0  0  0
 15 16  2  0  0  0  0
 15 20  1  0  0  0  0
 16 17  1  0  0  0  0
 17 13  1  0  0  0  0
 17 18  2  0  0  0  0
 19 18  1  0  0  0  0
 19 23  1  0  0  0  0
 20 19  2  0  0  0  0
 21 15  1  0  0  0  0
 22 16  1  0  0  0  0
M  END
>  <minimizedAffinity>
-4.53861952

$$$$

 OpenBabel03252501123D

 23 24  0  0  0  0  0  0  0  0999 V2000
   38.3400   25.6560   42.0950 C   0  0  0  0  0  0  0  0  0  0  0  0
   38.2590   26.7350   42.9160 C   0  0  0  0  0  0  0  0  0  0  0  0
   39.3690   27.0510   43.6790 C   0  0  0  0  0  0  0  0  0  0  0  0
   39.3280   27.9210   44.3530 H   0  0  0  0  0  0  0  0  0  0  0  0
   40.5440   26.3340   43.6510 C   0  0  0  0  0  0  0  0  0  0  0  0
   41.3910   26.6230   44.2710 H   0  0  0  0  0  0  0  0  0  0  0  0
   40.6280   25.2380   42.8170 C   0  0  0  0  0  3  0  0  0  0  0  0
   39.5150   24.9280   42.0590 C   0  0  0  0  0  3  0  0  0  0  0  0
   35.8130   25.3850   41.6310 H   0  0  0  0  0  0  0  0  0  0  0  0
   37.0560   25.1110   41.0720 S   0  0  0  0  0  0  0  0  0  0  0  0
   37.0790   25.7040   39.6980 O   0  0  0  0  0  0  0  0  0  0  0  0
   37.1110   23.6060   40.9430 O   0  0  0  0  0  0  0  0  0  0  0  0
   37.0170   27.5100   42.9610 C   0  0  0  0  0  0  0  0  0  0  0  0
   36.0060   27.2900   43.6800 O   0  0  0  0  0  0  0  0  0  0  0  0
   36.0910   29.7730   40.1960 C   0  0  0  0  0  0  0  0  0  0  0  0
   36.0390   28.7080   41.1130 C   0  0  0  0  0  0  0  0  0  0  0  0
   37.0990   28.6200   42.0260 C   0  0  0  0  0  0  0  0  0  0  0  0
   38.0930   29.5360   41.9820 N   0  0  0  0  0  0  0  0  0  0  0  0
   38.1030   30.5380   41.0880 C   0  0  0  0  0  0  0  0  0  0  0  0
   37.0900   30.6610   40.1810 N   0  0  0  0  0  0  0  0  0  0  0  0
   35.2900   29.8730   39.4750 H   0  0  0  0  0  0  0  0  0  0  0  0
   35.1880   28.0510   41.0360 H   0  0  0  0  0  0  0  0  0  0  0  0
   38.8860   31.2590   41.0540 H   0  0  0  0  0  0  0  0  0  0  0  0
  1  2  1  0  0  0  0
  2 13  1  0  0  0  0
  2  3  2  0  0  0  0
  3  4  1  0  0  0  0
  5  3  1  0  0  0  0
  5  6  1  0  0  0  0
  7  5  2  0  0  0  0
  8  1  2  0  0  0  0
  8  7  1  0  0  0  0
 10  9  1  0  0  0  0
 10  1  1  0  0  0  0
 11 10  2  0  0  0  0
 12 10  2  0  0  0  0
 13 14  2  0  0  0  0
 15 16  1  0  0  0  0
 16 17  2  0  0  0  0
 17 13  1  0  0  0  0
 18 17  1  0  0  0  0
 19 18  2  0  0  0  0
 20 15  2  0  0  0  0
 20 19  1  0  0  0  0
 21 15  1  0  0  0  0
 22 16  1  0  0  0  0
 23 19  1  0  0  0  0
M  END
>  <minimizedAffinity>
-4.53177834

$$$$

 OpenBabel03252501123D

 23 24  0  0  0  0  0  0  0  0999 V2000
   39.5960   28.2760   42.8460 C   0  0  0  0  0  0  0  0  0  0  0  0
   38.9470   27.1130   43.1140 C   0  0  0  0  0  0  0  0  0  0  0  0
   39.7050   26.0310   43.5270 C   0  0  0  0  0  0  0  0  0  0  0  0
   39.2010   25.0770   43.7500 H   0  0  0  0  0  0  0  0  0  0  0  0
   41.0720   26.0700   43.6800 C   0  0  0  0  0  0  0  0  0  0  0  0
   41.6240   25.1910   44.0080 H   0  0  0  0  0  0  0  0  0  0  0  0
   41.7330   27.2510   43.4080 C   0  0  0  0  0  3  0  0  0  0  0  0
   40.9700   28.3270   42.9950 C   0  0  0  0  0  3  0  0  0  0  0  0
   37.5400   29.8400   42.8570 H   0  0  0  0  0  0  0  0  0  0  0  0
   38.8170   29.7270   42.3190 S   0  0  0  0  0  0  0  0  0  0  0  0
   39.5660   30.9780   42.6560 O   0  0  0  0  0  0  0  0  0  0  0  0
   38.6140   29.6820   40.8210 O   0  0  0  0  0  0  0  0  0  0  0  0
   37.4920   27.0510   42.9560 C   0  0  0  0  0  0  0  0  0  0  0  0
   36.6220   27.6050   43.6790 O   0  0  0  0  0  0  0  0  0  0  0  0
   36.6060   24.0500   40.9990 C   0  0  0  0  0  0  0  0  0  0  0  0
   36.9300   24.8730   42.0920 C   0  0  0  0  0  0  0  0  0  0  0  0
   37.1600   26.2260   41.8060 C   0  0  0  0  0  0  0  0  0  0  0  0
   37.0640   26.6620   40.5300 N   0  0  0  0  0  0  0  0  0  0  0  0
   36.7520   25.8410   39.5150 C   0  0  0  0  0  0  0  0  0  0  0  0
   36.5180   24.5160   39.7480 N   0  0  0  0  0  0  0  0  0  0  0  0
   36.4210   22.9990   41.1800 H   0  0  0  0  0  0  0  0  0  0  0  0
   36.9720   24.3930   43.0560 H   0  0  0  0  0  0  0  0  0  0  0  0
   36.6750   26.1860   38.5100 H   0  0  0  0  0  0  0  0  0  0  0  0
  1  8  2  0  0  0  0
  1  2  1  0  0  0  0
  2  3  2  0  0  0  0
  3  5  1  0  0  0  0
  3  4  1  0  0  0  0
  5  6  1  0  0  0  0
  7  5  2  0  0  0  0
  8  7  1  0  0  0  0
 10 11  2  0  0  0  0
 10  1  1  0  0  0  0
 10  9  1  0  0  0  0
 12 10  2  0  0  0  0
 13  2  1  0  0  0  0
 13 14  2  0  0  0  0
 15 21  1  0  0  0  0
 15 16  1  0  0  0  0
 16 22  1  0  0  0  0
 17 16  2  0  0  0  0
 17 13  1  0  0  0  0
 18 17  1  0  0  0  0
 19 20  1  0  0  0  0
 19 18  2  0  0  0  0
 20 15  2  0  0  0  0
 23 19  1  0  0  0  0
M  END
>  <minimizedAffinity>
-4.53046989

$$$$

 OpenBabel03252501123D

 23 24  0  0  0  0  0  0  0  0999 V2000
   36.6360   30.3770   38.5270 C   0  0  0  0  0  0  0  0  0  0  0  0
   36.2380   30.3210   39.8240 C   0  0  0  0  0  0  0  0  0  0  0  0
   36.6320   31.3480   40.6650 C   0  0  0  0  0  0  0  0  0  0  0  0
   36.3210   31.3250   41.7210 H   0  0  0  0  0  0  0  0  0  0  0  0
   37.3990   32.4150   40.2580 C   0  0  0  0  0  0  0  0  0  0  0  0
   37.6830   33.2000   40.9590 H   0  0  0  0  0  0  0  0  0  0  0  0
   37.8040   32.4730   38.9400 C   0  0  0  0  0  3  0  0  0  0  0  0
   37.4090   31.4440   38.1070 C   0  0  0  0  0  3  0  0  0  0  0  0
   36.3720   27.8980   37.8440 H   0  0  0  0  0  0  0  0  0  0  0  0
   36.2420   29.1860   37.3350 S   0  0  0  0  0  0  0  0  0  0  0  0
   34.8620   29.3190   36.7740 O   0  0  0  0  0  0  0  0  0  0  0  0
   37.2310   29.2620   36.1930 O   0  0  0  0  0  0  0  0  0  0  0  0
   35.4210   29.1930   40.2760 C   0  0  0  0  0  0  0  0  0  0  0  0
   34.1880   29.0170   40.0840 O   0  0  0  0  0  0  0  0  0  0  0  0
   37.3980   26.1620   41.0030 C   0  0  0  0  0  0  0  0  0  0  0  0
   36.5950   27.0890   40.3150 C   0  0  0  0  0  0  0  0  0  0  0  0
   36.2500   28.2540   41.0140 C   0  0  0  0  0  0  0  0  0  0  0  0
   36.6920   28.4250   42.2800 N   0  0  0  0  0  0  0  0  0  0  0  0
   37.4570   27.5130   42.9010 C   0  0  0  0  0  0  0  0  0  0  0  0
   37.8170   26.3650   42.2570 N   0  0  0  0  0  0  0  0  0  0  0  0
   37.6850   25.2500   40.4960 H   0  0  0  0  0  0  0  0  0  0  0  0
   36.3150   26.8250   39.3080 H   0  0  0  0  0  0  0  0  0  0  0  0
   37.8050   27.6490   43.8990 H   0  0  0  0  0  0  0  0  0  0  0  0
  1  2  1  0  0  0  0
  2 13  1  0  0  0  0
  2  3  2  0  0  0  0
  3  4  1  0  0  0  0
  5  3  1  0  0  0  0
  5  6  1  0  0  0  0
  7  5  2  0  0  0  0
  8  1  2  0  0  0  0
  8  7  1  0  0  0  0
 10  9  1  0  0  0  0
 10  1  1  0  0  0  0
 11 10  2  0  0  0  0
 12 10  2  0  0  0  0
 13 17  1  0  0  0  0
 14 13  2  0  0  0  0
 15 20  1  0  0  0  0
 16 15  2  0  0  0  0
 16 17  1  0  0  0  0
 17 18  2  0  0  0  0
 18 19  1  0  0  0  0
 19 23  1  0  0  0  0
 20 19  2  0  0  0  0
 21 15  1  0  0  0  0
 22 16  1  0  0  0  0
M  END
>  <minimizedAffinity>
-4.52057981

$$$$

 OpenBabel03252501123D

 23 24  0  0  0  0  0  0  0  0999 V2000
   37.6240   29.3670   41.1370 C   0  0  0  0  0  0  0  0  0  0  0  0
   37.9980   28.9110   42.3610 C   0  0  0  0  0  0  0  0  0  0  0  0
   38.9850   29.6090   43.0350 C   0  0  0  0  0  0  0  0  0  0  0  0
   39.3070   29.2600   44.0290 H   0  0  0  0  0  0  0  0  0  0  0  0
   39.6020   30.7340   42.5360 C   0  0  0  0  0  0  0  0  0  0  0  0
   40.3740   31.2490   43.1060 H   0  0  0  0  0  0  0  0  0  0  0  0
   39.2220   31.1980   41.2930 C   0  0  0  0  0  3  0  0  0  0  0  0
   38.2370   30.4960   40.6250 C   0  0  0  0  0  3  0  0  0  0  0  0
   36.3920   29.1750   38.8740 H   0  0  0  0  0  0  0  0  0  0  0  0
   36.4110   28.6260   40.1510 S   0  0  0  0  0  0  0  0  0  0  0  0
   36.5650   27.1440   40.0090 O   0  0  0  0  0  0  0  0  0  0  0  0
   35.0420   28.9110   40.7260 O   0  0  0  0  0  0  0  0  0  0  0  0
   37.3550   27.7160   42.9100 C   0  0  0  0  0  0  0  0  0  0  0  0
   36.1570   27.5970   43.2820 O   0  0  0  0  0  0  0  0  0  0  0  0
   38.8800   24.4100   42.3040 C   0  0  0  0  0  0  0  0  0  0  0  0
   37.9670   25.4780   42.2570 C   0  0  0  0  0  0  0  0  0  0  0  0
   38.3180   26.6300   42.9770 C   0  0  0  0  0  0  0  0  0  0  0  0
   39.4830   26.6560   43.6610 N   0  0  0  0  0  0  0  0  0  0  0  0
   40.3270   25.6120   43.6790 C   0  0  0  0  0  0  0  0  0  0  0  0
   40.0250   24.4720   42.9920 N   0  0  0  0  0  0  0  0  0  0  0  0
   38.6440   23.5050   41.7610 H   0  0  0  0  0  0  0  0  0  0  0  0
   37.0750   25.3210   41.6730 H   0  0  0  0  0  0  0  0  0  0  0  0
   41.2460   25.6350   44.2180 H   0  0  0  0  0  0  0  0  0  0  0  0
  1  2  1  0  0  0  0
  2 13  1  0  0  0  0
  2  3  2  0  0  0  0
  3  4  1  0  0  0  0
  5  3  1  0  0  0  0
  5  6  1  0  0  0  0
  7  5  2  0  0  0  0
  8  1  2  0  0  0  0
  8  7  1  0  0  0  0
  9 10  1  0  0  0  0
 10 12  2  0  0  0  0
 10  1  1  0  0  0  0
 11 10  2  0  0  0  0
 13 17  1  0  0  0  0
 13 14  2  0  0  0  0
 15 20  1  0  0  0  0
 16 15  2  0  0  0  0
 16 17  1  0  0  0  0
 17 18  2  0  0  0  0
 18 19  1  0  0  0  0
 19 23  1  0  0  0  0
 20 19  2  0  0  0  0
 21 15  1  0  0  0  0
 22 16  1  0  0  0  0
M  END
>  <minimizedAffinity>
-4.50237703

$$$$

 OpenBabel03252501123D

 23 24  0  0  0  0  0  0  0  0999 V2000
   38.3660   29.3300   42.2340 C   0  0  0  0  0  0  0  0  0  0  0  0
   37.0900   29.0500   41.8640 C   0  0  0  0  0  0  0  0  0  0  0  0
   36.5110   27.8970   42.3650 C   0  0  0  0  0  0  0  0  0  0  0  0
   35.4770   27.6470   42.0800 H   0  0  0  0  0  0  0  0  0  0  0  0
   37.1560   27.0250   43.2130 C   0  0  0  0  0  0  0  0  0  0  0  0
   36.6570   26.1300   43.5810 H   0  0  0  0  0  0  0  0  0  0  0  0
   38.4530   27.3090   43.5900 C   0  0  0  0  0  3  0  0  0  0  0  0
   39.0250   28.4610   43.0850 C   0  0  0  0  0  3  0  0  0  0  0  0
   38.4070   31.8100   41.5090 H   0  0  0  0  0  0  0  0  0  0  0  0
   39.2500   30.7220   41.7090 S   0  0  0  0  0  0  0  0  0  0  0  0
   40.3320   31.1480   42.6500 O   0  0  0  0  0  0  0  0  0  0  0  0
   39.8720   30.4490   40.3570 O   0  0  0  0  0  0  0  0  0  0  0  0
   36.3870   29.9640   40.9620 C   0  0  0  0  0  0  0  0  0  0  0  0
   36.0280   31.1480   41.2030 O   0  0  0  0  0  0  0  0  0  0  0  0
   34.5180   28.4900   38.1410 C   0  0  0  0  0  0  0  0  0  0  0  0
   34.7880   29.1270   39.3660 C   0  0  0  0  0  0  0  0  0  0  0  0
   36.1400   29.3040   39.6910 C   0  0  0  0  0  0  0  0  0  0  0  0
   37.0920   28.8660   38.8370 N   0  0  0  0  0  0  0  0  0  0  0  0
   36.7900   28.2630   37.6760 C   0  0  0  0  0  0  0  0  0  0  0  0
   35.4870   28.0700   37.3200 N   0  0  0  0  0  0  0  0  0  0  0  0
   33.4860   28.3360   37.8560 H   0  0  0  0  0  0  0  0  0  0  0  0
   33.9320   29.4240   39.9500 H   0  0  0  0  0  0  0  0  0  0  0  0
   37.5420   27.9190   37.0040 H   0  0  0  0  0  0  0  0  0  0  0  0
  1  8  1  0  0  0  0
  2  1  2  0  0  0  0
  2  3  1  0  0  0  0
  3  5  2  0  0  0  0
  4  3  1  0  0  0  0
  5  6  1  0  0  0  0
  5  7  1  0  0  0  0
  8  7  2  0  0  0  0
  9 10  1  0  0  0  0
 10  1  1  0  0  0  0
 10 11  2  0  0  0  0
 12 10  2  0  0  0  0
 13 14  2  0  0  0  0
 13  2  1  0  0  0  0
 15 16  1  0  0  0  0
 16 17  2  0  0  0  0
 16 22  1  0  0  0  0
 17 13  1  0  0  0  0
 18 17  1  0  0  0  0
 19 18  2  0  0  0  0
 20 19  1  0  0  0  0
 20 15  2  0  0  0  0
 21 15  1  0  0  0  0
 23 19  1  0  0  0  0
M  END
>  <minimizedAffinity>
-4.44948673

$$$$

 OpenBabel03252501123D

 23 24  0  0  0  0  0  0  0  0999 V2000
   36.6850   27.0080   40.4700 C   0  0  0  0  0  0  0  0  0  0  0  0
   37.0350   26.3990   41.6320 C   0  0  0  0  0  0  0  0  0  0  0  0
   37.1580   25.0200   41.6270 C   0  0  0  0  0  0  0  0  0  0  0  0
   37.4410   24.5030   42.5570 H   0  0  0  0  0  0  0  0  0  0  0  0
   36.9450   24.2400   40.5140 C   0  0  0  0  0  0  0  0  0  0  0  0
   37.0550   23.1570   40.5600 H   0  0  0  0  0  0  0  0  0  0  0  0
   36.5890   24.8580   39.3320 C   0  0  0  0  0  3  0  0  0  0  0  0
   36.4680   26.2340   39.3450 C   0  0  0  0  0  3  0  0  0  0  0  0
   37.1470   29.4140   41.2920 H   0  0  0  0  0  0  0  0  0  0  0  0
   36.4830   28.7170   40.2880 S   0  0  0  0  0  0  0  0  0  0  0  0
   36.9560   29.2490   38.9720 O   0  0  0  0  0  0  0  0  0  0  0  0
   35.0240   29.0780   40.4540 O   0  0  0  0  0  0  0  0  0  0  0  0
   37.2650   27.2120   42.8280 C   0  0  0  0  0  0  0  0  0  0  0  0
   36.4100   27.5760   43.6790 O   0  0  0  0  0  0  0  0  0  0  0  0
   40.8470   26.9480   43.6770 C   0  0  0  0  0  0  0  0  0  0  0  0
   39.4800   26.6320   43.5770 C   0  0  0  0  0  0  0  0  0  0  0  0
   38.6720   27.5670   42.9160 C   0  0  0  0  0  0  0  0  0  0  0  0
   39.2280   28.6940   42.4190 N   0  0  0  0  0  0  0  0  0  0  0  0
   40.5400   28.9570   42.5370 C   0  0  0  0  0  0  0  0  0  0  0  0
   41.3630   28.0740   43.1730 N   0  0  0  0  0  0  0  0  0  0  0  0
   41.5030   26.2500   44.1810 H   0  0  0  0  0  0  0  0  0  0  0  0
   39.1710   25.6980   44.0180 H   0  0  0  0  0  0  0  0  0  0  0  0
   40.9780   29.8450   42.1450 H   0  0  0  0  0  0  0  0  0  0  0  0
  1  2  1  0  0  0  0
  2 13  1  0  0  0  0
  3  2  2  0  0  0  0
  3  4  1  0  0  0  0
  5  6  1  0  0  0  0
  5  3  1  0  0  0  0
  7  8  1  0  0  0  0
  7  5  2  0  0  0  0
  8  1  2  0  0  0  0
 10 12  2  0  0  0  0
 10  1  1  0  0  0  0
 10  9  1  0  0  0  0
 11 10  2  0  0  0  0
 13 17  1  0  0  0  0
 13 14  2  0  0  0  0
 15 21  1  0  0  0  0
 16 15  1  0  0  0  0
 16 22  1  0  0  0  0
 17 16  2  0  0  0  0
 18 19  2  0  0  0  0
 18 17  1  0  0  0  0
 19 20  1  0  0  0  0
 20 15  2  0  0  0  0
 23 19  1  0  0  0  0
M  END
>  <minimizedAffinity>
-4.44582415

$$$$
