
 OpenBabel03252507453D

 40 42  0  0  0  0  0  0  0  0999 V2000
   48.4300   33.9520   41.4000 C   0  0  0  0  0  0  0  0  0  0  0  0
   49.0060   32.7720   40.9680 C   0  0  0  0  0  0  0  0  0  0  0  0
   50.2890   32.4100   41.3600 C   0  0  0  0  0  0  0  0  0  0  0  0
   50.9490   33.2660   42.1850 N   0  0  0  0  0  0  0  0  0  0  0  0
   50.3530   34.4230   42.5940 C   0  0  0  0  0  0  0  0  0  0  0  0
   49.1300   34.7290   42.1960 N   0  0  0  0  0  0  0  0  0  0  0  0
   50.7950   31.5270   41.0690 H   0  0  0  0  0  0  0  0  0  0  0  0
   50.8220   35.1490   43.2490 H   0  0  0  0  0  0  0  0  0  0  0  0
   47.0780   34.2350   40.9100 C   0  0  0  0  0  0  0  0  0  0  0  0
   47.1380   34.8150   39.9390 H   0  0  0  0  0  0  0  0  0  0  0  0
   46.5020   33.3270   40.6540 H   0  0  0  0  0  0  0  0  0  0  0  0
   46.2500   35.0300   41.8830 C   0  0  0  0  0  0  0  0  0  0  0  0
   46.5170   36.1020   41.7730 H   0  0  0  0  0  0  0  0  0  0  0  0
   46.5590   34.6730   42.9050 H   0  0  0  0  0  0  0  0  0  0  0  0
   44.7920   34.9500   41.6700 C   0  0  0  0  0  0  0  0  0  0  0  0
   43.9080   35.3630   42.7040 C   0  0  0  0  0  0  0  0  0  0  0  0
   42.2490   35.0800   41.9760 S   0  0  0  0  0  0  0  0  0  0  0  0
   43.0470   34.4370   40.3630 C   0  0  0  0  0  0  0  0  0  0  0  0
   44.1600   34.5280   40.6040 N   0  0  0  0  0  0  0  0  0  0  0  0
   44.1620   35.7490   43.6790 H   0  0  0  0  0  0  0  0  0  0  0  0
   42.3050   34.0030   39.2670 O   0  0  0  0  0  0  0  0  0  0  0  0
   40.3560   34.5440   37.5590 O   0  0  0  0  0  0  0  0  0  0  0  0
   41.4640   35.1790   38.3820 P   0  0  0  0  0  0  0  0  0  0  0  0
   40.7810   36.2760   39.4690 O   0  0  0  0  0  0  0  0  0  0  0  0
   40.3730   37.0600   39.0130 H   0  0  0  0  0  0  0  0  0  0  0  0
   42.5490   36.0170   37.3820 O   0  0  0  0  0  0  0  0  0  0  0  0
   43.0660   35.3290   36.9080 H   0  0  0  0  0  0  0  0  0  0  0  0
   48.1110   31.6640   39.8520 S   0  0  0  0  0  0  0  0  0  0  0  0
   45.8050   30.3690   40.2100 C   0  0  0  0  0  0  0  0  0  0  0  0
   47.0940   30.5030   40.7290 C   0  0  0  0  0  0  0  0  0  0  0  0
   47.4040   29.7360   41.8290 C   0  0  0  0  0  0  0  0  0  0  0  0
   48.3900   29.8620   42.2020 H   0  0  0  0  0  0  0  0  0  0  0  0
   46.5220   28.8640   42.4260 C   0  0  0  0  0  0  0  0  0  0  0  0
   46.8580   28.3060   43.2860 H   0  0  0  0  0  0  0  0  0  0  0  0
   45.2480   28.7290   41.9160 C   0  0  0  0  0  3  0  0  0  0  0  0
   44.9090   29.4930   40.8050 C   0  0  0  0  0  3  0  0  0  0  0  0
   45.4190   32.5030   38.7860 H   0  0  0  0  0  0  0  0  0  0  0  0
   45.0970   31.1890   38.8440 S   0  0  0  0  0  0  0  0  0  0  0  0
   43.5950   31.0390   38.8480 O   0  0  0  0  0  0  0  0  0  0  0  0
   45.5830   30.5300   37.5820 O   0  0  0  0  0  0  0  0  0  0  0  0
  1  6  1  0  0  0  0
  2  3  1  0  0  0  0
  2  1  2  0  0  0  0
  3  4  2  0  0  0  0
  4  5  1  0  0  0  0
  5  8  1  0  0  0  0
  6  5  2  0  0  0  0
  7  3  1  0  0  0  0
  9  1  1  0  0  0  0
  9 12  1  0  0  0  0
 10  9  1  0  0  0  0
 11  9  1  0  0  0  0
 12 14  1  0  0  0  0
 13 12  1  0  0  0  0
 15 12  1  0  0  0  0
 15 16  2  0  0  0  0
 16 20  1  0  0  0  0
 17 16  1  0  0  0  0
 18 19  2  0  0  0  0
 18 17  1  0  0  0  0
 19 15  1  0  0  0  0
 21 18  1  0  0  0  0
 22 23  2  0  0  0  0
 23 21  1  0  0  0  0
 23 24  1  0  0  0  0
 25 24  1  0  0  0  0
 26 23  1  0  0  0  0
 27 26  1  0  0  0  0
 28 30  1  0  0  0  0
 28  2  1  0  0  0  0
 29 30  2  0  0  0  0
 29 36  1  0  0  0  0
 30 31  1  0  0  0  0
 31 32  1  0  0  0  0
 31 33  2  0  0  0  0
 33 34  1  0  0  0  0
 35 33  1  0  0  0  0
 36 35  2  0  0  0  0
 37 38  1  0  0  0  0
 38 39  2  0  0  0  0
 38 29  1  0  0  0  0
 40 38  2  0  0  0  0
M  END
>  <minimizedAffinity>
-4.24018478

>  <minimizedRMSD>
0.570403814

$$$$
