REMARK  Name = 
REMARK  6 active torsions:
REMARK  status: ('A' for Active; 'I' for Inactive)
REMARK    1  A    between atoms: C_1  and  N_5
REMARK    2  A    between atoms: C_1  and  C_13
REMARK    3  A    between atoms: C_2  and  C_11
REMARK    4  A    between atoms: C_13  and  C_15
REMARK    5  A    between atoms: C_22  and  N_37
REMARK    6  A    between atoms: C_42  and  N_43
REMARK                            x       y       z     vdW  Elec       q    Type
REMARK                         _______ _______ _______ _____ _____    ______ ____
ROOT
ATOM      1  C   UNL     1      45.119  27.551  47.905  0.00  0.00    +0.000 A 
ATOM      2  C   UNL     1      45.194  28.905  47.646  0.00  0.00    +0.000 A 
ATOM      3  C   UNL     1      44.361  29.385  46.631  0.00  0.00    +0.000 A 
ATOM      4  C   UNL     1      43.515  28.555  45.931  0.00  0.00    +0.000 A 
ATOM      5  N   UNL     1      42.623  28.727  44.930  0.00  0.00    +0.000 N 
ATOM      6  C   UNL     1      42.045  27.566  44.601  0.00  0.00    +0.000 A 
ATOM      7  C   UNL     1      42.556  26.566  45.400  0.00  0.00    +0.000 A 
ATOM      8  C   UNL     1      43.455  27.215  46.203  0.00  0.00    +0.000 A 
ATOM      9  C   UNL     1      44.277  26.735  47.205  0.00  0.00    +0.000 A 
ATOM     10  H   UNL     1      45.792  27.241  48.706  0.00  0.00    +0.000 HD
ATOM     11  H   UNL     1      44.308  30.419  46.315  0.00  0.00    +0.000 HD
ATOM     12  H   UNL     1      42.400  29.634  44.463  0.00  0.00    +0.000 HD
ATOM     13  H   UNL     1      41.286  27.414  43.825  0.00  0.00    +0.000 HD
ATOM     14  H   UNL     1      42.258  25.529  45.341  0.00  0.00    +0.000 HD
ENDROOT
BRANCH   9  15
ATOM     15  N   UNL     1      44.261  25.352  47.535  0.00  0.00    +0.000 N 
ATOM     16  C   UNL     1      44.487  24.923  48.782  0.00  0.00    +0.000 A 
ATOM     17  H   UNL     1      44.707  25.407  49.732  0.00  0.00    +0.000 HD
ATOM     18  N   UNL     1      44.415  23.578  48.822  0.00  0.00    +0.000 NA
ATOM     19  C   UNL     1      44.139  23.141  47.580  0.00  0.00    +0.000 A 
ATOM     20  C   UNL     1      43.942  21.898  46.972  0.00  0.00    +0.000 A 
ATOM     21  N   UNL     1      43.672  21.823  45.652  0.00  0.00    +0.000 NA
ATOM     22  C   UNL     1      43.585  22.946  44.888  0.00  0.00    +0.000 A 
ATOM     23  H   UNL     1      43.365  22.771  43.849  0.00  0.00    +0.000 HD
ATOM     24  N   UNL     1      43.771  24.175  45.451  0.00  0.00    +0.000 NA
ATOM     25  C   UNL     1      44.041  24.273  46.762  0.00  0.00    +0.000 A 
BRANCH  20  26
ATOM     26  N   UNL     1      44.058  20.814  47.864  0.00  0.00    +0.000 N 
ATOM     27  H   UNL     1      45.103  20.629  47.895  0.00  0.00    +0.000 HD
ATOM     28  H   UNL     1      43.046  20.665  48.108  0.00  0.00    +0.000 HD
ENDBRANCH  20  26
ENDBRANCH   9  15
BRANCH   2  29
ATOM     29  C   UNL     1      46.009  29.942  48.261  0.00  0.00    +0.000 C 
ATOM     30  H   UNL     1      45.446  30.887  48.385  0.00  0.00    +0.000 HD
ATOM     31  H   UNL     1      46.209  29.604  49.318  0.00  0.00    +0.000 HD
BRANCH  29  32
ATOM     32  C   UNL     1      47.330  30.217  47.654  0.00  0.00    +0.000 C 
ATOM     33  H   UNL     1      47.919  29.329  47.450  0.00  0.00    +0.000 HD
ATOM     34  H   UNL     1      47.904  30.849  48.371  0.00  0.00    +0.000 HD
BRANCH  32  38
ATOM     35  C   UNL     1      46.553  32.664  45.165  0.00  0.00    +0.000 A 
ATOM     36  C   UNL     1      47.275  31.703  44.412  0.00  0.00    +0.000 A 
ATOM     37  C   UNL     1      47.646  30.691  45.236  0.00  0.00    +0.000 A 
ATOM     38  N   UNL     1      47.172  31.016  46.446  0.00  0.00    +0.000 N 
ATOM     39  N   UNL     1      46.524  32.186  46.403  0.00  0.00    +0.000 NA
ATOM     40  H   UNL     1      47.487  31.782  43.349  0.00  0.00    +0.000 HD
ATOM     41  H   UNL     1      48.203  29.786  45.035  0.00  0.00    +0.000 HD
BRANCH  35  46
ATOM     42  C   UNL     1      44.571  35.705  44.828  0.00  0.00    +0.000 A 
ATOM     43  C   UNL     1      44.944  36.194  43.587  0.00  0.00    +0.000 A 
ATOM     44  C   UNL     1      45.895  35.464  42.852  0.00  0.00    +0.000 A 
ATOM     45  N   UNL     1      46.380  34.334  43.410  0.00  0.00    +0.000 NA
ATOM     46  C   UNL     1      46.001  33.880  44.618  0.00  0.00    +0.000 A 
ATOM     47  N   UNL     1      45.091  34.572  45.328  0.00  0.00    +0.000 NA
ATOM     48  H   UNL     1      43.843  36.307  45.337  0.00  0.00    +0.000 HD
ATOM     49  H   UNL     1      44.599  37.073  43.099  0.00  0.00    +0.000 HD
ATOM     50  H   UNL     1      46.256  35.750  41.881  0.00  0.00    +0.000 HD
ENDBRANCH  35  46
ENDBRANCH  32  38
ENDBRANCH  29  32
ENDBRANCH   2  29
TORSDOF 6
