
 OpenBabel03252500283D

 48 51  0  0  1  0  0  0  0  0999 V2000
   47.1150   33.1000   46.7370 O   0  0  0  0  0  0  0  0  0  0  0  0
   45.6680   32.7730   46.6180 P   0  0  1  0  0  0  0  0  0  0  0  0
   45.4650   31.5590   45.4550 O   0  0  0  0  0  0  0  0  0  0  0  0
   45.9800   31.8240   44.6650 H   0  0  0  0  0  0  0  0  0  0  0  0
   45.1720   32.2210   48.0930 O   0  0  0  0  0  0  0  0  0  0  0  0
   47.0370   30.7300   48.1340 C   0  0  2  0  0  0  0  0  0  0  0  0
   45.5740   30.9230   48.2760 C   0  0  2  0  0  0  0  0  0  0  0  0
   44.9500   29.9950   47.3590 C   0  0  0  0  0  0  0  0  0  0  0  0
   45.8510   28.9560   47.0880 O   0  0  0  0  0  0  0  0  0  0  0  0
   46.9250   29.1750   47.8800 C   0  0  0  0  0  0  0  0  0  0  0  0
   47.5000   30.9430   47.1560 H   0  0  0  0  0  0  0  0  0  0  0  0
   45.4100   30.7590   49.3810 H   0  0  0  0  0  0  0  0  0  0  0  0
   44.2510   29.3900   48.0420 H   0  0  0  0  0  0  0  0  0  0  0  0
   44.2230   30.2380   46.6150 H   0  0  0  0  0  0  0  0  0  0  0  0
   46.7680   28.7720   48.9220 H   0  0  0  0  0  0  0  0  0  0  0  0
   47.8800   28.7710   47.5530 H   0  0  0  0  0  0  0  0  0  0  0  0
   47.7910   30.9080   49.2310 O   0  0  0  0  0  0  0  0  0  0  0  0
   49.0150   31.3480   49.2580 C   0  0  0  0  0  0  0  0  0  0  0  0
   49.3140   32.3600   49.1370 H   0  0  0  0  0  0  0  0  0  0  0  0
   49.5040   30.8370   48.2580 H   0  0  0  0  0  0  0  0  0  0  0  0
   49.8000   30.5580   50.2920 C   0  0  0  0  0  0  0  0  0  0  0  0
   49.5280   30.8530   51.3220 H   0  0  0  0  0  0  0  0  0  0  0  0
   49.5950   29.4890   50.0820 H   0  0  0  0  0  0  0  0  0  0  0  0
   50.8790   30.7940   50.0950 H   0  0  0  0  0  0  0  0  0  0  0  0
   44.8970   34.2250   46.1600 O   0  0  0  0  0  0  0  0  0  0  0  0
   45.2100   36.5980   43.4880 C   0  0  0  0  0  0  0  0  0  0  0  0
   45.1210   35.8120   42.3140 C   0  0  0  0  0  0  0  0  0  0  0  0
   44.9480   34.4240   42.5070 C   0  0  0  0  0  0  0  0  0  0  0  0
   44.8790   33.9380   43.7620 N   0  0  0  0  0  0  0  0  0  0  0  0
   44.9690   34.7240   44.8470 C   0  0  0  0  0  0  0  0  0  0  0  0
   45.1330   36.0470   44.7050 N   0  0  0  0  0  0  0  0  0  0  0  0
   45.1770   36.2150   41.3180 H   0  0  0  0  0  0  0  0  0  0  0  0
   44.8710   33.7620   41.6640 H   0  0  0  0  0  0  0  0  0  0  0  0
   45.3790   37.9420   43.3450 O   0  0  0  0  0  0  0  0  0  0  0  0
   45.1690   37.9930   46.1870 H   0  0  0  0  0  0  0  0  0  0  0  0
   45.0770   38.8840   45.6560 N   0  0  0  0  0  0  0  0  0  0  0  0
   45.1730   38.8820   44.3140 C   0  0  0  0  0  0  0  0  0  0  0  0
   45.0140   40.1650   43.9160 N   0  0  0  0  0  0  0  0  0  0  0  0
   44.8250   40.9150   45.0220 C   0  0  0  0  0  0  0  0  0  0  0  0
   44.6110   42.2740   45.2450 C   0  0  0  0  0  0  0  0  0  0  0  0
   44.4470   42.7900   46.4740 N   0  0  0  0  0  0  0  0  0  0  0  0
   44.4920   41.9600   47.5500 C   0  0  0  0  0  0  0  0  0  0  0  0
   44.3740   42.2570   48.5860 H   0  0  0  0  0  0  0  0  0  0  0  0
   44.6990   40.6230   47.3740 N   0  0  0  0  0  0  0  0  0  0  0  0
   44.8610   40.1170   46.1470 C   0  0  0  0  0  0  0  0  0  0  0  0
   44.5610   43.1640   44.1250 N   0  0  0  0  0  0  0  0  0  0  0  0
   45.1760   43.6070   43.4090 H   0  0  0  0  0  0  0  0  0  0  0  0
   43.5500   43.4460   44.0180 H   0  0  0  0  0  0  0  0  0  0  0  0
  2  1  2  1  0  0  0
  2  5  1  0  0  0  0
  3  2  1  0  0  0  0
  4  3  1  0  0  0  0
  5  7  1  0  0  0  0
  6 11  1  6  0  0  0
  6  7  1  0  0  0  0
  6 17  1  0  0  0  0
  7 12  1  1  0  0  0
  8 13  1  0  0  0  0
  8  7  1  0  0  0  0
  9  8  1  0  0  0  0
  9 10  1  0  0  0  0
 10  6  1  0  0  0  0
 10 15  1  0  0  0  0
 14  8  1  0  0  0  0
 16 10  1  0  0  0  0
 17 18  1  0  0  0  0
 18 21  1  0  0  0  0
 19 18  1  0  0  0  0
 20 18  1  0  0  0  0
 21 22  1  0  0  0  0
 23 21  1  0  0  0  0
 24 21  1  0  0  0  0
 25  2  1  0  0  0  0
 26 31  1  0  0  0  0
 27 28  1  0  0  0  0
 27 26  2  0  0  0  0
 28 29  2  0  0  0  0
 29 30  1  0  0  0  0
 30 25  1  0  0  0  0
 31 30  2  0  0  0  0
 32 27  1  0  0  0  0
 33 28  1  0  0  0  0
 34 26  1  0  0  0  0
 34 37  1  0  0  0  0
 36 45  1  0  0  0  0
 36 35  1  0  0  0  0
 37 36  1  0  0  0  0
 38 37  2  0  0  0  0
 38 39  1  0  0  0  0
 39 40  2  0  0  0  0
 39 45  1  0  0  0  0
 40 41  1  0  0  0  0
 41 42  2  0  0  0  0
 42 43  1  0  0  0  0
 44 42  1  0  0  0  0
 45 44  2  0  0  0  0
 46 40  1  0  0  0  0
 47 46  1  0  0  0  0
 48 46  1  0  0  0  0
M  END
>  <minimizedAffinity>
-4.22535563

>  <minimizedRMSD>
0.624598861

$$$$
