
     RDKit          3D

 52 57  0  0  0  0  0  0  0  0999 V2000
   45.7883   30.0496   48.4391 C   0  0  0  0  0  0  0  0  0  0  0  0
   44.9999   27.6533   48.0089 C   0  0  0  0  0  0  0  0  0  0  0  0
   45.0588   29.0061   47.7547 C   0  0  0  0  0  0  0  0  0  0  0  0
   44.2984   29.4493   46.6679 C   0  0  0  0  0  0  0  0  0  0  0  0
   43.5477   28.5839   45.9127 C   0  0  0  0  0  0  0  0  0  0  0  0
   42.7378   28.7239   44.8361 N   0  0  0  0  0  0  0  0  0  0  0  0
   42.2234   27.5531   44.4595 C   0  0  0  0  0  0  0  0  0  0  0  0
   42.7006   26.5653   45.3148 C   0  0  0  0  0  0  0  0  0  0  0  0
   43.5019   27.2485   46.1795 C   0  0  0  0  0  0  0  0  0  0  0  0
   44.2479   26.7968   47.2499 C   0  0  0  0  0  0  0  0  0  0  0  0
   44.2493   25.3754   47.5986 C   0  0  0  0  0  0  0  0  0  0  0  0
   44.9322   24.9237   48.5511 O   0  0  0  0  0  0  0  0  0  0  0  0
   47.1432   30.3845   47.9300 C   0  0  0  0  0  0  0  0  0  0  0  0
   46.5092   32.7144   45.2896 C   0  0  0  0  0  0  0  0  0  0  0  0
   47.2569   31.7203   44.6230 C   0  0  0  0  0  0  0  0  0  0  0  0
   47.5773   30.7509   45.5087 C   0  0  0  0  0  0  0  0  0  0  0  0
   47.0479   31.1295   46.6822 N   0  0  0  0  0  0  0  0  0  0  0  0
   46.4105   32.2958   46.5628 N   0  0  0  0  0  0  0  0  0  0  0  0
   44.5693   35.7598   44.7463 C   0  0  0  0  0  0  0  0  0  0  0  0
   44.9897   36.1776   43.4864 C   0  0  0  0  0  0  0  0  0  0  0  0
   45.9442   35.4015   42.8305 C   0  0  0  0  0  0  0  0  0  0  0  0
   46.3988   34.3024   43.4505 N   0  0  0  0  0  0  0  0  0  0  0  0
   45.9953   33.9033   44.6574 C   0  0  0  0  0  0  0  0  0  0  0  0
   45.0724   34.6479   45.2990 N   0  0  0  0  0  0  0  0  0  0  0  0
   45.9184   29.7245   49.5103 H   0  0  0  0  0  0  0  0  0  0  0  0
   45.1967   30.9925   48.4912 H   0  0  0  0  0  0  0  0  0  0  0  0
   45.6071   27.3432   48.8662 H   0  0  0  0  0  0  0  0  0  0  0  0
   44.2523   30.4882   46.3550 H   0  0  0  0  0  0  0  0  0  0  0  0
   42.5545   29.6551   44.3729 H   0  0  0  0  0  0  0  0  0  0  0  0
   41.5473   27.4277   43.6199 H   0  0  0  0  0  0  0  0  0  0  0  0
   42.4401   25.5383   45.2300 H   0  0  0  0  0  0  0  0  0  0  0  0
   43.6511   24.6593   47.0355 H   0  0  0  0  0  0  0  0  0  0  0  0
   47.6854   30.9552   48.7044 H   0  0  0  0  0  0  0  0  0  0  0  0
   47.6831   29.4413   47.7677 H   0  0  0  0  0  0  0  0  0  0  0  0
   47.5709   31.6611   43.5703 H   0  0  0  0  0  0  0  0  0  0  0  0
   48.1533   29.8341   45.3208 H   0  0  0  0  0  0  0  0  0  0  0  0
   43.8245   36.3241   45.3110 H   0  0  0  0  0  0  0  0  0  0  0  0
   44.5898   37.0738   43.0313 H   0  0  0  0  0  0  0  0  0  0  0  0
   46.4270   35.7582   41.5409 N   0  0  0  0  0  0  0  0  0  0  0  0
   47.0657   36.9024   41.2542 C   0  0  0  0  0  0  0  0  0  0  0  0
   47.2965   37.7040   41.9707 H   0  0  0  0  0  0  0  0  0  0  0  0
   47.3900   36.9304   39.9409 N   0  0  0  0  0  0  0  0  0  0  0  0
   46.9556   35.7983   39.3890 C   0  0  0  0  0  0  0  0  0  0  0  0
   47.0236   35.3204   38.0917 C   0  0  0  0  0  0  0  0  0  0  0  0
   47.6557   36.1136   37.0920 N   0  0  0  0  0  0  0  0  0  0  0  0
   46.7864   36.4945   36.6572 H   0  0  0  0  0  0  0  0  0  0  0  0
   46.4743   34.1021   37.8433 N   0  0  0  0  0  0  0  0  0  0  0  0
   45.8821   33.3844   38.8340 C   0  0  0  0  0  0  0  0  0  0  0  0
   45.4637   32.4081   38.5425 H   0  0  0  0  0  0  0  0  0  0  0  0
   45.8302   33.8733   40.0854 N   0  0  0  0  0  0  0  0  0  0  0  0
   46.3438   35.0525   40.4024 C   0  0  0  0  0  0  0  0  0  0  0  0
   48.6420   36.3092   36.8134 H   0  0  0  0  0  0  0  0  0  0  0  0
  3  2  2  0
  3  1  1  0
  4  3  1  0
  5  9  1  0
  5  4  2  0
  6  5  1  0
  7  6  1  0
  7  8  2  0
  8  9  1  0
  9 10  2  0
 10 11  1  0
 10  2  1  0
 11 12  2  0
 13  1  1  0
 14 18  2  0
 15 14  1  0
 15 16  2  0
 16 17  1  0
 17 13  1  0
 18 17  1  0
 19 24  2  0
 20 19  1  0
 21 22  1  0
 21 20  2  0
 22 23  2  0
 23 14  1  0
 23 24  1  0
  1 25  1  0
  1 26  1  0
  2 27  1  0
  4 28  1  0
  6 29  1  0
  7 30  1  0
  8 31  1  0
 11 32  1  0
 13 33  1  0
 13 34  1  0
 15 35  1  0
 16 36  1  0
 19 37  1  0
 20 38  1  0
 39 40  1  0
 40 41  1  0
 40 42  2  0
 42 43  1  0
 43 44  2  0
 44 45  1  0
 45 46  1  0
 44 47  1  0
 47 48  2  0
 48 49  1  0
 48 50  1  0
 50 51  2  0
 51 39  1  0
 51 43  1  0
 45 52  1  0
 21 39  1  0
M  ISO  8  25   8  26   8  27  14  28  14  29   9  30  14  31  14  32   6
M  ISO  8  33   8  34   8  35  14  36  14  37  14  38  14  41  15  46   5
M  ISO  1  49  16
M  END
>  <DihAtoms>  (1) 
21,20,38,39

>  <DihDeg>  (1) 
15.686840528563685

$$$$
