
 OpenBabel03252504003D

 39 43  0  0  0  0  0  0  0  0999 V2000
   47.0310   34.9630   42.6050 C   0  0  0  0  0  0  0  0  0  0  0  0
   46.0120   35.9020   42.4010 C   0  0  0  0  0  0  0  0  0  0  0  0
   44.9070   35.8530   43.2470 C   0  0  0  0  0  0  0  0  0  0  0  0
   44.8810   34.9070   44.2130 N   0  0  0  0  0  0  0  0  0  0  0  0
   45.8810   34.0200   44.3790 C   0  0  0  0  0  0  0  0  0  0  0  0
   46.9620   34.0400   43.5800 N   0  0  0  0  0  0  0  0  0  0  0  0
   46.0600   36.6510   41.6150 H   0  0  0  0  0  0  0  0  0  0  0  0
   44.1060   36.5740   43.1040 H   0  0  0  0  0  0  0  0  0  0  0  0
   46.0820   31.6800   45.0660 C   0  0  0  0  0  0  0  0  0  0  0  0
   45.8330   32.9990   45.4360 C   0  0  0  0  0  0  0  0  0  0  0  0
   45.5560   33.2950   46.7500 C   0  0  0  0  0  0  0  0  0  0  0  0
   45.5280   32.2840   47.6870 C   0  0  0  0  0  0  0  0  0  0  0  0
   45.2960   32.2530   49.0000 N   0  0  0  0  0  0  0  0  0  0  0  0
   45.3800   31.0130   49.4880 C   0  0  0  0  0  0  0  0  0  0  0  0
   45.6820   30.1710   48.4540 C   0  0  0  0  0  0  0  0  0  0  0  0
   45.7750   30.9680   47.3270 C   0  0  0  0  0  0  0  0  0  0  0  0
   46.0550   30.6660   46.0000 C   0  0  0  0  0  0  0  0  0  0  0  0
   46.3030   31.4230   44.0310 H   0  0  0  0  0  0  0  0  0  0  0  0
   45.3630   34.3240   47.0320 H   0  0  0  0  0  0  0  0  0  0  0  0
   45.0770   33.1060   49.5610 H   0  0  0  0  0  0  0  0  0  0  0  0
   45.2310   30.7340   50.5340 H   0  0  0  0  0  0  0  0  0  0  0  0
   45.8220   29.1200   48.4860 H   0  0  0  0  0  0  0  0  0  0  0  0
   46.2520   29.6570   45.6760 H   0  0  0  0  0  0  0  0  0  0  0  0
   48.1460   35.0670   41.6960 C   0  0  0  0  0  0  0  0  0  0  0  0
   49.1220   35.8790   41.8330 O   0  0  0  0  0  0  0  0  0  0  0  0
   47.0310   35.2800   39.0550 H   0  0  0  0  0  0  0  0  0  0  0  0
   47.6070   34.4760   39.3290 N   0  0  0  0  0  0  0  0  0  0  0  0
   48.2120   34.1960   40.5040 C   0  0  0  0  0  0  0  0  0  0  0  0
   48.8600   33.0220   40.3860 N   0  0  0  0  0  0  0  0  0  0  0  0
   48.6860   32.5310   39.1540 C   0  0  0  0  0  0  0  0  0  0  0  0
   49.0580   31.4280   38.4110 C   0  0  0  0  0  0  0  0  0  0  0  0
   48.7130   31.2060   37.1430 N   0  0  0  0  0  0  0  0  0  0  0  0
   47.9340   32.1280   36.5130 C   0  0  0  0  0  0  0  0  0  0  0  0
   47.5750   32.0910   35.4960 H   0  0  0  0  0  0  0  0  0  0  0  0
   47.5560   33.2150   37.2110 N   0  0  0  0  0  0  0  0  0  0  0  0
   47.8960   33.4500   38.4870 C   0  0  0  0  0  0  0  0  0  0  0  0
   49.8720   30.4580   39.0600 N   0  0  0  0  0  0  0  0  0  0  0  0
   50.8650   30.8160   39.1830 H   0  0  0  0  0  0  0  0  0  0  0  0
   50.0000   29.5220   39.5000 H   0  0  0  0  0  0  0  0  0  0  0  0
  1  6  1  0  0  0  0
  2  1  2  0  0  0  0
  2  3  1  0  0  0  0
  3  4  2  0  0  0  0
  4  5  1  0  0  0  0
  5 10  1  0  0  0  0
  6  5  2  0  0  0  0
  7  2  1  0  0  0  0
  8  3  1  0  0  0  0
  9 10  2  0  0  0  0
  9 17  1  0  0  0  0
 10 11  1  0  0  0  0
 11 19  1  0  0  0  0
 11 12  2  0  0  0  0
 12 13  1  0  0  0  0
 13 14  1  0  0  0  0
 13 20  1  0  0  0  0
 14 21  1  0  0  0  0
 15 22  1  0  0  0  0
 15 14  2  0  0  0  0
 16 12  1  0  0  0  0
 16 15  1  0  0  0  0
 17 16  2  0  0  0  0
 18  9  1  0  0  0  0
 23 17  1  0  0  0  0
 24 25  2  0  0  0  0
 24  1  1  0  0  0  0
 26 27  1  0  0  0  0
 27 28  1  0  0  0  0
 28 24  1  0  0  0  0
 29 28  2  0  0  0  0
 30 29  1  0  0  0  0
 31 37  1  0  0  0  0
 31 30  2  0  0  0  0
 32 31  1  0  0  0  0
 33 32  2  0  0  0  0
 33 35  1  0  0  0  0
 34 33  1  0  0  0  0
 35 36  2  0  0  0  0
 36 30  1  0  0  0  0
 36 27  1  0  0  0  0
 37 38  1  0  0  0  0
 37 39  1  0  0  0  0
M  END
>  <minimizedAffinity>
-6.619946

>  <minimizedRMSD>
0.578680336

$$$$
