
 OpenBabel03252500283D

 48 51  0  0  1  0  0  0  0  0999 V2000
   47.1270   33.0870   46.7280 O   0  0  0  0  0  0  0  0  0  0  0  0
   45.6790   32.7630   46.6220 P   0  0  1  0  0  0  0  0  0  0  0  0
   45.4640   31.5460   45.4640 O   0  0  0  0  0  0  0  0  0  0  0  0
   45.9730   31.8060   44.6690 H   0  0  0  0  0  0  0  0  0  0  0  0
   45.1940   32.2170   48.1020 O   0  0  0  0  0  0  0  0  0  0  0  0
   47.0400   30.7030   48.1290 C   0  0  2  0  0  0  0  0  0  0  0  0
   45.5810   30.9140   48.2800 C   0  0  2  0  0  0  0  0  0  0  0  0
   44.9400   29.9950   47.3640 C   0  0  0  0  0  0  0  0  0  0  0  0
   45.8270   28.9460   47.0860 O   0  0  0  0  0  0  0  0  0  0  0  0
   46.9080   29.1510   47.8720 C   0  0  0  0  0  0  0  0  0  0  0  0
   47.5000   30.9120   47.1480 H   0  0  0  0  0  0  0  0  0  0  0  0
   45.4210   30.7490   49.3850 H   0  0  0  0  0  0  0  0  0  0  0  0
   44.2380   29.3970   48.0510 H   0  0  0  0  0  0  0  0  0  0  0  0
   44.2120   30.2490   46.6260 H   0  0  0  0  0  0  0  0  0  0  0  0
   46.7530   28.7470   48.9150 H   0  0  0  0  0  0  0  0  0  0  0  0
   47.8560   28.7360   47.5390 H   0  0  0  0  0  0  0  0  0  0  0  0
   47.8030   30.8700   49.2210 O   0  0  0  0  0  0  0  0  0  0  0  0
   49.0100   31.3560   49.2480 C   0  0  0  0  0  0  0  0  0  0  0  0
   49.2720   32.3770   49.1190 H   0  0  0  0  0  0  0  0  0  0  0  0
   49.5220   30.8530   48.2560 H   0  0  0  0  0  0  0  0  0  0  0  0
   49.8190   30.6070   50.2940 C   0  0  0  0  0  0  0  0  0  0  0  0
   49.5320   30.9010   51.3200 H   0  0  0  0  0  0  0  0  0  0  0  0
   49.6550   29.5280   50.0950 H   0  0  0  0  0  0  0  0  0  0  0  0
   50.8890   30.8810   50.1000 H   0  0  0  0  0  0  0  0  0  0  0  0
   44.9080   34.2150   46.1640 O   0  0  0  0  0  0  0  0  0  0  0  0
   45.2130   36.5850   43.4890 C   0  0  0  0  0  0  0  0  0  0  0  0
   45.1200   35.7980   42.3170 C   0  0  0  0  0  0  0  0  0  0  0  0
   44.9480   34.4110   42.5110 C   0  0  0  0  0  0  0  0  0  0  0  0
   44.8820   33.9260   43.7670 N   0  0  0  0  0  0  0  0  0  0  0  0
   44.9750   34.7130   44.8500 C   0  0  0  0  0  0  0  0  0  0  0  0
   45.1390   36.0350   44.7080 N   0  0  0  0  0  0  0  0  0  0  0  0
   45.1730   36.2000   41.3200 H   0  0  0  0  0  0  0  0  0  0  0  0
   44.8680   33.7480   41.6690 H   0  0  0  0  0  0  0  0  0  0  0  0
   45.3810   37.9300   43.3440 O   0  0  0  0  0  0  0  0  0  0  0  0
   45.1590   37.9840   46.1860 H   0  0  0  0  0  0  0  0  0  0  0  0
   45.0730   38.8740   45.6540 N   0  0  0  0  0  0  0  0  0  0  0  0
   45.1740   38.8710   44.3120 C   0  0  0  0  0  0  0  0  0  0  0  0
   45.0200   40.1540   43.9130 N   0  0  0  0  0  0  0  0  0  0  0  0
   44.8300   40.9060   45.0180 C   0  0  0  0  0  0  0  0  0  0  0  0
   44.6190   42.2650   45.2390 C   0  0  0  0  0  0  0  0  0  0  0  0
   44.4530   42.7820   46.4680 N   0  0  0  0  0  0  0  0  0  0  0  0
   44.4910   41.9530   47.5440 C   0  0  0  0  0  0  0  0  0  0  0  0
   44.3710   42.2510   48.5780 H   0  0  0  0  0  0  0  0  0  0  0  0
   44.6950   40.6150   47.3690 N   0  0  0  0  0  0  0  0  0  0  0  0
   44.8600   40.1070   46.1430 C   0  0  0  0  0  0  0  0  0  0  0  0
   44.5760   43.1550   44.1180 N   0  0  0  0  0  0  0  0  0  0  0  0
   45.1950   43.5960   43.4040 H   0  0  0  0  0  0  0  0  0  0  0  0
   43.5670   43.4400   44.0070 H   0  0  0  0  0  0  0  0  0  0  0  0
  2  1  2  1  0  0  0
  2  5  1  0  0  0  0
  3  2  1  0  0  0  0
  4  3  1  0  0  0  0
  5  7  1  0  0  0  0
  6 11  1  6  0  0  0
  6  7  1  0  0  0  0
  6 17  1  0  0  0  0
  7 12  1  1  0  0  0
  8 13  1  0  0  0  0
  8  7  1  0  0  0  0
  9  8  1  0  0  0  0
  9 10  1  0  0  0  0
 10  6  1  0  0  0  0
 10 15  1  0  0  0  0
 14  8  1  0  0  0  0
 16 10  1  0  0  0  0
 17 18  1  0  0  0  0
 18 21  1  0  0  0  0
 19 18  1  0  0  0  0
 20 18  1  0  0  0  0
 21 22  1  0  0  0  0
 23 21  1  0  0  0  0
 24 21  1  0  0  0  0
 25  2  1  0  0  0  0
 26 31  1  0  0  0  0
 27 28  1  0  0  0  0
 27 26  2  0  0  0  0
 28 29  2  0  0  0  0
 29 30  1  0  0  0  0
 30 25  1  0  0  0  0
 31 30  2  0  0  0  0
 32 27  1  0  0  0  0
 33 28  1  0  0  0  0
 34 26  1  0  0  0  0
 34 37  1  0  0  0  0
 36 45  1  0  0  0  0
 36 35  1  0  0  0  0
 37 36  1  0  0  0  0
 38 37  2  0  0  0  0
 38 39  1  0  0  0  0
 39 40  2  0  0  0  0
 39 45  1  0  0  0  0
 40 41  1  0  0  0  0
 41 42  2  0  0  0  0
 42 43  1  0  0  0  0
 44 42  1  0  0  0  0
 45 44  2  0  0  0  0
 46 40  1  0  0  0  0
 47 46  1  0  0  0  0
 48 46  1  0  0  0  0
M  END
>  <minimizedAffinity>
-4.21887159

>  <minimizedRMSD>
0.980245292

$$$$
