
 OpenBabel03252503593D

 39 43  0  0  0  0  0  0  0  0999 V2000
   46.9300   35.0260   42.6790 C   0  0  0  0  0  0  0  0  0  0  0  0
   45.9270   35.9940   42.5380 C   0  0  0  0  0  0  0  0  0  0  0  0
   44.8550   35.9510   43.4260 C   0  0  0  0  0  0  0  0  0  0  0  0
   44.8440   34.9820   44.3710 N   0  0  0  0  0  0  0  0  0  0  0  0
   45.8270   34.0680   44.4760 C   0  0  0  0  0  0  0  0  0  0  0  0
   46.8760   34.0810   43.6340 N   0  0  0  0  0  0  0  0  0  0  0  0
   45.9630   36.7610   41.7690 H   0  0  0  0  0  0  0  0  0  0  0  0
   44.0670   36.6940   43.3330 H   0  0  0  0  0  0  0  0  0  0  0  0
   46.0700   31.7170   45.1110 C   0  0  0  0  0  0  0  0  0  0  0  0
   45.7950   33.0230   45.5100 C   0  0  0  0  0  0  0  0  0  0  0  0
   45.5090   33.2850   46.8290 C   0  0  0  0  0  0  0  0  0  0  0  0
   45.4970   32.2520   47.7430 C   0  0  0  0  0  0  0  0  0  0  0  0
   45.2620   32.1880   49.0540 N   0  0  0  0  0  0  0  0  0  0  0  0
   45.3680   30.9380   49.5140 C   0  0  0  0  0  0  0  0  0  0  0  0
   45.6890   30.1260   48.4630 C   0  0  0  0  0  0  0  0  0  0  0  0
   45.7700   30.9490   47.3540 C   0  0  0  0  0  0  0  0  0  0  0  0
   46.0590   30.6830   46.0220 C   0  0  0  0  0  0  0  0  0  0  0  0
   46.2990   31.4880   44.0710 H   0  0  0  0  0  0  0  0  0  0  0  0
   45.2960   34.3030   47.1330 H   0  0  0  0  0  0  0  0  0  0  0  0
   45.0260   33.0240   49.6330 H   0  0  0  0  0  0  0  0  0  0  0  0
   45.2220   30.6330   50.5530 H   0  0  0  0  0  0  0  0  0  0  0  0
   45.8490   29.0770   48.4720 H   0  0  0  0  0  0  0  0  0  0  0  0
   46.2760   29.6850   45.6760 H   0  0  0  0  0  0  0  0  0  0  0  0
   48.0100   35.1260   41.7290 C   0  0  0  0  0  0  0  0  0  0  0  0
   49.1160   35.7270   41.9450 O   0  0  0  0  0  0  0  0  0  0  0  0
   49.4460   35.4770   39.2650 H   0  0  0  0  0  0  0  0  0  0  0  0
   48.6680   34.8110   39.3390 N   0  0  0  0  0  0  0  0  0  0  0  0
   47.8800   34.5050   40.3940 C   0  0  0  0  0  0  0  0  0  0  0  0
   46.9920   33.5680   40.0120 N   0  0  0  0  0  0  0  0  0  0  0  0
   47.1890   33.2570   38.7260 C   0  0  0  0  0  0  0  0  0  0  0  0
   46.6570   32.4210   37.7650 C   0  0  0  0  0  0  0  0  0  0  0  0
   47.0870   32.3280   36.5060 N   0  0  0  0  0  0  0  0  0  0  0  0
   48.1300   33.1130   36.1190 C   0  0  0  0  0  0  0  0  0  0  0  0
   48.5870   33.1520   35.1420 H   0  0  0  0  0  0  0  0  0  0  0  0
   48.6680   33.9400   37.0320 N   0  0  0  0  0  0  0  0  0  0  0  0
   48.2460   34.0420   38.3010 C   0  0  0  0  0  0  0  0  0  0  0  0
   45.5680   31.5950   38.1590 N   0  0  0  0  0  0  0  0  0  0  0  0
   45.8960   30.8050   38.7890 H   0  0  0  0  0  0  0  0  0  0  0  0
   44.5530   31.3560   38.1440 H   0  0  0  0  0  0  0  0  0  0  0  0
  1  6  1  0  0  0  0
  2  1  2  0  0  0  0
  2  3  1  0  0  0  0
  3  4  2  0  0  0  0
  4  5  1  0  0  0  0
  5 10  1  0  0  0  0
  6  5  2  0  0  0  0
  7  2  1  0  0  0  0
  8  3  1  0  0  0  0
  9 10  2  0  0  0  0
  9 17  1  0  0  0  0
 10 11  1  0  0  0  0
 11 19  1  0  0  0  0
 11 12  2  0  0  0  0
 12 13  1  0  0  0  0
 13 14  1  0  0  0  0
 13 20  1  0  0  0  0
 14 21  1  0  0  0  0
 15 22  1  0  0  0  0
 15 14  2  0  0  0  0
 16 12  1  0  0  0  0
 16 15  1  0  0  0  0
 17 16  2  0  0  0  0
 18  9  1  0  0  0  0
 23 17  1  0  0  0  0
 24 25  2  0  0  0  0
 24  1  1  0  0  0  0
 26 27  1  0  0  0  0
 27 28  1  0  0  0  0
 28 24  1  0  0  0  0
 29 28  2  0  0  0  0
 30 29  1  0  0  0  0
 31 37  1  0  0  0  0
 31 30  2  0  0  0  0
 32 31  1  0  0  0  0
 33 32  2  0  0  0  0
 33 35  1  0  0  0  0
 34 33  1  0  0  0  0
 35 36  2  0  0  0  0
 36 30  1  0  0  0  0
 36 27  1  0  0  0  0
 37 38  1  0  0  0  0
 39 37  1  0  0  0  0
M  END
>  <minimizedAffinity>
-7.12122107

>  <minimizedRMSD>
1.21508372

$$$$
