
 OpenBabel03252503163D

 41 45  0  0  0  0  0  0  0  0999 V2000
   45.6130   34.0090   40.7820 C   0  0  0  0  0  0  0  0  0  0  0  0
   44.2460   33.8200   40.7230 C   0  0  0  0  0  0  0  0  0  0  0  0
   44.0250   33.1080   39.6060 N   0  0  0  0  0  0  0  0  0  0  0  0
   45.2230   32.8680   38.9980 C   0  0  0  0  0  0  0  0  0  0  0  0
   46.2030   33.4270   39.7270 N   0  0  0  0  0  0  0  0  0  0  0  0
   45.5140   32.1640   37.8000 N   0  0  0  0  0  0  0  0  0  0  0  0
   43.5380   34.1750   41.4310 H   0  0  0  0  0  0  0  0  0  0  0  0
   45.5990   31.1430   38.0410 H   0  0  0  0  0  0  0  0  0  0  0  0
   45.6050   32.6790   36.8890 H   0  0  0  0  0  0  0  0  0  0  0  0
   41.3020   33.7960   40.1930 H   0  0  0  0  0  0  0  0  0  0  0  0
   41.5550   33.0870   39.4900 N   0  0  0  0  0  0  0  0  0  0  0  0
   42.7670   32.6620   39.1100 C   0  0  0  0  0  0  0  0  0  0  0  0
   42.6030   31.7210   38.1590 N   0  0  0  0  0  0  0  0  0  0  0  0
   41.3040   31.5370   37.9230 C   0  0  0  0  0  0  0  0  0  0  0  0
   40.5410   30.7370   37.0910 C   0  0  0  0  0  0  0  0  0  0  0  0
   39.1970   30.7620   37.0630 N   0  0  0  0  0  0  0  0  0  0  0  0
   38.5670   31.6180   37.8990 C   0  0  0  0  0  0  0  0  0  0  0  0
   37.5130   31.8040   38.0450 H   0  0  0  0  0  0  0  0  0  0  0  0
   39.2920   32.4080   38.7200 N   0  0  0  0  0  0  0  0  0  0  0  0
   40.6360   32.3920   38.7560 C   0  0  0  0  0  0  0  0  0  0  0  0
   41.2290   29.8520   36.2280 N   0  0  0  0  0  0  0  0  0  0  0  0
   41.9900   29.3030   36.6470 H   0  0  0  0  0  0  0  0  0  0  0  0
   41.3490   29.4500   35.2820 H   0  0  0  0  0  0  0  0  0  0  0  0
   46.3540   34.7470   41.8440 C   0  0  0  0  0  0  0  0  0  0  0  0
   47.5210   35.2470   41.6910 O   0  0  0  0  0  0  0  0  0  0  0  0
   45.1460   36.1500   43.4530 C   0  0  0  0  0  0  0  0  0  0  0  0
   45.7780   34.9360   43.1260 C   0  0  0  0  0  0  0  0  0  0  0  0
   45.7810   33.9960   44.1360 C   0  0  0  0  0  0  0  0  0  0  0  0
   45.2230   34.2210   45.3350 N   0  0  0  0  0  0  0  0  0  0  0  0
   44.6260   35.4080   45.6010 C   0  0  0  0  0  0  0  0  0  0  0  0
   44.5900   36.3630   44.6600 N   0  0  0  0  0  0  0  0  0  0  0  0
   45.0920   36.9600   42.7200 H   0  0  0  0  0  0  0  0  0  0  0  0
   44.1930   35.5540   46.5610 H   0  0  0  0  0  0  0  0  0  0  0  0
   46.3980   32.7430   43.9000 C   0  0  0  0  0  0  0  0  0  0  0  0
   47.6800   32.2770   43.9270 C   0  0  0  0  0  0  0  0  0  0  0  0
   47.9820   31.0230   43.6570 C   0  0  0  0  0  0  0  0  0  0  0  0
   46.9540   30.2030   43.3460 C   0  0  0  0  0  0  0  0  0  0  0  0
   45.4830   31.2820   43.4480 S   0  0  0  0  0  0  0  0  0  0  0  0
   48.4260   33.0540   44.1960 H   0  0  0  0  0  0  0  0  0  0  0  0
   48.9810   30.6040   43.6630 H   0  0  0  0  0  0  0  0  0  0  0  0
   46.9860   29.0800   43.0790 H   0  0  0  0  0  0  0  0  0  0  0  0
  1 24  1  0  0  0  0
  2  1  2  0  0  0  0
  2  7  1  0  0  0  0
  3  2  1  0  0  0  0
  4  3  1  0  0  0  0
  4  5  2  0  0  0  0
  5  1  1  0  0  0  0
  6  8  1  0  0  0  0
  6  4  1  0  0  0  0
  9  6  1  0  0  0  0
 11 10  1  0  0  0  0
 12 11  1  0  0  0  0
 12  3  1  0  0  0  0
 13 12  2  0  0  0  0
 14 13  1  0  0  0  0
 14 20  1  0  0  0  0
 15 14  2  0  0  0  0
 16 15  1  0  0  0  0
 16 17  2  0  0  0  0
 17 18  1  0  0  0  0
 17 19  1  0  0  0  0
 19 20  2  0  0  0  0
 20 11  1  0  0  0  0
 21 22  1  0  0  0  0
 21 15  1  0  0  0  0
 23 21  1  0  0  0  0
 24 27  1  0  0  0  0
 25 24  2  0  0  0  0
 26 31  1  0  0  0  0
 27 26  2  0  0  0  0
 27 28  1  0  0  0  0
 28 29  2  0  0  0  0
 29 30  1  0  0  0  0
 30 33  1  0  0  0  0
 31 30  2  0  0  0  0
 32 26  1  0  0  0  0
 34 35  2  0  0  0  0
 34 28  1  0  0  0  0
 35 39  1  0  0  0  0
 36 40  1  0  0  0  0
 36 35  1  0  0  0  0
 37 38  1  0  0  0  0
 37 36  2  0  0  0  0
 38 34  1  0  0  0  0
 41 37  1  0  0  0  0
M  END
>  <minimizedAffinity>
-5.70492029

>  <minimizedRMSD>
0.865513921

$$$$
