
 OpenBabel03252504473D

 32 34  0  0  0  0  0  0  0  0999 V2000
   45.3590   31.2830   49.3500 O   0  0  0  0  0  0  0  0  0  0  0  0
   45.6430   31.3340   47.8530 P   0  0  1  0  0  0  0  0  0  0  0  0
   44.4210   30.4150   47.1180 O   0  0  0  0  0  0  0  0  0  0  0  0
   44.7410   29.4990   46.9050 H   0  0  0  0  0  0  0  0  0  0  0  0
   45.5990   32.9610   47.4070 O   0  0  0  0  0  0  0  0  0  0  0  0
   45.3940   34.8350   44.3310 C   0  0  0  0  0  0  0  0  0  0  0  0
   46.4290   34.2500   43.5790 C   0  0  0  0  0  0  0  0  0  0  0  0
   47.1600   33.2140   44.1910 C   0  0  0  0  0  0  0  0  0  0  0  0
   46.8220   32.8510   45.4530 N   0  0  0  0  0  0  0  0  0  0  0  0
   45.8190   33.4500   46.1230 C   0  0  0  0  0  0  0  0  0  0  0  0
   45.1020   34.4450   45.5610 N   0  0  0  0  0  0  0  0  0  0  0  0
   46.6720   34.5640   42.5740 H   0  0  0  0  0  0  0  0  0  0  0  0
   47.9630   32.7400   43.6430 H   0  0  0  0  0  0  0  0  0  0  0  0
   44.6210   35.9440   43.6660 C   0  0  0  0  0  0  0  0  0  0  0  0
   43.5670   35.9670   44.0190 H   0  0  0  0  0  0  0  0  0  0  0  0
   44.6890   35.8500   42.5560 H   0  0  0  0  0  0  0  0  0  0  0  0
   45.1270   36.8840   43.9740 H   0  0  0  0  0  0  0  0  0  0  0  0
   47.1180   30.6400   47.4560 O   0  0  0  0  0  0  0  0  0  0  0  0
   47.4850   30.9290   50.2780 H   0  0  0  0  0  0  0  0  0  0  0  0
   48.2730   30.5420   49.7480 N   0  0  0  0  0  0  0  0  0  0  0  0
   48.0800   30.4150   48.4280 C   0  0  0  0  0  0  0  0  0  0  0  0
   49.1980   29.8970   47.8870 N   0  0  0  0  0  0  0  0  0  0  0  0
   50.1400   29.6750   48.8260 C   0  0  0  0  0  0  0  0  0  0  0  0
   51.4260   29.1920   48.9340 C   0  0  0  0  0  0  0  0  0  0  0  0
   52.0710   29.1220   50.1200 N   0  0  0  0  0  0  0  0  0  0  0  0
   51.3940   29.5520   51.2090 C   0  0  0  0  0  0  0  0  0  0  0  0
   51.9400   29.4810   52.1330 H   0  0  0  0  0  0  0  0  0  0  0  0
   50.1210   30.0410   51.1730 N   0  0  0  0  0  0  0  0  0  0  0  0
   49.5200   30.0920   49.9740 C   0  0  0  0  0  0  0  0  0  0  0  0
   52.0360   28.7680   47.7170 N   0  0  0  0  0  0  0  0  0  0  0  0
   51.9380   28.0260   46.9950 H   0  0  0  0  0  0  0  0  0  0  0  0
   52.8310   29.4330   47.5170 H   0  0  0  0  0  0  0  0  0  0  0  0
  2  1  2  1  0  0  0
  3  2  1  0  0  0  0
  4  3  1  0  0  0  0
  5  2  1  0  0  0  0
  6 11  1  0  0  0  0
  7  8  1  0  0  0  0
  7  6  2  0  0  0  0
  8  9  2  0  0  0  0
  9 10  1  0  0  0  0
 10  5  1  0  0  0  0
 11 10  2  0  0  0  0
 12  7  1  0  0  0  0
 13  8  1  0  0  0  0
 14 17  1  0  0  0  0
 14 15  1  0  0  0  0
 14  6  1  0  0  0  0
 16 14  1  0  0  0  0
 18  2  1  0  0  0  0
 18 21  1  0  0  0  0
 20 29  1  0  0  0  0
 20 19  1  0  0  0  0
 21 20  1  0  0  0  0
 22 21  2  0  0  0  0
 22 23  1  0  0  0  0
 23 24  2  0  0  0  0
 23 29  1  0  0  0  0
 24 25  1  0  0  0  0
 25 26  2  0  0  0  0
 26 27  1  0  0  0  0
 28 26  1  0  0  0  0
 29 28  2  0  0  0  0
 30 24  1  0  0  0  0
 31 30  1  0  0  0  0
 32 30  1  0  0  0  0
M  END
>  <minimizedAffinity>
-5.66723251

>  <minimizedRMSD>
0.460333407

$$$$
