
     RDKit          3D

 34 36  0  0  0  0  0  0  0  0999 V2000
   48.0913   32.9119   41.9138 O   0  0  0  0  0  0  0  0  0  0  0  0
   47.1974   34.0390   41.3315 P   0  0  2  0  0  0  0  0  0  0  0  0
   45.5961   33.8277   41.9160 O   0  0  0  0  0  0  0  0  0  0  0  0
   44.3688   35.9147   44.6381 C   0  0  0  0  0  0  0  0  0  0  0  0
   44.6681   35.4652   43.3293 C   0  0  0  0  0  0  0  0  0  0  0  0
   45.3179   34.2324   43.2048 C   0  0  0  0  0  0  0  0  0  0  0  0
   45.6197   33.5467   44.3233 N   0  0  0  0  0  0  0  0  0  0  0  0
   45.3201   34.0034   45.5602 C   0  0  0  0  0  0  0  0  0  0  0  0
   44.6986   35.1795   45.7260 N   0  0  0  0  0  0  0  0  0  0  0  0
   47.1758   33.9138   39.6800 O   0  0  0  0  0  0  0  0  0  0  0  0
   46.5576   33.0129   38.8753 C   0  0  0  0  0  0  0  0  0  0  0  0
   45.9024   33.5008   37.7725 O   0  0  0  0  0  0  0  0  0  0  0  0
   47.7861   35.4748   41.9116 O   0  0  0  0  0  0  0  0  0  0  0  0
   49.0463   35.7734   41.4035 C   0  0  0  0  0  0  0  0  0  0  0  0
   49.4536   37.0552   41.7279 F   0  0  0  0  0  0  0  0  0  0  0  0
   49.9483   34.8268   41.7768 F   0  0  0  0  0  0  0  0  0  0  0  0
   48.9177   35.7428   40.0176 F   0  0  0  0  0  0  0  0  0  0  0  0
   43.8649   36.8724   44.7236 H   0  0  0  0  0  0  0  0  0  0  0  0
   44.3743   36.1060   42.5037 H   0  0  0  0  0  0  0  0  0  0  0  0
   45.6148   33.3591   46.3915 H   0  0  0  0  0  0  0  0  0  0  0  0
   45.0957   31.5679   36.8568 H   0  0  0  0  0  0  0  0  0  0  0  0
   45.5491   30.9981   37.6412 N   0  0  0  0  0  0  0  0  0  0  0  0
   46.2694   31.5764   38.6432 C   0  0  0  0  0  0  0  0  0  0  0  0
   46.6146   30.5212   39.3423 N   0  0  0  0  0  0  0  0  0  0  0  0
   46.1224   29.4109   38.7758 C   0  0  0  0  0  0  0  0  0  0  0  0
   46.3575   28.1811   39.3375 C   0  0  0  0  0  0  0  0  0  0  0  0
   47.0937   27.8652   40.5111 N   0  0  0  0  0  0  0  0  0  0  0  0
   48.0430   27.5211   40.2675 H   0  0  0  0  0  0  0  0  0  0  0  0
   45.7822   27.1669   38.6296 N   0  0  0  0  0  0  0  0  0  0  0  0
   45.0683   27.3677   37.5092 C   0  0  0  0  0  0  0  0  0  0  0  0
   44.6230   26.5376   36.9686 H   0  0  0  0  0  0  0  0  0  0  0  0
   44.8988   28.6416   37.0401 N   0  0  0  0  0  0  0  0  0  0  0  0
   45.4103   29.6905   37.6452 C   0  0  0  0  0  0  0  0  0  0  0  0
   46.6789   27.9847   41.4777 H   0  0  0  0  0  0  0  0  0  0  0  0
  2  1  2  0
  2  3  1  1
  2 13  1  0
  3  6  1  0
  4  9  2  0
  5  4  1  0
  6  5  2  0
  6  7  1  0
  7  8  2  0
  8  9  1  0
 10  2  1  0
 11 10  1  0
 12 11  2  0
 14 16  1  0
 14 15  1  0
 14 13  1  0
 17 14  1  0
  4 18  1  0
  5 19  1  0
  8 20  1  0
 21 22  1  0
 22 23  1  0
 23 24  2  0
 24 25  1  0
 25 26  2  0
 26 27  1  0
 27 28  1  0
 26 29  1  0
 29 30  2  0
 30 31  1  0
 30 32  1  0
 32 33  2  0
 33 22  1  0
 33 25  1  0
 27 34  1  0
 11 23  1  0
M  ISO  6  18  14  19  14  20  14  21   9  28   5  31  16
M  END
>  <DihAtoms>  (1) 
9,10,22,21

>  <DihDeg>  (1) 
-0.05768188170349848

$$$$
