REMARK  Name = 
REMARK  5 active torsions:
REMARK  status: ('A' for Active; 'I' for Inactive)
REMARK    1  A    between atoms: C_1  and  C_15
REMARK    2  A    between atoms: C_9  and  O_18
REMARK    3  A    between atoms: C_12  and  N_17
REMARK    4  A    between atoms: O_18  and  C_31
REMARK    5  A    between atoms: C_34  and  N_35
REMARK                            x       y       z     vdW  Elec       q    Type
REMARK                         _______ _______ _______ _____ _____    ______ ____
ROOT
ATOM      1  C   UNL     1      46.022  32.702  46.699  0.00  0.00    +0.000 A 
ATOM      2  C   UNL     1      45.537  32.942  48.010  0.00  0.00    +0.000 A 
ATOM      3  C   UNL     1      45.761  32.097  49.065  0.00  0.00    +0.000 A 
ATOM      4  C   UNL     1      46.475  30.963  48.898  0.00  0.00    +0.000 A 
ATOM      5  C   UNL     1      46.970  30.679  47.642  0.00  0.00    +0.000 A 
ATOM      6  C   UNL     1      47.693  29.524  47.510  0.00  0.00    +0.000 A 
ATOM      7  C   UNL     1      48.216  29.182  46.281  0.00  0.00    +0.000 A 
ATOM      8  C   UNL     1      47.968  30.055  45.226  0.00  0.00    +0.000 A 
ATOM      9  C   UNL     1      47.254  31.169  45.426  0.00  0.00    +0.000 A 
ATOM     10  C   UNL     1      46.737  31.532  46.598  0.00  0.00    +0.000 A 
ATOM     11  H   UNL     1      44.962  33.837  48.186  0.00  0.00    +0.000 HD
ATOM     12  H   UNL     1      45.355  32.354  50.032  0.00  0.00    +0.000 HD
ATOM     13  H   UNL     1      46.634  30.324  49.742  0.00  0.00    +0.000 HD
ATOM     14  H   UNL     1      47.840  28.885  48.409  0.00  0.00    +0.000 HD
ATOM     15  H   UNL     1      48.776  28.227  46.325  0.00  0.00    +0.000 HD
ATOM     16  H   UNL     1      48.441  29.529  44.415  0.00  0.00    +0.000 HD
ENDROOT
BRANCH   1  21
ATOM     17  C   UNL     1      44.455  35.511  45.097  0.00  0.00    +0.000 A 
ATOM     18  C   UNL     1      45.175  35.613  43.867  0.00  0.00    +0.000 A 
ATOM     19  C   UNL     1      46.215  34.686  43.580  0.00  0.00    +0.000 A 
ATOM     20  N   UNL     1      46.451  33.753  44.517  0.00  0.00    +0.000 NA
ATOM     21  C   UNL     1      45.820  33.641  45.626  0.00  0.00    +0.000 A 
ATOM     22  N   UNL     1      44.819  34.534  45.900  0.00  0.00    +0.000 NA
ATOM     23  H   UNL     1      43.668  36.223  45.300  0.00  0.00    +0.000 HD
ATOM     24  H   UNL     1      46.711  34.821  42.644  0.00  0.00    +0.000 HD
BRANCH  18  25
ATOM     25  N   UNL     1      44.774  36.674  43.005  0.00  0.00    +0.000 N 
ATOM     26  H   UNL     1      44.788  36.323  42.002  0.00  0.00    +0.000 HD
ATOM     27  H   UNL     1      44.539  37.590  43.453  0.00  0.00    +0.000 HD
ENDBRANCH  18  25
ENDBRANCH   1  21
BRANCH   9  28
ATOM     28  O   UNL     1      47.183  31.802  44.228  0.00  0.00    +0.000 OA
BRANCH  28  31
ATOM     29  H   UNL     1      47.537  32.198  41.237  0.00  0.00    +0.000 HD
ATOM     30  N   UNL     1      48.178  31.664  41.835  0.00  0.00    +0.000 N 
ATOM     31  C   UNL     1      47.939  31.535  43.113  0.00  0.00    +0.000 A 
ATOM     32  N   UNL     1      48.976  30.718  43.468  0.00  0.00    +0.000 NA
ATOM     33  C   UNL     1      49.759  30.405  42.446  0.00  0.00    +0.000 A 
ATOM     34  C   UNL     1      50.913  29.629  42.282  0.00  0.00    +0.000 A 
ATOM     35  N   UNL     1      51.459  29.537  41.035  0.00  0.00    +0.000 NA
ATOM     36  C   UNL     1      50.893  30.185  39.978  0.00  0.00    +0.000 A 
ATOM     37  H   UNL     1      51.403  30.052  39.013  0.00  0.00    +0.000 HD
ATOM     38  N   UNL     1      49.770  30.946  40.113  0.00  0.00    +0.000 NA
ATOM     39  C   UNL     1      49.239  31.032  41.342  0.00  0.00    +0.000 A 
BRANCH  34  40
ATOM     40  N   UNL     1      51.469  28.970  43.418  0.00  0.00    +0.000 N 
ATOM     41  H   UNL     1      51.872  29.684  44.092  0.00  0.00    +0.000 HD
ATOM     42  H   UNL     1      51.546  27.964  43.688  0.00  0.00    +0.000 HD
ENDBRANCH  34  40
ENDBRANCH  28  31
ENDBRANCH   9  28
TORSDOF 5
