
 OpenBabel03242519363D

 29 31  0  0  0  0  0  0  0  0999 V2000
   36.0830   30.2790   38.5490 O   0  0  0  0  0  0  0  0  0  0  0  0
   38.4840   30.4420   37.0260 H   0  0  0  0  0  0  0  0  0  0  0  0
   38.3930   31.0830   37.8430 N   0  0  0  0  0  0  0  0  0  0  0  0
   37.2530   31.0220   38.5840 C   0  0  0  0  0  0  0  0  0  0  0  0
   37.4000   31.9520   39.5680 N   0  0  0  0  0  0  0  0  0  0  0  0
   38.5920   32.5580   39.4280 C   0  0  0  0  0  0  0  0  0  0  0  0
   39.2900   33.5430   40.0830 C   0  0  0  0  0  0  0  0  0  0  0  0
   40.5100   33.9500   39.6890 N   0  0  0  0  0  0  0  0  0  0  0  0
   41.0870   33.3870   38.6180 C   0  0  0  0  0  0  0  0  0  0  0  0
   42.0690   33.6740   38.2530 H   0  0  0  0  0  0  0  0  0  0  0  0
   40.4120   32.4240   37.9720 N   0  0  0  0  0  0  0  0  0  0  0  0
   39.2080   32.0060   38.3420 C   0  0  0  0  0  0  0  0  0  0  0  0
   38.7040   34.1610   41.2240 N   0  0  0  0  0  0  0  0  0  0  0  0
   38.2260   35.0170   40.8340 H   0  0  0  0  0  0  0  0  0  0  0  0
   38.5400   34.1440   42.2480 H   0  0  0  0  0  0  0  0  0  0  0  0
   33.9610   29.2080   39.6370 O   0  0  0  0  0  0  0  0  0  0  0  0
   35.4000   29.5790   39.9250 P   0  0  2  0  0  0  0  0  0  0  0  0
   35.5100   30.6080   41.2490 O   0  0  0  0  0  0  0  0  0  0  0  0
   36.1040   31.3950   41.0790 H   0  0  0  0  0  0  0  0  0  0  0  0
   36.2920   28.1600   40.2790 O   0  0  0  0  0  0  0  0  0  0  0  0
   38.1320   27.1260   43.2680 C   0  0  0  0  0  0  0  0  0  0  0  0
   37.2070   27.1240   42.2020 C   0  0  0  0  0  0  0  0  0  0  0  0
   37.2110   28.1870   41.3140 C   0  0  0  0  0  0  0  0  0  0  0  0
   38.1140   29.1840   41.5160 N   0  0  0  0  0  0  0  0  0  0  0  0
   38.9880   29.1730   42.5340 C   0  0  0  0  0  0  0  0  0  0  0  0
   39.0000   28.1560   43.4020 N   0  0  0  0  0  0  0  0  0  0  0  0
   38.1040   26.2790   43.9470 H   0  0  0  0  0  0  0  0  0  0  0  0
   36.5140   26.2950   42.1020 H   0  0  0  0  0  0  0  0  0  0  0  0
   39.6870   30.0180   42.6310 H   0  0  0  0  0  0  0  0  0  0  0  0
  1  4  1  0  0  0  0
  1 17  1  0  0  0  0
  2  3  1  0  0  0  0
  3 12  1  0  0  0  0
  3  4  1  0  0  0  0
  4  5  2  0  0  0  0
  6  5  1  0  0  0  0
  6  7  1  0  0  0  0
  7 13  1  0  0  0  0
  8  7  2  0  0  0  0
  9  8  1  0  0  0  0
 10  9  1  0  0  0  0
 11 12  1  0  0  0  0
 11  9  2  0  0  0  0
 12  6  2  0  0  0  0
 13 15  1  0  0  0  0
 14 13  1  0  0  0  0
 17 16  2  6  0  0  0
 17 20  1  0  0  0  0
 17 18  1  0  0  0  0
 19 18  1  0  0  0  0
 20 23  1  0  0  0  0
 21 26  1  0  0  0  0
 21 27  1  0  0  0  0
 22 21  2  0  0  0  0
 23 24  2  0  0  0  0
 23 22  1  0  0  0  0
 24 25  1  0  0  0  0
 25 29  1  0  0  0  0
 25 26  2  0  0  0  0
 28 22  1  0  0  0  0
M  END
>  <minimizedAffinity>
-5.63747025

$$$$

 OpenBabel03242519363D

 29 31  0  0  0  0  0  0  0  0999 V2000
   36.9520   29.5630   39.4020 O   0  0  0  0  0  0  0  0  0  0  0  0
   38.1970   30.9210   41.5740 H   0  0  0  0  0  0  0  0  0  0  0  0
   38.5530   31.1280   40.6160 N   0  0  0  0  0  0  0  0  0  0  0  0
   37.9720   30.4900   39.5640 C   0  0  0  0  0  0  0  0  0  0  0  0
   38.6200   30.9390   38.4540 N   0  0  0  0  0  0  0  0  0  0  0  0
   39.5640   31.8230   38.8210 C   0  0  0  0  0  0  0  0  0  0  0  0
   40.5090   32.5910   38.1860 C   0  0  0  0  0  0  0  0  0  0  0  0
   41.3420   33.4100   38.8510 N   0  0  0  0  0  0  0  0  0  0  0  0
   41.2670   33.4960   40.1870 C   0  0  0  0  0  0  0  0  0  0  0  0
   41.9140   34.1400   40.7770 H   0  0  0  0  0  0  0  0  0  0  0  0
   40.3480   32.7490   40.8150 N   0  0  0  0  0  0  0  0  0  0  0  0
   39.5140   31.9340   40.1800 C   0  0  0  0  0  0  0  0  0  0  0  0
   40.6140   32.5210   36.7670 N   0  0  0  0  0  0  0  0  0  0  0  0
   41.3620   31.7950   36.6010 H   0  0  0  0  0  0  0  0  0  0  0  0
   40.2880   32.8580   35.8430 H   0  0  0  0  0  0  0  0  0  0  0  0
   34.3530   29.3590   39.5770 O   0  0  0  0  0  0  0  0  0  0  0  0
   35.6050   29.4950   40.4160 P   0  0  2  0  0  0  0  0  0  0  0  0
   35.5260   30.8440   41.4140 O   0  0  0  0  0  0  0  0  0  0  0  0
   36.3610   31.3950   41.3870 H   0  0  0  0  0  0  0  0  0  0  0  0
   35.7770   28.1090   41.4100 O   0  0  0  0  0  0  0  0  0  0  0  0
   38.6630   26.3620   42.8250 C   0  0  0  0  0  0  0  0  0  0  0  0
   37.4440   26.6010   42.1560 C   0  0  0  0  0  0  0  0  0  0  0  0
   36.9760   27.9020   42.0710 C   0  0  0  0  0  0  0  0  0  0  0  0
   37.7210   28.8880   42.6400 N   0  0  0  0  0  0  0  0  0  0  0  0
   38.8780   28.6450   43.2730 C   0  0  0  0  0  0  0  0  0  0  0  0
   39.3480   27.3970   43.3660 N   0  0  0  0  0  0  0  0  0  0  0  0
   39.0030   25.3310   42.8760 H   0  0  0  0  0  0  0  0  0  0  0  0
   36.9000   25.7660   41.7250 H   0  0  0  0  0  0  0  0  0  0  0  0
   39.4230   29.4960   43.7080 H   0  0  0  0  0  0  0  0  0  0  0  0
  1  4  1  0  0  0  0
  1 17  1  0  0  0  0
  3  2  1  0  0  0  0
  4  3  1  0  0  0  0
  5  6  1  0  0  0  0
  5  4  2  0  0  0  0
  6 12  1  0  0  0  0
  7  6  2  0  0  0  0
  7  8  1  0  0  0  0
  8  9  2  0  0  0  0
  9 10  1  0  0  0  0
  9 11  1  0  0  0  0
 12  3  1  0  0  0  0
 12 11  2  0  0  0  0
 13  7  1  0  0  0  0
 14 13  1  0  0  0  0
 15 13  1  0  0  0  0
 17 16  2  6  0  0  0
 17 20  1  0  0  0  0
 17 18  1  0  0  0  0
 19 18  1  0  0  0  0
 20 23  1  0  0  0  0
 21 27  1  0  0  0  0
 21 26  1  0  0  0  0
 22 21  2  0  0  0  0
 23 22  1  0  0  0  0
 23 24  2  0  0  0  0
 24 25  1  0  0  0  0
 25 26  2  0  0  0  0
 25 29  1  0  0  0  0
 28 22  1  0  0  0  0
M  END
>  <minimizedAffinity>
-5.62177753

$$$$

 OpenBabel03242519363D

 29 31  0  0  0  0  0  0  0  0999 V2000
   37.9820   31.6450   39.7870 O   0  0  0  0  0  0  0  0  0  0  0  0
   39.3690   29.2740   39.0340 H   0  0  0  0  0  0  0  0  0  0  0  0
   39.7640   30.1810   38.7070 N   0  0  0  0  0  0  0  0  0  0  0  0
   39.1160   31.3260   39.0560 C   0  0  0  0  0  0  0  0  0  0  0  0
   39.8370   32.3420   38.5040 N   0  0  0  0  0  0  0  0  0  0  0  0
   40.8880   31.8290   37.8430 C   0  0  0  0  0  0  0  0  0  0  0  0
   41.9400   32.3230   37.1080 C   0  0  0  0  0  0  0  0  0  0  0  0
   42.8680   31.5280   36.5480 N   0  0  0  0  0  0  0  0  0  0  0  0
   42.7850   30.1980   36.6980 C   0  0  0  0  0  0  0  0  0  0  0  0
   43.5050   29.5070   36.2690 H   0  0  0  0  0  0  0  0  0  0  0  0
   41.7610   29.7070   37.4130 N   0  0  0  0  0  0  0  0  0  0  0  0
   40.8340   30.4720   37.9750 C   0  0  0  0  0  0  0  0  0  0  0  0
   42.0550   33.7310   36.9310 N   0  0  0  0  0  0  0  0  0  0  0  0
   41.5690   33.9140   36.0110 H   0  0  0  0  0  0  0  0  0  0  0  0
   42.3960   34.6390   37.2960 H   0  0  0  0  0  0  0  0  0  0  0  0
   37.0670   29.2170   40.0990 O   0  0  0  0  0  0  0  0  0  0  0  0
   37.2110   30.5460   40.8090 P   0  0  2  0  0  0  0  0  0  0  0  0
   35.7190   31.1290   41.3160 O   0  0  0  0  0  0  0  0  0  0  0  0
   35.5830   32.0940   41.0860 H   0  0  0  0  0  0  0  0  0  0  0  0
   38.2010   30.3460   42.1940 O   0  0  0  0  0  0  0  0  0  0  0  0
   39.2020   27.0450   43.4130 C   0  0  0  0  0  0  0  0  0  0  0  0
   38.4770   28.2440   43.2500 C   0  0  0  0  0  0  0  0  0  0  0  0
   38.9310   29.1770   42.3330 C   0  0  0  0  0  0  0  0  0  0  0  0
   40.0600   28.8860   41.6310 N   0  0  0  0  0  0  0  0  0  0  0  0
   40.7390   27.7420   41.7960 C   0  0  0  0  0  0  0  0  0  0  0  0
   40.3170   26.8270   42.6770 N   0  0  0  0  0  0  0  0  0  0  0  0
   38.8210   26.3330   44.1400 H   0  0  0  0  0  0  0  0  0  0  0  0
   37.5840   28.4110   43.8440 H   0  0  0  0  0  0  0  0  0  0  0  0
   41.6440   27.5790   41.1910 H   0  0  0  0  0  0  0  0  0  0  0  0
  1 17  1  0  0  0  0
  3  2  1  0  0  0  0
  3  4  1  0  0  0  0
  4  1  1  0  0  0  0
  5  4  2  0  0  0  0
  6 12  1  0  0  0  0
  6  5  1  0  0  0  0
  7  6  2  0  0  0  0
  8  9  2  0  0  0  0
  8  7  1  0  0  0  0
  9 11  1  0  0  0  0
 10  9  1  0  0  0  0
 11 12  2  0  0  0  0
 12  3  1  0  0  0  0
 13  7  1  0  0  0  0
 13 15  1  0  0  0  0
 14 13  1  0  0  0  0
 17 16  2  6  0  0  0
 17 18  1  0  0  0  0
 17 20  1  0  0  0  0
 19 18  1  0  0  0  0
 20 23  1  0  0  0  0
 21 27  1  0  0  0  0
 22 21  1  0  0  0  0
 22 28  1  0  0  0  0
 23 22  2  0  0  0  0
 24 25  2  0  0  0  0
 24 23  1  0  0  0  0
 25 26  1  0  0  0  0
 26 21  2  0  0  0  0
 29 25  1  0  0  0  0
M  END
>  <minimizedAffinity>
-5.07786512

$$$$

 OpenBabel03242519363D

 29 31  0  0  0  0  0  0  0  0999 V2000
   39.4910   30.4380   38.8130 O   0  0  0  0  0  0  0  0  0  0  0  0
   36.8380   29.8210   39.6490 H   0  0  0  0  0  0  0  0  0  0  0  0
   37.6180   29.4900   40.2560 N   0  0  0  0  0  0  0  0  0  0  0  0
   38.8930   29.7740   39.8750 C   0  0  0  0  0  0  0  0  0  0  0  0
   39.6960   29.2330   40.8340 N   0  0  0  0  0  0  0  0  0  0  0  0
   38.9320   28.6410   41.7670 C   0  0  0  0  0  0  0  0  0  0  0  0
   39.1440   27.9480   42.9340 C   0  0  0  0  0  0  0  0  0  0  0  0
   38.1370   27.4590   43.6780 N   0  0  0  0  0  0  0  0  0  0  0  0
   36.8680   27.6390   43.2850 C   0  0  0  0  0  0  0  0  0  0  0  0
   36.0150   27.2660   43.8450 H   0  0  0  0  0  0  0  0  0  0  0  0
   36.6520   28.3130   42.1460 N   0  0  0  0  0  0  0  0  0  0  0  0
   37.6290   28.8070   41.3950 C   0  0  0  0  0  0  0  0  0  0  0  0
   40.4810   27.7400   43.3790 N   0  0  0  0  0  0  0  0  0  0  0  0
   40.7350   26.7920   42.9880 H   0  0  0  0  0  0  0  0  0  0  0  0
   41.3000   28.0980   43.9030 H   0  0  0  0  0  0  0  0  0  0  0  0
   37.4730   32.0540   38.4300 O   0  0  0  0  0  0  0  0  0  0  0  0
   38.9740   31.9490   38.2700 P   0  0  2  0  0  0  0  0  0  0  0  0
   39.4360   32.2130   36.6760 O   0  0  0  0  0  0  0  0  0  0  0  0
   40.0840   31.5270   36.3420 H   0  0  0  0  0  0  0  0  0  0  0  0
   39.7340   33.1360   39.2450 O   0  0  0  0  0  0  0  0  0  0  0  0
   43.2540   33.9140   39.8710 C   0  0  0  0  0  0  0  0  0  0  0  0
   41.9000   33.5850   40.0920 C   0  0  0  0  0  0  0  0  0  0  0  0
   41.0580   33.4590   39.0000 C   0  0  0  0  0  0  0  0  0  0  0  0
   41.5840   33.6590   37.7610 N   0  0  0  0  0  0  0  0  0  0  0  0
   42.8740   33.9720   37.5650 C   0  0  0  0  0  0  0  0  0  0  0  0
   43.7030   34.0980   38.6070 N   0  0  0  0  0  0  0  0  0  0  0  0
   43.8890   34.0070   40.7470 H   0  0  0  0  0  0  0  0  0  0  0  0
   41.5470   33.4400   41.1080 H   0  0  0  0  0  0  0  0  0  0  0  0
   43.2250   34.1180   36.5320 H   0  0  0  0  0  0  0  0  0  0  0  0
  1  4  1  0  0  0  0
  2  3  1  0  0  0  0
  3 12  1  0  0  0  0
  4  3  1  0  0  0  0
  4  5  2  0  0  0  0
  5  6  1  0  0  0  0
  6  7  1  0  0  0  0
  7 13  1  0  0  0  0
  7  8  2  0  0  0  0
  9  8  1  0  0  0  0
  9 10  1  0  0  0  0
 11  9  2  0  0  0  0
 12  6  2  0  0  0  0
 12 11  1  0  0  0  0
 13 15  1  0  0  0  0
 14 13  1  0  0  0  0
 17 16  2  1  0  0  0
 17  1  1  0  0  0  0
 17 20  1  0  0  0  0
 18 17  1  0  0  0  0
 19 18  1  0  0  0  0
 21 22  1  0  0  0  0
 21 27  1  0  0  0  0
 22 28  1  0  0  0  0
 23 20  1  0  0  0  0
 23 22  2  0  0  0  0
 24 23  1  0  0  0  0
 25 24  2  0  0  0  0
 25 26  1  0  0  0  0
 26 21  2  0  0  0  0
 29 25  1  0  0  0  0
M  END
>  <minimizedAffinity>
-4.99796391

$$$$

 OpenBabel03242519363D

 29 31  0  0  0  0  0  0  0  0999 V2000
   37.0110   29.8560   41.8370 O   0  0  0  0  0  0  0  0  0  0  0  0
   39.4130   29.2220   43.2300 H   0  0  0  0  0  0  0  0  0  0  0  0
   38.8480   28.4250   42.8670 N   0  0  0  0  0  0  0  0  0  0  0  0
   37.6960   28.7060   42.1990 C   0  0  0  0  0  0  0  0  0  0  0  0
   37.1690   27.5010   41.8440 N   0  0  0  0  0  0  0  0  0  0  0  0
   37.9770   26.5200   42.2830 C   0  0  0  0  0  0  0  0  0  0  0  0
   37.9890   25.1470   42.2400 C   0  0  0  0  0  0  0  0  0  0  0  0
   38.9710   24.4140   42.7920 N   0  0  0  0  0  0  0  0  0  0  0  0
   39.9900   25.0250   43.4150 C   0  0  0  0  0  0  0  0  0  0  0  0
   40.8110   24.4850   43.8790 H   0  0  0  0  0  0  0  0  0  0  0  0
   39.9860   26.3650   43.4620 N   0  0  0  0  0  0  0  0  0  0  0  0
   39.0270   27.1100   42.9240 C   0  0  0  0  0  0  0  0  0  0  0  0
   36.9210   24.4680   41.5860 N   0  0  0  0  0  0  0  0  0  0  0  0
   36.2400   24.2530   42.3640 H   0  0  0  0  0  0  0  0  0  0  0  0
   36.5220   24.1010   40.7030 H   0  0  0  0  0  0  0  0  0  0  0  0
   38.9860   31.5260   41.4610 O   0  0  0  0  0  0  0  0  0  0  0  0
   37.6820   31.0530   40.8550 P   0  0  2  0  0  0  0  0  0  0  0  0
   36.6130   32.3310   40.6370 O   0  0  0  0  0  0  0  0  0  0  0  0
   35.6920   32.1250   40.9680 H   0  0  0  0  0  0  0  0  0  0  0  0
   37.9900   30.3510   39.3220 O   0  0  0  0  0  0  0  0  0  0  0  0
   40.5340   32.1200   37.3770 C   0  0  0  0  0  0  0  0  0  0  0  0
   39.3170   31.8240   38.0280 C   0  0  0  0  0  0  0  0  0  0  0  0
   39.1950   30.6160   38.6930 C   0  0  0  0  0  0  0  0  0  0  0  0
   40.2610   29.7710   38.6860 N   0  0  0  0  0  0  0  0  0  0  0  0
   41.4120   30.0660   38.0630 C   0  0  0  0  0  0  0  0  0  0  0  0
   41.5510   31.2270   37.4150 N   0  0  0  0  0  0  0  0  0  0  0  0
   40.5990   33.0750   36.8630 H   0  0  0  0  0  0  0  0  0  0  0  0
   38.5060   32.5450   37.9920 H   0  0  0  0  0  0  0  0  0  0  0  0
   42.2300   29.3300   38.1020 H   0  0  0  0  0  0  0  0  0  0  0  0
  1  4  1  0  0  0  0
  3 12  1  0  0  0  0
  3  2  1  0  0  0  0
  4  3  1  0  0  0  0
  5  4  2  0  0  0  0
  5  6  1  0  0  0  0
  6 12  1  0  0  0  0
  7  6  2  0  0  0  0
  7  8  1  0  0  0  0
  8  9  2  0  0  0  0
  9 11  1  0  0  0  0
  9 10  1  0  0  0  0
 12 11  2  0  0  0  0
 13  7  1  0  0  0  0
 13 14  1  0  0  0  0
 15 13  1  0  0  0  0
 17 16  2  1  0  0  0
 17  1  1  0  0  0  0
 18 17  1  0  0  0  0
 18 19  1  0  0  0  0
 20 17  1  0  0  0  0
 21 26  2  0  0  0  0
 21 22  1  0  0  0  0
 22 23  2  0  0  0  0
 23 20  1  0  0  0  0
 24 23  1  0  0  0  0
 25 29  1  0  0  0  0
 25 24  2  0  0  0  0
 26 25  1  0  0  0  0
 27 21  1  0  0  0  0
 28 22  1  0  0  0  0
M  END
>  <minimizedAffinity>
-4.9067688

$$$$

 OpenBabel03242519363D

 29 31  0  0  0  0  0  0  0  0999 V2000
   36.3660   31.7100   40.2920 O   0  0  0  0  0  0  0  0  0  0  0  0
   36.5210   30.4520   42.8430 H   0  0  0  0  0  0  0  0  0  0  0  0
   36.6200   29.8420   42.0040 N   0  0  0  0  0  0  0  0  0  0  0  0
   36.5490   30.4230   40.7750 C   0  0  0  0  0  0  0  0  0  0  0  0
   36.7070   29.4120   39.8760 N   0  0  0  0  0  0  0  0  0  0  0  0
   36.8700   28.2540   40.5390 C   0  0  0  0  0  0  0  0  0  0  0  0
   37.0660   26.9350   40.2060 C   0  0  0  0  0  0  0  0  0  0  0  0
   37.1980   25.9680   41.1300 N   0  0  0  0  0  0  0  0  0  0  0  0
   37.1370   26.2770   42.4330 C   0  0  0  0  0  0  0  0  0  0  0  0
   37.2360   25.5380   43.2230 H   0  0  0  0  0  0  0  0  0  0  0  0
   36.9450   27.5610   42.7670 N   0  0  0  0  0  0  0  0  0  0  0  0
   36.8130   28.5340   41.8740 C   0  0  0  0  0  0  0  0  0  0  0  0
   37.1340   26.5750   38.8300 N   0  0  0  0  0  0  0  0  0  0  0  0
   36.1450   26.2960   38.5900 H   0  0  0  0  0  0  0  0  0  0  0  0
   37.7110   26.4690   37.9760 H   0  0  0  0  0  0  0  0  0  0  0  0
   37.4890   34.0390   39.9080 O   0  0  0  0  0  0  0  0  0  0  0  0
   37.5850   32.5800   39.5150 P   0  0  2  0  0  0  0  0  0  0  0  0
   37.5000   32.3920   37.8480 O   0  0  0  0  0  0  0  0  0  0  0  0
   36.8630   31.6710   37.5730 H   0  0  0  0  0  0  0  0  0  0  0  0
   39.0880   31.9480   40.0450 O   0  0  0  0  0  0  0  0  0  0  0  0
   42.3720   33.5600   40.0730 C   0  0  0  0  0  0  0  0  0  0  0  0
   41.1710   32.9690   40.5200 C   0  0  0  0  0  0  0  0  0  0  0  0
   40.2590   32.5230   39.5790 C   0  0  0  0  0  0  0  0  0  0  0  0
   40.5690   32.6770   38.2640 N   0  0  0  0  0  0  0  0  0  0  0  0
   41.7150   33.2410   37.8530 C   0  0  0  0  0  0  0  0  0  0  0  0
   42.6100   33.6780   38.7450 N   0  0  0  0  0  0  0  0  0  0  0  0
   43.0680   33.9010   40.8350 H   0  0  0  0  0  0  0  0  0  0  0  0
   40.9880   32.8790   41.5860 H   0  0  0  0  0  0  0  0  0  0  0  0
   41.8950   33.3300   36.7710 H   0  0  0  0  0  0  0  0  0  0  0  0
  1  4  1  0  0  0  0
  3  2  1  0  0  0  0
  4  3  1  0  0  0  0
  5  6  1  0  0  0  0
  5  4  2  0  0  0  0
  6 12  1  0  0  0  0
  7  6  2  0  0  0  0
  7  8  1  0  0  0  0
  8  9  2  0  0  0  0
  9 11  1  0  0  0  0
  9 10  1  0  0  0  0
 12  3  1  0  0  0  0
 12 11  2  0  0  0  0
 13  7  1  0  0  0  0
 14 13  1  0  0  0  0
 15 13  1  0  0  0  0
 17 16  2  1  0  0  0
 17 20  1  0  0  0  0
 17  1  1  0  0  0  0
 18 17  1  0  0  0  0
 19 18  1  0  0  0  0
 21 22  1  0  0  0  0
 21 27  1  0  0  0  0
 22 28  1  0  0  0  0
 23 20  1  0  0  0  0
 23 22  2  0  0  0  0
 24 23  1  0  0  0  0
 25 24  2  0  0  0  0
 25 26  1  0  0  0  0
 26 21  2  0  0  0  0
 29 25  1  0  0  0  0
M  END
>  <minimizedAffinity>
-4.87462378

$$$$

 OpenBabel03242519363D

 29 31  0  0  0  0  0  0  0  0999 V2000
   36.4200   29.2880   38.3380 O   0  0  0  0  0  0  0  0  0  0  0  0
   38.0950   26.9990   38.5950 H   0  0  0  0  0  0  0  0  0  0  0  0
   37.8450   27.5070   39.4710 N   0  0  0  0  0  0  0  0  0  0  0  0
   37.0450   28.6040   39.3700 C   0  0  0  0  0  0  0  0  0  0  0  0
   36.8830   29.0620   40.6420 N   0  0  0  0  0  0  0  0  0  0  0  0
   37.5620   28.2680   41.4870 C   0  0  0  0  0  0  0  0  0  0  0  0
   37.7800   28.2130   42.8430 C   0  0  0  0  0  0  0  0  0  0  0  0
   38.5370   27.2610   43.4160 N   0  0  0  0  0  0  0  0  0  0  0  0
   39.1130   26.3200   42.6550 C   0  0  0  0  0  0  0  0  0  0  0  0
   39.7350   25.5270   43.0620 H   0  0  0  0  0  0  0  0  0  0  0  0
   38.9070   26.3670   41.3310 N   0  0  0  0  0  0  0  0  0  0  0  0
   38.1630   27.2950   40.7430 C   0  0  0  0  0  0  0  0  0  0  0  0
   37.1810   29.1990   43.6780 N   0  0  0  0  0  0  0  0  0  0  0  0
   37.9290   29.9390   43.7760 H   0  0  0  0  0  0  0  0  0  0  0  0
   36.3550   29.5090   44.2200 H   0  0  0  0  0  0  0  0  0  0  0  0
   36.4240   29.6860   35.7550 O   0  0  0  0  0  0  0  0  0  0  0  0
   37.2540   29.8960   37.0030 P   0  0  2  0  0  0  0  0  0  0  0  0
   38.7670   29.1830   36.8540 O   0  0  0  0  0  0  0  0  0  0  0  0
   39.0200   28.6420   37.6570 H   0  0  0  0  0  0  0  0  0  0  0  0
   37.4810   31.5760   37.2580 O   0  0  0  0  0  0  0  0  0  0  0  0
   37.8730   33.4120   40.3980 C   0  0  0  0  0  0  0  0  0  0  0  0
   37.3330   32.9570   39.1760 C   0  0  0  0  0  0  0  0  0  0  0  0
   38.0320   32.0040   38.4540 C   0  0  0  0  0  0  0  0  0  0  0  0
   39.2110   31.5530   38.9630 N   0  0  0  0  0  0  0  0  0  0  0  0
   39.7110   31.9950   40.1260 C   0  0  0  0  0  0  0  0  0  0  0  0
   39.0520   32.9140   40.8390 N   0  0  0  0  0  0  0  0  0  0  0  0
   37.3020   34.1590   40.9410 H   0  0  0  0  0  0  0  0  0  0  0  0
   36.3880   33.3610   38.8290 H   0  0  0  0  0  0  0  0  0  0  0  0
   40.6710   31.5820   40.4720 H   0  0  0  0  0  0  0  0  0  0  0  0
  1  4  1  0  0  0  0
  2  3  1  0  0  0  0
  3 12  1  0  0  0  0
  4  3  1  0  0  0  0
  4  5  2  0  0  0  0
  5  6  1  0  0  0  0
  6  7  1  0  0  0  0
  7  8  2  0  0  0  0
  7 13  1  0  0  0  0
  9 10  1  0  0  0  0
  9  8  1  0  0  0  0
 11  9  2  0  0  0  0
 12 11  1  0  0  0  0
 12  6  2  0  0  0  0
 13 14  1  0  0  0  0
 13 15  1  0  0  0  0
 17 16  2  6  0  0  0
 17 20  1  0  0  0  0
 17  1  1  0  0  0  0
 18 17  1  0  0  0  0
 18 19  1  0  0  0  0
 20 23  1  0  0  0  0
 21 26  1  0  0  0  0
 21 27  1  0  0  0  0
 22 21  2  0  0  0  0
 23 24  2  0  0  0  0
 23 22  1  0  0  0  0
 24 25  1  0  0  0  0
 25 29  1  0  0  0  0
 25 26  2  0  0  0  0
 28 22  1  0  0  0  0
M  END
>  <minimizedAffinity>
-4.87426329

$$$$

 OpenBabel03242519363D

 29 31  0  0  0  0  0  0  0  0999 V2000
   37.5490   31.2660   38.6560 O   0  0  0  0  0  0  0  0  0  0  0  0
   36.0290   28.9310   39.2500 H   0  0  0  0  0  0  0  0  0  0  0  0
   36.2670   29.1040   38.2500 N   0  0  0  0  0  0  0  0  0  0  0  0
   36.9920   30.2140   37.9440 C   0  0  0  0  0  0  0  0  0  0  0  0
   37.1540   30.1900   36.5920 N   0  0  0  0  0  0  0  0  0  0  0  0
   36.5470   29.1000   36.0930 C   0  0  0  0  0  0  0  0  0  0  0  0
   36.3640   28.5430   34.8510 C   0  0  0  0  0  0  0  0  0  0  0  0
   35.6830   27.3990   34.6640 N   0  0  0  0  0  0  0  0  0  0  0  0
   35.1510   26.7600   35.7150 C   0  0  0  0  0  0  0  0  0  0  0  0
   34.5900   25.8330   35.6250 H   0  0  0  0  0  0  0  0  0  0  0  0
   35.3230   27.2970   36.9320 N   0  0  0  0  0  0  0  0  0  0  0  0
   35.9920   28.4240   37.1410 C   0  0  0  0  0  0  0  0  0  0  0  0
   36.9170   29.1980   33.7140 N   0  0  0  0  0  0  0  0  0  0  0  0
   36.1270   29.7990   33.3550 H   0  0  0  0  0  0  0  0  0  0  0  0
   37.7350   29.3460   33.0940 H   0  0  0  0  0  0  0  0  0  0  0  0
   35.8920   30.8900   40.6420 O   0  0  0  0  0  0  0  0  0  0  0  0
   37.2000   31.5600   40.2800 P   0  0  2  0  0  0  0  0  0  0  0  0
   37.1490   33.2080   40.6030 O   0  0  0  0  0  0  0  0  0  0  0  0
   37.4960   33.7620   39.8440 H   0  0  0  0  0  0  0  0  0  0  0  0
   38.4660   30.8750   41.2120 O   0  0  0  0  0  0  0  0  0  0  0  0
   38.2050   28.0020   43.4620 C   0  0  0  0  0  0  0  0  0  0  0  0
   38.3210   29.3310   43.0010 C   0  0  0  0  0  0  0  0  0  0  0  0
   38.3510   29.5620   41.6360 C   0  0  0  0  0  0  0  0  0  0  0  0
   38.2670   28.4890   40.8040 N   0  0  0  0  0  0  0  0  0  0  0  0
   38.1570   27.2310   41.2560 C   0  0  0  0  0  0  0  0  0  0  0  0
   38.1260   26.9860   42.5700 N   0  0  0  0  0  0  0  0  0  0  0  0
   38.1850   27.8530   44.5370 H   0  0  0  0  0  0  0  0  0  0  0  0
   38.3850   30.1400   43.7220 H   0  0  0  0  0  0  0  0  0  0  0  0
   38.0940   26.4150   40.5200 H   0  0  0  0  0  0  0  0  0  0  0  0
  1 17  1  0  0  0  0
  3  2  1  0  0  0  0
  4  3  1  0  0  0  0
  4  1  1  0  0  0  0
  5  4  2  0  0  0  0
  6  5  1  0  0  0  0
  6 12  1  0  0  0  0
  7  6  2  0  0  0  0
  8  7  1  0  0  0  0
  8  9  2  0  0  0  0
  9 11  1  0  0  0  0
 10  9  1  0  0  0  0
 11 12  2  0  0  0  0
 12  3  1  0  0  0  0
 13  7  1  0  0  0  0
 14 13  1  0  0  0  0
 15 13  1  0  0  0  0
 17 18  1  0  0  0  0
 17 16  2  1  0  0  0
 17 20  1  0  0  0  0
 19 18  1  0  0  0  0
 20 23  1  0  0  0  0
 21 27  1  0  0  0  0
 22 21  1  0  0  0  0
 22 28  1  0  0  0  0
 23 22  2  0  0  0  0
 24 25  2  0  0  0  0
 24 23  1  0  0  0  0
 25 26  1  0  0  0  0
 26 21  2  0  0  0  0
 29 25  1  0  0  0  0
M  END
>  <minimizedAffinity>
-4.86280012

$$$$

 OpenBabel03242519363D

 29 31  0  0  0  0  0  0  0  0999 V2000
   36.6430   27.8920   40.5070 O   0  0  0  0  0  0  0  0  0  0  0  0
   38.8590   29.3680   41.5190 H   0  0  0  0  0  0  0  0  0  0  0  0
   38.8300   28.3480   41.7300 N   0  0  0  0  0  0  0  0  0  0  0  0
   37.7790   27.6240   41.2550 C   0  0  0  0  0  0  0  0  0  0  0  0
   37.9930   26.3440   41.6710 N   0  0  0  0  0  0  0  0  0  0  0  0
   39.1380   26.2940   42.3740 C   0  0  0  0  0  0  0  0  0  0  0  0
   39.8620   25.3270   43.0290 C   0  0  0  0  0  0  0  0  0  0  0  0
   41.0150   25.5950   43.6670 N   0  0  0  0  0  0  0  0  0  0  0  0
   41.4960   26.8460   43.6790 C   0  0  0  0  0  0  0  0  0  0  0  0
   42.4210   27.1210   44.1780 H   0  0  0  0  0  0  0  0  0  0  0  0
   40.7950   27.7960   43.0430 N   0  0  0  0  0  0  0  0  0  0  0  0
   39.6550   27.5570   42.4060 C   0  0  0  0  0  0  0  0  0  0  0  0
   39.3770   23.9890   43.0340 N   0  0  0  0  0  0  0  0  0  0  0  0
   38.8250   23.9200   43.9320 H   0  0  0  0  0  0  0  0  0  0  0  0
   39.3240   23.0700   42.5580 H   0  0  0  0  0  0  0  0  0  0  0  0
   36.1640   30.1270   41.7760 O   0  0  0  0  0  0  0  0  0  0  0  0
   35.9090   29.4110   40.4670 P   0  0  2  0  0  0  0  0  0  0  0  0
   34.2630   29.2840   40.1550 O   0  0  0  0  0  0  0  0  0  0  0  0
   33.9940   28.3620   39.8720 H   0  0  0  0  0  0  0  0  0  0  0  0
   36.6260   30.2970   39.1870 O   0  0  0  0  0  0  0  0  0  0  0  0
   38.2030   33.5450   39.7720 C   0  0  0  0  0  0  0  0  0  0  0  0
   37.2290   32.5690   39.4740 C   0  0  0  0  0  0  0  0  0  0  0  0
   37.6010   31.2340   39.4840 C   0  0  0  0  0  0  0  0  0  0  0  0
   38.8930   30.9320   39.7820 N   0  0  0  0  0  0  0  0  0  0  0  0
   39.8080   31.8720   40.0630 C   0  0  0  0  0  0  0  0  0  0  0  0
   39.4710   33.1660   40.0600 N   0  0  0  0  0  0  0  0  0  0  0  0
   37.8820   34.5830   39.7560 H   0  0  0  0  0  0  0  0  0  0  0  0
   36.2160   32.8810   39.2440 H   0  0  0  0  0  0  0  0  0  0  0  0
   40.8340   31.5480   40.2950 H   0  0  0  0  0  0  0  0  0  0  0  0
  1  4  1  0  0  0  0
  2  3  1  0  0  0  0
  3 12  1  0  0  0  0
  4  5  2  0  0  0  0
  4  3  1  0  0  0  0
  5  6  1  0  0  0  0
  6 12  2  0  0  0  0
  6  7  1  0  0  0  0
  7 13  1  0  0  0  0
  7  8  2  0  0  0  0
  8  9  1  0  0  0  0
  9 10  1  0  0  0  0
 11  9  2  0  0  0  0
 12 11  1  0  0  0  0
 13 14  1  0  0  0  0
 15 13  1  0  0  0  0
 17  1  1  0  0  0  0
 17 16  2  1  0  0  0
 18 17  1  0  0  0  0
 19 18  1  0  0  0  0
 20 23  1  0  0  0  0
 20 17  1  0  0  0  0
 21 26  1  0  0  0  0
 22 23  1  0  0  0  0
 22 21  2  0  0  0  0
 23 24  2  0  0  0  0
 24 25  1  0  0  0  0
 25 29  1  0  0  0  0
 26 25  2  0  0  0  0
 27 21  1  0  0  0  0
 28 22  1  0  0  0  0
M  END
>  <minimizedAffinity>
-4.86174345

$$$$
