
 OpenBabel03252503453D

 49 53  0  0  1  0  0  0  0  0999 V2000
   45.6030   35.7420   42.9930 C   0  0  0  0  0  0  0  0  0  0  0  0
   46.6360   35.9330   42.6380 H   0  0  0  0  0  0  0  0  0  0  0  0
   45.2140   36.7480   43.2780 H   0  0  0  0  0  0  0  0  0  0  0  0
   44.8320   35.1540   41.8890 C   0  0  0  0  0  0  0  0  0  0  0  0
   43.4730   35.2790   41.7170 C   0  0  0  0  0  0  0  0  0  0  0  0
   42.7970   34.7040   40.6710 C   0  0  0  0  0  0  0  0  0  0  0  0
   43.5020   33.9710   39.7520 C   0  0  0  0  0  0  0  0  0  0  0  0
   44.8810   33.8300   39.9060 C   0  0  0  0  0  0  0  0  0  0  0  0
   45.5570   34.4210   40.9750 C   0  0  0  0  0  0  0  0  0  0  0  0
   42.9800   35.8700   42.4770 H   0  0  0  0  0  0  0  0  0  0  0  0
   41.7250   34.8630   40.6250 H   0  0  0  0  0  0  0  0  0  0  0  0
   42.9160   33.5440   38.9550 H   0  0  0  0  0  0  0  0  0  0  0  0
   45.2880   33.2210   39.0960 H   0  0  0  0  0  0  0  0  0  0  0  0
   46.9370   34.1180   40.8510 N   0  0  0  0  0  0  0  0  0  0  0  0
   47.9480   34.9670   40.5910 C   0  0  0  0  0  0  0  0  0  0  0  0
   47.9100   36.0330   40.4270 H   0  0  0  0  0  0  0  0  0  0  0  0
   49.1010   34.3030   40.5480 N   0  0  0  0  0  0  0  0  0  0  0  0
   48.8590   32.9990   40.7810 C   0  0  0  0  0  0  0  0  0  0  0  0
   49.6070   31.8660   40.8630 C   0  0  0  0  0  0  0  0  0  0  0  0
   49.0670   30.6500   41.1210 N   0  0  0  0  0  0  0  0  0  0  0  0
   47.7210   30.5450   41.3080 C   0  0  0  0  0  0  0  0  0  0  0  0
   47.2190   29.6070   41.5160 H   0  0  0  0  0  0  0  0  0  0  0  0
   46.9690   31.6490   41.2310 N   0  0  0  0  0  0  0  0  0  0  0  0
   47.4770   32.8680   40.9770 C   0  0  0  0  0  0  0  0  0  0  0  0
   51.0060   32.0340   40.6600 N   0  0  0  0  0  0  0  0  0  0  0  0
   51.9350   31.7130   40.9970 H   0  0  0  0  0  0  0  0  0  0  0  0
   51.3560   32.6910   39.9410 H   0  0  0  0  0  0  0  0  0  0  0  0
   44.8190   35.0210   45.2290 C   0  0  0  0  0  0  0  0  0  0  0  0
   45.6420   34.8310   44.1230 C   0  0  0  0  0  0  0  0  0  0  0  0
   46.4980   33.7310   44.1520 C   0  0  0  0  0  0  0  0  0  0  0  0
   46.5220   32.8870   45.2110 N   0  0  0  0  0  0  0  0  0  0  0  0
   45.7070   33.1070   46.2660 C   0  0  0  0  0  0  0  0  0  0  0  0
   44.8540   34.1700   46.2850 N   0  0  0  0  0  0  0  0  0  0  0  0
   44.1470   35.8460   45.2600 H   0  0  0  0  0  0  0  0  0  0  0  0
   47.1870   33.4780   43.3930 H   0  0  0  0  0  0  0  0  0  0  0  0
   47.2330   31.8020   47.7340 C   0  0  2  0  0  0  0  0  0  0  0  0
   45.7610   32.1670   47.3870 C   0  0  1  0  0  0  0  0  0  0  0  0
   45.3750   32.6550   48.5880 O   0  0  0  0  0  0  0  0  0  0  0  0
   45.8040   31.7940   49.5560 C   0  0  0  0  0  0  0  0  0  0  0  0
   46.9300   30.9590   48.9800 C   0  0  2  0  0  0  0  0  0  0  0  0
   47.6850   31.2000   46.9280 H   0  0  0  0  0  0  0  0  0  0  0  0
   45.2220   31.2100   47.1740 H   0  0  0  0  0  0  0  0  0  0  0  0
   46.1790   32.3840   50.4180 H   0  0  0  0  0  0  0  0  0  0  0  0
   44.9380   31.1450   49.8550 H   0  0  0  0  0  0  0  0  0  0  0  0
   46.5290   29.9720   48.7010 H   0  0  0  0  0  0  0  0  0  0  0  0
   47.9030   32.8950   48.1410 O   0  0  0  0  0  0  0  0  0  0  0  0
   48.8870   32.7180   48.0160 H   0  0  0  0  0  0  0  0  0  0  0  0
   48.0030   30.8150   49.8060 O   0  0  0  0  0  0  0  0  0  0  0  0
   48.7930   31.3570   49.5430 H   0  0  0  0  0  0  0  0  0  0  0  0
  1  3  1  0  0  0  0
  1 29  1  0  0  0  0
  2  1  1  0  0  0  0
  4  1  1  0  0  0  0
  5  4  1  0  0  0  0
  5 10  1  0  0  0  0
  6  5  2  0  0  0  0
  7  8  2  0  0  0  0
  7  6  1  0  0  0  0
  8  9  1  0  0  0  0
  9  4  2  0  0  0  0
 11  6  1  0  0  0  0
 12  7  1  0  0  0  0
 13  8  1  0  0  0  0
 14  9  1  0  0  0  0
 14 24  1  0  0  0  0
 15 14  1  0  0  0  0
 16 15  1  0  0  0  0
 17 15  2  0  0  0  0
 17 18  1  0  0  0  0
 18 19  2  0  0  0  0
 18 24  1  0  0  0  0
 19 20  1  0  0  0  0
 20 21  2  0  0  0  0
 21 22  1  0  0  0  0
 23 21  1  0  0  0  0
 24 23  2  0  0  0  0
 25 19  1  0  0  0  0
 25 26  1  0  0  0  0
 27 25  1  0  0  0  0
 28 34  1  0  0  0  0
 28 33  1  0  0  0  0
 29 30  1  0  0  0  0
 29 28  2  0  0  0  0
 30 31  2  0  0  0  0
 31 32  1  0  0  0  0
 32 33  2  0  0  0  0
 32 37  1  0  0  0  0
 35 30  1  0  0  0  0
 36 41  1  6  0  0  0
 36 46  1  0  0  0  0
 36 40  1  0  0  0  0
 37 42  1  6  0  0  0
 37 36  1  0  0  0  0
 37 38  1  0  0  0  0
 38 39  1  0  0  0  0
 39 44  1  0  0  0  0
 39 43  1  0  0  0  0
 40 45  1  6  0  0  0
 40 39  1  0  0  0  0
 40 48  1  0  0  0  0
 47 46  1  0  0  0  0
 49 48  1  0  0  0  0
M  END
>  <minimizedAffinity>
-7.19452

>  <minimizedRMSD>
1.40237069

$$$$
