
 OpenBabel03242518163D

 37 40  0  0  0  0  0  0  0  0999 V2000
   37.2570   29.8030   40.6440 C   0  0  0  0  0  0  0  0  0  0  0  0
   36.5570   30.8980   40.0780 C   0  0  0  0  0  0  0  0  0  0  0  0
   37.0850   32.1320   40.1140 C   0  0  0  0  0  0  0  0  0  0  0  0
   38.3720   32.2960   40.7400 C   0  0  0  0  0  0  0  0  0  0  0  0
   38.8320   30.6570   41.2850 S   0  0  0  0  0  0  0  0  0  0  0  0
   35.6200   30.5890   39.6590 H   0  0  0  0  0  0  0  0  0  0  0  0
   36.5610   32.9740   39.6870 H   0  0  0  0  0  0  0  0  0  0  0  0
   37.0400   28.4030   40.7950 C   0  0  0  0  0  0  0  0  0  0  0  0
   36.2150   28.1080   40.0780 H   0  0  0  0  0  0  0  0  0  0  0  0
   37.9150   27.8650   40.4030 H   0  0  0  0  0  0  0  0  0  0  0  0
   36.7440   27.9120   42.1590 C   0  0  0  0  0  0  0  0  0  0  0  0
   36.5070   28.7250   42.8520 H   0  0  0  0  0  0  0  0  0  0  0  0
   35.7990   27.3030   42.0830 H   0  0  0  0  0  0  0  0  0  0  0  0
   37.8130   27.0380   42.6200 C   0  0  0  0  0  0  0  0  0  0  0  0
   38.7520   27.4710   43.5410 C   0  0  0  0  0  0  0  0  0  0  0  0
   39.7440   26.5780   43.9340 C   0  0  0  0  0  0  0  0  0  0  0  0
   39.7370   25.3350   43.3940 N   0  0  0  0  0  0  0  0  0  0  0  0
   38.8030   24.9510   42.5000 C   0  0  0  0  0  0  0  0  0  0  0  0
   37.8680   25.7880   42.1270 N   0  0  0  0  0  0  0  0  0  0  0  0
   38.7360   28.4670   43.9570 H   0  0  0  0  0  0  0  0  0  0  0  0
   40.5130   26.8490   44.6510 H   0  0  0  0  0  0  0  0  0  0  0  0
   38.8720   23.9400   42.1190 H   0  0  0  0  0  0  0  0  0  0  0  0
   39.0410   33.4040   40.8690 O   0  0  0  0  0  0  0  0  0  0  0  0
   41.4260   33.2670   42.1780 H   0  0  0  0  0  0  0  0  0  0  0  0
   41.2990   33.4680   41.1410 N   0  0  0  0  0  0  0  0  0  0  0  0
   40.2710   33.5930   40.2520 C   0  0  0  0  0  0  0  0  0  0  0  0
   40.8270   33.8620   39.0630 N   0  0  0  0  0  0  0  0  0  0  0  0
   42.1660   33.9150   39.1490 C   0  0  0  0  0  0  0  0  0  0  0  0
   43.0580   34.1690   38.1260 C   0  0  0  0  0  0  0  0  0  0  0  0
   44.3740   34.1650   38.4930 N   0  0  0  0  0  0  0  0  0  0  0  0
   44.7100   33.9200   39.7910 C   0  0  0  0  0  0  0  0  0  0  0  0
   45.7620   33.9220   40.0580 H   0  0  0  0  0  0  0  0  0  0  0  0
   43.7990   33.6790   40.7510 N   0  0  0  0  0  0  0  0  0  0  0  0
   42.4720   33.6660   40.4700 C   0  0  0  0  0  0  0  0  0  0  0  0
   42.6140   34.4120   36.7970 N   0  0  0  0  0  0  0  0  0  0  0  0
   42.5070   33.8070   35.9490 H   0  0  0  0  0  0  0  0  0  0  0  0
   42.3760   35.4440   36.8040 H   0  0  0  0  0  0  0  0  0  0  0  0
  1  8  1  0  0  0  0
  1  5  1  0  0  0  0
  2  3  1  0  0  0  0
  2  1  2  0  0  0  0
  3  4  2  0  0  0  0
  4 23  1  0  0  0  0
  4  5  1  0  0  0  0
  6  2  1  0  0  0  0
  7  3  1  0  0  0  0
  8 11  1  0  0  0  0
  9  8  1  0  0  0  0
 10  8  1  0  0  0  0
 11 14  1  0  0  0  0
 11 12  1  0  0  0  0
 13 11  1  0  0  0  0
 14 15  1  0  0  0  0
 15 16  2  0  0  0  0
 15 20  1  0  0  0  0
 16 21  1  0  0  0  0
 17 16  1  0  0  0  0
 18 17  2  0  0  0  0
 19 18  1  0  0  0  0
 19 14  2  0  0  0  0
 22 18  1  0  0  0  0
 25 24  1  0  0  0  0
 26 23  1  0  0  0  0
 26 25  1  0  0  0  0
 27 28  1  0  0  0  0
 27 26  2  0  0  0  0
 28 34  1  0  0  0  0
 29 30  1  0  0  0  0
 29 28  2  0  0  0  0
 30 31  2  0  0  0  0
 31 32  1  0  0  0  0
 31 33  1  0  0  0  0
 34 33  2  0  0  0  0
 34 25  1  0  0  0  0
 35 37  1  0  0  0  0
 35 29  1  0  0  0  0
 36 35  1  0  0  0  0
M  END
>  <minimizedAffinity>
-6.49104834

$$$$

 OpenBabel03242518163D

 37 40  0  0  0  0  0  0  0  0999 V2000
   36.6710   28.3280   41.9280 C   0  0  0  0  0  0  0  0  0  0  0  0
   35.7210   28.5010   40.8900 C   0  0  0  0  0  0  0  0  0  0  0  0
   35.6370   29.6700   40.2340 C   0  0  0  0  0  0  0  0  0  0  0  0
   36.5400   30.7240   40.6200 C   0  0  0  0  0  0  0  0  0  0  0  0
   37.5210   30.0320   41.9430 S   0  0  0  0  0  0  0  0  0  0  0  0
   35.1380   27.6130   40.7420 H   0  0  0  0  0  0  0  0  0  0  0  0
   34.9170   29.8130   39.4430 H   0  0  0  0  0  0  0  0  0  0  0  0
   37.0530   27.2840   42.8180 C   0  0  0  0  0  0  0  0  0  0  0  0
   36.1200   26.9430   43.3610 H   0  0  0  0  0  0  0  0  0  0  0  0
   37.3340   26.4000   42.2270 H   0  0  0  0  0  0  0  0  0  0  0  0
   38.1360   27.5830   43.7810 C   0  0  0  0  0  0  0  0  0  0  0  0
   38.3560   28.6530   43.8410 H   0  0  0  0  0  0  0  0  0  0  0  0
   37.7460   27.3030   44.8000 H   0  0  0  0  0  0  0  0  0  0  0  0
   39.3020   26.7580   43.4960 C   0  0  0  0  0  0  0  0  0  0  0  0
   40.5870   27.2560   43.6310 C   0  0  0  0  0  0  0  0  0  0  0  0
   41.6510   26.4070   43.3400 C   0  0  0  0  0  0  0  0  0  0  0  0
   41.3710   25.1420   42.9420 N   0  0  0  0  0  0  0  0  0  0  0  0
   40.1040   24.6960   42.8240 C   0  0  0  0  0  0  0  0  0  0  0  0
   39.1000   25.4910   43.0960 N   0  0  0  0  0  0  0  0  0  0  0  0
   40.7840   28.2680   43.9500 H   0  0  0  0  0  0  0  0  0  0  0  0
   42.6850   26.7290   43.4220 H   0  0  0  0  0  0  0  0  0  0  0  0
   39.9710   23.6710   42.5000 H   0  0  0  0  0  0  0  0  0  0  0  0
   36.6110   31.9170   40.1050 O   0  0  0  0  0  0  0  0  0  0  0  0
   37.2800   34.3460   41.1410 H   0  0  0  0  0  0  0  0  0  0  0  0
   37.8980   33.7470   40.5150 N   0  0  0  0  0  0  0  0  0  0  0  0
   37.8290   32.5430   39.8760 C   0  0  0  0  0  0  0  0  0  0  0  0
   38.9950   32.3860   39.2350 N   0  0  0  0  0  0  0  0  0  0  0  0
   39.8090   33.4350   39.4330 C   0  0  0  0  0  0  0  0  0  0  0  0
   41.0820   33.6110   38.9270 C   0  0  0  0  0  0  0  0  0  0  0  0
   41.6910   34.7800   39.2890 N   0  0  0  0  0  0  0  0  0  0  0  0
   41.0320   35.6610   40.0930 C   0  0  0  0  0  0  0  0  0  0  0  0
   41.5370   36.5820   40.3670 H   0  0  0  0  0  0  0  0  0  0  0  0
   39.7890   35.4400   40.5600 N   0  0  0  0  0  0  0  0  0  0  0  0
   39.1150   34.3060   40.2480 C   0  0  0  0  0  0  0  0  0  0  0  0
   41.6910   32.6330   38.0930 N   0  0  0  0  0  0  0  0  0  0  0  0
   42.3570   31.8450   38.2730 H   0  0  0  0  0  0  0  0  0  0  0  0
   41.3100   32.8600   37.1320 H   0  0  0  0  0  0  0  0  0  0  0  0
  1  5  1  0  0  0  0
  1  8  1  0  0  0  0
  2  1  2  0  0  0  0
  3  4  2  0  0  0  0
  3  2  1  0  0  0  0
  4  5  1  0  0  0  0
  6  2  1  0  0  0  0
  7  3  1  0  0  0  0
  8  9  1  0  0  0  0
  8 11  1  0  0  0  0
 10  8  1  0  0  0  0
 11 12  1  0  0  0  0
 11 13  1  0  0  0  0
 14 15  1  0  0  0  0
 14 11  1  0  0  0  0
 15 20  1  0  0  0  0
 16 21  1  0  0  0  0
 16 15  2  0  0  0  0
 17 16  1  0  0  0  0
 18 17  2  0  0  0  0
 18 19  1  0  0  0  0
 19 14  2  0  0  0  0
 22 18  1  0  0  0  0
 23  4  1  0  0  0  0
 25 24  1  0  0  0  0
 26 23  1  0  0  0  0
 26 25  1  0  0  0  0
 27 28  1  0  0  0  0
 27 26  2  0  0  0  0
 28 34  1  0  0  0  0
 29 30  1  0  0  0  0
 29 28  2  0  0  0  0
 30 31  2  0  0  0  0
 31 32  1  0  0  0  0
 31 33  1  0  0  0  0
 34 25  1  0  0  0  0
 34 33  2  0  0  0  0
 35 36  1  0  0  0  0
 35 29  1  0  0  0  0
 37 35  1  0  0  0  0
M  END
>  <minimizedAffinity>
-6.21231031

$$$$

 OpenBabel03242518163D

 37 40  0  0  0  0  0  0  0  0999 V2000
   36.7880   28.6580   41.6810 C   0  0  0  0  0  0  0  0  0  0  0  0
   35.7510   29.2010   40.8810 C   0  0  0  0  0  0  0  0  0  0  0  0
   35.8570   30.4430   40.3830 C   0  0  0  0  0  0  0  0  0  0  0  0
   37.0510   31.1900   40.6880 C   0  0  0  0  0  0  0  0  0  0  0  0
   38.0340   30.0970   41.7040 S   0  0  0  0  0  0  0  0  0  0  0  0
   34.9450   28.5040   40.7610 H   0  0  0  0  0  0  0  0  0  0  0  0
   35.0740   30.8670   39.7740 H   0  0  0  0  0  0  0  0  0  0  0  0
   37.0370   27.4300   42.3600 C   0  0  0  0  0  0  0  0  0  0  0  0
   36.0320   26.9830   42.6310 H   0  0  0  0  0  0  0  0  0  0  0  0
   37.4460   26.7050   41.6410 H   0  0  0  0  0  0  0  0  0  0  0  0
   37.9200   27.4840   43.5450 C   0  0  0  0  0  0  0  0  0  0  0  0
   38.1930   28.5090   43.8150 H   0  0  0  0  0  0  0  0  0  0  0  0
   37.3150   27.1010   44.4140 H   0  0  0  0  0  0  0  0  0  0  0  0
   39.0620   26.6000   43.3600 C   0  0  0  0  0  0  0  0  0  0  0  0
   40.3060   26.9120   43.8820 C   0  0  0  0  0  0  0  0  0  0  0  0
   41.3500   26.0170   43.6630 C   0  0  0  0  0  0  0  0  0  0  0  0
   41.0910   24.8920   42.9530 N   0  0  0  0  0  0  0  0  0  0  0  0
   39.8640   24.6250   42.4620 C   0  0  0  0  0  0  0  0  0  0  0  0
   38.8790   25.4640   42.6650 N   0  0  0  0  0  0  0  0  0  0  0  0
   40.4870   27.8140   44.4450 H   0  0  0  0  0  0  0  0  0  0  0  0
   42.3520   26.1960   44.0410 H   0  0  0  0  0  0  0  0  0  0  0  0
   39.7450   23.7040   41.9060 H   0  0  0  0  0  0  0  0  0  0  0  0
   37.3350   32.3980   40.2990 O   0  0  0  0  0  0  0  0  0  0  0  0
   38.6480   32.2880   37.9150 H   0  0  0  0  0  0  0  0  0  0  0  0
   39.0530   32.6520   38.8290 N   0  0  0  0  0  0  0  0  0  0  0  0
   38.6460   32.8200   40.1210 C   0  0  0  0  0  0  0  0  0  0  0  0
   39.6870   33.3460   40.7820 N   0  0  0  0  0  0  0  0  0  0  0  0
   40.7420   33.5240   39.9710 C   0  0  0  0  0  0  0  0  0  0  0  0
   41.9770   34.0430   40.3100 C   0  0  0  0  0  0  0  0  0  0  0  0
   42.8760   34.1130   39.2830 N   0  0  0  0  0  0  0  0  0  0  0  0
   42.5130   33.6860   38.0410 C   0  0  0  0  0  0  0  0  0  0  0  0
   43.2440   33.7520   37.2410 H   0  0  0  0  0  0  0  0  0  0  0  0
   41.2940   33.1880   37.7640 N   0  0  0  0  0  0  0  0  0  0  0  0
   40.3440   33.0840   38.7260 C   0  0  0  0  0  0  0  0  0  0  0  0
   42.2650   34.4650   41.6370 N   0  0  0  0  0  0  0  0  0  0  0  0
   42.2440   35.3940   42.1200 H   0  0  0  0  0  0  0  0  0  0  0  0
   42.5420   33.5670   42.1250 H   0  0  0  0  0  0  0  0  0  0  0  0
  1  5  1  0  0  0  0
  1  8  1  0  0  0  0
  2  1  2  0  0  0  0
  3  4  2  0  0  0  0
  3  2  1  0  0  0  0
  4  5  1  0  0  0  0
  6  2  1  0  0  0  0
  7  3  1  0  0  0  0
  8  9  1  0  0  0  0
  8 11  1  0  0  0  0
 10  8  1  0  0  0  0
 11 12  1  0  0  0  0
 11 13  1  0  0  0  0
 14 11  1  0  0  0  0
 14 15  1  0  0  0  0
 15 20  1  0  0  0  0
 16 15  2  0  0  0  0
 16 21  1  0  0  0  0
 17 16  1  0  0  0  0
 18 19  1  0  0  0  0
 18 17  2  0  0  0  0
 19 14  2  0  0  0  0
 22 18  1  0  0  0  0
 23  4  1  0  0  0  0
 24 25  1  0  0  0  0
 25 26  1  0  0  0  0
 26 23  1  0  0  0  0
 26 27  2  0  0  0  0
 28 29  1  0  0  0  0
 28 27  1  0  0  0  0
 29 35  1  0  0  0  0
 30 29  2  0  0  0  0
 31 30  1  0  0  0  0
 32 31  1  0  0  0  0
 33 31  2  0  0  0  0
 33 34  1  0  0  0  0
 34 25  1  0  0  0  0
 34 28  2  0  0  0  0
 35 36  1  0  0  0  0
 35 37  1  0  0  0  0
M  END
>  <minimizedAffinity>
-6.06156301

$$$$

 OpenBabel03242518163D

 37 40  0  0  0  0  0  0  0  0999 V2000
   37.4790   30.0480   41.3480 C   0  0  0  0  0  0  0  0  0  0  0  0
   36.6320   30.9630   40.6760 C   0  0  0  0  0  0  0  0  0  0  0  0
   36.9740   31.4460   39.4700 C   0  0  0  0  0  0  0  0  0  0  0  0
   38.2190   31.0010   38.8960 C   0  0  0  0  0  0  0  0  0  0  0  0
   38.9080   29.8770   40.1020 S   0  0  0  0  0  0  0  0  0  0  0  0
   35.7530   31.1780   41.2520 H   0  0  0  0  0  0  0  0  0  0  0  0
   36.3370   32.1440   38.9490 H   0  0  0  0  0  0  0  0  0  0  0  0
   37.4640   29.3400   42.5850 C   0  0  0  0  0  0  0  0  0  0  0  0
   38.5330   29.2790   42.9540 H   0  0  0  0  0  0  0  0  0  0  0  0
   36.9740   29.9650   43.3450 H   0  0  0  0  0  0  0  0  0  0  0  0
   36.8360   28.0010   42.5850 C   0  0  0  0  0  0  0  0  0  0  0  0
   35.9780   27.9430   43.2620 H   0  0  0  0  0  0  0  0  0  0  0  0
   36.4100   27.8460   41.5540 H   0  0  0  0  0  0  0  0  0  0  0  0
   37.8410   26.9750   42.8220 C   0  0  0  0  0  0  0  0  0  0  0  0
   37.7610   25.7340   42.2120 C   0  0  0  0  0  0  0  0  0  0  0  0
   38.7610   24.8040   42.4880 C   0  0  0  0  0  0  0  0  0  0  0  0
   39.7550   25.1650   43.3350 N   0  0  0  0  0  0  0  0  0  0  0  0
   39.7960   26.3860   43.9070 C   0  0  0  0  0  0  0  0  0  0  0  0
   38.8580   27.2630   43.6520 N   0  0  0  0  0  0  0  0  0  0  0  0
   36.9590   25.4710   41.5410 H   0  0  0  0  0  0  0  0  0  0  0  0
   38.7620   23.8120   42.0470 H   0  0  0  0  0  0  0  0  0  0  0  0
   40.6260   26.5900   44.5720 H   0  0  0  0  0  0  0  0  0  0  0  0
   38.7170   31.3530   37.7470 O   0  0  0  0  0  0  0  0  0  0  0  0
   40.8550   29.8060   37.0710 H   0  0  0  0  0  0  0  0  0  0  0  0
   40.8860   30.8490   37.2810 N   0  0  0  0  0  0  0  0  0  0  0  0
   40.0130   31.8390   37.6300 C   0  0  0  0  0  0  0  0  0  0  0  0
   40.7360   32.9610   37.7420 N   0  0  0  0  0  0  0  0  0  0  0  0
   42.0340   32.7360   37.4780 C   0  0  0  0  0  0  0  0  0  0  0  0
   43.0610   33.6600   37.4970 C   0  0  0  0  0  0  0  0  0  0  0  0
   44.2940   33.1580   37.1880 N   0  0  0  0  0  0  0  0  0  0  0  0
   44.4270   31.8340   36.8920 C   0  0  0  0  0  0  0  0  0  0  0  0
   45.4160   31.4600   36.6490 H   0  0  0  0  0  0  0  0  0  0  0  0
   43.3910   30.9760   36.8880 N   0  0  0  0  0  0  0  0  0  0  0  0
   42.1340   31.3930   37.1840 C   0  0  0  0  0  0  0  0  0  0  0  0
   42.8250   35.0250   37.8180 N   0  0  0  0  0  0  0  0  0  0  0  0
   42.6660   35.8850   37.2410 H   0  0  0  0  0  0  0  0  0  0  0  0
   42.8390   35.0340   38.8760 H   0  0  0  0  0  0  0  0  0  0  0  0
  1  8  1  0  0  0  0
  2  6  1  0  0  0  0
  2  1  2  0  0  0  0
  3  2  1  0  0  0  0
  4  3  2  0  0  0  0
  4  5  1  0  0  0  0
  5  1  1  0  0  0  0
  7  3  1  0  0  0  0
  8 11  1  0  0  0  0
  8  9  1  0  0  0  0
  8 10  1  0  0  0  0
 11 14  1  0  0  0  0
 11 12  1  0  0  0  0
 13 11  1  0  0  0  0
 14 19  1  0  0  0  0
 15 16  1  0  0  0  0
 15 14  2  0  0  0  0
 16 17  2  0  0  0  0
 17 18  1  0  0  0  0
 18 22  1  0  0  0  0
 19 18  2  0  0  0  0
 20 15  1  0  0  0  0
 21 16  1  0  0  0  0
 23  4  1  0  0  0  0
 24 25  1  0  0  0  0
 25 26  1  0  0  0  0
 26 27  2  0  0  0  0
 26 23  1  0  0  0  0
 28 29  1  0  0  0  0
 28 27  1  0  0  0  0
 29 35  1  0  0  0  0
 30 29  2  0  0  0  0
 31 30  1  0  0  0  0
 32 31  1  0  0  0  0
 33 31  2  0  0  0  0
 33 34  1  0  0  0  0
 34 25  1  0  0  0  0
 34 28  2  0  0  0  0
 35 37  1  0  0  0  0
 36 35  1  0  0  0  0
M  END
>  <minimizedAffinity>
-6.05804205

$$$$

 OpenBabel03242518163D

 37 40  0  0  0  0  0  0  0  0999 V2000
   36.5710   28.2860   41.9350 C   0  0  0  0  0  0  0  0  0  0  0  0
   35.6050   28.6050   40.9480 C   0  0  0  0  0  0  0  0  0  0  0  0
   35.5870   29.8230   40.3840 C   0  0  0  0  0  0  0  0  0  0  0  0
   36.5760   30.7790   40.8150 C   0  0  0  0  0  0  0  0  0  0  0  0
   37.5430   29.9190   42.0470 S   0  0  0  0  0  0  0  0  0  0  0  0
   34.9550   27.7740   40.7550 H   0  0  0  0  0  0  0  0  0  0  0  0
   34.8560   30.0780   39.6320 H   0  0  0  0  0  0  0  0  0  0  0  0
   36.9030   27.1520   42.7310 C   0  0  0  0  0  0  0  0  0  0  0  0
   36.6320   27.3990   43.8030 H   0  0  0  0  0  0  0  0  0  0  0  0
   36.2130   26.3320   42.4840 H   0  0  0  0  0  0  0  0  0  0  0  0
   38.2930   26.6540   42.6460 C   0  0  0  0  0  0  0  0  0  0  0  0
   39.0030   27.4420   42.3770 H   0  0  0  0  0  0  0  0  0  0  0  0
   38.5840   26.3360   43.6870 H   0  0  0  0  0  0  0  0  0  0  0  0
   38.3550   25.4850   41.7800 C   0  0  0  0  0  0  0  0  0  0  0  0
   37.3960   24.4880   41.8460 C   0  0  0  0  0  0  0  0  0  0  0  0
   37.5240   23.4010   40.9850 C   0  0  0  0  0  0  0  0  0  0  0  0
   38.5760   23.3800   40.1320 N   0  0  0  0  0  0  0  0  0  0  0  0
   39.4880   24.3730   40.0990 C   0  0  0  0  0  0  0  0  0  0  0  0
   39.3730   25.3960   40.9070 N   0  0  0  0  0  0  0  0  0  0  0  0
   36.5670   24.5290   42.5340 H   0  0  0  0  0  0  0  0  0  0  0  0
   36.8100   22.5820   40.9810 H   0  0  0  0  0  0  0  0  0  0  0  0
   40.2970   24.2750   39.3860 H   0  0  0  0  0  0  0  0  0  0  0  0
   36.7180   31.9990   40.3880 O   0  0  0  0  0  0  0  0  0  0  0  0
   38.1580   33.8890   41.7220 H   0  0  0  0  0  0  0  0  0  0  0  0
   38.4440   33.4200   40.8100 N   0  0  0  0  0  0  0  0  0  0  0  0
   37.9450   32.4830   39.9530 C   0  0  0  0  0  0  0  0  0  0  0  0
   38.8410   32.3570   38.9640 N   0  0  0  0  0  0  0  0  0  0  0  0
   39.8920   33.1720   39.1490 C   0  0  0  0  0  0  0  0  0  0  0  0
   40.9980   33.3050   38.3320 C   0  0  0  0  0  0  0  0  0  0  0  0
   41.9250   34.2140   38.7590 N   0  0  0  0  0  0  0  0  0  0  0  0
   41.7100   34.9010   39.9160 C   0  0  0  0  0  0  0  0  0  0  0  0
   42.4620   35.6170   40.2350 H   0  0  0  0  0  0  0  0  0  0  0  0
   40.6130   34.7330   40.6760 N   0  0  0  0  0  0  0  0  0  0  0  0
   39.6440   33.8520   40.3230 C   0  0  0  0  0  0  0  0  0  0  0  0
   41.1360   32.5420   37.1400 N   0  0  0  0  0  0  0  0  0  0  0  0
   41.6330   31.6490   36.9080 H   0  0  0  0  0  0  0  0  0  0  0  0
   40.5820   33.0960   36.4290 H   0  0  0  0  0  0  0  0  0  0  0  0
  1  5  1  0  0  0  0
  1  8  1  0  0  0  0
  2  1  2  0  0  0  0
  3  4  2  0  0  0  0
  3  2  1  0  0  0  0
  4  5  1  0  0  0  0
  6  2  1  0  0  0  0
  7  3  1  0  0  0  0
  8  9  1  0  0  0  0
 10  8  1  0  0  0  0
 11  8  1  0  0  0  0
 11 13  1  0  0  0  0
 12 11  1  0  0  0  0
 14 15  1  0  0  0  0
 14 11  1  0  0  0  0
 15 20  1  0  0  0  0
 16 15  2  0  0  0  0
 17 16  1  0  0  0  0
 18 17  2  0  0  0  0
 18 19  1  0  0  0  0
 19 14  2  0  0  0  0
 21 16  1  0  0  0  0
 22 18  1  0  0  0  0
 23  4  1  0  0  0  0
 25 24  1  0  0  0  0
 26 23  1  0  0  0  0
 26 25  1  0  0  0  0
 27 28  1  0  0  0  0
 27 26  2  0  0  0  0
 28 34  1  0  0  0  0
 29 30  1  0  0  0  0
 29 28  2  0  0  0  0
 30 31  2  0  0  0  0
 31 32  1  0  0  0  0
 31 33  1  0  0  0  0
 34 33  2  0  0  0  0
 34 25  1  0  0  0  0
 35 29  1  0  0  0  0
 36 35  1  0  0  0  0
 37 35  1  0  0  0  0
M  END
>  <minimizedAffinity>
-6.01362419

$$$$

 OpenBabel03242518163D

 37 40  0  0  0  0  0  0  0  0999 V2000
   37.4450   26.6570   42.6220 C   0  0  0  0  0  0  0  0  0  0  0  0
   37.1270   27.7810   43.4250 C   0  0  0  0  0  0  0  0  0  0  0  0
   37.9290   28.8580   43.4340 C   0  0  0  0  0  0  0  0  0  0  0  0
   39.1080   28.8260   42.6070 C   0  0  0  0  0  0  0  0  0  0  0  0
   39.0670   27.2290   41.8050 S   0  0  0  0  0  0  0  0  0  0  0  0
   36.2160   27.6270   43.9700 H   0  0  0  0  0  0  0  0  0  0  0  0
   37.6980   29.7190   44.0420 H   0  0  0  0  0  0  0  0  0  0  0  0
   36.8690   25.3820   42.3500 C   0  0  0  0  0  0  0  0  0  0  0  0
   36.1290   25.1610   43.1780 H   0  0  0  0  0  0  0  0  0  0  0  0
   36.2290   25.4660   41.4600 H   0  0  0  0  0  0  0  0  0  0  0  0
   37.8020   24.2480   42.1680 C   0  0  0  0  0  0  0  0  0  0  0  0
   38.8470   24.5440   42.2970 H   0  0  0  0  0  0  0  0  0  0  0  0
   37.5940   23.5240   43.0060 H   0  0  0  0  0  0  0  0  0  0  0  0
   37.5320   23.5750   40.9060 C   0  0  0  0  0  0  0  0  0  0  0  0
   36.3110   23.7070   40.2660 C   0  0  0  0  0  0  0  0  0  0  0  0
   36.1280   23.0320   39.0620 C   0  0  0  0  0  0  0  0  0  0  0  0
   37.1530   22.2860   38.5830 N   0  0  0  0  0  0  0  0  0  0  0  0
   38.3270   22.1850   39.2380 C   0  0  0  0  0  0  0  0  0  0  0  0
   38.5040   22.8170   40.3710 N   0  0  0  0  0  0  0  0  0  0  0  0
   35.5100   24.3080   40.6680 H   0  0  0  0  0  0  0  0  0  0  0  0
   35.1970   23.0880   38.5050 H   0  0  0  0  0  0  0  0  0  0  0  0
   39.0920   21.5670   38.7840 H   0  0  0  0  0  0  0  0  0  0  0  0
   39.9990   29.7650   42.4830 O   0  0  0  0  0  0  0  0  0  0  0  0
   41.8610   31.6880   41.9730 H   0  0  0  0  0  0  0  0  0  0  0  0
   40.8300   31.7380   41.7120 N   0  0  0  0  0  0  0  0  0  0  0  0
   39.7150   30.9610   41.8350 C   0  0  0  0  0  0  0  0  0  0  0  0
   38.7110   31.6460   41.2710 N   0  0  0  0  0  0  0  0  0  0  0  0
   39.1320   32.8270   40.7920 C   0  0  0  0  0  0  0  0  0  0  0  0
   38.3720   33.7860   40.1510 C   0  0  0  0  0  0  0  0  0  0  0  0
   39.0570   34.9030   39.7650 N   0  0  0  0  0  0  0  0  0  0  0  0
   40.3920   34.9970   40.0240 C   0  0  0  0  0  0  0  0  0  0  0  0
   40.9150   35.8940   39.7070 H   0  0  0  0  0  0  0  0  0  0  0  0
   41.0860   34.0320   40.6540 N   0  0  0  0  0  0  0  0  0  0  0  0
   40.4810   32.8910   41.0710 C   0  0  0  0  0  0  0  0  0  0  0  0
   36.9800   33.5990   39.9220 N   0  0  0  0  0  0  0  0  0  0  0  0
   36.4230   33.2560   39.1040 H   0  0  0  0  0  0  0  0  0  0  0  0
   36.5390   33.9040   40.8350 H   0  0  0  0  0  0  0  0  0  0  0  0
  1  2  2  0  0  0  0
  2  3  1  0  0  0  0
  2  6  1  0  0  0  0
  3  7  1  0  0  0  0
  4  3  2  0  0  0  0
  5  4  1  0  0  0  0
  5  1  1  0  0  0  0
  8  1  1  0  0  0  0
  8  9  1  0  0  0  0
 10  8  1  0  0  0  0
 11 12  1  0  0  0  0
 11  8  1  0  0  0  0
 11 13  1  0  0  0  0
 14 11  1  0  0  0  0
 15 20  1  0  0  0  0
 15 14  2  0  0  0  0
 16 15  1  0  0  0  0
 17 16  2  0  0  0  0
 17 18  1  0  0  0  0
 18 19  2  0  0  0  0
 19 14  1  0  0  0  0
 21 16  1  0  0  0  0
 22 18  1  0  0  0  0
 23  4  1  0  0  0  0
 25 26  1  0  0  0  0
 25 24  1  0  0  0  0
 26 23  1  0  0  0  0
 27 26  2  0  0  0  0
 28 34  1  0  0  0  0
 28 27  1  0  0  0  0
 29 28  2  0  0  0  0
 30 31  2  0  0  0  0
 30 29  1  0  0  0  0
 31 33  1  0  0  0  0
 32 31  1  0  0  0  0
 33 34  2  0  0  0  0
 34 25  1  0  0  0  0
 35 29  1  0  0  0  0
 35 37  1  0  0  0  0
 36 35  1  0  0  0  0
M  END
>  <minimizedAffinity>
-5.93289232

$$$$

 OpenBabel03242518163D

 37 40  0  0  0  0  0  0  0  0999 V2000
   37.0520   31.5130   39.5200 C   0  0  0  0  0  0  0  0  0  0  0  0
   36.2370   31.2240   40.6430 C   0  0  0  0  0  0  0  0  0  0  0  0
   35.8570   29.9620   40.9000 C   0  0  0  0  0  0  0  0  0  0  0  0
   36.3050   28.9290   40.0010 C   0  0  0  0  0  0  0  0  0  0  0  0
   37.2850   29.7790   38.7710 S   0  0  0  0  0  0  0  0  0  0  0  0
   36.0030   32.1140   41.1950 H   0  0  0  0  0  0  0  0  0  0  0  0
   35.2360   29.7300   41.7510 H   0  0  0  0  0  0  0  0  0  0  0  0
   37.6410   32.6740   38.9390 C   0  0  0  0  0  0  0  0  0  0  0  0
   38.6570   32.3750   38.5410 H   0  0  0  0  0  0  0  0  0  0  0  0
   37.0830   32.9350   38.0270 H   0  0  0  0  0  0  0  0  0  0  0  0
   37.7490   33.8740   39.7970 C   0  0  0  0  0  0  0  0  0  0  0  0
   37.1240   34.6990   39.4410 H   0  0  0  0  0  0  0  0  0  0  0  0
   37.3220   33.5910   40.8000 H   0  0  0  0  0  0  0  0  0  0  0  0
   39.1480   34.2330   39.9820 C   0  0  0  0  0  0  0  0  0  0  0  0
   39.5120   35.3840   40.6600 C   0  0  0  0  0  0  0  0  0  0  0  0
   40.8700   35.6610   40.7960 C   0  0  0  0  0  0  0  0  0  0  0  0
   41.7580   34.7890   40.2600 N   0  0  0  0  0  0  0  0  0  0  0  0
   41.3610   33.6770   39.6080 C   0  0  0  0  0  0  0  0  0  0  0  0
   40.0850   33.4130   39.4760 N   0  0  0  0  0  0  0  0  0  0  0  0
   38.7850   36.0630   41.0780 H   0  0  0  0  0  0  0  0  0  0  0  0
   41.2290   36.5450   41.3140 H   0  0  0  0  0  0  0  0  0  0  0  0
   42.1380   33.0360   39.2100 H   0  0  0  0  0  0  0  0  0  0  0  0
   36.0440   27.6570   40.0840 O   0  0  0  0  0  0  0  0  0  0  0  0
   37.7980   28.4130   42.0270 H   0  0  0  0  0  0  0  0  0  0  0  0
   37.6660   27.4220   41.6630 N   0  0  0  0  0  0  0  0  0  0  0  0
   36.8970   26.7770   40.7370 C   0  0  0  0  0  0  0  0  0  0  0  0
   37.2480   25.4850   40.7870 N   0  0  0  0  0  0  0  0  0  0  0  0
   38.2070   25.2720   41.7030 C   0  0  0  0  0  0  0  0  0  0  0  0
   38.8030   24.0680   42.0220 C   0  0  0  0  0  0  0  0  0  0  0  0
   39.7570   24.1360   42.9980 N   0  0  0  0  0  0  0  0  0  0  0  0
   40.0470   25.3380   43.5730 C   0  0  0  0  0  0  0  0  0  0  0  0
   40.8070   25.3670   44.3460 H   0  0  0  0  0  0  0  0  0  0  0  0
   39.4340   26.4840   43.2240 N   0  0  0  0  0  0  0  0  0  0  0  0
   38.4770   26.5030   42.2630 C   0  0  0  0  0  0  0  0  0  0  0  0
   38.4340   22.8600   41.3670 N   0  0  0  0  0  0  0  0  0  0  0  0
   37.7740   22.0820   41.6050 H   0  0  0  0  0  0  0  0  0  0  0  0
   39.0120   22.8770   40.4800 H   0  0  0  0  0  0  0  0  0  0  0  0
  1  2  2  0  0  0  0
  2  3  1  0  0  0  0
  2  6  1  0  0  0  0
  3  7  1  0  0  0  0
  4 23  1  0  0  0  0
  4  3  2  0  0  0  0
  5  1  1  0  0  0  0
  5  4  1  0  0  0  0
  8  1  1  0  0  0  0
  8 11  1  0  0  0  0
  9  8  1  0  0  0  0
 10  8  1  0  0  0  0
 11 14  1  0  0  0  0
 11 13  1  0  0  0  0
 12 11  1  0  0  0  0
 14 15  1  0  0  0  0
 15 16  2  0  0  0  0
 15 20  1  0  0  0  0
 16 21  1  0  0  0  0
 17 16  1  0  0  0  0
 18 17  2  0  0  0  0
 19 18  1  0  0  0  0
 19 14  2  0  0  0  0
 22 18  1  0  0  0  0
 23 26  1  0  0  0  0
 25 24  1  0  0  0  0
 25 34  1  0  0  0  0
 26 27  2  0  0  0  0
 26 25  1  0  0  0  0
 27 28  1  0  0  0  0
 28 29  2  0  0  0  0
 28 34  1  0  0  0  0
 29 30  1  0  0  0  0
 30 31  2  0  0  0  0
 31 32  1  0  0  0  0
 33 31  1  0  0  0  0
 34 33  2  0  0  0  0
 35 36  1  0  0  0  0
 35 29  1  0  0  0  0
 37 35  1  0  0  0  0
M  END
>  <minimizedAffinity>
-5.78703213

$$$$

 OpenBabel03242518163D

 37 40  0  0  0  0  0  0  0  0999 V2000
   37.2520   26.7390   42.4690 C   0  0  0  0  0  0  0  0  0  0  0  0
   37.7540   27.6310   43.4490 C   0  0  0  0  0  0  0  0  0  0  0  0
   37.7700   28.9540   43.2190 C   0  0  0  0  0  0  0  0  0  0  0  0
   37.2620   29.4230   41.9550 C   0  0  0  0  0  0  0  0  0  0  0  0
   36.7570   27.9470   41.0830 S   0  0  0  0  0  0  0  0  0  0  0  0
   38.0860   27.1050   44.3230 H   0  0  0  0  0  0  0  0  0  0  0  0
   38.1500   29.6430   43.9580 H   0  0  0  0  0  0  0  0  0  0  0  0
   37.0730   25.3310   42.3450 C   0  0  0  0  0  0  0  0  0  0  0  0
   37.0040   24.9040   43.3920 H   0  0  0  0  0  0  0  0  0  0  0  0
   36.0730   25.1360   41.9320 H   0  0  0  0  0  0  0  0  0  0  0  0
   38.0760   24.5930   41.5470 C   0  0  0  0  0  0  0  0  0  0  0  0
   38.7710   25.2610   41.0290 H   0  0  0  0  0  0  0  0  0  0  0  0
   38.7100   24.0180   42.2800 H   0  0  0  0  0  0  0  0  0  0  0  0
   37.4140   23.6380   40.6690 C   0  0  0  0  0  0  0  0  0  0  0  0
   36.2000   23.9310   40.0710 C   0  0  0  0  0  0  0  0  0  0  0  0
   35.6290   22.9660   39.2450 C   0  0  0  0  0  0  0  0  0  0  0  0
   36.2920   21.7980   39.0710 N   0  0  0  0  0  0  0  0  0  0  0  0
   37.4740   21.5530   39.6710 C   0  0  0  0  0  0  0  0  0  0  0  0
   38.0150   22.4560   40.4500 N   0  0  0  0  0  0  0  0  0  0  0  0
   35.6910   24.8700   40.2260 H   0  0  0  0  0  0  0  0  0  0  0  0
   34.6780   23.1260   38.7440 H   0  0  0  0  0  0  0  0  0  0  0  0
   37.9350   20.5920   39.4780 H   0  0  0  0  0  0  0  0  0  0  0  0
   37.1950   30.6580   41.5520 O   0  0  0  0  0  0  0  0  0  0  0  0
   39.4970   31.7990   42.4560 H   0  0  0  0  0  0  0  0  0  0  0  0
   39.2080   31.7100   41.4360 N   0  0  0  0  0  0  0  0  0  0  0  0
   38.1600   31.2090   40.7200 C   0  0  0  0  0  0  0  0  0  0  0  0
   38.4400   31.4340   39.4280 N   0  0  0  0  0  0  0  0  0  0  0  0
   39.6220   32.0560   39.2850 C   0  0  0  0  0  0  0  0  0  0  0  0
   40.2230   32.4410   38.1020 C   0  0  0  0  0  0  0  0  0  0  0  0
   41.4330   33.0610   38.2450 N   0  0  0  0  0  0  0  0  0  0  0  0
   41.9480   33.2520   39.4930 C   0  0  0  0  0  0  0  0  0  0  0  0
   42.9100   33.7470   39.5800 H   0  0  0  0  0  0  0  0  0  0  0  0
   41.3180   32.8570   40.6140 N   0  0  0  0  0  0  0  0  0  0  0  0
   40.1150   32.2350   40.5600 C   0  0  0  0  0  0  0  0  0  0  0  0
   39.6080   32.1980   36.8430 N   0  0  0  0  0  0  0  0  0  0  0  0
   39.7090   31.4420   36.1250 H   0  0  0  0  0  0  0  0  0  0  0  0
   38.9430   33.0140   36.7340 H   0  0  0  0  0  0  0  0  0  0  0  0
  1  2  2  0  0  0  0
  2  6  1  0  0  0  0
  3  2  1  0  0  0  0
  3  7  1  0  0  0  0
  4  3  2  0  0  0  0
  5  4  1  0  0  0  0
  5  1  1  0  0  0  0
  8  1  1  0  0  0  0
  8  9  1  0  0  0  0
 10  8  1  0  0  0  0
 11 13  1  0  0  0  0
 11  8  1  0  0  0  0
 12 11  1  0  0  0  0
 14 11  1  0  0  0  0
 15 20  1  0  0  0  0
 15 14  2  0  0  0  0
 16 15  1  0  0  0  0
 17 16  2  0  0  0  0
 17 18  1  0  0  0  0
 18 19  2  0  0  0  0
 19 14  1  0  0  0  0
 21 16  1  0  0  0  0
 22 18  1  0  0  0  0
 23  4  1  0  0  0  0
 25 24  1  0  0  0  0
 26 25  1  0  0  0  0
 26 23  1  0  0  0  0
 27 26  2  0  0  0  0
 28 27  1  0  0  0  0
 28 34  1  0  0  0  0
 29 30  1  0  0  0  0
 29 28  2  0  0  0  0
 30 31  2  0  0  0  0
 31 32  1  0  0  0  0
 31 33  1  0  0  0  0
 34 33  2  0  0  0  0
 34 25  1  0  0  0  0
 35 29  1  0  0  0  0
 36 35  1  0  0  0  0
 37 35  1  0  0  0  0
M  END
>  <minimizedAffinity>
-5.78016329

$$$$

 OpenBabel03242518163D

 37 40  0  0  0  0  0  0  0  0999 V2000
   37.7320   27.9640   42.8600 C   0  0  0  0  0  0  0  0  0  0  0  0
   36.5890   27.9250   42.0230 C   0  0  0  0  0  0  0  0  0  0  0  0
   36.2420   28.9990   41.2960 C   0  0  0  0  0  0  0  0  0  0  0  0
   37.0690   30.1750   41.3980 C   0  0  0  0  0  0  0  0  0  0  0  0
   38.3590   29.7350   42.5520 S   0  0  0  0  0  0  0  0  0  0  0  0
   36.0990   26.9720   42.0750 H   0  0  0  0  0  0  0  0  0  0  0  0
   35.3730   28.9810   40.6560 H   0  0  0  0  0  0  0  0  0  0  0  0
   38.3990   27.0680   43.7450 C   0  0  0  0  0  0  0  0  0  0  0  0
   38.5770   27.6210   44.7160 H   0  0  0  0  0  0  0  0  0  0  0  0
   37.6980   26.2720   44.0360 H   0  0  0  0  0  0  0  0  0  0  0  0
   39.6530   26.4510   43.2580 C   0  0  0  0  0  0  0  0  0  0  0  0
   40.4250   27.1940   43.0390 H   0  0  0  0  0  0  0  0  0  0  0  0
   40.0630   25.8420   44.1130 H   0  0  0  0  0  0  0  0  0  0  0  0
   39.3710   25.5500   42.1500 C   0  0  0  0  0  0  0  0  0  0  0  0
   38.5190   24.4690   42.2990 C   0  0  0  0  0  0  0  0  0  0  0  0
   38.2990   23.6520   41.1930 C   0  0  0  0  0  0  0  0  0  0  0  0
   38.9300   23.9600   40.0340 N   0  0  0  0  0  0  0  0  0  0  0  0
   39.7520   25.0230   39.9300 C   0  0  0  0  0  0  0  0  0  0  0  0
   39.9630   25.7940   40.9680 N   0  0  0  0  0  0  0  0  0  0  0  0
   38.0280   24.2450   43.2330 H   0  0  0  0  0  0  0  0  0  0  0  0
   37.6440   22.7870   41.2370 H   0  0  0  0  0  0  0  0  0  0  0  0
   40.2160   25.1960   38.9670 H   0  0  0  0  0  0  0  0  0  0  0  0
   36.8970   31.3040   40.7750 O   0  0  0  0  0  0  0  0  0  0  0  0
   38.5190   30.8650   38.6310 H   0  0  0  0  0  0  0  0  0  0  0  0
   38.6070   31.6710   39.3200 N   0  0  0  0  0  0  0  0  0  0  0  0
   37.9670   32.1230   40.4380 C   0  0  0  0  0  0  0  0  0  0  0  0
   38.6160   33.2290   40.8270 N   0  0  0  0  0  0  0  0  0  0  0  0
   39.6440   33.5070   40.0090 C   0  0  0  0  0  0  0  0  0  0  0  0
   40.5260   34.5660   40.1060 C   0  0  0  0  0  0  0  0  0  0  0  0
   41.4850   34.6100   39.1340 N   0  0  0  0  0  0  0  0  0  0  0  0
   41.5110   33.6480   38.1690 C   0  0  0  0  0  0  0  0  0  0  0  0
   42.2820   33.7050   37.4080 H   0  0  0  0  0  0  0  0  0  0  0  0
   40.6260   32.6350   38.1210 N   0  0  0  0  0  0  0  0  0  0  0  0
   39.6430   32.5170   39.0470 C   0  0  0  0  0  0  0  0  0  0  0  0
   40.4200   35.5250   41.1510 N   0  0  0  0  0  0  0  0  0  0  0  0
   39.9770   36.4720   41.2200 H   0  0  0  0  0  0  0  0  0  0  0  0
   40.9300   35.0660   41.9570 H   0  0  0  0  0  0  0  0  0  0  0  0
  1  8  1  0  0  0  0
  2  6  1  0  0  0  0
  2  1  2  0  0  0  0
  3  4  2  0  0  0  0
  3  2  1  0  0  0  0
  4  5  1  0  0  0  0
  5  1  1  0  0  0  0
  7  3  1  0  0  0  0
  8 10  1  0  0  0  0
  8  9  1  0  0  0  0
 11  8  1  0  0  0  0
 11 13  1  0  0  0  0
 12 11  1  0  0  0  0
 14 15  1  0  0  0  0
 14 11  1  0  0  0  0
 15 20  1  0  0  0  0
 16 21  1  0  0  0  0
 16 15  2  0  0  0  0
 17 16  1  0  0  0  0
 18 17  2  0  0  0  0
 18 19  1  0  0  0  0
 19 14  2  0  0  0  0
 22 18  1  0  0  0  0
 23  4  1  0  0  0  0
 24 25  1  0  0  0  0
 25 26  1  0  0  0  0
 26 23  1  0  0  0  0
 26 27  2  0  0  0  0
 28 29  1  0  0  0  0
 28 27  1  0  0  0  0
 29 35  1  0  0  0  0
 30 29  2  0  0  0  0
 31 30  1  0  0  0  0
 32 31  1  0  0  0  0
 33 31  2  0  0  0  0
 33 34  1  0  0  0  0
 34 25  1  0  0  0  0
 34 28  2  0  0  0  0
 35 36  1  0  0  0  0
 35 37  1  0  0  0  0
M  END
>  <minimizedAffinity>
-5.77378988

$$$$
