
     RDKit          3D

 42 45  0  0  0  0  0  0  0  0999 V2000
   45.7442   29.8942   44.8703 Br  0  0  0  0  0  0  0  0  0  0  0  0
   45.6990   30.6029   46.6734 C   0  0  0  0  0  0  0  0  0  0  0  0
   46.3224   31.7980   46.8425 C   0  0  0  0  0  0  0  0  0  0  0  0
   46.2740   32.2864   48.1557 C   0  0  0  0  0  0  0  0  0  0  0  0
   45.6544   31.6233   49.1857 C   0  0  0  0  0  0  0  0  0  0  0  0
   45.0484   30.4206   48.9277 C   0  0  0  0  0  0  0  0  0  0  0  0
   45.0621   29.8876   47.6553 C   0  0  0  0  0  0  0  0  0  0  0  0
   47.0159   32.6038   45.8349 C   0  0  0  0  0  0  0  0  0  0  0  0
   44.5183   35.3295   45.3831 C   0  0  0  0  0  0  0  0  0  0  0  0
   44.7386   35.7121   44.0606 C   0  0  0  0  0  0  0  0  0  0  0  0
   45.7336   35.0364   43.3439 C   0  0  0  0  0  0  0  0  0  0  0  0
   46.4247   34.0584   43.9585 N   0  0  0  0  0  0  0  0  0  0  0  0
   46.1983   33.6942   45.2539 C   0  0  0  0  0  0  0  0  0  0  0  0
   45.2336   34.3564   45.9333 N   0  0  0  0  0  0  0  0  0  0  0  0
   44.4435   28.6662   47.4064 O   0  0  0  0  0  0  0  0  0  0  0  0
   44.5360   26.1001   47.0199 O   0  0  0  0  0  0  0  0  0  0  0  0
   45.0284   27.1816   47.9625 P   0  0  2  0  0  0  0  0  0  0  0  0
   44.4203   26.9423   49.5110 O   0  0  0  0  0  0  0  0  0  0  0  0
   46.7215   27.1440   47.9584 O   0  0  0  0  0  0  0  0  0  0  0  0
   46.7353   33.2254   48.4057 H   0  0  0  0  0  0  0  0  0  0  0  0
   45.6407   32.0362   50.1842 H   0  0  0  0  0  0  0  0  0  0  0  0
   44.5456   29.8531   49.6963 H   0  0  0  0  0  0  0  0  0  0  0  0
   47.9698   32.9577   46.2401 H   0  0  0  0  0  0  0  0  0  0  0  0
   47.2918   31.8958   45.0049 H   0  0  0  0  0  0  0  0  0  0  0  0
   43.7439   35.8610   45.9283 H   0  0  0  0  0  0  0  0  0  0  0  0
   44.1838   36.4983   43.5651 H   0  0  0  0  0  0  0  0  0  0  0  0
   45.9819   35.2507   42.3278 H   0  0  0  0  0  0  0  0  0  0  0  0
   45.0548   27.3040   50.1664 H   0  0  0  0  0  0  0  0  0  0  0  0
   47.4531   26.2791   50.5622 H   0  0  0  0  0  0  0  0  0  0  0  0
   47.8050   25.7781   49.7184 N   0  0  0  0  0  0  0  0  0  0  0  0
   47.4970   26.1355   48.4564 C   0  0  0  0  0  0  0  0  0  0  0  0
   48.1160   25.2806   47.6181 N   0  0  0  0  0  0  0  0  0  0  0  0
   48.7986   24.4067   48.3959 C   0  0  0  0  0  0  0  0  0  0  0  0
   49.5945   23.3341   47.9777 C   0  0  0  0  0  0  0  0  0  0  0  0
   49.7525   23.0681   46.5803 N   0  0  0  0  0  0  0  0  0  0  0  0
   50.6080   23.1789   45.9805 H   0  0  0  0  0  0  0  0  0  0  0  0
   50.1765   22.6014   48.9461 N   0  0  0  0  0  0  0  0  0  0  0  0
   49.9807   22.9138   50.2477 C   0  0  0  0  0  0  0  0  0  0  0  0
   50.5023   22.2492   50.9202 H   0  0  0  0  0  0  0  0  0  0  0  0
   49.2086   23.9544   50.6556 N   0  0  0  0  0  0  0  0  0  0  0  0
   48.6149   24.7045   49.7300 C   0  0  0  0  0  0  0  0  0  0  0  0
   48.9428   22.7108   46.0163 H   0  0  0  0  0  0  0  0  0  0  0  0
  1  2  1  0
  2  3  2  0
  2  7  1  0
  3  4  1  0
  4  5  2  0
  6  5  1  0
  7  6  2  0
  8  3  1  0
  9 14  2  0
 10  9  1  0
 11 12  1  0
 11 10  2  0
 12 13  2  0
 13  8  1  0
 13 14  1  0
 15  7  1  0
 17 15  1  6
 16 17  2  0
 17 18  1  0
 19 17  1  0
  4 20  1  0
  5 21  1  0
  6 22  1  0
  8 23  1  0
  8 24  1  0
  9 25  1  0
 10 26  1  0
 11 27  1  0
 18 28  1  0
 29 30  1  0
 30 31  1  0
 31 32  2  0
 32 33  1  0
 33 34  2  0
 34 35  1  0
 35 36  1  0
 34 37  1  0
 37 38  2  0
 38 39  1  0
 38 40  1  0
 40 41  2  0
 41 30  1  0
 41 33  1  0
 35 42  1  0
 19 31  1  0
M  ISO  8  20  14  21  14  22  14  23   8  24   8  25  14  26  14  27  14
M  ISO  4  28   3  29   9  36   5  39  16
M  END
>  <DihAtoms>  (1) 
16,18,30,29

>  <DihDeg>  (1) 
0.0018834478434870442

$$$$
