
 OpenBabel03252503453D

 49 53  0  0  1  0  0  0  0  0999 V2000
   45.9350   35.5890   42.7640 C   0  0  0  0  0  0  0  0  0  0  0  0
   46.9240   35.5270   42.2680 H   0  0  0  0  0  0  0  0  0  0  0  0
   45.8330   36.6620   43.0550 H   0  0  0  0  0  0  0  0  0  0  0  0
   44.9020   35.1870   41.7990 C   0  0  0  0  0  0  0  0  0  0  0  0
   43.5950   35.6140   41.8140 C   0  0  0  0  0  0  0  0  0  0  0  0
   42.6650   35.2030   40.8920 C   0  0  0  0  0  0  0  0  0  0  0  0
   43.0510   34.3290   39.9100 C   0  0  0  0  0  0  0  0  0  0  0  0
   44.3710   33.8820   39.8750 C   0  0  0  0  0  0  0  0  0  0  0  0
   45.3080   34.3080   40.8190 C   0  0  0  0  0  0  0  0  0  0  0  0
   43.3590   36.3020   42.6150 H   0  0  0  0  0  0  0  0  0  0  0  0
   41.6600   35.5990   40.9910 H   0  0  0  0  0  0  0  0  0  0  0  0
   42.2760   34.0440   39.2170 H   0  0  0  0  0  0  0  0  0  0  0  0
   44.5120   33.1960   39.0380 H   0  0  0  0  0  0  0  0  0  0  0  0
   46.5530   33.7030   40.5140 N   0  0  0  0  0  0  0  0  0  0  0  0
   47.5960   34.2450   39.8590 C   0  0  0  0  0  0  0  0  0  0  0  0
   47.6900   35.2360   39.4400 H   0  0  0  0  0  0  0  0  0  0  0  0
   48.5870   33.3600   39.7670 N   0  0  0  0  0  0  0  0  0  0  0  0
   48.2020   32.2170   40.3650 C   0  0  0  0  0  0  0  0  0  0  0  0
   48.7590   30.9950   40.5880 C   0  0  0  0  0  0  0  0  0  0  0  0
   48.1100   30.0040   41.2440 N   0  0  0  0  0  0  0  0  0  0  0  0
   46.8470   30.2260   41.7040 C   0  0  0  0  0  0  0  0  0  0  0  0
   46.2650   29.4820   42.2370 H   0  0  0  0  0  0  0  0  0  0  0  0
   46.2820   31.4210   41.4950 N   0  0  0  0  0  0  0  0  0  0  0  0
   46.9030   32.4240   40.8470 C   0  0  0  0  0  0  0  0  0  0  0  0
   50.0800   30.8190   40.0860 N   0  0  0  0  0  0  0  0  0  0  0  0
   50.9990   30.3880   40.3080 H   0  0  0  0  0  0  0  0  0  0  0  0
   50.3490   31.2190   39.1690 H   0  0  0  0  0  0  0  0  0  0  0  0
   44.9940   34.8820   44.9440 C   0  0  0  0  0  0  0  0  0  0  0  0
   45.9180   34.7070   43.9190 C   0  0  0  0  0  0  0  0  0  0  0  0
   46.8190   33.6520   44.0500 C   0  0  0  0  0  0  0  0  0  0  0  0
   46.7910   32.8340   45.1300 N   0  0  0  0  0  0  0  0  0  0  0  0
   45.8780   33.0370   46.1050 C   0  0  0  0  0  0  0  0  0  0  0  0
   44.9770   34.0570   46.0220 N   0  0  0  0  0  0  0  0  0  0  0  0
   44.2840   35.6730   44.8950 H   0  0  0  0  0  0  0  0  0  0  0  0
   47.5820   33.4150   43.3600 H   0  0  0  0  0  0  0  0  0  0  0  0
   47.3320   31.8050   47.7020 C   0  0  2  0  0  0  0  0  0  0  0  0
   45.8790   32.1280   47.2520 C   0  0  1  0  0  0  0  0  0  0  0  0
   45.4040   32.6370   48.4120 O   0  0  0  0  0  0  0  0  0  0  0  0
   45.7880   31.8100   49.4280 C   0  0  0  0  0  0  0  0  0  0  0  0
   46.9670   30.9870   48.9480 C   0  0  2  0  0  0  0  0  0  0  0  0
   47.8490   31.1940   46.9440 H   0  0  0  0  0  0  0  0  0  0  0  0
   45.3750   31.1530   47.0300 H   0  0  0  0  0  0  0  0  0  0  0  0
   46.0930   32.4300   50.2960 H   0  0  0  0  0  0  0  0  0  0  0  0
   44.9190   31.1490   49.6880 H   0  0  0  0  0  0  0  0  0  0  0  0
   46.6060   29.9850   48.6700 H   0  0  0  0  0  0  0  0  0  0  0  0
   47.9510   32.9240   48.1230 O   0  0  0  0  0  0  0  0  0  0  0  0
   48.9450   32.7660   48.0670 H   0  0  0  0  0  0  0  0  0  0  0  0
   47.9860   30.8890   49.8460 O   0  0  0  0  0  0  0  0  0  0  0  0
   48.7800   31.4420   49.6210 H   0  0  0  0  0  0  0  0  0  0  0  0
  1  3  1  0  0  0  0
  1 29  1  0  0  0  0
  2  1  1  0  0  0  0
  4  5  1  0  0  0  0
  4  1  1  0  0  0  0
  5 10  1  0  0  0  0
  6 11  1  0  0  0  0
  6  5  2  0  0  0  0
  7  6  1  0  0  0  0
  8  7  2  0  0  0  0
  8  9  1  0  0  0  0
  9  4  2  0  0  0  0
 12  7  1  0  0  0  0
 13  8  1  0  0  0  0
 14  9  1  0  0  0  0
 14 24  1  0  0  0  0
 15 14  1  0  0  0  0
 16 15  1  0  0  0  0
 17 15  2  0  0  0  0
 17 18  1  0  0  0  0
 18 19  2  0  0  0  0
 18 24  1  0  0  0  0
 19 20  1  0  0  0  0
 20 21  2  0  0  0  0
 21 22  1  0  0  0  0
 23 21  1  0  0  0  0
 24 23  2  0  0  0  0
 25 26  1  0  0  0  0
 25 19  1  0  0  0  0
 27 25  1  0  0  0  0
 28 33  1  0  0  0  0
 29 30  1  0  0  0  0
 29 28  2  0  0  0  0
 30 31  2  0  0  0  0
 31 32  1  0  0  0  0
 32 37  1  0  0  0  0
 33 32  2  0  0  0  0
 34 28  1  0  0  0  0
 35 30  1  0  0  0  0
 36 41  1  6  0  0  0
 36 46  1  0  0  0  0
 36 40  1  0  0  0  0
 37 42  1  6  0  0  0
 37 36  1  0  0  0  0
 37 38  1  0  0  0  0
 38 39  1  0  0  0  0
 39 44  1  0  0  0  0
 39 43  1  0  0  0  0
 40 45  1  6  0  0  0
 40 39  1  0  0  0  0
 40 48  1  0  0  0  0
 47 46  1  0  0  0  0
 49 48  1  0  0  0  0
M  END
>  <minimizedAffinity>
-7.10103369

>  <minimizedRMSD>
0.740484357

$$$$
