
 OpenBabel03252504003D

 39 43  0  0  0  0  0  0  0  0999 V2000
   46.9090   34.9850   42.6650 C   0  0  0  0  0  0  0  0  0  0  0  0
   45.9460   35.9960   42.5660 C   0  0  0  0  0  0  0  0  0  0  0  0
   44.9070   35.9960   43.4940 C   0  0  0  0  0  0  0  0  0  0  0  0
   44.8890   35.0240   44.4350 N   0  0  0  0  0  0  0  0  0  0  0  0
   45.8350   34.0670   44.4990 C   0  0  0  0  0  0  0  0  0  0  0  0
   46.8500   34.0380   43.6180 N   0  0  0  0  0  0  0  0  0  0  0  0
   45.9850   36.7650   41.7980 H   0  0  0  0  0  0  0  0  0  0  0  0
   44.1500   36.7740   43.4340 H   0  0  0  0  0  0  0  0  0  0  0  0
   46.0690   31.7140   45.1290 C   0  0  0  0  0  0  0  0  0  0  0  0
   45.7970   33.0190   45.5300 C   0  0  0  0  0  0  0  0  0  0  0  0
   45.5070   33.2780   46.8490 C   0  0  0  0  0  0  0  0  0  0  0  0
   45.4890   32.2430   47.7600 C   0  0  0  0  0  0  0  0  0  0  0  0
   45.2490   32.1760   49.0700 N   0  0  0  0  0  0  0  0  0  0  0  0
   45.3500   30.9260   49.5280 C   0  0  0  0  0  0  0  0  0  0  0  0
   45.6730   30.1150   48.4750 C   0  0  0  0  0  0  0  0  0  0  0  0
   45.7600   30.9410   47.3690 C   0  0  0  0  0  0  0  0  0  0  0  0
   46.0530   30.6770   46.0380 C   0  0  0  0  0  0  0  0  0  0  0  0
   46.3010   31.4870   44.0890 H   0  0  0  0  0  0  0  0  0  0  0  0
   45.2950   34.2960   47.1550 H   0  0  0  0  0  0  0  0  0  0  0  0
   45.0130   33.0110   49.6510 H   0  0  0  0  0  0  0  0  0  0  0  0
   45.1990   30.6180   50.5650 H   0  0  0  0  0  0  0  0  0  0  0  0
   45.8290   29.0650   48.4820 H   0  0  0  0  0  0  0  0  0  0  0  0
   46.2680   29.6790   45.6900 H   0  0  0  0  0  0  0  0  0  0  0  0
   47.9550   35.0410   41.6740 C   0  0  0  0  0  0  0  0  0  0  0  0
   48.9600   35.8290   41.7210 O   0  0  0  0  0  0  0  0  0  0  0  0
   46.1160   34.7870   39.4810 H   0  0  0  0  0  0  0  0  0  0  0  0
   46.9420   34.1810   39.5580 N   0  0  0  0  0  0  0  0  0  0  0  0
   47.9110   34.1450   40.4990 C   0  0  0  0  0  0  0  0  0  0  0  0
   48.7910   33.1790   40.1750 N   0  0  0  0  0  0  0  0  0  0  0  0
   48.4110   32.5850   39.0400 C   0  0  0  0  0  0  0  0  0  0  0  0
   48.8390   31.5750   38.2000 C   0  0  0  0  0  0  0  0  0  0  0  0
   48.2170   31.1910   37.0840 N   0  0  0  0  0  0  0  0  0  0  0  0
   47.0720   31.8320   36.7280 C   0  0  0  0  0  0  0  0  0  0  0  0
   46.4600   31.6370   35.8610 H   0  0  0  0  0  0  0  0  0  0  0  0
   46.6300   32.8220   37.5260 N   0  0  0  0  0  0  0  0  0  0  0  0
   47.2440   33.2170   38.6500 C   0  0  0  0  0  0  0  0  0  0  0  0
   50.0350   30.8970   38.5630 N   0  0  0  0  0  0  0  0  0  0  0  0
   50.8860   31.5110   38.3980 H   0  0  0  0  0  0  0  0  0  0  0  0
   50.5330   30.0570   38.9310 H   0  0  0  0  0  0  0  0  0  0  0  0
  1  6  1  0  0  0  0
  2  1  2  0  0  0  0
  2  3  1  0  0  0  0
  3  4  2  0  0  0  0
  4  5  1  0  0  0  0
  5 10  1  0  0  0  0
  6  5  2  0  0  0  0
  7  2  1  0  0  0  0
  8  3  1  0  0  0  0
  9 10  2  0  0  0  0
  9 17  1  0  0  0  0
 10 11  1  0  0  0  0
 11 19  1  0  0  0  0
 11 12  2  0  0  0  0
 12 13  1  0  0  0  0
 13 14  1  0  0  0  0
 13 20  1  0  0  0  0
 14 21  1  0  0  0  0
 15 22  1  0  0  0  0
 15 14  2  0  0  0  0
 16 12  1  0  0  0  0
 16 15  1  0  0  0  0
 17 16  2  0  0  0  0
 18  9  1  0  0  0  0
 23 17  1  0  0  0  0
 24 25  2  0  0  0  0
 24  1  1  0  0  0  0
 26 27  1  0  0  0  0
 27 28  1  0  0  0  0
 28 24  1  0  0  0  0
 29 28  2  0  0  0  0
 30 29  1  0  0  0  0
 31 37  1  0  0  0  0
 31 30  2  0  0  0  0
 32 31  1  0  0  0  0
 33 32  2  0  0  0  0
 33 35  1  0  0  0  0
 34 33  1  0  0  0  0
 35 36  2  0  0  0  0
 36 30  1  0  0  0  0
 36 27  1  0  0  0  0
 37 39  1  0  0  0  0
 38 37  1  0  0  0  0
M  END
>  <minimizedAffinity>
-6.59953594

>  <minimizedRMSD>
0.523897052

$$$$
