
 OpenBabel03242519363D

 29 31  0  0  0  0  0  0  0  0999 V2000
   44.8010   34.5270   43.1510 O   0  0  0  0  0  0  0  0  0  0  0  0
   44.6370   31.6870   43.0180 H   0  0  0  0  0  0  0  0  0  0  0  0
   45.1250   32.0980   43.8430 N   0  0  0  0  0  0  0  0  0  0  0  0
   45.2140   33.4540   43.9260 C   0  0  0  0  0  0  0  0  0  0  0  0
   45.8870   33.7110   45.0820 N   0  0  0  0  0  0  0  0  0  0  0  0
   46.1960   32.5480   45.6810 C   0  0  0  0  0  0  0  0  0  0  0  0
   46.8450   32.1620   46.8290 C   0  0  0  0  0  0  0  0  0  0  0  0
   47.0020   30.8710   47.1710 N   0  0  0  0  0  0  0  0  0  0  0  0
   46.5160   29.9060   46.3770 C   0  0  0  0  0  0  0  0  0  0  0  0
   46.6140   28.8480   46.6030 H   0  0  0  0  0  0  0  0  0  0  0  0
   45.8820   30.2750   45.2550 N   0  0  0  0  0  0  0  0  0  0  0  0
   45.7130   31.5420   44.8960 C   0  0  0  0  0  0  0  0  0  0  0  0
   47.3730   33.1630   47.6920 N   0  0  0  0  0  0  0  0  0  0  0  0
   48.3760   33.2670   47.3810 H   0  0  0  0  0  0  0  0  0  0  0  0
   47.2130   33.8240   48.4740 H   0  0  0  0  0  0  0  0  0  0  0  0
   46.0580   34.3680   40.8650 O   0  0  0  0  0  0  0  0  0  0  0  0
   44.6730   34.4500   41.4700 P   0  0  2  0  0  0  0  0  0  0  0  0
   43.8220   35.7650   40.8630 O   0  0  0  0  0  0  0  0  0  0  0  0
   43.3730   36.3000   41.5810 H   0  0  0  0  0  0  0  0  0  0  0  0
   43.8000   33.0270   41.0830 O   0  0  0  0  0  0  0  0  0  0  0  0
   40.5260   31.7020   42.0410 C   0  0  0  0  0  0  0  0  0  0  0  0
   41.9090   31.7760   41.7680 C   0  0  0  0  0  0  0  0  0  0  0  0
   42.4400   32.9830   41.3450 C   0  0  0  0  0  0  0  0  0  0  0  0
   41.5970   34.0420   41.2140 N   0  0  0  0  0  0  0  0  0  0  0  0
   40.2850   33.9570   41.4770 C   0  0  0  0  0  0  0  0  0  0  0  0
   39.7510   32.8020   41.8870 N   0  0  0  0  0  0  0  0  0  0  0  0
   40.1390   30.7420   42.3700 H   0  0  0  0  0  0  0  0  0  0  0  0
   42.5240   30.8900   41.8930 H   0  0  0  0  0  0  0  0  0  0  0  0
   39.6670   34.8590   41.3470 H   0  0  0  0  0  0  0  0  0  0  0  0
  1  4  1  0  0  0  0
  2  3  1  0  0  0  0
  3  4  1  0  0  0  0
  3 12  1  0  0  0  0
  4  5  2  0  0  0  0
  5  6  1  0  0  0  0
  6  7  1  0  0  0  0
  7  8  2  0  0  0  0
  7 13  1  0  0  0  0
  9 10  1  0  0  0  0
  9  8  1  0  0  0  0
 11  9  2  0  0  0  0
 12 11  1  0  0  0  0
 12  6  2  0  0  0  0
 13 15  1  0  0  0  0
 14 13  1  0  0  0  0
 17 16  2  6  0  0  0
 17  1  1  0  0  0  0
 18 17  1  0  0  0  0
 18 19  1  0  0  0  0
 20 23  1  0  0  0  0
 20 17  1  0  0  0  0
 21 27  1  0  0  0  0
 22 28  1  0  0  0  0
 22 21  2  0  0  0  0
 23 22  1  0  0  0  0
 24 23  2  0  0  0  0
 24 25  1  0  0  0  0
 25 26  2  0  0  0  0
 26 21  1  0  0  0  0
 29 25  1  0  0  0  0
M  END
>  <minimizedAffinity>
-5.07064295

>  <minimizedRMSD>
4.32622099

$$$$
