
     RDKit          3D

 37 41  0  0  0  0  0  0  0  0999 V2000
   47.6925   33.4900   40.1330 C   0  0  0  0  0  0  0  0  0  0  0  0
   49.0441   33.2215   40.3845 C   0  0  0  0  0  0  0  0  0  0  0  0
   49.5040   33.3045   41.7140 C   0  0  0  0  0  0  0  0  0  0  0  0
   48.5949   33.6430   42.6715 N   0  0  0  0  0  0  0  0  0  0  0  0
   47.2953   33.8945   42.3821 C   0  0  0  0  0  0  0  0  0  0  0  0
   46.8514   33.8170   41.1178 N   0  0  0  0  0  0  0  0  0  0  0  0
   46.4219   34.2404   43.4496 N   0  0  0  0  0  0  0  0  0  0  0  0
   45.5065   35.2396   43.4385 C   0  0  0  0  0  0  0  0  0  0  0  0
   44.8756   35.2427   44.6475 N   0  0  0  0  0  0  0  0  0  0  0  0
   45.4089   34.2601   45.3646 C   0  0  0  0  0  0  0  0  0  0  0  0
   45.1920   33.7829   46.6288 C   0  0  0  0  0  0  0  0  0  0  0  0
   45.8741   32.7571   47.1362 N   0  0  0  0  0  0  0  0  0  0  0  0
   46.8319   32.1169   46.4285 C   0  0  0  0  0  0  0  0  0  0  0  0
   47.0503   32.5782   45.1895 N   0  0  0  0  0  0  0  0  0  0  0  0
   46.3899   33.6046   44.6394 C   0  0  0  0  0  0  0  0  0  0  0  0
   44.2315   34.3325   47.5025 N   0  0  0  0  0  0  0  0  0  0  0  0
   47.2294   33.3506   38.3961 S   0  0  0  0  0  0  0  0  0  0  0  0
   49.7726   32.9527   39.6343 H   0  0  0  0  0  0  0  0  0  0  0  0
   50.5300   33.1087   41.9623 H   0  0  0  0  0  0  0  0  0  0  0  0
   45.2878   35.9339   42.6272 H   0  0  0  0  0  0  0  0  0  0  0  0
   47.3947   31.2807   46.8291 H   0  0  0  0  0  0  0  0  0  0  0  0
   44.6002   35.1609   48.0504 H   0  0  0  0  0  0  0  0  0  0  0  0
   43.2509   34.0442   47.6727 H   0  0  0  0  0  0  0  0  0  0  0  0
   44.4598   32.6803   39.6474 H   0  0  0  0  0  0  0  0  0  0  0  0
   44.4122   33.3038   38.8213 N   0  0  0  0  0  0  0  0  0  0  0  0
   45.5057   33.7031   38.1474 C   0  0  0  0  0  0  0  0  0  0  0  0
   45.0528   34.4970   37.1458 N   0  0  0  0  0  0  0  0  0  0  0  0
   43.7290   34.5757   37.2110 C   0  0  0  0  0  0  0  0  0  0  0  0
   42.7551   35.2187   36.4781 C   0  0  0  0  0  0  0  0  0  0  0  0
   43.0926   36.0150   35.3714 N   0  0  0  0  0  0  0  0  0  0  0  0
   44.0670   36.3453   35.1789 H   0  0  0  0  0  0  0  0  0  0  0  0
   41.4773   35.0769   36.8319 N   0  0  0  0  0  0  0  0  0  0  0  0
   41.0883   34.3326   37.8755 C   0  0  0  0  0  0  0  0  0  0  0  0
   40.0165   34.2873   38.0740 H   0  0  0  0  0  0  0  0  0  0  0  0
   42.0099   33.6815   38.6262 N   0  0  0  0  0  0  0  0  0  0  0  0
   43.2999   33.8172   38.2791 C   0  0  0  0  0  0  0  0  0  0  0  0
   42.3768   36.3240   34.6716 H   0  0  0  0  0  0  0  0  0  0  0  0
  1  2  2  0
  1  6  1  0
  2  3  1  0
  3  4  2  0
  5  4  1  0
  5  7  1  0
  6  5  2  0
  7 15  1  0
  8  7  1  0
  8  9  2  0
  9 10  1  0
 10 11  2  0
 11 12  1  0
 11 16  1  0
 13 12  2  0
 14 13  1  0
 15 14  2  0
 15 10  1  0
 17  1  1  0
  2 18  1  0
  3 19  1  0
  8 20  1  0
 13 21  1  0
 16 22  1  0
 16 23  1  0
 24 25  1  0
 25 26  1  0
 26 27  2  0
 27 28  1  0
 28 29  2  0
 29 30  1  0
 30 31  1  0
 29 32  1  0
 32 33  2  0
 33 34  1  0
 33 35  1  0
 35 36  2  0
 36 25  1  0
 36 28  1  0
 30 37  1  0
 17 26  1  0
M  ISO  7  18  14  19  14  20  14  21  14  24   9  31   5  34  16
M  END
>  <DihAtoms>  (1) 
0,16,25,24

>  <DihDeg>  (1) 
-89.99933903086148

$$$$
