REMARK  Name = 
REMARK  4 active torsions:
REMARK  status: ('A' for Active; 'I' for Inactive)
REMARK    1  A    between atoms: C_2  and  C_7
REMARK    2  A    between atoms: C_7  and  O_8
REMARK    3  A    between atoms: O_8  and  C_16
REMARK    4  A    between atoms: C_19  and  N_20
REMARK                            x       y       z     vdW  Elec       q    Type
REMARK                         _______ _______ _______ _____ _____    ______ ____
ROOT
ATOM      1  H   UNL     1      43.741  35.268  38.862  0.00  0.00    +0.000 HD
ATOM      2  N   UNL     1      42.899  35.816  39.157  0.00  0.00    +0.000 N 
ATOM      3  C   UNL     1      42.442  35.943  40.416  0.00  0.00    +0.000 A 
ATOM      4  N   UNL     1      41.356  36.712  40.396  0.00  0.00    +0.000 NA
ATOM      5  C   UNL     1      41.099  37.092  39.122  0.00  0.00    +0.000 A 
ATOM      6  C   UNL     1      40.170  37.851  38.457  0.00  0.00    +0.000 A 
ATOM      7  N   UNL     1      40.215  38.025  37.128  0.00  0.00    +0.000 NA
ATOM      8  C   UNL     1      41.197  37.449  36.379  0.00  0.00    +0.000 A 
ATOM      9  H   UNL     1      41.131  37.661  35.316  0.00  0.00    +0.000 HD
ATOM     10  N   UNL     1      42.121  36.699  37.005  0.00  0.00    +0.000 NA
ATOM     11  C   UNL     1      42.087  36.516  38.339  0.00  0.00    +0.000 A 
ENDROOT
BRANCH   6  12
ATOM     12  N   UNL     1      39.148  38.452  39.227  0.00  0.00    +0.000 N 
ATOM     13  H   UNL     1      39.413  39.479  39.195  0.00  0.00    +0.000 HD
ATOM     14  H   UNL     1      38.286  38.257  39.776  0.00  0.00    +0.000 HD
ENDBRANCH   6  12
BRANCH   3  15
ATOM     15  O   UNL     1      42.962  35.394  41.591  0.00  0.00    +0.000 OA
BRANCH  15  16
ATOM     16  C   UNL     1      44.253  35.701  41.992  0.00  0.00    +0.000 C 
ATOM     17  H   UNL     1      44.996  35.373  41.215  0.00  0.00    +0.000 HD
ATOM     18  H   UNL     1      44.388  36.801  42.062  0.00  0.00    +0.000 HD
BRANCH  16  20
ATOM     19  C   UNL     1      44.382  35.761  44.395  0.00  0.00    +0.000 A 
ATOM     20  C   UNL     1      44.660  35.052  43.241  0.00  0.00    +0.000 A 
ATOM     21  C   UNL     1      45.282  33.826  43.372  0.00  0.00    +0.000 A 
ATOM     22  N   UNL     1      45.577  33.404  44.617  0.00  0.00    +0.000 NA
ATOM     23  C   UNL     1      45.297  34.109  45.730  0.00  0.00    +0.000 A 
ATOM     24  N   UNL     1      44.679  35.336  45.665  0.00  0.00    +0.000 NA
ATOM     25  H   UNL     1      43.893  36.741  44.414  0.00  0.00    +0.000 HD
ATOM     26  H   UNL     1      45.487  33.298  42.471  0.00  0.00    +0.000 HD
ATOM     27  H   UNL     1      45.608  33.610  46.654  0.00  0.00    +0.000 HD
ENDBRANCH  16  20
ENDBRANCH  15  16
ENDBRANCH   3  15
TORSDOF 4
