REMARK  Name = 
REMARK  8 active torsions:
REMARK  status: ('A' for Active; 'I' for Inactive)
REMARK    1  A    between atoms: P_2  and  O_3
REMARK    2  A    between atoms: P_2  and  O_10
REMARK    3  A    between atoms: P_2  and  O_13
REMARK    4  A    between atoms: O_3  and  C_6
REMARK    5  A    between atoms: O_10  and  C_11
REMARK    6  A    between atoms: C_11  and  C_23
REMARK    7  A    between atoms: O_13  and  C_14
REMARK    8  A    between atoms: C_26  and  N_27
REMARK                            x       y       z     vdW  Elec       q    Type
REMARK                         _______ _______ _______ _____ _____    ______ ____
ROOT
ATOM      1  O   UNL     1      48.091  32.912  41.914  0.00  0.00    +0.000 OA
ATOM      2  P   UNL     1      47.197  34.039  41.331  0.00  0.00    +0.000 P 
ENDROOT
BRANCH   2   3
ATOM      3  O   UNL     1      45.596  33.828  41.916  0.00  0.00    +0.000 OA
BRANCH   3   6
ATOM      4  C   UNL     1      44.369  35.915  44.638  0.00  0.00    +0.000 A 
ATOM      5  C   UNL     1      44.668  35.465  43.329  0.00  0.00    +0.000 A 
ATOM      6  C   UNL     1      45.318  34.232  43.205  0.00  0.00    +0.000 A 
ATOM      7  N   UNL     1      45.620  33.547  44.323  0.00  0.00    +0.000 NA
ATOM      8  C   UNL     1      45.320  34.003  45.560  0.00  0.00    +0.000 A 
ATOM      9  N   UNL     1      44.699  35.179  45.726  0.00  0.00    +0.000 NA
ATOM     10  H   UNL     1      43.865  36.872  44.724  0.00  0.00    +0.000 HD
ATOM     11  H   UNL     1      44.374  36.106  42.504  0.00  0.00    +0.000 HD
ATOM     12  H   UNL     1      45.615  33.359  46.392  0.00  0.00    +0.000 HD
ENDBRANCH   3   6
ENDBRANCH   2   3
BRANCH   2  13
ATOM     13  O   UNL     1      47.176  33.914  39.680  0.00  0.00    +0.000 OA
BRANCH  13  14
ATOM     14  C   UNL     1      46.558  33.013  38.875  0.00  0.00    +0.000 C 
ATOM     15  O   UNL     1      45.902  33.501  37.773  0.00  0.00    +0.000 OA
BRANCH  14  18
ATOM     16  H   UNL     1      44.136  31.464  38.693  0.00  0.00    +0.000 HD
ATOM     17  N   UNL     1      45.064  30.943  38.582  0.00  0.00    +0.000 N 
ATOM     18  C   UNL     1      46.269  31.576  38.643  0.00  0.00    +0.000 A 
ATOM     19  N   UNL     1      47.089  30.569  38.460  0.00  0.00    +0.000 NA
ATOM     20  C   UNL     1      46.396  29.432  38.304  0.00  0.00    +0.000 A 
ATOM     21  C   UNL     1      47.049  28.243  38.098  0.00  0.00    +0.000 A 
ATOM     22  N   UNL     1      46.188  27.194  37.961  0.00  0.00    +0.000 NA
ATOM     23  C   UNL     1      44.852  27.328  38.024  0.00  0.00    +0.000 A 
ATOM     24  H   UNL     1      44.194  26.471  37.912  0.00  0.00    +0.000 HD
ATOM     25  N   UNL     1      44.311  28.567  38.234  0.00  0.00    +0.000 NA
ATOM     26  C   UNL     1      45.050  29.644  38.379  0.00  0.00    +0.000 A 
BRANCH  21  27
ATOM     27  N   UNL     1      48.446  27.997  38.016  0.00  0.00    +0.000 N 
ATOM     28  H   UNL     1      48.745  27.904  37.025  0.00  0.00    +0.000 HD
ATOM     29  H   UNL     1      49.051  27.928  38.882  0.00  0.00    +0.000 HD
ENDBRANCH  21  27
ENDBRANCH  14  18
ENDBRANCH  13  14
ENDBRANCH   2  13
BRANCH   2  30
ATOM     30  O   UNL     1      47.786  35.475  41.912  0.00  0.00    +0.000 OA
BRANCH  30  31
ATOM     31  C   UNL     1      49.046  35.773  41.404  0.00  0.00    +0.000 C 
ATOM     32  F   UNL     1      49.454  37.055  41.728  0.00  0.00    +0.000 F 
ATOM     33  F   UNL     1      49.948  34.827  41.777  0.00  0.00    +0.000 F 
ATOM     34  F   UNL     1      48.918  35.743  40.018  0.00  0.00    +0.000 F 
ENDBRANCH  30  31
ENDBRANCH   2  30
TORSDOF 8
