
 OpenBabel03252502563D

 42 45  0  0  0  0  0  0  0  0999 V2000
   45.5790   29.9640   44.7530 Br  0  0  0  0  0  0  0  0  0  0  0  0
   45.6560   30.5940   46.5840 C   0  0  0  0  0  0  0  0  0  0  0  0
   46.3470   31.7480   46.7720 C   0  0  0  0  0  0  0  0  0  0  0  0
   46.3860   32.1790   48.1060 C   0  0  0  0  0  0  0  0  0  0  0  0
   45.7840   31.5020   49.1370 C   0  0  0  0  0  0  0  0  0  0  0  0
   45.1050   30.3440   48.8590 C   0  0  0  0  0  0  0  0  0  0  0  0
   45.0310   29.8680   47.5660 C   0  0  0  0  0  0  0  0  0  0  0  0
   46.9060   33.0830   48.3710 H   0  0  0  0  0  0  0  0  0  0  0  0
   45.8390   31.8710   50.1500 H   0  0  0  0  0  0  0  0  0  0  0  0
   44.6130   29.7670   49.6270 H   0  0  0  0  0  0  0  0  0  0  0  0
   47.0320   32.5630   45.7660 C   0  0  0  0  0  0  0  0  0  0  0  0
   47.9960   32.9010   46.1600 H   0  0  0  0  0  0  0  0  0  0  0  0
   47.2860   31.8660   44.9200 H   0  0  0  0  0  0  0  0  0  0  0  0
   44.5460   35.3130   45.3980 C   0  0  0  0  0  0  0  0  0  0  0  0
   44.7590   35.7250   44.0830 C   0  0  0  0  0  0  0  0  0  0  0  0
   45.7450   35.0610   43.3430 C   0  0  0  0  0  0  0  0  0  0  0  0
   46.4350   34.0650   43.9290 N   0  0  0  0  0  0  0  0  0  0  0  0
   46.2160   33.6710   45.2170 C   0  0  0  0  0  0  0  0  0  0  0  0
   45.2610   34.3230   45.9190 N   0  0  0  0  0  0  0  0  0  0  0  0
   43.7790   35.8360   45.9610 H   0  0  0  0  0  0  0  0  0  0  0  0
   44.2050   36.5260   43.6100 H   0  0  0  0  0  0  0  0  0  0  0  0
   45.9860   35.2980   42.3300 H   0  0  0  0  0  0  0  0  0  0  0  0
   44.3410   28.6900   47.2970 O   0  0  0  0  0  0  0  0  0  0  0  0
   44.0970   26.1230   46.9880 O   0  0  0  0  0  0  0  0  0  0  0  0
   44.8530   27.1600   47.7960 P   0  0  2  0  0  0  0  0  0  0  0  0
   44.4980   27.0120   49.4330 O   0  0  0  0  0  0  0  0  0  0  0  0
   45.2700   27.3130   49.9590 H   0  0  0  0  0  0  0  0  0  0  0  0
   46.5070   26.9380   47.5080 O   0  0  0  0  0  0  0  0  0  0  0  0
   46.2980   25.3420   49.8470 H   0  0  0  0  0  0  0  0  0  0  0  0
   47.1420   25.2820   49.2390 N   0  0  0  0  0  0  0  0  0  0  0  0
   47.3050   26.0110   48.1170 C   0  0  0  0  0  0  0  0  0  0  0  0
   48.4990   25.6890   47.5810 N   0  0  0  0  0  0  0  0  0  0  0  0
   49.0480   24.7570   48.3980 C   0  0  0  0  0  0  0  0  0  0  0  0
   50.2860   24.1200   48.2530 C   0  0  0  0  0  0  0  0  0  0  0  0
   50.6150   23.2230   49.2020 N   0  0  0  0  0  0  0  0  0  0  0  0
   49.7700   22.9740   50.2280 C   0  0  0  0  0  0  0  0  0  0  0  0
   50.1550   22.2360   50.9170 H   0  0  0  0  0  0  0  0  0  0  0  0
   48.5690   23.5920   50.3700 N   0  0  0  0  0  0  0  0  0  0  0  0
   48.2040   24.4860   49.4540 C   0  0  0  0  0  0  0  0  0  0  0  0
   51.1230   24.4370   47.1380 N   0  0  0  0  0  0  0  0  0  0  0  0
   52.0430   24.9480   47.1280 H   0  0  0  0  0  0  0  0  0  0  0  0
   50.8430   24.1510   46.1690 H   0  0  0  0  0  0  0  0  0  0  0  0
  1  2  1  0  0  0  0
  2  3  2  0  0  0  0
  2  7  1  0  0  0  0
  3  4  1  0  0  0  0
  4  8  1  0  0  0  0
  4  5  2  0  0  0  0
  5  9  1  0  0  0  0
  6  5  1  0  0  0  0
  6 10  1  0  0  0  0
  7  6  2  0  0  0  0
 11 12  1  0  0  0  0
 11  3  1  0  0  0  0
 13 11  1  0  0  0  0
 14 19  1  0  0  0  0
 14 20  1  0  0  0  0
 15 14  2  0  0  0  0
 16 17  2  0  0  0  0
 16 15  1  0  0  0  0
 17 18  1  0  0  0  0
 18 11  1  0  0  0  0
 18 19  2  0  0  0  0
 21 15  1  0  0  0  0
 22 16  1  0  0  0  0
 23  7  1  0  0  0  0
 23 25  1  0  0  0  0
 25 24  2  6  0  0  0
 25 26  1  0  0  0  0
 26 27  1  0  0  0  0
 28 25  1  0  0  0  0
 28 31  1  0  0  0  0
 30 39  1  0  0  0  0
 30 29  1  0  0  0  0
 31 30  1  0  0  0  0
 32 31  2  0  0  0  0
 32 33  1  0  0  0  0
 33 39  1  0  0  0  0
 34 33  2  0  0  0  0
 34 35  1  0  0  0  0
 35 36  2  0  0  0  0
 36 38  1  0  0  0  0
 36 37  1  0  0  0  0
 39 38  2  0  0  0  0
 40 34  1  0  0  0  0
 41 40  1  0  0  0  0
 42 40  1  0  0  0  0
M  END
>  <minimizedAffinity>
-5.71815968

>  <minimizedRMSD>
0.238353208

$$$$
