REMARK  Name = 
REMARK  5 active torsions:
REMARK  status: ('A' for Active; 'I' for Inactive)
REMARK    1  A    between atoms: C_1  and  C_4
REMARK    2  A    between atoms: C_2  and  C_11
REMARK    3  A    between atoms: C_8  and  O_10
REMARK    4  A    between atoms: O_10  and  C_23
REMARK    5  A    between atoms: C_26  and  N_27
REMARK                            x       y       z     vdW  Elec       q    Type
REMARK                         _______ _______ _______ _____ _____    ______ ____
ROOT
ATOM      1  C   UNL     1      45.891  32.864  44.817  0.00  0.00    +0.000 A 
ATOM      2  C   UNL     1      46.722  31.746  44.503  0.00  0.00    +0.000 A 
ATOM      3  C   UNL     1      47.393  31.053  45.502  0.00  0.00    +0.000 A 
ATOM      4  N   UNL     1      47.213  31.501  46.783  0.00  0.00    +0.000 NA
ATOM      5  C   UNL     1      46.410  32.577  47.045  0.00  0.00    +0.000 A 
ATOM      6  N   UNL     1      45.770  33.235  46.084  0.00  0.00    +0.000 NA
ATOM      7  H   UNL     1      46.824  31.440  43.469  0.00  0.00    +0.000 HD
ATOM      8  H   UNL     1      48.017  30.218  45.303  0.00  0.00    +0.000 HD
ENDROOT
BRANCH   1   9
ATOM      9  C   UNL     1      45.226  33.562  43.709  0.00  0.00    +0.000 C 
ATOM     10  C   UNL     1      45.854  34.985  43.484  0.00  0.00    +0.000 C 
ATOM     11  C   UNL     1      45.815  33.874  42.462  0.00  0.00    +0.000 C 
ATOM     12  H   UNL     1      44.108  33.605  43.839  0.00  0.00    +0.000 HD
ATOM     13  H   UNL     1      46.778  35.226  43.998  0.00  0.00    +0.000 HD
ATOM     14  H   UNL     1      46.851  33.498  42.213  0.00  0.00    +0.000 HD
ATOM     15  H   UNL     1      45.229  34.025  41.553  0.00  0.00    +0.000 HD
BRANCH  10  16
ATOM     16  C   UNL     1      44.837  36.071  43.244  0.00  0.00    +0.000 C 
ATOM     17  F   UNL     1      45.368  37.327  43.244  0.00  0.00    +0.000 F 
ATOM     18  F   UNL     1      44.247  35.858  41.979  0.00  0.00    +0.000 F 
ATOM     19  F   UNL     1      43.785  35.969  44.141  0.00  0.00    +0.000 F 
ENDBRANCH  10  16
ENDBRANCH   1   9
BRANCH   5  20
ATOM     20  O   UNL     1      46.322  32.922  48.385  0.00  0.00    +0.000 OA
BRANCH  20  23
ATOM     21  H   UNL     1      46.468  30.195  48.491  0.00  0.00    +0.000 HD
ATOM     22  N   UNL     1      46.957  30.837  49.180  0.00  0.00    +0.000 N 
ATOM     23  C   UNL     1      47.026  32.179  49.320  0.00  0.00    +0.000 A 
ATOM     24  N   UNL     1      47.812  32.428  50.400  0.00  0.00    +0.000 NA
ATOM     25  C   UNL     1      48.224  31.253  50.920  0.00  0.00    +0.000 A 
ATOM     26  C   UNL     1      49.034  31.011  52.017  0.00  0.00    +0.000 A 
ATOM     27  N   UNL     1      49.323  29.739  52.367  0.00  0.00    +0.000 NA
ATOM     28  C   UNL     1      48.786  28.745  51.601  0.00  0.00    +0.000 A 
ATOM     29  H   UNL     1      48.964  27.687  51.807  0.00  0.00    +0.000 HD
ATOM     30  N   UNL     1      47.999  28.983  50.536  0.00  0.00    +0.000 NA
ATOM     31  C   UNL     1      47.681  30.239  50.147  0.00  0.00    +0.000 A 
BRANCH  26  32
ATOM     32  N   UNL     1      49.572  32.088  52.787  0.00  0.00    +0.000 N 
ATOM     33  H   UNL     1      50.521  32.556  52.836  0.00  0.00    +0.000 HD
ATOM     34  H   UNL     1      48.739  32.363  53.371  0.00  0.00    +0.000 HD
ENDBRANCH  26  32
ENDBRANCH  20  23
ENDBRANCH   5  20
TORSDOF 5
