REMARK  Name = 
REMARK  11 active torsions:
REMARK  status: ('A' for Active; 'I' for Inactive)
REMARK    1  A    between atoms: O_1  and  C_3
REMARK    2  A    between atoms: O_1  and  P_11
REMARK    3  A    between atoms: C_2  and  O_7
REMARK    4  A    between atoms: O_7  and  C_8
REMARK    5  A    between atoms: C_8  and  C_9
REMARK    6  A    between atoms: P_11  and  O_12
REMARK    7  A    between atoms: P_11  and  O_13
REMARK    8  A    between atoms: O_13  and  C_18
REMARK    9  A    between atoms: C_14  and  O_20
REMARK   10  A    between atoms: O_20  and  C_37
REMARK   11  A    between atoms: C_40  and  N_41
REMARK                            x       y       z     vdW  Elec       q    Type
REMARK                         _______ _______ _______ _____ _____    ______ ____
ROOT
ATOM      1  O   UNL     1      47.165  32.999  46.947  0.00  0.00    +0.000 OA
ATOM      2  P   UNL     1      45.728  32.672  46.747  0.00  0.00    +0.000 P 
ENDROOT
BRANCH   2   3
ATOM      3  O   UNL     1      45.590  31.471  45.561  0.00  0.00    +0.000 OA
ATOM      4  H   UNL     1      46.146  31.745  44.803  0.00  0.00    +0.000 HD
ENDBRANCH   2   3
BRANCH   2   5
ATOM      5  O   UNL     1      45.154  32.103  48.186  0.00  0.00    +0.000 OA
BRANCH   5   7
ATOM      6  C   UNL     1      46.985  30.570  48.205  0.00  0.00    +0.000 C 
ATOM      7  C   UNL     1      45.529  30.796  48.366  0.00  0.00    +0.000 C 
ATOM      8  C   UNL     1      44.872  29.881  47.458  0.00  0.00    +0.000 C 
ATOM      9  O   UNL     1      45.746  28.822  47.177  0.00  0.00    +0.000 OA
ATOM     10  C   UNL     1      46.835  29.018  47.954  0.00  0.00    +0.000 C 
ATOM     11  H   UNL     1      47.440  30.771  47.220  0.00  0.00    +0.000 HD
ATOM     12  H   UNL     1      45.376  30.637  49.473  0.00  0.00    +0.000 HD
ATOM     13  H   UNL     1      44.169  29.293  48.152  0.00  0.00    +0.000 HD
ATOM     14  H   UNL     1      44.141  30.140  46.724  0.00  0.00    +0.000 HD
ATOM     15  H   UNL     1      46.683  28.619  48.999  0.00  0.00    +0.000 HD
ATOM     16  H   UNL     1      47.776  28.592  47.615  0.00  0.00    +0.000 HD
BRANCH   6  17
ATOM     17  O   UNL     1      47.758  30.732  49.291  0.00  0.00    +0.000 OA
BRANCH  17  18
ATOM     18  C   UNL     1      49.008  31.092  49.297  0.00  0.00    +0.000 C 
ATOM     19  H   UNL     1      49.374  32.071  49.108  0.00  0.00    +0.000 HD
ATOM     20  H   UNL     1      49.466  30.480  48.340  0.00  0.00    +0.000 HD
BRANCH  18  21
ATOM     21  C   UNL     1      49.735  30.328  50.391  0.00  0.00    +0.000 C 
ATOM     22  H   UNL     1      49.479  30.712  51.396  0.00  0.00    +0.000 HD
ATOM     23  H   UNL     1      49.461  29.262  50.256  0.00  0.00    +0.000 HD
ATOM     24  H   UNL     1      50.828  30.478  50.188  0.00  0.00    +0.000 HD
ENDBRANCH  18  21
ENDBRANCH  17  18
ENDBRANCH   6  17
ENDBRANCH   5   7
ENDBRANCH   2   5
BRANCH   2  25
ATOM     25  O   UNL     1      44.980  34.128  46.264  0.00  0.00    +0.000 OA
BRANCH  25  30
ATOM     26  C   UNL     1      44.977  36.389  43.479  0.00  0.00    +0.000 A 
ATOM     27  C   UNL     1      45.031  35.543  42.346  0.00  0.00    +0.000 A 
ATOM     28  C   UNL     1      45.069  34.156  42.606  0.00  0.00    +0.000 A 
ATOM     29  N   UNL     1      45.051  33.726  43.884  0.00  0.00    +0.000 NA
ATOM     30  C   UNL     1      44.999  34.568  44.928  0.00  0.00    +0.000 A 
ATOM     31  N   UNL     1      44.962  35.892  44.722  0.00  0.00    +0.000 NA
ATOM     32  H   UNL     1      45.044  35.901  41.331  0.00  0.00    +0.000 HD
ATOM     33  H   UNL     1      45.110  33.450  41.797  0.00  0.00    +0.000 HD
BRANCH  26  34
ATOM     34  O   UNL     1      44.941  37.735  43.270  0.00  0.00    +0.000 OA
BRANCH  34  37
ATOM     35  H   UNL     1      42.982  39.499  44.353  0.00  0.00    +0.000 HD
ATOM     36  N   UNL     1      43.949  39.518  44.738  0.00  0.00    +0.000 N 
ATOM     37  C   UNL     1      44.889  38.694  44.241  0.00  0.00    +0.000 A 
ATOM     38  N   UNL     1      46.025  38.946  44.931  0.00  0.00    +0.000 NA
ATOM     39  C   UNL     1      45.750  39.916  45.829  0.00  0.00    +0.000 A 
ATOM     40  C   UNL     1      46.500  40.579  46.797  0.00  0.00    +0.000 A 
ATOM     41  N   UNL     1      45.981  41.534  47.588  0.00  0.00    +0.000 NA
ATOM     42  C   UNL     1      44.673  41.872  47.444  0.00  0.00    +0.000 A 
ATOM     43  H   UNL     1      44.145  42.623  48.020  0.00  0.00    +0.000 HD
ATOM     44  N   UNL     1      43.905  41.246  46.507  0.00  0.00    +0.000 NA
ATOM     45  C   UNL     1      44.428  40.297  45.724  0.00  0.00    +0.000 A 
BRANCH  40  46
ATOM     46  N   UNL     1      47.880  40.237  46.965  0.00  0.00    +0.000 N 
ATOM     47  H   UNL     1      48.492  39.477  47.332  0.00  0.00    +0.000 HD
ATOM     48  H   UNL     1      48.433  41.047  46.577  0.00  0.00    +0.000 HD
ENDBRANCH  40  46
ENDBRANCH  34  37
ENDBRANCH  26  34
ENDBRANCH  25  30
ENDBRANCH   2  25
TORSDOF 11
