
 OpenBabel03252504003D

 39 43  0  0  0  0  0  0  0  0999 V2000
   46.6990   35.0730   42.7280 C   0  0  0  0  0  0  0  0  0  0  0  0
   45.7840   36.1330   42.7410 C   0  0  0  0  0  0  0  0  0  0  0  0
   44.8270   36.1530   43.7520 C   0  0  0  0  0  0  0  0  0  0  0  0
   44.8360   35.1510   44.6620 N   0  0  0  0  0  0  0  0  0  0  0  0
   45.7330   34.1470   44.6180 C   0  0  0  0  0  0  0  0  0  0  0  0
   46.6700   34.0990   43.6540 N   0  0  0  0  0  0  0  0  0  0  0  0
   45.8010   36.9250   41.9960 H   0  0  0  0  0  0  0  0  0  0  0  0
   44.1090   36.9680   43.7790 H   0  0  0  0  0  0  0  0  0  0  0  0
   46.0280   31.7820   45.1750 C   0  0  0  0  0  0  0  0  0  0  0  0
   45.7250   33.0680   45.6170 C   0  0  0  0  0  0  0  0  0  0  0  0
   45.4350   33.2790   46.9440 C   0  0  0  0  0  0  0  0  0  0  0  0
   45.4470   32.2170   47.8230 C   0  0  0  0  0  0  0  0  0  0  0  0
   45.2150   32.1040   49.1310 N   0  0  0  0  0  0  0  0  0  0  0  0
   45.3490   30.8430   49.5500 C   0  0  0  0  0  0  0  0  0  0  0  0
   45.6860   30.0730   48.4720 C   0  0  0  0  0  0  0  0  0  0  0  0
   45.7480   30.9340   47.3910 C   0  0  0  0  0  0  0  0  0  0  0  0
   46.0410   30.7180   46.0510 C   0  0  0  0  0  0  0  0  0  0  0  0
   46.2610   31.5930   44.1270 H   0  0  0  0  0  0  0  0  0  0  0  0
   45.2000   34.2820   47.2810 H   0  0  0  0  0  0  0  0  0  0  0  0
   44.9620   32.9150   49.7380 H   0  0  0  0  0  0  0  0  0  0  0  0
   45.2100   30.5000   50.5780 H   0  0  0  0  0  0  0  0  0  0  0  0
   45.8690   29.0280   48.4470 H   0  0  0  0  0  0  0  0  0  0  0  0
   46.2800   29.7370   45.6720 H   0  0  0  0  0  0  0  0  0  0  0  0
   47.6620   35.1120   41.6550 C   0  0  0  0  0  0  0  0  0  0  0  0
   48.7590   35.7660   41.6860 O   0  0  0  0  0  0  0  0  0  0  0  0
   45.5230   33.3880   40.8110 H   0  0  0  0  0  0  0  0  0  0  0  0
   46.3230   33.5870   40.1990 N   0  0  0  0  0  0  0  0  0  0  0  0
   47.4110   34.3600   40.4080 C   0  0  0  0  0  0  0  0  0  0  0  0
   48.1890   34.3150   39.3120 N   0  0  0  0  0  0  0  0  0  0  0  0
   47.6270   33.5260   38.3900 C   0  0  0  0  0  0  0  0  0  0  0  0
   47.8840   33.0720   37.1120 C   0  0  0  0  0  0  0  0  0  0  0  0
   47.0950   32.2520   36.4160 N   0  0  0  0  0  0  0  0  0  0  0  0
   45.9440   31.8180   36.9940 C   0  0  0  0  0  0  0  0  0  0  0  0
   45.2070   31.1570   36.5620 H   0  0  0  0  0  0  0  0  0  0  0  0
   45.6650   32.2430   38.2400 N   0  0  0  0  0  0  0  0  0  0  0  0
   46.4480   33.0660   38.9500 C   0  0  0  0  0  0  0  0  0  0  0  0
   49.0870   33.5190   36.4980 N   0  0  0  0  0  0  0  0  0  0  0  0
   49.0120   34.5410   36.2110 H   0  0  0  0  0  0  0  0  0  0  0  0
   50.0610   33.3480   36.1650 H   0  0  0  0  0  0  0  0  0  0  0  0
  1  2  2  0  0  0  0
  1  6  1  0  0  0  0
  2  3  1  0  0  0  0
  3  8  1  0  0  0  0
  3  4  2  0  0  0  0
  5  4  1  0  0  0  0
  5 10  1  0  0  0  0
  6  5  2  0  0  0  0
  7  2  1  0  0  0  0
  9 10  2  0  0  0  0
  9 17  1  0  0  0  0
 10 11  1  0  0  0  0
 11 19  1  0  0  0  0
 11 12  2  0  0  0  0
 12 13  1  0  0  0  0
 13 14  1  0  0  0  0
 13 20  1  0  0  0  0
 14 21  1  0  0  0  0
 15 14  2  0  0  0  0
 16 12  1  0  0  0  0
 16 15  1  0  0  0  0
 17 16  2  0  0  0  0
 18  9  1  0  0  0  0
 22 15  1  0  0  0  0
 23 17  1  0  0  0  0
 24 25  2  0  0  0  0
 24  1  1  0  0  0  0
 27 28  1  0  0  0  0
 27 26  1  0  0  0  0
 28 24  1  0  0  0  0
 29 28  2  0  0  0  0
 30 36  1  0  0  0  0
 30 29  1  0  0  0  0
 31 30  2  0  0  0  0
 32 33  2  0  0  0  0
 32 31  1  0  0  0  0
 33 35  1  0  0  0  0
 34 33  1  0  0  0  0
 35 36  2  0  0  0  0
 36 27  1  0  0  0  0
 37 31  1  0  0  0  0
 38 37  1  0  0  0  0
 39 37  1  0  0  0  0
M  END
>  <minimizedAffinity>
-6.93133116

>  <minimizedRMSD>
1.08688223

$$$$
