
     RDKit          3D

 43 46  0  0  0  0  0  0  0  0999 V2000
   45.2813   35.6142   44.2103 C   0  0  0  0  0  0  0  0  0  0  0  0
   46.2454   34.8634   43.5165 C   0  0  0  0  0  0  0  0  0  0  0  0
   46.7093   33.6677   44.0828 C   0  0  0  0  0  0  0  0  0  0  0  0
   46.2035   33.3072   45.2590 N   0  0  0  0  0  0  0  0  0  0  0  0
   45.2749   34.0419   45.9136 C   0  0  0  0  0  0  0  0  0  0  0  0
   44.8124   35.1957   45.3914 N   0  0  0  0  0  0  0  0  0  0  0  0
   48.6872   33.7747   42.5783 C   0  0  2  0  0  0  0  0  0  0  0  0
   47.7087   32.9319   43.3179 C   0  0  2  0  0  0  0  0  0  0  0  0
   47.1641   32.1550   42.2529 O   0  0  0  0  0  0  0  0  0  0  0  0
   48.3039   31.6660   41.6401 C   0  0  0  0  0  0  0  0  0  0  0  0
   49.4293   32.6427   41.8354 C   0  0  1  0  0  0  0  0  0  0  0  0
   49.4926   34.5423   43.3632 O   0  0  0  0  0  0  0  0  0  0  0  0
   49.9415   33.1523   40.6457 O   0  0  0  0  0  0  0  0  0  0  0  0
   44.8005   36.9005   43.5920 C   0  0  0  0  0  0  0  0  0  0  0  0
   45.3185   39.2634   44.4740 C   0  0  0  0  0  0  0  0  0  0  0  0
   45.6403   39.6190   43.3097 O   0  0  0  0  0  0  0  0  0  0  0  0
   44.9166   37.9202   44.6291 N   0  0  0  0  0  0  0  0  0  0  0  0
   46.5792   35.2537   42.5751 H   0  0  0  0  0  0  0  0  0  0  0  0
   44.9180   33.6860   46.8528 H   0  0  0  0  0  0  0  0  0  0  0  0
   48.2149   34.3473   41.7325 H   0  0  0  0  0  0  0  0  0  0  0  0
   48.2736   32.1880   43.9370 H   0  0  0  0  0  0  0  0  0  0  0  0
   48.1111   31.5794   40.5497 H   0  0  0  0  0  0  0  0  0  0  0  0
   48.5793   30.7029   42.0811 H   0  0  0  0  0  0  0  0  0  0  0  0
   50.2369   32.2546   42.4880 H   0  0  0  0  0  0  0  0  0  0  0  0
   49.7123   35.4318   43.0022 H   0  0  0  0  0  0  0  0  0  0  0  0
   50.2268   34.0713   40.8220 H   0  0  0  0  0  0  0  0  0  0  0  0
   45.4364   37.1516   42.7332 H   0  0  0  0  0  0  0  0  0  0  0  0
   43.7278   36.8025   43.3533 H   0  0  0  0  0  0  0  0  0  0  0  0
   44.6708   37.6195   45.6155 H   0  0  0  0  0  0  0  0  0  0  0  0
   45.7701   38.9331   47.3100 H   0  0  0  0  0  0  0  0  0  0  0  0
   45.5784   39.8628   46.9104 N   0  0  0  0  0  0  0  0  0  0  0  0
   45.3500   40.1678   45.6169 C   0  0  0  0  0  0  0  0  0  0  0  0
   45.1493   41.4976   45.5620 N   0  0  0  0  0  0  0  0  0  0  0  0
   45.2451   42.0423   46.7908 C   0  0  0  0  0  0  0  0  0  0  0  0
   45.1093   43.3609   47.1799 C   0  0  0  0  0  0  0  0  0  0  0  0
   44.8251   44.4117   46.2552 N   0  0  0  0  0  0  0  0  0  0  0  0
   44.4262   44.1002   45.3302 H   0  0  0  0  0  0  0  0  0  0  0  0
   45.2678   43.5746   48.5123 N   0  0  0  0  0  0  0  0  0  0  0  0
   45.5350   42.5930   49.3885 C   0  0  0  0  0  0  0  0  0  0  0  0
   45.6561   42.8033   50.4537 H   0  0  0  0  0  0  0  0  0  0  0  0
   45.6640   41.3029   48.9795 N   0  0  0  0  0  0  0  0  0  0  0  0
   45.5190   41.0034   47.6564 C   0  0  0  0  0  0  0  0  0  0  0  0
   45.0479   45.3741   46.6073 H   0  0  0  0  0  0  0  0  0  0  0  0
  1  6  2  0
  2  3  2  0
  2  1  1  0
  3  4  1  0
  4  5  2  0
  6  5  1  0
  7  8  1  0
  7 12  1  0
  8  3  1  0
  9  8  1  0
 10 11  1  0
 10  9  1  0
 11  7  1  0
 13 11  1  0
 14  1  1  0
 14 17  1  0
 15 17  1  0
 16 15  2  0
  2 18  1  0
  5 19  1  0
  7 20  1  6
  8 21  1  1
 10 22  1  0
 10 23  1  0
 11 24  1  1
 12 25  1  0
 13 26  1  0
 14 27  1  0
 14 28  1  0
 17 29  1  0
 30 31  1  0
 31 32  1  0
 32 33  2  0
 33 34  1  0
 34 35  2  0
 35 36  1  0
 36 37  1  0
 35 38  1  0
 38 39  2  0
 39 40  1  0
 39 41  1  0
 41 42  2  0
 42 31  1  0
 42 34  1  0
 36 43  1  0
 15 32  1  0
M  ISO  8  18  14  19  14  20  13  21  13  22  13  23  13  24  13  25   3
M  ISO  6  26   3  27   8  28   8  30   9  37   5  40  16
M  END
>  <DihAtoms>  (1) 
16,14,31,30

>  <DihDeg>  (1) 
0.0014086797985305077

$$$$
