REMARK  Name = 
REMARK  7 active torsions:
REMARK  status: ('A' for Active; 'I' for Inactive)
REMARK    1  A    between atoms: C_1  and  C_7
REMARK    2  A    between atoms: C_5  and  O_8
REMARK    3  A    between atoms: O_8  and  P_10
REMARK    4  A    between atoms: P_10  and  O_11
REMARK    5  A    between atoms: P_10  and  O_12
REMARK    6  A    between atoms: O_12  and  C_21
REMARK    7  A    between atoms: C_24  and  N_25
REMARK                            x       y       z     vdW  Elec       q    Type
REMARK                         _______ _______ _______ _____ _____    ______ ____
ROOT
ATOM      1  O   UNL     1      45.327  31.715  49.440  0.00  0.00    +0.000 OA
ATOM      2  P   UNL     1      45.628  31.624  47.948  0.00  0.00    +0.000 P 
ENDROOT
BRANCH   2   3
ATOM      3  O   UNL     1      44.608  30.412  47.342  0.00  0.00    +0.000 OA
ATOM      4  H   UNL     1      45.092  29.549  47.250  0.00  0.00    +0.000 HD
ENDBRANCH   2   3
BRANCH   2   5
ATOM      5  O   UNL     1      45.301  33.145  47.294  0.00  0.00    +0.000 OA
BRANCH   5  10
ATOM      6  C   UNL     1      45.498  34.910  44.154  0.00  0.00    +0.000 A 
ATOM      7  C   UNL     1      46.548  34.226  43.515  0.00  0.00    +0.000 A 
ATOM      8  C   UNL     1      47.146  33.166  44.221  0.00  0.00    +0.000 A 
ATOM      9  N   UNL     1      46.676  32.875  45.460  0.00  0.00    +0.000 NA
ATOM     10  C   UNL     1      45.665  33.568  46.019  0.00  0.00    +0.000 A 
ATOM     11  N   UNL     1      45.074  34.589  45.365  0.00  0.00    +0.000 NA
ATOM     12  H   UNL     1      46.898  34.484  42.526  0.00  0.00    +0.000 HD
ATOM     13  H   UNL     1      47.957  32.616  43.762  0.00  0.00    +0.000 HD
BRANCH   6  14
ATOM     14  C   UNL     1      44.868  36.044  43.388  0.00  0.00    +0.000 C 
ATOM     15  H   UNL     1      43.792  36.154  43.646  0.00  0.00    +0.000 HD
ATOM     16  H   UNL     1      45.023  35.904  42.292  0.00  0.00    +0.000 HD
ATOM     17  H   UNL     1      45.412  36.958  43.710  0.00  0.00    +0.000 HD
ENDBRANCH   6  14
ENDBRANCH   5  10
ENDBRANCH   2   5
BRANCH   2  18
ATOM     18  O   UNL     1      47.212  31.164  47.641  0.00  0.00    +0.000 OA
BRANCH  18  21
ATOM     19  H   UNL     1      46.979  30.096  50.284  0.00  0.00    +0.000 HD
ATOM     20  N   UNL     1      47.924  30.151  49.892  0.00  0.00    +0.000 N 
ATOM     21  C   UNL     1      48.011  30.655  48.652  0.00  0.00    +0.000 A 
ATOM     22  N   UNL     1      49.307  30.657  48.290  0.00  0.00    +0.000 NA
ATOM     23  C   UNL     1      50.092  30.163  49.268  0.00  0.00    +0.000 A 
ATOM     24  C   UNL     1      51.421  29.907  49.522  0.00  0.00    +0.000 A 
ATOM     25  N   UNL     1      51.840  29.374  50.693  0.00  0.00    +0.000 NA
ATOM     26  C   UNL     1      50.888  29.101  51.614  0.00  0.00    +0.000 A 
ATOM     27  H   UNL     1      51.260  28.680  52.531  0.00  0.00    +0.000 HD
ATOM     28  N   UNL     1      49.557  29.330  51.428  0.00  0.00    +0.000 NA
ATOM     29  C   UNL     1      49.187  29.859  50.251  0.00  0.00    +0.000 A 
BRANCH  24  30
ATOM     30  N   UNL     1      52.332  30.236  48.476  0.00  0.00    +0.000 N 
ATOM     31  H   UNL     1      52.575  29.937  47.511  0.00  0.00    +0.000 HD
ATOM     32  H   UNL     1      52.929  31.035  48.821  0.00  0.00    +0.000 HD
ENDBRANCH  24  30
ENDBRANCH  18  21
ENDBRANCH   2  18
TORSDOF 7
