
 OpenBabel03242519163D

 47 51  0  0  1  0  0  0  0  0999 V2000
   48.3970   34.1890   40.9480 C   0  0  0  0  0  0  0  0  0  0  0  0
   47.9150   34.4200   39.6810 C   0  0  0  0  0  0  0  0  0  0  0  0
   48.2140   33.5970   38.5860 C   0  0  0  0  0  0  0  0  0  0  0  0
   49.0240   32.5400   38.8570 N   0  0  0  0  0  0  0  0  0  0  0  0
   49.4920   32.3180   40.0940 C   0  0  0  0  0  0  0  0  0  0  0  0
   49.1810   33.1300   41.1100 N   0  0  0  0  0  0  0  0  0  0  0  0
   47.2670   35.2900   39.5340 H   0  0  0  0  0  0  0  0  0  0  0  0
   47.8150   33.8120   37.6040 H   0  0  0  0  0  0  0  0  0  0  0  0
   50.3620   31.1360   40.4080 C   0  0  2  0  0  0  0  0  0  0  0  0
   50.3820   30.6260   41.8160 C   0  0  0  0  0  0  0  0  0  0  0  0
   51.5690   31.4080   41.2340 C   0  0  1  0  0  0  0  0  0  0  0  0
   50.5090   30.5040   39.5200 H   0  0  0  0  0  0  0  0  0  0  0  0
   49.7640   31.1540   42.5650 H   0  0  0  0  0  0  0  0  0  0  0  0
   50.4840   29.5340   41.9710 H   0  0  0  0  0  0  0  0  0  0  0  0
   51.7950   32.3920   41.6560 H   0  0  0  0  0  0  0  0  0  0  0  0
   52.7080   30.5570   40.9550 N   0  0  0  0  0  0  0  0  0  0  0  0
   53.2180   29.5710   41.7430 C   0  0  0  0  0  0  0  0  0  0  0  0
   52.8540   29.2590   42.7130 H   0  0  0  0  0  0  0  0  0  0  0  0
   54.2930   29.0010   41.1270 N   0  0  0  0  0  0  0  0  0  0  0  0
   54.4680   29.6280   39.9390 C   0  0  0  0  0  0  0  0  0  0  0  0
   55.3610   29.5200   38.8750 C   0  0  0  0  0  0  0  0  0  0  0  0
   55.2710   30.3180   37.7950 N   0  0  0  0  0  0  0  0  0  0  0  0
   54.3170   31.2430   37.7080 C   0  0  0  0  0  0  0  0  0  0  0  0
   54.1300   31.9440   36.9070 H   0  0  0  0  0  0  0  0  0  0  0  0
   53.4490   31.3570   38.7270 N   0  0  0  0  0  0  0  0  0  0  0  0
   53.4810   30.5920   39.8410 C   0  0  0  0  0  0  0  0  0  0  0  0
   56.3780   28.5560   38.9340 N   0  0  0  0  0  0  0  0  0  0  0  0
   56.4550   27.7580   39.5720 H   0  0  0  0  0  0  0  0  0  0  0  0
   57.2000   28.5940   38.2660 H   0  0  0  0  0  0  0  0  0  0  0  0
   48.0640   35.0440   42.0640 C   0  0  0  0  0  0  0  0  0  0  0  0
   48.7210   34.8580   42.9430 H   0  0  0  0  0  0  0  0  0  0  0  0
   48.2610   36.1100   41.7780 H   0  0  0  0  0  0  0  0  0  0  0  0
   46.6070   34.9260   42.3810 C   0  0  0  0  0  0  0  0  0  0  0  0
   46.0670   35.8900   42.3180 H   0  0  0  0  0  0  0  0  0  0  0  0
   46.1010   34.2460   41.6640 H   0  0  0  0  0  0  0  0  0  0  0  0
   44.6220   36.3460   44.1010 Cl  0  0  0  0  0  0  0  0  0  0  0  0
   45.4510   34.9120   44.6110 C   0  0  0  0  0  0  0  0  0  0  0  0
   46.3470   34.3400   43.7340 C   0  0  0  0  0  0  0  0  0  0  0  0
   47.0100   33.1940   44.1400 C   0  0  0  0  0  0  0  0  0  0  0  0
   46.7790   32.6460   45.3830 C   0  0  0  0  0  0  0  0  0  0  0  0
   45.8700   33.2300   46.2660 C   0  0  0  0  0  0  0  0  0  0  0  0
   45.2110   34.3760   45.8520 C   0  0  0  0  0  0  0  0  0  0  0  0
   47.7150   32.7050   43.5080 H   0  0  0  0  0  0  0  0  0  0  0  0
   47.3160   31.7430   45.6730 H   0  0  0  0  0  0  0  0  0  0  0  0
   45.6790   32.8100   47.2440 H   0  0  0  0  0  0  0  0  0  0  0  0
   44.2850   35.0320   46.6620 O   0  0  0  0  0  0  0  0  0  0  0  0
   43.8780   34.4640   47.4100 H   0  0  0  0  0  0  0  0  0  0  0  0
  1  6  1  0  0  0  0
  1 30  1  0  0  0  0
  2  1  2  0  0  0  0
  3  4  2  0  0  0  0
  3  2  1  0  0  0  0
  4  5  1  0  0  0  0
  5  9  1  0  0  0  0
  5  6  2  0  0  0  0
  7  2  1  0  0  0  0
  8  3  1  0  0  0  0
  9 12  1  6  0  0  0
  9 11  1  0  0  0  0
  9 10  1  0  0  0  0
 10 14  1  0  0  0  0
 10 13  1  0  0  0  0
 11 15  1  1  0  0  0
 11 10  1  0  0  0  0
 16 11  1  0  0  0  0
 16 17  1  0  0  0  0
 17 18  1  0  0  0  0
 19 17  2  0  0  0  0
 20 19  1  0  0  0  0
 21 27  1  0  0  0  0
 21 20  2  0  0  0  0
 22 21  1  0  0  0  0
 23 22  2  0  0  0  0
 23 25  1  0  0  0  0
 24 23  1  0  0  0  0
 25 26  2  0  0  0  0
 26 20  1  0  0  0  0
 26 16  1  0  0  0  0
 27 28  1  0  0  0  0
 29 27  1  0  0  0  0
 30 33  1  0  0  0  0
 30 31  1  0  0  0  0
 32 30  1  0  0  0  0
 33 38  1  0  0  0  0
 34 33  1  0  0  0  0
 35 33  1  0  0  0  0
 36 37  1  0  0  0  0
 37 42  1  0  0  0  0
 38 39  1  0  0  0  0
 38 37  2  0  0  0  0
 39 40  2  0  0  0  0
 40 44  1  0  0  0  0
 40 41  1  0  0  0  0
 41 45  1  0  0  0  0
 42 41  2  0  0  0  0
 42 46  1  0  0  0  0
 43 39  1  0  0  0  0
 46 47  1  0  0  0  0
M  END
>  <minimizedAffinity>
-6.36051559

>  <minimizedRMSD>
0.642216325

$$$$
