
 OpenBabel03242519413D

 34 36  0  0  0  0  0  0  0  0999 V2000
   47.9920   32.7610   41.9670 O   0  0  0  0  0  0  0  0  0  0  0  0
   47.0550   33.8510   41.3810 P   0  0  2  0  0  0  0  0  0  0  0  0
   45.4850   33.6420   42.0470 O   0  0  0  0  0  0  0  0  0  0  0  0
   44.3720   35.9180   44.6630 C   0  0  0  0  0  0  0  0  0  0  0  0
   44.6280   35.3830   43.3780 C   0  0  0  0  0  0  0  0  0  0  0  0
   45.2480   34.1300   43.3140 C   0  0  0  0  0  0  0  0  0  0  0  0
   45.5620   33.5070   44.4650 N   0  0  0  0  0  0  0  0  0  0  0  0
   45.3030   34.0440   45.6780 C   0  0  0  0  0  0  0  0  0  0  0  0
   44.7120   35.2420   45.7870 N   0  0  0  0  0  0  0  0  0  0  0  0
   43.8910   36.8900   44.7020 H   0  0  0  0  0  0  0  0  0  0  0  0
   44.3280   35.9790   42.5220 H   0  0  0  0  0  0  0  0  0  0  0  0
   45.6040   33.4450   46.5410 H   0  0  0  0  0  0  0  0  0  0  0  0
   46.9610   33.6590   39.7390 O   0  0  0  0  0  0  0  0  0  0  0  0
   45.9530   33.1810   38.9660 C   0  0  0  0  0  0  0  0  0  0  0  0
   46.3010   32.4110   37.8850 O   0  0  0  0  0  0  0  0  0  0  0  0
   44.1620   31.1970   37.8910 H   0  0  0  0  0  0  0  0  0  0  0  0
   43.7330   32.1110   38.2430 N   0  0  0  0  0  0  0  0  0  0  0  0
   44.4830   33.1150   38.7770 C   0  0  0  0  0  0  0  0  0  0  0  0
   43.5550   33.9990   39.0570 N   0  0  0  0  0  0  0  0  0  0  0  0
   42.3490   33.5290   38.7050 C   0  0  0  0  0  0  0  0  0  0  0  0
   41.2230   34.2870   38.9040 C   0  0  0  0  0  0  0  0  0  0  0  0
   40.0890   33.6530   38.4850 N   0  0  0  0  0  0  0  0  0  0  0  0
   40.0930   32.4240   37.9430 C   0  0  0  0  0  0  0  0  0  0  0  0
   39.1720   31.9480   37.6210 H   0  0  0  0  0  0  0  0  0  0  0  0
   41.2800   31.7610   37.7930 N   0  0  0  0  0  0  0  0  0  0  0  0
   42.4310   32.2790   38.1610 C   0  0  0  0  0  0  0  0  0  0  0  0
   41.1130   35.5880   39.4650 N   0  0  0  0  0  0  0  0  0  0  0  0
   40.8010   35.5350   40.4540 H   0  0  0  0  0  0  0  0  0  0  0  0
   41.3340   36.4570   38.9040 H   0  0  0  0  0  0  0  0  0  0  0  0
   47.6470   35.3170   41.8770 O   0  0  0  0  0  0  0  0  0  0  0  0
   48.9030   35.5870   41.3450 C   0  0  0  0  0  0  0  0  0  0  0  0
   49.3820   36.8270   41.7280 F   0  0  0  0  0  0  0  0  0  0  0  0
   49.7700   34.5800   41.6310 F   0  0  0  0  0  0  0  0  0  0  0  0
   48.7300   35.6450   39.9640 F   0  0  0  0  0  0  0  0  0  0  0  0
  2 30  1  0  0  0  0
  2  1  2  1  0  0  0
  2  3  1  0  0  0  0
  3  6  1  0  0  0  0
  4 10  1  0  0  0  0
  4  9  1  0  0  0  0
  5  4  2  0  0  0  0
  6  5  1  0  0  0  0
  6  7  2  0  0  0  0
  7  8  1  0  0  0  0
  8  9  2  0  0  0  0
  8 12  1  0  0  0  0
 11  5  1  0  0  0  0
 13  2  1  0  0  0  0
 14 13  1  0  0  0  0
 15 14  2  0  0  0  0
 16 17  1  0  0  0  0
 17 18  1  0  0  0  0
 18 14  1  0  0  0  0
 18 19  2  0  0  0  0
 20 21  1  0  0  0  0
 20 19  1  0  0  0  0
 21 27  1  0  0  0  0
 22 21  2  0  0  0  0
 23 22  1  0  0  0  0
 24 23  1  0  0  0  0
 25 23  2  0  0  0  0
 25 26  1  0  0  0  0
 26 17  1  0  0  0  0
 26 20  2  0  0  0  0
 27 28  1  0  0  0  0
 29 27  1  0  0  0  0
 31 33  1  0  0  0  0
 31 32  1  0  0  0  0
 31 30  1  0  0  0  0
 34 31  1  0  0  0  0
M  END
>  <minimizedAffinity>
-5.87403059

>  <minimizedRMSD>
3.70264792

$$$$
