
     RDKit          3D

 27 29  0  0  0  0  0  0  0  0999 V2000
   44.5333   36.0014   44.5214 C   0  0  0  0  0  0  0  0  0  0  0  0
   45.2129   35.8908   43.3213 C   0  0  0  0  0  0  0  0  0  0  0  0
   46.0982   34.8306   43.1869 C   0  0  0  0  0  0  0  0  0  0  0  0
   46.2775   33.9464   44.2038 N   0  0  0  0  0  0  0  0  0  0  0  0
   45.5937   34.0874   45.3650 C   0  0  0  0  0  0  0  0  0  0  0  0
   44.7358   35.1099   45.5028 N   0  0  0  0  0  0  0  0  0  0  0  0
   45.8381   33.0895   46.4277 C   0  0  0  0  0  0  0  0  0  0  0  0
   46.5335   31.6239   45.6161 S   0  0  0  0  0  0  0  0  0  0  0  0
   43.8587   36.8451   44.5678 H   0  0  0  0  0  0  0  0  0  0  0  0
   45.1618   36.5205   42.4423 H   0  0  0  0  0  0  0  0  0  0  0  0
   46.7000   34.6197   42.3004 H   0  0  0  0  0  0  0  0  0  0  0  0
   44.9415   32.8439   47.0193 H   0  0  0  0  0  0  0  0  0  0  0  0
   46.5920   33.5746   47.1152 H   0  0  0  0  0  0  0  0  0  0  0  0
   45.0561   29.4557   47.3175 H   0  0  0  0  0  0  0  0  0  0  0  0
   46.0961   29.4584   47.4304 N   0  0  0  0  0  0  0  0  0  0  0  0
   46.8842   30.3240   46.7731 C   0  0  0  0  0  0  0  0  0  0  0  0
   48.1507   30.0557   47.1441 N   0  0  0  0  0  0  0  0  0  0  0  0
   48.1350   29.0469   48.0100 C   0  0  0  0  0  0  0  0  0  0  0  0
   49.1498   28.3991   48.6795 C   0  0  0  0  0  0  0  0  0  0  0  0
   50.4831   28.8353   48.4518 N   0  0  0  0  0  0  0  0  0  0  0  0
   50.7118   29.8663   48.3487 H   0  0  0  0  0  0  0  0  0  0  0  0
   48.8492   27.3827   49.5206 N   0  0  0  0  0  0  0  0  0  0  0  0
   47.5446   27.0218   49.6866 C   0  0  0  0  0  0  0  0  0  0  0  0
   47.4374   26.1994   50.3820 H   0  0  0  0  0  0  0  0  0  0  0  0
   46.5490   27.6450   49.0404 N   0  0  0  0  0  0  0  0  0  0  0  0
   46.8294   28.6492   48.2075 C   0  0  0  0  0  0  0  0  0  0  0  0
   51.4237   28.4105   48.3404 H   0  0  0  0  0  0  0  0  0  0  0  0
  1  6  2  0
  2  1  1  0
  3  2  2  0
  3  4  1  0
  4  5  2  0
  5  6  1  0
  5  7  1  0
  8  7  1  0
  1  9  1  0
  2 10  1  0
  3 11  1  0
  7 12  1  0
  7 13  1  0
 14 15  1  0
 15 16  1  0
 16 17  2  0
 17 18  1  0
 18 19  2  0
 19 20  1  0
 20 21  1  0
 19 22  1  0
 22 23  2  0
 23 24  1  0
 23 25  1  0
 25 26  2  0
 26 15  1  0
 26 18  1  0
 20 27  1  0
  8 16  1  0
M  ISO  8   9  14  10  14  11  14  12   8  13   8  14   9  21   5  24  16
M  END
>  <DihAtoms>  (1) 
6,7,15,14

>  <DihDeg>  (1) 
0.0010597309693682912

$$$$
