
     RDKit          3D

 43 46  0  0  0  0  0  0  0  0999 V2000
   45.2813   35.6142   44.2103 C   0  0  0  0  0  0  0  0  0  0  0  0
   46.2454   34.8634   43.5165 C   0  0  0  0  0  0  0  0  0  0  0  0
   46.7093   33.6677   44.0828 C   0  0  0  0  0  0  0  0  0  0  0  0
   46.2035   33.3072   45.2590 N   0  0  0  0  0  0  0  0  0  0  0  0
   45.2749   34.0419   45.9136 C   0  0  0  0  0  0  0  0  0  0  0  0
   44.8124   35.1957   45.3914 N   0  0  0  0  0  0  0  0  0  0  0  0
   48.6872   33.7747   42.5783 C   0  0  2  0  0  0  0  0  0  0  0  0
   47.7087   32.9319   43.3179 C   0  0  2  0  0  0  0  0  0  0  0  0
   47.1641   32.1550   42.2529 O   0  0  0  0  0  0  0  0  0  0  0  0
   48.3039   31.6660   41.6401 C   0  0  0  0  0  0  0  0  0  0  0  0
   49.4293   32.6427   41.8354 C   0  0  1  0  0  0  0  0  0  0  0  0
   49.4926   34.5423   43.3632 O   0  0  0  0  0  0  0  0  0  0  0  0
   49.9415   33.1523   40.6457 O   0  0  0  0  0  0  0  0  0  0  0  0
   44.8005   36.9005   43.5920 C   0  0  0  0  0  0  0  0  0  0  0  0
   45.3185   39.2634   44.4740 C   0  0  0  0  0  0  0  0  0  0  0  0
   45.6403   39.6190   43.3097 O   0  0  0  0  0  0  0  0  0  0  0  0
   44.9166   37.9202   44.6291 N   0  0  0  0  0  0  0  0  0  0  0  0
   46.5792   35.2537   42.5751 H   0  0  0  0  0  0  0  0  0  0  0  0
   44.9180   33.6860   46.8528 H   0  0  0  0  0  0  0  0  0  0  0  0
   48.2149   34.3473   41.7325 H   0  0  0  0  0  0  0  0  0  0  0  0
   48.2736   32.1880   43.9370 H   0  0  0  0  0  0  0  0  0  0  0  0
   48.1111   31.5794   40.5497 H   0  0  0  0  0  0  0  0  0  0  0  0
   48.5793   30.7029   42.0811 H   0  0  0  0  0  0  0  0  0  0  0  0
   50.2369   32.2546   42.4880 H   0  0  0  0  0  0  0  0  0  0  0  0
   49.7123   35.4318   43.0022 H   0  0  0  0  0  0  0  0  0  0  0  0
   50.2268   34.0713   40.8220 H   0  0  0  0  0  0  0  0  0  0  0  0
   45.4364   37.1516   42.7332 H   0  0  0  0  0  0  0  0  0  0  0  0
   43.7278   36.8025   43.3533 H   0  0  0  0  0  0  0  0  0  0  0  0
   44.6708   37.6195   45.6155 H   0  0  0  0  0  0  0  0  0  0  0  0
   43.4105   41.0624   45.6900 H   0  0  0  0  0  0  0  0  0  0  0  0
   44.3607   40.9617   46.0744 N   0  0  0  0  0  0  0  0  0  0  0  0
   45.3500   40.1678   45.6169 C   0  0  0  0  0  0  0  0  0  0  0  0
   46.4079   40.3618   46.4261 N   0  0  0  0  0  0  0  0  0  0  0  0
   46.1119   41.2602   47.3857 C   0  0  0  0  0  0  0  0  0  0  0  0
   46.9023   41.7429   48.4108 C   0  0  0  0  0  0  0  0  0  0  0  0
   48.2521   41.3195   48.6077 N   0  0  0  0  0  0  0  0  0  0  0  0
   48.7071   40.8659   47.7715 H   0  0  0  0  0  0  0  0  0  0  0  0
   46.2906   42.6520   49.2142 N   0  0  0  0  0  0  0  0  0  0  0  0
   45.0225   43.0557   49.0365 C   0  0  0  0  0  0  0  0  0  0  0  0
   44.5638   43.7893   49.7036 H   0  0  0  0  0  0  0  0  0  0  0  0
   44.2655   42.5649   48.0194 N   0  0  0  0  0  0  0  0  0  0  0  0
   44.8058   41.6472   47.1666 C   0  0  0  0  0  0  0  0  0  0  0  0
   48.6335   41.5105   49.5658 H   0  0  0  0  0  0  0  0  0  0  0  0
  1  6  2  0
  2  3  2  0
  2  1  1  0
  3  4  1  0
  4  5  2  0
  6  5  1  0
  7  8  1  0
  7 12  1  0
  8  3  1  0
  9  8  1  0
 10 11  1  0
 10  9  1  0
 11  7  1  0
 13 11  1  0
 14  1  1  0
 14 17  1  0
 15 17  1  0
 16 15  2  0
  2 18  1  0
  5 19  1  0
  7 20  1  6
  8 21  1  1
 10 22  1  0
 10 23  1  0
 11 24  1  1
 12 25  1  0
 13 26  1  0
 14 27  1  0
 14 28  1  0
 17 29  1  0
 30 31  1  0
 31 32  1  0
 32 33  2  0
 33 34  1  0
 34 35  2  0
 35 36  1  0
 36 37  1  0
 35 38  1  0
 38 39  2  0
 39 40  1  0
 39 41  1  0
 41 42  2  0
 42 31  1  0
 42 34  1  0
 36 43  1  0
 15 32  1  0
M  ISO  8  18  14  19  14  20  13  21  13  22  13  23  13  24  13  25   3
M  ISO  6  26   3  27   8  28   8  30   9  37   5  40  16
M  END
>  <DihAtoms>  (1) 
16,14,31,30

>  <DihDeg>  (1) 
0.0014086797985305077

$$$$
