REMARK  Name = 
REMARK  7 active torsions:
REMARK  status: ('A' for Active; 'I' for Inactive)
REMARK    1  A    between atoms: C_1  and  C_3
REMARK    2  A    between atoms: C_1  and  C_13
REMARK    3  A    between atoms: C_10  and  C_11
REMARK    4  A    between atoms: C_13  and  N_17
REMARK    5  A    between atoms: C_14  and  C_23
REMARK    6  A    between atoms: C_21  and  N_39
REMARK    7  A    between atoms: C_44  and  N_45
REMARK                            x       y       z     vdW  Elec       q    Type
REMARK                         _______ _______ _______ _____ _____    ______ ____
ROOT
ATOM      1  C   UNL     1      46.509  32.714  45.290  0.00  0.00    +0.000 A 
ATOM      2  C   UNL     1      47.257  31.720  44.623  0.00  0.00    +0.000 A 
ATOM      3  C   UNL     1      47.577  30.751  45.509  0.00  0.00    +0.000 A 
ATOM      4  N   UNL     1      47.048  31.130  46.682  0.00  0.00    +0.000 N 
ATOM      5  N   UNL     1      46.410  32.296  46.563  0.00  0.00    +0.000 NA
ATOM      6  H   UNL     1      47.571  31.661  43.570  0.00  0.00    +0.000 HD
ATOM      7  H   UNL     1      48.153  29.834  45.321  0.00  0.00    +0.000 HD
ENDROOT
BRANCH   1  12
ATOM      8  C   UNL     1      44.569  35.760  44.746  0.00  0.00    +0.000 A 
ATOM      9  C   UNL     1      44.990  36.178  43.486  0.00  0.00    +0.000 A 
ATOM     10  C   UNL     1      45.944  35.401  42.831  0.00  0.00    +0.000 A 
ATOM     11  N   UNL     1      46.399  34.302  43.450  0.00  0.00    +0.000 NA
ATOM     12  C   UNL     1      45.995  33.903  44.657  0.00  0.00    +0.000 A 
ATOM     13  N   UNL     1      45.072  34.648  45.299  0.00  0.00    +0.000 NA
ATOM     14  H   UNL     1      43.825  36.324  45.311  0.00  0.00    +0.000 HD
ATOM     15  H   UNL     1      44.590  37.074  43.031  0.00  0.00    +0.000 HD
BRANCH  10  16
ATOM     16  N   UNL     1      46.427  35.758  41.541  0.00  0.00    +0.000 N 
ATOM     17  C   UNL     1      47.066  36.902  41.254  0.00  0.00    +0.000 A 
ATOM     18  H   UNL     1      47.297  37.704  41.971  0.00  0.00    +0.000 HD
ATOM     19  N   UNL     1      47.390  36.930  39.941  0.00  0.00    +0.000 NA
ATOM     20  C   UNL     1      46.956  35.798  39.389  0.00  0.00    +0.000 A 
ATOM     21  C   UNL     1      47.024  35.320  38.092  0.00  0.00    +0.000 A 
ATOM     22  N   UNL     1      46.474  34.102  37.843  0.00  0.00    +0.000 NA
ATOM     23  C   UNL     1      45.882  33.384  38.834  0.00  0.00    +0.000 A 
ATOM     24  H   UNL     1      45.464  32.408  38.542  0.00  0.00    +0.000 HD
ATOM     25  N   UNL     1      45.830  33.873  40.085  0.00  0.00    +0.000 NA
ATOM     26  C   UNL     1      46.344  35.053  40.402  0.00  0.00    +0.000 A 
BRANCH  21  27
ATOM     27  N   UNL     1      47.656  36.114  37.092  0.00  0.00    +0.000 N 
ATOM     28  H   UNL     1      46.786  36.495  36.657  0.00  0.00    +0.000 HD
ATOM     29  H   UNL     1      48.642  36.309  36.813  0.00  0.00    +0.000 HD
ENDBRANCH  21  27
ENDBRANCH  10  16
ENDBRANCH   1  12
BRANCH   4  30
ATOM     30  C   UNL     1      47.143  30.384  47.930  0.00  0.00    +0.000 C 
ATOM     31  H   UNL     1      47.685  30.955  48.704  0.00  0.00    +0.000 HD
ATOM     32  H   UNL     1      47.683  29.441  47.768  0.00  0.00    +0.000 HD
BRANCH  30  33
ATOM     33  C   UNL     1      45.788  30.050  48.439  0.00  0.00    +0.000 C 
ATOM     34  H   UNL     1      45.918  29.724  49.510  0.00  0.00    +0.000 HD
ATOM     35  H   UNL     1      45.197  30.992  48.491  0.00  0.00    +0.000 HD
BRANCH  33  37
ATOM     36  C   UNL     1      45.000  27.653  48.009  0.00  0.00    +0.000 A 
ATOM     37  C   UNL     1      45.059  29.006  47.755  0.00  0.00    +0.000 A 
ATOM     38  C   UNL     1      44.298  29.449  46.668  0.00  0.00    +0.000 A 
ATOM     39  C   UNL     1      43.548  28.584  45.913  0.00  0.00    +0.000 A 
ATOM     40  N   UNL     1      42.738  28.724  44.836  0.00  0.00    +0.000 N 
ATOM     41  C   UNL     1      42.223  27.553  44.459  0.00  0.00    +0.000 A 
ATOM     42  C   UNL     1      42.701  26.565  45.315  0.00  0.00    +0.000 A 
ATOM     43  C   UNL     1      43.502  27.248  46.179  0.00  0.00    +0.000 A 
ATOM     44  C   UNL     1      44.248  26.797  47.250  0.00  0.00    +0.000 A 
ATOM     45  H   UNL     1      45.607  27.343  48.866  0.00  0.00    +0.000 HD
ATOM     46  H   UNL     1      44.252  30.488  46.355  0.00  0.00    +0.000 HD
ATOM     47  H   UNL     1      42.554  29.655  44.373  0.00  0.00    +0.000 HD
ATOM     48  H   UNL     1      41.547  27.428  43.620  0.00  0.00    +0.000 HD
ATOM     49  H   UNL     1      42.440  25.538  45.230  0.00  0.00    +0.000 HD
BRANCH  44  50
ATOM     50  C   UNL     1      44.249  25.375  47.599  0.00  0.00    +0.000 C 
ATOM     51  O   UNL     1      44.932  24.924  48.551  0.00  0.00    +0.000 OA
ATOM     52  H   UNL     1      43.651  24.659  47.035  0.00  0.00    +0.000 HD
ENDBRANCH  44  50
ENDBRANCH  33  37
ENDBRANCH  30  33
ENDBRANCH   4  30
TORSDOF 7
