REMARK  Name = 
REMARK  7 active torsions:
REMARK  status: ('A' for Active; 'I' for Inactive)
REMARK    1  A    between atoms: C_1  and  C_4
REMARK    2  A    between atoms: C_1  and  O_8
REMARK    3  A    between atoms: O_8  and  P_10
REMARK    4  A    between atoms: P_10  and  O_11
REMARK    5  A    between atoms: P_10  and  O_12
REMARK    6  A    between atoms: O_12  and  C_21
REMARK    7  A    between atoms: C_24  and  N_25
REMARK                            x       y       z     vdW  Elec       q    Type
REMARK                         _______ _______ _______ _____ _____    ______ ____
ROOT
ATOM      1  O   UNL     1      50.657  33.111  41.908  0.00  0.00    +0.000 OA
ATOM      2  P   UNL     1      49.626  34.159  42.229  0.00  0.00    +0.000 P 
ENDROOT
BRANCH   2   3
ATOM      3  O   UNL     1      50.209  35.363  43.249  0.00  0.00    +0.000 OA
ATOM      4  H   UNL     1      51.089  35.171  43.643  0.00  0.00    +0.000 HD
ENDBRANCH   2   3
BRANCH   2   5
ATOM      5  O   UNL     1      48.313  33.411  43.011  0.00  0.00    +0.000 OA
BRANCH   5   6
ATOM      6  C   UNL     1      47.167  33.985  42.477  0.00  0.00    +0.000 C 
ATOM      7  H   UNL     1      46.683  33.214  41.813  0.00  0.00    +0.000 HD
ATOM      8  H   UNL     1      47.363  34.841  41.802  0.00  0.00    +0.000 HD
BRANCH   6  11
ATOM      9  C   UNL     1      45.293  34.226  45.694  0.00  0.00    +0.000 A 
ATOM     10  C   UNL     1      46.170  33.747  44.699  0.00  0.00    +0.000 A 
ATOM     11  C   UNL     1      46.264  34.461  43.525  0.00  0.00    +0.000 A 
ATOM     12  N   UNL     1      45.512  35.596  43.368  0.00  0.00    +0.000 NA
ATOM     13  C   UNL     1      44.680  36.027  44.347  0.00  0.00    +0.000 A 
ATOM     14  N   UNL     1      44.569  35.349  45.500  0.00  0.00    +0.000 NA
ATOM     15  H   UNL     1      45.163  33.724  46.641  0.00  0.00    +0.000 HD
ATOM     16  H   UNL     1      46.729  32.837  44.909  0.00  0.00    +0.000 HD
ATOM     17  H   UNL     1      44.088  36.928  44.211  0.00  0.00    +0.000 HD
ENDBRANCH   6  11
ENDBRANCH   5   6
ENDBRANCH   2   5
BRANCH   2  18
ATOM     18  O   UNL     1      49.060  34.791  40.780  0.00  0.00    +0.000 OA
BRANCH  18  21
ATOM     19  H   UNL     1      49.803  35.534  38.153  0.00  0.00    +0.000 HD
ATOM     20  N   UNL     1      49.857  36.231  38.931  0.00  0.00    +0.000 N 
ATOM     21  C   UNL     1      49.525  35.965  40.204  0.00  0.00    +0.000 A 
ATOM     22  N   UNL     1      49.724  37.104  40.914  0.00  0.00    +0.000 NA
ATOM     23  C   UNL     1      50.176  38.065  40.085  0.00  0.00    +0.000 A 
ATOM     24  C   UNL     1      50.550  39.383  40.183  0.00  0.00    +0.000 A 
ATOM     25  N   UNL     1      50.977  40.121  39.139  0.00  0.00    +0.000 NA
ATOM     26  C   UNL     1      51.053  39.560  37.909  0.00  0.00    +0.000 A 
ATOM     27  H   UNL     1      51.372  40.011  36.979  0.00  0.00    +0.000 HD
ATOM     28  N   UNL     1      50.691  38.280  37.807  0.00  0.00    +0.000 NA
ATOM     29  C   UNL     1      50.261  37.515  38.827  0.00  0.00    +0.000 A 
BRANCH  24  30
ATOM     30  N   UNL     1      50.486  40.013  41.457  0.00  0.00    +0.000 N 
ATOM     31  H   UNL     1      49.509  40.212  41.789  0.00  0.00    +0.000 HD
ATOM     32  H   UNL     1      50.975  40.412  42.300  0.00  0.00    +0.000 HD
ENDBRANCH  24  30
ENDBRANCH  18  21
ENDBRANCH   2  18
TORSDOF 7
