
     RDKit          3D

 27 29  0  0  0  0  0  0  0  0999 V2000
   44.5333   36.0014   44.5214 C   0  0  0  0  0  0  0  0  0  0  0  0
   45.2129   35.8908   43.3213 C   0  0  0  0  0  0  0  0  0  0  0  0
   46.0982   34.8306   43.1869 C   0  0  0  0  0  0  0  0  0  0  0  0
   46.2775   33.9464   44.2038 N   0  0  0  0  0  0  0  0  0  0  0  0
   45.5937   34.0874   45.3650 C   0  0  0  0  0  0  0  0  0  0  0  0
   44.7358   35.1099   45.5028 N   0  0  0  0  0  0  0  0  0  0  0  0
   45.8381   33.0895   46.4277 C   0  0  0  0  0  0  0  0  0  0  0  0
   46.5335   31.6239   45.6161 S   0  0  0  0  0  0  0  0  0  0  0  0
   43.8587   36.8451   44.5678 H   0  0  0  0  0  0  0  0  0  0  0  0
   45.1618   36.5205   42.4423 H   0  0  0  0  0  0  0  0  0  0  0  0
   46.7000   34.6197   42.3004 H   0  0  0  0  0  0  0  0  0  0  0  0
   44.9415   32.8439   47.0193 H   0  0  0  0  0  0  0  0  0  0  0  0
   46.5920   33.5746   47.1152 H   0  0  0  0  0  0  0  0  0  0  0  0
   45.7462   28.6565   46.2104 H   0  0  0  0  0  0  0  0  0  0  0  0
   46.4379   29.0624   46.8820 N   0  0  0  0  0  0  0  0  0  0  0  0
   46.8842   30.3240   46.7731 C   0  0  0  0  0  0  0  0  0  0  0  0
   47.7512   30.5185   47.7851 N   0  0  0  0  0  0  0  0  0  0  0  0
   47.8318   29.3981   48.4966 C   0  0  0  0  0  0  0  0  0  0  0  0
   48.5655   29.0759   49.6170 C   0  0  0  0  0  0  0  0  0  0  0  0
   49.4134   30.0745   50.1683 N   0  0  0  0  0  0  0  0  0  0  0  0
   49.1084   31.0899   50.2095 H   0  0  0  0  0  0  0  0  0  0  0  0
   48.4573   27.8367   50.1495 N   0  0  0  0  0  0  0  0  0  0  0  0
   47.6218   26.9325   49.5629 C   0  0  0  0  0  0  0  0  0  0  0  0
   47.6248   25.9827   50.0817 H   0  0  0  0  0  0  0  0  0  0  0  0
   46.9031   27.2350   48.4725 N   0  0  0  0  0  0  0  0  0  0  0  0
   46.9990   28.4529   47.9356 C   0  0  0  0  0  0  0  0  0  0  0  0
   50.3565   30.1322   50.5981 H   0  0  0  0  0  0  0  0  0  0  0  0
  1  6  2  0
  2  1  1  0
  3  2  2  0
  3  4  1  0
  4  5  2  0
  5  6  1  0
  5  7  1  0
  8  7  1  0
  1  9  1  0
  2 10  1  0
  3 11  1  0
  7 12  1  0
  7 13  1  0
 14 15  1  0
 15 16  1  0
 16 17  2  0
 17 18  1  0
 18 19  2  0
 19 20  1  0
 20 21  1  0
 19 22  1  0
 22 23  2  0
 23 24  1  0
 23 25  1  0
 25 26  2  0
 26 15  1  0
 26 18  1  0
 20 27  1  0
  8 16  1  0
M  ISO  8   9  14  10  14  11  14  12   8  13   8  14   9  21   5  24  16
M  END
>  <DihAtoms>  (1) 
6,7,15,14

>  <DihDeg>  (1) 
0.0010597309693682912

$$$$
