
 OpenBabel03252503453D

 49 53  0  0  1  0  0  0  0  0999 V2000
   45.9430   35.5750   42.7410 C   0  0  0  0  0  0  0  0  0  0  0  0
   46.9270   35.4960   42.2370 H   0  0  0  0  0  0  0  0  0  0  0  0
   45.8610   36.6500   43.0290 H   0  0  0  0  0  0  0  0  0  0  0  0
   44.8970   35.1860   41.7850 C   0  0  0  0  0  0  0  0  0  0  0  0
   43.5950   35.6280   41.8140 C   0  0  0  0  0  0  0  0  0  0  0  0
   42.6510   35.2300   40.9000 C   0  0  0  0  0  0  0  0  0  0  0  0
   43.0170   34.3520   39.9130 C   0  0  0  0  0  0  0  0  0  0  0  0
   44.3310   33.8900   39.8640 C   0  0  0  0  0  0  0  0  0  0  0  0
   45.2820   34.3040   40.8000 C   0  0  0  0  0  0  0  0  0  0  0  0
   43.3750   36.3170   42.6180 H   0  0  0  0  0  0  0  0  0  0  0  0
   41.6520   35.6370   41.0090 H   0  0  0  0  0  0  0  0  0  0  0  0
   42.2330   34.0770   39.2270 H   0  0  0  0  0  0  0  0  0  0  0  0
   44.4570   33.2040   39.0250 H   0  0  0  0  0  0  0  0  0  0  0  0
   46.5180   33.6850   40.4820 N   0  0  0  0  0  0  0  0  0  0  0  0
   47.5810   34.2310   39.8630 C   0  0  0  0  0  0  0  0  0  0  0  0
   47.7010   35.2370   39.4890 H   0  0  0  0  0  0  0  0  0  0  0  0
   48.5520   33.3300   39.7430 N   0  0  0  0  0  0  0  0  0  0  0  0
   48.1350   32.1700   40.2870 C   0  0  0  0  0  0  0  0  0  0  0  0
   48.6620   30.9270   40.4610 C   0  0  0  0  0  0  0  0  0  0  0  0
   47.9840   29.9230   41.0650 N   0  0  0  0  0  0  0  0  0  0  0  0
   46.7200   30.1530   41.5200 C   0  0  0  0  0  0  0  0  0  0  0  0
   46.1160   29.4000   42.0140 H   0  0  0  0  0  0  0  0  0  0  0  0
   46.1850   31.3680   41.3590 N   0  0  0  0  0  0  0  0  0  0  0  0
   46.8360   32.3850   40.7630 C   0  0  0  0  0  0  0  0  0  0  0  0
   49.9840   30.7430   39.9660 N   0  0  0  0  0  0  0  0  0  0  0  0
   50.8910   30.2830   40.1790 H   0  0  0  0  0  0  0  0  0  0  0  0
   50.2740   31.1770   39.0710 H   0  0  0  0  0  0  0  0  0  0  0  0
   45.0070   34.8870   44.9280 C   0  0  0  0  0  0  0  0  0  0  0  0
   45.9220   34.6970   43.8980 C   0  0  0  0  0  0  0  0  0  0  0  0
   46.8100   33.6300   44.0280 C   0  0  0  0  0  0  0  0  0  0  0  0
   46.7780   32.8160   45.1100 N   0  0  0  0  0  0  0  0  0  0  0  0
   45.8730   33.0350   46.0900 C   0  0  0  0  0  0  0  0  0  0  0  0
   44.9850   34.0660   46.0090 N   0  0  0  0  0  0  0  0  0  0  0  0
   44.3060   35.6870   44.8810 H   0  0  0  0  0  0  0  0  0  0  0  0
   47.5660   33.3810   43.3340 H   0  0  0  0  0  0  0  0  0  0  0  0
   47.3200   31.8000   47.6920 C   0  0  2  0  0  0  0  0  0  0  0  0
   45.8680   32.1280   47.2400 C   0  0  1  0  0  0  0  0  0  0  0  0
   45.3960   32.6430   48.3980 O   0  0  0  0  0  0  0  0  0  0  0  0
   45.7750   31.8180   49.4170 C   0  0  0  0  0  0  0  0  0  0  0  0
   46.9500   30.9870   48.9400 C   0  0  2  0  0  0  0  0  0  0  0  0
   47.8340   31.1840   46.9360 H   0  0  0  0  0  0  0  0  0  0  0  0
   45.3600   31.1560   47.0210 H   0  0  0  0  0  0  0  0  0  0  0  0
   46.0830   32.4390   50.2830 H   0  0  0  0  0  0  0  0  0  0  0  0
   44.9020   31.1620   49.6780 H   0  0  0  0  0  0  0  0  0  0  0  0
   46.5840   29.9860   48.6650 H   0  0  0  0  0  0  0  0  0  0  0  0
   47.9450   32.9170   48.1090 O   0  0  0  0  0  0  0  0  0  0  0  0
   48.9380   32.7530   48.0540 H   0  0  0  0  0  0  0  0  0  0  0  0
   47.9690   30.8870   49.8390 O   0  0  0  0  0  0  0  0  0  0  0  0
   48.7650   31.4350   49.6120 H   0  0  0  0  0  0  0  0  0  0  0  0
  1  3  1  0  0  0  0
  1 29  1  0  0  0  0
  2  1  1  0  0  0  0
  4  5  1  0  0  0  0
  4  1  1  0  0  0  0
  5 10  1  0  0  0  0
  6 11  1  0  0  0  0
  6  5  2  0  0  0  0
  7  6  1  0  0  0  0
  8  7  2  0  0  0  0
  8  9  1  0  0  0  0
  9  4  2  0  0  0  0
 12  7  1  0  0  0  0
 13  8  1  0  0  0  0
 14 24  1  0  0  0  0
 14  9  1  0  0  0  0
 15 14  1  0  0  0  0
 16 15  1  0  0  0  0
 17 15  2  0  0  0  0
 17 18  1  0  0  0  0
 18 19  2  0  0  0  0
 18 24  1  0  0  0  0
 19 20  1  0  0  0  0
 20 21  2  0  0  0  0
 21 22  1  0  0  0  0
 23 21  1  0  0  0  0
 24 23  2  0  0  0  0
 25 26  1  0  0  0  0
 25 19  1  0  0  0  0
 27 25  1  0  0  0  0
 28 33  1  0  0  0  0
 29 30  1  0  0  0  0
 29 28  2  0  0  0  0
 30 31  2  0  0  0  0
 31 32  1  0  0  0  0
 32 37  1  0  0  0  0
 33 32  2  0  0  0  0
 34 28  1  0  0  0  0
 35 30  1  0  0  0  0
 36 41  1  6  0  0  0
 36 46  1  0  0  0  0
 36 40  1  0  0  0  0
 37 42  1  6  0  0  0
 37 36  1  0  0  0  0
 37 38  1  0  0  0  0
 38 39  1  0  0  0  0
 39 44  1  0  0  0  0
 39 43  1  0  0  0  0
 40 45  1  6  0  0  0
 40 39  1  0  0  0  0
 40 48  1  0  0  0  0
 47 46  1  0  0  0  0
 49 48  1  0  0  0  0
M  END
>  <minimizedAffinity>
-7.09105206

>  <minimizedRMSD>
0.356535614

$$$$
