REMARK  Name = 
REMARK  4 active torsions:
REMARK  status: ('A' for Active; 'I' for Inactive)
REMARK    1  A    between atoms: C_2  and  C_12
REMARK    2  A    between atoms: C_3  and  C_7
REMARK    3  A    between atoms: C_12  and  C_14
REMARK    4  A    between atoms: C_33  and  N_34
REMARK                            x       y       z     vdW  Elec       q    Type
REMARK                         _______ _______ _______ _____ _____    ______ ____
ROOT
ATOM      1  C   UNL     1      45.789  34.224  40.751  0.00  0.00    +0.000 A 
ATOM      2  C   UNL     1      44.436  34.322  40.490  0.00  0.00    +0.000 A 
ATOM      3  N   UNL     1      44.233  33.629  39.358  0.00  0.00    +0.000 N 
ATOM      4  C   UNL     1      45.428  33.121  38.937  0.00  0.00    +0.000 A 
ATOM      5  N   UNL     1      46.389  33.491  39.801  0.00  0.00    +0.000 NA
ATOM      6  N   UNL     1      45.733  32.325  37.802  0.00  0.00    +0.000 N 
ATOM      7  H   UNL     1      43.725  34.844  41.081  0.00  0.00    +0.000 HD
ATOM      8  H   UNL     1      45.564  31.319  38.060  0.00  0.00    +0.000 HD
ATOM      9  H   UNL     1      46.062  32.774  36.911  0.00  0.00    +0.000 HD
ATOM     10  H   UNL     1      42.064  35.370  38.653  0.00  0.00    +0.000 HD
ATOM     11  N   UNL     1      42.066  34.366  38.423  0.00  0.00    +0.000 N 
ATOM     12  C   UNL     1      42.995  33.436  38.682  0.00  0.00    +0.000 A 
ATOM     13  N   UNL     1      42.560  32.260  38.189  0.00  0.00    +0.000 NA
ATOM     14  C   UNL     1      41.367  32.420  37.618  0.00  0.00    +0.000 A 
ATOM     15  C   UNL     1      40.452  31.613  36.965  0.00  0.00    +0.000 A 
ATOM     16  N   UNL     1      39.283  32.061  36.473  0.00  0.00    +0.000 NA
ATOM     17  C   UNL     1      38.997  33.374  36.630  0.00  0.00    +0.000 A 
ATOM     18  H   UNL     1      38.133  33.942  36.320  0.00  0.00    +0.000 HD
ATOM     19  N   UNL     1      39.876  34.179  37.263  0.00  0.00    +0.000 NA
ATOM     20  C   UNL     1      41.047  33.743  37.760  0.00  0.00    +0.000 A 
ENDROOT
BRANCH  15  21
ATOM     21  N   UNL     1      40.780  30.246  36.817  0.00  0.00    +0.000 N 
ATOM     22  H   UNL     1      41.141  29.768  37.653  0.00  0.00    +0.000 HD
ATOM     23  H   UNL     1      40.838  29.407  36.213  0.00  0.00    +0.000 HD
ENDBRANCH  15  21
BRANCH   1  24
ATOM     24  C   UNL     1      46.508  34.831  41.907  0.00  0.00    +0.000 C 
ATOM     25  O   UNL     1      47.715  35.253  41.861  0.00  0.00    +0.000 OA
BRANCH  24  27
ATOM     26  C   UNL     1      45.215  36.178  43.497  0.00  0.00    +0.000 A 
ATOM     27  C   UNL     1      45.864  34.975  43.162  0.00  0.00    +0.000 A 
ATOM     28  C   UNL     1      45.812  33.999  44.136  0.00  0.00    +0.000 A 
ATOM     29  N   UNL     1      45.190  34.182  45.310  0.00  0.00    +0.000 NA
ATOM     30  C   UNL     1      44.579  35.360  45.586  0.00  0.00    +0.000 A 
ATOM     31  N   UNL     1      44.595  36.349  44.680  0.00  0.00    +0.000 NA
ATOM     32  H   UNL     1      45.201  37.014  42.792  0.00  0.00    +0.000 HD
ATOM     33  H   UNL     1      44.095  35.472  46.526  0.00  0.00    +0.000 HD
BRANCH  28  34
ATOM     34  C   UNL     1      46.440  32.754  43.888  0.00  0.00    +0.000 A 
ATOM     35  C   UNL     1      47.712  32.273  44.007  0.00  0.00    +0.000 A 
ATOM     36  C   UNL     1      48.030  31.033  43.697  0.00  0.00    +0.000 A 
ATOM     37  C   UNL     1      47.030  30.243  43.248  0.00  0.00    +0.000 A 
ATOM     38  S   UNL     1      45.562  31.331  43.273  0.00  0.00    +0.000 S 
ATOM     39  H   UNL     1      48.434  33.026  44.386  0.00  0.00    +0.000 HD
ATOM     40  H   UNL     1      49.021  30.603  43.772  0.00  0.00    +0.000 HD
ATOM     41  H   UNL     1      47.080  29.136  42.923  0.00  0.00    +0.000 HD
ENDBRANCH  28  34
ENDBRANCH  24  27
ENDBRANCH   1  24
TORSDOF 4
