
 OpenBabel03242519413D

 34 36  0  0  0  0  0  0  0  0999 V2000
   48.0670   32.9360   41.8980 O   0  0  0  0  0  0  0  0  0  0  0  0
   47.2100   34.1100   41.3550 P   0  0  2  0  0  0  0  0  0  0  0  0
   45.5990   33.9220   41.9210 O   0  0  0  0  0  0  0  0  0  0  0  0
   44.3780   35.9480   44.6920 C   0  0  0  0  0  0  0  0  0  0  0  0
   44.6780   35.5290   43.3720 C   0  0  0  0  0  0  0  0  0  0  0  0
   45.3200   34.2950   43.2190 C   0  0  0  0  0  0  0  0  0  0  0  0
   45.6150   33.5800   44.3200 N   0  0  0  0  0  0  0  0  0  0  0  0
   45.3150   34.0070   45.5680 C   0  0  0  0  0  0  0  0  0  0  0  0
   44.7010   35.1820   45.7620 N   0  0  0  0  0  0  0  0  0  0  0  0
   43.8800   36.9050   44.8000 H   0  0  0  0  0  0  0  0  0  0  0  0
   44.3900   36.1920   42.5630 H   0  0  0  0  0  0  0  0  0  0  0  0
   45.6030   33.3400   46.3840 H   0  0  0  0  0  0  0  0  0  0  0  0
   47.1970   34.0510   39.7000 O   0  0  0  0  0  0  0  0  0  0  0  0
   46.4750   33.2730   38.8540 C   0  0  0  0  0  0  0  0  0  0  0  0
   47.1620   32.6070   37.8710 O   0  0  0  0  0  0  0  0  0  0  0  0
   45.5040   31.0170   37.3490 H   0  0  0  0  0  0  0  0  0  0  0  0
   44.7760   31.6770   37.7730 N   0  0  0  0  0  0  0  0  0  0  0  0
   45.1220   32.7710   38.5090 C   0  0  0  0  0  0  0  0  0  0  0  0
   43.9390   33.2540   38.8070 N   0  0  0  0  0  0  0  0  0  0  0  0
   42.9790   32.4870   38.2740 C   0  0  0  0  0  0  0  0  0  0  0  0
   41.6560   32.8020   38.4560 C   0  0  0  0  0  0  0  0  0  0  0  0
   40.8200   31.9140   37.8440 N   0  0  0  0  0  0  0  0  0  0  0  0
   41.2610   30.8530   37.1470 C   0  0  0  0  0  0  0  0  0  0  0  0
   40.5690   30.1650   36.6720 H   0  0  0  0  0  0  0  0  0  0  0  0
   42.6070   30.6370   37.0330 N   0  0  0  0  0  0  0  0  0  0  0  0
   43.4990   31.4310   37.5810 C   0  0  0  0  0  0  0  0  0  0  0  0
   41.0910   33.8930   39.1710 N   0  0  0  0  0  0  0  0  0  0  0  0
   40.7620   33.5860   40.1070 H   0  0  0  0  0  0  0  0  0  0  0  0
   41.0410   34.8650   38.7540 H   0  0  0  0  0  0  0  0  0  0  0  0
   47.8350   35.5040   41.9960 O   0  0  0  0  0  0  0  0  0  0  0  0
   49.0780   35.8220   41.4580 C   0  0  0  0  0  0  0  0  0  0  0  0
   49.4880   37.0980   41.8010 F   0  0  0  0  0  0  0  0  0  0  0  0
   49.9950   34.8720   41.7820 F   0  0  0  0  0  0  0  0  0  0  0  0
   48.9090   35.8240   40.0760 F   0  0  0  0  0  0  0  0  0  0  0  0
  2  1  2  1  0  0  0
  2  3  1  0  0  0  0
  2 30  1  0  0  0  0
  3  6  1  0  0  0  0
  4 10  1  0  0  0  0
  4  9  1  0  0  0  0
  5  4  2  0  0  0  0
  6  5  1  0  0  0  0
  6  7  2  0  0  0  0
  7  8  1  0  0  0  0
  8  9  2  0  0  0  0
  8 12  1  0  0  0  0
 11  5  1  0  0  0  0
 13  2  1  0  0  0  0
 14 13  1  0  0  0  0
 15 14  2  0  0  0  0
 16 17  1  0  0  0  0
 17 18  1  0  0  0  0
 18 19  2  0  0  0  0
 18 14  1  0  0  0  0
 20 21  1  0  0  0  0
 20 19  1  0  0  0  0
 21 27  1  0  0  0  0
 22 21  2  0  0  0  0
 23 22  1  0  0  0  0
 24 23  1  0  0  0  0
 25 23  2  0  0  0  0
 25 26  1  0  0  0  0
 26 17  1  0  0  0  0
 26 20  2  0  0  0  0
 27 28  1  0  0  0  0
 29 27  1  0  0  0  0
 31 33  1  0  0  0  0
 31 32  1  0  0  0  0
 31 30  1  0  0  0  0
 34 31  1  0  0  0  0
M  END
>  <minimizedAffinity>
-5.65032673

>  <minimizedRMSD>
3.04141283

$$$$
