REMARK  Name = 
REMARK  7 active torsions:
REMARK  status: ('A' for Active; 'I' for Inactive)
REMARK    1  A    between atoms: C_1  and  C_7
REMARK    2  A    between atoms: C_5  and  O_8
REMARK    3  A    between atoms: O_8  and  P_10
REMARK    4  A    between atoms: P_10  and  O_11
REMARK    5  A    between atoms: P_10  and  O_12
REMARK    6  A    between atoms: O_12  and  C_21
REMARK    7  A    between atoms: C_24  and  N_25
REMARK                            x       y       z     vdW  Elec       q    Type
REMARK                         _______ _______ _______ _____ _____    ______ ____
ROOT
ATOM      1  O   UNL     1      45.327  31.715  49.440  0.00  0.00    +0.000 OA
ATOM      2  P   UNL     1      45.628  31.624  47.948  0.00  0.00    +0.000 P 
ENDROOT
BRANCH   2   3
ATOM      3  O   UNL     1      44.608  30.412  47.342  0.00  0.00    +0.000 OA
ATOM      4  H   UNL     1      45.092  29.549  47.250  0.00  0.00    +0.000 HD
ENDBRANCH   2   3
BRANCH   2   5
ATOM      5  O   UNL     1      45.301  33.145  47.294  0.00  0.00    +0.000 OA
BRANCH   5  10
ATOM      6  C   UNL     1      45.498  34.910  44.154  0.00  0.00    +0.000 A 
ATOM      7  C   UNL     1      46.548  34.226  43.515  0.00  0.00    +0.000 A 
ATOM      8  C   UNL     1      47.146  33.166  44.221  0.00  0.00    +0.000 A 
ATOM      9  N   UNL     1      46.676  32.875  45.460  0.00  0.00    +0.000 NA
ATOM     10  C   UNL     1      45.665  33.568  46.019  0.00  0.00    +0.000 A 
ATOM     11  N   UNL     1      45.074  34.589  45.365  0.00  0.00    +0.000 NA
ATOM     12  H   UNL     1      46.898  34.484  42.526  0.00  0.00    +0.000 HD
ATOM     13  H   UNL     1      47.957  32.616  43.762  0.00  0.00    +0.000 HD
BRANCH   6  14
ATOM     14  C   UNL     1      44.868  36.044  43.388  0.00  0.00    +0.000 C 
ATOM     15  H   UNL     1      43.792  36.154  43.646  0.00  0.00    +0.000 HD
ATOM     16  H   UNL     1      45.023  35.904  42.292  0.00  0.00    +0.000 HD
ATOM     17  H   UNL     1      45.412  36.958  43.710  0.00  0.00    +0.000 HD
ENDBRANCH   6  14
ENDBRANCH   5  10
ENDBRANCH   2   5
BRANCH   2  18
ATOM     18  O   UNL     1      47.212  31.164  47.641  0.00  0.00    +0.000 OA
BRANCH  18  21
ATOM     19  H   UNL     1      48.280  28.666  48.536  0.00  0.00    +0.000 HD
ATOM     20  N   UNL     1      48.522  29.495  49.089  0.00  0.00    +0.000 N 
ATOM     21  C   UNL     1      48.011  30.655  48.652  0.00  0.00    +0.000 A 
ATOM     22  N   UNL     1      48.420  31.633  49.482  0.00  0.00    +0.000 NA
ATOM     23  C   UNL     1      49.198  31.145  50.469  0.00  0.00    +0.000 A 
ATOM     24  C   UNL     1      49.894  31.584  51.574  0.00  0.00    +0.000 A 
ATOM     25  N   UNL     1      50.597  30.740  52.364  0.00  0.00    +0.000 NA
ATOM     26  C   UNL     1      50.586  29.432  52.019  0.00  0.00    +0.000 A 
ATOM     27  H   UNL     1      51.156  28.793  52.670  0.00  0.00    +0.000 HD
ATOM     28  N   UNL     1      49.919  28.931  50.941  0.00  0.00    +0.000 NA
ATOM     29  C   UNL     1      49.235  29.806  50.186  0.00  0.00    +0.000 A 
BRANCH  24  30
ATOM     30  N   UNL     1      49.831  32.984  51.836  0.00  0.00    +0.000 N 
ATOM     31  H   UNL     1      50.143  33.885  51.421  0.00  0.00    +0.000 HD
ATOM     32  H   UNL     1      49.296  33.111  52.737  0.00  0.00    +0.000 HD
ENDBRANCH  24  30
ENDBRANCH  18  21
ENDBRANCH   2  18
TORSDOF 7
