
 OpenBabel03242521293D

 40 43  0  0  1  0  0  0  0  0999 V2000
   37.3760   29.8120   41.8840 C   0  0  1  0  0  0  0  0  0  0  0  0
   37.9680   28.6870   41.0670 C   0  0  2  0  0  0  0  0  0  0  0  0
   37.0020   27.9980   40.3620 O   0  0  0  0  0  0  0  0  0  0  0  0
   36.5650   28.8510   39.3620 C   0  0  0  0  0  0  0  0  0  0  0  0
   35.7240   29.9210   39.9940 C   0  0  2  0  0  0  0  0  0  0  0  0
   36.3390   30.6040   41.1670 C   0  0  2  0  0  0  0  0  0  0  0  0
   38.2530   30.4910   42.0950 H   0  0  0  0  0  0  0  0  0  0  0  0
   38.6780   29.1400   40.3410 H   0  0  0  0  0  0  0  0  0  0  0  0
   37.3760   29.2580   38.7310 H   0  0  0  0  0  0  0  0  0  0  0  0
   35.8940   28.2530   38.7100 H   0  0  0  0  0  0  0  0  0  0  0  0
   35.4420   30.6570   39.1980 H   0  0  0  0  0  0  0  0  0  0  0  0
   35.5040   30.7810   41.8940 H   0  0  0  0  0  0  0  0  0  0  0  0
   39.1200   25.5060   42.7710 C   0  0  0  0  0  0  0  0  0  0  0  0
   38.4100   26.3670   41.9220 C   0  0  0  0  0  0  0  0  0  0  0  0
   38.7050   27.7600   41.9360 C   0  0  0  0  0  0  0  0  0  0  0  0
   39.6700   28.1820   42.7820 N   0  0  0  0  0  0  0  0  0  0  0  0
   40.3410   27.3270   43.5930 C   0  0  0  0  0  0  0  0  0  0  0  0
   40.0700   25.9960   43.5900 N   0  0  0  0  0  0  0  0  0  0  0  0
   38.7960   24.4800   42.6570 H   0  0  0  0  0  0  0  0  0  0  0  0
   37.6270   26.0220   41.2360 H   0  0  0  0  0  0  0  0  0  0  0  0
   41.1150   27.7010   44.2650 H   0  0  0  0  0  0  0  0  0  0  0  0
   36.9480   29.3760   43.1430 O   0  0  0  0  0  0  0  0  0  0  0  0
   36.9700   30.0760   43.8190 H   0  0  0  0  0  0  0  0  0  0  0  0
   34.5120   29.2930   40.3440 O   0  0  0  0  0  0  0  0  0  0  0  0
   33.8250   30.0200   40.3890 H   0  0  0  0  0  0  0  0  0  0  0  0
   36.8010   31.8970   40.8490 O   0  0  0  0  0  0  0  0  0  0  0  0
   39.1050   32.5940   42.3680 H   0  0  0  0  0  0  0  0  0  0  0  0
   39.1960   32.5220   41.3310 N   0  0  0  0  0  0  0  0  0  0  0  0
   38.1210   32.1930   40.5910 C   0  0  0  0  0  0  0  0  0  0  0  0
   38.4770   32.1600   39.2740 N   0  0  0  0  0  0  0  0  0  0  0  0
   39.7940   32.4700   39.1780 C   0  0  0  0  0  0  0  0  0  0  0  0
   40.7450   32.6100   38.1750 C   0  0  0  0  0  0  0  0  0  0  0  0
   41.9870   32.9420   38.5090 N   0  0  0  0  0  0  0  0  0  0  0  0
   42.4200   33.1600   39.7630 C   0  0  0  0  0  0  0  0  0  0  0  0
   43.4530   33.4270   39.9400 H   0  0  0  0  0  0  0  0  0  0  0  0
   41.4930   33.0250   40.7510 N   0  0  0  0  0  0  0  0  0  0  0  0
   40.2210   32.6920   40.4750 C   0  0  0  0  0  0  0  0  0  0  0  0
   40.3040   32.3810   36.8430 N   0  0  0  0  0  0  0  0  0  0  0  0
   40.1210   32.9750   36.0140 H   0  0  0  0  0  0  0  0  0  0  0  0
   40.0610   31.4460   36.4350 H   0  0  0  0  0  0  0  0  0  0  0  0
  1  7  1  1  0  0  0
  1 22  1  0  0  0  0
  2  8  1  6  0  0  0
  2  1  1  0  0  0  0
  2 15  1  0  0  0  0
  3  2  1  0  0  0  0
  4  5  1  0  0  0  0
  4  3  1  0  0  0  0
  5 11  1  6  0  0  0
  5 24  1  0  0  0  0
  5  6  1  0  0  0  0
  6  1  1  0  0  0  0
  6 12  1  1  0  0  0
  9  4  1  0  0  0  0
 10  4  1  0  0  0  0
 13 18  1  0  0  0  0
 14 15  1  0  0  0  0
 14 13  2  0  0  0  0
 15 16  2  0  0  0  0
 16 17  1  0  0  0  0
 17 21  1  0  0  0  0
 18 17  2  0  0  0  0
 19 13  1  0  0  0  0
 20 14  1  0  0  0  0
 22 23  1  0  0  0  0
 24 25  1  0  0  0  0
 26  6  1  0  0  0  0
 28 27  1  0  0  0  0
 29 26  1  0  0  0  0
 29 28  1  0  0  0  0
 30 29  2  0  0  0  0
 31 30  1  0  0  0  0
 31 37  1  0  0  0  0
 32 33  1  0  0  0  0
 32 31  2  0  0  0  0
 33 34  2  0  0  0  0
 34 35  1  0  0  0  0
 34 36  1  0  0  0  0
 37 36  2  0  0  0  0
 37 28  1  0  0  0  0
 38 32  1  0  0  0  0
 39 38  1  0  0  0  0
 40 38  1  0  0  0  0
M  END
>  <minimizedAffinity>
-7.00000763

$$$$

 OpenBabel03242521293D

 40 43  0  0  1  0  0  0  0  0999 V2000
   37.4310   31.5680   40.7900 C   0  0  1  0  0  0  0  0  0  0  0  0
   38.1990   30.2670   40.7520 C   0  0  2  0  0  0  0  0  0  0  0  0
   38.1960   29.7030   39.4920 O   0  0  0  0  0  0  0  0  0  0  0  0
   38.9970   30.5080   38.7010 C   0  0  0  0  0  0  0  0  0  0  0  0
   38.2550   31.7830   38.4260 C   0  0  2  0  0  0  0  0  0  0  0  0
   37.6880   32.4600   39.6270 C   0  0  2  0  0  0  0  0  0  0  0  0
   37.8100   32.0850   41.7200 H   0  0  0  0  0  0  0  0  0  0  0  0
   39.2520   30.4930   41.0340 H   0  0  0  0  0  0  0  0  0  0  0  0
   40.0090   30.6800   39.1120 H   0  0  0  0  0  0  0  0  0  0  0  0
   39.1110   29.9820   37.7290 H   0  0  0  0  0  0  0  0  0  0  0  0
   38.9370   32.4670   37.8590 H   0  0  0  0  0  0  0  0  0  0  0  0
   36.6950   32.8730   39.3080 H   0  0  0  0  0  0  0  0  0  0  0  0
   37.5710   28.3730   43.9720 C   0  0  0  0  0  0  0  0  0  0  0  0
   38.1110   29.2990   43.0670 C   0  0  0  0  0  0  0  0  0  0  0  0
   37.6410   29.3170   41.7240 C   0  0  0  0  0  0  0  0  0  0  0  0
   36.6840   28.4250   41.3880 N   0  0  0  0  0  0  0  0  0  0  0  0
   36.1800   27.5390   42.2830 C   0  0  0  0  0  0  0  0  0  0  0  0
   36.6190   27.5120   43.5680 N   0  0  0  0  0  0  0  0  0  0  0  0
   38.0170   28.4690   44.9530 H   0  0  0  0  0  0  0  0  0  0  0  0
   38.8890   30.0220   43.3420 H   0  0  0  0  0  0  0  0  0  0  0  0
   35.4070   26.8320   41.9790 H   0  0  0  0  0  0  0  0  0  0  0  0
   36.0670   31.3640   41.0230 O   0  0  0  0  0  0  0  0  0  0  0  0
   35.6360   32.1170   41.4660 H   0  0  0  0  0  0  0  0  0  0  0  0
   37.2450   31.4410   37.5050 O   0  0  0  0  0  0  0  0  0  0  0  0
   37.0110   32.2870   37.0220 H   0  0  0  0  0  0  0  0  0  0  0  0
   38.4320   33.5970   39.9980 O   0  0  0  0  0  0  0  0  0  0  0  0
   40.4610   33.1430   41.9430 H   0  0  0  0  0  0  0  0  0  0  0  0
   40.7500   33.4080   40.9750 N   0  0  0  0  0  0  0  0  0  0  0  0
   39.8090   33.6270   40.0380 C   0  0  0  0  0  0  0  0  0  0  0  0
   40.4170   33.9580   38.8620 N   0  0  0  0  0  0  0  0  0  0  0  0
   41.7600   33.9460   39.0560 C   0  0  0  0  0  0  0  0  0  0  0  0
   42.9060   34.1790   38.3070 C   0  0  0  0  0  0  0  0  0  0  0  0
   44.0920   34.0590   38.8930 N   0  0  0  0  0  0  0  0  0  0  0  0
   44.2890   33.7240   40.1810 C   0  0  0  0  0  0  0  0  0  0  0  0
   45.2940   33.6500   40.5720 H   0  0  0  0  0  0  0  0  0  0  0  0
   43.1700   33.4940   40.9200 N   0  0  0  0  0  0  0  0  0  0  0  0
   41.9430   33.6010   40.3820 C   0  0  0  0  0  0  0  0  0  0  0  0
   42.7160   34.5340   36.9430 N   0  0  0  0  0  0  0  0  0  0  0  0
   42.8210   35.4000   36.3850 H   0  0  0  0  0  0  0  0  0  0  0  0
   42.3950   33.8850   36.1850 H   0  0  0  0  0  0  0  0  0  0  0  0
  1 22  1  0  0  0  0
  1  7  1  1  0  0  0
  2  1  1  0  0  0  0
  2  8  1  1  0  0  0
  2 15  1  0  0  0  0
  3  2  1  0  0  0  0
  4  9  1  0  0  0  0
  4  3  1  0  0  0  0
  5 11  1  6  0  0  0
  5  4  1  0  0  0  0
  5  6  1  0  0  0  0
  6 12  1  6  0  0  0
  6 26  1  0  0  0  0
  6  1  1  0  0  0  0
 10  4  1  0  0  0  0
 13 19  1  0  0  0  0
 14 20  1  0  0  0  0
 14 13  2  0  0  0  0
 15 14  1  0  0  0  0
 16 15  2  0  0  0  0
 16 17  1  0  0  0  0
 17 18  2  0  0  0  0
 18 13  1  0  0  0  0
 21 17  1  0  0  0  0
 22 23  1  0  0  0  0
 24  5  1  0  0  0  0
 25 24  1  0  0  0  0
 26 29  1  0  0  0  0
 28 27  1  0  0  0  0
 29 28  1  0  0  0  0
 30 31  1  0  0  0  0
 30 29  2  0  0  0  0
 31 37  1  0  0  0  0
 32 33  1  0  0  0  0
 32 31  2  0  0  0  0
 33 34  2  0  0  0  0
 34 35  1  0  0  0  0
 34 36  1  0  0  0  0
 37 36  2  0  0  0  0
 37 28  1  0  0  0  0
 38 32  1  0  0  0  0
 39 38  1  0  0  0  0
 40 38  1  0  0  0  0
M  END
>  <minimizedAffinity>
-6.8710022

$$$$

 OpenBabel03242521293D

 40 43  0  0  1  0  0  0  0  0999 V2000
   39.1240   31.8900   38.1780 C   0  0  1  0  0  0  0  0  0  0  0  0
   40.0570   32.5040   39.1950 C   0  0  2  0  0  0  0  0  0  0  0  0
   39.5570   33.6820   39.7100 O   0  0  0  0  0  0  0  0  0  0  0  0
   38.4820   33.3350   40.5100 C   0  0  0  0  0  0  0  0  0  0  0  0
   37.3450   32.9270   39.6190 C   0  0  2  0  0  0  0  0  0  0  0  0
   37.6880   31.9250   38.5700 C   0  0  2  0  0  0  0  0  0  0  0  0
   39.4460   30.8090   38.1230 H   0  0  0  0  0  0  0  0  0  0  0  0
   40.1670   31.7740   40.0290 H   0  0  0  0  0  0  0  0  0  0  0  0
   38.7180   32.5760   41.2790 H   0  0  0  0  0  0  0  0  0  0  0  0
   38.1670   34.2620   41.0350 H   0  0  0  0  0  0  0  0  0  0  0  0
   36.5070   32.5650   40.2680 H   0  0  0  0  0  0  0  0  0  0  0  0
   37.1080   32.2230   37.6580 H   0  0  0  0  0  0  0  0  0  0  0  0
   43.6370   31.9920   38.0670 C   0  0  0  0  0  0  0  0  0  0  0  0
   42.3810   31.7330   38.6340 C   0  0  0  0  0  0  0  0  0  0  0  0
   41.3770   32.7420   38.5970 C   0  0  0  0  0  0  0  0  0  0  0  0
   41.6970   33.9150   38.0080 N   0  0  0  0  0  0  0  0  0  0  0  0
   42.9210   34.1400   37.4690 C   0  0  0  0  0  0  0  0  0  0  0  0
   43.8870   33.1850   37.4970 N   0  0  0  0  0  0  0  0  0  0  0  0
   44.2990   31.1420   38.1650 H   0  0  0  0  0  0  0  0  0  0  0  0
   42.1230   30.7800   39.1120 H   0  0  0  0  0  0  0  0  0  0  0  0
   43.1470   35.0990   37.0000 H   0  0  0  0  0  0  0  0  0  0  0  0
   39.3440   32.3970   36.8930 O   0  0  0  0  0  0  0  0  0  0  0  0
   39.1040   31.7700   36.1860 H   0  0  0  0  0  0  0  0  0  0  0  0
   36.8650   34.1230   39.0480 O   0  0  0  0  0  0  0  0  0  0  0  0
   35.9150   33.9440   38.7880 H   0  0  0  0  0  0  0  0  0  0  0  0
   37.2040   30.6400   38.8840 O   0  0  0  0  0  0  0  0  0  0  0  0
   39.3190   28.7370   38.7930 H   0  0  0  0  0  0  0  0  0  0  0  0
   38.8270   28.8910   39.7010 N   0  0  0  0  0  0  0  0  0  0  0  0
   37.8240   29.7860   39.7690 C   0  0  0  0  0  0  0  0  0  0  0  0
   37.3370   29.8160   41.0440 N   0  0  0  0  0  0  0  0  0  0  0  0
   38.0410   28.9300   41.7920 C   0  0  0  0  0  0  0  0  0  0  0  0
   38.0600   28.4860   43.1080 C   0  0  0  0  0  0  0  0  0  0  0  0
   38.9460   27.5620   43.4620 N   0  0  0  0  0  0  0  0  0  0  0  0
   39.8510   27.0020   42.6400 C   0  0  0  0  0  0  0  0  0  0  0  0
   40.5350   26.2550   43.0180 H   0  0  0  0  0  0  0  0  0  0  0  0
   39.8390   27.4330   41.3490 N   0  0  0  0  0  0  0  0  0  0  0  0
   38.9650   28.3650   40.9320 C   0  0  0  0  0  0  0  0  0  0  0  0
   37.1090   29.0690   43.9910 N   0  0  0  0  0  0  0  0  0  0  0  0
   36.2420   28.7480   44.4570 H   0  0  0  0  0  0  0  0  0  0  0  0
   37.1420   30.0500   44.3580 H   0  0  0  0  0  0  0  0  0  0  0  0
  1  7  1  6  0  0  0
  1  6  1  0  0  0  0
  1  2  1  0  0  0  0
  2  3  1  0  0  0  0
  2  8  1  1  0  0  0
  3  4  1  0  0  0  0
  4 10  1  0  0  0  0
  4  9  1  0  0  0  0
  5 11  1  1  0  0  0
  5  4  1  0  0  0  0
  6 12  1  6  0  0  0
  6 26  1  0  0  0  0
  6  5  1  0  0  0  0
 13 19  1  0  0  0  0
 13 14  1  0  0  0  0
 14 20  1  0  0  0  0
 15 14  2  0  0  0  0
 15  2  1  0  0  0  0
 16 15  1  0  0  0  0
 17 18  1  0  0  0  0
 17 16  2  0  0  0  0
 18 13  2  0  0  0  0
 21 17  1  0  0  0  0
 22  1  1  0  0  0  0
 23 22  1  0  0  0  0
 24  5  1  0  0  0  0
 25 24  1  0  0  0  0
 26 29  1  0  0  0  0
 27 28  1  0  0  0  0
 28 29  1  0  0  0  0
 28 37  1  0  0  0  0
 29 30  2  0  0  0  0
 30 31  1  0  0  0  0
 31 32  1  0  0  0  0
 32 33  2  0  0  0  0
 32 38  1  0  0  0  0
 34 35  1  0  0  0  0
 34 33  1  0  0  0  0
 36 34  2  0  0  0  0
 37 36  1  0  0  0  0
 37 31  2  0  0  0  0
 38 40  1  0  0  0  0
 38 39  1  0  0  0  0
M  END
>  <minimizedAffinity>
-6.77244902

$$$$

 OpenBabel03242521293D

 40 43  0  0  1  0  0  0  0  0999 V2000
   38.8180   30.3970   41.4530 C   0  0  1  0  0  0  0  0  0  0  0  0
   38.4960   28.9820   41.0290 C   0  0  2  0  0  0  0  0  0  0  0  0
   37.1450   28.7120   41.1190 O   0  0  0  0  0  0  0  0  0  0  0  0
   36.5340   29.4370   40.1110 C   0  0  0  0  0  0  0  0  0  0  0  0
   36.5440   30.8860   40.5030 C   0  0  2  0  0  0  0  0  0  0  0  0
   37.8680   31.4180   40.9340 C   0  0  2  0  0  0  0  0  0  0  0  0
   39.8320   30.5970   40.9970 H   0  0  0  0  0  0  0  0  0  0  0  0
   38.8070   28.8740   39.9660 H   0  0  0  0  0  0  0  0  0  0  0  0
   36.9600   29.2610   39.1060 H   0  0  0  0  0  0  0  0  0  0  0  0
   35.4710   29.1140   40.0910 H   0  0  0  0  0  0  0  0  0  0  0  0
   36.1270   31.4800   39.6490 H   0  0  0  0  0  0  0  0  0  0  0  0
   37.6550   32.1240   41.7800 H   0  0  0  0  0  0  0  0  0  0  0  0
   41.1610   26.5360   42.1530 C   0  0  0  0  0  0  0  0  0  0  0  0
   40.4670   27.4610   41.3600 C   0  0  0  0  0  0  0  0  0  0  0  0
   39.2510   28.0220   41.8450 C   0  0  0  0  0  0  0  0  0  0  0  0
   38.8260   27.6240   43.0630 N   0  0  0  0  0  0  0  0  0  0  0  0
   39.5160   26.7260   43.8100 C   0  0  0  0  0  0  0  0  0  0  0  0
   40.6770   26.1840   43.3590 N   0  0  0  0  0  0  0  0  0  0  0  0
   42.0630   26.1930   41.6650 H   0  0  0  0  0  0  0  0  0  0  0  0
   40.8140   27.7830   40.3710 H   0  0  0  0  0  0  0  0  0  0  0  0
   39.1450   26.4250   44.7900 H   0  0  0  0  0  0  0  0  0  0  0  0
   39.0190   30.4970   42.8330 O   0  0  0  0  0  0  0  0  0  0  0  0
   39.6160   31.2250   43.0830 H   0  0  0  0  0  0  0  0  0  0  0  0
   35.5830   31.0070   41.5260 O   0  0  0  0  0  0  0  0  0  0  0  0
   35.2940   31.9660   41.5240 H   0  0  0  0  0  0  0  0  0  0  0  0
   38.4620   32.2290   39.9480 O   0  0  0  0  0  0  0  0  0  0  0  0
   40.4520   32.5750   41.9550 H   0  0  0  0  0  0  0  0  0  0  0  0
   40.6950   32.8130   40.9680 N   0  0  0  0  0  0  0  0  0  0  0  0
   39.7710   32.6580   40.0010 C   0  0  0  0  0  0  0  0  0  0  0  0
   40.3090   33.0290   38.8040 N   0  0  0  0  0  0  0  0  0  0  0  0
   41.5900   33.4230   39.0130 C   0  0  0  0  0  0  0  0  0  0  0  0
   42.6540   33.8980   38.2570 C   0  0  0  0  0  0  0  0  0  0  0  0
   43.7990   34.1840   38.8670 N   0  0  0  0  0  0  0  0  0  0  0  0
   44.0280   34.0500   40.1860 C   0  0  0  0  0  0  0  0  0  0  0  0
   44.9950   34.3080   40.5950 H   0  0  0  0  0  0  0  0  0  0  0  0
   42.9900   33.5840   40.9320 N   0  0  0  0  0  0  0  0  0  0  0  0
   41.8080   33.2800   40.3710 C   0  0  0  0  0  0  0  0  0  0  0  0
   42.4280   34.0450   36.8610 N   0  0  0  0  0  0  0  0  0  0  0  0
   42.3070   34.8440   36.2130 H   0  0  0  0  0  0  0  0  0  0  0  0
   42.3370   33.2580   36.1740 H   0  0  0  0  0  0  0  0  0  0  0  0
  1  7  1  6  0  0  0
  1 22  1  0  0  0  0
  2  8  1  6  0  0  0
  2  3  1  0  0  0  0
  2  1  1  0  0  0  0
  2 15  1  0  0  0  0
  4  5  1  0  0  0  0
  4  3  1  0  0  0  0
  5 11  1  6  0  0  0
  5  6  1  0  0  0  0
  5 24  1  0  0  0  0
  6  1  1  0  0  0  0
  6 12  1  1  0  0  0
  9  4  1  0  0  0  0
 10  4  1  0  0  0  0
 13 18  1  0  0  0  0
 14 15  1  0  0  0  0
 14 13  2  0  0  0  0
 15 16  2  0  0  0  0
 16 17  1  0  0  0  0
 17 21  1  0  0  0  0
 18 17  2  0  0  0  0
 19 13  1  0  0  0  0
 20 14  1  0  0  0  0
 22 23  1  0  0  0  0
 25 24  1  0  0  0  0
 26 29  1  0  0  0  0
 26  6  1  0  0  0  0
 28 27  1  0  0  0  0
 29 28  1  0  0  0  0
 30 31  1  0  0  0  0
 30 29  2  0  0  0  0
 31 37  1  0  0  0  0
 32 33  1  0  0  0  0
 32 31  2  0  0  0  0
 33 34  2  0  0  0  0
 34 35  1  0  0  0  0
 34 36  1  0  0  0  0
 37 36  2  0  0  0  0
 37 28  1  0  0  0  0
 38 32  1  0  0  0  0
 39 38  1  0  0  0  0
 40 38  1  0  0  0  0
M  END
>  <minimizedAffinity>
-6.52050209

$$$$

 OpenBabel03242521293D

 40 43  0  0  1  0  0  0  0  0999 V2000
   38.6530   31.7870   38.0250 C   0  0  1  0  0  0  0  0  0  0  0  0
   39.7660   32.2200   38.9510 C   0  0  2  0  0  0  0  0  0  0  0  0
   39.5330   33.4700   39.4890 O   0  0  0  0  0  0  0  0  0  0  0  0
   38.4860   33.3220   40.3820 C   0  0  0  0  0  0  0  0  0  0  0  0
   37.2220   33.1280   39.5970 C   0  0  2  0  0  0  0  0  0  0  0  0
   37.2860   32.0810   38.5380 C   0  0  2  0  0  0  0  0  0  0  0  0
   38.7690   30.6650   37.9600 H   0  0  0  0  0  0  0  0  0  0  0  0
   39.8140   31.4820   39.7830 H   0  0  0  0  0  0  0  0  0  0  0  0
   38.6460   32.5320   41.1390 H   0  0  0  0  0  0  0  0  0  0  0  0
   38.3890   34.2910   40.9170 H   0  0  0  0  0  0  0  0  0  0  0  0
   36.3910   32.9230   40.3190 H   0  0  0  0  0  0  0  0  0  0  0  0
   36.6940   32.4800   37.6730 H   0  0  0  0  0  0  0  0  0  0  0  0
   43.1330   33.3190   37.6090 C   0  0  0  0  0  0  0  0  0  0  0  0
   41.9180   33.3430   38.3080 C   0  0  0  0  0  0  0  0  0  0  0  0
   41.0510   32.2160   38.2400 C   0  0  0  0  0  0  0  0  0  0  0  0
   41.4540   31.1670   37.4910 N   0  0  0  0  0  0  0  0  0  0  0  0
   42.6350   31.1700   36.8230 C   0  0  0  0  0  0  0  0  0  0  0  0
   43.4710   32.2390   36.8810 N   0  0  0  0  0  0  0  0  0  0  0  0
   43.6900   34.2360   37.7490 H   0  0  0  0  0  0  0  0  0  0  0  0
   41.5920   34.1970   38.9160 H   0  0  0  0  0  0  0  0  0  0  0  0
   42.9300   30.3070   36.2260 H   0  0  0  0  0  0  0  0  0  0  0  0
   38.8500   32.2460   36.7190 O   0  0  0  0  0  0  0  0  0  0  0  0
   38.4410   31.6740   36.0450 H   0  0  0  0  0  0  0  0  0  0  0  0
   36.9180   34.3910   39.0510 O   0  0  0  0  0  0  0  0  0  0  0  0
   35.9320   34.3880   38.8750 H   0  0  0  0  0  0  0  0  0  0  0  0
   36.6070   30.9050   38.9100 O   0  0  0  0  0  0  0  0  0  0  0  0
   36.2310   31.0880   41.7260 H   0  0  0  0  0  0  0  0  0  0  0  0
   36.7450   30.2630   41.3460 N   0  0  0  0  0  0  0  0  0  0  0  0
   36.9340   30.1530   40.0180 C   0  0  0  0  0  0  0  0  0  0  0  0
   37.6230   29.0050   39.7570 N   0  0  0  0  0  0  0  0  0  0  0  0
   37.8720   28.3780   40.9340 C   0  0  0  0  0  0  0  0  0  0  0  0
   38.5010   27.2170   41.3650 C   0  0  0  0  0  0  0  0  0  0  0  0
   38.5320   26.9480   42.6650 N   0  0  0  0  0  0  0  0  0  0  0  0
   37.9960   27.7170   43.6280 C   0  0  0  0  0  0  0  0  0  0  0  0
   38.0700   27.4170   44.6640 H   0  0  0  0  0  0  0  0  0  0  0  0
   37.3770   28.8570   43.2130 N   0  0  0  0  0  0  0  0  0  0  0  0
   37.3140   29.1820   41.9110 C   0  0  0  0  0  0  0  0  0  0  0  0
   39.0740   26.3910   40.3580 N   0  0  0  0  0  0  0  0  0  0  0  0
   40.0360   26.1610   40.0520 H   0  0  0  0  0  0  0  0  0  0  0  0
   38.5360   25.8050   39.6750 H   0  0  0  0  0  0  0  0  0  0  0  0
  1  7  1  6  0  0  0
  1  6  1  0  0  0  0
  1  2  1  0  0  0  0
  2  3  1  0  0  0  0
  2  8  1  1  0  0  0
  3  4  1  0  0  0  0
  4 10  1  0  0  0  0
  4  9  1  0  0  0  0
  5 11  1  1  0  0  0
  5  4  1  0  0  0  0
  6 12  1  6  0  0  0
  6 26  1  0  0  0  0
  6  5  1  0  0  0  0
 13 19  1  0  0  0  0
 13 14  1  0  0  0  0
 14 20  1  0  0  0  0
 15 14  2  0  0  0  0
 15  2  1  0  0  0  0
 16 15  1  0  0  0  0
 17 18  1  0  0  0  0
 17 16  2  0  0  0  0
 18 13  2  0  0  0  0
 21 17  1  0  0  0  0
 22  1  1  0  0  0  0
 23 22  1  0  0  0  0
 24  5  1  0  0  0  0
 25 24  1  0  0  0  0
 26 29  1  0  0  0  0
 28 27  1  0  0  0  0
 28 37  1  0  0  0  0
 29 28  1  0  0  0  0
 30 29  2  0  0  0  0
 30 31  1  0  0  0  0
 31 32  2  0  0  0  0
 31 37  1  0  0  0  0
 32 33  1  0  0  0  0
 33 34  2  0  0  0  0
 34 35  1  0  0  0  0
 36 34  1  0  0  0  0
 37 36  2  0  0  0  0
 38 32  1  0  0  0  0
 39 38  1  0  0  0  0
 40 38  1  0  0  0  0
M  END
>  <minimizedAffinity>
-6.42324972

$$$$

 OpenBabel03242521293D

 40 43  0  0  1  0  0  0  0  0999 V2000
   36.6290   30.1200   40.9560 C   0  0  1  0  0  0  0  0  0  0  0  0
   38.0510   30.6300   41.0150 C   0  0  2  0  0  0  0  0  0  0  0  0
   38.6010   30.4800   42.2720 O   0  0  0  0  0  0  0  0  0  0  0  0
   38.7980   29.1210   42.4530 C   0  0  0  0  0  0  0  0  0  0  0  0
   37.4590   28.4780   42.6690 C   0  0  2  0  0  0  0  0  0  0  0  0
   36.4180   28.8260   41.6600 C   0  0  2  0  0  0  0  0  0  0  0  0
   36.4390   29.9570   39.8550 H   0  0  0  0  0  0  0  0  0  0  0  0
   38.6500   30.0290   40.2940 H   0  0  0  0  0  0  0  0  0  0  0  0
   39.3820   28.6380   41.6480 H   0  0  0  0  0  0  0  0  0  0  0  0
   39.3670   29.0090   43.4000 H   0  0  0  0  0  0  0  0  0  0  0  0
   37.6110   27.3700   42.7290 H   0  0  0  0  0  0  0  0  0  0  0  0
   35.4560   28.9180   42.2290 H   0  0  0  0  0  0  0  0  0  0  0  0
   39.1040   34.2600   40.7750 C   0  0  0  0  0  0  0  0  0  0  0  0
   39.0840   32.9140   41.1650 C   0  0  0  0  0  0  0  0  0  0  0  0
   38.1030   32.0420   40.6140 C   0  0  0  0  0  0  0  0  0  0  0  0
   37.2290   32.5710   39.7300 N   0  0  0  0  0  0  0  0  0  0  0  0
   37.2690   33.8780   39.3710 C   0  0  0  0  0  0  0  0  0  0  0  0
   38.2010   34.7200   39.8890 N   0  0  0  0  0  0  0  0  0  0  0  0
   39.8980   34.8050   41.2690 H   0  0  0  0  0  0  0  0  0  0  0  0
   39.7950   32.4860   41.8830 H   0  0  0  0  0  0  0  0  0  0  0  0
   36.5480   34.2730   38.6550 H   0  0  0  0  0  0  0  0  0  0  0  0
   35.7060   31.0990   41.3390 O   0  0  0  0  0  0  0  0  0  0  0  0
   34.8310   30.9840   40.9280 H   0  0  0  0  0  0  0  0  0  0  0  0
   37.0620   28.8570   43.9670 O   0  0  0  0  0  0  0  0  0  0  0  0
   36.4120   28.1590   44.2730 H   0  0  0  0  0  0  0  0  0  0  0  0
   36.1830   27.7740   40.7530 O   0  0  0  0  0  0  0  0  0  0  0  0
   33.9450   28.6610   39.2350 H   0  0  0  0  0  0  0  0  0  0  0  0
   34.8150   28.3890   38.7250 N   0  0  0  0  0  0  0  0  0  0  0  0
   35.8870   27.9670   39.4210 C   0  0  0  0  0  0  0  0  0  0  0  0
   36.8960   27.6690   38.5520 N   0  0  0  0  0  0  0  0  0  0  0  0
   36.4590   27.9070   37.2900 C   0  0  0  0  0  0  0  0  0  0  0  0
   36.9590   27.8170   35.9980 C   0  0  0  0  0  0  0  0  0  0  0  0
   36.1750   28.1600   34.9810 N   0  0  0  0  0  0  0  0  0  0  0  0
   34.9090   28.5970   35.0920 C   0  0  0  0  0  0  0  0  0  0  0  0
   34.3460   28.8540   34.2050 H   0  0  0  0  0  0  0  0  0  0  0  0
   34.4130   28.6880   36.3560 N   0  0  0  0  0  0  0  0  0  0  0  0
   35.1570   28.3550   37.4240 C   0  0  0  0  0  0  0  0  0  0  0  0
   38.2980   27.3570   35.8630 N   0  0  0  0  0  0  0  0  0  0  0  0
   38.7480   26.4870   35.5240 H   0  0  0  0  0  0  0  0  0  0  0  0
   39.1560   27.9000   36.1200 H   0  0  0  0  0  0  0  0  0  0  0  0
  1  7  1  6  0  0  0
  1  2  1  0  0  0  0
  1 22  1  0  0  0  0
  1  6  1  0  0  0  0
  2  8  1  6  0  0  0
  2  3  1  0  0  0  0
  3  4  1  0  0  0  0
  4  5  1  0  0  0  0
  4 10  1  0  0  0  0
  5 11  1  6  0  0  0
  5 24  1  0  0  0  0
  6 12  1  1  0  0  0
  6  5  1  0  0  0  0
  9  4  1  0  0  0  0
 13 14  1  0  0  0  0
 13 19  1  0  0  0  0
 14 20  1  0  0  0  0
 15  2  1  0  0  0  0
 15 14  2  0  0  0  0
 16 15  1  0  0  0  0
 17 16  2  0  0  0  0
 17 18  1  0  0  0  0
 18 13  2  0  0  0  0
 21 17  1  0  0  0  0
 23 22  1  0  0  0  0
 24 25  1  0  0  0  0
 26  6  1  0  0  0  0
 28 27  1  0  0  0  0
 28 29  1  0  0  0  0
 29 26  1  0  0  0  0
 30 29  2  0  0  0  0
 31 37  1  0  0  0  0
 31 30  1  0  0  0  0
 32 31  2  0  0  0  0
 33 34  2  0  0  0  0
 33 32  1  0  0  0  0
 34 36  1  0  0  0  0
 35 34  1  0  0  0  0
 36 37  2  0  0  0  0
 37 28  1  0  0  0  0
 38 32  1  0  0  0  0
 38 40  1  0  0  0  0
 39 38  1  0  0  0  0
M  END
>  <minimizedAffinity>
-6.38616467

$$$$

 OpenBabel03242521293D

 40 43  0  0  1  0  0  0  0  0999 V2000
   39.1140   30.7930   40.0740 C   0  0  1  0  0  0  0  0  0  0  0  0
   37.9930   29.8460   40.4360 C   0  0  2  0  0  0  0  0  0  0  0  0
   36.8480   30.5200   40.8090 O   0  0  0  0  0  0  0  0  0  0  0  0
   36.3440   31.1030   39.6590 C   0  0  0  0  0  0  0  0  0  0  0  0
   37.2290   32.2580   39.2920 C   0  0  2  0  0  0  0  0  0  0  0  0
   38.6870   31.9530   39.2450 C   0  0  2  0  0  0  0  0  0  0  0  0
   39.8210   30.1620   39.4580 H   0  0  0  0  0  0  0  0  0  0  0  0
   37.7650   29.2390   39.5310 H   0  0  0  0  0  0  0  0  0  0  0  0
   36.1940   30.3950   38.8230 H   0  0  0  0  0  0  0  0  0  0  0  0
   35.3530   31.5260   39.9280 H   0  0  0  0  0  0  0  0  0  0  0  0
   36.8700   32.6740   38.3150 H   0  0  0  0  0  0  0  0  0  0  0  0
   39.2050   32.8570   39.6590 H   0  0  0  0  0  0  0  0  0  0  0  0
   38.0400   27.9250   43.7000 C   0  0  0  0  0  0  0  0  0  0  0  0
   37.6080   28.7810   42.6770 C   0  0  0  0  0  0  0  0  0  0  0  0
   38.4150   28.9450   41.5160 C   0  0  0  0  0  0  0  0  0  0  0  0
   39.5750   28.2550   41.4640 N   0  0  0  0  0  0  0  0  0  0  0  0
   39.9710   27.4340   42.4690 C   0  0  0  0  0  0  0  0  0  0  0  0
   39.2090   27.2690   43.5820 N   0  0  0  0  0  0  0  0  0  0  0  0
   37.3330   27.8950   44.5180 H   0  0  0  0  0  0  0  0  0  0  0  0
   36.6660   29.3410   42.7220 H   0  0  0  0  0  0  0  0  0  0  0  0
   40.9140   26.8910   42.3960 H   0  0  0  0  0  0  0  0  0  0  0  0
   39.8580   31.1760   41.1950 O   0  0  0  0  0  0  0  0  0  0  0  0
   40.7810   31.4040   40.9840 H   0  0  0  0  0  0  0  0  0  0  0  0
   36.9460   33.2660   40.2350 O   0  0  0  0  0  0  0  0  0  0  0  0
   37.2000   34.1320   39.8010 H   0  0  0  0  0  0  0  0  0  0  0  0
   39.1680   31.8530   37.9240 O   0  0  0  0  0  0  0  0  0  0  0  0
   40.9250   29.9420   36.7570 H   0  0  0  0  0  0  0  0  0  0  0  0
   41.3170   30.8640   37.0500 N   0  0  0  0  0  0  0  0  0  0  0  0
   40.5060   31.7850   37.6030 C   0  0  0  0  0  0  0  0  0  0  0  0
   41.2330   32.9000   37.9030 N   0  0  0  0  0  0  0  0  0  0  0  0
   42.5200   32.6850   37.5330 C   0  0  0  0  0  0  0  0  0  0  0  0
   43.7230   33.3780   37.5540 C   0  0  0  0  0  0  0  0  0  0  0  0
   44.8130   32.7890   37.0750 N   0  0  0  0  0  0  0  0  0  0  0  0
   44.8590   31.5500   36.5560 C   0  0  0  0  0  0  0  0  0  0  0  0
   45.7950   31.1520   36.1880 H   0  0  0  0  0  0  0  0  0  0  0  0
   43.6830   30.8640   36.5320 N   0  0  0  0  0  0  0  0  0  0  0  0
   42.5480   31.4070   37.0030 C   0  0  0  0  0  0  0  0  0  0  0  0
   43.6920   34.6920   38.0990 N   0  0  0  0  0  0  0  0  0  0  0  0
   44.0340   35.1380   38.9690 H   0  0  0  0  0  0  0  0  0  0  0  0
   43.2570   35.5290   37.6420 H   0  0  0  0  0  0  0  0  0  0  0  0
  1  7  1  6  0  0  0
  1  2  1  0  0  0  0
  1 22  1  0  0  0  0
  2  8  1  6  0  0  0
  2  3  1  0  0  0  0
  2 15  1  0  0  0  0
  4 10  1  0  0  0  0
  4  3  1  0  0  0  0
  5 11  1  6  0  0  0
  5  4  1  0  0  0  0
  5 24  1  0  0  0  0
  6  5  1  0  0  0  0
  6 12  1  1  0  0  0
  6  1  1  0  0  0  0
  9  4  1  0  0  0  0
 13 19  1  0  0  0  0
 14 20  1  0  0  0  0
 14 13  2  0  0  0  0
 15 14  1  0  0  0  0
 16 15  2  0  0  0  0
 16 17  1  0  0  0  0
 17 18  2  0  0  0  0
 18 13  1  0  0  0  0
 21 17  1  0  0  0  0
 23 22  1  0  0  0  0
 25 24  1  0  0  0  0
 26  6  1  0  0  0  0
 27 28  1  0  0  0  0
 28 29  1  0  0  0  0
 29 30  2  0  0  0  0
 29 26  1  0  0  0  0
 31 32  1  0  0  0  0
 31 30  1  0  0  0  0
 32 38  1  0  0  0  0
 33 32  2  0  0  0  0
 34 33  1  0  0  0  0
 35 34  1  0  0  0  0
 36 34  2  0  0  0  0
 36 37  1  0  0  0  0
 37 28  1  0  0  0  0
 37 31  2  0  0  0  0
 38 39  1  0  0  0  0
 40 38  1  0  0  0  0
M  END
>  <minimizedAffinity>
-6.37605476

$$$$

 OpenBabel03242521293D

 40 43  0  0  1  0  0  0  0  0999 V2000
   38.0600   28.9770   40.0750 C   0  0  1  0  0  0  0  0  0  0  0  0
   37.0400   27.8630   40.0530 C   0  0  2  0  0  0  0  0  0  0  0  0
   35.8950   28.1970   40.7470 O   0  0  0  0  0  0  0  0  0  0  0  0
   35.2490   29.1630   39.9930 C   0  0  0  0  0  0  0  0  0  0  0  0
   36.0200   30.4450   40.1140 C   0  0  2  0  0  0  0  0  0  0  0  0
   37.4840   30.3330   39.8570 C   0  0  2  0  0  0  0  0  0  0  0  0
   38.7440   28.7430   39.2080 H   0  0  0  0  0  0  0  0  0  0  0  0
   36.7670   27.6810   38.9890 H   0  0  0  0  0  0  0  0  0  0  0  0
   35.0670   28.8680   38.9430 H   0  0  0  0  0  0  0  0  0  0  0  0
   34.2630   29.3300   40.4750 H   0  0  0  0  0  0  0  0  0  0  0  0
   35.5460   31.2010   39.4370 H   0  0  0  0  0  0  0  0  0  0  0  0
   37.9790   31.0190   40.5920 H   0  0  0  0  0  0  0  0  0  0  0  0
   37.5850   24.8200   42.2420 C   0  0  0  0  0  0  0  0  0  0  0  0
   37.0060   25.9850   41.7210 C   0  0  0  0  0  0  0  0  0  0  0  0
   37.6180   26.6320   40.6100 C   0  0  0  0  0  0  0  0  0  0  0  0
   38.7440   26.0770   40.1110 N   0  0  0  0  0  0  0  0  0  0  0  0
   39.2840   24.9490   40.6360 C   0  0  0  0  0  0  0  0  0  0  0  0
   38.7100   24.3220   41.6950 N   0  0  0  0  0  0  0  0  0  0  0  0
   37.0200   24.4350   43.0800 H   0  0  0  0  0  0  0  0  0  0  0  0
   36.0920   26.4340   42.1280 H   0  0  0  0  0  0  0  0  0  0  0  0
   40.1950   24.5270   40.2090 H   0  0  0  0  0  0  0  0  0  0  0  0
   38.8790   28.9150   41.2070 O   0  0  0  0  0  0  0  0  0  0  0  0
   39.7620   29.3010   41.0640 H   0  0  0  0  0  0  0  0  0  0  0  0
   35.7620   30.9190   41.4160 O   0  0  0  0  0  0  0  0  0  0  0  0
   35.9190   31.9080   41.3870 H   0  0  0  0  0  0  0  0  0  0  0  0
   37.8440   30.8540   38.5990 O   0  0  0  0  0  0  0  0  0  0  0  0
   39.7630   31.1660   36.5190 H   0  0  0  0  0  0  0  0  0  0  0  0
   39.8720   31.7380   37.3860 N   0  0  0  0  0  0  0  0  0  0  0  0
   38.9770   31.6090   38.3830 C   0  0  0  0  0  0  0  0  0  0  0  0
   39.3190   32.4480   39.4030 N   0  0  0  0  0  0  0  0  0  0  0  0
   40.4440   33.1180   39.0480 C   0  0  0  0  0  0  0  0  0  0  0  0
   41.2830   34.0780   39.5990 C   0  0  0  0  0  0  0  0  0  0  0  0
   42.3320   34.4930   38.8970 N   0  0  0  0  0  0  0  0  0  0  0  0
   42.6640   34.0580   37.6690 C   0  0  0  0  0  0  0  0  0  0  0  0
   43.5380   34.4550   37.1730 H   0  0  0  0  0  0  0  0  0  0  0  0
   41.8450   33.1180   37.1230 N   0  0  0  0  0  0  0  0  0  0  0  0
   40.7700   32.6580   37.7850 C   0  0  0  0  0  0  0  0  0  0  0  0
   40.9460   34.5500   40.8980 N   0  0  0  0  0  0  0  0  0  0  0  0
   41.3370   34.4320   41.8500 H   0  0  0  0  0  0  0  0  0  0  0  0
   40.1370   35.1760   41.1260 H   0  0  0  0  0  0  0  0  0  0  0  0
  1  7  1  6  0  0  0
  1 22  1  0  0  0  0
  2  8  1  6  0  0  0
  2  1  1  0  0  0  0
  2 15  1  0  0  0  0
  2  3  1  0  0  0  0
  4  5  1  0  0  0  0
  4 10  1  0  0  0  0
  4  3  1  0  0  0  0
  5 11  1  6  0  0  0
  5 24  1  0  0  0  0
  6  1  1  0  0  0  0
  6  5  1  0  0  0  0
  6 12  1  1  0  0  0
  9  4  1  0  0  0  0
 13 19  1  0  0  0  0
 14 20  1  0  0  0  0
 14 13  1  0  0  0  0
 15 14  2  0  0  0  0
 16 15  1  0  0  0  0
 16 17  2  0  0  0  0
 17 18  1  0  0  0  0
 18 13  2  0  0  0  0
 21 17  1  0  0  0  0
 23 22  1  0  0  0  0
 25 24  1  0  0  0  0
 26  6  1  0  0  0  0
 27 28  1  0  0  0  0
 28 37  1  0  0  0  0
 28 29  1  0  0  0  0
 29 26  1  0  0  0  0
 29 30  2  0  0  0  0
 31 30  1  0  0  0  0
 31 32  1  0  0  0  0
 32 38  1  0  0  0  0
 33 32  2  0  0  0  0
 34 33  1  0  0  0  0
 35 34  1  0  0  0  0
 36 34  2  0  0  0  0
 36 37  1  0  0  0  0
 37 31  2  0  0  0  0
 38 40  1  0  0  0  0
 38 39  1  0  0  0  0
M  END
>  <minimizedAffinity>
-6.36019039

$$$$

 OpenBabel03242521293D

 40 43  0  0  1  0  0  0  0  0999 V2000
   37.7630   30.3400   41.6180 C   0  0  1  0  0  0  0  0  0  0  0  0
   38.5840   29.2590   40.9540 C   0  0  2  0  0  0  0  0  0  0  0  0
   37.8260   28.4880   40.0960 O   0  0  0  0  0  0  0  0  0  0  0  0
   37.5210   29.2940   39.0130 C   0  0  0  0  0  0  0  0  0  0  0  0
   36.4950   30.2980   39.4490 C   0  0  2  0  0  0  0  0  0  0  0  0
   36.8220   31.0390   40.7000 C   0  0  2  0  0  0  0  0  0  0  0  0
   38.5290   31.0900   41.9740 H   0  0  0  0  0  0  0  0  0  0  0  0
   39.3820   29.7620   40.3640 H   0  0  0  0  0  0  0  0  0  0  0  0
   38.4030   29.7600   38.5350 H   0  0  0  0  0  0  0  0  0  0  0  0
   37.0340   28.6380   38.2600 H   0  0  0  0  0  0  0  0  0  0  0  0
   36.3130   31.0020   38.5970 H   0  0  0  0  0  0  0  0  0  0  0  0
   35.8530   31.1540   41.2530 H   0  0  0  0  0  0  0  0  0  0  0  0
   41.1300   27.8120   43.3570 C   0  0  0  0  0  0  0  0  0  0  0  0
   40.5480   28.6520   42.3980 C   0  0  0  0  0  0  0  0  0  0  0  0
   39.2140   28.4020   41.9680 C   0  0  0  0  0  0  0  0  0  0  0  0
   38.5710   27.3490   42.5180 N   0  0  0  0  0  0  0  0  0  0  0  0
   39.1580   26.5500   43.4430 C   0  0  0  0  0  0  0  0  0  0  0  0
   40.4300   26.7780   43.8630 N   0  0  0  0  0  0  0  0  0  0  0  0
   42.1410   28.1160   43.5910 H   0  0  0  0  0  0  0  0  0  0  0  0
   41.0710   29.5070   41.9530 H   0  0  0  0  0  0  0  0  0  0  0  0
   38.6110   25.7070   43.8680 H   0  0  0  0  0  0  0  0  0  0  0  0
   37.1390   29.8820   42.7840 O   0  0  0  0  0  0  0  0  0  0  0  0
   36.9780   30.5880   43.4360 H   0  0  0  0  0  0  0  0  0  0  0  0
   35.2910   29.5770   39.5790 O   0  0  0  0  0  0  0  0  0  0  0  0
   34.5540   30.2460   39.4770 H   0  0  0  0  0  0  0  0  0  0  0  0
   37.2330   32.3620   40.4440 O   0  0  0  0  0  0  0  0  0  0  0  0
   38.5050   32.0860   37.9120 H   0  0  0  0  0  0  0  0  0  0  0  0
   39.0340   32.5450   38.6870 N   0  0  0  0  0  0  0  0  0  0  0  0
   38.4540   32.6880   39.8920 C   0  0  0  0  0  0  0  0  0  0  0  0
   39.3260   33.3090   40.7380 N   0  0  0  0  0  0  0  0  0  0  0  0
   40.4720   33.5640   40.0590 C   0  0  0  0  0  0  0  0  0  0  0  0
   41.7060   34.1490   40.3140 C   0  0  0  0  0  0  0  0  0  0  0  0
   42.6030   34.2070   39.3360 N   0  0  0  0  0  0  0  0  0  0  0  0
   42.4200   33.7410   38.0880 C   0  0  0  0  0  0  0  0  0  0  0  0
   43.2100   33.8330   37.3550 H   0  0  0  0  0  0  0  0  0  0  0  0
   41.2130   33.1670   37.8320 N   0  0  0  0  0  0  0  0  0  0  0  0
   40.2660   33.0780   38.7810 C   0  0  0  0  0  0  0  0  0  0  0  0
   41.9160   34.6480   41.6290 N   0  0  0  0  0  0  0  0  0  0  0  0
   42.4840   34.3600   42.4460 H   0  0  0  0  0  0  0  0  0  0  0  0
   41.4660   35.5050   42.0320 H   0  0  0  0  0  0  0  0  0  0  0  0
  1  7  1  1  0  0  0
  1 22  1  0  0  0  0
  2  8  1  6  0  0  0
  2  1  1  0  0  0  0
  2 15  1  0  0  0  0
  3  2  1  0  0  0  0
  4  5  1  0  0  0  0
  4  3  1  0  0  0  0
  5 11  1  6  0  0  0
  5 24  1  0  0  0  0
  5  6  1  0  0  0  0
  6 12  1  1  0  0  0
  6  1  1  0  0  0  0
  9  4  1  0  0  0  0
 10  4  1  0  0  0  0
 13 19  1  0  0  0  0
 13 18  1  0  0  0  0
 14 13  2  0  0  0  0
 15 14  1  0  0  0  0
 15 16  2  0  0  0  0
 16 17  1  0  0  0  0
 17 18  2  0  0  0  0
 17 21  1  0  0  0  0
 20 14  1  0  0  0  0
 22 23  1  0  0  0  0
 25 24  1  0  0  0  0
 26  6  1  0  0  0  0
 27 28  1  0  0  0  0
 28 37  1  0  0  0  0
 28 29  1  0  0  0  0
 29 26  1  0  0  0  0
 29 30  2  0  0  0  0
 31 32  1  0  0  0  0
 31 30  1  0  0  0  0
 32 38  1  0  0  0  0
 33 32  2  0  0  0  0
 34 33  1  0  0  0  0
 35 34  1  0  0  0  0
 36 34  2  0  0  0  0
 36 37  1  0  0  0  0
 37 31  2  0  0  0  0
 38 40  1  0  0  0  0
 38 39  1  0  0  0  0
M  END
>  <minimizedAffinity>
-6.07103491

$$$$
