
 OpenBabel03252504233D

 37 41  0  0  0  0  0  0  0  0999 V2000
   46.8240   33.2540   39.9550 C   0  0  0  0  0  0  0  0  0  0  0  0
   48.2050   33.0240   39.9790 C   0  0  0  0  0  0  0  0  0  0  0  0
   48.8760   33.1280   41.2140 C   0  0  0  0  0  0  0  0  0  0  0  0
   48.1290   33.4460   42.3090 N   0  0  0  0  0  0  0  0  0  0  0  0
   46.7930   33.6600   42.2380 C   0  0  0  0  0  0  0  0  0  0  0  0
   46.1480   33.5630   41.0660 N   0  0  0  0  0  0  0  0  0  0  0  0
   46.0990   33.9860   43.4360 N   0  0  0  0  0  0  0  0  0  0  0  0
   45.1670   34.9600   43.5750 C   0  0  0  0  0  0  0  0  0  0  0  0
   44.7450   34.9520   44.8730 N   0  0  0  0  0  0  0  0  0  0  0  0
   45.4180   33.9880   45.4930 C   0  0  0  0  0  0  0  0  0  0  0  0
   45.4270   33.5130   46.7750 C   0  0  0  0  0  0  0  0  0  0  0  0
   46.2130   32.5090   47.1630 N   0  0  0  0  0  0  0  0  0  0  0  0
   47.0580   31.8920   46.3070 C   0  0  0  0  0  0  0  0  0  0  0  0
   47.0540   32.3520   45.0490 N   0  0  0  0  0  0  0  0  0  0  0  0
   46.2830   33.3570   44.6140 C   0  0  0  0  0  0  0  0  0  0  0  0
   48.8070   32.7730   39.1180 H   0  0  0  0  0  0  0  0  0  0  0  0
   49.9340   32.9630   41.2880 H   0  0  0  0  0  0  0  0  0  0  0  0
   44.7960   35.6430   42.8110 H   0  0  0  0  0  0  0  0  0  0  0  0
   47.7030   31.0750   46.6090 H   0  0  0  0  0  0  0  0  0  0  0  0
   44.6090   34.0400   47.7950 N   0  0  0  0  0  0  0  0  0  0  0  0
   45.0390   34.8810   48.2740 H   0  0  0  0  0  0  0  0  0  0  0  0
   43.6790   33.7250   48.1270 H   0  0  0  0  0  0  0  0  0  0  0  0
   46.0820   33.0920   38.3190 S   0  0  0  0  0  0  0  0  0  0  0  0
   44.0260   35.3280   38.9910 H   0  0  0  0  0  0  0  0  0  0  0  0
   43.5970   34.4330   38.6970 N   0  0  0  0  0  0  0  0  0  0  0  0
   44.3260   33.3520   38.3660 C   0  0  0  0  0  0  0  0  0  0  0  0
   43.4290   32.3870   38.0410 N   0  0  0  0  0  0  0  0  0  0  0  0
   42.1980   32.8690   38.1710 C   0  0  0  0  0  0  0  0  0  0  0  0
   40.9310   32.3630   37.9830 C   0  0  0  0  0  0  0  0  0  0  0  0
   39.8770   33.1490   38.2130 N   0  0  0  0  0  0  0  0  0  0  0  0
   39.9920   34.4190   38.6210 C   0  0  0  0  0  0  0  0  0  0  0  0
   39.0630   34.9710   38.7780 H   0  0  0  0  0  0  0  0  0  0  0  0
   41.2180   34.9620   38.8190 N   0  0  0  0  0  0  0  0  0  0  0  0
   42.2860   34.1790   38.5900 C   0  0  0  0  0  0  0  0  0  0  0  0
   40.7380   31.0380   37.5570 N   0  0  0  0  0  0  0  0  0  0  0  0
   41.5030   30.4510   37.1500 H   0  0  0  0  0  0  0  0  0  0  0  0
   39.8070   30.5640   37.6260 H   0  0  0  0  0  0  0  0  0  0  0  0
  1  2  2  0  0  0  0
  1  6  1  0  0  0  0
  2  3  1  0  0  0  0
  3 17  1  0  0  0  0
  3  4  2  0  0  0  0
  5  4  1  0  0  0  0
  5  7  1  0  0  0  0
  6  5  2  0  0  0  0
  7  8  1  0  0  0  0
  7 15  1  0  0  0  0
  8  9  2  0  0  0  0
  9 10  1  0  0  0  0
 10 11  1  0  0  0  0
 11 12  2  0  0  0  0
 11 20  1  0  0  0  0
 13 19  1  0  0  0  0
 13 12  1  0  0  0  0
 14 13  2  0  0  0  0
 15 14  1  0  0  0  0
 15 10  2  0  0  0  0
 16  2  1  0  0  0  0
 18  8  1  0  0  0  0
 20 22  1  0  0  0  0
 20 21  1  0  0  0  0
 23 26  1  0  0  0  0
 23  1  1  0  0  0  0
 25 24  1  0  0  0  0
 26 25  1  0  0  0  0
 27 28  1  0  0  0  0
 27 26  2  0  0  0  0
 28 34  1  0  0  0  0
 29 28  2  0  0  0  0
 29 30  1  0  0  0  0
 30 31  2  0  0  0  0
 31 32  1  0  0  0  0
 31 33  1  0  0  0  0
 34 25  1  0  0  0  0
 34 33  2  0  0  0  0
 35 37  1  0  0  0  0
 35 29  1  0  0  0  0
 36 35  1  0  0  0  0
M  END
>  <minimizedAffinity>
-6.56467915

>  <minimizedRMSD>
1.08432329

$$$$
