
     RDKit          3D

 49 53  0  0  0  0  0  0  0  0999 V2000
   45.0025   34.9045   44.9020 C   0  0  0  0  0  0  0  0  0  0  0  0
   45.9093   34.7234   43.8629 C   0  0  0  0  0  0  0  0  0  0  0  0
   46.7962   33.6530   43.9748 C   0  0  0  0  0  0  0  0  0  0  0  0
   46.7704   32.8282   45.0491 N   0  0  0  0  0  0  0  0  0  0  0  0
   45.8731   33.0383   46.0385 C   0  0  0  0  0  0  0  0  0  0  0  0
   44.9866   34.0724   45.9743 N   0  0  0  0  0  0  0  0  0  0  0  0
   47.3274   31.8362   47.6584 C   0  0  2  0  0  0  0  0  0  0  0  0
   45.8754   32.1197   47.1785 C   0  0  1  0  0  0  0  0  0  0  0  0
   45.3611   32.6056   48.3314 O   0  0  0  0  0  0  0  0  0  0  0  0
   45.7460   31.7833   49.3486 C   0  0  0  0  0  0  0  0  0  0  0  0
   46.9589   30.9982   48.8904 C   0  0  2  0  0  0  0  0  0  0  0  0
   47.9039   32.9688   48.1002 O   0  0  0  0  0  0  0  0  0  0  0  0
   47.9612   30.9229   49.8085 O   0  0  0  0  0  0  0  0  0  0  0  0
   45.9237   35.6126   42.7153 C   0  0  0  0  0  0  0  0  0  0  0  0
   44.9412   35.1727   41.7147 C   0  0  0  0  0  0  0  0  0  0  0  0
   43.6698   35.6799   41.5782 C   0  0  0  0  0  0  0  0  0  0  0  0
   42.7853   35.2303   40.6302 C   0  0  0  0  0  0  0  0  0  0  0  0
   43.1806   34.2310   39.7788 C   0  0  0  0  0  0  0  0  0  0  0  0
   44.4645   33.7020   39.8987 C   0  0  0  0  0  0  0  0  0  0  0  0
   45.3559   34.1690   40.8676 C   0  0  0  0  0  0  0  0  0  0  0  0
   44.3035   35.7058   44.8678 H   0  0  0  0  0  0  0  0  0  0  0  0
   47.5459   33.4100   43.2731 H   0  0  0  0  0  0  0  0  0  0  0  0
   47.8782   31.2459   46.9074 H   0  0  0  0  0  0  0  0  0  0  0  0
   45.4052   31.1332   46.9384 H   0  0  0  0  0  0  0  0  0  0  0  0
   46.0145   32.4052   50.2281 H   0  0  0  0  0  0  0  0  0  0  0  0
   44.8908   31.0946   49.5850 H   0  0  0  0  0  0  0  0  0  0  0  0
   46.6327   29.9880   48.5969 H   0  0  0  0  0  0  0  0  0  0  0  0
   48.9028   32.8403   48.0651 H   0  0  0  0  0  0  0  0  0  0  0  0
   48.7432   31.4995   49.6051 H   0  0  0  0  0  0  0  0  0  0  0  0
   46.9300   35.5983   42.2500 H   0  0  0  0  0  0  0  0  0  0  0  0
   45.7662   36.6776   43.0084 H   0  0  0  0  0  0  0  0  0  0  0  0
   43.4240   36.4635   42.2805 H   0  0  0  0  0  0  0  0  0  0  0  0
   41.8061   35.6955   40.6036 H   0  0  0  0  0  0  0  0  0  0  0  0
   42.4432   33.9211   39.0581 H   0  0  0  0  0  0  0  0  0  0  0  0
   44.6201   32.9211   39.1523 H   0  0  0  0  0  0  0  0  0  0  0  0
   46.5749   33.4581   40.7310 N   0  0  0  0  0  0  0  0  0  0  0  0
   47.5082   33.5934   39.7706 C   0  0  0  0  0  0  0  0  0  0  0  0
   47.5118   34.2635   38.9231 H   0  0  0  0  0  0  0  0  0  0  0  0
   48.5104   32.7454   39.9846 N   0  0  0  0  0  0  0  0  0  0  0  0
   48.2459   32.0359   41.0980 C   0  0  0  0  0  0  0  0  0  0  0  0
   48.8713   31.0522   41.8012 C   0  0  0  0  0  0  0  0  0  0  0  0
   50.1235   30.6219   41.2799 N   0  0  0  0  0  0  0  0  0  0  0  0
   51.0783   30.3244   41.5608 H   0  0  0  0  0  0  0  0  0  0  0  0
   48.3450   30.5102   42.9262 N   0  0  0  0  0  0  0  0  0  0  0  0
   47.1423   30.9596   43.3814 C   0  0  0  0  0  0  0  0  0  0  0  0
   46.6597   30.5744   44.2730 H   0  0  0  0  0  0  0  0  0  0  0  0
   46.5125   31.9257   42.7042 N   0  0  0  0  0  0  0  0  0  0  0  0
   47.0110   32.4825   41.5842 C   0  0  0  0  0  0  0  0  0  0  0  0
   50.2621   30.5306   40.2571 H   0  0  0  0  0  0  0  0  0  0  0  0
  1  6  2  0
  2  3  2  0
  2  1  1  0
  3  4  1  0
  4  5  2  0
  5  8  1  0
  6  5  1  0
  7 12  1  0
  7 11  1  0
  8  7  1  0
  8  9  1  0
  9 10  1  0
 11 10  1  0
 11 13  1  0
 14  2  1  0
 15 14  1  0
 16 15  2  0
 17 16  1  0
 18 19  1  0
 18 17  2  0
 19 20  2  0
 20 15  1  0
  1 21  1  0
  3 22  1  0
  7 23  1  6
  8 24  1  6
 10 25  1  0
 10 26  1  0
 11 27  1  6
 12 28  1  0
 13 29  1  0
 14 30  1  0
 14 31  1  0
 16 32  1  0
 17 33  1  0
 18 34  1  0
 19 35  1  0
 36 37  1  0
 37 38  1  0
 37 39  2  0
 39 40  1  0
 40 41  2  0
 41 42  1  0
 42 43  1  0
 41 44  1  0
 44 45  2  0
 45 46  1  0
 45 47  1  0
 47 48  2  0
 48 36  1  0
 48 40  1  0
 42 49  1  0
 20 36  1  0
M  ISO  8  21  14  22  14  23  13  24  13  25  13  26  13  27  13  28   3
M  ISO  8  29   3  30   8  31   8  32  14  33  14  34  14  35  14  38  15
M  ISO  2  43   5  46  16
M  END
>  <DihAtoms>  (1) 
18,19,35,36

>  <DihDeg>  (1) 
118.56055216860891

$$$$
