REMARK  Name = 
REMARK  4 active torsions:
REMARK  status: ('A' for Active; 'I' for Inactive)
REMARK    1  A    between atoms: C_2  and  C_14
REMARK    2  A    between atoms: C_10  and  C_16
REMARK    3  A    between atoms: C_16  and  C_28
REMARK    4  A    between atoms: C_31  and  N_32
REMARK                            x       y       z     vdW  Elec       q    Type
REMARK                         _______ _______ _______ _____ _____    ______ ____
ROOT
ATOM      1  C   UNL     1      46.903  34.918  42.629  0.00  0.00    +0.000 A 
ATOM      2  C   UNL     1      45.973  35.962  42.548  0.00  0.00    +0.000 A 
ATOM      3  C   UNL     1      44.959  36.003  43.502  0.00  0.00    +0.000 A 
ATOM      4  N   UNL     1      44.931  35.037  44.449  0.00  0.00    +0.000 NA
ATOM      5  C   UNL     1      45.844  34.048  44.495  0.00  0.00    +0.000 A 
ATOM      6  N   UNL     1      46.835  33.979  43.589  0.00  0.00    +0.000 NA
ATOM      7  H   UNL     1      46.020  36.725  41.775  0.00  0.00    +0.000 HD
ATOM      8  H   UNL     1      44.228  36.806  43.456  0.00  0.00    +0.000 HD
ENDROOT
BRANCH   5  10
ATOM      9  C   UNL     1      46.036  31.694  45.137  0.00  0.00    +0.000 A 
ATOM     10  C   UNL     1      45.795  33.007  45.533  0.00  0.00    +0.000 A 
ATOM     11  C   UNL     1      45.525  33.280  46.853  0.00  0.00    +0.000 A 
ATOM     12  C   UNL     1      45.496  32.251  47.771  0.00  0.00    +0.000 A 
ATOM     13  N   UNL     1      45.269  32.197  49.084  0.00  0.00    +0.000 N 
ATOM     14  C   UNL     1      45.349  30.947  49.548  0.00  0.00    +0.000 A 
ATOM     15  C   UNL     1      45.643  30.124  48.497  0.00  0.00    +0.000 A 
ATOM     16  C   UNL     1      45.735  30.941  47.385  0.00  0.00    +0.000 A 
ATOM     17  C   UNL     1      46.008  30.663  46.052  0.00  0.00    +0.000 A 
ATOM     18  H   UNL     1      46.252  31.456  44.096  0.00  0.00    +0.000 HD
ATOM     19  H   UNL     1      45.338  34.304  47.155  0.00  0.00    +0.000 HD
ATOM     20  H   UNL     1      45.057  33.040  49.662  0.00  0.00    +0.000 HD
ATOM     21  H   UNL     1      45.203  30.649  50.589  0.00  0.00    +0.000 HD
ATOM     22  H   UNL     1      45.778  29.071  48.509  0.00  0.00    +0.000 HD
ATOM     23  H   UNL     1      46.199  29.659  45.708  0.00  0.00    +0.000 HD
ENDBRANCH   5  10
BRANCH   1  24
ATOM     24  C   UNL     1      47.925  34.933  41.612  0.00  0.00    +0.000 C 
ATOM     25  O   UNL     1      48.816  35.840  41.490  0.00  0.00    +0.000 OA
BRANCH  24  28
ATOM     26  H   UNL     1      49.685  32.684  41.291  0.00  0.00    +0.000 HD
ATOM     27  N   UNL     1      48.915  32.858  40.634  0.00  0.00    +0.000 N 
ATOM     28  C   UNL     1      47.992  33.845  40.614  0.00  0.00    +0.000 A 
ATOM     29  N   UNL     1      47.182  33.656  39.557  0.00  0.00    +0.000 NA
ATOM     30  C   UNL     1      47.559  32.562  38.886  0.00  0.00    +0.000 A 
ATOM     31  C   UNL     1      47.181  31.842  37.771  0.00  0.00    +0.000 A 
ATOM     32  N   UNL     1      47.782  30.736  37.331  0.00  0.00    +0.000 NA
ATOM     33  C   UNL     1      48.856  30.266  38.022  0.00  0.00    +0.000 A 
ATOM     34  H   UNL     1      49.444  29.391  37.793  0.00  0.00    +0.000 HD
ATOM     35  N   UNL     1      49.250  30.946  39.114  0.00  0.00    +0.000 NA
ATOM     36  C   UNL     1      48.654  32.058  39.567  0.00  0.00    +0.000 A 
BRANCH  31  37
ATOM     37  N   UNL     1      46.059  32.325  37.042  0.00  0.00    +0.000 N 
ATOM     38  H   UNL     1      45.154  32.146  37.570  0.00  0.00    +0.000 HD
ATOM     39  H   UNL     1      45.647  32.792  36.205  0.00  0.00    +0.000 HD
ENDBRANCH  31  37
ENDBRANCH  24  28
ENDBRANCH   1  24
TORSDOF 4
