
 OpenBabel03252502563D

 42 45  0  0  0  0  0  0  0  0999 V2000
   45.1440   29.7280   43.7640 Br  0  0  0  0  0  0  0  0  0  0  0  0
   46.9120   29.0900   44.2330 C   0  0  0  0  0  0  0  0  0  0  0  0
   47.6490   29.9330   45.0020 C   0  0  0  0  0  0  0  0  0  0  0  0
   48.9230   29.4460   45.3250 C   0  0  0  0  0  0  0  0  0  0  0  0
   49.3940   28.2260   44.9070 C   0  0  0  0  0  0  0  0  0  0  0  0
   48.5840   27.4360   44.1330 C   0  0  0  0  0  0  0  0  0  0  0  0
   47.3190   27.8600   43.7810 C   0  0  0  0  0  0  0  0  0  0  0  0
   49.5930   30.0310   45.9300 H   0  0  0  0  0  0  0  0  0  0  0  0
   50.3830   27.8900   45.1790 H   0  0  0  0  0  0  0  0  0  0  0  0
   48.8980   26.4680   43.7740 H   0  0  0  0  0  0  0  0  0  0  0  0
   47.2680   31.2530   45.5120 C   0  0  0  0  0  0  0  0  0  0  0  0
   48.0970   31.9550   45.3710 H   0  0  0  0  0  0  0  0  0  0  0  0
   46.4490   31.6240   44.8360 H   0  0  0  0  0  0  0  0  0  0  0  0
   47.0330   31.1130   49.2270 C   0  0  0  0  0  0  0  0  0  0  0  0
   45.6630   31.2500   49.4380 C   0  0  0  0  0  0  0  0  0  0  0  0
   44.8400   31.3870   48.3130 C   0  0  0  0  0  0  0  0  0  0  0  0
   45.4050   31.3810   47.0910 N   0  0  0  0  0  0  0  0  0  0  0  0
   46.7490   31.2460   46.8990 C   0  0  0  0  0  0  0  0  0  0  0  0
   47.5300   31.1150   47.9950 N   0  0  0  0  0  0  0  0  0  0  0  0
   47.6610   31.0070   50.1060 H   0  0  0  0  0  0  0  0  0  0  0  0
   45.2060   31.2540   50.4190 H   0  0  0  0  0  0  0  0  0  0  0  0
   43.7790   31.4970   48.3650 H   0  0  0  0  0  0  0  0  0  0  0  0
   46.5070   27.0490   42.9940 O   0  0  0  0  0  0  0  0  0  0  0  0
   45.7040   24.6220   42.5370 O   0  0  0  0  0  0  0  0  0  0  0  0
   45.6470   25.7200   43.5820 P   0  0  2  0  0  0  0  0  0  0  0  0
   44.0600   26.2120   43.8400 O   0  0  0  0  0  0  0  0  0  0  0  0
   43.9680   26.5310   44.7640 H   0  0  0  0  0  0  0  0  0  0  0  0
   46.3390   25.1170   45.0060 O   0  0  0  0  0  0  0  0  0  0  0  0
   44.3690   26.8010   46.1670 H   0  0  0  0  0  0  0  0  0  0  0  0
   44.9050   26.1280   46.7560 N   0  0  0  0  0  0  0  0  0  0  0  0
   45.8510   25.3010   46.2690 C   0  0  0  0  0  0  0  0  0  0  0  0
   46.3370   24.5750   47.2950 N   0  0  0  0  0  0  0  0  0  0  0  0
   45.6690   24.9770   48.4020 C   0  0  0  0  0  0  0  0  0  0  0  0
   45.8260   24.5090   49.7110 C   0  0  0  0  0  0  0  0  0  0  0  0
   45.0390   25.0680   50.6500 N   0  0  0  0  0  0  0  0  0  0  0  0
   44.1520   26.0310   50.3110 C   0  0  0  0  0  0  0  0  0  0  0  0
   43.5860   26.3940   51.1560 H   0  0  0  0  0  0  0  0  0  0  0  0
   43.9980   26.4870   49.0410 N   0  0  0  0  0  0  0  0  0  0  0  0
   44.7560   25.9610   48.0820 C   0  0  0  0  0  0  0  0  0  0  0  0
   46.7870   23.4860   49.9900 N   0  0  0  0  0  0  0  0  0  0  0  0
   47.6880   23.5560   50.5280 H   0  0  0  0  0  0  0  0  0  0  0  0
   46.6350   22.5090   49.6400 H   0  0  0  0  0  0  0  0  0  0  0  0
  1  2  1  0  0  0  0
  2  3  1  0  0  0  0
  3  4  2  0  0  0  0
  3 11  1  0  0  0  0
  4  8  1  0  0  0  0
  5  9  1  0  0  0  0
  5  4  1  0  0  0  0
  6  5  2  0  0  0  0
  7  6  1  0  0  0  0
  7  2  2  0  0  0  0
 10  6  1  0  0  0  0
 11 18  1  0  0  0  0
 12 11  1  0  0  0  0
 13 11  1  0  0  0  0
 14 15  1  0  0  0  0
 14 20  1  0  0  0  0
 15 21  1  0  0  0  0
 16 22  1  0  0  0  0
 16 15  2  0  0  0  0
 17 16  1  0  0  0  0
 18 17  2  0  0  0  0
 18 19  1  0  0  0  0
 19 14  2  0  0  0  0
 23 25  1  0  0  0  0
 23  7  1  0  0  0  0
 25 24  2  6  0  0  0
 25 26  1  0  0  0  0
 25 28  1  0  0  0  0
 26 27  1  0  0  0  0
 28 31  1  0  0  0  0
 29 30  1  0  0  0  0
 30 39  1  0  0  0  0
 31 30  1  0  0  0  0
 31 32  2  0  0  0  0
 32 33  1  0  0  0  0
 33 34  1  0  0  0  0
 34 40  1  0  0  0  0
 34 35  2  0  0  0  0
 36 35  1  0  0  0  0
 36 37  1  0  0  0  0
 38 36  2  0  0  0  0
 39 33  2  0  0  0  0
 39 38  1  0  0  0  0
 40 41  1  0  0  0  0
 42 40  1  0  0  0  0
M  END
>  <minimizedAffinity>
-3.71292067

>  <minimizedRMSD>
4.74007463

$$$$
