
     RDKit          3D

 40 43  0  0  0  0  0  0  0  0999 V2000
   43.9835   34.5740   41.2845 C   0  0  0  0  0  0  0  0  0  0  0  0
   42.8275   35.2808   40.8797 C   0  0  0  0  0  0  0  0  0  0  0  0
   42.2894   35.0346   39.6285 C   0  0  0  0  0  0  0  0  0  0  0  0
   42.9291   34.1003   38.8470 N   0  0  0  0  0  0  0  0  0  0  0  0
   44.0378   33.4477   39.2813 C   0  0  0  0  0  0  0  0  0  0  0  0
   44.5584   33.6807   40.4839 N   0  0  0  0  0  0  0  0  0  0  0  0
   44.5572   34.8528   42.6244 C   0  0  0  0  0  0  0  0  0  0  0  0
   46.0614   35.2964   42.5350 C   0  0  0  0  0  0  0  0  0  0  0  0
   44.9793   36.1289   43.0715 C   0  0  0  0  0  0  0  0  0  0  0  0
   41.0725   35.7501   39.1747 C   0  0  0  0  0  0  0  0  0  0  0  0
   39.9755   35.6365   40.2110 C   0  0  0  0  0  0  0  0  0  0  0  0
   39.0497   33.4397   40.7393 C   0  0  0  0  0  0  0  0  0  0  0  0
   39.7749   33.2668   41.7585 O   0  0  0  0  0  0  0  0  0  0  0  0
   39.0269   34.5866   39.9067 N   0  0  0  0  0  0  0  0  0  0  0  0
   42.4016   35.9920   41.5635 H   0  0  0  0  0  0  0  0  0  0  0  0
   44.5131   32.7157   38.6306 H   0  0  0  0  0  0  0  0  0  0  0  0
   44.4345   34.0021   43.3575 H   0  0  0  0  0  0  0  0  0  0  0  0
   46.7738   34.7552   43.1687 H   0  0  0  0  0  0  0  0  0  0  0  0
   46.4345   35.5821   41.5391 H   0  0  0  0  0  0  0  0  0  0  0  0
   45.0112   36.3396   44.1706 H   0  0  0  0  0  0  0  0  0  0  0  0
   44.6860   37.0725   42.5249 H   0  0  0  0  0  0  0  0  0  0  0  0
   41.3189   36.8122   38.9700 H   0  0  0  0  0  0  0  0  0  0  0  0
   40.7538   35.3151   38.1996 H   0  0  0  0  0  0  0  0  0  0  0  0
   40.4471   35.5255   41.1880 H   0  0  0  0  0  0  0  0  0  0  0  0
   39.4615   36.6416   40.2490 H   0  0  0  0  0  0  0  0  0  0  0  0
   38.3700   34.6941   39.1086 H   0  0  0  0  0  0  0  0  0  0  0  0
   36.8530   32.1094   42.0647 H   0  0  0  0  0  0  0  0  0  0  0  0
   37.1144   31.8020   41.1047 N   0  0  0  0  0  0  0  0  0  0  0  0
   38.1282   32.3430   40.3672 C   0  0  0  0  0  0  0  0  0  0  0  0
   38.1186   31.6517   39.1919 N   0  0  0  0  0  0  0  0  0  0  0  0
   37.1599   30.7282   39.1796 C   0  0  0  0  0  0  0  0  0  0  0  0
   36.8200   29.8230   38.1794 C   0  0  0  0  0  0  0  0  0  0  0  0
   37.5480   29.8099   36.9582 N   0  0  0  0  0  0  0  0  0  0  0  0
   37.2715   30.7173   36.5164 H   0  0  0  0  0  0  0  0  0  0  0  0
   35.7775   29.0022   38.4824 N   0  0  0  0  0  0  0  0  0  0  0  0
   35.1433   29.0809   39.6623 C   0  0  0  0  0  0  0  0  0  0  0  0
   34.3199   28.3975   39.8408 H   0  0  0  0  0  0  0  0  0  0  0  0
   35.5017   29.9732   40.6094 N   0  0  0  0  0  0  0  0  0  0  0  0
   36.5207   30.8243   40.3977 C   0  0  0  0  0  0  0  0  0  0  0  0
   38.2152   29.1184   36.5213 H   0  0  0  0  0  0  0  0  0  0  0  0
  1  7  1  0
  2  1  2  0
  3  2  1  0
  4  5  1  0
  4  3  2  0
  5  6  2  0
  6  1  1  0
  7  9  1  0
  8  7  1  0
  8  9  1  0
 10  3  1  0
 10 11  1  0
 12 13  2  0
 14 11  1  0
 14 12  1  0
  2 15  1  0
  5 16  1  0
  7 17  1  0
  8 18  1  0
  8 19  1  0
  9 20  1  0
  9 21  1  0
 10 22  1  0
 10 23  1  0
 11 24  1  0
 11 25  1  0
 14 26  1  0
 27 28  1  0
 28 29  1  0
 29 30  2  0
 30 31  1  0
 31 32  2  0
 32 33  1  0
 33 34  1  0
 32 35  1  0
 35 36  2  0
 36 37  1  0
 36 38  1  0
 38 39  2  0
 39 28  1  0
 39 31  1  0
 33 40  1  0
 12 29  1  0
M  ISO  8  15  14  16  14  17  13  18  13  19  13  20  13  21  13  22   8
M  ISO  6  23   8  24   8  25   8  27   9  34   5  37  16
M  END
>  <DihAtoms>  (1) 
12,11,28,27

>  <DihDeg>  (1) 
-179.99446571167357

$$$$
