
 OpenBabel03252506253D

 50 55  0  0  0  0  0  0  0  0999 V2000
   45.4280   27.7180   48.0590 C   0  0  0  0  0  0  0  0  0  0  0  0
   45.0210   29.0190   47.8410 C   0  0  0  0  0  0  0  0  0  0  0  0
   44.2210   29.2340   46.7150 C   0  0  0  0  0  0  0  0  0  0  0  0
   43.8600   28.2080   45.8730 C   0  0  0  0  0  0  0  0  0  0  0  0
   43.1200   28.1150   44.7450 N   0  0  0  0  0  0  0  0  0  0  0  0
   43.0770   26.8520   44.3050 C   0  0  0  0  0  0  0  0  0  0  0  0
   43.8100   26.0530   45.1560 C   0  0  0  0  0  0  0  0  0  0  0  0
   44.2730   26.9240   46.1050 C   0  0  0  0  0  0  0  0  0  0  0  0
   45.0650   26.7050   47.2170 C   0  0  0  0  0  0  0  0  0  0  0  0
   46.0480   27.6170   48.9510 H   0  0  0  0  0  0  0  0  0  0  0  0
   43.8270   30.1960   46.4150 H   0  0  0  0  0  0  0  0  0  0  0  0
   42.6400   28.9090   44.2660 H   0  0  0  0  0  0  0  0  0  0  0  0
   42.5500   26.4910   43.4140 H   0  0  0  0  0  0  0  0  0  0  0  0
   43.9380   24.9880   45.0300 H   0  0  0  0  0  0  0  0  0  0  0  0
   45.5270   25.3930   47.5130 N   0  0  0  0  0  0  0  0  0  0  0  0
   45.0170   24.6790   48.5230 C   0  0  0  0  0  0  0  0  0  0  0  0
   44.2480   24.8520   49.2730 H   0  0  0  0  0  0  0  0  0  0  0  0
   45.6260   23.4790   48.5850 N   0  0  0  0  0  0  0  0  0  0  0  0
   46.5400   23.4260   47.6000 C   0  0  0  0  0  0  0  0  0  0  0  0
   47.4710   22.4910   47.1420 C   0  0  0  0  0  0  0  0  0  0  0  0
   48.2610   22.7790   46.0850 N   0  0  0  0  0  0  0  0  0  0  0  0
   48.1690   23.9770   45.4470 C   0  0  0  0  0  0  0  0  0  0  0  0
   48.8440   24.1020   44.6180 H   0  0  0  0  0  0  0  0  0  0  0  0
   47.2680   24.9130   45.8700 N   0  0  0  0  0  0  0  0  0  0  0  0
   46.4750   24.6470   46.9190 C   0  0  0  0  0  0  0  0  0  0  0  0
   47.4720   21.2920   47.8820 N   0  0  0  0  0  0  0  0  0  0  0  0
   48.1040   21.5110   48.7070 H   0  0  0  0  0  0  0  0  0  0  0  0
   46.8390   20.7030   47.2830 H   0  0  0  0  0  0  0  0  0  0  0  0
   45.2880   30.2320   48.5990 C   0  0  0  0  0  0  0  0  0  0  0  0
   44.4870   30.9850   48.4640 H   0  0  0  0  0  0  0  0  0  0  0  0
   45.2140   29.9490   49.6880 H   0  0  0  0  0  0  0  0  0  0  0  0
   46.6130   30.8670   48.4220 C   0  0  0  0  0  0  0  0  0  0  0  0
   47.4510   30.1930   48.5670 H   0  0  0  0  0  0  0  0  0  0  0  0
   46.6980   31.6830   49.1760 H   0  0  0  0  0  0  0  0  0  0  0  0
   46.3210   32.9690   45.5440 C   0  0  0  0  0  0  0  0  0  0  0  0
   47.1960   31.9550   45.0760 C   0  0  0  0  0  0  0  0  0  0  0  0
   47.4070   31.0640   46.0760 C   0  0  0  0  0  0  0  0  0  0  0  0
   46.6920   31.5100   47.1170 N   0  0  0  0  0  0  0  0  0  0  0  0
   46.0480   32.6400   46.8000 N   0  0  0  0  0  0  0  0  0  0  0  0
   47.6190   31.9170   44.0750 H   0  0  0  0  0  0  0  0  0  0  0  0
   48.0080   30.1650   46.1050 H   0  0  0  0  0  0  0  0  0  0  0  0
   44.5000   35.9530   44.5100 C   0  0  0  0  0  0  0  0  0  0  0  0
   45.0120   36.2200   43.2510 C   0  0  0  0  0  0  0  0  0  0  0  0
   46.0020   35.3570   42.7480 C   0  0  0  0  0  0  0  0  0  0  0  0
   46.3860   34.3260   43.5310 N   0  0  0  0  0  0  0  0  0  0  0  0
   45.8730   34.0880   44.7510 C   0  0  0  0  0  0  0  0  0  0  0  0
   44.9240   34.9080   45.2400 N   0  0  0  0  0  0  0  0  0  0  0  0
   43.7500   36.6470   44.8350 H   0  0  0  0  0  0  0  0  0  0  0  0
   44.7510   37.0130   42.5930 H   0  0  0  0  0  0  0  0  0  0  0  0
   46.4680   35.4690   41.7860 H   0  0  0  0  0  0  0  0  0  0  0  0
  1 10  1  0  0  0  0
  2  1  1  0  0  0  0
  2 29  1  0  0  0  0
  3  2  2  0  0  0  0
  4  8  2  0  0  0  0
  4  3  1  0  0  0  0
  5  4  1  0  0  0  0
  6  5  1  0  0  0  0
  6  7  2  0  0  0  0
  7  8  1  0  0  0  0
  8  9  1  0  0  0  0
  9 15  1  0  0  0  0
  9  1  2  0  0  0  0
 11  3  1  0  0  0  0
 12  5  1  0  0  0  0
 13  6  1  0  0  0  0
 14  7  1  0  0  0  0
 15 16  1  0  0  0  0
 16 18  2  0  0  0  0
 16 17  1  0  0  0  0
 19 18  1  0  0  0  0
 20 19  1  0  0  0  0
 20 26  1  0  0  0  0
 21 20  2  0  0  0  0
 22 24  2  0  0  0  0
 22 21  1  0  0  0  0
 23 22  1  0  0  0  0
 24 25  1  0  0  0  0
 25 15  1  0  0  0  0
 25 19  2  0  0  0  0
 26 27  1  0  0  0  0
 28 26  1  0  0  0  0
 29 31  1  0  0  0  0
 30 29  1  0  0  0  0
 32 33  1  0  0  0  0
 32 29  1  0  0  0  0
 32 34  1  0  0  0  0
 35 39  2  0  0  0  0
 36 35  1  0  0  0  0
 36 37  2  0  0  0  0
 37 41  1  0  0  0  0
 37 38  1  0  0  0  0
 38 32  1  0  0  0  0
 39 38  1  0  0  0  0
 40 36  1  0  0  0  0
 42 48  1  0  0  0  0
 42 47  1  0  0  0  0
 43 42  2  0  0  0  0
 44 43  1  0  0  0  0
 44 45  2  0  0  0  0
 45 46  1  0  0  0  0
 46 47  2  0  0  0  0
 46 35  1  0  0  0  0
 49 43  1  0  0  0  0
 50 44  1  0  0  0  0
M  END
>  <minimizedAffinity>
-5.57549429

>  <minimizedRMSD>
2.03566837

$$$$
