
 OpenBabel03252504003D

 39 43  0  0  0  0  0  0  0  0999 V2000
   47.0280   35.0280   42.6130 C   0  0  0  0  0  0  0  0  0  0  0  0
   45.9700   35.9160   42.3810 C   0  0  0  0  0  0  0  0  0  0  0  0
   44.8500   35.8190   43.2030 C   0  0  0  0  0  0  0  0  0  0  0  0
   44.8480   34.8780   44.1750 N   0  0  0  0  0  0  0  0  0  0  0  0
   45.8850   34.0410   44.3680 C   0  0  0  0  0  0  0  0  0  0  0  0
   46.9810   34.1080   43.5920 N   0  0  0  0  0  0  0  0  0  0  0  0
   45.9990   36.6620   41.5910 H   0  0  0  0  0  0  0  0  0  0  0  0
   44.0190   36.5000   43.0380 H   0  0  0  0  0  0  0  0  0  0  0  0
   46.1780   31.7160   45.0750 C   0  0  0  0  0  0  0  0  0  0  0  0
   45.8620   33.0250   45.4310 C   0  0  0  0  0  0  0  0  0  0  0  0
   45.5460   33.3160   46.7370 C   0  0  0  0  0  0  0  0  0  0  0  0
   45.5460   32.3090   47.6800 C   0  0  0  0  0  0  0  0  0  0  0  0
   45.2890   32.2760   48.9880 N   0  0  0  0  0  0  0  0  0  0  0  0
   45.4200   31.0430   49.4860 C   0  0  0  0  0  0  0  0  0  0  0  0
   45.7800   30.2110   48.4630 C   0  0  0  0  0  0  0  0  0  0  0  0
   45.8590   31.0040   47.3330 C   0  0  0  0  0  0  0  0  0  0  0  0
   46.1790   30.7080   46.0150 C   0  0  0  0  0  0  0  0  0  0  0  0
   46.4310   31.4640   44.0450 H   0  0  0  0  0  0  0  0  0  0  0  0
   45.3010   34.3360   47.0080 H   0  0  0  0  0  0  0  0  0  0  0  0
   45.0210   33.1210   49.5390 H   0  0  0  0  0  0  0  0  0  0  0  0
   45.2630   30.7630   50.5300 H   0  0  0  0  0  0  0  0  0  0  0  0
   45.9670   29.1660   48.5050 H   0  0  0  0  0  0  0  0  0  0  0  0
   46.4280   29.7070   45.7010 H   0  0  0  0  0  0  0  0  0  0  0  0
   48.1560   35.1800   41.7280 C   0  0  0  0  0  0  0  0  0  0  0  0
   49.0770   36.0540   41.8670 O   0  0  0  0  0  0  0  0  0  0  0  0
   47.4180   35.4400   38.9630 H   0  0  0  0  0  0  0  0  0  0  0  0
   47.8840   34.5950   39.3140 N   0  0  0  0  0  0  0  0  0  0  0  0
   48.3060   34.2870   40.5600 C   0  0  0  0  0  0  0  0  0  0  0  0
   48.8630   33.0630   40.5350 N   0  0  0  0  0  0  0  0  0  0  0  0
   48.8140   32.5680   39.2930 C   0  0  0  0  0  0  0  0  0  0  0  0
   49.1870   31.4260   38.6120 C   0  0  0  0  0  0  0  0  0  0  0  0
   48.9940   31.2120   37.3100 N   0  0  0  0  0  0  0  0  0  0  0  0
   48.3820   32.1840   36.5800 C   0  0  0  0  0  0  0  0  0  0  0  0
   48.1580   32.1590   35.5240 H   0  0  0  0  0  0  0  0  0  0  0  0
   48.0070   33.3080   37.2140 N   0  0  0  0  0  0  0  0  0  0  0  0
   48.1950   33.5350   38.5230 C   0  0  0  0  0  0  0  0  0  0  0  0
   49.8270   30.4040   39.3670 N   0  0  0  0  0  0  0  0  0  0  0  0
   50.8210   30.6820   39.6190 H   0  0  0  0  0  0  0  0  0  0  0  0
   49.8180   29.4680   39.8260 H   0  0  0  0  0  0  0  0  0  0  0  0
  1  6  1  0  0  0  0
  2  1  2  0  0  0  0
  2  3  1  0  0  0  0
  3  4  2  0  0  0  0
  4  5  1  0  0  0  0
  5 10  1  0  0  0  0
  6  5  2  0  0  0  0
  7  2  1  0  0  0  0
  8  3  1  0  0  0  0
  9 10  2  0  0  0  0
  9 17  1  0  0  0  0
 10 11  1  0  0  0  0
 11 19  1  0  0  0  0
 11 12  2  0  0  0  0
 12 13  1  0  0  0  0
 13 14  1  0  0  0  0
 13 20  1  0  0  0  0
 14 21  1  0  0  0  0
 15 22  1  0  0  0  0
 15 14  2  0  0  0  0
 16 12  1  0  0  0  0
 16 15  1  0  0  0  0
 17 16  2  0  0  0  0
 18  9  1  0  0  0  0
 23 17  1  0  0  0  0
 24 25  2  0  0  0  0
 24  1  1  0  0  0  0
 26 27  1  0  0  0  0
 27 28  1  0  0  0  0
 28 24  1  0  0  0  0
 29 28  2  0  0  0  0
 30 29  1  0  0  0  0
 31 30  1  0  0  0  0
 31 37  1  0  0  0  0
 32 31  2  0  0  0  0
 33 35  2  0  0  0  0
 33 32  1  0  0  0  0
 34 33  1  0  0  0  0
 35 36  1  0  0  0  0
 36 30  2  0  0  0  0
 36 27  1  0  0  0  0
 37 38  1  0  0  0  0
 37 39  1  0  0  0  0
M  END
>  <minimizedAffinity>
-6.63913059

>  <minimizedRMSD>
0.641961098

$$$$
