
 OpenBabel03252500293D

 48 51  0  0  1  0  0  0  0  0999 V2000
   36.9080   27.2620   42.4720 O   0  0  0  0  0  0  0  0  0  0  0  0
   37.8420   28.0860   43.2850 P   0  0  1  0  0  0  0  0  0  0  0  0
   36.9470   29.0890   44.3150 O   0  0  0  0  0  0  0  0  0  0  0  0
   36.2520   29.5160   43.7740 H   0  0  0  0  0  0  0  0  0  0  0  0
   38.7570   27.0440   44.1790 O   0  0  0  0  0  0  0  0  0  0  0  0
   39.7970   25.1320   43.1930 C   0  0  2  0  0  0  0  0  0  0  0  0
   39.8240   26.5930   43.4420 C   0  0  2  0  0  0  0  0  0  0  0  0
   41.1040   26.8790   44.0540 C   0  0  0  0  0  0  0  0  0  0  0  0
   41.9990   25.8530   43.7210 O   0  0  0  0  0  0  0  0  0  0  0  0
   41.3380   25.0420   42.8640 C   0  0  0  0  0  0  0  0  0  0  0  0
   39.8550   24.4530   44.0600 H   0  0  0  0  0  0  0  0  0  0  0  0
   39.6250   27.0220   42.4170 H   0  0  0  0  0  0  0  0  0  0  0  0
   41.5480   27.6760   43.3550 H   0  0  0  0  0  0  0  0  0  0  0  0
   41.2600   27.4070   44.9680 H   0  0  0  0  0  0  0  0  0  0  0  0
   41.3810   25.4270   41.8040 H   0  0  0  0  0  0  0  0  0  0  0  0
   41.6580   24.0040   42.8090 H   0  0  0  0  0  0  0  0  0  0  0  0
   39.1250   24.7040   42.1120 O   0  0  0  0  0  0  0  0  0  0  0  0
   38.0010   24.0500   42.1160 C   0  0  0  0  0  0  0  0  0  0  0  0
   37.3280   23.9760   42.9340 H   0  0  0  0  0  0  0  0  0  0  0  0
   38.3680   22.8870   42.0050 H   0  0  0  0  0  0  0  0  0  0  0  0
   37.3480   24.1860   40.7500 C   0  0  0  0  0  0  0  0  0  0  0  0
   36.9180   25.1940   40.6010 H   0  0  0  0  0  0  0  0  0  0  0  0
   38.1350   23.9410   40.0080 H   0  0  0  0  0  0  0  0  0  0  0  0
   36.5350   23.4130   40.7260 H   0  0  0  0  0  0  0  0  0  0  0  0
   38.7640   28.9870   42.1670 O   0  0  0  0  0  0  0  0  0  0  0  0
   38.4640   32.2800   40.7750 C   0  0  0  0  0  0  0  0  0  0  0  0
   37.2380   32.2480   40.0700 C   0  0  0  0  0  0  0  0  0  0  0  0
   36.5320   31.0260   40.1050 C   0  0  0  0  0  0  0  0  0  0  0  0
   37.0490   29.9870   40.7920 N   0  0  0  0  0  0  0  0  0  0  0  0
   38.2170   30.0660   41.4480 C   0  0  0  0  0  0  0  0  0  0  0  0
   38.9180   31.2080   41.4370 N   0  0  0  0  0  0  0  0  0  0  0  0
   36.8380   33.0860   39.5260 H   0  0  0  0  0  0  0  0  0  0  0  0
   35.5920   30.9240   39.5940 H   0  0  0  0  0  0  0  0  0  0  0  0
   39.1780   33.4410   40.7630 O   0  0  0  0  0  0  0  0  0  0  0  0
   41.6280   33.2190   42.2020 H   0  0  0  0  0  0  0  0  0  0  0  0
   41.6550   33.4480   41.1870 N   0  0  0  0  0  0  0  0  0  0  0  0
   40.5110   33.5570   40.4890 C   0  0  0  0  0  0  0  0  0  0  0  0
   40.8630   33.8570   39.2180 N   0  0  0  0  0  0  0  0  0  0  0  0
   42.2100   33.9230   39.1730 C   0  0  0  0  0  0  0  0  0  0  0  0
   43.1330   34.1880   38.1630 C   0  0  0  0  0  0  0  0  0  0  0  0
   44.4600   34.1940   38.3770 N   0  0  0  0  0  0  0  0  0  0  0  0
   44.9290   33.9330   39.6250 C   0  0  0  0  0  0  0  0  0  0  0  0
   45.9720   33.9110   39.9190 H   0  0  0  0  0  0  0  0  0  0  0  0
   44.0580   33.6690   40.6410 N   0  0  0  0  0  0  0  0  0  0  0  0
   42.7390   33.6640   40.4210 C   0  0  0  0  0  0  0  0  0  0  0  0
   42.6590   34.4650   36.8410 N   0  0  0  0  0  0  0  0  0  0  0  0
   42.2270   33.9970   36.0160 H   0  0  0  0  0  0  0  0  0  0  0  0
   42.8150   35.4960   36.6830 H   0  0  0  0  0  0  0  0  0  0  0  0
  2  1  2  6  0  0  0
  2  5  1  0  0  0  0
  2  3  1  0  0  0  0
  4  3  1  0  0  0  0
  6  7  1  0  0  0  0
  6 11  1  1  0  0  0
  7 12  1  6  0  0  0
  7  8  1  0  0  0  0
  7  5  1  0  0  0  0
  8 14  1  0  0  0  0
  9  8  1  0  0  0  0
 10  6  1  0  0  0  0
 10  9  1  0  0  0  0
 13  8  1  0  0  0  0
 15 10  1  0  0  0  0
 16 10  1  0  0  0  0
 17 18  1  0  0  0  0
 17  6  1  0  0  0  0
 18 19  1  0  0  0  0
 20 18  1  0  0  0  0
 21 18  1  0  0  0  0
 22 21  1  0  0  0  0
 23 21  1  0  0  0  0
 24 21  1  0  0  0  0
 25  2  1  0  0  0  0
 26 31  1  0  0  0  0
 27 28  1  0  0  0  0
 27 26  2  0  0  0  0
 28 29  2  0  0  0  0
 29 30  1  0  0  0  0
 30 25  1  0  0  0  0
 31 30  2  0  0  0  0
 32 27  1  0  0  0  0
 33 28  1  0  0  0  0
 34 26  1  0  0  0  0
 36 35  1  0  0  0  0
 37 34  1  0  0  0  0
 37 36  1  0  0  0  0
 38 37  2  0  0  0  0
 39 38  1  0  0  0  0
 39 45  1  0  0  0  0
 40 41  1  0  0  0  0
 40 39  2  0  0  0  0
 41 42  2  0  0  0  0
 42 43  1  0  0  0  0
 42 44  1  0  0  0  0
 45 44  2  0  0  0  0
 45 36  1  0  0  0  0
 46 40  1  0  0  0  0
 47 46  1  0  0  0  0
 48 46  1  0  0  0  0
M  END
>  <minimizedAffinity>
-6.91480255

$$$$

 OpenBabel03252500293D

 48 51  0  0  1  0  0  0  0  0999 V2000
   36.5340   26.9040   43.1890 O   0  0  0  0  0  0  0  0  0  0  0  0
   37.7070   27.7990   43.3720 P   0  0  1  0  0  0  0  0  0  0  0  0
   37.2190   29.1960   44.1950 O   0  0  0  0  0  0  0  0  0  0  0  0
   36.4090   29.5250   43.7550 H   0  0  0  0  0  0  0  0  0  0  0  0
   38.8110   26.9740   44.2800 O   0  0  0  0  0  0  0  0  0  0  0  0
   39.8330   25.1450   43.1330 C   0  0  2  0  0  0  0  0  0  0  0  0
   39.8700   26.5800   43.5020 C   0  0  2  0  0  0  0  0  0  0  0  0
   41.1560   26.8060   44.1270 C   0  0  0  0  0  0  0  0  0  0  0  0
   42.0430   25.8070   43.7040 O   0  0  0  0  0  0  0  0  0  0  0  0
   41.3720   25.0730   42.7870 C   0  0  0  0  0  0  0  0  0  0  0  0
   39.8930   24.3950   43.9400 H   0  0  0  0  0  0  0  0  0  0  0  0
   39.6680   27.0930   42.5170 H   0  0  0  0  0  0  0  0  0  0  0  0
   41.6010   27.6560   43.4940 H   0  0  0  0  0  0  0  0  0  0  0  0
   41.3210   27.2570   45.0810 H   0  0  0  0  0  0  0  0  0  0  0  0
   41.4110   25.5450   41.7620 H   0  0  0  0  0  0  0  0  0  0  0  0
   41.6850   24.0420   42.6440 H   0  0  0  0  0  0  0  0  0  0  0  0
   39.1530   24.8110   42.0240 O   0  0  0  0  0  0  0  0  0  0  0  0
   38.1220   24.0200   41.9640 C   0  0  0  0  0  0  0  0  0  0  0  0
   37.6250   23.5820   42.7950 H   0  0  0  0  0  0  0  0  0  0  0  0
   38.5810   23.0260   41.4140 H   0  0  0  0  0  0  0  0  0  0  0  0
   37.2160   24.4750   40.8330 C   0  0  0  0  0  0  0  0  0  0  0  0
   36.6640   25.3960   41.0990 H   0  0  0  0  0  0  0  0  0  0  0  0
   37.8710   24.6080   39.9480 H   0  0  0  0  0  0  0  0  0  0  0  0
   36.4980   23.6310   40.6630 H   0  0  0  0  0  0  0  0  0  0  0  0
   38.2730   28.1540   41.8020 O   0  0  0  0  0  0  0  0  0  0  0  0
   38.1120   30.6620   39.2420 C   0  0  0  0  0  0  0  0  0  0  0  0
   36.9510   31.4060   39.5580 C   0  0  0  0  0  0  0  0  0  0  0  0
   36.2360   30.9870   40.7010 C   0  0  0  0  0  0  0  0  0  0  0  0
   36.6870   29.9310   41.4090 N   0  0  0  0  0  0  0  0  0  0  0  0
   37.7960   29.2560   41.0690 C   0  0  0  0  0  0  0  0  0  0  0  0
   38.5020   29.6230   39.9910 N   0  0  0  0  0  0  0  0  0  0  0  0
   36.6040   32.2470   38.9840 H   0  0  0  0  0  0  0  0  0  0  0  0
   35.3440   31.5030   41.0050 H   0  0  0  0  0  0  0  0  0  0  0  0
   38.8300   31.0330   38.1440 O   0  0  0  0  0  0  0  0  0  0  0  0
   41.1310   29.4830   38.7970 H   0  0  0  0  0  0  0  0  0  0  0  0
   41.2580   30.4390   38.4040 N   0  0  0  0  0  0  0  0  0  0  0  0
   40.1860   31.1880   38.0900 C   0  0  0  0  0  0  0  0  0  0  0  0
   40.6620   32.3600   37.6110 N   0  0  0  0  0  0  0  0  0  0  0  0
   42.0100   32.2970   37.6460 C   0  0  0  0  0  0  0  0  0  0  0  0
   43.0290   33.1770   37.2910 C   0  0  0  0  0  0  0  0  0  0  0  0
   44.3310   32.8710   37.4250 N   0  0  0  0  0  0  0  0  0  0  0  0
   44.6760   31.6560   37.9260 C   0  0  0  0  0  0  0  0  0  0  0  0
   45.6870   31.2970   38.0800 H   0  0  0  0  0  0  0  0  0  0  0  0
   43.7070   30.7660   38.2860 N   0  0  0  0  0  0  0  0  0  0  0  0
   42.4140   31.0770   38.1490 C   0  0  0  0  0  0  0  0  0  0  0  0
   42.6870   34.4620   36.7600 N   0  0  0  0  0  0  0  0  0  0  0  0
   42.3030   34.9130   35.9020 H   0  0  0  0  0  0  0  0  0  0  0  0
   42.9110   35.1620   37.5160 H   0  0  0  0  0  0  0  0  0  0  0  0
  2  1  2  6  0  0  0
  2  3  1  0  0  0  0
  2  5  1  0  0  0  0
  4  3  1  0  0  0  0
  6  7  1  0  0  0  0
  6 11  1  1  0  0  0
  7 12  1  6  0  0  0
  7  8  1  0  0  0  0
  7  5  1  0  0  0  0
  8 14  1  0  0  0  0
  9  8  1  0  0  0  0
 10  6  1  0  0  0  0
 10  9  1  0  0  0  0
 13  8  1  0  0  0  0
 15 10  1  0  0  0  0
 16 10  1  0  0  0  0
 17  6  1  0  0  0  0
 18 17  1  0  0  0  0
 18 19  1  0  0  0  0
 20 18  1  0  0  0  0
 21 22  1  0  0  0  0
 21 18  1  0  0  0  0
 23 21  1  0  0  0  0
 24 21  1  0  0  0  0
 25  2  1  0  0  0  0
 26 27  2  0  0  0  0
 26 31  1  0  0  0  0
 27 28  1  0  0  0  0
 28 33  1  0  0  0  0
 28 29  2  0  0  0  0
 30 29  1  0  0  0  0
 30 25  1  0  0  0  0
 31 30  2  0  0  0  0
 32 27  1  0  0  0  0
 34 26  1  0  0  0  0
 36 35  1  0  0  0  0
 37 34  1  0  0  0  0
 37 36  1  0  0  0  0
 38 39  1  0  0  0  0
 38 37  2  0  0  0  0
 39 45  1  0  0  0  0
 40 41  1  0  0  0  0
 40 39  2  0  0  0  0
 41 42  2  0  0  0  0
 42 43  1  0  0  0  0
 42 44  1  0  0  0  0
 45 44  2  0  0  0  0
 45 36  1  0  0  0  0
 46 40  1  0  0  0  0
 46 48  1  0  0  0  0
 47 46  1  0  0  0  0
M  END
>  <minimizedAffinity>
-6.3817935

$$$$

 OpenBabel03252500293D

 48 51  0  0  1  0  0  0  0  0999 V2000
   36.7420   27.6090   44.3750 O   0  0  0  0  0  0  0  0  0  0  0  0
   37.3920   28.1750   43.1630 P   0  0  1  0  0  0  0  0  0  0  0  0
   38.1030   29.6610   43.5540 O   0  0  0  0  0  0  0  0  0  0  0  0
   37.4370   30.1820   44.0480 H   0  0  0  0  0  0  0  0  0  0  0  0
   38.5580   27.1050   42.6930 O   0  0  0  0  0  0  0  0  0  0  0  0
   40.8260   27.8480   42.6170 C   0  0  2  0  0  0  0  0  0  0  0  0
   39.7050   27.3010   43.4180 C   0  0  2  0  0  0  0  0  0  0  0  0
   40.2010   26.0940   44.0420 C   0  0  0  0  0  0  0  0  0  0  0  0
   41.6000   26.1610   44.1020 O   0  0  0  0  0  0  0  0  0  0  0  0
   41.9370   27.3870   43.6420 C   0  0  0  0  0  0  0  0  0  0  0  0
   41.2210   27.2390   41.7860 H   0  0  0  0  0  0  0  0  0  0  0  0
   39.4370   28.1670   44.0900 H   0  0  0  0  0  0  0  0  0  0  0  0
   40.0110   26.2870   45.1600 H   0  0  0  0  0  0  0  0  0  0  0  0
   39.7440   25.1300   43.9990 H   0  0  0  0  0  0  0  0  0  0  0  0
   41.8620   28.1740   44.4480 H   0  0  0  0  0  0  0  0  0  0  0  0
   42.9280   27.5060   43.2120 H   0  0  0  0  0  0  0  0  0  0  0  0
   40.9090   29.1830   42.5040 O   0  0  0  0  0  0  0  0  0  0  0  0
   41.1910   29.8450   41.4200 C   0  0  0  0  0  0  0  0  0  0  0  0
   42.1670   30.0840   41.0730 H   0  0  0  0  0  0  0  0  0  0  0  0
   40.7500   30.9610   41.6670 H   0  0  0  0  0  0  0  0  0  0  0  0
   40.1930   29.4680   40.3390 C   0  0  0  0  0  0  0  0  0  0  0  0
   40.3910   28.4580   39.9350 H   0  0  0  0  0  0  0  0  0  0  0  0
   39.1890   29.5570   40.8020 H   0  0  0  0  0  0  0  0  0  0  0  0
   40.3180   30.2370   39.5310 H   0  0  0  0  0  0  0  0  0  0  0  0
   36.1490   28.3520   42.0060 O   0  0  0  0  0  0  0  0  0  0  0  0
   36.9400   31.2860   40.1000 C   0  0  0  0  0  0  0  0  0  0  0  0
   36.5950   30.9390   38.7720 C   0  0  0  0  0  0  0  0  0  0  0  0
   36.0780   29.6400   38.5820 C   0  0  0  0  0  0  0  0  0  0  0  0
   35.9440   28.8230   39.6470 N   0  0  0  0  0  0  0  0  0  0  0  0
   36.2860   29.1970   40.8900 C   0  0  0  0  0  0  0  0  0  0  0  0
   36.7810   30.4230   41.1110 N   0  0  0  0  0  0  0  0  0  0  0  0
   36.7070   31.6020   37.9310 H   0  0  0  0  0  0  0  0  0  0  0  0
   35.7920   29.3040   37.6020 H   0  0  0  0  0  0  0  0  0  0  0  0
   37.4450   32.5310   40.3240 O   0  0  0  0  0  0  0  0  0  0  0  0
   39.4410   33.2710   42.2190 H   0  0  0  0  0  0  0  0  0  0  0  0
   39.6940   33.2220   41.2100 N   0  0  0  0  0  0  0  0  0  0  0  0
   38.7660   32.8750   40.2990 C   0  0  0  0  0  0  0  0  0  0  0  0
   39.3830   32.8990   39.0950 N   0  0  0  0  0  0  0  0  0  0  0  0
   40.6670   33.2600   39.3020 C   0  0  0  0  0  0  0  0  0  0  0  0
   41.7640   33.4530   38.4660 C   0  0  0  0  0  0  0  0  0  0  0  0
   42.9720   33.8220   38.9280 N   0  0  0  0  0  0  0  0  0  0  0  0
   43.1370   34.0170   40.2620 C   0  0  0  0  0  0  0  0  0  0  0  0
   44.0580   34.3140   40.7500 H   0  0  0  0  0  0  0  0  0  0  0  0
   42.0870   33.8390   41.1130 N   0  0  0  0  0  0  0  0  0  0  0  0
   40.8890   33.4710   40.6470 C   0  0  0  0  0  0  0  0  0  0  0  0
   41.6110   33.2520   37.0570 N   0  0  0  0  0  0  0  0  0  0  0  0
   41.4890   32.4940   36.3500 H   0  0  0  0  0  0  0  0  0  0  0  0
   41.6340   34.2110   36.6190 H   0  0  0  0  0  0  0  0  0  0  0  0
  2  3  1  0  0  0  0
  2  1  2  1  0  0  0
  3  4  1  0  0  0  0
  5  2  1  0  0  0  0
  5  7  1  0  0  0  0
  6 11  1  6  0  0  0
  6  7  1  0  0  0  0
  6 10  1  0  0  0  0
  7  8  1  0  0  0  0
  7 12  1  1  0  0  0
  8  9  1  0  0  0  0
  8 13  1  0  0  0  0
 10  9  1  0  0  0  0
 10 15  1  0  0  0  0
 14  8  1  0  0  0  0
 16 10  1  0  0  0  0
 17  6  1  0  0  0  0
 18 20  1  0  0  0  0
 18 17  1  0  0  0  0
 19 18  1  0  0  0  0
 21 23  1  0  0  0  0
 21 18  1  0  0  0  0
 22 21  1  0  0  0  0
 24 21  1  0  0  0  0
 25  2  1  0  0  0  0
 26 34  1  0  0  0  0
 26 31  1  0  0  0  0
 27 26  2  0  0  0  0
 28 27  1  0  0  0  0
 28 29  2  0  0  0  0
 29 30  1  0  0  0  0
 30 31  2  0  0  0  0
 30 25  1  0  0  0  0
 32 27  1  0  0  0  0
 33 28  1  0  0  0  0
 36 35  1  0  0  0  0
 37 34  1  0  0  0  0
 37 36  1  0  0  0  0
 38 39  1  0  0  0  0
 38 37  2  0  0  0  0
 39 45  1  0  0  0  0
 40 41  1  0  0  0  0
 40 39  2  0  0  0  0
 41 42  2  0  0  0  0
 42 43  1  0  0  0  0
 42 44  1  0  0  0  0
 45 44  2  0  0  0  0
 45 36  1  0  0  0  0
 46 40  1  0  0  0  0
 47 46  1  0  0  0  0
 48 46  1  0  0  0  0
M  END
>  <minimizedAffinity>
-5.89874792

$$$$

 OpenBabel03252500293D

 48 51  0  0  1  0  0  0  0  0999 V2000
   37.9670   25.8840   42.7340 O   0  0  0  0  0  0  0  0  0  0  0  0
   38.9580   26.9440   43.0580 P   0  0  1  0  0  0  0  0  0  0  0  0
   39.8380   26.4820   44.4290 O   0  0  0  0  0  0  0  0  0  0  0  0
   39.1930   26.1840   45.1030 H   0  0  0  0  0  0  0  0  0  0  0  0
   39.9730   27.0740   41.7630 O   0  0  0  0  0  0  0  0  0  0  0  0
   40.0470   25.4930   39.9740 C   0  0  2  0  0  0  0  0  0  0  0  0
   39.3510   26.6300   40.6240 C   0  0  2  0  0  0  0  0  0  0  0  0
   39.2100   27.6530   39.6110 C   0  0  0  0  0  0  0  0  0  0  0  0
   39.2830   27.0490   38.3480 O   0  0  0  0  0  0  0  0  0  0  0  0
   39.3540   25.7180   38.5730 C   0  0  0  0  0  0  0  0  0  0  0  0
   41.0680   25.6550   39.5900 H   0  0  0  0  0  0  0  0  0  0  0  0
   38.4090   26.1490   41.0180 H   0  0  0  0  0  0  0  0  0  0  0  0
   38.0770   27.8480   39.6000 H   0  0  0  0  0  0  0  0  0  0  0  0
   39.5150   28.6730   39.7010 H   0  0  0  0  0  0  0  0  0  0  0  0
   38.3320   25.2640   38.7340 H   0  0  0  0  0  0  0  0  0  0  0  0
   39.8260   25.1050   37.8090 H   0  0  0  0  0  0  0  0  0  0  0  0
   39.7280   24.2570   40.3900 O   0  0  0  0  0  0  0  0  0  0  0  0
   38.9790   23.4030   39.7570 C   0  0  0  0  0  0  0  0  0  0  0  0
   39.3190   22.6570   39.0810 H   0  0  0  0  0  0  0  0  0  0  0  0
   38.3300   24.1220   39.0070 H   0  0  0  0  0  0  0  0  0  0  0  0
   37.8380   22.9800   40.6670 C   0  0  0  0  0  0  0  0  0  0  0  0
   38.1830   22.2930   41.4620 H   0  0  0  0  0  0  0  0  0  0  0  0
   37.4010   23.9170   41.0690 H   0  0  0  0  0  0  0  0  0  0  0  0
   37.0990   22.4600   40.0020 H   0  0  0  0  0  0  0  0  0  0  0  0
   38.0520   28.3630   43.3360 O   0  0  0  0  0  0  0  0  0  0  0  0
   36.9750   30.8300   40.9640 C   0  0  0  0  0  0  0  0  0  0  0  0
   35.8460   30.2440   40.3440 C   0  0  0  0  0  0  0  0  0  0  0  0
   35.4870   28.9550   40.7940 C   0  0  0  0  0  0  0  0  0  0  0  0
   36.2190   28.3700   41.7640 N   0  0  0  0  0  0  0  0  0  0  0  0
   37.2830   28.9660   42.3240 C   0  0  0  0  0  0  0  0  0  0  0  0
   37.6560   30.1900   41.9230 N   0  0  0  0  0  0  0  0  0  0  0  0
   35.2710   30.7240   39.5710 H   0  0  0  0  0  0  0  0  0  0  0  0
   34.6410   28.4460   40.3720 H   0  0  0  0  0  0  0  0  0  0  0  0
   37.3550   32.0730   40.5560 O   0  0  0  0  0  0  0  0  0  0  0  0
   39.4110   32.9480   42.3250 H   0  0  0  0  0  0  0  0  0  0  0  0
   39.5970   32.9300   41.3000 N   0  0  0  0  0  0  0  0  0  0  0  0
   38.6400   32.5210   40.4480 C   0  0  0  0  0  0  0  0  0  0  0  0
   39.1690   32.6080   39.2060 N   0  0  0  0  0  0  0  0  0  0  0  0
   40.4320   33.0680   39.3320 C   0  0  0  0  0  0  0  0  0  0  0  0
   41.4510   33.3560   38.4270 C   0  0  0  0  0  0  0  0  0  0  0  0
   42.6550   33.8150   38.8130 N   0  0  0  0  0  0  0  0  0  0  0  0
   42.8950   34.0080   40.1370 C   0  0  0  0  0  0  0  0  0  0  0  0
   43.8200   34.3720   40.5670 H   0  0  0  0  0  0  0  0  0  0  0  0
   41.9230   33.7370   41.0540 N   0  0  0  0  0  0  0  0  0  0  0  0
   40.7280   33.2800   40.6630 C   0  0  0  0  0  0  0  0  0  0  0  0
   41.2180   33.1600   37.0290 N   0  0  0  0  0  0  0  0  0  0  0  0
   41.1080   32.4040   36.3200 H   0  0  0  0  0  0  0  0  0  0  0  0
   41.1360   34.1230   36.6060 H   0  0  0  0  0  0  0  0  0  0  0  0
  2  1  2  6  0  0  0
  2 25  1  0  0  0  0
  2  3  1  0  0  0  0
  3  4  1  0  0  0  0
  5  2  1  0  0  0  0
  6 11  1  6  0  0  0
  6 17  1  0  0  0  0
  6  7  1  0  0  0  0
  7 12  1  1  0  0  0
  7  5  1  0  0  0  0
  8 14  1  0  0  0  0
  8  7  1  0  0  0  0
  9 10  1  0  0  0  0
  9  8  1  0  0  0  0
 10 15  1  0  0  0  0
 10  6  1  0  0  0  0
 13  8  1  0  0  0  0
 16 10  1  0  0  0  0
 18 17  1  0  0  0  0
 18 21  1  0  0  0  0
 19 18  1  0  0  0  0
 20 18  1  0  0  0  0
 21 23  1  0  0  0  0
 21 22  1  0  0  0  0
 24 21  1  0  0  0  0
 26 31  1  0  0  0  0
 27 28  1  0  0  0  0
 27 26  2  0  0  0  0
 28 29  2  0  0  0  0
 29 30  1  0  0  0  0
 30 25  1  0  0  0  0
 31 30  2  0  0  0  0
 32 27  1  0  0  0  0
 33 28  1  0  0  0  0
 34 26  1  0  0  0  0
 36 35  1  0  0  0  0
 37 34  1  0  0  0  0
 37 36  1  0  0  0  0
 38 39  1  0  0  0  0
 38 37  2  0  0  0  0
 39 45  1  0  0  0  0
 40 41  1  0  0  0  0
 40 39  2  0  0  0  0
 41 42  2  0  0  0  0
 42 43  1  0  0  0  0
 42 44  1  0  0  0  0
 45 44  2  0  0  0  0
 45 36  1  0  0  0  0
 46 40  1  0  0  0  0
 47 46  1  0  0  0  0
 48 46  1  0  0  0  0
M  END
>  <minimizedAffinity>
-5.88409281

$$$$

 OpenBabel03252500293D

 48 51  0  0  1  0  0  0  0  0999 V2000
   41.8150   34.2210   37.8580 O   0  0  0  0  0  0  0  0  0  0  0  0
   41.2930   32.8430   38.0580 P   0  0  1  0  0  0  0  0  0  0  0  0
   40.2340   32.4590   36.7940 O   0  0  0  0  0  0  0  0  0  0  0  0
   39.6170   33.2120   36.6920 H   0  0  0  0  0  0  0  0  0  0  0  0
   42.5900   31.8230   38.0280 O   0  0  0  0  0  0  0  0  0  0  0  0
   42.1630   29.6410   37.1560 C   0  0  2  0  0  0  0  0  0  0  0  0
   42.5600   31.0450   36.8980 C   0  0  2  0  0  0  0  0  0  0  0  0
   43.8290   30.9890   36.2060 C   0  0  0  0  0  0  0  0  0  0  0  0
   43.9530   29.7340   35.5960 O   0  0  0  0  0  0  0  0  0  0  0  0
   42.7800   29.0960   35.8080 C   0  0  0  0  0  0  0  0  0  0  0  0
   42.8110   29.0240   37.8010 H   0  0  0  0  0  0  0  0  0  0  0  0
   41.6710   31.4520   36.3330 H   0  0  0  0  0  0  0  0  0  0  0  0
   43.6230   31.5850   35.2440 H   0  0  0  0  0  0  0  0  0  0  0  0
   44.7210   31.5040   36.4870 H   0  0  0  0  0  0  0  0  0  0  0  0
   41.9980   29.3910   35.0490 H   0  0  0  0  0  0  0  0  0  0  0  0
   42.7930   28.0090   35.8040 H   0  0  0  0  0  0  0  0  0  0  0  0
   40.8500   29.3590   37.1430 O   0  0  0  0  0  0  0  0  0  0  0  0
   40.1130   29.0890   38.1810 C   0  0  0  0  0  0  0  0  0  0  0  0
   39.1890   28.5640   38.1680 H   0  0  0  0  0  0  0  0  0  0  0  0
   39.7480   30.2000   38.5440 H   0  0  0  0  0  0  0  0  0  0  0  0
   41.0180   28.7790   39.3610 C   0  0  0  0  0  0  0  0  0  0  0  0
   41.4860   27.7810   39.2650 H   0  0  0  0  0  0  0  0  0  0  0  0
   41.7620   29.6000   39.4020 H   0  0  0  0  0  0  0  0  0  0  0  0
   40.3550   28.8080   40.2650 H   0  0  0  0  0  0  0  0  0  0  0  0
   40.4980   32.8590   39.5680 O   0  0  0  0  0  0  0  0  0  0  0  0
   37.9010   30.8990   41.0790 C   0  0  0  0  0  0  0  0  0  0  0  0
   36.7960   31.0600   40.2100 C   0  0  0  0  0  0  0  0  0  0  0  0
   37.0060   31.8820   39.0810 C   0  0  0  0  0  0  0  0  0  0  0  0
   38.2140   32.4510   38.8980 N   0  0  0  0  0  0  0  0  0  0  0  0
   39.2340   32.2690   39.7510 C   0  0  0  0  0  0  0  0  0  0  0  0
   39.0740   31.4960   40.8350 N   0  0  0  0  0  0  0  0  0  0  0  0
   35.8370   30.5980   40.3690 H   0  0  0  0  0  0  0  0  0  0  0  0
   36.2140   32.0510   38.3750 H   0  0  0  0  0  0  0  0  0  0  0  0
   37.7380   30.1150   42.1810 O   0  0  0  0  0  0  0  0  0  0  0  0
   36.6410   27.7370   41.0570 H   0  0  0  0  0  0  0  0  0  0  0  0
   37.4490   27.6630   41.7090 N   0  0  0  0  0  0  0  0  0  0  0  0
   37.9820   28.7730   42.2510 C   0  0  0  0  0  0  0  0  0  0  0  0
   39.0000   28.3640   43.0420 N   0  0  0  0  0  0  0  0  0  0  0  0
   39.0620   27.0170   42.9630 C   0  0  0  0  0  0  0  0  0  0  0  0
   39.8830   26.0510   43.5390 C   0  0  0  0  0  0  0  0  0  0  0  0
   39.7390   24.7370   43.2950 N   0  0  0  0  0  0  0  0  0  0  0  0
   38.7550   24.3270   42.4520 C   0  0  0  0  0  0  0  0  0  0  0  0
   38.5410   23.3000   42.1790 H   0  0  0  0  0  0  0  0  0  0  0  0
   37.9300   25.2420   41.8680 N   0  0  0  0  0  0  0  0  0  0  0  0
   38.0800   26.5470   42.1160 C   0  0  0  0  0  0  0  0  0  0  0  0
   40.9260   26.4640   44.4300 N   0  0  0  0  0  0  0  0  0  0  0  0
   41.8560   26.9340   44.4320 H   0  0  0  0  0  0  0  0  0  0  0  0
   40.6150   26.1810   45.3970 H   0  0  0  0  0  0  0  0  0  0  0  0
  2  1  2  6  0  0  0
  2 25  1  0  0  0  0
  3  2  1  0  0  0  0
  4  3  1  0  0  0  0
  5  2  1  0  0  0  0
  6 11  1  1  0  0  0
  7 12  1  6  0  0  0
  7  6  1  0  0  0  0
  7  5  1  0  0  0  0
  8 14  1  0  0  0  0
  8  7  1  0  0  0  0
  9 10  1  0  0  0  0
  9  8  1  0  0  0  0
 10  6  1  0  0  0  0
 13  8  1  0  0  0  0
 15 10  1  0  0  0  0
 16 10  1  0  0  0  0
 17  6  1  0  0  0  0
 17 18  1  0  0  0  0
 18 20  1  0  0  0  0
 18 21  1  0  0  0  0
 19 18  1  0  0  0  0
 21 23  1  0  0  0  0
 21 24  1  0  0  0  0
 22 21  1  0  0  0  0
 25 30  1  0  0  0  0
 26 34  1  0  0  0  0
 27 32  1  0  0  0  0
 27 26  2  0  0  0  0
 28 27  1  0  0  0  0
 29 28  2  0  0  0  0
 29 30  1  0  0  0  0
 30 31  2  0  0  0  0
 31 26  1  0  0  0  0
 33 28  1  0  0  0  0
 34 37  1  0  0  0  0
 35 36  1  0  0  0  0
 36 45  1  0  0  0  0
 36 37  1  0  0  0  0
 37 38  2  0  0  0  0
 39 38  1  0  0  0  0
 39 40  1  0  0  0  0
 40 46  1  0  0  0  0
 41 40  2  0  0  0  0
 42 41  1  0  0  0  0
 43 42  1  0  0  0  0
 44 45  1  0  0  0  0
 44 42  2  0  0  0  0
 45 39  2  0  0  0  0
 46 47  1  0  0  0  0
 46 48  1  0  0  0  0
M  END
>  <minimizedAffinity>
-5.81360722

$$$$

 OpenBabel03252500293D

 48 51  0  0  1  0  0  0  0  0999 V2000
   39.3790   30.3770   38.2710 O   0  0  0  0  0  0  0  0  0  0  0  0
   38.7170   31.6990   38.1070 P   0  0  1  0  0  0  0  0  0  0  0  0
   39.1250   32.3420   36.5940 O   0  0  0  0  0  0  0  0  0  0  0  0
   40.0960   32.2580   36.4940 H   0  0  0  0  0  0  0  0  0  0  0  0
   37.0890   31.4390   38.1810 O   0  0  0  0  0  0  0  0  0  0  0  0
   35.8650   29.3890   38.2090 C   0  0  2  0  0  0  0  0  0  0  0  0
   36.8200   30.2960   38.8890 C   0  0  2  0  0  0  0  0  0  0  0  0
   36.2730   30.5510   40.2040 C   0  0  0  0  0  0  0  0  0  0  0  0
   35.3950   29.5100   40.5350 O   0  0  0  0  0  0  0  0  0  0  0  0
   35.4820   28.6110   39.5290 C   0  0  0  0  0  0  0  0  0  0  0  0
   34.8390   29.7520   38.0250 H   0  0  0  0  0  0  0  0  0  0  0  0
   37.7910   29.7230   38.8270 H   0  0  0  0  0  0  0  0  0  0  0  0
   37.1280   30.2320   40.9030 H   0  0  0  0  0  0  0  0  0  0  0  0
   36.1030   31.5110   40.6390 H   0  0  0  0  0  0  0  0  0  0  0  0
   36.3620   27.9160   39.6620 H   0  0  0  0  0  0  0  0  0  0  0  0
   34.6250   27.9650   39.3580 H   0  0  0  0  0  0  0  0  0  0  0  0
   36.3720   28.4950   37.3450 O   0  0  0  0  0  0  0  0  0  0  0  0
   36.8720   28.7580   36.1730 C   0  0  0  0  0  0  0  0  0  0  0  0
   36.8400   29.6990   35.6800 H   0  0  0  0  0  0  0  0  0  0  0  0
   36.1780   28.0780   35.4280 H   0  0  0  0  0  0  0  0  0  0  0  0
   38.1680   27.9820   36.0050 C   0  0  0  0  0  0  0  0  0  0  0  0
   38.9870   28.4220   36.6030 H   0  0  0  0  0  0  0  0  0  0  0  0
   37.9390   26.9360   36.2930 H   0  0  0  0  0  0  0  0  0  0  0  0
   38.4140   28.0400   34.9120 H   0  0  0  0  0  0  0  0  0  0  0  0
   39.2930   32.6720   39.3850 O   0  0  0  0  0  0  0  0  0  0  0  0
   39.8320   30.7690   42.3780 C   0  0  0  0  0  0  0  0  0  0  0  0
   41.1910   30.9990   42.6950 C   0  0  0  0  0  0  0  0  0  0  0  0
   41.9010   31.8460   41.8150 C   0  0  0  0  0  0  0  0  0  0  0  0
   41.2610   32.3730   40.7520 N   0  0  0  0  0  0  0  0  0  0  0  0
   39.9680   32.1260   40.4920 C   0  0  0  0  0  0  0  0  0  0  0  0
   39.2600   31.3270   41.3040 N   0  0  0  0  0  0  0  0  0  0  0  0
   41.6890   30.5720   43.5480 H   0  0  0  0  0  0  0  0  0  0  0  0
   42.9370   32.0690   41.9900 H   0  0  0  0  0  0  0  0  0  0  0  0
   39.1130   29.9560   43.2020 O   0  0  0  0  0  0  0  0  0  0  0  0
   36.7630   28.6450   42.2630 H   0  0  0  0  0  0  0  0  0  0  0  0
   37.6080   28.0770   42.4800 N   0  0  0  0  0  0  0  0  0  0  0  0
   38.7270   28.6750   42.9250 C   0  0  0  0  0  0  0  0  0  0  0  0
   39.6380   27.6940   43.1160 N   0  0  0  0  0  0  0  0  0  0  0  0
   39.0520   26.5230   42.7840 C   0  0  0  0  0  0  0  0  0  0  0  0
   39.4780   25.1980   42.7730 C   0  0  0  0  0  0  0  0  0  0  0  0
   38.6830   24.1840   42.3890 N   0  0  0  0  0  0  0  0  0  0  0  0
   37.4110   24.4550   41.9950 C   0  0  0  0  0  0  0  0  0  0  0  0
   36.6800   23.7260   41.6660 H   0  0  0  0  0  0  0  0  0  0  0  0
   36.9570   25.7410   41.9910 N   0  0  0  0  0  0  0  0  0  0  0  0
   37.7530   26.7440   42.3740 C   0  0  0  0  0  0  0  0  0  0  0  0
   40.8140   24.8910   43.1850 N   0  0  0  0  0  0  0  0  0  0  0  0
   41.8040   24.9770   42.8690 H   0  0  0  0  0  0  0  0  0  0  0  0
   40.7320   24.4220   44.1260 H   0  0  0  0  0  0  0  0  0  0  0  0
  2  5  1  0  0  0  0
  2  1  2  1  0  0  0
  2 25  1  0  0  0  0
  3  2  1  0  0  0  0
  4  3  1  0  0  0  0
  5  7  1  0  0  0  0
  6 11  1  6  0  0  0
  6  7  1  0  0  0  0
  6 10  1  0  0  0  0
  7 12  1  1  0  0  0
  7  8  1  0  0  0  0
  8  9  1  0  0  0  0
  8 14  1  0  0  0  0
  8 13  1  0  0  0  0
 10 15  1  0  0  0  0
 10  9  1  0  0  0  0
 16 10  1  0  0  0  0
 17  6  1  0  0  0  0
 18 17  1  0  0  0  0
 19 18  1  0  0  0  0
 20 18  1  0  0  0  0
 21 18  1  0  0  0  0
 21 23  1  0  0  0  0
 21 22  1  0  0  0  0
 24 21  1  0  0  0  0
 25 30  1  0  0  0  0
 26 27  1  0  0  0  0
 26 34  1  0  0  0  0
 27 32  1  0  0  0  0
 28 33  1  0  0  0  0
 28 27  2  0  0  0  0
 29 28  1  0  0  0  0
 30 29  2  0  0  0  0
 30 31  1  0  0  0  0
 31 26  2  0  0  0  0
 35 36  1  0  0  0  0
 36 37  1  0  0  0  0
 37 38  2  0  0  0  0
 37 34  1  0  0  0  0
 39 38  1  0  0  0  0
 40 39  1  0  0  0  0
 40 46  1  0  0  0  0
 41 40  2  0  0  0  0
 42 41  1  0  0  0  0
 43 42  1  0  0  0  0
 44 42  2  0  0  0  0
 44 45  1  0  0  0  0
 45 36  1  0  0  0  0
 45 39  2  0  0  0  0
 46 48  1  0  0  0  0
 47 46  1  0  0  0  0
M  END
>  <minimizedAffinity>
-5.81352711

$$$$

 OpenBabel03252500293D

 48 51  0  0  1  0  0  0  0  0999 V2000
   42.4370   29.0640   40.7010 O   0  0  0  0  0  0  0  0  0  0  0  0
   41.4440   30.0560   41.1920 P   0  0  1  0  0  0  0  0  0  0  0  0
   40.0670   29.9990   40.2060 O   0  0  0  0  0  0  0  0  0  0  0  0
   40.3740   30.0230   39.2760 H   0  0  0  0  0  0  0  0  0  0  0  0
   41.0440   29.6230   42.7330 O   0  0  0  0  0  0  0  0  0  0  0  0
   39.7300   27.7050   43.2820 C   0  0  2  0  0  0  0  0  0  0  0  0
   41.0390   28.2570   42.8590 C   0  0  2  0  0  0  0  0  0  0  0  0
   42.0140   27.7660   43.8090 C   0  0  0  0  0  0  0  0  0  0  0  0
   41.5080   26.6070   44.4130 O   0  0  0  0  0  0  0  0  0  0  0  0
   40.3380   26.3390   43.7910 C   0  0  0  0  0  0  0  0  0  0  0  0
   39.3350   27.9950   44.2710 H   0  0  0  0  0  0  0  0  0  0  0  0
   41.1220   27.9020   41.7910 H   0  0  0  0  0  0  0  0  0  0  0  0
   42.7840   27.2400   43.1360 H   0  0  0  0  0  0  0  0  0  0  0  0
   42.7090   28.3600   44.3600 H   0  0  0  0  0  0  0  0  0  0  0  0
   40.4950   25.7720   42.8270 H   0  0  0  0  0  0  0  0  0  0  0  0
   39.5950   25.7710   44.3440 H   0  0  0  0  0  0  0  0  0  0  0  0
   38.8410   27.4190   42.3170 O   0  0  0  0  0  0  0  0  0  0  0  0
   37.6380   27.9040   42.2130 C   0  0  0  0  0  0  0  0  0  0  0  0
   37.0340   27.8850   41.3400 H   0  0  0  0  0  0  0  0  0  0  0  0
   37.8240   29.1070   42.3460 H   0  0  0  0  0  0  0  0  0  0  0  0
   36.8980   27.6690   43.5190 C   0  0  0  0  0  0  0  0  0  0  0  0
   36.6060   26.6090   43.6380 H   0  0  0  0  0  0  0  0  0  0  0  0
   37.5750   28.0210   44.3240 H   0  0  0  0  0  0  0  0  0  0  0  0
   35.9840   28.3170   43.4680 H   0  0  0  0  0  0  0  0  0  0  0  0
   42.2190   31.5740   41.1100 O   0  0  0  0  0  0  0  0  0  0  0  0
   39.4310   33.7440   40.4870 C   0  0  0  0  0  0  0  0  0  0  0  0
   40.0090   35.0310   40.3880 C   0  0  0  0  0  0  0  0  0  0  0  0
   41.4100   35.0990   40.5500 C   0  0  0  0  0  0  0  0  0  0  0  0
   42.1000   33.9640   40.7830 N   0  0  0  0  0  0  0  0  0  0  0  0
   41.5070   32.7630   40.8680 C   0  0  0  0  0  0  0  0  0  0  0  0
   40.1790   32.6580   40.7200 N   0  0  0  0  0  0  0  0  0  0  0  0
   39.4450   35.9290   40.2020 H   0  0  0  0  0  0  0  0  0  0  0  0
   41.9220   36.0410   40.4880 H   0  0  0  0  0  0  0  0  0  0  0  0
   38.0810   33.6370   40.3380 O   0  0  0  0  0  0  0  0  0  0  0  0
   36.3100   31.8250   41.6440 H   0  0  0  0  0  0  0  0  0  0  0  0
   36.5650   31.6560   40.6490 N   0  0  0  0  0  0  0  0  0  0  0  0
   37.3990   32.4980   40.0140 C   0  0  0  0  0  0  0  0  0  0  0  0
   37.5390   32.0250   38.7540 N   0  0  0  0  0  0  0  0  0  0  0  0
   36.7880   30.9070   38.6530 C   0  0  0  0  0  0  0  0  0  0  0  0
   36.5360   30.0010   37.6260 C   0  0  0  0  0  0  0  0  0  0  0  0
   35.7270   28.9380   37.7800 N   0  0  0  0  0  0  0  0  0  0  0  0
   35.1280   28.7320   38.9820 C   0  0  0  0  0  0  0  0  0  0  0  0
   34.4600   27.9150   39.2250 H   0  0  0  0  0  0  0  0  0  0  0  0
   35.3510   29.5970   40.0130 N   0  0  0  0  0  0  0  0  0  0  0  0
   36.1560   30.6520   39.8530 C   0  0  0  0  0  0  0  0  0  0  0  0
   37.1570   30.2010   36.3520 N   0  0  0  0  0  0  0  0  0  0  0  0
   37.1150   30.8200   35.5140 H   0  0  0  0  0  0  0  0  0  0  0  0
   37.8980   29.4560   36.2660 H   0  0  0  0  0  0  0  0  0  0  0  0
  2  1  2  6  0  0  0
  2  5  1  0  0  0  0
  3  2  1  0  0  0  0
  4  3  1  0  0  0  0
  5  7  1  0  0  0  0
  6 10  1  0  0  0  0
  6 11  1  1  0  0  0
  7 12  1  6  0  0  0
  7  6  1  0  0  0  0
  7  8  1  0  0  0  0
  8 14  1  0  0  0  0
  8  9  1  0  0  0  0
 10 16  1  0  0  0  0
 10  9  1  0  0  0  0
 13  8  1  0  0  0  0
 15 10  1  0  0  0  0
 17  6  1  0  0  0  0
 18 17  1  0  0  0  0
 18 20  1  0  0  0  0
 18 21  1  0  0  0  0
 19 18  1  0  0  0  0
 21 22  1  0  0  0  0
 21 23  1  0  0  0  0
 24 21  1  0  0  0  0
 25  2  1  0  0  0  0
 26 31  1  0  0  0  0
 27 26  2  0  0  0  0
 27 28  1  0  0  0  0
 28 29  2  0  0  0  0
 29 30  1  0  0  0  0
 30 25  1  0  0  0  0
 31 30  2  0  0  0  0
 32 27  1  0  0  0  0
 33 28  1  0  0  0  0
 34 26  1  0  0  0  0
 36 35  1  0  0  0  0
 37 34  1  0  0  0  0
 37 36  1  0  0  0  0
 38 37  2  0  0  0  0
 39 38  1  0  0  0  0
 39 45  1  0  0  0  0
 40 41  1  0  0  0  0
 40 39  2  0  0  0  0
 41 42  2  0  0  0  0
 42 43  1  0  0  0  0
 42 44  1  0  0  0  0
 45 44  2  0  0  0  0
 45 36  1  0  0  0  0
 46 40  1  0  0  0  0
 47 46  1  0  0  0  0
 48 46  1  0  0  0  0
M  END
>  <minimizedAffinity>
-5.73541451

$$$$

 OpenBabel03252500293D

 48 51  0  0  1  0  0  0  0  0999 V2000
   38.7160   25.5400   40.6090 O   0  0  0  0  0  0  0  0  0  0  0  0
   37.5320   24.9420   41.2810 P   0  0  1  0  0  0  0  0  0  0  0  0
   37.9490   23.4180   41.8920 O   0  0  0  0  0  0  0  0  0  0  0  0
   38.4110   22.9340   41.1770 H   0  0  0  0  0  0  0  0  0  0  0  0
   37.1170   25.9460   42.5230 O   0  0  0  0  0  0  0  0  0  0  0  0
   38.4170   27.7090   43.4760 C   0  0  2  0  0  0  0  0  0  0  0  0
   37.6420   27.1970   42.3200 C   0  0  2  0  0  0  0  0  0  0  0  0
   36.6400   28.1990   42.0260 C   0  0  0  0  0  0  0  0  0  0  0  0
   37.0710   29.4290   42.5400 O   0  0  0  0  0  0  0  0  0  0  0  0
   38.3160   29.2190   43.0240 C   0  0  0  0  0  0  0  0  0  0  0  0
   37.8880   27.8700   44.4300 H   0  0  0  0  0  0  0  0  0  0  0  0
   38.4450   27.0150   41.5470 H   0  0  0  0  0  0  0  0  0  0  0  0
   36.8370   28.4400   40.9200 H   0  0  0  0  0  0  0  0  0  0  0  0
   35.5900   28.0290   41.9360 H   0  0  0  0  0  0  0  0  0  0  0  0
   39.0980   29.2810   42.2130 H   0  0  0  0  0  0  0  0  0  0  0  0
   38.6640   29.8790   43.8150 H   0  0  0  0  0  0  0  0  0  0  0  0
   39.7200   27.3900   43.5340 O   0  0  0  0  0  0  0  0  0  0  0  0
   40.2180   26.2670   43.9640 C   0  0  0  0  0  0  0  0  0  0  0  0
   39.8970   25.2960   43.6790 H   0  0  0  0  0  0  0  0  0  0  0  0
   39.9140   26.2780   45.1500 H   0  0  0  0  0  0  0  0  0  0  0  0
   41.7180   26.4290   44.1390 C   0  0  0  0  0  0  0  0  0  0  0  0
   42.2430   26.4460   43.1650 H   0  0  0  0  0  0  0  0  0  0  0  0
   41.8620   27.3620   44.7200 H   0  0  0  0  0  0  0  0  0  0  0  0
   42.0490   25.5410   44.7400 H   0  0  0  0  0  0  0  0  0  0  0  0
   36.3200   24.8340   40.0830 O   0  0  0  0  0  0  0  0  0  0  0  0
   36.1330   27.5780   37.7810 C   0  0  0  0  0  0  0  0  0  0  0  0
   36.5400   27.0220   36.5450 C   0  0  0  0  0  0  0  0  0  0  0  0
   36.8810   25.6520   36.5610 C   0  0  0  0  0  0  0  0  0  0  0  0
   36.8000   24.9680   37.7200 N   0  0  0  0  0  0  0  0  0  0  0  0
   36.4070   25.5390   38.8700 C   0  0  0  0  0  0  0  0  0  0  0  0
   36.0760   26.8380   38.8950 N   0  0  0  0  0  0  0  0  0  0  0  0
   36.5990   27.5800   35.6270 H   0  0  0  0  0  0  0  0  0  0  0  0
   37.1990   25.1580   35.6610 H   0  0  0  0  0  0  0  0  0  0  0  0
   35.7980   28.8980   37.8070 O   0  0  0  0  0  0  0  0  0  0  0  0
   35.7700   30.2880   40.2960 H   0  0  0  0  0  0  0  0  0  0  0  0
   36.4880   30.5380   39.5840 N   0  0  0  0  0  0  0  0  0  0  0  0
   36.5180   29.8950   38.4020 C   0  0  0  0  0  0  0  0  0  0  0  0
   37.5420   30.4300   37.6990 N   0  0  0  0  0  0  0  0  0  0  0  0
   38.1090   31.3840   38.4680 C   0  0  0  0  0  0  0  0  0  0  0  0
   39.1780   32.2600   38.2910 C   0  0  0  0  0  0  0  0  0  0  0  0
   39.5560   33.1410   39.2330 N   0  0  0  0  0  0  0  0  0  0  0  0
   38.8750   33.1850   40.4080 C   0  0  0  0  0  0  0  0  0  0  0  0
   39.0850   33.8500   41.2380 H   0  0  0  0  0  0  0  0  0  0  0  0
   37.8220   32.3440   40.6190 N   0  0  0  0  0  0  0  0  0  0  0  0
   37.4510   31.4710   39.6770 C   0  0  0  0  0  0  0  0  0  0  0  0
   39.9090   32.2280   37.0610 N   0  0  0  0  0  0  0  0  0  0  0  0
   40.5920   31.6430   36.5340 H   0  0  0  0  0  0  0  0  0  0  0  0
   39.6440   33.1050   36.5390 H   0  0  0  0  0  0  0  0  0  0  0  0
  2  1  2  6  0  0  0
  2  3  1  0  0  0  0
  2  5  1  0  0  0  0
  4  3  1  0  0  0  0
  6 17  1  0  0  0  0
  6 11  1  1  0  0  0
  7 12  1  6  0  0  0
  7  5  1  0  0  0  0
  7  6  1  0  0  0  0
  8  7  1  0  0  0  0
  8  9  1  0  0  0  0
  9 10  1  0  0  0  0
 10  6  1  0  0  0  0
 10 16  1  0  0  0  0
 13  8  1  0  0  0  0
 14  8  1  0  0  0  0
 15 10  1  0  0  0  0
 17 18  1  0  0  0  0
 18 21  1  0  0  0  0
 18 20  1  0  0  0  0
 19 18  1  0  0  0  0
 21 23  1  0  0  0  0
 21 24  1  0  0  0  0
 22 21  1  0  0  0  0
 25  2  1  0  0  0  0
 26 34  1  0  0  0  0
 26 31  1  0  0  0  0
 27 28  1  0  0  0  0
 27 26  2  0  0  0  0
 28 29  2  0  0  0  0
 29 30  1  0  0  0  0
 30 31  2  0  0  0  0
 30 25  1  0  0  0  0
 32 27  1  0  0  0  0
 33 28  1  0  0  0  0
 34 37  1  0  0  0  0
 36 45  1  0  0  0  0
 36 35  1  0  0  0  0
 37 36  1  0  0  0  0
 38 37  2  0  0  0  0
 38 39  1  0  0  0  0
 39 45  1  0  0  0  0
 40 39  2  0  0  0  0
 40 41  1  0  0  0  0
 41 42  2  0  0  0  0
 42 44  1  0  0  0  0
 42 43  1  0  0  0  0
 45 44  2  0  0  0  0
 46 40  1  0  0  0  0
 47 46  1  0  0  0  0
 48 46  1  0  0  0  0
M  END
>  <minimizedAffinity>
-5.69028187

$$$$

 OpenBabel03252500293D

 48 51  0  0  1  0  0  0  0  0999 V2000
   38.7970   30.2280   42.8850 O   0  0  0  0  0  0  0  0  0  0  0  0
   37.7260   29.2490   42.5590 P   0  0  1  0  0  0  0  0  0  0  0  0
   37.0170   28.7000   43.9950 O   0  0  0  0  0  0  0  0  0  0  0  0
   37.7440   28.4550   44.6040 H   0  0  0  0  0  0  0  0  0  0  0  0
   36.6010   30.0440   41.6500 O   0  0  0  0  0  0  0  0  0  0  0  0
   37.0060   31.8990   40.2020 C   0  0  2  0  0  0  0  0  0  0  0  0
   37.1480   30.4460   40.4580 C   0  0  2  0  0  0  0  0  0  0  0  0
   36.5800   29.7730   39.3100 C   0  0  0  0  0  0  0  0  0  0  0  0
   36.5940   30.6540   38.2200 O   0  0  0  0  0  0  0  0  0  0  0  0
   37.2350   31.7660   38.6450 C   0  0  0  0  0  0  0  0  0  0  0  0
   35.9900   32.3160   40.1020 H   0  0  0  0  0  0  0  0  0  0  0  0
   38.2570   30.3340   40.6360 H   0  0  0  0  0  0  0  0  0  0  0  0
   37.4440   29.1040   38.9530 H   0  0  0  0  0  0  0  0  0  0  0  0
   35.8300   29.0130   39.3350 H   0  0  0  0  0  0  0  0  0  0  0  0
   38.3570   31.6570   38.5750 H   0  0  0  0  0  0  0  0  0  0  0  0
   37.0030   32.7010   38.1420 H   0  0  0  0  0  0  0  0  0  0  0  0
   37.9650   32.7070   40.6840 O   0  0  0  0  0  0  0  0  0  0  0  0
   39.2270   32.6720   40.3730 C   0  0  0  0  0  0  0  0  0  0  0  0
   39.6860   31.9760   39.7150 H   0  0  0  0  0  0  0  0  0  0  0  0
   39.7560   32.3750   41.4370 H   0  0  0  0  0  0  0  0  0  0  0  0
   39.7500   34.0960   40.2780 C   0  0  0  0  0  0  0  0  0  0  0  0
   39.3970   34.5990   39.3590 H   0  0  0  0  0  0  0  0  0  0  0  0
   39.4160   34.6080   41.2030 H   0  0  0  0  0  0  0  0  0  0  0  0
   40.8680   34.0060   40.2640 H   0  0  0  0  0  0  0  0  0  0  0  0
   38.4930   27.9840   41.7070 O   0  0  0  0  0  0  0  0  0  0  0  0
   36.8010   25.4260   39.8470 C   0  0  0  0  0  0  0  0  0  0  0  0
   36.5560   24.4090   40.8000 C   0  0  0  0  0  0  0  0  0  0  0  0
   37.0090   24.6640   42.1130 C   0  0  0  0  0  0  0  0  0  0  0  0
   37.6330   25.8300   42.3780 N   0  0  0  0  0  0  0  0  0  0  0  0
   37.8430   26.7650   41.4390 C   0  0  0  0  0  0  0  0  0  0  0  0
   37.4280   26.5610   40.1810 N   0  0  0  0  0  0  0  0  0  0  0  0
   36.0550   23.4830   40.5740 H   0  0  0  0  0  0  0  0  0  0  0  0
   36.8590   23.9400   42.8920 H   0  0  0  0  0  0  0  0  0  0  0  0
   36.3800   25.2170   38.5680 O   0  0  0  0  0  0  0  0  0  0  0  0
   33.7550   26.2390   38.1340 H   0  0  0  0  0  0  0  0  0  0  0  0
   34.5450   26.6150   37.5690 N   0  0  0  0  0  0  0  0  0  0  0  0
   35.7920   26.1460   37.7580 C   0  0  0  0  0  0  0  0  0  0  0  0
   36.5890   26.8150   36.8940 N   0  0  0  0  0  0  0  0  0  0  0  0
   35.8100   27.6730   36.2010 C   0  0  0  0  0  0  0  0  0  0  0  0
   36.0540   28.6050   35.1950 C   0  0  0  0  0  0  0  0  0  0  0  0
   35.0810   29.3580   34.6540 N   0  0  0  0  0  0  0  0  0  0  0  0
   33.8060   29.2110   35.0990 C   0  0  0  0  0  0  0  0  0  0  0  0
   32.9420   29.7580   34.7410 H   0  0  0  0  0  0  0  0  0  0  0  0
   33.5260   28.3080   36.0820 N   0  0  0  0  0  0  0  0  0  0  0  0
   34.4990   27.5620   36.6160 C   0  0  0  0  0  0  0  0  0  0  0  0
   37.3910   28.7770   34.7130 N   0  0  0  0  0  0  0  0  0  0  0  0
   38.3140   29.1710   34.9940 H   0  0  0  0  0  0  0  0  0  0  0  0
   37.4120   28.3490   33.7490 H   0  0  0  0  0  0  0  0  0  0  0  0
  2  1  2  1  0  0  0
  2  3  1  0  0  0  0
  3  4  1  0  0  0  0
  5  2  1  0  0  0  0
  6 11  1  1  0  0  0
  6  7  1  0  0  0  0
  6 17  1  0  0  0  0
  7 12  1  1  0  0  0
  7  5  1  0  0  0  0
  8 14  1  0  0  0  0
  8  7  1  0  0  0  0
  9 10  1  0  0  0  0
  9  8  1  0  0  0  0
 10  6  1  0  0  0  0
 13  8  1  0  0  0  0
 15 10  1  0  0  0  0
 16 10  1  0  0  0  0
 18 17  1  0  0  0  0
 18 20  1  0  0  0  0
 19 18  1  0  0  0  0
 21 18  1  0  0  0  0
 21 23  1  0  0  0  0
 22 21  1  0  0  0  0
 24 21  1  0  0  0  0
 25  2  1  0  0  0  0
 26 31  2  0  0  0  0
 26 27  1  0  0  0  0
 27 28  2  0  0  0  0
 28 29  1  0  0  0  0
 28 33  1  0  0  0  0
 30 25  1  0  0  0  0
 30 29  2  0  0  0  0
 31 30  1  0  0  0  0
 32 27  1  0  0  0  0
 34 26  1  0  0  0  0
 36 37  1  0  0  0  0
 36 35  1  0  0  0  0
 37 34  1  0  0  0  0
 38 37  2  0  0  0  0
 39 45  1  0  0  0  0
 39 38  1  0  0  0  0
 40 39  2  0  0  0  0
 41 42  2  0  0  0  0
 41 40  1  0  0  0  0
 42 44  1  0  0  0  0
 43 42  1  0  0  0  0
 44 45  2  0  0  0  0
 45 36  1  0  0  0  0
 46 47  1  0  0  0  0
 46 40  1  0  0  0  0
 48 46  1  0  0  0  0
M  END
>  <minimizedAffinity>
-5.64219999

$$$$
