
 OpenBabel03252503453D

 49 53  0  0  1  0  0  0  0  0999 V2000
   45.9380   35.5830   42.7560 C   0  0  0  0  0  0  0  0  0  0  0  0
   46.9250   35.5150   42.2570 H   0  0  0  0  0  0  0  0  0  0  0  0
   45.8430   36.6570   43.0450 H   0  0  0  0  0  0  0  0  0  0  0  0
   44.9000   35.1860   41.7950 C   0  0  0  0  0  0  0  0  0  0  0  0
   43.5950   35.6190   41.8140 C   0  0  0  0  0  0  0  0  0  0  0  0
   42.6600   35.2120   40.8950 C   0  0  0  0  0  0  0  0  0  0  0  0
   43.0390   34.3350   39.9120 C   0  0  0  0  0  0  0  0  0  0  0  0
   44.3560   33.8830   39.8720 C   0  0  0  0  0  0  0  0  0  0  0  0
   45.2980   34.3050   40.8130 C   0  0  0  0  0  0  0  0  0  0  0  0
   43.3650   36.3080   42.6150 H   0  0  0  0  0  0  0  0  0  0  0  0
   41.6570   35.6130   40.9970 H   0  0  0  0  0  0  0  0  0  0  0  0
   42.2610   34.0540   39.2210 H   0  0  0  0  0  0  0  0  0  0  0  0
   44.4920   33.1950   39.0350 H   0  0  0  0  0  0  0  0  0  0  0  0
   46.5400   33.6940   40.5050 N   0  0  0  0  0  0  0  0  0  0  0  0
   47.5920   34.2350   39.8620 C   0  0  0  0  0  0  0  0  0  0  0  0
   47.6940   35.2320   39.4580 H   0  0  0  0  0  0  0  0  0  0  0  0
   48.5740   33.3450   39.7620 N   0  0  0  0  0  0  0  0  0  0  0  0
   48.1770   32.1960   40.3420 C   0  0  0  0  0  0  0  0  0  0  0  0
   48.7230   30.9660   40.5480 C   0  0  0  0  0  0  0  0  0  0  0  0
   48.0620   29.9710   41.1870 N   0  0  0  0  0  0  0  0  0  0  0  0
   46.7990   30.1970   41.6450 C   0  0  0  0  0  0  0  0  0  0  0  0
   46.2090   29.4500   42.1650 H   0  0  0  0  0  0  0  0  0  0  0  0
   46.2460   31.3990   41.4510 N   0  0  0  0  0  0  0  0  0  0  0  0
   46.8780   32.4070   40.8210 C   0  0  0  0  0  0  0  0  0  0  0  0
   50.0440   30.7860   40.0490 N   0  0  0  0  0  0  0  0  0  0  0  0
   50.9580   30.3450   40.2700 H   0  0  0  0  0  0  0  0  0  0  0  0
   50.3210   31.1980   39.1400 H   0  0  0  0  0  0  0  0  0  0  0  0
   44.9980   34.8840   44.9390 C   0  0  0  0  0  0  0  0  0  0  0  0
   45.9190   34.7040   43.9120 C   0  0  0  0  0  0  0  0  0  0  0  0
   46.8160   33.6440   44.0440 C   0  0  0  0  0  0  0  0  0  0  0  0
   46.7860   32.8280   45.1250 N   0  0  0  0  0  0  0  0  0  0  0  0
   45.8750   33.0370   46.1010 C   0  0  0  0  0  0  0  0  0  0  0  0
   44.9790   34.0610   46.0180 N   0  0  0  0  0  0  0  0  0  0  0  0
   44.2910   35.6780   44.8900 H   0  0  0  0  0  0  0  0  0  0  0  0
   47.5760   33.4030   43.3530 H   0  0  0  0  0  0  0  0  0  0  0  0
   47.3260   31.8040   47.7000 C   0  0  2  0  0  0  0  0  0  0  0  0
   45.8740   32.1290   47.2490 C   0  0  1  0  0  0  0  0  0  0  0  0
   45.4010   32.6410   48.4090 O   0  0  0  0  0  0  0  0  0  0  0  0
   45.7830   31.8150   49.4260 C   0  0  0  0  0  0  0  0  0  0  0  0
   46.9600   30.9880   48.9470 C   0  0  2  0  0  0  0  0  0  0  0  0
   47.8420   31.1900   46.9420 H   0  0  0  0  0  0  0  0  0  0  0  0
   45.3680   31.1560   47.0290 H   0  0  0  0  0  0  0  0  0  0  0  0
   46.0900   32.4360   50.2930 H   0  0  0  0  0  0  0  0  0  0  0  0
   44.9120   31.1570   49.6870 H   0  0  0  0  0  0  0  0  0  0  0  0
   46.5960   29.9870   48.6710 H   0  0  0  0  0  0  0  0  0  0  0  0
   47.9490   32.9210   48.1190 O   0  0  0  0  0  0  0  0  0  0  0  0
   48.9420   32.7600   48.0630 H   0  0  0  0  0  0  0  0  0  0  0  0
   47.9790   30.8890   49.8450 O   0  0  0  0  0  0  0  0  0  0  0  0
   48.7740   31.4390   49.6180 H   0  0  0  0  0  0  0  0  0  0  0  0
  1  3  1  0  0  0  0
  1 29  1  0  0  0  0
  2  1  1  0  0  0  0
  4  5  1  0  0  0  0
  4  1  1  0  0  0  0
  5 10  1  0  0  0  0
  6 11  1  0  0  0  0
  6  5  2  0  0  0  0
  7  6  1  0  0  0  0
  8  7  2  0  0  0  0
  8  9  1  0  0  0  0
  9  4  2  0  0  0  0
 12  7  1  0  0  0  0
 13  8  1  0  0  0  0
 14  9  1  0  0  0  0
 14 24  1  0  0  0  0
 15 14  1  0  0  0  0
 16 15  1  0  0  0  0
 17 15  2  0  0  0  0
 17 18  1  0  0  0  0
 18 19  2  0  0  0  0
 18 24  1  0  0  0  0
 19 20  1  0  0  0  0
 20 21  2  0  0  0  0
 21 22  1  0  0  0  0
 23 21  1  0  0  0  0
 24 23  2  0  0  0  0
 25 26  1  0  0  0  0
 25 19  1  0  0  0  0
 27 25  1  0  0  0  0
 28 33  1  0  0  0  0
 29 30  1  0  0  0  0
 29 28  2  0  0  0  0
 30 31  2  0  0  0  0
 31 32  1  0  0  0  0
 32 37  1  0  0  0  0
 33 32  2  0  0  0  0
 34 28  1  0  0  0  0
 35 30  1  0  0  0  0
 36 41  1  6  0  0  0
 36 46  1  0  0  0  0
 36 40  1  0  0  0  0
 37 42  1  6  0  0  0
 37 36  1  0  0  0  0
 37 38  1  0  0  0  0
 38 39  1  0  0  0  0
 39 44  1  0  0  0  0
 39 43  1  0  0  0  0
 40 45  1  6  0  0  0
 40 39  1  0  0  0  0
 40 48  1  0  0  0  0
 47 46  1  0  0  0  0
 49 48  1  0  0  0  0
M  END
>  <minimizedAffinity>
-7.09684753

>  <minimizedRMSD>
0.504155278

$$$$
