
 OpenBabel03252504003D

 39 43  0  0  0  0  0  0  0  0999 V2000
   46.9100   35.0150   42.6440 C   0  0  0  0  0  0  0  0  0  0  0  0
   45.9090   35.9850   42.5080 C   0  0  0  0  0  0  0  0  0  0  0  0
   44.8440   35.9480   43.4050 C   0  0  0  0  0  0  0  0  0  0  0  0
   44.8380   34.9830   44.3530 N   0  0  0  0  0  0  0  0  0  0  0  0
   45.8200   34.0670   44.4540 C   0  0  0  0  0  0  0  0  0  0  0  0
   46.8620   34.0740   43.6040 N   0  0  0  0  0  0  0  0  0  0  0  0
   45.9400   36.7490   41.7350 H   0  0  0  0  0  0  0  0  0  0  0  0
   44.0570   36.6930   43.3150 H   0  0  0  0  0  0  0  0  0  0  0  0
   46.0740   31.7200   45.0990 C   0  0  0  0  0  0  0  0  0  0  0  0
   45.7940   33.0260   45.4920 C   0  0  0  0  0  0  0  0  0  0  0  0
   45.5090   33.2920   46.8100 C   0  0  0  0  0  0  0  0  0  0  0  0
   45.5030   32.2630   47.7290 C   0  0  0  0  0  0  0  0  0  0  0  0
   45.2700   32.2040   49.0410 N   0  0  0  0  0  0  0  0  0  0  0  0
   45.3820   30.9570   49.5060 C   0  0  0  0  0  0  0  0  0  0  0  0
   45.7050   30.1420   48.4580 C   0  0  0  0  0  0  0  0  0  0  0  0
   45.7810   30.9600   47.3450 C   0  0  0  0  0  0  0  0  0  0  0  0
   46.0690   30.6890   46.0140 C   0  0  0  0  0  0  0  0  0  0  0  0
   46.3020   31.4870   44.0590 H   0  0  0  0  0  0  0  0  0  0  0  0
   45.2920   34.3110   47.1110 H   0  0  0  0  0  0  0  0  0  0  0  0
   45.0310   33.0410   49.6170 H   0  0  0  0  0  0  0  0  0  0  0  0
   45.2380   30.6550   50.5470 H   0  0  0  0  0  0  0  0  0  0  0  0
   45.8690   29.0930   48.4710 H   0  0  0  0  0  0  0  0  0  0  0  0
   46.2900   29.6900   45.6720 H   0  0  0  0  0  0  0  0  0  0  0  0
   47.9820   35.1080   41.6850 C   0  0  0  0  0  0  0  0  0  0  0  0
   49.0990   35.6920   41.8960 O   0  0  0  0  0  0  0  0  0  0  0  0
   49.5110   35.3220   39.2610 H   0  0  0  0  0  0  0  0  0  0  0  0
   48.6730   34.7310   39.3140 N   0  0  0  0  0  0  0  0  0  0  0  0
   47.8310   34.5020   40.3450 C   0  0  0  0  0  0  0  0  0  0  0  0
   46.8720   33.6510   39.9380 N   0  0  0  0  0  0  0  0  0  0  0  0
   47.0720   33.3220   38.6570 C   0  0  0  0  0  0  0  0  0  0  0  0
   46.4920   32.5380   37.6810 C   0  0  0  0  0  0  0  0  0  0  0  0
   46.9440   32.4050   36.4340 N   0  0  0  0  0  0  0  0  0  0  0  0
   48.0650   33.0890   36.0770 C   0  0  0  0  0  0  0  0  0  0  0  0
   48.5500   33.0840   35.1120 H   0  0  0  0  0  0  0  0  0  0  0  0
   48.6550   33.8620   37.0070 N   0  0  0  0  0  0  0  0  0  0  0  0
   48.2090   34.0040   38.2630 C   0  0  0  0  0  0  0  0  0  0  0  0
   45.3200   31.8180   38.0440 N   0  0  0  0  0  0  0  0  0  0  0  0
   45.5560   31.0010   38.6810 H   0  0  0  0  0  0  0  0  0  0  0  0
   44.2870   31.6750   38.0030 H   0  0  0  0  0  0  0  0  0  0  0  0
  1  6  1  0  0  0  0
  2  1  2  0  0  0  0
  2  3  1  0  0  0  0
  3  4  2  0  0  0  0
  4  5  1  0  0  0  0
  5 10  1  0  0  0  0
  6  5  2  0  0  0  0
  7  2  1  0  0  0  0
  8  3  1  0  0  0  0
  9 10  2  0  0  0  0
  9 17  1  0  0  0  0
 10 11  1  0  0  0  0
 11 19  1  0  0  0  0
 11 12  2  0  0  0  0
 12 13  1  0  0  0  0
 13 14  1  0  0  0  0
 13 20  1  0  0  0  0
 14 21  1  0  0  0  0
 15 22  1  0  0  0  0
 15 14  2  0  0  0  0
 16 12  1  0  0  0  0
 16 15  1  0  0  0  0
 17 16  2  0  0  0  0
 18  9  1  0  0  0  0
 23 17  1  0  0  0  0
 24 25  2  0  0  0  0
 24  1  1  0  0  0  0
 26 27  1  0  0  0  0
 27 28  1  0  0  0  0
 28 24  1  0  0  0  0
 29 28  2  0  0  0  0
 30 29  1  0  0  0  0
 31 37  1  0  0  0  0
 31 30  2  0  0  0  0
 32 31  1  0  0  0  0
 33 32  2  0  0  0  0
 33 35  1  0  0  0  0
 34 33  1  0  0  0  0
 35 36  2  0  0  0  0
 36 30  1  0  0  0  0
 36 27  1  0  0  0  0
 37 38  1  0  0  0  0
 39 37  1  0  0  0  0
M  END
>  <minimizedAffinity>
-7.15258884

>  <minimizedRMSD>
1.37162673

$$$$
