
 OpenBabel03252504473D

 32 34  0  0  0  0  0  0  0  0999 V2000
   45.4860   31.8430   49.3760 O   0  0  0  0  0  0  0  0  0  0  0  0
   45.7180   31.7130   47.8750 P   0  0  1  0  0  0  0  0  0  0  0  0
   44.6720   30.4860   47.3490 O   0  0  0  0  0  0  0  0  0  0  0  0
   45.1510   29.6210   47.2570 H   0  0  0  0  0  0  0  0  0  0  0  0
   45.3600   33.2160   47.1970 O   0  0  0  0  0  0  0  0  0  0  0  0
   45.4840   34.9140   44.0170 C   0  0  0  0  0  0  0  0  0  0  0  0
   46.5530   34.2520   43.3880 C   0  0  0  0  0  0  0  0  0  0  0  0
   47.1900   33.2290   44.1150 C   0  0  0  0  0  0  0  0  0  0  0  0
   46.7360   32.9510   45.3630 N   0  0  0  0  0  0  0  0  0  0  0  0
   45.7040   33.6220   45.9110 C   0  0  0  0  0  0  0  0  0  0  0  0
   45.0760   34.6070   45.2370 N   0  0  0  0  0  0  0  0  0  0  0  0
   46.8900   34.4980   42.3920 H   0  0  0  0  0  0  0  0  0  0  0  0
   48.0170   32.6960   43.6650 H   0  0  0  0  0  0  0  0  0  0  0  0
   44.8120   36.0080   43.2280 C   0  0  0  0  0  0  0  0  0  0  0  0
   43.7340   36.0880   43.4890 H   0  0  0  0  0  0  0  0  0  0  0  0
   44.9670   35.8480   42.1350 H   0  0  0  0  0  0  0  0  0  0  0  0
   45.3260   36.9470   43.5260 H   0  0  0  0  0  0  0  0  0  0  0  0
   47.2860   31.2440   47.5070 O   0  0  0  0  0  0  0  0  0  0  0  0
   48.4170   32.1670   49.9670 H   0  0  0  0  0  0  0  0  0  0  0  0
   48.6920   31.2280   49.6570 N   0  0  0  0  0  0  0  0  0  0  0  0
   48.1500   30.8160   48.5020 C   0  0  0  0  0  0  0  0  0  0  0  0
   48.6090   29.5770   48.2420 N   0  0  0  0  0  0  0  0  0  0  0  0
   49.4500   29.1530   49.2060 C   0  0  0  0  0  0  0  0  0  0  0  0
   50.2150   28.0530   49.5250 C   0  0  0  0  0  0  0  0  0  0  0  0
   50.9700   28.0020   50.6470 N   0  0  0  0  0  0  0  0  0  0  0  0
   50.9410   29.0900   51.4500 C   0  0  0  0  0  0  0  0  0  0  0  0
   51.5530   29.0120   52.3320 H   0  0  0  0  0  0  0  0  0  0  0  0
   50.2080   30.2100   51.1950 N   0  0  0  0  0  0  0  0  0  0  0  0
   49.4730   30.2160   50.0710 C   0  0  0  0  0  0  0  0  0  0  0  0
   50.1650   26.9680   48.6020 N   0  0  0  0  0  0  0  0  0  0  0  0
   49.4940   26.2580   48.2460 H   0  0  0  0  0  0  0  0  0  0  0  0
   51.1200   26.8880   48.1600 H   0  0  0  0  0  0  0  0  0  0  0  0
  2  1  2  1  0  0  0
  3  2  1  0  0  0  0
  4  3  1  0  0  0  0
  5  2  1  0  0  0  0
  6 11  1  0  0  0  0
  7  6  2  0  0  0  0
  7  8  1  0  0  0  0
  8  9  2  0  0  0  0
  9 10  1  0  0  0  0
 10  5  1  0  0  0  0
 11 10  2  0  0  0  0
 12  7  1  0  0  0  0
 13  8  1  0  0  0  0
 14 15  1  0  0  0  0
 14 17  1  0  0  0  0
 14  6  1  0  0  0  0
 16 14  1  0  0  0  0
 18  2  1  0  0  0  0
 18 21  1  0  0  0  0
 20 19  1  0  0  0  0
 20 29  1  0  0  0  0
 21 20  1  0  0  0  0
 22 21  2  0  0  0  0
 22 23  1  0  0  0  0
 23 24  2  0  0  0  0
 23 29  1  0  0  0  0
 24 25  1  0  0  0  0
 25 26  2  0  0  0  0
 26 27  1  0  0  0  0
 28 26  1  0  0  0  0
 29 28  2  0  0  0  0
 30 24  1  0  0  0  0
 31 30  1  0  0  0  0
 32 30  1  0  0  0  0
M  END
>  <minimizedAffinity>
-5.79067707

>  <minimizedRMSD>
0.287074

$$$$
