
 OpenBabel03252502563D

 42 45  0  0  0  0  0  0  0  0999 V2000
   45.7200   29.7770   44.7200 Br  0  0  0  0  0  0  0  0  0  0  0  0
   45.7010   30.4320   46.5440 C   0  0  0  0  0  0  0  0  0  0  0  0
   46.3190   31.6260   46.7390 C   0  0  0  0  0  0  0  0  0  0  0  0
   46.2900   32.0740   48.0660 C   0  0  0  0  0  0  0  0  0  0  0  0
   45.6920   31.3770   49.0860 C   0  0  0  0  0  0  0  0  0  0  0  0
   45.0880   30.1800   48.8030 C   0  0  0  0  0  0  0  0  0  0  0  0
   45.0850   29.6840   47.5150 C   0  0  0  0  0  0  0  0  0  0  0  0
   46.7500   33.0090   48.3360 H   0  0  0  0  0  0  0  0  0  0  0  0
   45.6930   31.7610   50.0960 H   0  0  0  0  0  0  0  0  0  0  0  0
   44.6030   29.5860   49.5620 H   0  0  0  0  0  0  0  0  0  0  0  0
   46.9920   32.4650   45.7440 C   0  0  0  0  0  0  0  0  0  0  0  0
   47.9700   32.7760   46.1260 H   0  0  0  0  0  0  0  0  0  0  0  0
   47.2160   31.7940   44.8690 H   0  0  0  0  0  0  0  0  0  0  0  0
   44.5410   35.2620   45.5300 C   0  0  0  0  0  0  0  0  0  0  0  0
   44.7240   35.7110   44.2240 C   0  0  0  0  0  0  0  0  0  0  0  0
   45.6780   35.0560   43.4360 C   0  0  0  0  0  0  0  0  0  0  0  0
   46.3680   34.0320   43.9720 N   0  0  0  0  0  0  0  0  0  0  0  0
   46.1780   33.6020   45.2520 C   0  0  0  0  0  0  0  0  0  0  0  0
   45.2540   34.2450   46.0000 N   0  0  0  0  0  0  0  0  0  0  0  0
   43.7980   35.7780   46.1300 H   0  0  0  0  0  0  0  0  0  0  0  0
   44.1690   36.5340   43.7910 H   0  0  0  0  0  0  0  0  0  0  0  0
   45.8950   35.3210   42.4250 H   0  0  0  0  0  0  0  0  0  0  0  0
   44.4700   28.4660   47.2400 O   0  0  0  0  0  0  0  0  0  0  0  0
   44.2350   25.8810   47.1910 O   0  0  0  0  0  0  0  0  0  0  0  0
   44.9150   27.0020   47.9530 P   0  0  2  0  0  0  0  0  0  0  0  0
   44.3960   27.0330   49.5520 O   0  0  0  0  0  0  0  0  0  0  0  0
   45.1140   27.3920   50.1170 H   0  0  0  0  0  0  0  0  0  0  0  0
   46.5880   26.7530   47.8600 O   0  0  0  0  0  0  0  0  0  0  0  0
   45.9850   24.0700   48.5650 H   0  0  0  0  0  0  0  0  0  0  0  0
   46.9260   24.4720   48.7650 N   0  0  0  0  0  0  0  0  0  0  0  0
   47.2770   25.7360   48.4570 C   0  0  0  0  0  0  0  0  0  0  0  0
   48.5530   25.9220   48.8520 N   0  0  0  0  0  0  0  0  0  0  0  0
   48.9590   24.7520   49.4000 C   0  0  0  0  0  0  0  0  0  0  0  0
   50.2130   24.4590   49.9510 C   0  0  0  0  0  0  0  0  0  0  0  0
   50.3800   23.2150   50.4400 N   0  0  0  0  0  0  0  0  0  0  0  0
   49.3680   22.3190   50.3840 C   0  0  0  0  0  0  0  0  0  0  0  0
   49.6330   21.3620   50.8090 H   0  0  0  0  0  0  0  0  0  0  0  0
   48.1520   22.6020   49.8500 N   0  0  0  0  0  0  0  0  0  0  0  0
   47.9440   23.8200   49.3560 C   0  0  0  0  0  0  0  0  0  0  0  0
   51.2320   25.4630   49.9740 N   0  0  0  0  0  0  0  0  0  0  0  0
   51.6380   25.9720   50.7970 H   0  0  0  0  0  0  0  0  0  0  0  0
   51.6800   25.7790   49.0790 H   0  0  0  0  0  0  0  0  0  0  0  0
  1  2  1  0  0  0  0
  2  3  2  0  0  0  0
  2  7  1  0  0  0  0
  3  4  1  0  0  0  0
  4  8  1  0  0  0  0
  4  5  2  0  0  0  0
  5  9  1  0  0  0  0
  6  5  1  0  0  0  0
  6 10  1  0  0  0  0
  7  6  2  0  0  0  0
 11 12  1  0  0  0  0
 11  3  1  0  0  0  0
 13 11  1  0  0  0  0
 14 19  1  0  0  0  0
 14 20  1  0  0  0  0
 15 14  2  0  0  0  0
 16 17  2  0  0  0  0
 16 15  1  0  0  0  0
 17 18  1  0  0  0  0
 18 11  1  0  0  0  0
 18 19  2  0  0  0  0
 21 15  1  0  0  0  0
 22 16  1  0  0  0  0
 23  7  1  0  0  0  0
 23 25  1  0  0  0  0
 25 24  2  6  0  0  0
 25 26  1  0  0  0  0
 26 27  1  0  0  0  0
 28 25  1  0  0  0  0
 28 31  1  0  0  0  0
 29 30  1  0  0  0  0
 30 39  1  0  0  0  0
 31 30  1  0  0  0  0
 31 32  2  0  0  0  0
 32 33  1  0  0  0  0
 33 34  1  0  0  0  0
 34 40  1  0  0  0  0
 34 35  2  0  0  0  0
 36 35  1  0  0  0  0
 36 37  1  0  0  0  0
 38 36  2  0  0  0  0
 39 33  2  0  0  0  0
 39 38  1  0  0  0  0
 40 41  1  0  0  0  0
 42 40  1  0  0  0  0
M  END
>  <minimizedAffinity>
-5.8686347

>  <minimizedRMSD>
0.741995275

$$$$
