REMARK  Name = 
REMARK  7 active torsions:
REMARK  status: ('A' for Active; 'I' for Inactive)
REMARK    1  A    between atoms: C_2  and  C_14
REMARK    2  A    between atoms: C_5  and  C_8
REMARK    3  A    between atoms: C_7  and  O_12
REMARK    4  A    between atoms: C_11  and  O_13
REMARK    5  A    between atoms: C_14  and  C_15
REMARK    6  A    between atoms: C_20  and  N_36
REMARK    7  A    between atoms: C_41  and  N_42
REMARK                            x       y       z     vdW  Elec       q    Type
REMARK                         _______ _______ _______ _____ _____    ______ ____
ROOT
ATOM      1  C   UNL     1      45.924  35.613  42.715  0.00  0.00    +0.000 C 
ATOM      2  H   UNL     1      46.930  35.598  42.250  0.00  0.00    +0.000 HD
ATOM      3  H   UNL     1      45.766  36.678  43.008  0.00  0.00    +0.000 HD
ENDROOT
BRANCH   1   4
ATOM      4  C   UNL     1      44.941  35.173  41.715  0.00  0.00    +0.000 A 
ATOM      5  C   UNL     1      43.670  35.680  41.578  0.00  0.00    +0.000 A 
ATOM      6  C   UNL     1      42.785  35.230  40.630  0.00  0.00    +0.000 A 
ATOM      7  C   UNL     1      43.181  34.231  39.779  0.00  0.00    +0.000 A 
ATOM      8  C   UNL     1      44.465  33.702  39.899  0.00  0.00    +0.000 A 
ATOM      9  C   UNL     1      45.356  34.169  40.868  0.00  0.00    +0.000 A 
ATOM     10  H   UNL     1      43.424  36.464  42.281  0.00  0.00    +0.000 HD
ATOM     11  H   UNL     1      41.806  35.696  40.604  0.00  0.00    +0.000 HD
ATOM     12  H   UNL     1      42.443  33.921  39.058  0.00  0.00    +0.000 HD
ATOM     13  H   UNL     1      44.620  32.921  39.152  0.00  0.00    +0.000 HD
BRANCH   9  14
ATOM     14  N   UNL     1      46.575  33.458  40.731  0.00  0.00    +0.000 N 
ATOM     15  C   UNL     1      47.064  32.493  41.532  0.00  0.00    +0.000 A 
ATOM     16  H   UNL     1      46.628  32.075  42.428  0.00  0.00    +0.000 HD
ATOM     17  N   UNL     1      48.239  32.071  41.074  0.00  0.00    +0.000 NA
ATOM     18  C   UNL     1      48.540  32.760  39.956  0.00  0.00    +0.000 A 
ATOM     19  C   UNL     1      49.571  32.778  39.068  0.00  0.00    +0.000 A 
ATOM     20  N   UNL     1      49.600  33.609  37.998  0.00  0.00    +0.000 NA
ATOM     21  C   UNL     1      48.562  34.467  37.794  0.00  0.00    +0.000 A 
ATOM     22  H   UNL     1      48.515  35.161  36.962  0.00  0.00    +0.000 HD
ATOM     23  N   UNL     1      47.539  34.464  38.657  0.00  0.00    +0.000 NA
ATOM     24  C   UNL     1      47.483  33.650  39.727  0.00  0.00    +0.000 A 
BRANCH  19  25
ATOM     25  N   UNL     1      50.628  31.861  39.330  0.00  0.00    +0.000 N 
ATOM     26  H   UNL     1      51.295  31.213  38.868  0.00  0.00    +0.000 HD
ATOM     27  H   UNL     1      50.942  31.688  40.302  0.00  0.00    +0.000 HD
ENDBRANCH  19  25
ENDBRANCH   9  14
ENDBRANCH   1   4
BRANCH   1  29
ATOM     28  C   UNL     1      45.002  34.904  44.902  0.00  0.00    +0.000 A 
ATOM     29  C   UNL     1      45.909  34.723  43.863  0.00  0.00    +0.000 A 
ATOM     30  C   UNL     1      46.796  33.653  43.975  0.00  0.00    +0.000 A 
ATOM     31  N   UNL     1      46.770  32.828  45.049  0.00  0.00    +0.000 NA
ATOM     32  C   UNL     1      45.873  33.038  46.038  0.00  0.00    +0.000 A 
ATOM     33  N   UNL     1      44.987  34.072  45.974  0.00  0.00    +0.000 NA
ATOM     34  H   UNL     1      44.303  35.706  44.868  0.00  0.00    +0.000 HD
ATOM     35  H   UNL     1      47.546  33.410  43.273  0.00  0.00    +0.000 HD
BRANCH  32  37
ATOM     36  C   UNL     1      47.327  31.836  47.658  0.00  0.00    +0.000 C 
ATOM     37  C   UNL     1      45.875  32.120  47.178  0.00  0.00    +0.000 C 
ATOM     38  O   UNL     1      45.361  32.606  48.331  0.00  0.00    +0.000 OA
ATOM     39  C   UNL     1      45.746  31.783  49.349  0.00  0.00    +0.000 C 
ATOM     40  C   UNL     1      46.959  30.998  48.890  0.00  0.00    +0.000 C 
ATOM     41  H   UNL     1      47.878  31.246  46.907  0.00  0.00    +0.000 HD
ATOM     42  H   UNL     1      45.405  31.133  46.938  0.00  0.00    +0.000 HD
ATOM     43  H   UNL     1      46.014  32.405  50.228  0.00  0.00    +0.000 HD
ATOM     44  H   UNL     1      44.891  31.095  49.585  0.00  0.00    +0.000 HD
ATOM     45  H   UNL     1      46.633  29.988  48.597  0.00  0.00    +0.000 HD
BRANCH  36  46
ATOM     46  O   UNL     1      47.904  32.969  48.100  0.00  0.00    +0.000 OA
ATOM     47  H   UNL     1      48.903  32.840  48.065  0.00  0.00    +0.000 HD
ENDBRANCH  36  46
BRANCH  40  48
ATOM     48  O   UNL     1      47.961  30.923  49.809  0.00  0.00    +0.000 OA
ATOM     49  H   UNL     1      48.743  31.500  49.605  0.00  0.00    +0.000 HD
ENDBRANCH  40  48
ENDBRANCH  32  37
ENDBRANCH   1  29
TORSDOF 7
