
 OpenBabel03252502563D

 42 45  0  0  0  0  0  0  0  0999 V2000
   45.5990   29.9640   44.8040 Br  0  0  0  0  0  0  0  0  0  0  0  0
   45.6570   30.6190   46.6270 C   0  0  0  0  0  0  0  0  0  0  0  0
   46.3380   31.7810   46.8050 C   0  0  0  0  0  0  0  0  0  0  0  0
   46.3640   32.2300   48.1330 C   0  0  0  0  0  0  0  0  0  0  0  0
   45.7570   31.5630   49.1680 C   0  0  0  0  0  0  0  0  0  0  0  0
   45.0900   30.3960   48.9010 C   0  0  0  0  0  0  0  0  0  0  0  0
   45.0290   29.9020   47.6140 C   0  0  0  0  0  0  0  0  0  0  0  0
   46.8750   33.1410   48.3900 H   0  0  0  0  0  0  0  0  0  0  0  0
   45.8020   31.9460   50.1770 H   0  0  0  0  0  0  0  0  0  0  0  0
   44.5940   29.8270   49.6720 H   0  0  0  0  0  0  0  0  0  0  0  0
   47.0260   32.5870   45.7930 C   0  0  0  0  0  0  0  0  0  0  0  0
   47.9880   32.9310   46.1880 H   0  0  0  0  0  0  0  0  0  0  0  0
   47.2850   31.8810   44.9560 H   0  0  0  0  0  0  0  0  0  0  0  0
   44.5340   35.3260   45.3840 C   0  0  0  0  0  0  0  0  0  0  0  0
   44.7530   35.7250   44.0670 C   0  0  0  0  0  0  0  0  0  0  0  0
   45.7450   35.0560   43.3390 C   0  0  0  0  0  0  0  0  0  0  0  0
   46.4350   34.0680   43.9390 N   0  0  0  0  0  0  0  0  0  0  0  0
   46.2090   33.6870   45.2290 C   0  0  0  0  0  0  0  0  0  0  0  0
   45.2490   34.3420   45.9190 N   0  0  0  0  0  0  0  0  0  0  0  0
   43.7630   35.8510   45.9380 H   0  0  0  0  0  0  0  0  0  0  0  0
   44.1990   36.5190   43.5830 H   0  0  0  0  0  0  0  0  0  0  0  0
   45.9910   35.2850   42.3250 H   0  0  0  0  0  0  0  0  0  0  0  0
   44.3490   28.7160   47.3550 O   0  0  0  0  0  0  0  0  0  0  0  0
   44.2100   26.1590   46.9240 O   0  0  0  0  0  0  0  0  0  0  0  0
   44.9230   27.1860   47.7820 P   0  0  2  0  0  0  0  0  0  0  0  0
   44.5750   26.9450   49.4090 O   0  0  0  0  0  0  0  0  0  0  0  0
   45.3340   27.2520   49.9500 H   0  0  0  0  0  0  0  0  0  0  0  0
   46.5850   27.0460   47.4870 O   0  0  0  0  0  0  0  0  0  0  0  0
   46.2980   24.9710   49.4040 H   0  0  0  0  0  0  0  0  0  0  0  0
   47.2430   25.2600   49.0720 N   0  0  0  0  0  0  0  0  0  0  0  0
   47.4500   26.2360   48.1660 C   0  0  0  0  0  0  0  0  0  0  0  0
   48.7780   26.3470   47.9700 N   0  0  0  0  0  0  0  0  0  0  0  0
   49.3650   25.4250   48.7710 C   0  0  0  0  0  0  0  0  0  0  0  0
   50.7320   25.1640   48.9130 C   0  0  0  0  0  0  0  0  0  0  0  0
   51.0740   24.1900   49.7780 N   0  0  0  0  0  0  0  0  0  0  0  0
   50.1170   23.5190   50.4610 C   0  0  0  0  0  0  0  0  0  0  0  0
   50.5250   22.7660   51.1200 H   0  0  0  0  0  0  0  0  0  0  0  0
   48.7900   23.7700   50.3250 N   0  0  0  0  0  0  0  0  0  0  0  0
   48.4090   24.7250   49.4780 C   0  0  0  0  0  0  0  0  0  0  0  0
   51.6820   25.9190   48.1550 N   0  0  0  0  0  0  0  0  0  0  0  0
   52.3780   26.6310   48.4910 H   0  0  0  0  0  0  0  0  0  0  0  0
   51.7480   25.7930   47.1150 H   0  0  0  0  0  0  0  0  0  0  0  0
  1  2  1  0  0  0  0
  2  3  2  0  0  0  0
  2  7  1  0  0  0  0
  3  4  1  0  0  0  0
  4  8  1  0  0  0  0
  4  5  2  0  0  0  0
  5  9  1  0  0  0  0
  6  5  1  0  0  0  0
  6 10  1  0  0  0  0
  7  6  2  0  0  0  0
 11 12  1  0  0  0  0
 11  3  1  0  0  0  0
 13 11  1  0  0  0  0
 14 19  1  0  0  0  0
 14 20  1  0  0  0  0
 15 14  2  0  0  0  0
 16 17  2  0  0  0  0
 16 15  1  0  0  0  0
 17 18  1  0  0  0  0
 18 11  1  0  0  0  0
 18 19  2  0  0  0  0
 21 15  1  0  0  0  0
 22 16  1  0  0  0  0
 23  7  1  0  0  0  0
 23 25  1  0  0  0  0
 25 24  2  6  0  0  0
 25 26  1  0  0  0  0
 26 27  1  0  0  0  0
 28 25  1  0  0  0  0
 28 31  1  0  0  0  0
 30 29  1  0  0  0  0
 30 39  1  0  0  0  0
 31 30  1  0  0  0  0
 32 31  2  0  0  0  0
 32 33  1  0  0  0  0
 33 34  2  0  0  0  0
 33 39  1  0  0  0  0
 34 35  1  0  0  0  0
 35 36  2  0  0  0  0
 36 37  1  0  0  0  0
 38 36  1  0  0  0  0
 39 38  2  0  0  0  0
 40 41  1  0  0  0  0
 40 34  1  0  0  0  0
 42 40  1  0  0  0  0
M  END
>  <minimizedAffinity>
-5.72234344

>  <minimizedRMSD>
0.372961253

$$$$
