
 OpenBabel03242521193D

 43 46  0  0  0  0  0  0  0  0999 V2000
   36.8230   27.3620   40.1250 C   0  0  0  0  0  0  0  0  0  0  0  0
   37.7290   27.2240   39.4870 H   0  0  0  0  0  0  0  0  0  0  0  0
   36.2130   26.4530   39.9580 H   0  0  0  0  0  0  0  0  0  0  0  0
   37.2060   27.8280   43.8180 C   0  0  0  0  0  0  0  0  0  0  0  0
   38.5390   27.3940   43.9800 C   0  0  0  0  0  0  0  0  0  0  0  0
   39.2110   26.9790   42.8400 C   0  0  0  0  0  0  0  0  0  0  0  0
   38.5470   27.0140   41.6470 N   0  0  0  0  0  0  0  0  0  0  0  0
   37.2820   27.4330   41.5410 C   0  0  0  0  0  0  0  0  0  0  0  0
   36.5890   27.8460   42.6220 N   0  0  0  0  0  0  0  0  0  0  0  0
   36.6430   28.1610   44.6800 H   0  0  0  0  0  0  0  0  0  0  0  0
   39.0260   27.3820   44.9390 H   0  0  0  0  0  0  0  0  0  0  0  0
   40.5560   26.5360   42.9750 N   0  0  0  0  0  0  0  0  0  0  0  0
   41.5310   27.4510   43.0850 C   0  0  0  0  0  0  0  0  0  0  0  0
   42.8430   27.0270   43.2180 C   0  0  0  0  0  0  0  0  0  0  0  0
   43.0820   25.6880   43.2280 C   0  0  0  0  0  0  0  0  0  0  0  0
   44.2980   25.3010   43.3510 O   0  0  0  0  0  0  0  0  0  0  0  0
   42.1340   24.7490   43.1200 N   0  0  0  0  0  0  0  0  0  0  0  0
   40.8660   25.2240   42.9930 C   0  0  0  0  0  0  0  0  0  0  0  0
   39.9030   24.4420   42.8850 O   0  0  0  0  0  0  0  0  0  0  0  0
   41.3520   28.5190   43.0790 H   0  0  0  0  0  0  0  0  0  0  0  0
   43.6800   27.7200   43.3110 H   0  0  0  0  0  0  0  0  0  0  0  0
   42.3100   23.7160   43.1280 H   0  0  0  0  0  0  0  0  0  0  0  0
   36.0970   28.6430   39.7410 C   0  0  0  0  0  0  0  0  0  0  0  0
   35.5540   28.4410   38.8180 H   0  0  0  0  0  0  0  0  0  0  0  0
   35.2970   28.8640   40.5080 H   0  0  0  0  0  0  0  0  0  0  0  0
   36.9060   30.8560   40.4220 C   0  0  0  0  0  0  0  0  0  0  0  0
   35.9160   30.8830   41.1850 O   0  0  0  0  0  0  0  0  0  0  0  0
   37.0580   29.7070   39.6390 N   0  0  0  0  0  0  0  0  0  0  0  0
   37.8600   29.6160   38.9820 H   0  0  0  0  0  0  0  0  0  0  0  0
   36.3770   33.6080   40.1020 H   0  0  0  0  0  0  0  0  0  0  0  0
   37.3710   33.2490   40.2200 N   0  0  0  0  0  0  0  0  0  0  0  0
   37.8270   31.9900   40.3840 C   0  0  0  0  0  0  0  0  0  0  0  0
   39.1520   32.0010   40.4910 N   0  0  0  0  0  0  0  0  0  0  0  0
   39.5170   33.3110   40.3890 C   0  0  0  0  0  0  0  0  0  0  0  0
   40.7380   33.9570   40.4240 C   0  0  0  0  0  0  0  0  0  0  0  0
   40.7720   35.3050   40.2920 N   0  0  0  0  0  0  0  0  0  0  0  0
   39.6760   36.0550   40.1260 C   0  0  0  0  0  0  0  0  0  0  0  0
   39.8220   37.1340   40.0300 H   0  0  0  0  0  0  0  0  0  0  0  0
   38.4910   35.4480   40.0900 N   0  0  0  0  0  0  0  0  0  0  0  0
   38.4010   34.1120   40.2170 C   0  0  0  0  0  0  0  0  0  0  0  0
   41.9470   33.2290   40.5960 N   0  0  0  0  0  0  0  0  0  0  0  0
   42.4220   33.2370   39.6570 H   0  0  0  0  0  0  0  0  0  0  0  0
   42.4480   32.7240   41.3640 H   0  0  0  0  0  0  0  0  0  0  0  0
  1  8  1  0  0  0  0
  2  1  1  0  0  0  0
  3  1  1  0  0  0  0
  4  5  1  0  0  0  0
  4 10  1  0  0  0  0
  5 11  1  0  0  0  0
  6 12  1  0  0  0  0
  6  5  2  0  0  0  0
  7  6  1  0  0  0  0
  8  7  2  0  0  0  0
  8  9  1  0  0  0  0
  9  4  2  0  0  0  0
 12 18  1  0  0  0  0
 12 13  1  0  0  0  0
 13 14  2  0  0  0  0
 14 15  1  0  0  0  0
 14 21  1  0  0  0  0
 15 16  2  0  0  0  0
 17 22  1  0  0  0  0
 17 15  1  0  0  0  0
 18 17  1  0  0  0  0
 19 18  2  0  0  0  0
 20 13  1  0  0  0  0
 23  1  1  0  0  0  0
 23 25  1  0  0  0  0
 24 23  1  0  0  0  0
 26 27  2  0  0  0  0
 28 23  1  0  0  0  0
 28 26  1  0  0  0  0
 29 28  1  0  0  0  0
 30 31  1  0  0  0  0
 31 32  1  0  0  0  0
 32 26  1  0  0  0  0
 32 33  2  0  0  0  0
 34 35  1  0  0  0  0
 34 33  1  0  0  0  0
 35 41  1  0  0  0  0
 36 35  2  0  0  0  0
 37 36  1  0  0  0  0
 38 37  1  0  0  0  0
 39 37  2  0  0  0  0
 39 40  1  0  0  0  0
 40 31  1  0  0  0  0
 40 34  2  0  0  0  0
 41 43  1  0  0  0  0
 42 41  1  0  0  0  0
M  END
>  <minimizedAffinity>
-7.154459

$$$$

 OpenBabel03242521193D

 43 46  0  0  0  0  0  0  0  0999 V2000
   37.4470   32.2430   39.0800 C   0  0  0  0  0  0  0  0  0  0  0  0
   36.9040   33.1660   38.7650 H   0  0  0  0  0  0  0  0  0  0  0  0
   36.9700   31.4210   38.5130 H   0  0  0  0  0  0  0  0  0  0  0  0
   40.7930   32.1840   37.4050 C   0  0  0  0  0  0  0  0  0  0  0  0
   41.5380   32.9550   38.3220 C   0  0  0  0  0  0  0  0  0  0  0  0
   40.8640   33.4380   39.4340 C   0  0  0  0  0  0  0  0  0  0  0  0
   39.5370   33.1400   39.5680 N   0  0  0  0  0  0  0  0  0  0  0  0
   38.8720   32.4040   38.6730 C   0  0  0  0  0  0  0  0  0  0  0  0
   39.4860   31.9130   37.5760 N   0  0  0  0  0  0  0  0  0  0  0  0
   41.2770   31.7860   36.5230 H   0  0  0  0  0  0  0  0  0  0  0  0
   42.5820   33.1680   38.1790 H   0  0  0  0  0  0  0  0  0  0  0  0
   41.5900   34.2190   40.3750 N   0  0  0  0  0  0  0  0  0  0  0  0
   42.5510   33.6300   41.1020 C   0  0  0  0  0  0  0  0  0  0  0  0
   43.2630   34.3850   42.0200 C   0  0  0  0  0  0  0  0  0  0  0  0
   42.9480   35.7030   42.1410 C   0  0  0  0  0  0  0  0  0  0  0  0
   43.6090   36.3970   42.9920 O   0  0  0  0  0  0  0  0  0  0  0  0
   41.9960   36.3220   41.4330 N   0  0  0  0  0  0  0  0  0  0  0  0
   41.3310   35.5310   40.5480 C   0  0  0  0  0  0  0  0  0  0  0  0
   40.4240   36.0000   39.8350 O   0  0  0  0  0  0  0  0  0  0  0  0
   42.8100   32.5830   41.0130 H   0  0  0  0  0  0  0  0  0  0  0  0
   44.0550   33.9650   42.6410 H   0  0  0  0  0  0  0  0  0  0  0  0
   41.7470   37.3360   41.5210 H   0  0  0  0  0  0  0  0  0  0  0  0
   37.3480   32.0610   40.5880 C   0  0  0  0  0  0  0  0  0  0  0  0
   38.0680   32.7410   41.0420 H   0  0  0  0  0  0  0  0  0  0  0  0
   36.3390   32.4240   40.9430 H   0  0  0  0  0  0  0  0  0  0  0  0
   38.5820   30.3180   41.7940 C   0  0  0  0  0  0  0  0  0  0  0  0
   39.2540   31.2560   42.2770 O   0  0  0  0  0  0  0  0  0  0  0  0
   37.5650   30.6750   40.9020 N   0  0  0  0  0  0  0  0  0  0  0  0
   36.9660   29.9460   40.4640 H   0  0  0  0  0  0  0  0  0  0  0  0
   37.3970   27.9080   40.9340 H   0  0  0  0  0  0  0  0  0  0  0  0
   38.1920   27.9090   41.6410 N   0  0  0  0  0  0  0  0  0  0  0  0
   38.8820   28.9390   42.1710 C   0  0  0  0  0  0  0  0  0  0  0  0
   39.7950   28.4790   43.0210 N   0  0  0  0  0  0  0  0  0  0  0  0
   39.6570   27.1230   43.0090 C   0  0  0  0  0  0  0  0  0  0  0  0
   40.3090   26.1010   43.6720 C   0  0  0  0  0  0  0  0  0  0  0  0
   39.9310   24.8200   43.4390 N   0  0  0  0  0  0  0  0  0  0  0  0
   38.9500   24.4860   42.5930 C   0  0  0  0  0  0  0  0  0  0  0  0
   38.7300   23.4210   42.4820 H   0  0  0  0  0  0  0  0  0  0  0  0
   38.3110   25.4590   41.9460 N   0  0  0  0  0  0  0  0  0  0  0  0
   38.6470   26.7470   42.1400 C   0  0  0  0  0  0  0  0  0  0  0  0
   41.3620   26.3760   44.5870 N   0  0  0  0  0  0  0  0  0  0  0  0
   40.9620   26.2000   45.5440 H   0  0  0  0  0  0  0  0  0  0  0  0
   42.3610   26.6840   44.5520 H   0  0  0  0  0  0  0  0  0  0  0  0
  1 23  1  0  0  0  0
  2  1  1  0  0  0  0
  3  1  1  0  0  0  0
  4  9  2  0  0  0  0
  4  5  1  0  0  0  0
  5  6  2  0  0  0  0
  6  7  1  0  0  0  0
  6 12  1  0  0  0  0
  8  1  1  0  0  0  0
  8  7  2  0  0  0  0
  9  8  1  0  0  0  0
 10  4  1  0  0  0  0
 11  5  1  0  0  0  0
 12 18  1  0  0  0  0
 12 13  1  0  0  0  0
 13 14  2  0  0  0  0
 14 15  1  0  0  0  0
 14 21  1  0  0  0  0
 15 16  2  0  0  0  0
 17 22  1  0  0  0  0
 17 15  1  0  0  0  0
 18 17  1  0  0  0  0
 19 18  2  0  0  0  0
 20 13  1  0  0  0  0
 23 28  1  0  0  0  0
 23 25  1  0  0  0  0
 23 24  1  0  0  0  0
 26 32  1  0  0  0  0
 26 27  2  0  0  0  0
 28 26  1  0  0  0  0
 29 28  1  0  0  0  0
 30 31  1  0  0  0  0
 31 40  1  0  0  0  0
 31 32  1  0  0  0  0
 32 33  2  0  0  0  0
 34 33  1  0  0  0  0
 34 35  1  0  0  0  0
 35 41  1  0  0  0  0
 36 35  2  0  0  0  0
 37 36  1  0  0  0  0
 38 37  1  0  0  0  0
 39 40  1  0  0  0  0
 39 37  2  0  0  0  0
 40 34  2  0  0  0  0
 41 42  1  0  0  0  0
 43 41  1  0  0  0  0
M  END
>  <minimizedAffinity>
-6.8540597

$$$$

 OpenBabel03242521193D

 43 46  0  0  0  0  0  0  0  0999 V2000
   36.8750   27.7890   43.1280 C   0  0  0  0  0  0  0  0  0  0  0  0
   36.0000   27.1660   43.4340 H   0  0  0  0  0  0  0  0  0  0  0  0
   37.0300   28.4990   43.9640 H   0  0  0  0  0  0  0  0  0  0  0  0
   39.2500   24.9720   42.4700 C   0  0  0  0  0  0  0  0  0  0  0  0
   40.4500   25.5550   42.9280 C   0  0  0  0  0  0  0  0  0  0  0  0
   40.3750   26.8480   43.4240 C   0  0  0  0  0  0  0  0  0  0  0  0
   39.1580   27.4690   43.4360 N   0  0  0  0  0  0  0  0  0  0  0  0
   38.0460   26.8770   42.9910 C   0  0  0  0  0  0  0  0  0  0  0  0
   38.0700   25.6200   42.5000 N   0  0  0  0  0  0  0  0  0  0  0  0
   39.2600   23.9650   42.0740 H   0  0  0  0  0  0  0  0  0  0  0  0
   41.3890   25.0310   42.9010 H   0  0  0  0  0  0  0  0  0  0  0  0
   41.5710   27.4600   43.8930 N   0  0  0  0  0  0  0  0  0  0  0  0
   42.1460   26.9880   45.0090 C   0  0  0  0  0  0  0  0  0  0  0  0
   43.3100   27.5790   45.4710 C   0  0  0  0  0  0  0  0  0  0  0  0
   43.8200   28.6220   44.7620 C   0  0  0  0  0  0  0  0  0  0  0  0
   44.8980   29.1650   45.1930 O   0  0  0  0  0  0  0  0  0  0  0  0
   43.2720   29.1170   43.6450 N   0  0  0  0  0  0  0  0  0  0  0  0
   42.1310   28.4980   43.2400 C   0  0  0  0  0  0  0  0  0  0  0  0
   41.5350   28.8750   42.2140 O   0  0  0  0  0  0  0  0  0  0  0  0
   41.7490   26.1590   45.5810 H   0  0  0  0  0  0  0  0  0  0  0  0
   43.8250   27.2420   46.3720 H   0  0  0  0  0  0  0  0  0  0  0  0
   43.6590   29.9200   43.0940 H   0  0  0  0  0  0  0  0  0  0  0  0
   36.5910   28.4840   41.8040 C   0  0  0  0  0  0  0  0  0  0  0  0
   36.6380   27.7230   41.0250 H   0  0  0  0  0  0  0  0  0  0  0  0
   35.5210   28.8460   41.7930 H   0  0  0  0  0  0  0  0  0  0  0  0
   37.1130   30.7530   41.0330 C   0  0  0  0  0  0  0  0  0  0  0  0
   35.9170   30.8090   40.6740 O   0  0  0  0  0  0  0  0  0  0  0  0
   37.5280   29.5600   41.6350 N   0  0  0  0  0  0  0  0  0  0  0  0
   38.5100   29.4450   41.9600 H   0  0  0  0  0  0  0  0  0  0  0  0
   36.4800   33.4300   40.4140 H   0  0  0  0  0  0  0  0  0  0  0  0
   37.4890   33.1150   40.5240 N   0  0  0  0  0  0  0  0  0  0  0  0
   37.9930   31.8990   40.8140 C   0  0  0  0  0  0  0  0  0  0  0  0
   39.3210   31.9590   40.8520 N   0  0  0  0  0  0  0  0  0  0  0  0
   39.6370   33.2560   40.5760 C   0  0  0  0  0  0  0  0  0  0  0  0
   40.8360   33.9340   40.4730 C   0  0  0  0  0  0  0  0  0  0  0  0
   40.8190   35.2580   40.1790 N   0  0  0  0  0  0  0  0  0  0  0  0
   39.6930   35.9520   39.9810 C   0  0  0  0  0  0  0  0  0  0  0  0
   39.7980   37.0140   39.7490 H   0  0  0  0  0  0  0  0  0  0  0  0
   38.5280   35.3130   40.0770 N   0  0  0  0  0  0  0  0  0  0  0  0
   38.4890   34.0000   40.3670 C   0  0  0  0  0  0  0  0  0  0  0  0
   42.0760   33.2660   40.6700 N   0  0  0  0  0  0  0  0  0  0  0  0
   42.5060   33.1740   39.7140 H   0  0  0  0  0  0  0  0  0  0  0  0
   42.6290   32.8710   41.4660 H   0  0  0  0  0  0  0  0  0  0  0  0
  1  2  1  0  0  0  0
  1  3  1  0  0  0  0
  4  9  2  0  0  0  0
  4  5  1  0  0  0  0
  5  6  2  0  0  0  0
  6  7  1  0  0  0  0
  6 12  1  0  0  0  0
  8  1  1  0  0  0  0
  8  7  2  0  0  0  0
  9  8  1  0  0  0  0
 10  4  1  0  0  0  0
 11  5  1  0  0  0  0
 12 13  1  0  0  0  0
 13 14  2  0  0  0  0
 13 20  1  0  0  0  0
 14 21  1  0  0  0  0
 15 16  2  0  0  0  0
 15 14  1  0  0  0  0
 17 15  1  0  0  0  0
 18 17  1  0  0  0  0
 18 12  1  0  0  0  0
 19 18  2  0  0  0  0
 22 17  1  0  0  0  0
 23  1  1  0  0  0  0
 24 23  1  0  0  0  0
 25 23  1  0  0  0  0
 26 28  1  0  0  0  0
 27 26  2  0  0  0  0
 28 23  1  0  0  0  0
 28 29  1  0  0  0  0
 30 31  1  0  0  0  0
 31 32  1  0  0  0  0
 32 33  2  0  0  0  0
 32 26  1  0  0  0  0
 34 33  1  0  0  0  0
 35 34  1  0  0  0  0
 35 41  1  0  0  0  0
 36 35  2  0  0  0  0
 37 39  2  0  0  0  0
 37 36  1  0  0  0  0
 38 37  1  0  0  0  0
 39 40  1  0  0  0  0
 40 31  1  0  0  0  0
 40 34  2  0  0  0  0
 41 43  1  0  0  0  0
 42 41  1  0  0  0  0
M  END
>  <minimizedAffinity>
-6.83791924

$$$$

 OpenBabel03242521193D

 43 46  0  0  0  0  0  0  0  0999 V2000
   37.3390   32.0600   39.1000 C   0  0  0  0  0  0  0  0  0  0  0  0
   36.7350   32.9360   38.7580 H   0  0  0  0  0  0  0  0  0  0  0  0
   36.8930   31.1860   38.5870 H   0  0  0  0  0  0  0  0  0  0  0  0
   40.6170   32.1520   37.2960 C   0  0  0  0  0  0  0  0  0  0  0  0
   41.3700   32.9300   38.2010 C   0  0  0  0  0  0  0  0  0  0  0  0
   40.7240   33.3650   39.3490 C   0  0  0  0  0  0  0  0  0  0  0  0
   39.4140   33.0180   39.5270 N   0  0  0  0  0  0  0  0  0  0  0  0
   38.7400   32.2790   38.6420 C   0  0  0  0  0  0  0  0  0  0  0  0
   39.3270   31.8330   37.5110 N   0  0  0  0  0  0  0  0  0  0  0  0
   41.0790   31.7910   36.3870 H   0  0  0  0  0  0  0  0  0  0  0  0
   42.4000   33.1810   38.0220 H   0  0  0  0  0  0  0  0  0  0  0  0
   41.4600   34.1520   40.2780 N   0  0  0  0  0  0  0  0  0  0  0  0
   42.3790   33.5520   41.0500 C   0  0  0  0  0  0  0  0  0  0  0  0
   43.0990   34.3110   41.9560 C   0  0  0  0  0  0  0  0  0  0  0  0
   42.8350   35.6440   42.0220 C   0  0  0  0  0  0  0  0  0  0  0  0
   43.5050   36.3430   42.8630 O   0  0  0  0  0  0  0  0  0  0  0  0
   41.9260   36.2740   41.2680 N   0  0  0  0  0  0  0  0  0  0  0  0
   41.2510   35.4780   40.3970 C   0  0  0  0  0  0  0  0  0  0  0  0
   40.3800   35.9560   39.6450 O   0  0  0  0  0  0  0  0  0  0  0  0
   42.5960   32.4920   41.0050 H   0  0  0  0  0  0  0  0  0  0  0  0
   43.8590   33.8830   42.6120 H   0  0  0  0  0  0  0  0  0  0  0  0
   41.7180   37.3000   41.3130 H   0  0  0  0  0  0  0  0  0  0  0  0
   37.2920   31.9470   40.6160 C   0  0  0  0  0  0  0  0  0  0  0  0
   37.7830   32.8320   41.0200 H   0  0  0  0  0  0  0  0  0  0  0  0
   36.2200   32.0250   40.9650 H   0  0  0  0  0  0  0  0  0  0  0  0
   37.0930   29.5970   41.2900 C   0  0  0  0  0  0  0  0  0  0  0  0
   35.8590   29.7630   41.1770 O   0  0  0  0  0  0  0  0  0  0  0  0
   37.9000   30.7050   41.0080 N   0  0  0  0  0  0  0  0  0  0  0  0
   38.9360   30.6370   41.0790 H   0  0  0  0  0  0  0  0  0  0  0  0
   39.2870   28.9690   42.9470 H   0  0  0  0  0  0  0  0  0  0  0  0
   38.6930   28.2050   42.5080 N   0  0  0  0  0  0  0  0  0  0  0  0
   37.6180   28.2960   41.6990 C   0  0  0  0  0  0  0  0  0  0  0  0
   37.1860   27.0790   41.3850 N   0  0  0  0  0  0  0  0  0  0  0  0
   38.0250   26.2150   42.0250 C   0  0  0  0  0  0  0  0  0  0  0  0
   38.0930   24.8370   42.0890 C   0  0  0  0  0  0  0  0  0  0  0  0
   39.0700   24.2610   42.8320 N   0  0  0  0  0  0  0  0  0  0  0  0
   39.9840   24.9610   43.5120 C   0  0  0  0  0  0  0  0  0  0  0  0
   40.7260   24.3920   44.0770 H   0  0  0  0  0  0  0  0  0  0  0  0
   39.9330   26.2900   43.4610 N   0  0  0  0  0  0  0  0  0  0  0  0
   38.9830   26.9130   42.7400 C   0  0  0  0  0  0  0  0  0  0  0  0
   37.1560   24.0240   41.3930 N   0  0  0  0  0  0  0  0  0  0  0  0
   37.6840   23.6110   40.5820 H   0  0  0  0  0  0  0  0  0  0  0  0
   36.1490   23.7520   41.4760 H   0  0  0  0  0  0  0  0  0  0  0  0
  1 23  1  0  0  0  0
  2  1  1  0  0  0  0
  3  1  1  0  0  0  0
  4  9  2  0  0  0  0
  4  5  1  0  0  0  0
  5  6  2  0  0  0  0
  6  7  1  0  0  0  0
  6 12  1  0  0  0  0
  8  1  1  0  0  0  0
  8  7  2  0  0  0  0
  9  8  1  0  0  0  0
 10  4  1  0  0  0  0
 11  5  1  0  0  0  0
 12 18  1  0  0  0  0
 12 13  1  0  0  0  0
 13 14  2  0  0  0  0
 14 15  1  0  0  0  0
 14 21  1  0  0  0  0
 15 16  2  0  0  0  0
 17 22  1  0  0  0  0
 17 15  1  0  0  0  0
 18 17  1  0  0  0  0
 19 18  2  0  0  0  0
 20 13  1  0  0  0  0
 23 25  1  0  0  0  0
 23 28  1  0  0  0  0
 23 24  1  0  0  0  0
 26 32  1  0  0  0  0
 27 26  2  0  0  0  0
 28 29  1  0  0  0  0
 28 26  1  0  0  0  0
 31 40  1  0  0  0  0
 31 30  1  0  0  0  0
 32 31  1  0  0  0  0
 33 32  2  0  0  0  0
 33 34  1  0  0  0  0
 34 35  2  0  0  0  0
 34 40  1  0  0  0  0
 35 36  1  0  0  0  0
 36 37  2  0  0  0  0
 37 38  1  0  0  0  0
 39 37  1  0  0  0  0
 40 39  2  0  0  0  0
 41 43  1  0  0  0  0
 41 35  1  0  0  0  0
 42 41  1  0  0  0  0
M  END
>  <minimizedAffinity>
-6.77034235

$$$$

 OpenBabel03242521193D

 43 46  0  0  0  0  0  0  0  0999 V2000
   36.9490   26.0530   40.5000 C   0  0  0  0  0  0  0  0  0  0  0  0
   35.9360   25.6060   40.6470 H   0  0  0  0  0  0  0  0  0  0  0  0
   36.8940   26.5750   39.5250 H   0  0  0  0  0  0  0  0  0  0  0  0
   37.3840   27.8350   43.7620 C   0  0  0  0  0  0  0  0  0  0  0  0
   37.6350   29.1420   43.2920 C   0  0  0  0  0  0  0  0  0  0  0  0
   37.6390   29.3290   41.9180 C   0  0  0  0  0  0  0  0  0  0  0  0
   37.4030   28.2490   41.1150 N   0  0  0  0  0  0  0  0  0  0  0  0
   37.1710   27.0270   41.6050 C   0  0  0  0  0  0  0  0  0  0  0  0
   37.1570   26.7970   42.9350 N   0  0  0  0  0  0  0  0  0  0  0  0
   37.3710   27.6420   44.8260 H   0  0  0  0  0  0  0  0  0  0  0  0
   37.8160   29.9660   43.9590 H   0  0  0  0  0  0  0  0  0  0  0  0
   37.8890   30.6370   41.4170 N   0  0  0  0  0  0  0  0  0  0  0  0
   39.1310   31.1360   41.5020 C   0  0  0  0  0  0  0  0  0  0  0  0
   39.3820   32.4090   41.0160 C   0  0  0  0  0  0  0  0  0  0  0  0
   38.3430   33.0990   40.4730 C   0  0  0  0  0  0  0  0  0  0  0  0
   38.5810   34.2770   40.0250 O   0  0  0  0  0  0  0  0  0  0  0  0
   37.0930   32.6320   40.3730 N   0  0  0  0  0  0  0  0  0  0  0  0
   36.9070   31.3780   40.8660 C   0  0  0  0  0  0  0  0  0  0  0  0
   35.7840   30.8410   40.8280 O   0  0  0  0  0  0  0  0  0  0  0  0
   39.9650   30.5960   41.9310 H   0  0  0  0  0  0  0  0  0  0  0  0
   40.3690   32.8710   41.0550 H   0  0  0  0  0  0  0  0  0  0  0  0
   36.2880   33.1580   39.9560 H   0  0  0  0  0  0  0  0  0  0  0  0
   38.0140   24.9670   40.5330 C   0  0  0  0  0  0  0  0  0  0  0  0
   37.5840   24.1110   41.0540 H   0  0  0  0  0  0  0  0  0  0  0  0
   38.2090   24.6000   39.4820 H   0  0  0  0  0  0  0  0  0  0  0  0
   39.7610   24.8420   42.2500 C   0  0  0  0  0  0  0  0  0  0  0  0
   39.1820   23.8030   42.6350 O   0  0  0  0  0  0  0  0  0  0  0  0
   39.1980   25.4980   41.1500 N   0  0  0  0  0  0  0  0  0  0  0  0
   39.6300   26.3670   40.7750 H   0  0  0  0  0  0  0  0  0  0  0  0
   40.0130   26.5640   44.4690 H   0  0  0  0  0  0  0  0  0  0  0  0
   40.8690   26.1410   44.0010 N   0  0  0  0  0  0  0  0  0  0  0  0
   40.9590   25.3070   42.9450 C   0  0  0  0  0  0  0  0  0  0  0  0
   42.2360   25.0300   42.6970 N   0  0  0  0  0  0  0  0  0  0  0  0
   42.9490   25.7180   43.6340 C   0  0  0  0  0  0  0  0  0  0  0  0
   44.3000   25.8350   43.8950 C   0  0  0  0  0  0  0  0  0  0  0  0
   44.7060   26.6150   44.9270 N   0  0  0  0  0  0  0  0  0  0  0  0
   43.8600   27.2880   45.7150 C   0  0  0  0  0  0  0  0  0  0  0  0
   44.2980   27.8880   46.5160 H   0  0  0  0  0  0  0  0  0  0  0  0
   42.5540   27.1870   45.4770 N   0  0  0  0  0  0  0  0  0  0  0  0
   42.0980   26.4250   44.4660 C   0  0  0  0  0  0  0  0  0  0  0  0
   45.2610   25.1490   43.1020 N   0  0  0  0  0  0  0  0  0  0  0  0
   45.7210   25.8880   42.5090 H   0  0  0  0  0  0  0  0  0  0  0  0
   45.6030   24.1700   42.9680 H   0  0  0  0  0  0  0  0  0  0  0  0
  1 23  1  0  0  0  0
  1  2  1  0  0  0  0
  1  8  1  0  0  0  0
  3  1  1  0  0  0  0
  4 10  1  0  0  0  0
  5  4  1  0  0  0  0
  5 11  1  0  0  0  0
  6  5  2  0  0  0  0
  7  8  2  0  0  0  0
  7  6  1  0  0  0  0
  8  9  1  0  0  0  0
  9  4  2  0  0  0  0
 12 13  1  0  0  0  0
 12  6  1  0  0  0  0
 13 20  1  0  0  0  0
 14 21  1  0  0  0  0
 14 13  2  0  0  0  0
 15 14  1  0  0  0  0
 16 15  2  0  0  0  0
 17 15  1  0  0  0  0
 17 18  1  0  0  0  0
 18 12  1  0  0  0  0
 19 18  2  0  0  0  0
 22 17  1  0  0  0  0
 23 24  1  0  0  0  0
 23 28  1  0  0  0  0
 25 23  1  0  0  0  0
 26 27  2  0  0  0  0
 26 32  1  0  0  0  0
 28 26  1  0  0  0  0
 29 28  1  0  0  0  0
 31 40  1  0  0  0  0
 31 30  1  0  0  0  0
 32 31  1  0  0  0  0
 33 32  2  0  0  0  0
 33 34  1  0  0  0  0
 34 35  2  0  0  0  0
 34 40  1  0  0  0  0
 35 36  1  0  0  0  0
 36 37  2  0  0  0  0
 37 38  1  0  0  0  0
 39 37  1  0  0  0  0
 40 39  2  0  0  0  0
 41 35  1  0  0  0  0
 42 41  1  0  0  0  0
 43 41  1  0  0  0  0
M  END
>  <minimizedAffinity>
-6.73385859

$$$$

 OpenBabel03242521193D

 43 46  0  0  0  0  0  0  0  0999 V2000
   40.5500   36.1670   39.8050 C   0  0  0  0  0  0  0  0  0  0  0  0
   41.0250   37.1580   40.0060 H   0  0  0  0  0  0  0  0  0  0  0  0
   40.3480   36.1610   38.7160 H   0  0  0  0  0  0  0  0  0  0  0  0
   43.1090   33.9570   41.4090 C   0  0  0  0  0  0  0  0  0  0  0  0
   43.2830   33.0040   40.3840 C   0  0  0  0  0  0  0  0  0  0  0  0
   42.5300   33.1720   39.2310 C   0  0  0  0  0  0  0  0  0  0  0  0
   41.6780   34.2370   39.1630 N   0  0  0  0  0  0  0  0  0  0  0  0
   41.5460   35.1170   40.1600 C   0  0  0  0  0  0  0  0  0  0  0  0
   42.2570   34.9940   41.3010 N   0  0  0  0  0  0  0  0  0  0  0  0
   43.6750   33.8670   42.3270 H   0  0  0  0  0  0  0  0  0  0  0  0
   43.9650   32.1780   40.4780 H   0  0  0  0  0  0  0  0  0  0  0  0
   42.6850   32.2240   38.1820 N   0  0  0  0  0  0  0  0  0  0  0  0
   41.8320   31.1910   38.1100 C   0  0  0  0  0  0  0  0  0  0  0  0
   41.9780   30.2650   37.0900 C   0  0  0  0  0  0  0  0  0  0  0  0
   42.9910   30.4490   36.2020 C   0  0  0  0  0  0  0  0  0  0  0  0
   43.1220   29.5890   35.2610 O   0  0  0  0  0  0  0  0  0  0  0  0
   43.8600   31.4670   36.2450 N   0  0  0  0  0  0  0  0  0  0  0  0
   43.6680   32.3440   37.2670 C   0  0  0  0  0  0  0  0  0  0  0  0
   44.4170   33.3300   37.4060 O   0  0  0  0  0  0  0  0  0  0  0  0
   41.0220   31.0360   38.8110 H   0  0  0  0  0  0  0  0  0  0  0  0
   41.3170   29.4040   36.9770 H   0  0  0  0  0  0  0  0  0  0  0  0
   44.6430   31.6150   35.5650 H   0  0  0  0  0  0  0  0  0  0  0  0
   39.2910   36.0060   40.6440 C   0  0  0  0  0  0  0  0  0  0  0  0
   39.4060   36.6420   41.5220 H   0  0  0  0  0  0  0  0  0  0  0  0
   38.4100   36.4370   40.0840 H   0  0  0  0  0  0  0  0  0  0  0  0
   38.1180   33.8820   40.2850 C   0  0  0  0  0  0  0  0  0  0  0  0
   37.4320   34.5070   39.4470 O   0  0  0  0  0  0  0  0  0  0  0  0
   39.1110   34.6120   40.9460 N   0  0  0  0  0  0  0  0  0  0  0  0
   39.7200   34.1540   41.6550 H   0  0  0  0  0  0  0  0  0  0  0  0
   35.6690   32.4890   40.4190 H   0  0  0  0  0  0  0  0  0  0  0  0
   36.5960   31.9860   40.5530 N   0  0  0  0  0  0  0  0  0  0  0  0
   37.8570   32.4650   40.5270 C   0  0  0  0  0  0  0  0  0  0  0  0
   38.7190   31.4770   40.7460 N   0  0  0  0  0  0  0  0  0  0  0  0
   37.9590   30.3570   40.9120 C   0  0  0  0  0  0  0  0  0  0  0  0
   38.2670   29.0350   41.1650 C   0  0  0  0  0  0  0  0  0  0  0  0
   37.2600   28.1340   41.2780 N   0  0  0  0  0  0  0  0  0  0  0  0
   35.9680   28.4590   41.1580 C   0  0  0  0  0  0  0  0  0  0  0  0
   35.2400   27.6520   41.2690 H   0  0  0  0  0  0  0  0  0  0  0  0
   35.6530   29.7300   40.9140 N   0  0  0  0  0  0  0  0  0  0  0  0
   36.6140   30.6630   40.7920 C   0  0  0  0  0  0  0  0  0  0  0  0
   39.6180   28.6110   41.3050 N   0  0  0  0  0  0  0  0  0  0  0  0
   39.7520   28.4210   42.3320 H   0  0  0  0  0  0  0  0  0  0  0  0
   40.4500   28.4520   40.6920 H   0  0  0  0  0  0  0  0  0  0  0  0
  1  2  1  0  0  0  0
  1  8  1  0  0  0  0
  1 23  1  0  0  0  0
  3  1  1  0  0  0  0
  4 10  1  0  0  0  0
  5 11  1  0  0  0  0
  5  4  2  0  0  0  0
  6  5  1  0  0  0  0
  7  6  2  0  0  0  0
  7  8  1  0  0  0  0
  8  9  2  0  0  0  0
  9  4  1  0  0  0  0
 12  6  1  0  0  0  0
 13 12  1  0  0  0  0
 13 20  1  0  0  0  0
 14 13  2  0  0  0  0
 15 17  1  0  0  0  0
 15 14  1  0  0  0  0
 16 15  2  0  0  0  0
 17 18  1  0  0  0  0
 18 19  2  0  0  0  0
 18 12  1  0  0  0  0
 21 14  1  0  0  0  0
 22 17  1  0  0  0  0
 23 28  1  0  0  0  0
 23 24  1  0  0  0  0
 25 23  1  0  0  0  0
 26 32  1  0  0  0  0
 26 28  1  0  0  0  0
 27 26  2  0  0  0  0
 28 29  1  0  0  0  0
 30 31  1  0  0  0  0
 31 40  1  0  0  0  0
 32 31  1  0  0  0  0
 32 33  2  0  0  0  0
 33 34  1  0  0  0  0
 34 35  1  0  0  0  0
 35 36  2  0  0  0  0
 35 41  1  0  0  0  0
 37 38  1  0  0  0  0
 37 36  1  0  0  0  0
 39 37  2  0  0  0  0
 40 34  2  0  0  0  0
 40 39  1  0  0  0  0
 41 42  1  0  0  0  0
 43 41  1  0  0  0  0
M  END
>  <minimizedAffinity>
-6.65594435

$$$$

 OpenBabel03242521193D

 43 46  0  0  0  0  0  0  0  0999 V2000
   37.4200   29.5870   36.9870 C   0  0  0  0  0  0  0  0  0  0  0  0
   37.7850   29.3140   35.9670 H   0  0  0  0  0  0  0  0  0  0  0  0
   36.4520   29.0620   37.0970 H   0  0  0  0  0  0  0  0  0  0  0  0
   40.4260   28.2840   38.7950 C   0  0  0  0  0  0  0  0  0  0  0  0
   39.8870   28.1430   40.0920 C   0  0  0  0  0  0  0  0  0  0  0  0
   38.5560   28.4950   40.2640 C   0  0  0  0  0  0  0  0  0  0  0  0
   37.8610   28.9510   39.1800 N   0  0  0  0  0  0  0  0  0  0  0  0
   38.4140   29.0680   37.9690 C   0  0  0  0  0  0  0  0  0  0  0  0
   39.7040   28.7380   37.7540 N   0  0  0  0  0  0  0  0  0  0  0  0
   41.4600   28.0210   38.6140 H   0  0  0  0  0  0  0  0  0  0  0  0
   40.4700   27.7800   40.9190 H   0  0  0  0  0  0  0  0  0  0  0  0
   37.9880   28.3630   41.5610 N   0  0  0  0  0  0  0  0  0  0  0  0
   37.3830   27.2120   41.8900 C   0  0  0  0  0  0  0  0  0  0  0  0
   36.8270   27.0770   43.1510 C   0  0  0  0  0  0  0  0  0  0  0  0
   36.9220   28.1310   44.0050 C   0  0  0  0  0  0  0  0  0  0  0  0
   36.4060   28.0010   45.1710 O   0  0  0  0  0  0  0  0  0  0  0  0
   37.5180   29.2930   43.7100 N   0  0  0  0  0  0  0  0  0  0  0  0
   38.0440   29.3670   42.4580 C   0  0  0  0  0  0  0  0  0  0  0  0
   38.6220   30.4020   42.0730 O   0  0  0  0  0  0  0  0  0  0  0  0
   37.3020   26.3660   41.2180 H   0  0  0  0  0  0  0  0  0  0  0  0
   36.3220   26.1670   43.4790 H   0  0  0  0  0  0  0  0  0  0  0  0
   37.5940   30.1090   44.3620 H   0  0  0  0  0  0  0  0  0  0  0  0
   37.2940   31.0980   37.1150 C   0  0  0  0  0  0  0  0  0  0  0  0
   37.1130   31.4920   36.1140 H   0  0  0  0  0  0  0  0  0  0  0  0
   36.3590   31.3480   37.6990 H   0  0  0  0  0  0  0  0  0  0  0  0
   38.3680   32.4000   38.8940 C   0  0  0  0  0  0  0  0  0  0  0  0
   37.2090   32.6110   39.3150 O   0  0  0  0  0  0  0  0  0  0  0  0
   38.4790   31.6110   37.7440 N   0  0  0  0  0  0  0  0  0  0  0  0
   39.4140   31.3940   37.3410 H   0  0  0  0  0  0  0  0  0  0  0  0
   40.4760   31.1140   40.2570 H   0  0  0  0  0  0  0  0  0  0  0  0
   40.4250   32.1740   40.1970 N   0  0  0  0  0  0  0  0  0  0  0  0
   39.5130   32.9690   39.6010 C   0  0  0  0  0  0  0  0  0  0  0  0
   39.8440   34.2450   39.7770 N   0  0  0  0  0  0  0  0  0  0  0  0
   40.9960   34.2280   40.5050 C   0  0  0  0  0  0  0  0  0  0  0  0
   41.8180   35.2240   40.9970 C   0  0  0  0  0  0  0  0  0  0  0  0
   42.9220   34.8760   41.7020 N   0  0  0  0  0  0  0  0  0  0  0  0
   43.2660   33.6080   41.9510 C   0  0  0  0  0  0  0  0  0  0  0  0
   44.1770   33.4440   42.5300 H   0  0  0  0  0  0  0  0  0  0  0  0
   42.4850   32.6350   41.4840 N   0  0  0  0  0  0  0  0  0  0  0  0
   41.3770   32.9250   40.7780 C   0  0  0  0  0  0  0  0  0  0  0  0
   41.5200   36.5960   40.7730 N   0  0  0  0  0  0  0  0  0  0  0  0
   41.1850   36.9700   41.6980 H   0  0  0  0  0  0  0  0  0  0  0  0
   41.5470   37.2790   39.9800 H   0  0  0  0  0  0  0  0  0  0  0  0
  1  3  1  0  0  0  0
  1 23  1  0  0  0  0
  1  8  1  0  0  0  0
  2  1  1  0  0  0  0
  4  5  1  0  0  0  0
  5  6  2  0  0  0  0
  5 11  1  0  0  0  0
  6 12  1  0  0  0  0
  7  6  1  0  0  0  0
  8  7  2  0  0  0  0
  9  8  1  0  0  0  0
  9  4  2  0  0  0  0
 10  4  1  0  0  0  0
 12 13  1  0  0  0  0
 12 18  1  0  0  0  0
 13 14  2  0  0  0  0
 14 21  1  0  0  0  0
 14 15  1  0  0  0  0
 15 16  2  0  0  0  0
 17 15  1  0  0  0  0
 17 22  1  0  0  0  0
 18 17  1  0  0  0  0
 19 18  2  0  0  0  0
 20 13  1  0  0  0  0
 23 25  1  0  0  0  0
 23 28  1  0  0  0  0
 24 23  1  0  0  0  0
 26 27  2  0  0  0  0
 26 32  1  0  0  0  0
 28 26  1  0  0  0  0
 29 28  1  0  0  0  0
 31 30  1  0  0  0  0
 31 40  1  0  0  0  0
 32 33  2  0  0  0  0
 32 31  1  0  0  0  0
 33 34  1  0  0  0  0
 34 40  2  0  0  0  0
 34 35  1  0  0  0  0
 35 36  2  0  0  0  0
 36 37  1  0  0  0  0
 37 38  1  0  0  0  0
 39 37  2  0  0  0  0
 40 39  1  0  0  0  0
 41 35  1  0  0  0  0
 41 42  1  0  0  0  0
 43 41  1  0  0  0  0
M  END
>  <minimizedAffinity>
-6.6310277

$$$$

 OpenBabel03242521193D

 43 46  0  0  0  0  0  0  0  0999 V2000
   40.7070   36.2120   39.8000 C   0  0  0  0  0  0  0  0  0  0  0  0
   41.1070   37.1320   40.2900 H   0  0  0  0  0  0  0  0  0  0  0  0
   40.7680   36.4150   38.7130 H   0  0  0  0  0  0  0  0  0  0  0  0
   43.0070   33.7760   41.4690 C   0  0  0  0  0  0  0  0  0  0  0  0
   43.1720   32.8440   40.4230 C   0  0  0  0  0  0  0  0  0  0  0  0
   42.5020   33.1000   39.2360 C   0  0  0  0  0  0  0  0  0  0  0  0
   41.7320   34.2260   39.1570 N   0  0  0  0  0  0  0  0  0  0  0  0
   41.6040   35.0820   40.1740 C   0  0  0  0  0  0  0  0  0  0  0  0
   42.2370   34.8740   41.3480 N   0  0  0  0  0  0  0  0  0  0  0  0
   43.5100   33.6170   42.4130 H   0  0  0  0  0  0  0  0  0  0  0  0
   43.7880   31.9680   40.5270 H   0  0  0  0  0  0  0  0  0  0  0  0
   42.6510   32.1760   38.1650 N   0  0  0  0  0  0  0  0  0  0  0  0
   43.8300   32.1060   37.5290 C   0  0  0  0  0  0  0  0  0  0  0  0
   43.9830   31.2080   36.4860 C   0  0  0  0  0  0  0  0  0  0  0  0
   42.9160   30.4320   36.1520 C   0  0  0  0  0  0  0  0  0  0  0  0
   43.0620   29.6030   35.1860 O   0  0  0  0  0  0  0  0  0  0  0  0
   41.7270   30.4770   36.7650 N   0  0  0  0  0  0  0  0  0  0  0  0
   41.6360   31.3760   37.7800 C   0  0  0  0  0  0  0  0  0  0  0  0
   40.5760   31.5050   38.4220 O   0  0  0  0  0  0  0  0  0  0  0  0
   44.6850   32.7170   37.7870 H   0  0  0  0  0  0  0  0  0  0  0  0
   44.9150   31.1030   35.9300 H   0  0  0  0  0  0  0  0  0  0  0  0
   40.9010   29.8830   36.5130 H   0  0  0  0  0  0  0  0  0  0  0  0
   39.2870   35.9370   40.2730 C   0  0  0  0  0  0  0  0  0  0  0  0
   39.0590   36.6690   41.0480 H   0  0  0  0  0  0  0  0  0  0  0  0
   38.5630   36.1630   39.4370 H   0  0  0  0  0  0  0  0  0  0  0  0
   38.1620   33.7580   40.2430 C   0  0  0  0  0  0  0  0  0  0  0  0
   37.3530   34.2880   39.4500 O   0  0  0  0  0  0  0  0  0  0  0  0
   39.2010   34.5700   40.7100 N   0  0  0  0  0  0  0  0  0  0  0  0
   39.9110   34.1930   41.3700 H   0  0  0  0  0  0  0  0  0  0  0  0
   40.0550   31.8930   41.1850 H   0  0  0  0  0  0  0  0  0  0  0  0
   39.0340   31.6260   41.0630 N   0  0  0  0  0  0  0  0  0  0  0  0
   37.9880   32.3600   40.6320 C   0  0  0  0  0  0  0  0  0  0  0  0
   36.8850   31.6190   40.6370 N   0  0  0  0  0  0  0  0  0  0  0  0
   37.2690   30.3910   41.0850 C   0  0  0  0  0  0  0  0  0  0  0  0
   36.5880   29.2100   41.3070 C   0  0  0  0  0  0  0  0  0  0  0  0
   37.2700   28.1340   41.7690 N   0  0  0  0  0  0  0  0  0  0  0  0
   38.5830   28.1510   42.0250 C   0  0  0  0  0  0  0  0  0  0  0  0
   39.0300   27.2250   42.3950 H   0  0  0  0  0  0  0  0  0  0  0  0
   39.2550   29.2820   41.8170 N   0  0  0  0  0  0  0  0  0  0  0  0
   38.6260   30.3790   41.3600 C   0  0  0  0  0  0  0  0  0  0  0  0
   35.1910   29.1120   41.0580 N   0  0  0  0  0  0  0  0  0  0  0  0
   35.0960   28.5350   40.1840 H   0  0  0  0  0  0  0  0  0  0  0  0
   34.2990   29.4440   41.4930 H   0  0  0  0  0  0  0  0  0  0  0  0
  1  8  1  0  0  0  0
  1 23  1  0  0  0  0
  1  2  1  0  0  0  0
  3  1  1  0  0  0  0
  4 10  1  0  0  0  0
  5 11  1  0  0  0  0
  5  4  2  0  0  0  0
  6  5  1  0  0  0  0
  7  6  2  0  0  0  0
  7  8  1  0  0  0  0
  8  9  2  0  0  0  0
  9  4  1  0  0  0  0
 12  6  1  0  0  0  0
 13 20  1  0  0  0  0
 13 12  1  0  0  0  0
 14 13  2  0  0  0  0
 15 14  1  0  0  0  0
 15 17  1  0  0  0  0
 16 15  2  0  0  0  0
 17 18  1  0  0  0  0
 18 12  1  0  0  0  0
 18 19  2  0  0  0  0
 21 14  1  0  0  0  0
 22 17  1  0  0  0  0
 23 28  1  0  0  0  0
 23 24  1  0  0  0  0
 25 23  1  0  0  0  0
 26 32  1  0  0  0  0
 26 28  1  0  0  0  0
 27 26  2  0  0  0  0
 28 29  1  0  0  0  0
 31 30  1  0  0  0  0
 31 40  1  0  0  0  0
 32 33  2  0  0  0  0
 32 31  1  0  0  0  0
 33 34  1  0  0  0  0
 34 35  2  0  0  0  0
 34 40  1  0  0  0  0
 35 36  1  0  0  0  0
 36 37  2  0  0  0  0
 37 38  1  0  0  0  0
 39 37  1  0  0  0  0
 40 39  2  0  0  0  0
 41 35  1  0  0  0  0
 41 43  1  0  0  0  0
 42 41  1  0  0  0  0
M  END
>  <minimizedAffinity>
-6.57937813

$$$$

 OpenBabel03242521193D

 43 46  0  0  0  0  0  0  0  0999 V2000
   37.7220   31.6520   37.5060 C   0  0  0  0  0  0  0  0  0  0  0  0
   38.3320   31.9590   36.6220 H   0  0  0  0  0  0  0  0  0  0  0  0
   36.6850   31.5690   37.1250 H   0  0  0  0  0  0  0  0  0  0  0  0
   39.2950   28.2750   37.8610 C   0  0  0  0  0  0  0  0  0  0  0  0
   38.9400   27.9810   39.1950 C   0  0  0  0  0  0  0  0  0  0  0  0
   38.1990   28.9360   39.8760 C   0  0  0  0  0  0  0  0  0  0  0  0
   37.8660   30.0870   39.2200 N   0  0  0  0  0  0  0  0  0  0  0  0
   38.2240   30.3230   37.9550 C   0  0  0  0  0  0  0  0  0  0  0  0
   38.9450   29.4240   37.2530 N   0  0  0  0  0  0  0  0  0  0  0  0
   39.8720   27.5600   37.2910 H   0  0  0  0  0  0  0  0  0  0  0  0
   39.2230   27.0620   39.6750 H   0  0  0  0  0  0  0  0  0  0  0  0
   37.8280   28.6650   41.2230 N   0  0  0  0  0  0  0  0  0  0  0  0
   38.7590   28.7600   42.1830 C   0  0  0  0  0  0  0  0  0  0  0  0
   38.4050   28.4980   43.4960 C   0  0  0  0  0  0  0  0  0  0  0  0
   37.1140   28.1520   43.7500 C   0  0  0  0  0  0  0  0  0  0  0  0
   36.7910   27.9110   44.9670 O   0  0  0  0  0  0  0  0  0  0  0  0
   36.1610   28.0480   42.8170 N   0  0  0  0  0  0  0  0  0  0  0  0
   36.5670   28.3170   41.5470 C   0  0  0  0  0  0  0  0  0  0  0  0
   35.7650   28.2500   40.5960 O   0  0  0  0  0  0  0  0  0  0  0  0
   39.7890   29.0350   41.9920 H   0  0  0  0  0  0  0  0  0  0  0  0
   39.1150   28.5580   44.3220 H   0  0  0  0  0  0  0  0  0  0  0  0
   35.1650   27.7820   43.0050 H   0  0  0  0  0  0  0  0  0  0  0  0
   37.8630   32.6740   38.6240 C   0  0  0  0  0  0  0  0  0  0  0  0
   37.2680   33.5430   38.3430 H   0  0  0  0  0  0  0  0  0  0  0  0
   37.3720   32.2760   39.5610 H   0  0  0  0  0  0  0  0  0  0  0  0
   39.6880   33.5230   40.0260 C   0  0  0  0  0  0  0  0  0  0  0  0
   38.8040   33.7530   40.8800 O   0  0  0  0  0  0  0  0  0  0  0  0
   39.2590   32.9550   38.8220 N   0  0  0  0  0  0  0  0  0  0  0  0
   39.9410   32.7350   38.0680 H   0  0  0  0  0  0  0  0  0  0  0  0
   40.7850   35.1320   42.0660 H   0  0  0  0  0  0  0  0  0  0  0  0
   41.4070   34.6470   41.3530 N   0  0  0  0  0  0  0  0  0  0  0  0
   41.0830   33.8480   40.3170 C   0  0  0  0  0  0  0  0  0  0  0  0
   42.1860   33.4610   39.6840 N   0  0  0  0  0  0  0  0  0  0  0  0
   43.2180   34.0440   40.3570 C   0  0  0  0  0  0  0  0  0  0  0  0
   44.5890   34.0230   40.1860 C   0  0  0  0  0  0  0  0  0  0  0  0
   45.3690   34.7240   41.0450 N   0  0  0  0  0  0  0  0  0  0  0  0
   44.8800   35.4450   42.0600 C   0  0  0  0  0  0  0  0  0  0  0  0
   45.6020   35.9710   42.6890 H   0  0  0  0  0  0  0  0  0  0  0  0
   43.5610   35.4760   42.2390 N   0  0  0  0  0  0  0  0  0  0  0  0
   42.7410   34.7970   41.4160 C   0  0  0  0  0  0  0  0  0  0  0  0
   45.1840   33.2790   39.1300 N   0  0  0  0  0  0  0  0  0  0  0  0
   45.5110   33.9920   38.4280 H   0  0  0  0  0  0  0  0  0  0  0  0
   45.3670   32.2770   38.8920 H   0  0  0  0  0  0  0  0  0  0  0  0
  1  8  1  0  0  0  0
  1 23  1  0  0  0  0
  2  1  1  0  0  0  0
  3  1  1  0  0  0  0
  4  5  1  0  0  0  0
  5 11  1  0  0  0  0
  5  6  2  0  0  0  0
  6 12  1  0  0  0  0
  7  6  1  0  0  0  0
  8  7  2  0  0  0  0
  9  4  2  0  0  0  0
  9  8  1  0  0  0  0
 10  4  1  0  0  0  0
 12 18  1  0  0  0  0
 12 13  1  0  0  0  0
 13 14  2  0  0  0  0
 14 15  1  0  0  0  0
 14 21  1  0  0  0  0
 15 16  2  0  0  0  0
 17 22  1  0  0  0  0
 17 15  1  0  0  0  0
 18 17  1  0  0  0  0
 19 18  2  0  0  0  0
 20 13  1  0  0  0  0
 23 28  1  0  0  0  0
 23 25  1  0  0  0  0
 24 23  1  0  0  0  0
 26 32  1  0  0  0  0
 26 27  2  0  0  0  0
 28 26  1  0  0  0  0
 29 28  1  0  0  0  0
 31 40  1  0  0  0  0
 31 30  1  0  0  0  0
 32 31  1  0  0  0  0
 33 32  2  0  0  0  0
 33 34  1  0  0  0  0
 34 40  1  0  0  0  0
 35 34  2  0  0  0  0
 35 36  1  0  0  0  0
 36 37  2  0  0  0  0
 37 39  1  0  0  0  0
 37 38  1  0  0  0  0
 40 39  2  0  0  0  0
 41 35  1  0  0  0  0
 42 41  1  0  0  0  0
 43 41  1  0  0  0  0
M  END
>  <minimizedAffinity>
-6.4753418

$$$$
