REMARK  Name = 
REMARK  4 active torsions:
REMARK  status: ('A' for Active; 'I' for Inactive)
REMARK    1  A    between atoms: C_5  and  C_7
REMARK    2  A    between atoms: C_7  and  S_8
REMARK    3  A    between atoms: S_8  and  C_16
REMARK    4  A    between atoms: C_19  and  N_20
REMARK                            x       y       z     vdW  Elec       q    Type
REMARK                         _______ _______ _______ _____ _____    ______ ____
ROOT
ATOM      1  H   UNL     1      45.746  28.657  46.210  0.00  0.00    +0.000 HD
ATOM      2  N   UNL     1      46.438  29.062  46.882  0.00  0.00    +0.000 N 
ATOM      3  C   UNL     1      46.884  30.324  46.773  0.00  0.00    +0.000 A 
ATOM      4  N   UNL     1      47.751  30.518  47.785  0.00  0.00    +0.000 NA
ATOM      5  C   UNL     1      47.832  29.398  48.497  0.00  0.00    +0.000 A 
ATOM      6  C   UNL     1      48.566  29.076  49.617  0.00  0.00    +0.000 A 
ATOM      7  N   UNL     1      48.457  27.837  50.150  0.00  0.00    +0.000 NA
ATOM      8  C   UNL     1      47.622  26.933  49.563  0.00  0.00    +0.000 A 
ATOM      9  H   UNL     1      47.625  25.983  50.082  0.00  0.00    +0.000 HD
ATOM     10  N   UNL     1      46.903  27.235  48.472  0.00  0.00    +0.000 NA
ATOM     11  C   UNL     1      46.999  28.453  47.936  0.00  0.00    +0.000 A 
ENDROOT
BRANCH   6  12
ATOM     12  N   UNL     1      49.413  30.075  50.168  0.00  0.00    +0.000 N 
ATOM     13  H   UNL     1      49.108  31.090  50.209  0.00  0.00    +0.000 HD
ATOM     14  H   UNL     1      50.356  30.132  50.598  0.00  0.00    +0.000 HD
ENDBRANCH   6  12
BRANCH   3  15
ATOM     15  S   UNL     1      46.533  31.624  45.616  0.00  0.00    +0.000 S 
BRANCH  15  16
ATOM     16  C   UNL     1      45.838  33.090  46.428  0.00  0.00    +0.000 C 
ATOM     17  H   UNL     1      44.941  32.844  47.019  0.00  0.00    +0.000 HD
ATOM     18  H   UNL     1      46.592  33.575  47.115  0.00  0.00    +0.000 HD
BRANCH  16  23
ATOM     19  C   UNL     1      44.533  36.001  44.521  0.00  0.00    +0.000 A 
ATOM     20  C   UNL     1      45.213  35.891  43.321  0.00  0.00    +0.000 A 
ATOM     21  C   UNL     1      46.098  34.831  43.187  0.00  0.00    +0.000 A 
ATOM     22  N   UNL     1      46.278  33.946  44.204  0.00  0.00    +0.000 NA
ATOM     23  C   UNL     1      45.594  34.087  45.365  0.00  0.00    +0.000 A 
ATOM     24  N   UNL     1      44.736  35.110  45.503  0.00  0.00    +0.000 NA
ATOM     25  H   UNL     1      43.859  36.845  44.568  0.00  0.00    +0.000 HD
ATOM     26  H   UNL     1      45.162  36.520  42.442  0.00  0.00    +0.000 HD
ATOM     27  H   UNL     1      46.700  34.620  42.300  0.00  0.00    +0.000 HD
ENDBRANCH  16  23
ENDBRANCH  15  16
ENDBRANCH   3  15
TORSDOF 4
