
 OpenBabel03252503593D

 39 43  0  0  0  0  0  0  0  0999 V2000
   46.9430   35.0060   42.6620 C   0  0  0  0  0  0  0  0  0  0  0  0
   45.9700   36.0060   42.5470 C   0  0  0  0  0  0  0  0  0  0  0  0
   44.9170   35.9950   43.4600 C   0  0  0  0  0  0  0  0  0  0  0  0
   44.8960   35.0230   44.4010 N   0  0  0  0  0  0  0  0  0  0  0  0
   45.8520   34.0770   44.4800 C   0  0  0  0  0  0  0  0  0  0  0  0
   46.8800   34.0590   43.6140 N   0  0  0  0  0  0  0  0  0  0  0  0
   46.0120   36.7750   41.7800 H   0  0  0  0  0  0  0  0  0  0  0  0
   44.1520   36.7640   43.3880 H   0  0  0  0  0  0  0  0  0  0  0  0
   46.0800   31.7230   45.1110 C   0  0  0  0  0  0  0  0  0  0  0  0
   45.8100   33.0290   45.5110 C   0  0  0  0  0  0  0  0  0  0  0  0
   45.5190   33.2890   46.8300 C   0  0  0  0  0  0  0  0  0  0  0  0
   45.4980   32.2540   47.7410 C   0  0  0  0  0  0  0  0  0  0  0  0
   45.2560   32.1880   49.0510 N   0  0  0  0  0  0  0  0  0  0  0  0
   45.3540   30.9370   49.5080 C   0  0  0  0  0  0  0  0  0  0  0  0
   45.6760   30.1260   48.4560 C   0  0  0  0  0  0  0  0  0  0  0  0
   45.7660   30.9510   47.3500 C   0  0  0  0  0  0  0  0  0  0  0  0
   46.0600   30.6860   46.0190 C   0  0  0  0  0  0  0  0  0  0  0  0
   46.3130   31.4960   44.0710 H   0  0  0  0  0  0  0  0  0  0  0  0
   45.3090   34.3070   47.1350 H   0  0  0  0  0  0  0  0  0  0  0  0
   45.0210   33.0230   49.6310 H   0  0  0  0  0  0  0  0  0  0  0  0
   45.2010   30.6300   50.5460 H   0  0  0  0  0  0  0  0  0  0  0  0
   45.8300   29.0750   48.4640 H   0  0  0  0  0  0  0  0  0  0  0  0
   46.2740   29.6880   45.6710 H   0  0  0  0  0  0  0  0  0  0  0  0
   48.0030   35.0740   41.6870 C   0  0  0  0  0  0  0  0  0  0  0  0
   48.9390   35.9430   41.6900 O   0  0  0  0  0  0  0  0  0  0  0  0
   48.1640   32.2060   41.6300 H   0  0  0  0  0  0  0  0  0  0  0  0
   48.1330   32.7560   40.7640 N   0  0  0  0  0  0  0  0  0  0  0  0
   48.0570   34.0930   40.5830 C   0  0  0  0  0  0  0  0  0  0  0  0
   48.0430   34.3480   39.2620 N   0  0  0  0  0  0  0  0  0  0  0  0
   48.1070   33.2010   38.5780 C   0  0  0  0  0  0  0  0  0  0  0  0
   48.1300   32.7700   37.2660 C   0  0  0  0  0  0  0  0  0  0  0  0
   48.2010   31.4970   36.8780 N   0  0  0  0  0  0  0  0  0  0  0  0
   48.2550   30.5310   37.8350 C   0  0  0  0  0  0  0  0  0  0  0  0
   48.3160   29.4650   37.6810 H   0  0  0  0  0  0  0  0  0  0  0  0
   48.2350   30.9190   39.1230 N   0  0  0  0  0  0  0  0  0  0  0  0
   48.1630   32.1950   39.5270 C   0  0  0  0  0  0  0  0  0  0  0  0
   48.0740   33.7710   36.2580 N   0  0  0  0  0  0  0  0  0  0  0  0
   47.1000   34.1920   36.1920 H   0  0  0  0  0  0  0  0  0  0  0  0
   48.5260   34.3370   35.5060 H   0  0  0  0  0  0  0  0  0  0  0  0
  1  6  1  0  0  0  0
  2  1  2  0  0  0  0
  2  3  1  0  0  0  0
  3  4  2  0  0  0  0
  4  5  1  0  0  0  0
  5 10  1  0  0  0  0
  6  5  2  0  0  0  0
  7  2  1  0  0  0  0
  8  3  1  0  0  0  0
  9 10  2  0  0  0  0
  9 17  1  0  0  0  0
 10 11  1  0  0  0  0
 11 19  1  0  0  0  0
 11 12  2  0  0  0  0
 12 13  1  0  0  0  0
 13 14  1  0  0  0  0
 13 20  1  0  0  0  0
 14 21  1  0  0  0  0
 15 22  1  0  0  0  0
 15 14  2  0  0  0  0
 16 12  1  0  0  0  0
 16 15  1  0  0  0  0
 17 16  2  0  0  0  0
 18  9  1  0  0  0  0
 23 17  1  0  0  0  0
 24 25  2  0  0  0  0
 24  1  1  0  0  0  0
 27 26  1  0  0  0  0
 28 27  1  0  0  0  0
 28 24  1  0  0  0  0
 29 28  2  0  0  0  0
 30 29  1  0  0  0  0
 30 36  1  0  0  0  0
 31 30  2  0  0  0  0
 32 31  1  0  0  0  0
 32 33  2  0  0  0  0
 33 35  1  0  0  0  0
 34 33  1  0  0  0  0
 35 36  2  0  0  0  0
 36 27  1  0  0  0  0
 37 31  1  0  0  0  0
 38 37  1  0  0  0  0
 39 37  1  0  0  0  0
M  END
>  <minimizedAffinity>
-6.74377632

>  <minimizedRMSD>
0.333961308

$$$$
