
 OpenBabel03252504003D

 39 43  0  0  0  0  0  0  0  0999 V2000
   47.3800   34.6470   42.7990 C   0  0  0  0  0  0  0  0  0  0  0  0
   46.4240   35.6260   42.5010 C   0  0  0  0  0  0  0  0  0  0  0  0
   45.2560   35.6440   43.2590 C   0  0  0  0  0  0  0  0  0  0  0  0
   45.1130   34.7200   44.2370 N   0  0  0  0  0  0  0  0  0  0  0  0
   46.0550   33.7940   44.4950 C   0  0  0  0  0  0  0  0  0  0  0  0
   47.1940   33.7480   43.7810 N   0  0  0  0  0  0  0  0  0  0  0  0
   46.5650   36.3560   41.7080 H   0  0  0  0  0  0  0  0  0  0  0  0
   44.5020   36.3970   43.0430 H   0  0  0  0  0  0  0  0  0  0  0  0
   45.9740   31.4540   45.2090 C   0  0  0  0  0  0  0  0  0  0  0  0
   45.8790   32.7980   45.5630 C   0  0  0  0  0  0  0  0  0  0  0  0
   45.6300   33.1400   46.8710 C   0  0  0  0  0  0  0  0  0  0  0  0
   45.4770   32.1500   47.8190 C   0  0  0  0  0  0  0  0  0  0  0  0
   45.2330   32.1630   49.1300 N   0  0  0  0  0  0  0  0  0  0  0  0
   45.1670   30.9270   49.6320 C   0  0  0  0  0  0  0  0  0  0  0  0
   45.3760   30.0440   48.6100 C   0  0  0  0  0  0  0  0  0  0  0  0
   45.5690   30.8100   47.4750 C   0  0  0  0  0  0  0  0  0  0  0  0
   45.8210   30.4620   46.1540 C   0  0  0  0  0  0  0  0  0  0  0  0
   46.1710   31.1610   44.1790 H   0  0  0  0  0  0  0  0  0  0  0  0
   45.5580   34.1880   47.1400 H   0  0  0  0  0  0  0  0  0  0  0  0
   45.1130   33.0420   49.6800 H   0  0  0  0  0  0  0  0  0  0  0  0
   44.9790   30.6800   50.6790 H   0  0  0  0  0  0  0  0  0  0  0  0
   45.3900   28.9830   48.6550 H   0  0  0  0  0  0  0  0  0  0  0  0
   45.9000   29.4320   45.8430 H   0  0  0  0  0  0  0  0  0  0  0  0
   48.5640   34.6820   41.9760 C   0  0  0  0  0  0  0  0  0  0  0  0
   49.6540   35.2660   42.2960 O   0  0  0  0  0  0  0  0  0  0  0  0
   50.1040   32.5070   40.9020 H   0  0  0  0  0  0  0  0  0  0  0  0
   49.3880   32.9830   40.3410 N   0  0  0  0  0  0  0  0  0  0  0  0
   48.5710   34.0110   40.6600 C   0  0  0  0  0  0  0  0  0  0  0  0
   47.7980   34.2930   39.5960 N   0  0  0  0  0  0  0  0  0  0  0  0
   48.0970   33.4670   38.5870 C   0  0  0  0  0  0  0  0  0  0  0  0
   47.7040   33.2290   37.2850 C   0  0  0  0  0  0  0  0  0  0  0  0
   48.2120   32.2870   36.4900 N   0  0  0  0  0  0  0  0  0  0  0  0
   49.1990   31.4900   36.9830 C   0  0  0  0  0  0  0  0  0  0  0  0
   49.7080   30.6900   36.4660 H   0  0  0  0  0  0  0  0  0  0  0  0
   49.6050   31.6980   38.2480 N   0  0  0  0  0  0  0  0  0  0  0  0
   49.1010   32.6410   39.0570 C   0  0  0  0  0  0  0  0  0  0  0  0
   46.6720   34.0560   36.7610 N   0  0  0  0  0  0  0  0  0  0  0  0
   45.7300   33.8060   37.1830 H   0  0  0  0  0  0  0  0  0  0  0  0
   46.3500   34.8290   36.1380 H   0  0  0  0  0  0  0  0  0  0  0  0
  1  6  1  0  0  0  0
  2  1  2  0  0  0  0
  2  3  1  0  0  0  0
  3  4  2  0  0  0  0
  4  5  1  0  0  0  0
  5 10  1  0  0  0  0
  6  5  2  0  0  0  0
  7  2  1  0  0  0  0
  8  3  1  0  0  0  0
  9 10  2  0  0  0  0
  9 17  1  0  0  0  0
 10 11  1  0  0  0  0
 11 19  1  0  0  0  0
 11 12  2  0  0  0  0
 12 13  1  0  0  0  0
 13 14  1  0  0  0  0
 13 20  1  0  0  0  0
 14 21  1  0  0  0  0
 15 22  1  0  0  0  0
 15 14  2  0  0  0  0
 16 12  1  0  0  0  0
 16 15  1  0  0  0  0
 17 16  2  0  0  0  0
 18  9  1  0  0  0  0
 23 17  1  0  0  0  0
 24 25  2  0  0  0  0
 24  1  1  0  0  0  0
 27 28  1  0  0  0  0
 27 26  1  0  0  0  0
 28 24  1  0  0  0  0
 29 28  2  0  0  0  0
 30 36  1  0  0  0  0
 30 29  1  0  0  0  0
 31 30  2  0  0  0  0
 32 33  2  0  0  0  0
 32 31  1  0  0  0  0
 33 35  1  0  0  0  0
 34 33  1  0  0  0  0
 35 36  2  0  0  0  0
 36 27  1  0  0  0  0
 37 38  1  0  0  0  0
 37 31  1  0  0  0  0
 39 37  1  0  0  0  0
M  END
>  <minimizedAffinity>
-7.17343092

>  <minimizedRMSD>
0.941975355

$$$$
