
 OpenBabel03242515563D

 42 46  0  0  0  0  0  0  0  0999 V2000
   45.9460   32.6420   46.7660 C   0  0  0  0  0  0  0  0  0  0  0  0
   45.5410   32.9280   48.0940 C   0  0  0  0  0  0  0  0  0  0  0  0
   45.7310   32.0690   49.1440 C   0  0  0  0  0  0  0  0  0  0  0  0
   46.3320   30.8740   48.9540 C   0  0  0  0  0  0  0  0  0  0  0  0
   46.7450   30.5430   47.6800 C   0  0  0  0  0  0  0  0  0  0  0  0
   47.3540   29.3270   47.5250 C   0  0  0  0  0  0  0  0  0  0  0  0
   47.7920   28.9360   46.2780 C   0  0  0  0  0  0  0  0  0  0  0  0
   47.5800   29.8260   45.2290 C   0  0  0  0  0  0  0  0  0  0  0  0
   46.9790   31.0000   45.4520 C   0  0  0  0  0  0  0  0  0  0  0  0
   46.5470   31.4120   46.6420 C   0  0  0  0  0  0  0  0  0  0  0  0
   45.0570   33.8720   48.2890 H   0  0  0  0  0  0  0  0  0  0  0  0
   45.3910   32.3640   50.1260 H   0  0  0  0  0  0  0  0  0  0  0  0
   46.4670   30.2250   49.7950 H   0  0  0  0  0  0  0  0  0  0  0  0
   47.4800   28.6790   48.4210 H   0  0  0  0  0  0  0  0  0  0  0  0
   48.2640   27.9340   46.3040 H   0  0  0  0  0  0  0  0  0  0  0  0
   47.9680   29.2570   44.4020 H   0  0  0  0  0  0  0  0  0  0  0  0
   44.4820   35.5050   45.1630 C   0  0  0  0  0  0  0  0  0  0  0  0
   45.2200   35.5940   43.9420 C   0  0  0  0  0  0  0  0  0  0  0  0
   46.2360   34.6390   43.6620 C   0  0  0  0  0  0  0  0  0  0  0  0
   46.4330   33.6940   44.5960 N   0  0  0  0  0  0  0  0  0  0  0  0
   45.7850   33.5930   45.6960 C   0  0  0  0  0  0  0  0  0  0  0  0
   44.8070   34.5130   45.9640 N   0  0  0  0  0  0  0  0  0  0  0  0
   43.7130   36.2390   45.3600 H   0  0  0  0  0  0  0  0  0  0  0  0
   46.7480   34.7650   42.7340 H   0  0  0  0  0  0  0  0  0  0  0  0
   44.8610   36.6710   43.0820 N   0  0  0  0  0  0  0  0  0  0  0  0
   44.8780   36.3260   42.0770 H   0  0  0  0  0  0  0  0  0  0  0  0
   44.6470   37.5910   43.5330 H   0  0  0  0  0  0  0  0  0  0  0  0
   46.9150   31.6350   44.2540 O   0  0  0  0  0  0  0  0  0  0  0  0
   47.1150   29.8940   41.7720 H   0  0  0  0  0  0  0  0  0  0  0  0
   47.7850   30.6290   42.0250 N   0  0  0  0  0  0  0  0  0  0  0  0
   47.6260   31.3220   43.1210 C   0  0  0  0  0  0  0  0  0  0  0  0
   48.7500   32.0980   43.0770 N   0  0  0  0  0  0  0  0  0  0  0  0
   49.5010   31.8580   42.0120 C   0  0  0  0  0  0  0  0  0  0  0  0
   50.7090   32.3660   41.5160 C   0  0  0  0  0  0  0  0  0  0  0  0
   51.1920   31.8560   40.3450 N   0  0  0  0  0  0  0  0  0  0  0  0
   50.5130   30.8780   39.6800 C   0  0  0  0  0  0  0  0  0  0  0  0
   50.9790   30.5310   38.7460 H   0  0  0  0  0  0  0  0  0  0  0  0
   49.3370   30.3710   40.1430 N   0  0  0  0  0  0  0  0  0  0  0  0
   48.8680   30.8750   41.2940 C   0  0  0  0  0  0  0  0  0  0  0  0
   51.3830   33.3880   42.2470 N   0  0  0  0  0  0  0  0  0  0  0  0
   50.8230   34.2900   42.2100 H   0  0  0  0  0  0  0  0  0  0  0  0
   52.2780   33.4050   42.7830 H   0  0  0  0  0  0  0  0  0  0  0  0
  1  2  1  0  0  0  0
  2 11  1  0  0  0  0
  2  3  2  0  0  0  0
  3 12  1  0  0  0  0
  4  3  1  0  0  0  0
  4 13  1  0  0  0  0
  5  4  2  0  0  0  0
  6  5  1  0  0  0  0
  6 14  1  0  0  0  0
  7 15  1  0  0  0  0
  7  6  2  0  0  0  0
  8  9  2  0  0  0  0
  8  7  1  0  0  0  0
  9 10  1  0  0  0  0
 10  1  2  0  0  0  0
 10  5  1  0  0  0  0
 16  8  1  0  0  0  0
 17 23  1  0  0  0  0
 17 22  1  0  0  0  0
 18 17  2  0  0  0  0
 19 18  1  0  0  0  0
 19 20  2  0  0  0  0
 20 21  1  0  0  0  0
 21 22  2  0  0  0  0
 21  1  1  0  0  0  0
 24 19  1  0  0  0  0
 25 27  1  0  0  0  0
 25 18  1  0  0  0  0
 26 25  1  0  0  0  0
 28  9  1  0  0  0  0
 29 30  1  0  0  0  0
 30 31  1  0  0  0  0
 31 28  1  0  0  0  0
 32 31  2  0  0  0  0
 33 32  1  0  0  0  0
 34 33  1  0  0  0  0
 34 40  1  0  0  0  0
 35 34  2  0  0  0  0
 36 38  2  0  0  0  0
 36 35  1  0  0  0  0
 37 36  1  0  0  0  0
 38 39  1  0  0  0  0
 39 33  2  0  0  0  0
 39 30  1  0  0  0  0
 40 42  1  0  0  0  0
 41 40  1  0  0  0  0
M  END
>  <minimizedAffinity>
-6.70979881

>  <minimizedRMSD>
0.727520645

$$$$
