
 OpenBabel03242523213D

 42 46  0  0  0  0  0  0  0  0999 V2000
   37.6290   30.6300   38.6700 Cl  0  0  0  0  0  0  0  0  0  0  0  0
   38.1510   30.2830   40.3160 C   0  0  0  0  0  0  0  0  0  0  0  0
   37.3780   29.3200   41.0000 C   0  0  0  0  0  0  0  0  0  0  0  0
   37.8630   29.1200   42.2840 C   0  0  0  0  0  0  0  0  0  0  0  0
   38.9070   29.6880   42.9050 C   0  0  0  0  0  0  0  0  0  0  0  0
   39.6040   30.6090   42.1740 C   0  0  0  0  0  0  0  0  0  0  0  0
   39.2460   30.9100   40.9080 C   0  0  0  0  0  0  0  0  0  0  0  0
   37.3490   28.4160   42.9730 H   0  0  0  0  0  0  0  0  0  0  0  0
   39.2520   29.5050   43.9000 H   0  0  0  0  0  0  0  0  0  0  0  0
   40.4690   31.1650   42.5090 H   0  0  0  0  0  0  0  0  0  0  0  0
   39.8960   31.8620   40.0290 N   0  0  0  0  0  0  0  0  0  0  0  0
   39.7370   33.2140   40.0810 C   0  0  0  0  0  0  0  0  0  0  0  0
   39.1230   33.7830   40.7620 H   0  0  0  0  0  0  0  0  0  0  0  0
   40.4960   33.7860   39.1110 N   0  0  0  0  0  0  0  0  0  0  0  0
   41.1370   32.7910   38.4430 C   0  0  0  0  0  0  0  0  0  0  0  0
   42.0140   32.8770   37.3810 C   0  0  0  0  0  0  0  0  0  0  0  0
   42.5080   31.6950   36.9090 N   0  0  0  0  0  0  0  0  0  0  0  0
   42.1180   30.5350   37.4950 C   0  0  0  0  0  0  0  0  0  0  0  0
   42.5450   29.6390   37.0740 H   0  0  0  0  0  0  0  0  0  0  0  0
   41.2600   30.4500   38.5360 N   0  0  0  0  0  0  0  0  0  0  0  0
   40.7510   31.6040   39.0290 C   0  0  0  0  0  0  0  0  0  0  0  0
   42.3730   34.1550   36.8180 N   0  0  0  0  0  0  0  0  0  0  0  0
   41.5880   34.1760   36.1580 H   0  0  0  0  0  0  0  0  0  0  0  0
   43.2250   34.2670   37.4440 H   0  0  0  0  0  0  0  0  0  0  0  0
   36.1990   28.5720   40.4710 C   0  0  0  0  0  0  0  0  0  0  0  0
   35.3300   29.2960   40.8920 O   0  0  0  0  0  0  0  0  0  0  0  0
   36.6840   27.3920   39.7420 C   0  0  0  0  0  0  0  0  0  0  0  0
   37.1150   26.2450   40.2870 C   0  0  0  0  0  0  0  0  0  0  0  0
   37.6120   25.3290   39.3750 C   0  0  0  0  0  0  0  0  0  0  0  0
   37.6180   25.6670   38.0100 N   0  0  0  0  0  0  0  0  0  0  0  0
   37.1710   26.8200   37.5560 C   0  0  0  0  0  0  0  0  0  0  0  0
   36.6700   27.7580   38.4330 N   0  0  0  0  0  0  0  0  0  0  0  0
   38.0040   24.3600   39.6100 H   0  0  0  0  0  0  0  0  0  0  0  0
   37.2370   26.9380   36.4800 H   0  0  0  0  0  0  0  0  0  0  0  0
   37.0040   25.8580   41.6470 C   0  0  0  0  0  0  0  0  0  0  0  0
   37.2380   24.6390   42.2030 C   0  0  0  0  0  0  0  0  0  0  0  0
   38.3700   25.6060   42.4260 C   0  0  0  0  0  0  0  0  0  0  0  0
   36.2570   26.4350   42.2260 H   0  0  0  0  0  0  0  0  0  0  0  0
   37.5290   23.7770   41.5450 H   0  0  0  0  0  0  0  0  0  0  0  0
   36.8540   24.2100   43.1630 H   0  0  0  0  0  0  0  0  0  0  0  0
   38.4460   26.1560   43.3800 H   0  0  0  0  0  0  0  0  0  0  0  0
   39.2430   25.5670   41.7430 H   0  0  0  0  0  0  0  0  0  0  0  0
  1  2  1  0  0  0  0
  2  7  2  0  0  0  0
  2  3  1  0  0  0  0
  3  4  2  0  0  0  0
  4  5  1  0  0  0  0
  4  8  1  0  0  0  0
  5  9  1  0  0  0  0
  6 10  1  0  0  0  0
  6  5  2  0  0  0  0
  7  6  1  0  0  0  0
 11 12  1  0  0  0  0
 11  7  1  0  0  0  0
 12 13  1  0  0  0  0
 14 12  2  0  0  0  0
 15 21  1  0  0  0  0
 15 14  1  0  0  0  0
 16 15  2  0  0  0  0
 17 16  1  0  0  0  0
 17 18  2  0  0  0  0
 18 20  1  0  0  0  0
 19 18  1  0  0  0  0
 20 21  2  0  0  0  0
 21 11  1  0  0  0  0
 22 16  1  0  0  0  0
 22 24  1  0  0  0  0
 23 22  1  0  0  0  0
 25 26  2  0  0  0  0
 25  3  1  0  0  0  0
 27 28  1  0  0  0  0
 27 25  1  0  0  0  0
 28 35  1  0  0  0  0
 29 33  1  0  0  0  0
 29 28  2  0  0  0  0
 30 29  1  0  0  0  0
 31 30  2  0  0  0  0
 31 32  1  0  0  0  0
 32 27  2  0  0  0  0
 34 31  1  0  0  0  0
 35 36  1  0  0  0  0
 35 38  1  0  0  0  0
 35 37  1  0  0  0  0
 36 37  1  0  0  0  0
 36 40  1  0  0  0  0
 37 41  1  0  0  0  0
 39 36  1  0  0  0  0
 42 37  1  0  0  0  0
M  END
>  <minimizedAffinity>
-6.42720509

$$$$

 OpenBabel03242523213D

 42 46  0  0  0  0  0  0  0  0999 V2000
   39.8350   29.1310   41.0390 Cl  0  0  0  0  0  0  0  0  0  0  0  0
   38.1190   29.3260   40.6900 C   0  0  0  0  0  0  0  0  0  0  0  0
   37.2480   28.6410   41.5630 C   0  0  0  0  0  0  0  0  0  0  0  0
   35.9250   28.8520   41.2050 C   0  0  0  0  0  0  0  0  0  0  0  0
   35.4130   29.5810   40.2030 C   0  0  0  0  0  0  0  0  0  0  0  0
   36.3230   30.2130   39.4040 C   0  0  0  0  0  0  0  0  0  0  0  0
   37.6490   30.0980   39.6290 C   0  0  0  0  0  0  0  0  0  0  0  0
   35.1060   28.3570   41.7700 H   0  0  0  0  0  0  0  0  0  0  0  0
   34.3820   29.7210   39.9590 H   0  0  0  0  0  0  0  0  0  0  0  0
   36.0960   30.8400   38.5520 H   0  0  0  0  0  0  0  0  0  0  0  0
   38.7140   30.7130   38.8600 N   0  0  0  0  0  0  0  0  0  0  0  0
   39.2700   30.1900   37.7330 C   0  0  0  0  0  0  0  0  0  0  0  0
   39.0210   29.2640   37.2380 H   0  0  0  0  0  0  0  0  0  0  0  0
   40.2350   31.0350   37.2830 N   0  0  0  0  0  0  0  0  0  0  0  0
   40.2870   32.0950   38.1320 C   0  0  0  0  0  0  0  0  0  0  0  0
   41.1050   33.2060   38.0910 C   0  0  0  0  0  0  0  0  0  0  0  0
   40.9320   34.1200   39.0900 N   0  0  0  0  0  0  0  0  0  0  0  0
   39.9910   33.8900   40.0400 C   0  0  0  0  0  0  0  0  0  0  0  0
   39.9060   34.6520   40.7990 H   0  0  0  0  0  0  0  0  0  0  0  0
   39.1890   32.8030   40.0810 N   0  0  0  0  0  0  0  0  0  0  0  0
   39.3350   31.8750   39.1040 C   0  0  0  0  0  0  0  0  0  0  0  0
   42.0810   33.3690   37.0420 N   0  0  0  0  0  0  0  0  0  0  0  0
   42.8190   32.8570   37.5380 H   0  0  0  0  0  0  0  0  0  0  0  0
   41.4180   33.9170   36.4180 H   0  0  0  0  0  0  0  0  0  0  0  0
   37.6290   27.8000   42.7380 C   0  0  0  0  0  0  0  0  0  0  0  0
   37.4890   28.6320   43.6000 O   0  0  0  0  0  0  0  0  0  0  0  0
   37.9640   26.4530   42.2580 C   0  0  0  0  0  0  0  0  0  0  0  0
   39.0550   25.7430   42.5810 C   0  0  0  0  0  0  0  0  0  0  0  0
   39.1760   24.5400   41.9090 C   0  0  0  0  0  0  0  0  0  0  0  0
   38.1810   24.1760   40.9840 N   0  0  0  0  0  0  0  0  0  0  0  0
   37.1340   24.9330   40.7260 C   0  0  0  0  0  0  0  0  0  0  0  0
   36.9790   26.1400   41.3740 N   0  0  0  0  0  0  0  0  0  0  0  0
   39.9740   23.8330   42.0240 H   0  0  0  0  0  0  0  0  0  0  0  0
   36.4500   24.5220   39.9920 H   0  0  0  0  0  0  0  0  0  0  0  0
   39.9980   26.0540   43.5950 C   0  0  0  0  0  0  0  0  0  0  0  0
   41.3050   25.6870   43.6770 C   0  0  0  0  0  0  0  0  0  0  0  0
   41.1290   27.1070   43.2120 C   0  0  0  0  0  0  0  0  0  0  0  0
   39.5550   26.2150   44.5970 H   0  0  0  0  0  0  0  0  0  0  0  0
   41.7450   25.0240   42.8840 H   0  0  0  0  0  0  0  0  0  0  0  0
   41.9680   25.6150   44.5750 H   0  0  0  0  0  0  0  0  0  0  0  0
   41.2240   27.9400   43.9320 H   0  0  0  0  0  0  0  0  0  0  0  0
   41.1590   27.3170   42.1230 H   0  0  0  0  0  0  0  0  0  0  0  0
  2  1  1  0  0  0  0
  2  3  1  0  0  0  0
  3 25  1  0  0  0  0
  4  3  2  0  0  0  0
  4  8  1  0  0  0  0
  5  4  1  0  0  0  0
  6  7  1  0  0  0  0
  6  5  2  0  0  0  0
  7  2  2  0  0  0  0
  9  5  1  0  0  0  0
 10  6  1  0  0  0  0
 11 21  1  0  0  0  0
 11  7  1  0  0  0  0
 12 11  1  0  0  0  0
 13 12  1  0  0  0  0
 14 12  2  0  0  0  0
 14 15  1  0  0  0  0
 15 21  1  0  0  0  0
 16 15  2  0  0  0  0
 16 17  1  0  0  0  0
 17 18  2  0  0  0  0
 18 20  1  0  0  0  0
 18 19  1  0  0  0  0
 21 20  2  0  0  0  0
 22 23  1  0  0  0  0
 22 16  1  0  0  0  0
 24 22  1  0  0  0  0
 25 26  2  0  0  0  0
 27 28  1  0  0  0  0
 27 25  1  0  0  0  0
 28 35  1  0  0  0  0
 29 33  1  0  0  0  0
 29 28  2  0  0  0  0
 30 29  1  0  0  0  0
 31 30  2  0  0  0  0
 31 32  1  0  0  0  0
 32 27  2  0  0  0  0
 34 31  1  0  0  0  0
 35 36  1  0  0  0  0
 35 38  1  0  0  0  0
 36 40  1  0  0  0  0
 37 35  1  0  0  0  0
 37 36  1  0  0  0  0
 37 41  1  0  0  0  0
 39 36  1  0  0  0  0
 42 37  1  0  0  0  0
M  END
>  <minimizedAffinity>
-6.39110518

$$$$

 OpenBabel03242523213D

 42 46  0  0  0  0  0  0  0  0999 V2000
   33.2430   29.1560   39.0430 Cl  0  0  0  0  0  0  0  0  0  0  0  0
   34.3650   29.1810   37.6860 C   0  0  0  0  0  0  0  0  0  0  0  0
   33.7770   28.9800   36.4180 C   0  0  0  0  0  0  0  0  0  0  0  0
   34.7390   29.0120   35.4190 C   0  0  0  0  0  0  0  0  0  0  0  0
   36.0630   29.2000   35.5080 C   0  0  0  0  0  0  0  0  0  0  0  0
   36.5530   29.3880   36.7690 C   0  0  0  0  0  0  0  0  0  0  0  0
   35.7350   29.3800   37.8440 C   0  0  0  0  0  0  0  0  0  0  0  0
   34.4510   28.8380   34.3600 H   0  0  0  0  0  0  0  0  0  0  0  0
   36.7740   29.2200   34.7100 H   0  0  0  0  0  0  0  0  0  0  0  0
   37.5890   29.5540   37.0320 H   0  0  0  0  0  0  0  0  0  0  0  0
   36.1250   29.5650   39.2280 N   0  0  0  0  0  0  0  0  0  0  0  0
   36.2100   30.7650   39.8650 C   0  0  0  0  0  0  0  0  0  0  0  0
   36.0090   31.7460   39.4630 H   0  0  0  0  0  0  0  0  0  0  0  0
   36.6030   30.5560   41.1500 N   0  0  0  0  0  0  0  0  0  0  0  0
   36.7660   29.2190   41.3220 C   0  0  0  0  0  0  0  0  0  0  0  0
   37.1550   28.5250   42.4510 C   0  0  0  0  0  0  0  0  0  0  0  0
   37.2330   27.1670   42.3280 N   0  0  0  0  0  0  0  0  0  0  0  0
   36.9330   26.5930   41.1350 C   0  0  0  0  0  0  0  0  0  0  0  0
   37.0160   25.5190   41.1070 H   0  0  0  0  0  0  0  0  0  0  0  0
   36.5530   27.2720   40.0300 N   0  0  0  0  0  0  0  0  0  0  0  0
   36.4640   28.6210   40.1170 C   0  0  0  0  0  0  0  0  0  0  0  0
   37.4560   29.2180   43.6790 N   0  0  0  0  0  0  0  0  0  0  0  0
   38.4430   29.3710   43.4450 H   0  0  0  0  0  0  0  0  0  0  0  0
   36.4630   29.1320   44.0500 H   0  0  0  0  0  0  0  0  0  0  0  0
   32.3290   28.7720   36.1210 C   0  0  0  0  0  0  0  0  0  0  0  0
   32.3080   27.5680   36.1890 O   0  0  0  0  0  0  0  0  0  0  0  0
   31.7030   30.0850   35.9090 C   0  0  0  0  0  0  0  0  0  0  0  0
   30.7990   30.6710   36.7070 C   0  0  0  0  0  0  0  0  0  0  0  0
   30.2950   31.8650   36.2210 C   0  0  0  0  0  0  0  0  0  0  0  0
   30.7590   32.3440   34.9830 N   0  0  0  0  0  0  0  0  0  0  0  0
   31.6560   31.7050   34.2600 C   0  0  0  0  0  0  0  0  0  0  0  0
   32.1800   30.5110   34.7090 N   0  0  0  0  0  0  0  0  0  0  0  0
   29.5650   32.4830   36.7060 H   0  0  0  0  0  0  0  0  0  0  0  0
   31.9190   32.1950   33.3300 H   0  0  0  0  0  0  0  0  0  0  0  0
   30.4140   30.2490   38.0060 C   0  0  0  0  0  0  0  0  0  0  0  0
   29.3750   30.6870   38.7660 C   0  0  0  0  0  0  0  0  0  0  0  0
   29.0920   29.3670   38.1020 C   0  0  0  0  0  0  0  0  0  0  0  0
   31.2490   29.8770   38.6300 H   0  0  0  0  0  0  0  0  0  0  0  0
   28.7170   31.5140   38.3820 H   0  0  0  0  0  0  0  0  0  0  0  0
   29.2370   30.6410   39.8750 H   0  0  0  0  0  0  0  0  0  0  0  0
   29.2250   28.4260   38.6650 H   0  0  0  0  0  0  0  0  0  0  0  0
   28.5180   29.3620   37.1530 H   0  0  0  0  0  0  0  0  0  0  0  0
  2  7  1  0  0  0  0
  2  1  1  0  0  0  0
  3  2  2  0  0  0  0
  4  5  2  0  0  0  0
  4  3  1  0  0  0  0
  5  6  1  0  0  0  0
  6 10  1  0  0  0  0
  6  7  2  0  0  0  0
  7 11  1  0  0  0  0
  8  4  1  0  0  0  0
  9  5  1  0  0  0  0
 11 12  1  0  0  0  0
 11 21  1  0  0  0  0
 12 14  2  0  0  0  0
 13 12  1  0  0  0  0
 14 15  1  0  0  0  0
 15 16  1  0  0  0  0
 16 22  1  0  0  0  0
 17 16  2  0  0  0  0
 18 17  1  0  0  0  0
 19 18  1  0  0  0  0
 20 21  1  0  0  0  0
 20 18  2  0  0  0  0
 21 15  2  0  0  0  0
 22 24  1  0  0  0  0
 23 22  1  0  0  0  0
 25 26  2  0  0  0  0
 25  3  1  0  0  0  0
 27 25  1  0  0  0  0
 27 28  1  0  0  0  0
 28 35  1  0  0  0  0
 29 33  1  0  0  0  0
 29 28  2  0  0  0  0
 30 29  1  0  0  0  0
 31 32  1  0  0  0  0
 31 30  2  0  0  0  0
 32 27  2  0  0  0  0
 34 31  1  0  0  0  0
 35 37  1  0  0  0  0
 35 38  1  0  0  0  0
 35 36  1  0  0  0  0
 36 40  1  0  0  0  0
 37 41  1  0  0  0  0
 37 36  1  0  0  0  0
 39 36  1  0  0  0  0
 42 37  1  0  0  0  0
M  END
>  <minimizedAffinity>
-6.38088226

$$$$

 OpenBabel03242523213D

 42 46  0  0  0  0  0  0  0  0999 V2000
   39.9780   30.1340   41.7690 Cl  0  0  0  0  0  0  0  0  0  0  0  0
   38.5350   29.5240   40.9640 C   0  0  0  0  0  0  0  0  0  0  0  0
   37.8160   28.5450   41.6820 C   0  0  0  0  0  0  0  0  0  0  0  0
   36.7050   28.1250   40.9660 C   0  0  0  0  0  0  0  0  0  0  0  0
   36.2630   28.5150   39.7620 C   0  0  0  0  0  0  0  0  0  0  0  0
   37.0150   29.4660   39.1320 C   0  0  0  0  0  0  0  0  0  0  0  0
   38.1280   29.9680   39.7070 C   0  0  0  0  0  0  0  0  0  0  0  0
   36.0440   27.3310   41.3740 H   0  0  0  0  0  0  0  0  0  0  0  0
   35.3960   28.1670   39.2420 H   0  0  0  0  0  0  0  0  0  0  0  0
   36.8130   29.8980   38.1610 H   0  0  0  0  0  0  0  0  0  0  0  0
   39.0110   30.9750   39.1490 N   0  0  0  0  0  0  0  0  0  0  0  0
   38.9120   32.3140   39.3700 C   0  0  0  0  0  0  0  0  0  0  0  0
   38.1870   32.8350   39.9760 H   0  0  0  0  0  0  0  0  0  0  0  0
   39.9030   32.9490   38.6910 N   0  0  0  0  0  0  0  0  0  0  0  0
   40.6290   32.0050   38.0380 C   0  0  0  0  0  0  0  0  0  0  0  0
   41.7310   32.1620   37.2210 C   0  0  0  0  0  0  0  0  0  0  0  0
   42.2610   31.0180   36.6950 N   0  0  0  0  0  0  0  0  0  0  0  0
   41.6890   29.8250   36.9980 C   0  0  0  0  0  0  0  0  0  0  0  0
   42.1560   28.9630   36.5490 H   0  0  0  0  0  0  0  0  0  0  0  0
   40.6100   29.6710   37.7970 N   0  0  0  0  0  0  0  0  0  0  0  0
   40.0590   30.7850   38.3360 C   0  0  0  0  0  0  0  0  0  0  0  0
   42.2740   33.4700   36.9530 N   0  0  0  0  0  0  0  0  0  0  0  0
   41.6650   33.6470   36.1470 H   0  0  0  0  0  0  0  0  0  0  0  0
   42.9640   33.4240   37.7610 H   0  0  0  0  0  0  0  0  0  0  0  0
   38.1410   28.0020   43.0350 C   0  0  0  0  0  0  0  0  0  0  0  0
   37.3660   28.6640   43.6790 O   0  0  0  0  0  0  0  0  0  0  0  0
   39.1930   26.9860   42.8890 C   0  0  0  0  0  0  0  0  0  0  0  0
   39.0660   25.7930   42.2890 C   0  0  0  0  0  0  0  0  0  0  0  0
   40.1850   24.9840   42.3810 C   0  0  0  0  0  0  0  0  0  0  0  0
   41.3160   25.4650   43.0650 N   0  0  0  0  0  0  0  0  0  0  0  0
   41.3590   26.6570   43.6260 C   0  0  0  0  0  0  0  0  0  0  0  0
   40.2640   27.4910   43.5580 N   0  0  0  0  0  0  0  0  0  0  0  0
   40.2830   23.9980   41.9710 H   0  0  0  0  0  0  0  0  0  0  0  0
   42.2980   26.8910   44.1150 H   0  0  0  0  0  0  0  0  0  0  0  0
   37.9700   25.3520   41.5030 C   0  0  0  0  0  0  0  0  0  0  0  0
   37.6400   24.0810   41.1480 C   0  0  0  0  0  0  0  0  0  0  0  0
   36.7970   24.6060   42.2790 C   0  0  0  0  0  0  0  0  0  0  0  0
   37.6180   26.0900   40.7570 H   0  0  0  0  0  0  0  0  0  0  0  0
   38.3010   23.2280   41.4610 H   0  0  0  0  0  0  0  0  0  0  0  0
   37.0190   23.7220   40.2890 H   0  0  0  0  0  0  0  0  0  0  0  0
   35.7940   25.0200   42.0730 H   0  0  0  0  0  0  0  0  0  0  0  0
   37.0790   24.3420   43.3180 H   0  0  0  0  0  0  0  0  0  0  0  0
  2  3  1  0  0  0  0
  2  1  1  0  0  0  0
  3 25  1  0  0  0  0
  4  8  1  0  0  0  0
  4  3  2  0  0  0  0
  5  4  1  0  0  0  0
  6  7  1  0  0  0  0
  6  5  2  0  0  0  0
  7  2  2  0  0  0  0
  9  5  1  0  0  0  0
 10  6  1  0  0  0  0
 11 12  1  0  0  0  0
 11  7  1  0  0  0  0
 12 13  1  0  0  0  0
 14 12  2  0  0  0  0
 15 21  1  0  0  0  0
 15 14  1  0  0  0  0
 16 15  2  0  0  0  0
 17 18  2  0  0  0  0
 17 16  1  0  0  0  0
 18 20  1  0  0  0  0
 19 18  1  0  0  0  0
 20 21  2  0  0  0  0
 21 11  1  0  0  0  0
 22 16  1  0  0  0  0
 22 24  1  0  0  0  0
 23 22  1  0  0  0  0
 25 26  2  0  0  0  0
 27 25  1  0  0  0  0
 27 32  1  0  0  0  0
 28 29  1  0  0  0  0
 28 27  2  0  0  0  0
 29 30  2  0  0  0  0
 30 31  1  0  0  0  0
 31 34  1  0  0  0  0
 32 31  2  0  0  0  0
 33 29  1  0  0  0  0
 35 37  1  0  0  0  0
 35 28  1  0  0  0  0
 36 39  1  0  0  0  0
 36 35  1  0  0  0  0
 36 37  1  0  0  0  0
 37 42  1  0  0  0  0
 38 35  1  0  0  0  0
 40 36  1  0  0  0  0
 41 37  1  0  0  0  0
M  END
>  <minimizedAffinity>
-6.30371428

$$$$

 OpenBabel03242523213D

 42 46  0  0  0  0  0  0  0  0999 V2000
   37.5020   31.1230   38.7960 Cl  0  0  0  0  0  0  0  0  0  0  0  0
   38.0950   30.6370   40.3810 C   0  0  0  0  0  0  0  0  0  0  0  0
   37.2630   29.7380   41.0830 C   0  0  0  0  0  0  0  0  0  0  0  0
   37.8110   29.4200   42.3170 C   0  0  0  0  0  0  0  0  0  0  0  0
   38.9560   29.8320   42.8780 C   0  0  0  0  0  0  0  0  0  0  0  0
   39.7050   30.7000   42.1340 C   0  0  0  0  0  0  0  0  0  0  0  0
   39.2970   31.1030   40.9130 C   0  0  0  0  0  0  0  0  0  0  0  0
   37.2660   28.7480   43.0140 H   0  0  0  0  0  0  0  0  0  0  0  0
   39.3470   29.5610   43.8360 H   0  0  0  0  0  0  0  0  0  0  0  0
   40.6520   31.1340   42.4240 H   0  0  0  0  0  0  0  0  0  0  0  0
   39.9920   32.0150   40.0260 N   0  0  0  0  0  0  0  0  0  0  0  0
   39.9550   33.3730   40.1120 C   0  0  0  0  0  0  0  0  0  0  0  0
   39.4230   33.9790   40.8300 H   0  0  0  0  0  0  0  0  0  0  0  0
   40.7220   33.9000   39.1220 N   0  0  0  0  0  0  0  0  0  0  0  0
   41.2440   32.8690   38.4070 C   0  0  0  0  0  0  0  0  0  0  0  0
   42.0800   32.9030   37.3100 C   0  0  0  0  0  0  0  0  0  0  0  0
   42.4480   31.6930   36.7930 N   0  0  0  0  0  0  0  0  0  0  0  0
   41.9810   30.5580   37.3720 C   0  0  0  0  0  0  0  0  0  0  0  0
   42.3090   29.6390   36.9150 H   0  0  0  0  0  0  0  0  0  0  0  0
   41.1620   30.5240   38.4470 N   0  0  0  0  0  0  0  0  0  0  0  0
   40.7780   31.7070   38.9850 C   0  0  0  0  0  0  0  0  0  0  0  0
   42.5280   34.1570   36.7580 N   0  0  0  0  0  0  0  0  0  0  0  0
   41.7210   34.2630   36.1330 H   0  0  0  0  0  0  0  0  0  0  0  0
   43.4120   34.1800   37.3480 H   0  0  0  0  0  0  0  0  0  0  0  0
   35.9680   29.1600   40.6160 C   0  0  0  0  0  0  0  0  0  0  0  0
   35.2310   30.0110   41.0490 O   0  0  0  0  0  0  0  0  0  0  0  0
   36.2470   27.9070   39.9000 C   0  0  0  0  0  0  0  0  0  0  0  0
   35.9170   27.6280   38.6310 C   0  0  0  0  0  0  0  0  0  0  0  0
   36.2100   26.3340   38.2350 C   0  0  0  0  0  0  0  0  0  0  0  0
   36.8080   25.4600   39.1600 N   0  0  0  0  0  0  0  0  0  0  0  0
   37.1040   25.8170   40.3930 C   0  0  0  0  0  0  0  0  0  0  0  0
   36.8260   27.0970   40.8260 N   0  0  0  0  0  0  0  0  0  0  0  0
   36.0220   25.9160   37.2650 H   0  0  0  0  0  0  0  0  0  0  0  0
   37.5640   25.0390   40.9910 H   0  0  0  0  0  0  0  0  0  0  0  0
   35.4200   28.5390   37.6640 C   0  0  0  0  0  0  0  0  0  0  0  0
   34.6770   28.2760   36.5560 C   0  0  0  0  0  0  0  0  0  0  0  0
   33.8520   28.8160   37.6930 C   0  0  0  0  0  0  0  0  0  0  0  0
   36.0350   29.4500   37.5370 H   0  0  0  0  0  0  0  0  0  0  0  0
   34.4180   27.2120   36.3010 H   0  0  0  0  0  0  0  0  0  0  0  0
   34.5560   28.8790   35.6210 H   0  0  0  0  0  0  0  0  0  0  0  0
   33.5910   29.8890   37.7240 H   0  0  0  0  0  0  0  0  0  0  0  0
   33.3080   28.1000   38.3420 H   0  0  0  0  0  0  0  0  0  0  0  0
  1  2  1  0  0  0  0
  2  7  2  0  0  0  0
  2  3  1  0  0  0  0
  3  4  2  0  0  0  0
  4  5  1  0  0  0  0
  4  8  1  0  0  0  0
  5  9  1  0  0  0  0
  6 10  1  0  0  0  0
  6  5  2  0  0  0  0
  7  6  1  0  0  0  0
 11 12  1  0  0  0  0
 11  7  1  0  0  0  0
 12 13  1  0  0  0  0
 14 12  2  0  0  0  0
 15 21  1  0  0  0  0
 15 14  1  0  0  0  0
 16 15  2  0  0  0  0
 17 16  1  0  0  0  0
 17 18  2  0  0  0  0
 18 20  1  0  0  0  0
 19 18  1  0  0  0  0
 20 21  2  0  0  0  0
 21 11  1  0  0  0  0
 22 16  1  0  0  0  0
 22 24  1  0  0  0  0
 23 22  1  0  0  0  0
 25 26  2  0  0  0  0
 25  3  1  0  0  0  0
 27 25  1  0  0  0  0
 27 32  1  0  0  0  0
 28 27  2  0  0  0  0
 29 28  1  0  0  0  0
 29 30  2  0  0  0  0
 30 31  1  0  0  0  0
 31 32  2  0  0  0  0
 31 34  1  0  0  0  0
 33 29  1  0  0  0  0
 35 37  1  0  0  0  0
 35 28  1  0  0  0  0
 36 35  1  0  0  0  0
 36 37  1  0  0  0  0
 37 41  1  0  0  0  0
 37 42  1  0  0  0  0
 38 35  1  0  0  0  0
 39 36  1  0  0  0  0
 40 36  1  0  0  0  0
M  END
>  <minimizedAffinity>
-6.26837492

$$$$

 OpenBabel03242523213D

 42 46  0  0  0  0  0  0  0  0999 V2000
   36.3720   27.5080   40.2460 Cl  0  0  0  0  0  0  0  0  0  0  0  0
   37.5960   27.4280   41.5100 C   0  0  0  0  0  0  0  0  0  0  0  0
   37.9220   26.1270   41.9470 C   0  0  0  0  0  0  0  0  0  0  0  0
   38.8870   26.1680   42.9430 C   0  0  0  0  0  0  0  0  0  0  0  0
   39.5050   27.2230   43.4950 C   0  0  0  0  0  0  0  0  0  0  0  0
   39.1330   28.4470   43.0160 C   0  0  0  0  0  0  0  0  0  0  0  0
   38.2010   28.5640   42.0460 C   0  0  0  0  0  0  0  0  0  0  0  0
   39.2360   25.2290   43.4230 H   0  0  0  0  0  0  0  0  0  0  0  0
   40.2490   27.2140   44.2620 H   0  0  0  0  0  0  0  0  0  0  0  0
   39.5220   29.4030   43.3410 H   0  0  0  0  0  0  0  0  0  0  0  0
   37.7190   29.7960   41.4540 N   0  0  0  0  0  0  0  0  0  0  0  0
   36.4430   30.2630   41.5440 C   0  0  0  0  0  0  0  0  0  0  0  0
   35.6060   29.8120   42.0540 H   0  0  0  0  0  0  0  0  0  0  0  0
   36.3550   31.4410   40.8720 N   0  0  0  0  0  0  0  0  0  0  0  0
   37.5810   31.7160   40.3550 C   0  0  0  0  0  0  0  0  0  0  0  0
   37.9850   32.7970   39.5970 C   0  0  0  0  0  0  0  0  0  0  0  0
   39.2960   32.8080   39.2120 N   0  0  0  0  0  0  0  0  0  0  0  0
   40.1030   31.7840   39.5870 C   0  0  0  0  0  0  0  0  0  0  0  0
   41.1240   31.8550   39.2500 H   0  0  0  0  0  0  0  0  0  0  0  0
   39.7080   30.7260   40.3290 N   0  0  0  0  0  0  0  0  0  0  0  0
   38.4130   30.6830   40.7280 C   0  0  0  0  0  0  0  0  0  0  0  0
   37.0580   33.8430   39.2440 N   0  0  0  0  0  0  0  0  0  0  0  0
   36.7330   33.3770   38.3880 H   0  0  0  0  0  0  0  0  0  0  0  0
   37.2960   34.4350   40.0940 H   0  0  0  0  0  0  0  0  0  0  0  0
   37.3570   24.8400   41.4420 C   0  0  0  0  0  0  0  0  0  0  0  0
   36.6320   24.5910   42.3730 O   0  0  0  0  0  0  0  0  0  0  0  0
   37.9500   24.5540   40.1280 C   0  0  0  0  0  0  0  0  0  0  0  0
   37.2810   24.2820   38.9980 C   0  0  0  0  0  0  0  0  0  0  0  0
   38.0860   23.9500   37.9220 C   0  0  0  0  0  0  0  0  0  0  0  0
   39.4810   23.9300   38.0990 N   0  0  0  0  0  0  0  0  0  0  0  0
   40.0600   24.2140   39.2480 C   0  0  0  0  0  0  0  0  0  0  0  0
   39.2920   24.5480   40.3430 N   0  0  0  0  0  0  0  0  0  0  0  0
   37.7450   23.6980   36.9370 H   0  0  0  0  0  0  0  0  0  0  0  0
   41.1430   24.1600   39.2330 H   0  0  0  0  0  0  0  0  0  0  0  0
   35.8840   24.4120   38.7880 C   0  0  0  0  0  0  0  0  0  0  0  0
   35.1060   23.7940   37.8590 C   0  0  0  0  0  0  0  0  0  0  0  0
   34.9830   23.1740   39.2250 C   0  0  0  0  0  0  0  0  0  0  0  0
   35.4680   25.3960   39.0810 H   0  0  0  0  0  0  0  0  0  0  0  0
   35.5800   23.1030   37.1110 H   0  0  0  0  0  0  0  0  0  0  0  0
   34.1140   24.1030   37.4440 H   0  0  0  0  0  0  0  0  0  0  0  0
   34.1390   23.4480   39.8810 H   0  0  0  0  0  0  0  0  0  0  0  0
   35.5880   22.2730   39.4540 H   0  0  0  0  0  0  0  0  0  0  0  0
  1  2  1  0  0  0  0
  2  3  2  0  0  0  0
  2  7  1  0  0  0  0
  3  4  1  0  0  0  0
  4  8  1  0  0  0  0
  4  5  2  0  0  0  0
  5  9  1  0  0  0  0
  6 10  1  0  0  0  0
  6  5  1  0  0  0  0
  7  6  2  0  0  0  0
 11 12  1  0  0  0  0
 11  7  1  0  0  0  0
 12 13  1  0  0  0  0
 14 12  2  0  0  0  0
 15 21  1  0  0  0  0
 15 14  1  0  0  0  0
 16 15  2  0  0  0  0
 17 18  2  0  0  0  0
 17 16  1  0  0  0  0
 18 20  1  0  0  0  0
 19 18  1  0  0  0  0
 20 21  2  0  0  0  0
 21 11  1  0  0  0  0
 22 16  1  0  0  0  0
 22 24  1  0  0  0  0
 23 22  1  0  0  0  0
 25  3  1  0  0  0  0
 25 26  2  0  0  0  0
 27 32  1  0  0  0  0
 27 25  1  0  0  0  0
 28 27  2  0  0  0  0
 29 30  2  0  0  0  0
 29 28  1  0  0  0  0
 30 31  1  0  0  0  0
 31 32  2  0  0  0  0
 33 29  1  0  0  0  0
 34 31  1  0  0  0  0
 35 28  1  0  0  0  0
 35 38  1  0  0  0  0
 35 37  1  0  0  0  0
 36 35  1  0  0  0  0
 36 37  1  0  0  0  0
 37 42  1  0  0  0  0
 37 41  1  0  0  0  0
 39 36  1  0  0  0  0
 40 36  1  0  0  0  0
M  END
>  <minimizedAffinity>
-6.23205042

$$$$

 OpenBabel03242523213D

 42 46  0  0  0  0  0  0  0  0999 V2000
   38.5130   30.6680   40.7170 Cl  0  0  0  0  0  0  0  0  0  0  0  0
   39.7720   29.7900   41.5820 C   0  0  0  0  0  0  0  0  0  0  0  0
   39.3100   28.7650   42.4350 C   0  0  0  0  0  0  0  0  0  0  0  0
   40.3700   28.1390   43.0720 C   0  0  0  0  0  0  0  0  0  0  0  0
   41.6870   28.3720   42.9770 C   0  0  0  0  0  0  0  0  0  0  0  0
   42.0520   29.3790   42.1290 C   0  0  0  0  0  0  0  0  0  0  0  0
   41.1280   30.0820   41.4410 C   0  0  0  0  0  0  0  0  0  0  0  0
   40.1810   27.3270   43.8070 H   0  0  0  0  0  0  0  0  0  0  0  0
   42.4780   27.8630   43.4850 H   0  0  0  0  0  0  0  0  0  0  0  0
   43.0630   29.7070   41.9270 H   0  0  0  0  0  0  0  0  0  0  0  0
   41.3800   31.1690   40.5160 N   0  0  0  0  0  0  0  0  0  0  0  0
   41.3590   32.4920   40.8360 C   0  0  0  0  0  0  0  0  0  0  0  0
   41.1590   32.9390   41.7970 H   0  0  0  0  0  0  0  0  0  0  0  0
   41.6400   33.2210   39.7230 N   0  0  0  0  0  0  0  0  0  0  0  0
   41.8380   32.3530   38.6980 C   0  0  0  0  0  0  0  0  0  0  0  0
   42.1470   32.6170   37.3780 C   0  0  0  0  0  0  0  0  0  0  0  0
   42.2890   31.5300   36.5620 N   0  0  0  0  0  0  0  0  0  0  0  0
   42.1220   30.2880   37.0820 C   0  0  0  0  0  0  0  0  0  0  0  0
   42.2480   29.4760   36.3830 H   0  0  0  0  0  0  0  0  0  0  0  0
   41.8200   30.0290   38.3730 N   0  0  0  0  0  0  0  0  0  0  0  0
   41.6720   31.0840   39.2100 C   0  0  0  0  0  0  0  0  0  0  0  0
   42.3060   33.9710   36.9110 N   0  0  0  0  0  0  0  0  0  0  0  0
   41.3110   34.0990   36.6930 H   0  0  0  0  0  0  0  0  0  0  0  0
   43.3540   33.9820   37.0890 H   0  0  0  0  0  0  0  0  0  0  0  0
   37.8920   28.3510   42.6570 C   0  0  0  0  0  0  0  0  0  0  0  0
   37.5970   29.1770   43.4850 O   0  0  0  0  0  0  0  0  0  0  0  0
   37.6010   27.2000   41.7910 C   0  0  0  0  0  0  0  0  0  0  0  0
   36.9090   27.2270   40.6420 C   0  0  0  0  0  0  0  0  0  0  0  0
   36.6940   25.9830   40.0750 C   0  0  0  0  0  0  0  0  0  0  0  0
   37.2030   24.8440   40.7230 N   0  0  0  0  0  0  0  0  0  0  0  0
   37.8790   24.9060   41.8530 C   0  0  0  0  0  0  0  0  0  0  0  0
   38.1120   26.1270   42.4500 N   0  0  0  0  0  0  0  0  0  0  0  0
   36.1630   25.7920   39.1630 H   0  0  0  0  0  0  0  0  0  0  0  0
   38.2110   23.9470   42.2340 H   0  0  0  0  0  0  0  0  0  0  0  0
   36.4940   28.3810   39.9290 C   0  0  0  0  0  0  0  0  0  0  0  0
   35.4700   28.5060   39.0430 C   0  0  0  0  0  0  0  0  0  0  0  0
   35.1310   29.0550   40.4030 C   0  0  0  0  0  0  0  0  0  0  0  0
   37.3050   29.1050   39.7220 H   0  0  0  0  0  0  0  0  0  0  0  0
   34.8550   27.6050   38.7750 H   0  0  0  0  0  0  0  0  0  0  0  0
   35.3200   29.2630   38.2330 H   0  0  0  0  0  0  0  0  0  0  0  0
   35.2150   30.1390   40.5980 H   0  0  0  0  0  0  0  0  0  0  0  0
   34.5660   28.4120   41.1090 H   0  0  0  0  0  0  0  0  0  0  0  0
  1  2  1  0  0  0  0
  2  3  1  0  0  0  0
  3 25  1  0  0  0  0
  3  4  2  0  0  0  0
  4  8  1  0  0  0  0
  5  4  1  0  0  0  0
  5  9  1  0  0  0  0
  6  5  2  0  0  0  0
  7  2  2  0  0  0  0
  7  6  1  0  0  0  0
 10  6  1  0  0  0  0
 11 12  1  0  0  0  0
 11  7  1  0  0  0  0
 12 13  1  0  0  0  0
 14 12  2  0  0  0  0
 15 21  1  0  0  0  0
 15 14  1  0  0  0  0
 16 15  2  0  0  0  0
 17 18  2  0  0  0  0
 17 16  1  0  0  0  0
 18 20  1  0  0  0  0
 19 18  1  0  0  0  0
 20 21  2  0  0  0  0
 21 11  1  0  0  0  0
 22 24  1  0  0  0  0
 22 16  1  0  0  0  0
 23 22  1  0  0  0  0
 25 26  2  0  0  0  0
 27 32  1  0  0  0  0
 27 25  1  0  0  0  0
 28 27  2  0  0  0  0
 29 28  1  0  0  0  0
 29 30  2  0  0  0  0
 30 31  1  0  0  0  0
 31 34  1  0  0  0  0
 31 32  2  0  0  0  0
 33 29  1  0  0  0  0
 35 37  1  0  0  0  0
 35 28  1  0  0  0  0
 36 35  1  0  0  0  0
 36 37  1  0  0  0  0
 37 41  1  0  0  0  0
 37 42  1  0  0  0  0
 38 35  1  0  0  0  0
 39 36  1  0  0  0  0
 40 36  1  0  0  0  0
M  END
>  <minimizedAffinity>
-6.17137766

$$$$

 OpenBabel03242523213D

 42 46  0  0  0  0  0  0  0  0999 V2000
   39.9290   28.8110   39.5980 Cl  0  0  0  0  0  0  0  0  0  0  0  0
   38.4720   29.6070   40.1880 C   0  0  0  0  0  0  0  0  0  0  0  0
   38.0750   30.7470   39.4560 C   0  0  0  0  0  0  0  0  0  0  0  0
   36.9260   31.3050   39.9980 C   0  0  0  0  0  0  0  0  0  0  0  0
   36.1990   30.9140   41.0550 C   0  0  0  0  0  0  0  0  0  0  0  0
   36.6500   29.8010   41.7070 C   0  0  0  0  0  0  0  0  0  0  0  0
   37.7600   29.1520   41.2960 C   0  0  0  0  0  0  0  0  0  0  0  0
   36.4950   32.2310   39.5620 H   0  0  0  0  0  0  0  0  0  0  0  0
   35.3140   31.3710   41.4420 H   0  0  0  0  0  0  0  0  0  0  0  0
   36.1950   29.3430   42.5750 H   0  0  0  0  0  0  0  0  0  0  0  0
   38.3420   27.9680   41.8960 N   0  0  0  0  0  0  0  0  0  0  0  0
   39.3680   27.9660   42.7910 C   0  0  0  0  0  0  0  0  0  0  0  0
   39.9010   28.8140   43.1920 H   0  0  0  0  0  0  0  0  0  0  0  0
   39.6500   26.6820   43.1380 N   0  0  0  0  0  0  0  0  0  0  0  0
   38.7970   25.8720   42.4570 C   0  0  0  0  0  0  0  0  0  0  0  0
   38.6990   24.4950   42.4790 C   0  0  0  0  0  0  0  0  0  0  0  0
   37.7350   23.9470   41.6800 N   0  0  0  0  0  0  0  0  0  0  0  0
   36.9530   24.7640   40.9330 C   0  0  0  0  0  0  0  0  0  0  0  0
   36.2130   24.2670   40.3260 H   0  0  0  0  0  0  0  0  0  0  0  0
   37.0480   26.1120   40.9120 N   0  0  0  0  0  0  0  0  0  0  0  0
   37.9940   26.6900   41.6920 C   0  0  0  0  0  0  0  0  0  0  0  0
   39.5740   23.7020   43.3050 N   0  0  0  0  0  0  0  0  0  0  0  0
   40.3110   23.6280   42.5940 H   0  0  0  0  0  0  0  0  0  0  0  0
   38.9030   23.6960   44.1290 H   0  0  0  0  0  0  0  0  0  0  0  0
   38.7440   31.3200   38.2500 C   0  0  0  0  0  0  0  0  0  0  0  0
   38.1320   30.7110   37.4070 O   0  0  0  0  0  0  0  0  0  0  0  0
   39.7570   32.2870   38.6930 C   0  0  0  0  0  0  0  0  0  0  0  0
   41.0530   32.2920   38.3490 C   0  0  0  0  0  0  0  0  0  0  0  0
   41.8120   33.2570   38.9880 C   0  0  0  0  0  0  0  0  0  0  0  0
   41.1820   34.1180   39.9060 N   0  0  0  0  0  0  0  0  0  0  0  0
   39.8970   34.0470   40.1860 C   0  0  0  0  0  0  0  0  0  0  0  0
   39.1080   33.0980   39.5710 N   0  0  0  0  0  0  0  0  0  0  0  0
   42.8630   33.4220   38.8530 H   0  0  0  0  0  0  0  0  0  0  0  0
   39.5520   34.7770   40.9100 H   0  0  0  0  0  0  0  0  0  0  0  0
   41.6660   31.5020   37.3420 C   0  0  0  0  0  0  0  0  0  0  0  0
   42.9620   31.5120   36.9290 C   0  0  0  0  0  0  0  0  0  0  0  0
   42.6520   30.3570   37.8420 C   0  0  0  0  0  0  0  0  0  0  0  0
   40.9810   31.1840   36.5320 H   0  0  0  0  0  0  0  0  0  0  0  0
   43.6830   32.2430   37.3860 H   0  0  0  0  0  0  0  0  0  0  0  0
   43.4000   31.1770   35.9560 H   0  0  0  0  0  0  0  0  0  0  0  0
   42.4300   29.3620   37.4170 H   0  0  0  0  0  0  0  0  0  0  0  0
   42.8960   30.4520   38.9200 H   0  0  0  0  0  0  0  0  0  0  0  0
  1  2  1  0  0  0  0
  2  7  1  0  0  0  0
  3  4  1  0  0  0  0
  3  2  2  0  0  0  0
  4  5  2  0  0  0  0
  5  9  1  0  0  0  0
  5  6  1  0  0  0  0
  6 10  1  0  0  0  0
  7  6  2  0  0  0  0
  7 11  1  0  0  0  0
  8  4  1  0  0  0  0
 11 12  1  0  0  0  0
 12 14  2  0  0  0  0
 12 13  1  0  0  0  0
 15 16  1  0  0  0  0
 15 14  1  0  0  0  0
 16 22  1  0  0  0  0
 17 16  2  0  0  0  0
 18 17  1  0  0  0  0
 19 18  1  0  0  0  0
 20 18  2  0  0  0  0
 20 21  1  0  0  0  0
 21 11  1  0  0  0  0
 21 15  2  0  0  0  0
 22 24  1  0  0  0  0
 23 22  1  0  0  0  0
 25 27  1  0  0  0  0
 25  3  1  0  0  0  0
 26 25  2  0  0  0  0
 27 32  1  0  0  0  0
 28 27  2  0  0  0  0
 28 29  1  0  0  0  0
 29 30  2  0  0  0  0
 30 31  1  0  0  0  0
 31 34  1  0  0  0  0
 32 31  2  0  0  0  0
 33 29  1  0  0  0  0
 35 37  1  0  0  0  0
 35 28  1  0  0  0  0
 36 35  1  0  0  0  0
 36 39  1  0  0  0  0
 36 37  1  0  0  0  0
 37 42  1  0  0  0  0
 38 35  1  0  0  0  0
 40 36  1  0  0  0  0
 41 37  1  0  0  0  0
M  END
>  <minimizedAffinity>
-6.15812302

$$$$

 OpenBabel03242523213D

 42 46  0  0  0  0  0  0  0  0999 V2000
   36.4280   27.6020   39.9530 Cl  0  0  0  0  0  0  0  0  0  0  0  0
   37.5070   27.4800   41.3400 C   0  0  0  0  0  0  0  0  0  0  0  0
   37.8140   26.1630   41.7470 C   0  0  0  0  0  0  0  0  0  0  0  0
   38.6620   26.1720   42.8440 C   0  0  0  0  0  0  0  0  0  0  0  0
   39.1890   27.2070   43.5130 C   0  0  0  0  0  0  0  0  0  0  0  0
   38.8430   28.4470   43.0570 C   0  0  0  0  0  0  0  0  0  0  0  0
   38.0210   28.5970   41.9960 C   0  0  0  0  0  0  0  0  0  0  0  0
   38.9780   25.2160   43.3140 H   0  0  0  0  0  0  0  0  0  0  0  0
   39.8430   27.1720   44.3580 H   0  0  0  0  0  0  0  0  0  0  0  0
   39.1700   29.3920   43.4700 H   0  0  0  0  0  0  0  0  0  0  0  0
   37.5780   29.8490   41.4150 N   0  0  0  0  0  0  0  0  0  0  0  0
   36.3020   30.3220   41.4520 C   0  0  0  0  0  0  0  0  0  0  0  0
   35.4360   29.8630   41.9030 H   0  0  0  0  0  0  0  0  0  0  0  0
   36.2560   31.5190   40.8100 N   0  0  0  0  0  0  0  0  0  0  0  0
   37.5090   31.8010   40.3660 C   0  0  0  0  0  0  0  0  0  0  0  0
   37.9590   32.9000   39.6620 C   0  0  0  0  0  0  0  0  0  0  0  0
   39.2880   32.9130   39.3480 N   0  0  0  0  0  0  0  0  0  0  0  0
   40.0680   31.8730   39.7350 C   0  0  0  0  0  0  0  0  0  0  0  0
   41.1070   31.9460   39.4540 H   0  0  0  0  0  0  0  0  0  0  0  0
   39.6290   30.7970   40.4240 N   0  0  0  0  0  0  0  0  0  0  0  0
   38.3150   30.7510   40.7530 C   0  0  0  0  0  0  0  0  0  0  0  0
   37.0570   33.9620   39.2910 N   0  0  0  0  0  0  0  0  0  0  0  0
   36.7760   33.5240   38.4070 H   0  0  0  0  0  0  0  0  0  0  0  0
   37.2540   34.5280   40.1700 H   0  0  0  0  0  0  0  0  0  0  0  0
   37.3390   24.8950   41.1180 C   0  0  0  0  0  0  0  0  0  0  0  0
   36.7310   24.4500   42.0610 O   0  0  0  0  0  0  0  0  0  0  0  0
   37.8350   24.8440   39.7360 C   0  0  0  0  0  0  0  0  0  0  0  0
   39.1130   24.9630   39.3470 C   0  0  0  0  0  0  0  0  0  0  0  0
   39.2950   24.9800   37.9750 C   0  0  0  0  0  0  0  0  0  0  0  0
   38.1680   24.8710   37.1400 N   0  0  0  0  0  0  0  0  0  0  0  0
   36.9410   24.7540   37.6060 C   0  0  0  0  0  0  0  0  0  0  0  0
   36.7190   24.7350   38.9670 N   0  0  0  0  0  0  0  0  0  0  0  0
   40.2350   25.0700   37.4670 H   0  0  0  0  0  0  0  0  0  0  0  0
   36.1740   24.6770   36.8440 H   0  0  0  0  0  0  0  0  0  0  0  0
   40.2580   24.9580   40.1850 C   0  0  0  0  0  0  0  0  0  0  0  0
   41.5700   24.9370   39.8260 C   0  0  0  0  0  0  0  0  0  0  0  0
   41.1030   26.3070   40.2390 C   0  0  0  0  0  0  0  0  0  0  0  0
   40.0970   24.4890   41.1740 H   0  0  0  0  0  0  0  0  0  0  0  0
   41.8460   24.8830   38.7380 H   0  0  0  0  0  0  0  0  0  0  0  0
   42.4620   24.6000   40.4120 H   0  0  0  0  0  0  0  0  0  0  0  0
   41.2960   26.6700   41.2630 H   0  0  0  0  0  0  0  0  0  0  0  0
   40.8020   27.0250   39.4490 H   0  0  0  0  0  0  0  0  0  0  0  0
  1  2  1  0  0  0  0
  2  3  2  0  0  0  0
  2  7  1  0  0  0  0
  3  4  1  0  0  0  0
  4  8  1  0  0  0  0
  4  5  2  0  0  0  0
  5  9  1  0  0  0  0
  6 10  1  0  0  0  0
  6  5  1  0  0  0  0
  7  6  2  0  0  0  0
 11 12  1  0  0  0  0
 11  7  1  0  0  0  0
 12 13  1  0  0  0  0
 14 12  2  0  0  0  0
 15 21  1  0  0  0  0
 15 14  1  0  0  0  0
 16 15  2  0  0  0  0
 17 16  1  0  0  0  0
 17 18  2  0  0  0  0
 18 20  1  0  0  0  0
 19 18  1  0  0  0  0
 20 21  2  0  0  0  0
 21 11  1  0  0  0  0
 22 16  1  0  0  0  0
 22 24  1  0  0  0  0
 23 22  1  0  0  0  0
 25  3  1  0  0  0  0
 25 26  2  0  0  0  0
 27 25  1  0  0  0  0
 28 27  1  0  0  0  0
 28 35  1  0  0  0  0
 29 28  2  0  0  0  0
 30 31  2  0  0  0  0
 30 29  1  0  0  0  0
 31 32  1  0  0  0  0
 32 27  2  0  0  0  0
 33 29  1  0  0  0  0
 34 31  1  0  0  0  0
 35 37  1  0  0  0  0
 35 38  1  0  0  0  0
 36 35  1  0  0  0  0
 36 37  1  0  0  0  0
 36 40  1  0  0  0  0
 37 41  1  0  0  0  0
 39 36  1  0  0  0  0
 42 37  1  0  0  0  0
M  END
>  <minimizedAffinity>
-5.93107748

$$$$
