
 OpenBabel03242521103D

 24 26  0  0  0  0  0  0  0  0999 V2000
   45.5610   33.0830   41.2850 H   0  0  0  0  0  0  0  0  0  0  0  0
   45.3020   33.5660   42.1710 N   0  0  0  0  0  0  0  0  0  0  0  0
   44.4070   34.5600   42.0910 C   0  0  0  0  0  0  0  0  0  0  0  0
   44.1980   35.0620   43.3360 N   0  0  0  0  0  0  0  0  0  0  0  0
   44.9550   34.3970   44.2240 C   0  0  0  0  0  0  0  0  0  0  0  0
   45.1800   34.4370   45.5890 C   0  0  0  0  0  0  0  0  0  0  0  0
   46.0620   33.5580   46.1400 N   0  0  0  0  0  0  0  0  0  0  0  0
   46.7020   32.6690   45.3620 C   0  0  0  0  0  0  0  0  0  0  0  0
   47.4030   31.9660   45.7790 H   0  0  0  0  0  0  0  0  0  0  0  0
   46.5000   32.6080   44.0120 N   0  0  0  0  0  0  0  0  0  0  0  0
   45.6270   33.4720   43.4520 C   0  0  0  0  0  0  0  0  0  0  0  0
   44.4530   35.4140   46.3150 N   0  0  0  0  0  0  0  0  0  0  0  0
   44.9190   36.3060   46.6220 H   0  0  0  0  0  0  0  0  0  0  0  0
   43.4420   35.3010   46.5740 H   0  0  0  0  0  0  0  0  0  0  0  0
   43.4610   35.3510   40.7990 S   0  0  0  0  0  0  0  0  0  0  0  0
   39.4990   34.7080   40.3840 C   0  0  0  0  0  0  0  0  0  0  0  0
   39.3850   33.3960   40.9330 C   0  0  0  0  0  0  0  0  0  0  0  0
   40.5470   32.7920   41.3980 C   0  0  0  0  0  0  0  0  0  0  0  0
   41.7300   33.4440   41.3220 N   0  0  0  0  0  0  0  0  0  0  0  0
   41.8030   34.7050   40.7880 C   0  0  0  0  0  0  0  0  0  0  0  0
   40.7030   35.3180   40.3300 N   0  0  0  0  0  0  0  0  0  0  0  0
   38.6200   35.1950   40.0190 H   0  0  0  0  0  0  0  0  0  0  0  0
   38.4110   32.9210   40.9680 H   0  0  0  0  0  0  0  0  0  0  0  0
   40.4860   31.7940   41.8200 H   0  0  0  0  0  0  0  0  0  0  0  0
  1  2  1  0  0  0  0
  2 11  1  0  0  0  0
  3  2  1  0  0  0  0
  3  4  2  0  0  0  0
  4  5  1  0  0  0  0
  5  6  1  0  0  0  0
  6  7  2  0  0  0  0
  6 12  1  0  0  0  0
  8  9  1  0  0  0  0
  8  7  1  0  0  0  0
 10  8  2  0  0  0  0
 11 10  1  0  0  0  0
 11  5  2  0  0  0  0
 12 14  1  0  0  0  0
 12 13  1  0  0  0  0
 15  3  1  0  0  0  0
 16 17  1  0  0  0  0
 17 23  1  0  0  0  0
 17 18  2  0  0  0  0
 18 24  1  0  0  0  0
 19 18  1  0  0  0  0
 20 15  1  0  0  0  0
 20 19  2  0  0  0  0
 21 16  2  0  0  0  0
 21 20  1  0  0  0  0
 22 16  1  0  0  0  0
M  END
>  <minimizedAffinity>
-5.0106101

>  <minimizedRMSD>
6.16059923

$$$$
