
     RDKit          3D

 48 51  0  0  0  0  0  0  0  0999 V2000
   45.1538   32.1032   48.1863 O   0  0  0  0  0  0  0  0  0  0  0  0
   46.9847   30.5703   48.2053 C   0  0  2  0  0  0  0  0  0  0  0  0
   45.5292   30.7960   48.3662 C   0  0  2  0  0  0  0  0  0  0  0  0
   44.8720   29.8814   47.4578 C   0  0  0  0  0  0  0  0  0  0  0  0
   45.7463   28.8219   47.1771 O   0  0  0  0  0  0  0  0  0  0  0  0
   46.8348   29.0176   47.9543 C   0  0  0  0  0  0  0  0  0  0  0  0
   47.7579   30.7317   49.2913 O   0  0  0  0  0  0  0  0  0  0  0  0
   49.0078   31.0922   49.2968 C   0  0  0  0  0  0  0  0  0  0  0  0
   49.7349   30.3279   50.3914 C   0  0  0  0  0  0  0  0  0  0  0  0
   47.1653   32.9995   46.9474 O   0  0  0  0  0  0  0  0  0  0  0  0
   45.7280   32.6717   46.7474 P   0  0  1  0  0  0  0  0  0  0  0  0
   45.5896   31.4709   45.5612 O   0  0  0  0  0  0  0  0  0  0  0  0
   44.9802   34.1279   46.2638 O   0  0  0  0  0  0  0  0  0  0  0  0
   44.9772   36.3889   43.4786 C   0  0  0  0  0  0  0  0  0  0  0  0
   45.0312   35.5431   42.3459 C   0  0  0  0  0  0  0  0  0  0  0  0
   45.0685   34.1562   42.6060 C   0  0  0  0  0  0  0  0  0  0  0  0
   45.0510   33.7259   43.8840 N   0  0  0  0  0  0  0  0  0  0  0  0
   44.9990   34.5675   44.9280 C   0  0  0  0  0  0  0  0  0  0  0  0
   44.9624   35.8920   44.7218 N   0  0  0  0  0  0  0  0  0  0  0  0
   44.9413   37.7351   43.2703 O   0  0  0  0  0  0  0  0  0  0  0  0
   47.4395   30.7711   47.2203 H   0  0  0  0  0  0  0  0  0  0  0  0
   45.3759   30.6367   49.4731 H   0  0  0  0  0  0  0  0  0  0  0  0
   44.1686   29.2933   48.1516 H   0  0  0  0  0  0  0  0  0  0  0  0
   44.1408   30.1402   46.7240 H   0  0  0  0  0  0  0  0  0  0  0  0
   46.6827   28.6194   48.9993 H   0  0  0  0  0  0  0  0  0  0  0  0
   47.7762   28.5919   47.6148 H   0  0  0  0  0  0  0  0  0  0  0  0
   49.3741   32.0709   49.1085 H   0  0  0  0  0  0  0  0  0  0  0  0
   49.4662   30.4801   48.3404 H   0  0  0  0  0  0  0  0  0  0  0  0
   49.4786   30.7117   51.3964 H   0  0  0  0  0  0  0  0  0  0  0  0
   49.4606   29.2623   50.2563 H   0  0  0  0  0  0  0  0  0  0  0  0
   50.8281   30.4780   50.1875 H   0  0  0  0  0  0  0  0  0  0  0  0
   46.1464   31.7452   44.8035 H   0  0  0  0  0  0  0  0  0  0  0  0
   45.0445   35.9006   41.3313 H   0  0  0  0  0  0  0  0  0  0  0  0
   45.1104   33.4502   41.7968 H   0  0  0  0  0  0  0  0  0  0  0  0
   46.2417   38.2617   45.7511 H   0  0  0  0  0  0  0  0  0  0  0  0
   45.5148   38.9236   45.4094 N   0  0  0  0  0  0  0  0  0  0  0  0
   44.8888   38.6940   44.2413 C   0  0  0  0  0  0  0  0  0  0  0  0
   44.0128   39.7098   44.0680 N   0  0  0  0  0  0  0  0  0  0  0  0
   44.1261   40.5325   45.1331 C   0  0  0  0  0  0  0  0  0  0  0  0
   43.5002   41.7175   45.5110 C   0  0  0  0  0  0  0  0  0  0  0  0
   42.4975   42.2798   44.6564 N   0  0  0  0  0  0  0  0  0  0  0  0
   42.3885   42.7743   43.7455 H   0  0  0  0  0  0  0  0  0  0  0  0
   43.7972   42.3628   46.6515 N   0  0  0  0  0  0  0  0  0  0  0  0
   44.7457   41.8446   47.4749 C   0  0  0  0  0  0  0  0  0  0  0  0
   45.0697   42.2721   48.4168 H   0  0  0  0  0  0  0  0  0  0  0  0
   45.3822   40.6851   47.1405 N   0  0  0  0  0  0  0  0  0  0  0  0
   45.0807   40.0493   46.0037 C   0  0  0  0  0  0  0  0  0  0  0  0
   41.5749   42.1226   45.1432 H   0  0  0  0  0  0  0  0  0  0  0  0
  1  3  1  0
  2  3  1  0
  2  7  1  0
  4  3  1  0
  5  4  1  0
  5  6  1  0
  6  2  1  0
  8  7  1  0
  8  9  1  0
 11 10  2  0
 11  1  1  1
 12 11  1  0
 13 11  1  0
 14 19  2  0
 15 16  2  0
 15 14  1  0
 16 17  1  0
 17 18  2  0
 18 13  1  0
 19 18  1  0
 20 14  1  0
  2 21  1  6
  3 22  1  1
  4 23  1  0
  4 24  1  0
  6 25  1  0
  6 26  1  0
  8 27  1  0
  8 28  1  0
  9 29  1  0
  9 30  1  0
  9 31  1  0
 12 32  1  0
 15 33  1  0
 16 34  1  0
 35 36  1  0
 36 37  1  0
 37 38  2  0
 38 39  1  0
 39 40  2  0
 40 41  1  0
 41 42  1  0
 40 43  1  0
 43 44  2  0
 44 45  1  0
 44 46  1  0
 46 47  2  0
 47 36  1  0
 47 39  1  0
 41 48  1  0
 20 37  1  0
M  ISO  8  21  13  22  13  23  13  24  13  25  13  26  13  27   8  28   8
M  ISO  8  29   8  30   8  31   8  32   3  33  14  34  14  35   9  42   5
M  ISO  1  45  16
M  END
>  <DihAtoms>  (1) 
13,19,36,35

>  <DihDeg>  (1) 
0.0004764281819901777

$$$$
