
 OpenBabel03242523313D

 27 29  0  0  0  0  0  0  0  0999 V2000
   45.4910   29.0990   45.6260 H   0  0  0  0  0  0  0  0  0  0  0  0
   46.4220   29.1360   46.1020 N   0  0  0  0  0  0  0  0  0  0  0  0
   47.2180   30.2150   46.0320 C   0  0  0  0  0  0  0  0  0  0  0  0
   48.3240   29.9290   46.7470 N   0  0  0  0  0  0  0  0  0  0  0  0
   48.2040   28.7010   47.2420 C   0  0  0  0  0  0  0  0  0  0  0  0
   49.0460   27.9460   48.0290 C   0  0  0  0  0  0  0  0  0  0  0  0
   48.6700   26.7000   48.3980 N   0  0  0  0  0  0  0  0  0  0  0  0
   47.4650   26.2170   47.9790 C   0  0  0  0  0  0  0  0  0  0  0  0
   47.2830   25.2130   48.3390 H   0  0  0  0  0  0  0  0  0  0  0  0
   46.6390   26.9440   47.2130 N   0  0  0  0  0  0  0  0  0  0  0  0
   46.9940   28.1750   46.8410 C   0  0  0  0  0  0  0  0  0  0  0  0
   50.2840   28.5210   48.4230 N   0  0  0  0  0  0  0  0  0  0  0  0
   50.3520   29.5440   48.6920 H   0  0  0  0  0  0  0  0  0  0  0  0
   51.2690   28.2170   48.5460 H   0  0  0  0  0  0  0  0  0  0  0  0
   47.0390   31.7860   45.2240 S   0  0  0  0  0  0  0  0  0  0  0  0
   45.9910   32.9240   46.1720 C   0  0  0  0  0  0  0  0  0  0  0  0
   45.1170   32.4120   46.6040 H   0  0  0  0  0  0  0  0  0  0  0  0
   46.5680   33.4100   47.0130 H   0  0  0  0  0  0  0  0  0  0  0  0
   44.4740   36.0020   44.7430 C   0  0  0  0  0  0  0  0  0  0  0  0
   45.0530   36.0550   43.4880 C   0  0  0  0  0  0  0  0  0  0  0  0
   45.9430   35.0450   43.1550 C   0  0  0  0  0  0  0  0  0  0  0  0
   46.2250   34.0510   44.0390 N   0  0  0  0  0  0  0  0  0  0  0  0
   45.6390   34.0330   45.2600 C   0  0  0  0  0  0  0  0  0  0  0  0
   44.7770   35.0070   45.5910 N   0  0  0  0  0  0  0  0  0  0  0  0
   43.7910   36.8150   44.9470 H   0  0  0  0  0  0  0  0  0  0  0  0
   44.9160   36.7830   42.6980 H   0  0  0  0  0  0  0  0  0  0  0  0
   46.4720   34.9590   42.2020 H   0  0  0  0  0  0  0  0  0  0  0  0
  1  2  1  0  0  0  0
  2 11  1  0  0  0  0
  3  2  1  0  0  0  0
  3  4  2  0  0  0  0
  4  5  1  0  0  0  0
  5  6  1  0  0  0  0
  6  7  2  0  0  0  0
  6 12  1  0  0  0  0
  8  9  1  0  0  0  0
  8  7  1  0  0  0  0
 10  8  2  0  0  0  0
 11 10  1  0  0  0  0
 11  5  2  0  0  0  0
 12 14  1  0  0  0  0
 12 13  1  0  0  0  0
 15  3  1  0  0  0  0
 15 16  1  0  0  0  0
 16 17  1  0  0  0  0
 16 18  1  0  0  0  0
 19 25  1  0  0  0  0
 19 24  1  0  0  0  0
 20 19  2  0  0  0  0
 21 20  1  0  0  0  0
 21 22  2  0  0  0  0
 22 23  1  0  0  0  0
 23 24  2  0  0  0  0
 23 16  1  0  0  0  0
 26 20  1  0  0  0  0
 27 21  1  0  0  0  0
M  END
>  <minimizedAffinity>
-3.9594717

>  <minimizedRMSD>
1.08856583

$$$$
