
 OpenBabel03242519413D

 34 36  0  0  0  0  0  0  0  0999 V2000
   48.0500   32.8460   41.9680 O   0  0  0  0  0  0  0  0  0  0  0  0
   47.1390   33.9580   41.3830 P   0  0  2  0  0  0  0  0  0  0  0  0
   45.5500   33.7480   42.0000 O   0  0  0  0  0  0  0  0  0  0  0  0
   44.3740   35.9460   44.6560 C   0  0  0  0  0  0  0  0  0  0  0  0
   44.6600   35.4480   43.3620 C   0  0  0  0  0  0  0  0  0  0  0  0
   45.2850   34.1990   43.2760 C   0  0  0  0  0  0  0  0  0  0  0  0
   45.5770   33.5440   44.4150 N   0  0  0  0  0  0  0  0  0  0  0  0
   45.2900   34.0460   45.6370 C   0  0  0  0  0  0  0  0  0  0  0  0
   44.6930   35.2390   45.7670 N   0  0  0  0  0  0  0  0  0  0  0  0
   43.8900   36.9150   44.7130 H   0  0  0  0  0  0  0  0  0  0  0  0
   44.3760   36.0670   42.5170 H   0  0  0  0  0  0  0  0  0  0  0  0
   45.5750   33.4240   46.4890 H   0  0  0  0  0  0  0  0  0  0  0  0
   47.0900   33.8070   39.7350 O   0  0  0  0  0  0  0  0  0  0  0  0
   46.1600   33.2280   38.9340 C   0  0  0  0  0  0  0  0  0  0  0  0
   46.6170   32.5090   37.8580 O   0  0  0  0  0  0  0  0  0  0  0  0
   44.6260   31.0800   37.7790 H   0  0  0  0  0  0  0  0  0  0  0  0
   44.0880   31.9340   38.1360 N   0  0  0  0  0  0  0  0  0  0  0  0
   44.7110   33.0040   38.7060 C   0  0  0  0  0  0  0  0  0  0  0  0
   43.6830   33.7740   38.9760 N   0  0  0  0  0  0  0  0  0  0  0  0
   42.5470   33.1830   38.5850 C   0  0  0  0  0  0  0  0  0  0  0  0
   41.3390   33.8080   38.7670 C   0  0  0  0  0  0  0  0  0  0  0  0
   40.2930   33.0610   38.3100 N   0  0  0  0  0  0  0  0  0  0  0  0
   40.4460   31.8520   37.7460 C   0  0  0  0  0  0  0  0  0  0  0  0
   39.5920   31.2820   37.3930 H   0  0  0  0  0  0  0  0  0  0  0  0
   41.7020   31.3260   37.6160 N   0  0  0  0  0  0  0  0  0  0  0  0
   42.7790   31.9600   38.0220 C   0  0  0  0  0  0  0  0  0  0  0  0
   41.0720   35.0770   39.3470 N   0  0  0  0  0  0  0  0  0  0  0  0
   40.7440   34.9710   40.3270 H   0  0  0  0  0  0  0  0  0  0  0  0
   41.2100   35.9770   38.8060 H   0  0  0  0  0  0  0  0  0  0  0  0
   47.7300   35.4070   41.9310 O   0  0  0  0  0  0  0  0  0  0  0  0
   48.9810   35.7010   41.4000 C   0  0  0  0  0  0  0  0  0  0  0  0
   49.4210   36.9630   41.7590 F   0  0  0  0  0  0  0  0  0  0  0  0
   49.8750   34.7270   41.7140 F   0  0  0  0  0  0  0  0  0  0  0  0
   48.8160   35.7240   40.0180 F   0  0  0  0  0  0  0  0  0  0  0  0
  2 30  1  0  0  0  0
  2  1  2  1  0  0  0
  2  3  1  0  0  0  0
  3  6  1  0  0  0  0
  4 10  1  0  0  0  0
  4  9  1  0  0  0  0
  5  4  2  0  0  0  0
  6  5  1  0  0  0  0
  6  7  2  0  0  0  0
  7  8  1  0  0  0  0
  8  9  2  0  0  0  0
  8 12  1  0  0  0  0
 11  5  1  0  0  0  0
 13  2  1  0  0  0  0
 14 13  1  0  0  0  0
 15 14  2  0  0  0  0
 16 17  1  0  0  0  0
 17 18  1  0  0  0  0
 18 14  1  0  0  0  0
 18 19  2  0  0  0  0
 20 21  1  0  0  0  0
 20 19  1  0  0  0  0
 21 27  1  0  0  0  0
 22 21  2  0  0  0  0
 23 22  1  0  0  0  0
 24 23  1  0  0  0  0
 25 23  2  0  0  0  0
 25 26  1  0  0  0  0
 26 17  1  0  0  0  0
 26 20  2  0  0  0  0
 27 28  1  0  0  0  0
 29 27  1  0  0  0  0
 31 33  1  0  0  0  0
 31 32  1  0  0  0  0
 31 30  1  0  0  0  0
 34 31  1  0  0  0  0
M  END
>  <minimizedAffinity>
-5.82356024

>  <minimizedRMSD>
3.49069071

$$$$
