
 OpenBabel03252506283D

 52 57  0  0  0  0  0  0  0  0999 V2000
   46.5030   32.6790   45.9690 C   0  0  0  0  0  0  0  0  0  0  0  0
   47.4900   31.6910   45.7630 C   0  0  0  0  0  0  0  0  0  0  0  0
   47.5510   30.9040   46.8610 C   0  0  0  0  0  0  0  0  0  0  0  0
   46.6360   31.3870   47.7150 N   0  0  0  0  0  0  0  0  0  0  0  0
   46.0070   32.4420   47.1950 N   0  0  0  0  0  0  0  0  0  0  0  0
   48.1430   31.5160   44.8950 H   0  0  0  0  0  0  0  0  0  0  0  0
   48.2100   30.0420   47.0320 H   0  0  0  0  0  0  0  0  0  0  0  0
   44.7740   35.4800   44.3860 C   0  0  0  0  0  0  0  0  0  0  0  0
   45.4790   35.6500   43.1970 C   0  0  0  0  0  0  0  0  0  0  0  0
   46.5490   34.7920   42.9490 C   0  0  0  0  0  0  0  0  0  0  0  0
   46.8370   33.8580   43.8670 N   0  0  0  0  0  0  0  0  0  0  0  0
   46.1620   33.6960   45.0060 C   0  0  0  0  0  0  0  0  0  0  0  0
   45.1240   34.5210   45.2550 N   0  0  0  0  0  0  0  0  0  0  0  0
   43.9270   36.1180   44.6390 H   0  0  0  0  0  0  0  0  0  0  0  0
   45.2040   36.4200   42.4890 H   0  0  0  0  0  0  0  0  0  0  0  0
   47.3200   34.8990   41.7580 N   0  0  0  0  0  0  0  0  0  0  0  0
   48.4390   35.6270   41.6340 C   0  0  0  0  0  0  0  0  0  0  0  0
   48.9010   36.2300   42.4290 H   0  0  0  0  0  0  0  0  0  0  0  0
   48.9250   35.5150   40.3770 N   0  0  0  0  0  0  0  0  0  0  0  0
   48.1110   34.7090   39.6960 C   0  0  0  0  0  0  0  0  0  0  0  0
   48.1410   34.2620   38.3870 C   0  0  0  0  0  0  0  0  0  0  0  0
   47.1430   33.4300   37.9860 N   0  0  0  0  0  0  0  0  0  0  0  0
   46.1560   33.0540   38.8410 C   0  0  0  0  0  0  0  0  0  0  0  0
   45.3900   32.3780   38.4310 H   0  0  0  0  0  0  0  0  0  0  0  0
   46.1520   33.5040   40.1080 N   0  0  0  0  0  0  0  0  0  0  0  0
   47.0910   34.3170   40.5700 C   0  0  0  0  0  0  0  0  0  0  0  0
   49.1980   34.6870   37.5320 N   0  0  0  0  0  0  0  0  0  0  0  0
   48.6660   35.4260   37.0220 H   0  0  0  0  0  0  0  0  0  0  0  0
   50.1950   34.4130   37.3920 H   0  0  0  0  0  0  0  0  0  0  0  0
   46.3500   30.8460   49.0380 C   0  0  0  0  0  0  0  0  0  0  0  0
   46.4080   31.6270   49.8170 H   0  0  0  0  0  0  0  0  0  0  0  0
   47.0770   30.0630   49.2930 H   0  0  0  0  0  0  0  0  0  0  0  0
   44.9960   30.2370   49.0670 C   0  0  0  0  0  0  0  0  0  0  0  0
   44.7780   29.9880   50.1450 H   0  0  0  0  0  0  0  0  0  0  0  0
   44.2570   31.0240   48.7950 H   0  0  0  0  0  0  0  0  0  0  0  0
   44.9240   27.7100   48.6640 C   0  0  0  0  0  0  0  0  0  0  0  0
   44.7920   29.0310   48.2960 C   0  0  0  0  0  0  0  0  0  0  0  0
   44.3980   29.2520   46.9720 C   0  0  0  0  0  0  0  0  0  0  0  0
   44.1640   28.2140   46.1070 C   0  0  0  0  0  0  0  0  0  0  0  0
   43.7850   28.1290   44.8090 N   0  0  0  0  0  0  0  0  0  0  0  0
   43.6910   26.8590   44.4110 C   0  0  0  0  0  0  0  0  0  0  0  0
   44.0220   26.0360   45.4840 C   0  0  0  0  0  0  0  0  0  0  0  0
   44.3010   26.9130   46.4880 C   0  0  0  0  0  0  0  0  0  0  0  0
   44.6880   26.6800   47.7930 C   0  0  0  0  0  0  0  0  0  0  0  0
   45.2330   27.5760   49.7060 H   0  0  0  0  0  0  0  0  0  0  0  0
   44.2560   30.2420   46.5480 H   0  0  0  0  0  0  0  0  0  0  0  0
   43.5920   28.9770   44.2100 H   0  0  0  0  0  0  0  0  0  0  0  0
   43.4030   26.5550   43.4110 H   0  0  0  0  0  0  0  0  0  0  0  0
   44.0250   24.9740   45.4300 H   0  0  0  0  0  0  0  0  0  0  0  0
   44.8550   25.3090   48.2780 C   0  0  0  0  0  0  0  0  0  0  0  0
   45.2820   25.0580   49.4320 O   0  0  0  0  0  0  0  0  0  0  0  0
   44.6120   24.4560   47.6430 H   0  0  0  0  0  0  0  0  0  0  0  0
  1  5  2  0  0  0  0
  2  1  1  0  0  0  0
  2  3  2  0  0  0  0
  3  7  1  0  0  0  0
  3  4  1  0  0  0  0
  4 30  1  0  0  0  0
  5  4  1  0  0  0  0
  6  2  1  0  0  0  0
  8 14  1  0  0  0  0
  8 13  1  0  0  0  0
  9  8  2  0  0  0  0
 10  9  1  0  0  0  0
 10 11  2  0  0  0  0
 11 12  1  0  0  0  0
 12 13  2  0  0  0  0
 12  1  1  0  0  0  0
 15  9  1  0  0  0  0
 16 10  1  0  0  0  0
 17 16  1  0  0  0  0
 17 18  1  0  0  0  0
 19 17  2  0  0  0  0
 20 19  1  0  0  0  0
 20 26  1  0  0  0  0
 21 20  2  0  0  0  0
 22 21  1  0  0  0  0
 22 23  2  0  0  0  0
 23 25  1  0  0  0  0
 24 23  1  0  0  0  0
 25 26  2  0  0  0  0
 26 16  1  0  0  0  0
 27 21  1  0  0  0  0
 28 27  1  0  0  0  0
 29 27  1  0  0  0  0
 30 33  1  0  0  0  0
 30 32  1  0  0  0  0
 30 31  1  0  0  0  0
 33 34  1  0  0  0  0
 35 33  1  0  0  0  0
 36 45  1  0  0  0  0
 37 36  1  0  0  0  0
 37 33  1  0  0  0  0
 38 37  2  0  0  0  0
 39 43  2  0  0  0  0
 39 38  1  0  0  0  0
 40 39  1  0  0  0  0
 41 40  1  0  0  0  0
 41 42  2  0  0  0  0
 42 43  1  0  0  0  0
 43 44  1  0  0  0  0
 44 50  1  0  0  0  0
 44 36  2  0  0  0  0
 46 38  1  0  0  0  0
 47 40  1  0  0  0  0
 48 41  1  0  0  0  0
 49 42  1  0  0  0  0
 50 51  2  0  0  0  0
 52 50  1  0  0  0  0
M  END
>  <minimizedAffinity>
-6.8013587

>  <minimizedRMSD>
1.20917642

$$$$
