
 OpenBabel03252504003D

 39 43  0  0  0  0  0  0  0  0999 V2000
   46.9110   35.0210   42.5970 C   0  0  0  0  0  0  0  0  0  0  0  0
   45.8920   35.9710   42.4520 C   0  0  0  0  0  0  0  0  0  0  0  0
   44.8300   35.9250   43.3510 C   0  0  0  0  0  0  0  0  0  0  0  0
   44.8430   34.9710   44.3110 N   0  0  0  0  0  0  0  0  0  0  0  0
   45.8420   34.0740   44.4190 C   0  0  0  0  0  0  0  0  0  0  0  0
   46.8810   34.0900   43.5670 N   0  0  0  0  0  0  0  0  0  0  0  0
   45.9080   36.7260   41.6710 H   0  0  0  0  0  0  0  0  0  0  0  0
   44.0300   36.6540   43.2550 H   0  0  0  0  0  0  0  0  0  0  0  0
   46.1750   31.7460   45.0970 C   0  0  0  0  0  0  0  0  0  0  0  0
   45.8360   33.0440   45.4690 C   0  0  0  0  0  0  0  0  0  0  0  0
   45.5150   33.3130   46.7790 C   0  0  0  0  0  0  0  0  0  0  0  0
   45.5320   32.2950   47.7090 C   0  0  0  0  0  0  0  0  0  0  0  0
   45.2760   32.2410   49.0170 N   0  0  0  0  0  0  0  0  0  0  0  0
   45.4280   31.0050   49.4990 C   0  0  0  0  0  0  0  0  0  0  0  0
   45.8030   30.1920   48.4670 C   0  0  0  0  0  0  0  0  0  0  0  0
   45.8680   31.0000   47.3460 C   0  0  0  0  0  0  0  0  0  0  0  0
   46.1930   30.7260   46.0240 C   0  0  0  0  0  0  0  0  0  0  0  0
   46.4330   31.5110   44.0650 H   0  0  0  0  0  0  0  0  0  0  0  0
   45.2520   34.3260   47.0620 H   0  0  0  0  0  0  0  0  0  0  0  0
   44.9930   33.0750   49.5780 H   0  0  0  0  0  0  0  0  0  0  0  0
   45.2760   30.7100   50.5400 H   0  0  0  0  0  0  0  0  0  0  0  0
   46.0080   29.1500   48.4960 H   0  0  0  0  0  0  0  0  0  0  0  0
   46.4600   29.7330   45.6990 H   0  0  0  0  0  0  0  0  0  0  0  0
   47.9800   35.1220   41.6340 C   0  0  0  0  0  0  0  0  0  0  0  0
   49.0880   35.7240   41.8390 O   0  0  0  0  0  0  0  0  0  0  0  0
   49.5100   35.3270   39.2100 H   0  0  0  0  0  0  0  0  0  0  0  0
   48.6750   34.7310   39.2670 N   0  0  0  0  0  0  0  0  0  0  0  0
   47.8350   34.5040   40.3000 C   0  0  0  0  0  0  0  0  0  0  0  0
   46.8820   33.6440   39.8990 N   0  0  0  0  0  0  0  0  0  0  0  0
   47.0860   33.3060   38.6200 C   0  0  0  0  0  0  0  0  0  0  0  0
   46.5120   32.5080   37.6500 C   0  0  0  0  0  0  0  0  0  0  0  0
   46.9670   32.3680   36.4050 N   0  0  0  0  0  0  0  0  0  0  0  0
   48.0840   33.0570   36.0430 C   0  0  0  0  0  0  0  0  0  0  0  0
   48.5700   33.0490   35.0800 H   0  0  0  0  0  0  0  0  0  0  0  0
   48.6660   33.8430   36.9670 N   0  0  0  0  0  0  0  0  0  0  0  0
   48.2190   33.9920   38.2220 C   0  0  0  0  0  0  0  0  0  0  0  0
   45.3440   31.7840   38.0180 N   0  0  0  0  0  0  0  0  0  0  0  0
   45.5850   30.9730   38.6620 H   0  0  0  0  0  0  0  0  0  0  0  0
   44.3130   31.6330   37.9750 H   0  0  0  0  0  0  0  0  0  0  0  0
  1  6  1  0  0  0  0
  2  1  2  0  0  0  0
  2  3  1  0  0  0  0
  3  4  2  0  0  0  0
  4  5  1  0  0  0  0
  5 10  1  0  0  0  0
  6  5  2  0  0  0  0
  7  2  1  0  0  0  0
  8  3  1  0  0  0  0
  9 10  2  0  0  0  0
  9 17  1  0  0  0  0
 10 11  1  0  0  0  0
 11 19  1  0  0  0  0
 11 12  2  0  0  0  0
 12 13  1  0  0  0  0
 13 14  1  0  0  0  0
 13 20  1  0  0  0  0
 14 21  1  0  0  0  0
 15 22  1  0  0  0  0
 15 14  2  0  0  0  0
 16 12  1  0  0  0  0
 16 15  1  0  0  0  0
 17 16  2  0  0  0  0
 18  9  1  0  0  0  0
 23 17  1  0  0  0  0
 24 25  2  0  0  0  0
 24  1  1  0  0  0  0
 26 27  1  0  0  0  0
 27 28  1  0  0  0  0
 28 24  1  0  0  0  0
 29 28  2  0  0  0  0
 30 29  1  0  0  0  0
 31 37  1  0  0  0  0
 31 30  2  0  0  0  0
 32 31  1  0  0  0  0
 33 32  2  0  0  0  0
 33 35  1  0  0  0  0
 34 33  1  0  0  0  0
 35 36  2  0  0  0  0
 36 30  1  0  0  0  0
 36 27  1  0  0  0  0
 37 38  1  0  0  0  0
 39 37  1  0  0  0  0
M  END
>  <minimizedAffinity>
-7.15272236

>  <minimizedRMSD>
1.15281272

$$$$
