
 OpenBabel03242523533D

 48 52  0  0  1  0  0  0  0  0999 V2000
   37.1780   31.8170   40.7040 C   0  0  1  0  0  0  0  0  0  0  0  0
   36.7200   30.3610   40.8250 C   0  0  1  0  0  0  0  0  0  0  0  0
   37.4620   29.5740   39.9270 O   0  0  0  0  0  0  0  0  0  0  0  0
   37.7780   30.2400   38.7480 C   0  0  0  0  0  0  0  0  0  0  0  0
   38.7900   31.3460   38.9870 C   0  0  2  0  0  0  0  0  0  0  0  0
   38.6840   31.7390   40.4760 C   0  0  1  0  0  0  0  0  0  0  0  0
   36.9950   32.3690   41.6610 H   0  0  0  0  0  0  0  0  0  0  0  0
   35.6450   30.2300   40.6940 H   0  0  0  0  0  0  0  0  0  0  0  0
   36.8720   30.5870   38.2120 H   0  0  0  0  0  0  0  0  0  0  0  0
   38.2280   29.4680   38.0920 H   0  0  0  0  0  0  0  0  0  0  0  0
   39.8120   31.0520   38.7240 H   0  0  0  0  0  0  0  0  0  0  0  0
   39.1310   30.8770   41.0290 H   0  0  0  0  0  0  0  0  0  0  0  0
   36.5610   32.4320   39.6160 O   0  0  0  0  0  0  0  0  0  0  0  0
   36.6320   33.4080   39.7300 H   0  0  0  0  0  0  0  0  0  0  0  0
   38.3740   32.4920   38.3010 O   0  0  0  0  0  0  0  0  0  0  0  0
   39.1400   33.0750   38.0810 H   0  0  0  0  0  0  0  0  0  0  0  0
   37.1400   29.9330   42.0920 O   0  0  0  0  0  0  0  0  0  0  0  0
   37.7150   28.7590   42.3610 C   0  0  0  0  0  0  0  0  0  0  0  0
   37.0380   27.5600   42.1480 C   0  0  0  0  0  0  0  0  0  0  0  0
   37.6870   26.3730   42.4430 C   0  0  0  0  0  0  0  0  0  0  0  0
   38.9780   26.3970   42.9390 N   0  0  0  0  0  0  0  0  0  0  0  0
   39.5940   27.5680   43.1290 C   0  0  0  0  0  0  0  0  0  0  0  0
   38.9790   28.7450   42.8470 N   0  0  0  0  0  0  0  0  0  0  0  0
   36.0380   27.5730   41.7630 H   0  0  0  0  0  0  0  0  0  0  0  0
   40.5990   27.5560   43.5160 H   0  0  0  0  0  0  0  0  0  0  0  0
   36.9850   25.0500   42.2360 C   0  0  0  0  0  0  0  0  0  0  0  0
   36.7040   24.6280   40.8140 C   0  0  0  0  0  0  0  0  0  0  0  0
   37.7220   23.9230   41.7270 C   0  0  0  0  0  0  0  0  0  0  0  0
   36.0670   24.9590   42.8660 H   0  0  0  0  0  0  0  0  0  0  0  0
   35.7750   24.0810   40.5580 H   0  0  0  0  0  0  0  0  0  0  0  0
   37.1810   25.2400   40.0190 H   0  0  0  0  0  0  0  0  0  0  0  0
   37.4240   22.8960   42.0800 H   0  0  0  0  0  0  0  0  0  0  0  0
   38.8020   24.0550   41.4980 H   0  0  0  0  0  0  0  0  0  0  0  0
   39.3390   32.9250   40.7140 O   0  0  0  0  0  0  0  0  0  0  0  0
   41.6720   32.9140   42.1310 H   0  0  0  0  0  0  0  0  0  0  0  0
   41.5830   33.1570   41.1170 N   0  0  0  0  0  0  0  0  0  0  0  0
   40.5830   33.2430   40.1920 C   0  0  0  0  0  0  0  0  0  0  0  0
   41.1570   33.6210   39.0350 N   0  0  0  0  0  0  0  0  0  0  0  0
   42.4760   33.7750   39.2030 C   0  0  0  0  0  0  0  0  0  0  0  0
   43.4160   34.1510   38.2720 C   0  0  0  0  0  0  0  0  0  0  0  0
   44.6840   34.2430   38.6570 N   0  0  0  0  0  0  0  0  0  0  0  0
   44.9900   33.9620   39.9430 C   0  0  0  0  0  0  0  0  0  0  0  0
   46.0290   34.0430   40.2340 H   0  0  0  0  0  0  0  0  0  0  0  0
   44.0600   33.5970   40.8340 N   0  0  0  0  0  0  0  0  0  0  0  0
   42.7570   33.4810   40.5280 C   0  0  0  0  0  0  0  0  0  0  0  0
   43.0870   34.4410   36.9330 N   0  0  0  0  0  0  0  0  0  0  0  0
   42.7140   35.4130   36.9330 H   0  0  0  0  0  0  0  0  0  0  0  0
   43.1390   33.9160   36.0170 H   0  0  0  0  0  0  0  0  0  0  0  0
  1  2  1  0  0  0  0
  1  7  1  1  0  0  0
  2  8  1  6  0  0  0
  2 17  1  0  0  0  0
  3  2  1  0  0  0  0
  4  5  1  0  0  0  0
  4  3  1  0  0  0  0
  5 11  1  6  0  0  0
  5  6  1  0  0  0  0
  6  1  1  0  0  0  0
  6 34  1  0  0  0  0
  6 12  1  1  0  0  0
  9  4  1  0  0  0  0
 10  4  1  0  0  0  0
 13 14  1  0  0  0  0
 13  1  1  0  0  0  0
 15  5  1  0  0  0  0
 16 15  1  0  0  0  0
 17 18  1  0  0  0  0
 18 23  1  0  0  0  0
 19 18  2  0  0  0  0
 19 20  1  0  0  0  0
 20 21  2  0  0  0  0
 21 22  1  0  0  0  0
 22 25  1  0  0  0  0
 23 22  2  0  0  0  0
 24 19  1  0  0  0  0
 26 20  1  0  0  0  0
 26 29  1  0  0  0  0
 27 28  1  0  0  0  0
 27 26  1  0  0  0  0
 28 32  1  0  0  0  0
 28 26  1  0  0  0  0
 30 27  1  0  0  0  0
 31 27  1  0  0  0  0
 33 28  1  0  0  0  0
 36 35  1  0  0  0  0
 37 34  1  0  0  0  0
 37 36  1  0  0  0  0
 38 39  1  0  0  0  0
 38 37  2  0  0  0  0
 39 45  1  0  0  0  0
 40 41  1  0  0  0  0
 40 39  2  0  0  0  0
 41 42  2  0  0  0  0
 42 43  1  0  0  0  0
 42 44  1  0  0  0  0
 45 44  2  0  0  0  0
 45 36  1  0  0  0  0
 46 40  1  0  0  0  0
 47 46  1  0  0  0  0
 48 46  1  0  0  0  0
M  END
>  <minimizedAffinity>
-7.33514881

$$$$

 OpenBabel03242523533D

 48 52  0  0  1  0  0  0  0  0999 V2000
   38.1810   32.2510   39.2200 C   0  0  1  0  0  0  0  0  0  0  0  0
   37.7440   30.8360   39.6090 C   0  0  1  0  0  0  0  0  0  0  0  0
   38.5990   29.9080   38.9880 O   0  0  0  0  0  0  0  0  0  0  0  0
   39.0310   30.3190   37.7320 C   0  0  0  0  0  0  0  0  0  0  0  0
   39.9850   31.4960   37.8280 C   0  0  2  0  0  0  0  0  0  0  0  0
   39.7040   32.1960   39.1750 C   0  0  1  0  0  0  0  0  0  0  0  0
   37.8800   32.9880   40.0090 H   0  0  0  0  0  0  0  0  0  0  0  0
   36.6930   30.6310   39.3980 H   0  0  0  0  0  0  0  0  0  0  0  0
   38.1840   30.5000   37.0400 H   0  0  0  0  0  0  0  0  0  0  0  0
   39.5690   29.4450   37.3120 H   0  0  0  0  0  0  0  0  0  0  0  0
   41.0370   31.1990   37.7440 H   0  0  0  0  0  0  0  0  0  0  0  0
   40.1050   31.4930   39.9470 H   0  0  0  0  0  0  0  0  0  0  0  0
   37.6760   32.5880   37.9660 O   0  0  0  0  0  0  0  0  0  0  0  0
   37.7130   33.5680   37.8700 H   0  0  0  0  0  0  0  0  0  0  0  0
   39.6250   32.4460   36.8670 O   0  0  0  0  0  0  0  0  0  0  0  0
   40.3970   33.0040   36.6070 H   0  0  0  0  0  0  0  0  0  0  0  0
   38.0280   30.7110   40.9760 O   0  0  0  0  0  0  0  0  0  0  0  0
   37.9300   29.5850   41.6870 C   0  0  0  0  0  0  0  0  0  0  0  0
   39.0440   29.0280   42.3110 C   0  0  0  0  0  0  0  0  0  0  0  0
   38.8790   27.8590   43.0350 C   0  0  0  0  0  0  0  0  0  0  0  0
   37.6300   27.2720   43.1250 N   0  0  0  0  0  0  0  0  0  0  0  0
   36.5860   27.8380   42.5120 C   0  0  0  0  0  0  0  0  0  0  0  0
   36.7220   28.9840   41.7960 N   0  0  0  0  0  0  0  0  0  0  0  0
   39.9990   29.5060   42.2230 H   0  0  0  0  0  0  0  0  0  0  0  0
   35.6250   27.3590   42.5990 H   0  0  0  0  0  0  0  0  0  0  0  0
   40.0640   27.2150   43.7200 C   0  0  0  0  0  0  0  0  0  0  0  0
   40.1630   25.7090   43.6670 C   0  0  0  0  0  0  0  0  0  0  0  0
   41.1270   26.6540   42.9280 C   0  0  0  0  0  0  0  0  0  0  0  0
   40.1970   27.5850   44.7650 H   0  0  0  0  0  0  0  0  0  0  0  0
   40.5610   25.1360   44.5290 H   0  0  0  0  0  0  0  0  0  0  0  0
   39.4490   25.1960   42.9880 H   0  0  0  0  0  0  0  0  0  0  0  0
   42.1720   26.6980   43.3430 H   0  0  0  0  0  0  0  0  0  0  0  0
   41.0490   26.7100   41.8200 H   0  0  0  0  0  0  0  0  0  0  0  0
   40.3030   33.4330   39.2140 O   0  0  0  0  0  0  0  0  0  0  0  0
   41.0050   33.1330   41.8340 H   0  0  0  0  0  0  0  0  0  0  0  0
   41.6480   33.4410   41.0680 N   0  0  0  0  0  0  0  0  0  0  0  0
   41.5690   33.6680   39.7250 C   0  0  0  0  0  0  0  0  0  0  0  0
   42.7930   34.0590   39.3250 N   0  0  0  0  0  0  0  0  0  0  0  0
   43.6330   34.0850   40.3670 C   0  0  0  0  0  0  0  0  0  0  0  0
   44.9640   34.4280   40.3800 C   0  0  0  0  0  0  0  0  0  0  0  0
   45.6160   34.3850   41.5370 N   0  0  0  0  0  0  0  0  0  0  0  0
   44.9400   34.0050   42.6450 C   0  0  0  0  0  0  0  0  0  0  0  0
   45.4900   33.9770   43.5750 H   0  0  0  0  0  0  0  0  0  0  0  0
   43.6430   33.6740   42.6100 N   0  0  0  0  0  0  0  0  0  0  0  0
   42.9120   33.6920   41.4830 C   0  0  0  0  0  0  0  0  0  0  0  0
   45.6610   34.8230   39.2200 N   0  0  0  0  0  0  0  0  0  0  0  0
   45.4150   35.8220   39.0650 H   0  0  0  0  0  0  0  0  0  0  0  0
   46.3190   34.3480   38.5420 H   0  0  0  0  0  0  0  0  0  0  0  0
  1  2  1  0  0  0  0
  1  7  1  1  0  0  0
  2  8  1  6  0  0  0
  2 17  1  0  0  0  0
  3  2  1  0  0  0  0
  4  5  1  0  0  0  0
  4  3  1  0  0  0  0
  5 11  1  6  0  0  0
  5  6  1  0  0  0  0
  6 34  1  0  0  0  0
  6  1  1  0  0  0  0
  6 12  1  1  0  0  0
  9  4  1  0  0  0  0
 10  4  1  0  0  0  0
 13  1  1  0  0  0  0
 14 13  1  0  0  0  0
 15  5  1  0  0  0  0
 16 15  1  0  0  0  0
 17 18  1  0  0  0  0
 18 23  2  0  0  0  0
 18 19  1  0  0  0  0
 19 20  2  0  0  0  0
 20 21  1  0  0  0  0
 20 26  1  0  0  0  0
 22 25  1  0  0  0  0
 22 21  2  0  0  0  0
 23 22  1  0  0  0  0
 24 19  1  0  0  0  0
 26 29  1  0  0  0  0
 27 26  1  0  0  0  0
 27 30  1  0  0  0  0
 28 32  1  0  0  0  0
 28 27  1  0  0  0  0
 28 26  1  0  0  0  0
 31 27  1  0  0  0  0
 33 28  1  0  0  0  0
 34 37  1  0  0  0  0
 36 45  1  0  0  0  0
 36 35  1  0  0  0  0
 37 36  1  0  0  0  0
 38 37  2  0  0  0  0
 38 39  1  0  0  0  0
 39 40  2  0  0  0  0
 39 45  1  0  0  0  0
 40 41  1  0  0  0  0
 41 42  2  0  0  0  0
 42 43  1  0  0  0  0
 44 42  1  0  0  0  0
 45 44  2  0  0  0  0
 46 40  1  0  0  0  0
 47 46  1  0  0  0  0
 48 46  1  0  0  0  0
M  END
>  <minimizedAffinity>
-6.87164688

$$$$

 OpenBabel03242523533D

 48 52  0  0  1  0  0  0  0  0999 V2000
   37.8620   32.4310   40.5520 C   0  0  1  0  0  0  0  0  0  0  0  0
   37.5200   31.0210   41.0420 C   0  0  1  0  0  0  0  0  0  0  0  0
   37.5560   30.1380   39.9480 O   0  0  0  0  0  0  0  0  0  0  0  0
   37.1280   30.7210   38.7600 C   0  0  0  0  0  0  0  0  0  0  0  0
   38.1180   31.7590   38.2610 C   0  0  2  0  0  0  0  0  0  0  0  0
   38.9320   32.2300   39.4850 C   0  0  1  0  0  0  0  0  0  0  0  0
   38.3020   33.0410   41.3820 H   0  0  0  0  0  0  0  0  0  0  0  0
   36.5750   30.9650   41.5840 H   0  0  0  0  0  0  0  0  0  0  0  0
   36.0930   31.1080   38.8370 H   0  0  0  0  0  0  0  0  0  0  0  0
   37.0750   29.8860   38.0320 H   0  0  0  0  0  0  0  0  0  0  0  0
   38.7730   31.3760   37.4700 H   0  0  0  0  0  0  0  0  0  0  0  0
   39.5930   31.3640   39.7360 H   0  0  0  0  0  0  0  0  0  0  0  0
   36.7370   33.0370   39.9940 O   0  0  0  0  0  0  0  0  0  0  0  0
   36.8930   34.0090   39.9610 H   0  0  0  0  0  0  0  0  0  0  0  0
   37.4120   32.8970   37.8610 O   0  0  0  0  0  0  0  0  0  0  0  0
   37.9140   33.4110   37.1840 H   0  0  0  0  0  0  0  0  0  0  0  0
   38.5990   30.6250   41.8450 O   0  0  0  0  0  0  0  0  0  0  0  0
   38.6800   29.4740   42.5170 C   0  0  0  0  0  0  0  0  0  0  0  0
   39.8790   28.7680   42.5920 C   0  0  0  0  0  0  0  0  0  0  0  0
   39.9020   27.5810   43.3050 C   0  0  0  0  0  0  0  0  0  0  0  0
   38.7520   27.1220   43.9210 N   0  0  0  0  0  0  0  0  0  0  0  0
   37.6220   27.8290   43.8250 C   0  0  0  0  0  0  0  0  0  0  0  0
   37.5730   28.9960   43.1320 N   0  0  0  0  0  0  0  0  0  0  0  0
   40.7540   29.1490   42.1050 H   0  0  0  0  0  0  0  0  0  0  0  0
   36.7410   27.4470   44.3150 H   0  0  0  0  0  0  0  0  0  0  0  0
   41.1810   26.7780   43.4040 C   0  0  0  0  0  0  0  0  0  0  0  0
   42.4590   27.4520   42.9640 C   0  0  0  0  0  0  0  0  0  0  0  0
   42.1430   27.0930   44.4270 C   0  0  0  0  0  0  0  0  0  0  0  0
   41.0810   25.7710   42.9330 H   0  0  0  0  0  0  0  0  0  0  0  0
   43.2560   26.8760   42.4520 H   0  0  0  0  0  0  0  0  0  0  0  0
   42.3920   28.5410   42.7580 H   0  0  0  0  0  0  0  0  0  0  0  0
   42.7490   26.2470   44.8580 H   0  0  0  0  0  0  0  0  0  0  0  0
   41.9190   27.9260   45.1270 H   0  0  0  0  0  0  0  0  0  0  0  0
   39.6370   33.3730   39.1890 O   0  0  0  0  0  0  0  0  0  0  0  0
   41.9780   33.1830   37.8000 H   0  0  0  0  0  0  0  0  0  0  0  0
   41.8910   33.4900   38.7970 N   0  0  0  0  0  0  0  0  0  0  0  0
   40.8880   33.6700   39.7040 C   0  0  0  0  0  0  0  0  0  0  0  0
   41.4670   34.0920   40.8430 N   0  0  0  0  0  0  0  0  0  0  0  0
   42.7930   34.1820   40.6810 C   0  0  0  0  0  0  0  0  0  0  0  0
   43.7390   34.5730   41.5990 C   0  0  0  0  0  0  0  0  0  0  0  0
   45.0140   34.5900   41.2240 N   0  0  0  0  0  0  0  0  0  0  0  0
   45.3190   34.2220   39.9590 C   0  0  0  0  0  0  0  0  0  0  0  0
   46.3620   34.2440   39.6750 H   0  0  0  0  0  0  0  0  0  0  0  0
   44.3820   33.8450   39.0800 N   0  0  0  0  0  0  0  0  0  0  0  0
   43.0720   33.8000   39.3790 C   0  0  0  0  0  0  0  0  0  0  0  0
   43.4120   34.9550   42.9150 N   0  0  0  0  0  0  0  0  0  0  0  0
   43.2780   34.0690   43.4460 H   0  0  0  0  0  0  0  0  0  0  0  0
   43.2860   35.8750   43.4210 H   0  0  0  0  0  0  0  0  0  0  0  0
  1  2  1  0  0  0  0
  1  7  1  1  0  0  0
  2  8  1  1  0  0  0
  2 17  1  0  0  0  0
  3  2  1  0  0  0  0
  4  9  1  0  0  0  0
  4  3  1  0  0  0  0
  5 11  1  6  0  0  0
  5  4  1  0  0  0  0
  5  6  1  0  0  0  0
  6 12  1  1  0  0  0
  6  1  1  0  0  0  0
 10  4  1  0  0  0  0
 13  1  1  0  0  0  0
 14 13  1  0  0  0  0
 15  5  1  0  0  0  0
 16 15  1  0  0  0  0
 17 18  1  0  0  0  0
 18 19  2  0  0  0  0
 18 23  1  0  0  0  0
 19 20  1  0  0  0  0
 20 26  1  0  0  0  0
 20 21  2  0  0  0  0
 22 21  1  0  0  0  0
 22 25  1  0  0  0  0
 23 22  2  0  0  0  0
 24 19  1  0  0  0  0
 26 28  1  0  0  0  0
 27 26  1  0  0  0  0
 27 28  1  0  0  0  0
 28 32  1  0  0  0  0
 28 33  1  0  0  0  0
 29 26  1  0  0  0  0
 30 27  1  0  0  0  0
 31 27  1  0  0  0  0
 34  6  1  0  0  0  0
 34 37  1  0  0  0  0
 35 36  1  0  0  0  0
 36 45  1  0  0  0  0
 36 37  1  0  0  0  0
 37 38  2  0  0  0  0
 39 38  1  0  0  0  0
 39 40  1  0  0  0  0
 40 46  1  0  0  0  0
 41 40  2  0  0  0  0
 42 41  1  0  0  0  0
 43 42  1  0  0  0  0
 44 45  1  0  0  0  0
 44 42  2  0  0  0  0
 45 39  2  0  0  0  0
 46 48  1  0  0  0  0
 46 47  1  0  0  0  0
M  END
>  <minimizedAffinity>
-6.85657167

$$$$

 OpenBabel03242523533D

 48 52  0  0  1  0  0  0  0  0999 V2000
   41.5940   32.5170   40.3240 C   0  0  1  0  0  0  0  0  0  0  0  0
   42.5160   32.2820   41.5230 C   0  0  1  0  0  0  0  0  0  0  0  0
   43.0120   33.5210   41.9670 O   0  0  0  0  0  0  0  0  0  0  0  0
   43.2230   34.4270   40.9330 C   0  0  0  0  0  0  0  0  0  0  0  0
   41.9120   34.8970   40.3280 C   0  0  2  0  0  0  0  0  0  0  0  0
   40.8570   33.8140   40.6410 C   0  0  1  0  0  0  0  0  0  0  0  0
   40.8370   31.6950   40.2410 H   0  0  0  0  0  0  0  0  0  0  0  0
   43.3170   31.5680   41.3240 H   0  0  0  0  0  0  0  0  0  0  0  0
   43.9360   34.0370   40.1790 H   0  0  0  0  0  0  0  0  0  0  0  0
   43.7380   35.2880   41.4050 H   0  0  0  0  0  0  0  0  0  0  0  0
   41.5990   35.8790   40.7020 H   0  0  0  0  0  0  0  0  0  0  0  0
   40.6680   33.9120   41.7380 H   0  0  0  0  0  0  0  0  0  0  0  0
   42.3410   32.6630   39.1570 O   0  0  0  0  0  0  0  0  0  0  0  0
   41.7450   32.5180   38.3870 H   0  0  0  0  0  0  0  0  0  0  0  0
   42.0250   34.8710   38.9340 O   0  0  0  0  0  0  0  0  0  0  0  0
   41.4080   35.5150   38.5130 H   0  0  0  0  0  0  0  0  0  0  0  0
   41.6850   31.8460   42.5650 O   0  0  0  0  0  0  0  0  0  0  0  0
   41.1280   30.6360   42.6550 C   0  0  0  0  0  0  0  0  0  0  0  0
   39.7520   30.4870   42.8150 C   0  0  0  0  0  0  0  0  0  0  0  0
   39.2330   29.2050   42.9020 C   0  0  0  0  0  0  0  0  0  0  0  0
   40.0760   28.1120   42.8290 N   0  0  0  0  0  0  0  0  0  0  0  0
   41.3910   28.2970   42.6760 C   0  0  0  0  0  0  0  0  0  0  0  0
   41.9250   29.5430   42.5880 N   0  0  0  0  0  0  0  0  0  0  0  0
   39.1240   31.3530   42.8680 H   0  0  0  0  0  0  0  0  0  0  0  0
   42.0240   27.4270   42.6220 H   0  0  0  0  0  0  0  0  0  0  0  0
   37.7460   28.9980   43.0860 C   0  0  0  0  0  0  0  0  0  0  0  0
   37.1540   27.7110   42.5620 C   0  0  0  0  0  0  0  0  0  0  0  0
   37.2740   28.0480   44.0590 C   0  0  0  0  0  0  0  0  0  0  0  0
   37.1540   29.8780   42.7380 H   0  0  0  0  0  0  0  0  0  0  0  0
   36.1400   27.6940   42.1160 H   0  0  0  0  0  0  0  0  0  0  0  0
   37.8800   26.9380   42.2300 H   0  0  0  0  0  0  0  0  0  0  0  0
   36.3020   28.2700   44.5820 H   0  0  0  0  0  0  0  0  0  0  0  0
   38.0220   27.4860   44.6580 H   0  0  0  0  0  0  0  0  0  0  0  0
   39.7250   34.0050   39.8830 O   0  0  0  0  0  0  0  0  0  0  0  0
   39.3590   32.6580   37.5380 H   0  0  0  0  0  0  0  0  0  0  0  0
   38.7940   32.5190   38.4080 N   0  0  0  0  0  0  0  0  0  0  0  0
   38.7600   33.0330   39.6710 C   0  0  0  0  0  0  0  0  0  0  0  0
   37.7640   32.4040   40.3200 N   0  0  0  0  0  0  0  0  0  0  0  0
   37.1740   31.5160   39.5090 C   0  0  0  0  0  0  0  0  0  0  0  0
   36.1210   30.6760   39.7860 C   0  0  0  0  0  0  0  0  0  0  0  0
   35.6880   29.8670   38.8250 N   0  0  0  0  0  0  0  0  0  0  0  0
   36.3040   29.9080   37.6220 C   0  0  0  0  0  0  0  0  0  0  0  0
   35.9350   29.2410   36.8550 H   0  0  0  0  0  0  0  0  0  0  0  0
   37.3270   30.7340   37.3720 N   0  0  0  0  0  0  0  0  0  0  0  0
   37.8250   31.5830   38.2880 C   0  0  0  0  0  0  0  0  0  0  0  0
   35.4860   30.6400   41.0440 N   0  0  0  0  0  0  0  0  0  0  0  0
   34.8310   31.4490   41.0570 H   0  0  0  0  0  0  0  0  0  0  0  0
   35.5410   30.0140   41.8940 H   0  0  0  0  0  0  0  0  0  0  0  0
  1  7  1  6  0  0  0
  1  6  1  0  0  0  0
  1  2  1  0  0  0  0
  2  8  1  6  0  0  0
  2  3  1  0  0  0  0
  2 17  1  0  0  0  0
  4 10  1  0  0  0  0
  4  3  1  0  0  0  0
  5  6  1  0  0  0  0
  5 11  1  1  0  0  0
  5  4  1  0  0  0  0
  6 12  1  1  0  0  0
  9  4  1  0  0  0  0
 13  1  1  0  0  0  0
 14 13  1  0  0  0  0
 15  5  1  0  0  0  0
 16 15  1  0  0  0  0
 17 18  1  0  0  0  0
 18 19  1  0  0  0  0
 19 24  1  0  0  0  0
 19 20  2  0  0  0  0
 20 26  1  0  0  0  0
 21 20  1  0  0  0  0
 22 21  2  0  0  0  0
 23 18  2  0  0  0  0
 23 22  1  0  0  0  0
 25 22  1  0  0  0  0
 26 28  1  0  0  0  0
 27 26  1  0  0  0  0
 27 28  1  0  0  0  0
 28 32  1  0  0  0  0
 28 33  1  0  0  0  0
 29 26  1  0  0  0  0
 30 27  1  0  0  0  0
 31 27  1  0  0  0  0
 34  6  1  0  0  0  0
 35 36  1  0  0  0  0
 36 37  1  0  0  0  0
 37 34  1  0  0  0  0
 37 38  2  0  0  0  0
 39 40  1  0  0  0  0
 39 38  1  0  0  0  0
 40 46  1  0  0  0  0
 41 40  2  0  0  0  0
 42 41  1  0  0  0  0
 43 42  1  0  0  0  0
 44 42  2  0  0  0  0
 44 45  1  0  0  0  0
 45 36  1  0  0  0  0
 45 39  2  0  0  0  0
 46 47  1  0  0  0  0
 46 48  1  0  0  0  0
M  END
>  <minimizedAffinity>
-6.80785704

$$$$

 OpenBabel03242523533D

 48 52  0  0  1  0  0  0  0  0999 V2000
   38.8100   31.6050   39.9520 C   0  0  1  0  0  0  0  0  0  0  0  0
   39.7360   32.3670   40.9030 C   0  0  1  0  0  0  0  0  0  0  0  0
   39.2470   33.6750   41.0660 O   0  0  0  0  0  0  0  0  0  0  0  0
   38.6520   34.1830   39.9160 C   0  0  0  0  0  0  0  0  0  0  0  0
   37.3450   33.4750   39.6060 C   0  0  2  0  0  0  0  0  0  0  0  0
   37.4060   32.0940   40.2920 C   0  0  1  0  0  0  0  0  0  0  0  0
   38.8570   30.5040   40.1530 H   0  0  0  0  0  0  0  0  0  0  0  0
   40.7830   32.3560   40.5940 H   0  0  0  0  0  0  0  0  0  0  0  0
   39.3530   34.1980   39.0570 H   0  0  0  0  0  0  0  0  0  0  0  0
   38.4470   35.2480   40.1430 H   0  0  0  0  0  0  0  0  0  0  0  0
   36.4660   34.0440   39.9310 H   0  0  0  0  0  0  0  0  0  0  0  0
   37.3100   32.3160   41.3830 H   0  0  0  0  0  0  0  0  0  0  0  0
   39.1160   31.9100   38.6270 O   0  0  0  0  0  0  0  0  0  0  0  0
   38.7290   31.2120   38.0500 H   0  0  0  0  0  0  0  0  0  0  0  0
   37.3080   33.1770   38.2400 O   0  0  0  0  0  0  0  0  0  0  0  0
   36.3790   33.1030   37.9140 H   0  0  0  0  0  0  0  0  0  0  0  0
   39.5650   31.7720   42.1610 O   0  0  0  0  0  0  0  0  0  0  0  0
   39.7860   30.4860   42.4450 C   0  0  0  0  0  0  0  0  0  0  0  0
   38.7430   29.6440   42.8260 C   0  0  0  0  0  0  0  0  0  0  0  0
   39.0340   28.3190   43.1060 C   0  0  0  0  0  0  0  0  0  0  0  0
   40.3350   27.8610   43.0060 N   0  0  0  0  0  0  0  0  0  0  0  0
   41.3070   28.7010   42.6370 C   0  0  0  0  0  0  0  0  0  0  0  0
   41.0480   30.0040   42.3570 N   0  0  0  0  0  0  0  0  0  0  0  0
   37.7460   30.0280   42.8950 H   0  0  0  0  0  0  0  0  0  0  0  0
   42.3110   28.3160   42.5670 H   0  0  0  0  0  0  0  0  0  0  0  0
   37.9340   27.3730   43.5330 C   0  0  0  0  0  0  0  0  0  0  0  0
   36.8500   27.9270   44.4280 C   0  0  0  0  0  0  0  0  0  0  0  0
   36.6170   27.5080   42.9660 C   0  0  0  0  0  0  0  0  0  0  0  0
   38.3380   26.4170   43.9440 H   0  0  0  0  0  0  0  0  0  0  0  0
   36.3970   27.3020   45.2230 H   0  0  0  0  0  0  0  0  0  0  0  0
   36.8510   29.0290   44.5720 H   0  0  0  0  0  0  0  0  0  0  0  0
   36.0070   26.5730   42.8240 H   0  0  0  0  0  0  0  0  0  0  0  0
   36.4420   28.3130   42.2190 H   0  0  0  0  0  0  0  0  0  0  0  0
   36.4080   31.2730   39.8220 O   0  0  0  0  0  0  0  0  0  0  0  0
   36.2040   28.6380   40.5040 H   0  0  0  0  0  0  0  0  0  0  0  0
   36.4510   28.9990   39.5520 N   0  0  0  0  0  0  0  0  0  0  0  0
   36.6180   30.2140   38.9550 C   0  0  0  0  0  0  0  0  0  0  0  0
   36.9430   29.9730   37.6710 N   0  0  0  0  0  0  0  0  0  0  0  0
   36.9860   28.6540   37.4450 C   0  0  0  0  0  0  0  0  0  0  0  0
   37.2790   27.9990   36.2730 C   0  0  0  0  0  0  0  0  0  0  0  0
   37.2650   26.6700   36.2710 N   0  0  0  0  0  0  0  0  0  0  0  0
   36.9630   26.0270   37.4210 C   0  0  0  0  0  0  0  0  0  0  0  0
   36.9580   24.9460   37.3960 H   0  0  0  0  0  0  0  0  0  0  0  0
   36.6810   26.6840   38.5520 N   0  0  0  0  0  0  0  0  0  0  0  0
   36.6740   28.0250   38.6400 C   0  0  0  0  0  0  0  0  0  0  0  0
   37.5920   28.6790   35.0790 N   0  0  0  0  0  0  0  0  0  0  0  0
   38.5920   28.9570   35.1610 H   0  0  0  0  0  0  0  0  0  0  0  0
   37.0620   28.9380   34.2010 H   0  0  0  0  0  0  0  0  0  0  0  0
  1  7  1  1  0  0  0
  1  6  1  0  0  0  0
  1  2  1  0  0  0  0
  2  8  1  6  0  0  0
  2  3  1  0  0  0  0
  2 17  1  0  0  0  0
  4 10  1  0  0  0  0
  4  3  1  0  0  0  0
  5  4  1  0  0  0  0
  5 11  1  1  0  0  0
  5  6  1  0  0  0  0
  6 12  1  1  0  0  0
  9  4  1  0  0  0  0
 13  1  1  0  0  0  0
 14 13  1  0  0  0  0
 15  5  1  0  0  0  0
 16 15  1  0  0  0  0
 17 18  1  0  0  0  0
 18 19  1  0  0  0  0
 19 24  1  0  0  0  0
 19 20  2  0  0  0  0
 20 26  1  0  0  0  0
 21 20  1  0  0  0  0
 22 21  2  0  0  0  0
 23 18  2  0  0  0  0
 23 22  1  0  0  0  0
 25 22  1  0  0  0  0
 26 29  1  0  0  0  0
 26 27  1  0  0  0  0
 27 31  1  0  0  0  0
 27 30  1  0  0  0  0
 28 26  1  0  0  0  0
 28 27  1  0  0  0  0
 32 28  1  0  0  0  0
 33 28  1  0  0  0  0
 34  6  1  0  0  0  0
 36 35  1  0  0  0  0
 37 36  1  0  0  0  0
 37 34  1  0  0  0  0
 38 37  2  0  0  0  0
 39 38  1  0  0  0  0
 39 45  1  0  0  0  0
 40 39  2  0  0  0  0
 41 40  1  0  0  0  0
 41 42  2  0  0  0  0
 42 44  1  0  0  0  0
 43 42  1  0  0  0  0
 44 45  2  0  0  0  0
 45 36  1  0  0  0  0
 46 47  1  0  0  0  0
 46 40  1  0  0  0  0
 48 46  1  0  0  0  0
M  END
>  <minimizedAffinity>
-6.63177013

$$$$

 OpenBabel03242523533D

 48 52  0  0  1  0  0  0  0  0999 V2000
   39.0140   31.6190   40.4930 C   0  0  1  0  0  0  0  0  0  0  0  0
   38.6320   30.5110   41.4780 C   0  0  1  0  0  0  0  0  0  0  0  0
   37.2930   30.1420   41.2530 O   0  0  0  0  0  0  0  0  0  0  0  0
   36.4910   31.2090   40.8640 C   0  0  0  0  0  0  0  0  0  0  0  0
   36.8440   31.6920   39.4690 C   0  0  2  0  0  0  0  0  0  0  0  0
   38.3000   31.2560   39.1950 C   0  0  1  0  0  0  0  0  0  0  0  0
   40.1180   31.6110   40.3010 H   0  0  0  0  0  0  0  0  0  0  0  0
   38.8140   30.7730   42.5220 H   0  0  0  0  0  0  0  0  0  0  0  0
   36.4860   32.0210   41.6180 H   0  0  0  0  0  0  0  0  0  0  0  0
   35.4580   30.8070   40.8610 H   0  0  0  0  0  0  0  0  0  0  0  0
   36.1620   31.3090   38.7000 H   0  0  0  0  0  0  0  0  0  0  0  0
   38.2430   30.1480   39.0630 H   0  0  0  0  0  0  0  0  0  0  0  0
   38.5700   32.8550   40.9560 O   0  0  0  0  0  0  0  0  0  0  0  0
   39.0660   33.5610   40.4810 H   0  0  0  0  0  0  0  0  0  0  0  0
   36.9010   33.0890   39.4780 O   0  0  0  0  0  0  0  0  0  0  0  0
   36.7220   33.4610   38.5810 H   0  0  0  0  0  0  0  0  0  0  0  0
   39.3730   29.3850   41.0940 O   0  0  0  0  0  0  0  0  0  0  0  0
   39.5210   28.2720   41.8170 C   0  0  0  0  0  0  0  0  0  0  0  0
   38.8780   27.0900   41.4570 C   0  0  0  0  0  0  0  0  0  0  0  0
   39.0710   25.9670   42.2460 C   0  0  0  0  0  0  0  0  0  0  0  0
   39.8860   26.0380   43.3610 N   0  0  0  0  0  0  0  0  0  0  0  0
   40.4850   27.1920   43.6720 C   0  0  0  0  0  0  0  0  0  0  0  0
   40.3120   28.3060   42.9150 N   0  0  0  0  0  0  0  0  0  0  0  0
   38.2530   27.0650   40.5880 H   0  0  0  0  0  0  0  0  0  0  0  0
   41.1150   27.2180   44.5460 H   0  0  0  0  0  0  0  0  0  0  0  0
   38.3840   24.6660   41.8980 C   0  0  0  0  0  0  0  0  0  0  0  0
   36.8880   24.5960   42.0930 C   0  0  0  0  0  0  0  0  0  0  0  0
   37.5700   24.5840   40.7130 C   0  0  0  0  0  0  0  0  0  0  0  0
   38.8870   23.7870   42.3670 H   0  0  0  0  0  0  0  0  0  0  0  0
   36.4050   23.6610   42.4380 H   0  0  0  0  0  0  0  0  0  0  0  0
   36.3790   25.5570   42.3200 H   0  0  0  0  0  0  0  0  0  0  0  0
   37.5340   23.6010   40.1660 H   0  0  0  0  0  0  0  0  0  0  0  0
   37.4670   25.4900   40.0770 H   0  0  0  0  0  0  0  0  0  0  0  0
   38.8020   31.9040   38.0910 O   0  0  0  0  0  0  0  0  0  0  0  0
   40.5270   30.1030   36.9830 H   0  0  0  0  0  0  0  0  0  0  0  0
   40.7840   31.0660   37.3050 N   0  0  0  0  0  0  0  0  0  0  0  0
   40.1510   32.1330   37.8710 C   0  0  0  0  0  0  0  0  0  0  0  0
   41.0800   33.0920   38.0370 N   0  0  0  0  0  0  0  0  0  0  0  0
   42.2680   32.6640   37.5940 C   0  0  0  0  0  0  0  0  0  0  0  0
   43.4680   33.3370   37.5850 C   0  0  0  0  0  0  0  0  0  0  0  0
   44.5360   32.7170   37.0950 N   0  0  0  0  0  0  0  0  0  0  0  0
   44.3930   31.4560   36.6290 C   0  0  0  0  0  0  0  0  0  0  0  0
   45.2760   30.9710   36.2360 H   0  0  0  0  0  0  0  0  0  0  0  0
   43.2170   30.8180   36.6480 N   0  0  0  0  0  0  0  0  0  0  0  0
   42.0890   31.3730   37.1260 C   0  0  0  0  0  0  0  0  0  0  0  0
   43.6060   34.6520   38.0730 N   0  0  0  0  0  0  0  0  0  0  0  0
   43.6740   34.5680   39.1080 H   0  0  0  0  0  0  0  0  0  0  0  0
   43.6510   35.6140   37.6360 H   0  0  0  0  0  0  0  0  0  0  0  0
  1  7  1  6  0  0  0
  1 13  1  0  0  0  0
  1  2  1  0  0  0  0
  2  8  1  1  0  0  0
  3  2  1  0  0  0  0
  4  3  1  0  0  0  0
  4  9  1  0  0  0  0
  5 11  1  6  0  0  0
  5 15  1  0  0  0  0
  5  4  1  0  0  0  0
  6 12  1  6  0  0  0
  6  5  1  0  0  0  0
  6  1  1  0  0  0  0
 10  4  1  0  0  0  0
 14 13  1  0  0  0  0
 16 15  1  0  0  0  0
 17  2  1  0  0  0  0
 17 18  1  0  0  0  0
 18 23  1  0  0  0  0
 19 18  2  0  0  0  0
 19 20  1  0  0  0  0
 20 21  2  0  0  0  0
 21 22  1  0  0  0  0
 22 25  1  0  0  0  0
 23 22  2  0  0  0  0
 24 19  1  0  0  0  0
 26 27  1  0  0  0  0
 26 20  1  0  0  0  0
 26 29  1  0  0  0  0
 27 31  1  0  0  0  0
 27 30  1  0  0  0  0
 28 26  1  0  0  0  0
 28 27  1  0  0  0  0
 32 28  1  0  0  0  0
 33 28  1  0  0  0  0
 34  6  1  0  0  0  0
 35 36  1  0  0  0  0
 36 37  1  0  0  0  0
 37 38  2  0  0  0  0
 37 34  1  0  0  0  0
 39 38  1  0  0  0  0
 40 39  1  0  0  0  0
 40 46  1  0  0  0  0
 41 40  2  0  0  0  0
 42 44  2  0  0  0  0
 42 41  1  0  0  0  0
 43 42  1  0  0  0  0
 44 45  1  0  0  0  0
 45 36  1  0  0  0  0
 45 39  2  0  0  0  0
 46 47  1  0  0  0  0
 48 46  1  0  0  0  0
M  END
>  <minimizedAffinity>
-6.62558413

$$$$

 OpenBabel03242523533D

 48 52  0  0  1  0  0  0  0  0999 V2000
   37.7290   29.2090   42.2670 C   0  0  1  0  0  0  0  0  0  0  0  0
   37.6570   27.7760   41.7340 C   0  0  1  0  0  0  0  0  0  0  0  0
   36.8530   27.7570   40.5810 O   0  0  0  0  0  0  0  0  0  0  0  0
   35.8030   28.6680   40.6320 C   0  0  0  0  0  0  0  0  0  0  0  0
   36.3040   30.0990   40.5520 C   0  0  2  0  0  0  0  0  0  0  0  0
   37.7740   30.0900   41.0230 C   0  0  1  0  0  0  0  0  0  0  0  0
   38.6760   29.3690   42.8440 H   0  0  0  0  0  0  0  0  0  0  0  0
   37.3240   27.0500   42.4790 H   0  0  0  0  0  0  0  0  0  0  0  0
   35.1390   28.4870   41.5010 H   0  0  0  0  0  0  0  0  0  0  0  0
   35.1850   28.4460   39.7400 H   0  0  0  0  0  0  0  0  0  0  0  0
   36.2090   30.5270   39.5470 H   0  0  0  0  0  0  0  0  0  0  0  0
   38.3330   29.5900   40.1940 H   0  0  0  0  0  0  0  0  0  0  0  0
   36.5960   29.5040   43.0220 O   0  0  0  0  0  0  0  0  0  0  0  0
   36.7930   30.2910   43.5820 H   0  0  0  0  0  0  0  0  0  0  0  0
   35.6400   30.8620   41.5180 O   0  0  0  0  0  0  0  0  0  0  0  0
   35.6070   31.8150   41.2610 H   0  0  0  0  0  0  0  0  0  0  0  0
   38.9450   27.4770   41.2660 O   0  0  0  0  0  0  0  0  0  0  0  0
   39.9620   27.0500   42.0180 C   0  0  0  0  0  0  0  0  0  0  0  0
   40.9140   27.9390   42.5130 C   0  0  0  0  0  0  0  0  0  0  0  0
   41.9450   27.4370   43.2900 C   0  0  0  0  0  0  0  0  0  0  0  0
   42.0130   26.0820   43.5560 N   0  0  0  0  0  0  0  0  0  0  0  0
   41.0800   25.2620   43.0610 C   0  0  0  0  0  0  0  0  0  0  0  0
   40.0590   25.7290   42.2980 N   0  0  0  0  0  0  0  0  0  0  0  0
   40.8350   28.9840   42.2910 H   0  0  0  0  0  0  0  0  0  0  0  0
   41.1580   24.2110   43.2850 H   0  0  0  0  0  0  0  0  0  0  0  0
   43.0050   28.3660   43.8390 C   0  0  0  0  0  0  0  0  0  0  0  0
   44.0130   28.9240   42.8620 C   0  0  0  0  0  0  0  0  0  0  0  0
   42.9340   29.7760   43.5540 C   0  0  0  0  0  0  0  0  0  0  0  0
   43.5150   27.9380   44.7350 H   0  0  0  0  0  0  0  0  0  0  0  0
   45.0680   29.0810   43.1640 H   0  0  0  0  0  0  0  0  0  0  0  0
   43.8030   28.7430   41.7860 H   0  0  0  0  0  0  0  0  0  0  0  0
   43.3130   30.4900   44.3370 H   0  0  0  0  0  0  0  0  0  0  0  0
   42.0920   30.1490   42.9320 H   0  0  0  0  0  0  0  0  0  0  0  0
   38.2130   31.3700   41.2690 O   0  0  0  0  0  0  0  0  0  0  0  0
   40.3740   32.4760   42.5170 H   0  0  0  0  0  0  0  0  0  0  0  0
   40.2300   32.4350   41.4810 N   0  0  0  0  0  0  0  0  0  0  0  0
   39.2840   31.9620   40.6200 C   0  0  0  0  0  0  0  0  0  0  0  0
   39.7200   32.2360   39.3760 N   0  0  0  0  0  0  0  0  0  0  0  0
   40.9020   32.8620   39.4290 C   0  0  0  0  0  0  0  0  0  0  0  0
   41.6770   33.3100   38.3850 C   0  0  0  0  0  0  0  0  0  0  0  0
   42.8270   33.9120   38.6660 N   0  0  0  0  0  0  0  0  0  0  0  0
   43.1810   34.0550   39.9630 C   0  0  0  0  0  0  0  0  0  0  0  0
   44.1220   34.5490   40.1670 H   0  0  0  0  0  0  0  0  0  0  0  0
   42.4120   33.6120   40.9640 N   0  0  0  0  0  0  0  0  0  0  0  0
   41.2350   32.9930   40.7670 C   0  0  0  0  0  0  0  0  0  0  0  0
   41.3000   33.1560   37.0360 N   0  0  0  0  0  0  0  0  0  0  0  0
   40.6160   33.9160   36.8410 H   0  0  0  0  0  0  0  0  0  0  0  0
   41.5500   32.4840   36.2590 H   0  0  0  0  0  0  0  0  0  0  0  0
  1  7  1  1  0  0  0
  1 13  1  0  0  0  0
  2  1  1  0  0  0  0
  2  8  1  1  0  0  0
  3  4  1  0  0  0  0
  3  2  1  0  0  0  0
  4  9  1  0  0  0  0
  5 11  1  6  0  0  0
  5  4  1  0  0  0  0
  5  6  1  0  0  0  0
  5 15  1  0  0  0  0
  6 12  1  6  0  0  0
  6 34  1  0  0  0  0
  6  1  1  0  0  0  0
 10  4  1  0  0  0  0
 13 14  1  0  0  0  0
 16 15  1  0  0  0  0
 17  2  1  0  0  0  0
 17 18  1  0  0  0  0
 18 23  2  0  0  0  0
 18 19  1  0  0  0  0
 19 20  2  0  0  0  0
 20 21  1  0  0  0  0
 20 26  1  0  0  0  0
 22 25  1  0  0  0  0
 22 21  2  0  0  0  0
 23 22  1  0  0  0  0
 24 19  1  0  0  0  0
 26 29  1  0  0  0  0
 27 30  1  0  0  0  0
 27 28  1  0  0  0  0
 27 26  1  0  0  0  0
 28 26  1  0  0  0  0
 28 32  1  0  0  0  0
 31 27  1  0  0  0  0
 33 28  1  0  0  0  0
 36 35  1  0  0  0  0
 37 34  1  0  0  0  0
 37 36  1  0  0  0  0
 38 39  1  0  0  0  0
 38 37  2  0  0  0  0
 39 45  1  0  0  0  0
 40 41  1  0  0  0  0
 40 39  2  0  0  0  0
 41 42  2  0  0  0  0
 42 43  1  0  0  0  0
 42 44  1  0  0  0  0
 45 44  2  0  0  0  0
 45 36  1  0  0  0  0
 46 40  1  0  0  0  0
 47 46  1  0  0  0  0
 48 46  1  0  0  0  0
M  END
>  <minimizedAffinity>
-6.59195614

$$$$

 OpenBabel03242523533D

 48 52  0  0  1  0  0  0  0  0999 V2000
   37.6220   29.1890   41.8460 C   0  0  1  0  0  0  0  0  0  0  0  0
   37.3840   27.8700   41.1060 C   0  0  1  0  0  0  0  0  0  0  0  0
   36.4960   28.0990   40.0390 O   0  0  0  0  0  0  0  0  0  0  0  0
   35.5380   29.0650   40.3250 C   0  0  0  0  0  0  0  0  0  0  0  0
   36.1550   30.4490   40.4240 C   0  0  2  0  0  0  0  0  0  0  0  0
   37.6500   30.2540   40.7550 C   0  0  1  0  0  0  0  0  0  0  0  0
   38.6200   29.1810   42.3550 H   0  0  0  0  0  0  0  0  0  0  0  0
   37.0450   27.0600   41.7550 H   0  0  0  0  0  0  0  0  0  0  0  0
   34.9280   28.7960   41.2100 H   0  0  0  0  0  0  0  0  0  0  0  0
   34.8360   29.0380   39.4670 H   0  0  0  0  0  0  0  0  0  0  0  0
   36.0220   31.0400   39.5090 H   0  0  0  0  0  0  0  0  0  0  0  0
   38.0980   29.8540   39.8120 H   0  0  0  0  0  0  0  0  0  0  0  0
   36.5800   29.4410   42.7360 O   0  0  0  0  0  0  0  0  0  0  0  0
   36.8870   30.1100   43.3910 H   0  0  0  0  0  0  0  0  0  0  0  0
   35.6360   31.0930   41.5510 O   0  0  0  0  0  0  0  0  0  0  0  0
   35.6670   32.0750   41.4500 H   0  0  0  0  0  0  0  0  0  0  0  0
   38.6010   27.5560   40.4840 O   0  0  0  0  0  0  0  0  0  0  0  0
   38.9830   26.3340   40.1040 C   0  0  0  0  0  0  0  0  0  0  0  0
   38.2710   25.2030   40.4970 C   0  0  0  0  0  0  0  0  0  0  0  0
   38.7140   23.9620   40.0700 C   0  0  0  0  0  0  0  0  0  0  0  0
   39.8410   23.8680   39.2730 N   0  0  0  0  0  0  0  0  0  0  0  0
   40.4960   24.9770   38.9180 C   0  0  0  0  0  0  0  0  0  0  0  0
   40.0810   26.2050   39.3240 N   0  0  0  0  0  0  0  0  0  0  0  0
   37.4010   25.3070   41.1150 H   0  0  0  0  0  0  0  0  0  0  0  0
   41.3700   24.8740   38.2970 H   0  0  0  0  0  0  0  0  0  0  0  0
   37.9770   22.7070   40.4820 C   0  0  0  0  0  0  0  0  0  0  0  0
   37.0820   22.0580   39.4520 C   0  0  0  0  0  0  0  0  0  0  0  0
   38.3930   21.4320   39.9600 C   0  0  0  0  0  0  0  0  0  0  0  0
   37.4380   22.8370   41.4510 H   0  0  0  0  0  0  0  0  0  0  0  0
   36.1300   21.5770   39.7520 H   0  0  0  0  0  0  0  0  0  0  0  0
   37.1600   22.4540   38.4170 H   0  0  0  0  0  0  0  0  0  0  0  0
   38.2710   20.5280   40.6210 H   0  0  0  0  0  0  0  0  0  0  0  0
   39.2570   21.4010   39.2620 H   0  0  0  0  0  0  0  0  0  0  0  0
   38.2170   31.4400   41.1570 O   0  0  0  0  0  0  0  0  0  0  0  0
   40.3870   32.4550   42.4650 H   0  0  0  0  0  0  0  0  0  0  0  0
   40.2560   32.4510   41.4260 N   0  0  0  0  0  0  0  0  0  0  0  0
   39.3100   32.0270   40.5390 C   0  0  0  0  0  0  0  0  0  0  0  0
   39.7670   32.3290   39.3100 N   0  0  0  0  0  0  0  0  0  0  0  0
   40.9630   32.9260   39.3970 C   0  0  0  0  0  0  0  0  0  0  0  0
   41.7610   33.3890   38.3780 C   0  0  0  0  0  0  0  0  0  0  0  0
   42.9220   33.9550   38.6910 N   0  0  0  0  0  0  0  0  0  0  0  0
   43.2620   34.0480   39.9960 C   0  0  0  0  0  0  0  0  0  0  0  0
   44.2110   34.5130   40.2270 H   0  0  0  0  0  0  0  0  0  0  0  0
   42.4700   33.5920   40.9740 N   0  0  0  0  0  0  0  0  0  0  0  0
   41.2820   33.0070   40.7430 C   0  0  0  0  0  0  0  0  0  0  0  0
   41.3970   33.2850   37.0200 N   0  0  0  0  0  0  0  0  0  0  0  0
   40.7340   34.0670   36.8410 H   0  0  0  0  0  0  0  0  0  0  0  0
   41.6420   32.6330   36.2250 H   0  0  0  0  0  0  0  0  0  0  0  0
  1  7  1  1  0  0  0
  1 13  1  0  0  0  0
  2  8  1  1  0  0  0
  2  1  1  0  0  0  0
  3  4  1  0  0  0  0
  3  2  1  0  0  0  0
  4  5  1  0  0  0  0
  4  9  1  0  0  0  0
  5 11  1  6  0  0  0
  5  6  1  0  0  0  0
  5 15  1  0  0  0  0
  6 12  1  6  0  0  0
  6 34  1  0  0  0  0
  6  1  1  0  0  0  0
 10  4  1  0  0  0  0
 13 14  1  0  0  0  0
 16 15  1  0  0  0  0
 17  2  1  0  0  0  0
 18 17  1  0  0  0  0
 18 19  1  0  0  0  0
 19 24  1  0  0  0  0
 20 26  1  0  0  0  0
 20 19  2  0  0  0  0
 21 20  1  0  0  0  0
 22 21  2  0  0  0  0
 22 23  1  0  0  0  0
 23 18  2  0  0  0  0
 25 22  1  0  0  0  0
 26 29  1  0  0  0  0
 27 30  1  0  0  0  0
 27 28  1  0  0  0  0
 27 26  1  0  0  0  0
 28 26  1  0  0  0  0
 28 32  1  0  0  0  0
 31 27  1  0  0  0  0
 33 28  1  0  0  0  0
 36 35  1  0  0  0  0
 37 34  1  0  0  0  0
 37 36  1  0  0  0  0
 38 39  1  0  0  0  0
 38 37  2  0  0  0  0
 39 45  1  0  0  0  0
 40 41  1  0  0  0  0
 40 39  2  0  0  0  0
 41 42  2  0  0  0  0
 42 43  1  0  0  0  0
 42 44  1  0  0  0  0
 45 44  2  0  0  0  0
 45 36  1  0  0  0  0
 46 40  1  0  0  0  0
 47 46  1  0  0  0  0
 48 46  1  0  0  0  0
M  END
>  <minimizedAffinity>
-6.58549881

$$$$

 OpenBabel03242523533D

 48 52  0  0  1  0  0  0  0  0999 V2000
   37.8920   28.5630   43.0140 C   0  0  1  0  0  0  0  0  0  0  0  0
   37.5400   27.1660   42.4960 C   0  0  1  0  0  0  0  0  0  0  0  0
   36.8210   27.2930   41.2950 O   0  0  0  0  0  0  0  0  0  0  0  0
   35.9940   28.4110   41.2680 C   0  0  0  0  0  0  0  0  0  0  0  0
   36.7990   29.6960   41.2020 C   0  0  2  0  0  0  0  0  0  0  0  0
   38.2010   29.3810   41.7640 C   0  0  1  0  0  0  0  0  0  0  0  0
   38.8150   28.5280   43.6490 H   0  0  0  0  0  0  0  0  0  0  0  0
   37.0130   26.5500   43.2270 H   0  0  0  0  0  0  0  0  0  0  0  0
   35.2560   28.4010   42.0950 H   0  0  0  0  0  0  0  0  0  0  0  0
   35.3960   28.3050   40.3410 H   0  0  0  0  0  0  0  0  0  0  0  0
   36.8600   30.1080   40.1870 H   0  0  0  0  0  0  0  0  0  0  0  0
   38.6860   28.7490   40.9800 H   0  0  0  0  0  0  0  0  0  0  0  0
   36.8080   29.1170   43.6930 O   0  0  0  0  0  0  0  0  0  0  0  0
   37.1380   29.8560   44.2540 H   0  0  0  0  0  0  0  0  0  0  0  0
   36.2620   30.6100   42.1140 O   0  0  0  0  0  0  0  0  0  0  0  0
   36.4530   31.5410   41.8440 H   0  0  0  0  0  0  0  0  0  0  0  0
   38.7570   26.5830   42.1140 O   0  0  0  0  0  0  0  0  0  0  0  0
   38.8880   25.5200   41.3170 C   0  0  0  0  0  0  0  0  0  0  0  0
   39.6500   25.5850   40.1520 C   0  0  0  0  0  0  0  0  0  0  0  0
   39.7510   24.4490   39.3650 C   0  0  0  0  0  0  0  0  0  0  0  0
   39.1020   23.2870   39.7430 N   0  0  0  0  0  0  0  0  0  0  0  0
   38.3810   23.2670   40.8680 C   0  0  0  0  0  0  0  0  0  0  0  0
   38.2670   24.3670   41.6560 N   0  0  0  0  0  0  0  0  0  0  0  0
   40.1410   26.4990   39.8850 H   0  0  0  0  0  0  0  0  0  0  0  0
   37.8870   22.3480   41.1380 H   0  0  0  0  0  0  0  0  0  0  0  0
   40.5590   24.4780   38.0870 C   0  0  0  0  0  0  0  0  0  0  0  0
   40.7160   25.8120   37.3950 C   0  0  0  0  0  0  0  0  0  0  0  0
   41.8720   25.0690   38.0880 C   0  0  0  0  0  0  0  0  0  0  0  0
   40.2320   23.6920   37.3650 H   0  0  0  0  0  0  0  0  0  0  0  0
   40.7330   25.8770   36.2890 H   0  0  0  0  0  0  0  0  0  0  0  0
   40.3660   26.7010   37.9620 H   0  0  0  0  0  0  0  0  0  0  0  0
   42.6460   24.6320   37.3970 H   0  0  0  0  0  0  0  0  0  0  0  0
   42.2630   25.4920   39.0390 H   0  0  0  0  0  0  0  0  0  0  0  0
   38.8940   30.5400   42.0220 O   0  0  0  0  0  0  0  0  0  0  0  0
   40.7540   32.4740   42.5240 H   0  0  0  0  0  0  0  0  0  0  0  0
   40.4150   32.1940   41.5740 N   0  0  0  0  0  0  0  0  0  0  0  0
   39.5300   31.2970   41.0510 C   0  0  0  0  0  0  0  0  0  0  0  0
   39.5680   31.4480   39.7150 N   0  0  0  0  0  0  0  0  0  0  0  0
   40.4430   32.4050   39.3830 C   0  0  0  0  0  0  0  0  0  0  0  0
   40.7740   32.8620   38.1290 C   0  0  0  0  0  0  0  0  0  0  0  0
   41.6770   33.8300   38.0270 N   0  0  0  0  0  0  0  0  0  0  0  0
   42.2280   34.3210   39.1600 C   0  0  0  0  0  0  0  0  0  0  0  0
   42.9610   35.1090   39.0530 H   0  0  0  0  0  0  0  0  0  0  0  0
   41.8930   33.8630   40.3720 N   0  0  0  0  0  0  0  0  0  0  0  0
   40.9880   32.8860   40.5630 C   0  0  0  0  0  0  0  0  0  0  0  0
   40.1940   32.3430   36.9530 N   0  0  0  0  0  0  0  0  0  0  0  0
   39.2650   32.8050   36.8650 H   0  0  0  0  0  0  0  0  0  0  0  0
   40.4890   31.6450   36.2160 H   0  0  0  0  0  0  0  0  0  0  0  0
  1  7  1  1  0  0  0
  1 13  1  0  0  0  0
  2  1  1  0  0  0  0
  2  8  1  1  0  0  0
  3  2  1  0  0  0  0
  4  3  1  0  0  0  0
  4  9  1  0  0  0  0
  5 11  1  6  0  0  0
  5  4  1  0  0  0  0
  5  6  1  0  0  0  0
  5 15  1  0  0  0  0
  6 12  1  6  0  0  0
  6 34  1  0  0  0  0
  6  1  1  0  0  0  0
 10  4  1  0  0  0  0
 13 14  1  0  0  0  0
 16 15  1  0  0  0  0
 17  2  1  0  0  0  0
 18 23  1  0  0  0  0
 18 17  1  0  0  0  0
 19 18  2  0  0  0  0
 20 21  2  0  0  0  0
 20 19  1  0  0  0  0
 21 22  1  0  0  0  0
 22 25  1  0  0  0  0
 22 23  2  0  0  0  0
 24 19  1  0  0  0  0
 26 28  1  0  0  0  0
 26 20  1  0  0  0  0
 27 31  1  0  0  0  0
 27 26  1  0  0  0  0
 27 28  1  0  0  0  0
 28 33  1  0  0  0  0
 29 26  1  0  0  0  0
 30 27  1  0  0  0  0
 32 28  1  0  0  0  0
 36 35  1  0  0  0  0
 37 36  1  0  0  0  0
 37 34  1  0  0  0  0
 38 37  2  0  0  0  0
 39 38  1  0  0  0  0
 39 45  1  0  0  0  0
 40 39  2  0  0  0  0
 41 40  1  0  0  0  0
 41 42  2  0  0  0  0
 42 44  1  0  0  0  0
 43 42  1  0  0  0  0
 44 45  2  0  0  0  0
 45 36  1  0  0  0  0
 46 40  1  0  0  0  0
 47 46  1  0  0  0  0
 48 46  1  0  0  0  0
M  END
>  <minimizedAffinity>
-6.45384264

$$$$
