
 OpenBabel03252503453D

 49 53  0  0  1  0  0  0  0  0999 V2000
   45.9390   35.5830   42.7560 C   0  0  0  0  0  0  0  0  0  0  0  0
   46.9260   35.5150   42.2570 H   0  0  0  0  0  0  0  0  0  0  0  0
   45.8440   36.6570   43.0450 H   0  0  0  0  0  0  0  0  0  0  0  0
   44.9010   35.1850   41.7940 C   0  0  0  0  0  0  0  0  0  0  0  0
   43.5960   35.6190   41.8140 C   0  0  0  0  0  0  0  0  0  0  0  0
   42.6610   35.2120   40.8950 C   0  0  0  0  0  0  0  0  0  0  0  0
   43.0390   34.3360   39.9120 C   0  0  0  0  0  0  0  0  0  0  0  0
   44.3570   33.8830   39.8720 C   0  0  0  0  0  0  0  0  0  0  0  0
   45.2990   34.3040   40.8130 C   0  0  0  0  0  0  0  0  0  0  0  0
   43.3660   36.3080   42.6150 H   0  0  0  0  0  0  0  0  0  0  0  0
   41.6580   35.6130   40.9970 H   0  0  0  0  0  0  0  0  0  0  0  0
   42.2620   34.0540   39.2210 H   0  0  0  0  0  0  0  0  0  0  0  0
   44.4920   33.1960   39.0350 H   0  0  0  0  0  0  0  0  0  0  0  0
   46.5410   33.6940   40.5040 N   0  0  0  0  0  0  0  0  0  0  0  0
   47.5920   34.2350   39.8610 C   0  0  0  0  0  0  0  0  0  0  0  0
   47.6950   35.2320   39.4580 H   0  0  0  0  0  0  0  0  0  0  0  0
   48.5740   33.3430   39.7610 N   0  0  0  0  0  0  0  0  0  0  0  0
   48.1780   32.1960   40.3410 C   0  0  0  0  0  0  0  0  0  0  0  0
   48.7230   30.9660   40.5480 C   0  0  0  0  0  0  0  0  0  0  0  0
   48.0620   29.9700   41.1860 N   0  0  0  0  0  0  0  0  0  0  0  0
   46.7990   30.1980   41.6440 C   0  0  0  0  0  0  0  0  0  0  0  0
   46.2100   29.4500   42.1640 H   0  0  0  0  0  0  0  0  0  0  0  0
   46.2460   31.4000   41.4510 N   0  0  0  0  0  0  0  0  0  0  0  0
   46.8790   32.4070   40.8200 C   0  0  0  0  0  0  0  0  0  0  0  0
   50.0430   30.7850   40.0490 N   0  0  0  0  0  0  0  0  0  0  0  0
   50.9580   30.3440   40.2690 H   0  0  0  0  0  0  0  0  0  0  0  0
   50.3210   31.1970   39.1390 H   0  0  0  0  0  0  0  0  0  0  0  0
   44.9980   34.8840   44.9380 C   0  0  0  0  0  0  0  0  0  0  0  0
   45.9200   34.7030   43.9120 C   0  0  0  0  0  0  0  0  0  0  0  0
   46.8160   33.6440   44.0440 C   0  0  0  0  0  0  0  0  0  0  0  0
   46.7870   32.8280   45.1250 N   0  0  0  0  0  0  0  0  0  0  0  0
   45.8760   33.0370   46.1010 C   0  0  0  0  0  0  0  0  0  0  0  0
   44.9800   34.0610   46.0180 N   0  0  0  0  0  0  0  0  0  0  0  0
   44.2910   35.6780   44.8890 H   0  0  0  0  0  0  0  0  0  0  0  0
   47.5770   33.4030   43.3530 H   0  0  0  0  0  0  0  0  0  0  0  0
   47.3270   31.8030   47.7000 C   0  0  2  0  0  0  0  0  0  0  0  0
   45.8740   32.1290   47.2490 C   0  0  1  0  0  0  0  0  0  0  0  0
   45.4010   32.6410   48.4090 O   0  0  0  0  0  0  0  0  0  0  0  0
   45.7830   31.8150   49.4260 C   0  0  0  0  0  0  0  0  0  0  0  0
   46.9600   30.9880   48.9470 C   0  0  2  0  0  0  0  0  0  0  0  0
   47.8420   31.1900   46.9430 H   0  0  0  0  0  0  0  0  0  0  0  0
   45.3680   31.1560   47.0290 H   0  0  0  0  0  0  0  0  0  0  0  0
   46.0900   32.4360   50.2930 H   0  0  0  0  0  0  0  0  0  0  0  0
   44.9120   31.1560   49.6870 H   0  0  0  0  0  0  0  0  0  0  0  0
   46.5960   29.9860   48.6710 H   0  0  0  0  0  0  0  0  0  0  0  0
   47.9490   32.9210   48.1190 O   0  0  0  0  0  0  0  0  0  0  0  0
   48.9420   32.7600   48.0630 H   0  0  0  0  0  0  0  0  0  0  0  0
   47.9790   30.8890   49.8450 O   0  0  0  0  0  0  0  0  0  0  0  0
   48.7740   31.4390   49.6190 H   0  0  0  0  0  0  0  0  0  0  0  0
  1  3  1  0  0  0  0
  1 29  1  0  0  0  0
  2  1  1  0  0  0  0
  4  5  1  0  0  0  0
  4  1  1  0  0  0  0
  5 10  1  0  0  0  0
  6 11  1  0  0  0  0
  6  5  2  0  0  0  0
  7  6  1  0  0  0  0
  8  7  2  0  0  0  0
  8  9  1  0  0  0  0
  9  4  2  0  0  0  0
 12  7  1  0  0  0  0
 13  8  1  0  0  0  0
 14  9  1  0  0  0  0
 14 24  1  0  0  0  0
 15 14  1  0  0  0  0
 16 15  1  0  0  0  0
 17 15  2  0  0  0  0
 17 18  1  0  0  0  0
 18 19  2  0  0  0  0
 18 24  1  0  0  0  0
 19 20  1  0  0  0  0
 20 21  2  0  0  0  0
 21 22  1  0  0  0  0
 23 21  1  0  0  0  0
 24 23  2  0  0  0  0
 25 26  1  0  0  0  0
 25 19  1  0  0  0  0
 27 25  1  0  0  0  0
 28 33  1  0  0  0  0
 29 30  1  0  0  0  0
 29 28  2  0  0  0  0
 30 31  2  0  0  0  0
 31 32  1  0  0  0  0
 32 37  1  0  0  0  0
 33 32  2  0  0  0  0
 34 28  1  0  0  0  0
 35 30  1  0  0  0  0
 36 41  1  6  0  0  0
 36 46  1  0  0  0  0
 36 40  1  0  0  0  0
 37 42  1  6  0  0  0
 37 36  1  0  0  0  0
 37 38  1  0  0  0  0
 38 39  1  0  0  0  0
 39 44  1  0  0  0  0
 39 43  1  0  0  0  0
 40 45  1  6  0  0  0
 40 39  1  0  0  0  0
 40 48  1  0  0  0  0
 47 46  1  0  0  0  0
 49 48  1  0  0  0  0
M  END
>  <minimizedAffinity>
-7.09701538

>  <minimizedRMSD>
0.699316561

$$$$
