
 OpenBabel03252508103D

 49 53  0  0  0  0  0  0  0  0999 V2000
   38.0150   30.2860   37.6640 C   0  0  0  0  0  0  0  0  0  0  0  0
   38.1830   29.7730   38.9410 C   0  0  0  0  0  0  0  0  0  0  0  0
   37.1340   29.1580   39.5780 C   0  0  0  0  0  0  0  0  0  0  0  0
   35.9400   29.0830   38.8860 N   0  0  0  0  0  0  0  0  0  0  0  0
   35.7850   29.5760   37.6620 C   0  0  0  0  0  0  0  0  0  0  0  0
   36.8350   30.1770   37.0600 N   0  0  0  0  0  0  0  0  0  0  0  0
   38.8380   30.7830   37.1340 H   0  0  0  0  0  0  0  0  0  0  0  0
   34.8460   29.5080   37.1350 H   0  0  0  0  0  0  0  0  0  0  0  0
   37.1430   28.5870   40.8730 C   0  0  0  0  0  0  0  0  0  0  0  0
   37.3120   29.3190   42.0510 C   0  0  0  0  0  0  0  0  0  0  0  0
   37.3860   28.7620   43.3010 C   0  0  0  0  0  0  0  0  0  0  0  0
   37.2930   27.4000   43.4430 C   0  0  0  0  0  0  0  0  0  0  0  0
   37.1190   26.6350   42.2590 C   0  0  0  0  0  0  0  0  0  0  0  0
   37.0280   25.2730   42.3860 C   0  0  0  0  0  0  0  0  0  0  0  0
   36.8610   24.4690   41.2780 C   0  0  0  0  0  0  0  0  0  0  0  0
   36.7800   25.0610   40.0060 C   0  0  0  0  0  0  0  0  0  0  0  0
   36.8790   26.4620   39.9230 C   0  0  0  0  0  0  0  0  0  0  0  0
   37.0490   27.2300   41.0410 C   0  0  0  0  0  0  0  0  0  0  0  0
   37.3900   30.3970   41.9830 H   0  0  0  0  0  0  0  0  0  0  0  0
   37.5170   29.3680   44.1880 H   0  0  0  0  0  0  0  0  0  0  0  0
   37.3430   26.8770   44.3900 H   0  0  0  0  0  0  0  0  0  0  0  0
   37.0890   24.8130   43.3660 H   0  0  0  0  0  0  0  0  0  0  0  0
   36.7970   23.3930   41.4380 H   0  0  0  0  0  0  0  0  0  0  0  0
   36.6470   24.3590   39.2000 H   0  0  0  0  0  0  0  0  0  0  0  0
   36.7730   26.7180   38.8910 H   0  0  0  0  0  0  0  0  0  0  0  0
   39.4190   29.9100   39.5120 O   0  0  0  0  0  0  0  0  0  0  0  0
   41.2040   31.1160   41.0020 O   0  0  0  0  0  0  0  0  0  0  0  0
   40.0550   31.3690   40.0920 P   0  0  1  0  0  0  0  0  0  0  0  0
   40.6320   32.3190   38.8150 O   0  0  0  0  0  0  0  0  0  0  0  0
   43.1610   33.5230   38.8940 H   0  0  0  0  0  0  0  0  0  0  0  0
   42.9660   32.7300   38.2270 N   0  0  0  0  0  0  0  0  0  0  0  0
   41.7950   32.1090   38.1310 C   0  0  0  0  0  0  0  0  0  0  0  0
   41.9430   31.1580   37.1710 N   0  0  0  0  0  0  0  0  0  0  0  0
   43.2100   31.2240   36.7030 C   0  0  0  0  0  0  0  0  0  0  0  0
   43.9400   30.5390   35.7510 C   0  0  0  0  0  0  0  0  0  0  0  0
   45.2050   30.8560   35.5210 N   0  0  0  0  0  0  0  0  0  0  0  0
   45.8180   31.8410   36.1940 C   0  0  0  0  0  0  0  0  0  0  0  0
   46.8590   32.1780   36.0770 H   0  0  0  0  0  0  0  0  0  0  0  0
   45.1540   32.5300   37.1230 N   0  0  0  0  0  0  0  0  0  0  0  0
   43.8780   32.2300   37.3730 C   0  0  0  0  0  0  0  0  0  0  0  0
   43.3230   29.4970   35.0260 N   0  0  0  0  0  0  0  0  0  0  0  0
   43.4360   28.4580   34.8410 H   0  0  0  0  0  0  0  0  0  0  0  0
   42.4790   29.7790   34.4770 H   0  0  0  0  0  0  0  0  0  0  0  0
   38.8280   32.2040   40.8750 O   0  0  0  0  0  0  0  0  0  0  0  0
   38.2950   33.4290   40.5100 C   0  0  0  0  0  0  0  0  0  0  0  0
   37.4780   33.1640   39.6090 O   0  0  0  0  0  0  0  0  0  0  0  0
   38.8730   34.4950   41.2910 N   0  0  0  0  0  0  0  0  0  0  0  0
   39.4770   35.2680   40.9180 H   0  0  0  0  0  0  0  0  0  0  0  0
   38.6870   34.5130   42.3120 H   0  0  0  0  0  0  0  0  0  0  0  0
  1  2  1  0  0  0  0
  2 26  1  0  0  0  0
  2  3  2  0  0  0  0
  3  9  1  0  0  0  0
  4  3  1  0  0  0  0
  5  4  2  0  0  0  0
  6  5  1  0  0  0  0
  6  1  2  0  0  0  0
  7  1  1  0  0  0  0
  8  5  1  0  0  0  0
  9 18  2  0  0  0  0
  9 10  1  0  0  0  0
 10 11  2  0  0  0  0
 11 12  1  0  0  0  0
 11 20  1  0  0  0  0
 12 21  1  0  0  0  0
 13 14  1  0  0  0  0
 13 12  2  0  0  0  0
 14 22  1  0  0  0  0
 15 23  1  0  0  0  0
 15 14  2  0  0  0  0
 16 15  1  0  0  0  0
 17 16  2  0  0  0  0
 17 18  1  0  0  0  0
 18 13  1  0  0  0  0
 19 10  1  0  0  0  0
 24 16  1  0  0  0  0
 25 17  1  0  0  0  0
 26 28  1  0  0  0  0
 28 44  1  0  0  0  0
 28 27  2  1  0  0  0
 29 28  1  0  0  0  0
 31 30  1  0  0  0  0
 32 31  1  0  0  0  0
 32 29  1  0  0  0  0
 33 32  2  0  0  0  0
 34 33  1  0  0  0  0
 34 40  1  0  0  0  0
 35 34  2  0  0  0  0
 36 35  1  0  0  0  0
 36 37  2  0  0  0  0
 37 39  1  0  0  0  0
 38 37  1  0  0  0  0
 39 40  2  0  0  0  0
 40 31  1  0  0  0  0
 41 35  1  0  0  0  0
 42 41  1  0  0  0  0
 43 41  1  0  0  0  0
 45 44  1  0  0  0  0
 45 47  1  0  0  0  0
 46 45  2  0  0  0  0
 47 49  1  0  0  0  0
 48 47  1  0  0  0  0
M  END
>  <minimizedAffinity>
-7.37103987

$$$$

 OpenBabel03252508103D

 49 53  0  0  0  0  0  0  0  0999 V2000
   36.4260   26.1660   38.1400 C   0  0  0  0  0  0  0  0  0  0  0  0
   36.8170   26.7940   39.3120 C   0  0  0  0  0  0  0  0  0  0  0  0
   36.8860   26.0830   40.4840 C   0  0  0  0  0  0  0  0  0  0  0  0
   36.5530   24.7420   40.4200 N   0  0  0  0  0  0  0  0  0  0  0  0
   36.1790   24.1460   39.2940 C   0  0  0  0  0  0  0  0  0  0  0  0
   36.1190   24.8720   38.1570 N   0  0  0  0  0  0  0  0  0  0  0  0
   36.3620   26.7140   37.1910 H   0  0  0  0  0  0  0  0  0  0  0  0
   35.9230   23.0980   39.2620 H   0  0  0  0  0  0  0  0  0  0  0  0
   37.2660   26.5720   41.7560 C   0  0  0  0  0  0  0  0  0  0  0  0
   36.4490   27.3670   42.5650 C   0  0  0  0  0  0  0  0  0  0  0  0
   36.8370   27.8980   43.7670 C   0  0  0  0  0  0  0  0  0  0  0  0
   38.1030   27.6540   44.2400 C   0  0  0  0  0  0  0  0  0  0  0  0
   38.9500   26.8470   43.4350 C   0  0  0  0  0  0  0  0  0  0  0  0
   40.2180   26.5990   43.8930 C   0  0  0  0  0  0  0  0  0  0  0  0
   41.0950   25.8240   43.1620 C   0  0  0  0  0  0  0  0  0  0  0  0
   40.6760   25.2840   41.9340 C   0  0  0  0  0  0  0  0  0  0  0  0
   39.3660   25.5660   41.5040 C   0  0  0  0  0  0  0  0  0  0  0  0
   38.5230   26.3410   42.2510 C   0  0  0  0  0  0  0  0  0  0  0  0
   35.4430   27.5840   42.2280 H   0  0  0  0  0  0  0  0  0  0  0  0
   36.1710   28.5090   44.3630 H   0  0  0  0  0  0  0  0  0  0  0  0
   38.4920   28.0330   45.1760 H   0  0  0  0  0  0  0  0  0  0  0  0
   40.5450   27.0130   44.8400 H   0  0  0  0  0  0  0  0  0  0  0  0
   42.0910   25.6620   43.5740 H   0  0  0  0  0  0  0  0  0  0  0  0
   41.4220   24.6920   41.4330 H   0  0  0  0  0  0  0  0  0  0  0  0
   39.2300   25.0550   40.5750 H   0  0  0  0  0  0  0  0  0  0  0  0
   37.1250   28.1250   39.2360 O   0  0  0  0  0  0  0  0  0  0  0  0
   34.6190   28.8420   39.5040 O   0  0  0  0  0  0  0  0  0  0  0  0
   35.9870   29.3800   39.2770 P   0  0  1  0  0  0  0  0  0  0  0  0
   36.3190   30.4470   40.5470 O   0  0  0  0  0  0  0  0  0  0  0  0
   36.2830   33.2350   40.2680 H   0  0  0  0  0  0  0  0  0  0  0  0
   37.1950   32.7220   40.4070 N   0  0  0  0  0  0  0  0  0  0  0  0
   37.2920   31.4050   40.5470 C   0  0  0  0  0  0  0  0  0  0  0  0
   38.6160   31.1330   40.7010 N   0  0  0  0  0  0  0  0  0  0  0  0
   39.2950   32.3020   40.6510 C   0  0  0  0  0  0  0  0  0  0  0  0
   40.6240   32.6680   40.7440 C   0  0  0  0  0  0  0  0  0  0  0  0
   40.9760   33.9410   40.6510 N   0  0  0  0  0  0  0  0  0  0  0  0
   40.0690   34.9110   40.4680 C   0  0  0  0  0  0  0  0  0  0  0  0
   40.2600   35.9910   40.3800 H   0  0  0  0  0  0  0  0  0  0  0  0
   38.7740   34.6060   40.3730 N   0  0  0  0  0  0  0  0  0  0  0  0
   38.3940   33.3310   40.4620 C   0  0  0  0  0  0  0  0  0  0  0  0
   41.6030   31.6690   40.9370 N   0  0  0  0  0  0  0  0  0  0  0  0
   42.3600   31.3970   41.6290 H   0  0  0  0  0  0  0  0  0  0  0  0
   41.6410   30.9360   40.1930 H   0  0  0  0  0  0  0  0  0  0  0  0
   36.0790   30.2210   37.8270 O   0  0  0  0  0  0  0  0  0  0  0  0
   37.2200   30.4600   37.0790 C   0  0  0  0  0  0  0  0  0  0  0  0
   37.4910   31.6570   37.2880 O   0  0  0  0  0  0  0  0  0  0  0  0
   37.6340   29.2710   36.3760 N   0  0  0  0  0  0  0  0  0  0  0  0
   37.6440   29.1480   35.3340 H   0  0  0  0  0  0  0  0  0  0  0  0
   37.9510   28.4560   36.9350 H   0  0  0  0  0  0  0  0  0  0  0  0
  1  6  2  0  0  0  0
  1  2  1  0  0  0  0
  2  3  2  0  0  0  0
  3  9  1  0  0  0  0
  4  3  1  0  0  0  0
  5  4  2  0  0  0  0
  6  5  1  0  0  0  0
  7  1  1  0  0  0  0
  8  5  1  0  0  0  0
  9 18  2  0  0  0  0
  9 10  1  0  0  0  0
 10 11  2  0  0  0  0
 11 12  1  0  0  0  0
 11 20  1  0  0  0  0
 12 21  1  0  0  0  0
 13 14  1  0  0  0  0
 13 12  2  0  0  0  0
 14 22  1  0  0  0  0
 15 23  1  0  0  0  0
 15 14  2  0  0  0  0
 16 15  1  0  0  0  0
 17 16  2  0  0  0  0
 17 18  1  0  0  0  0
 18 13  1  0  0  0  0
 19 10  1  0  0  0  0
 24 16  1  0  0  0  0
 25 17  1  0  0  0  0
 26 28  1  0  0  0  0
 26  2  1  0  0  0  0
 28 27  2  1  0  0  0
 28 29  1  0  0  0  0
 30 31  1  0  0  0  0
 31 40  1  0  0  0  0
 31 32  1  0  0  0  0
 32 29  1  0  0  0  0
 32 33  2  0  0  0  0
 34 33  1  0  0  0  0
 34 35  1  0  0  0  0
 35 41  1  0  0  0  0
 36 35  2  0  0  0  0
 37 36  1  0  0  0  0
 38 37  1  0  0  0  0
 39 40  1  0  0  0  0
 39 37  2  0  0  0  0
 40 34  2  0  0  0  0
 41 42  1  0  0  0  0
 43 41  1  0  0  0  0
 44 28  1  0  0  0  0
 45 46  2  0  0  0  0
 45 44  1  0  0  0  0
 47 49  1  0  0  0  0
 47 45  1  0  0  0  0
 48 47  1  0  0  0  0
M  END
>  <minimizedAffinity>
-7.23365641

$$$$

 OpenBabel03252508103D

 49 53  0  0  0  0  0  0  0  0999 V2000
   41.2360   28.4350   42.9860 C   0  0  0  0  0  0  0  0  0  0  0  0
   40.2390   27.7620   42.2980 C   0  0  0  0  0  0  0  0  0  0  0  0
   40.0030   26.4340   42.5540 C   0  0  0  0  0  0  0  0  0  0  0  0
   40.7980   25.8330   43.5120 N   0  0  0  0  0  0  0  0  0  0  0  0
   41.7520   26.4830   44.1690 C   0  0  0  0  0  0  0  0  0  0  0  0
   41.9610   27.7890   43.8950 N   0  0  0  0  0  0  0  0  0  0  0  0
   41.4440   29.4970   42.7980 H   0  0  0  0  0  0  0  0  0  0  0  0
   42.3630   25.9990   44.9140 H   0  0  0  0  0  0  0  0  0  0  0  0
   39.0290   25.6100   41.9430 C   0  0  0  0  0  0  0  0  0  0  0  0
   37.7480   25.3980   42.4590 C   0  0  0  0  0  0  0  0  0  0  0  0
   36.8250   24.5490   41.9060 C   0  0  0  0  0  0  0  0  0  0  0  0
   37.1440   23.8450   40.7720 C   0  0  0  0  0  0  0  0  0  0  0  0
   38.4410   24.0460   40.2280 C   0  0  0  0  0  0  0  0  0  0  0  0
   38.7750   23.3460   39.0980 C   0  0  0  0  0  0  0  0  0  0  0  0
   40.0190   23.4910   38.5180 C   0  0  0  0  0  0  0  0  0  0  0  0
   40.9480   24.3710   39.0970 C   0  0  0  0  0  0  0  0  0  0  0  0
   40.5620   25.0680   40.2570 C   0  0  0  0  0  0  0  0  0  0  0  0
   39.3230   24.8990   40.8090 C   0  0  0  0  0  0  0  0  0  0  0  0
   37.4550   25.9340   43.3540 H   0  0  0  0  0  0  0  0  0  0  0  0
   35.8410   24.4150   42.3390 H   0  0  0  0  0  0  0  0  0  0  0  0
   36.4790   23.1540   40.2700 H   0  0  0  0  0  0  0  0  0  0  0  0
   38.0600   22.6660   38.6480 H   0  0  0  0  0  0  0  0  0  0  0  0
   40.2300   22.9080   37.6220 H   0  0  0  0  0  0  0  0  0  0  0  0
   41.8900   24.4240   38.5780 H   0  0  0  0  0  0  0  0  0  0  0  0
   41.3840   25.6950   40.5280 H   0  0  0  0  0  0  0  0  0  0  0  0
   39.5220   28.4770   41.3780 O   0  0  0  0  0  0  0  0  0  0  0  0
   37.5740   29.0250   43.0410 O   0  0  0  0  0  0  0  0  0  0  0  0
   38.1690   29.4310   41.7400 P   0  0  1  0  0  0  0  0  0  0  0  0
   38.6060   31.0590   41.8790 O   0  0  0  0  0  0  0  0  0  0  0  0
   40.8770   32.6270   42.3670 H   0  0  0  0  0  0  0  0  0  0  0  0
   40.5510   32.4490   41.3800 N   0  0  0  0  0  0  0  0  0  0  0  0
   39.4860   31.7180   41.0690 C   0  0  0  0  0  0  0  0  0  0  0  0
   39.3990   31.7260   39.7120 N   0  0  0  0  0  0  0  0  0  0  0  0
   40.4220   32.4680   39.2280 C   0  0  0  0  0  0  0  0  0  0  0  0
   40.8550   32.8360   37.9690 C   0  0  0  0  0  0  0  0  0  0  0  0
   41.9300   33.5970   37.8260 N   0  0  0  0  0  0  0  0  0  0  0  0
   42.6290   34.0330   38.8840 C   0  0  0  0  0  0  0  0  0  0  0  0
   43.5300   34.6660   38.8700 H   0  0  0  0  0  0  0  0  0  0  0  0
   42.2490   33.7040   40.1190 N   0  0  0  0  0  0  0  0  0  0  0  0
   41.1690   32.9390   40.2890 C   0  0  0  0  0  0  0  0  0  0  0  0
   40.1410   32.3920   36.8360 N   0  0  0  0  0  0  0  0  0  0  0  0
   40.2910   31.8250   35.9510 H   0  0  0  0  0  0  0  0  0  0  0  0
   39.1380   32.6830   36.8020 H   0  0  0  0  0  0  0  0  0  0  0  0
   37.0640   29.2720   40.4870 O   0  0  0  0  0  0  0  0  0  0  0  0
   35.8100   29.8550   40.4100 C   0  0  0  0  0  0  0  0  0  0  0  0
   35.2100   29.2040   39.5340 O   0  0  0  0  0  0  0  0  0  0  0  0
   35.6930   30.9500   41.3420 N   0  0  0  0  0  0  0  0  0  0  0  0
   35.5720   31.9610   41.0860 H   0  0  0  0  0  0  0  0  0  0  0  0
   35.7310   30.7360   42.3560 H   0  0  0  0  0  0  0  0  0  0  0  0
  1  6  1  0  0  0  0
  2  3  1  0  0  0  0
  2  1  2  0  0  0  0
  3  4  2  0  0  0  0
  4  5  1  0  0  0  0
  5  8  1  0  0  0  0
  6  5  2  0  0  0  0
  7  1  1  0  0  0  0
  9 10  1  0  0  0  0
  9  3  1  0  0  0  0
 10 19  1  0  0  0  0
 11 20  1  0  0  0  0
 11 10  2  0  0  0  0
 12 11  1  0  0  0  0
 13 12  2  0  0  0  0
 13 18  1  0  0  0  0
 14 13  1  0  0  0  0
 15 16  1  0  0  0  0
 15 14  2  0  0  0  0
 16 17  2  0  0  0  0
 17 25  1  0  0  0  0
 17 18  1  0  0  0  0
 18  9  2  0  0  0  0
 21 12  1  0  0  0  0
 22 14  1  0  0  0  0
 23 15  1  0  0  0  0
 24 16  1  0  0  0  0
 26 28  1  0  0  0  0
 26  2  1  0  0  0  0
 28 29  1  0  0  0  0
 28 27  2  1  0  0  0
 31 30  1  0  0  0  0
 32 31  1  0  0  0  0
 32 29  1  0  0  0  0
 33 32  2  0  0  0  0
 34 33  1  0  0  0  0
 34 40  1  0  0  0  0
 35 34  2  0  0  0  0
 36 35  1  0  0  0  0
 36 37  2  0  0  0  0
 37 39  1  0  0  0  0
 38 37  1  0  0  0  0
 39 40  2  0  0  0  0
 40 31  1  0  0  0  0
 41 35  1  0  0  0  0
 42 41  1  0  0  0  0
 43 41  1  0  0  0  0
 44 28  1  0  0  0  0
 45 44  1  0  0  0  0
 45 47  1  0  0  0  0
 46 45  2  0  0  0  0
 47 49  1  0  0  0  0
 48 47  1  0  0  0  0
M  END
>  <minimizedAffinity>
-7.20375204

$$$$

 OpenBabel03252508103D

 49 53  0  0  0  0  0  0  0  0999 V2000
   41.8400   29.2400   40.2850 C   0  0  0  0  0  0  0  0  0  0  0  0
   40.5370   28.9270   40.6400 C   0  0  0  0  0  0  0  0  0  0  0  0
   40.2750   28.3560   41.8600 C   0  0  0  0  0  0  0  0  0  0  0  0
   41.3590   28.1240   42.6860 N   0  0  0  0  0  0  0  0  0  0  0  0
   42.6060   28.4260   42.3420 C   0  0  0  0  0  0  0  0  0  0  0  0
   42.8330   28.9860   41.1330 N   0  0  0  0  0  0  0  0  0  0  0  0
   42.0750   29.6950   39.3140 H   0  0  0  0  0  0  0  0  0  0  0  0
   43.4410   28.2390   42.9980 H   0  0  0  0  0  0  0  0  0  0  0  0
   39.0100   27.9800   42.3700 C   0  0  0  0  0  0  0  0  0  0  0  0
   38.2480   28.7700   43.2350 C   0  0  0  0  0  0  0  0  0  0  0  0
   37.0530   28.3820   43.7830 C   0  0  0  0  0  0  0  0  0  0  0  0
   36.5400   27.1440   43.4840 C   0  0  0  0  0  0  0  0  0  0  0  0
   37.2970   26.3240   42.6040 C   0  0  0  0  0  0  0  0  0  0  0  0
   36.7980   25.0840   42.3010 C   0  0  0  0  0  0  0  0  0  0  0  0
   37.4820   24.2350   41.4550 C   0  0  0  0  0  0  0  0  0  0  0  0
   38.7020   24.6550   40.8990 C   0  0  0  0  0  0  0  0  0  0  0  0
   39.1750   25.9360   41.2390 C   0  0  0  0  0  0  0  0  0  0  0  0
   38.4750   26.7510   42.0840 C   0  0  0  0  0  0  0  0  0  0  0  0
   38.6170   29.7540   43.4980 H   0  0  0  0  0  0  0  0  0  0  0  0
   36.4950   29.0260   44.4500 H   0  0  0  0  0  0  0  0  0  0  0  0
   35.6060   26.7560   43.8710 H   0  0  0  0  0  0  0  0  0  0  0  0
   35.8570   24.7570   42.7270 H   0  0  0  0  0  0  0  0  0  0  0  0
   37.0390   23.2610   41.2500 H   0  0  0  0  0  0  0  0  0  0  0  0
   39.1650   23.9310   40.2500 H   0  0  0  0  0  0  0  0  0  0  0  0
   40.0910   26.0780   40.7060 H   0  0  0  0  0  0  0  0  0  0  0  0
   39.5560   29.2130   39.7310 O   0  0  0  0  0  0  0  0  0  0  0  0
   38.8960   31.4520   40.9190 O   0  0  0  0  0  0  0  0  0  0  0  0
   38.6940   30.6700   39.6700 P   0  0  1  0  0  0  0  0  0  0  0  0
   39.2350   31.6320   38.3880 O   0  0  0  0  0  0  0  0  0  0  0  0
   40.9350   29.9490   36.9280 H   0  0  0  0  0  0  0  0  0  0  0  0
   41.2740   30.8870   37.2700 N   0  0  0  0  0  0  0  0  0  0  0  0
   40.5300   31.7390   37.9660 C   0  0  0  0  0  0  0  0  0  0  0  0
   41.3160   32.8200   38.2160 N   0  0  0  0  0  0  0  0  0  0  0  0
   42.5290   32.5960   37.6590 C   0  0  0  0  0  0  0  0  0  0  0  0
   43.7130   33.3030   37.5760 C   0  0  0  0  0  0  0  0  0  0  0  0
   44.7550   32.7900   36.9390 N   0  0  0  0  0  0  0  0  0  0  0  0
   44.7010   31.5830   36.3590 C   0  0  0  0  0  0  0  0  0  0  0  0
   45.5070   31.0730   35.8090 H   0  0  0  0  0  0  0  0  0  0  0  0
   43.5790   30.8640   36.4130 N   0  0  0  0  0  0  0  0  0  0  0  0
   42.5160   31.3580   37.0490 C   0  0  0  0  0  0  0  0  0  0  0  0
   43.8010   34.5770   38.1770 N   0  0  0  0  0  0  0  0  0  0  0  0
   44.0000   35.5860   37.9170 H   0  0  0  0  0  0  0  0  0  0  0  0
   43.6220   34.5950   39.2070 H   0  0  0  0  0  0  0  0  0  0  0  0
   37.0720   30.3120   39.4300 O   0  0  0  0  0  0  0  0  0  0  0  0
   36.1730   29.8610   40.3830 C   0  0  0  0  0  0  0  0  0  0  0  0
   36.0470   28.6440   40.1500 O   0  0  0  0  0  0  0  0  0  0  0  0
   35.7510   30.9390   41.2430 N   0  0  0  0  0  0  0  0  0  0  0  0
   34.7770   31.3250   41.3060 H   0  0  0  0  0  0  0  0  0  0  0  0
   36.4590   31.3830   41.8570 H   0  0  0  0  0  0  0  0  0  0  0  0
  1  2  2  0  0  0  0
  1  6  1  0  0  0  0
  2  3  1  0  0  0  0
  3  9  1  0  0  0  0
  3  4  2  0  0  0  0
  5  4  1  0  0  0  0
  5  8  1  0  0  0  0
  6  5  2  0  0  0  0
  7  1  1  0  0  0  0
  9 10  1  0  0  0  0
 10 19  1  0  0  0  0
 10 11  2  0  0  0  0
 11 20  1  0  0  0  0
 12 11  1  0  0  0  0
 12 21  1  0  0  0  0
 13 12  2  0  0  0  0
 14 13  1  0  0  0  0
 14 22  1  0  0  0  0
 15 14  2  0  0  0  0
 16 17  2  0  0  0  0
 16 15  1  0  0  0  0
 17 18  1  0  0  0  0
 18  9  2  0  0  0  0
 18 13  1  0  0  0  0
 23 15  1  0  0  0  0
 24 16  1  0  0  0  0
 25 17  1  0  0  0  0
 26  2  1  0  0  0  0
 28 26  1  0  0  0  0
 28 27  2  1  0  0  0
 29 28  1  0  0  0  0
 30 31  1  0  0  0  0
 31 32  1  0  0  0  0
 32 33  2  0  0  0  0
 32 29  1  0  0  0  0
 34 33  1  0  0  0  0
 35 34  1  0  0  0  0
 35 41  1  0  0  0  0
 36 35  2  0  0  0  0
 37 39  2  0  0  0  0
 37 36  1  0  0  0  0
 38 37  1  0  0  0  0
 39 40  1  0  0  0  0
 40 31  1  0  0  0  0
 40 34  2  0  0  0  0
 41 43  1  0  0  0  0
 42 41  1  0  0  0  0
 44 28  1  0  0  0  0
 44 45  1  0  0  0  0
 45 47  1  0  0  0  0
 46 45  2  0  0  0  0
 47 48  1  0  0  0  0
 47 49  1  0  0  0  0
M  END
>  <minimizedAffinity>
-7.0407505

$$$$

 OpenBabel03252508103D

 49 53  0  0  0  0  0  0  0  0999 V2000
   36.6590   25.2950   38.4470 C   0  0  0  0  0  0  0  0  0  0  0  0
   36.6840   26.2640   39.4380 C   0  0  0  0  0  0  0  0  0  0  0  0
   37.4060   26.0560   40.5860 C   0  0  0  0  0  0  0  0  0  0  0  0
   38.0870   24.8570   40.6850 N   0  0  0  0  0  0  0  0  0  0  0  0
   38.0600   23.9310   39.7330 C   0  0  0  0  0  0  0  0  0  0  0  0
   37.3390   24.1640   38.6150 N   0  0  0  0  0  0  0  0  0  0  0  0
   36.0870   25.4380   37.5210 H   0  0  0  0  0  0  0  0  0  0  0  0
   38.5980   23.0010   39.8260 H   0  0  0  0  0  0  0  0  0  0  0  0
   37.5340   26.9400   41.6830 C   0  0  0  0  0  0  0  0  0  0  0  0
   36.7270   26.8940   42.8230 C   0  0  0  0  0  0  0  0  0  0  0  0
   36.8040   27.7890   43.8580 C   0  0  0  0  0  0  0  0  0  0  0  0
   37.7210   28.8090   43.8070 C   0  0  0  0  0  0  0  0  0  0  0  0
   38.5540   28.8740   42.6580 C   0  0  0  0  0  0  0  0  0  0  0  0
   39.4710   29.8900   42.5920 C   0  0  0  0  0  0  0  0  0  0  0  0
   40.3110   30.0150   41.5040 C   0  0  0  0  0  0  0  0  0  0  0  0
   40.2200   29.0830   40.4560 C   0  0  0  0  0  0  0  0  0  0  0  0
   39.2640   28.0570   40.5670 C   0  0  0  0  0  0  0  0  0  0  0  0
   38.4430   27.9640   41.6570 C   0  0  0  0  0  0  0  0  0  0  0  0
   35.9890   26.1050   42.9030 H   0  0  0  0  0  0  0  0  0  0  0  0
   36.1580   27.7160   44.7240 H   0  0  0  0  0  0  0  0  0  0  0  0
   37.8490   29.5590   44.5770 H   0  0  0  0  0  0  0  0  0  0  0  0
   39.5450   30.6100   43.3990 H   0  0  0  0  0  0  0  0  0  0  0  0
   41.0200   30.8420   41.5040 H   0  0  0  0  0  0  0  0  0  0  0  0
   40.9140   29.2540   39.6510 H   0  0  0  0  0  0  0  0  0  0  0  0
   39.3640   27.4460   39.6950 H   0  0  0  0  0  0  0  0  0  0  0  0
   35.9690   27.4080   39.2110 O   0  0  0  0  0  0  0  0  0  0  0  0
   35.3540   28.5310   36.9250 O   0  0  0  0  0  0  0  0  0  0  0  0
   36.3480   28.5630   38.0310 P   0  0  1  0  0  0  0  0  0  0  0  0
   36.3120   30.1220   38.6860 O   0  0  0  0  0  0  0  0  0  0  0  0
   38.6630   30.4310   37.1920 H   0  0  0  0  0  0  0  0  0  0  0  0
   38.4680   31.0570   38.0180 N   0  0  0  0  0  0  0  0  0  0  0  0
   37.3780   30.9720   38.7740 C   0  0  0  0  0  0  0  0  0  0  0  0
   37.4940   31.9380   39.7240 N   0  0  0  0  0  0  0  0  0  0  0  0
   38.6620   32.5910   39.5200 C   0  0  0  0  0  0  0  0  0  0  0  0
   39.3190   33.6380   40.1370 C   0  0  0  0  0  0  0  0  0  0  0  0
   40.4890   34.0570   39.6790 N   0  0  0  0  0  0  0  0  0  0  0  0
   41.0720   33.4890   38.6140 C   0  0  0  0  0  0  0  0  0  0  0  0
   42.0360   33.7640   38.1600 H   0  0  0  0  0  0  0  0  0  0  0  0
   40.4750   32.4760   37.9860 N   0  0  0  0  0  0  0  0  0  0  0  0
   39.2970   32.0350   38.4280 C   0  0  0  0  0  0  0  0  0  0  0  0
   38.7300   34.2560   41.2610 N   0  0  0  0  0  0  0  0  0  0  0  0
   38.3890   35.2100   41.5780 H   0  0  0  0  0  0  0  0  0  0  0  0
   38.5460   33.6220   42.0710 H   0  0  0  0  0  0  0  0  0  0  0  0
   37.8980   28.2490   37.4670 O   0  0  0  0  0  0  0  0  0  0  0  0
   38.2480   27.8320   36.1930 C   0  0  0  0  0  0  0  0  0  0  0  0
   38.9800   26.8410   36.3740 O   0  0  0  0  0  0  0  0  0  0  0  0
   37.6470   28.6780   35.1920 N   0  0  0  0  0  0  0  0  0  0  0  0
   38.1670   29.3070   34.5310 H   0  0  0  0  0  0  0  0  0  0  0  0
   36.6140   28.6780   35.1050 H   0  0  0  0  0  0  0  0  0  0  0  0
  1  6  2  0  0  0  0
  1  2  1  0  0  0  0
  2  3  2  0  0  0  0
  3  4  1  0  0  0  0
  3  9  1  0  0  0  0
  5  8  1  0  0  0  0
  5  4  2  0  0  0  0
  6  5  1  0  0  0  0
  7  1  1  0  0  0  0
  9 10  1  0  0  0  0
 10 19  1  0  0  0  0
 10 11  2  0  0  0  0
 11 20  1  0  0  0  0
 12 11  1  0  0  0  0
 12 21  1  0  0  0  0
 13 12  2  0  0  0  0
 14 13  1  0  0  0  0
 14 22  1  0  0  0  0
 15 23  1  0  0  0  0
 15 14  2  0  0  0  0
 16 17  2  0  0  0  0
 16 15  1  0  0  0  0
 17 18  1  0  0  0  0
 18  9  2  0  0  0  0
 18 13  1  0  0  0  0
 24 16  1  0  0  0  0
 25 17  1  0  0  0  0
 26  2  1  0  0  0  0
 28 27  2  6  0  0  0
 28 29  1  0  0  0  0
 28 26  1  0  0  0  0
 29 32  1  0  0  0  0
 30 31  1  0  0  0  0
 31 40  1  0  0  0  0
 31 32  1  0  0  0  0
 32 33  2  0  0  0  0
 34 33  1  0  0  0  0
 34 35  1  0  0  0  0
 35 41  1  0  0  0  0
 36 35  2  0  0  0  0
 37 36  1  0  0  0  0
 38 37  1  0  0  0  0
 39 40  1  0  0  0  0
 39 37  2  0  0  0  0
 40 34  2  0  0  0  0
 41 42  1  0  0  0  0
 41 43  1  0  0  0  0
 44 28  1  0  0  0  0
 45 46  2  0  0  0  0
 45 44  1  0  0  0  0
 47 45  1  0  0  0  0
 48 47  1  0  0  0  0
 49 47  1  0  0  0  0
M  END
>  <minimizedAffinity>
-6.7914629

$$$$

 OpenBabel03252508103D

 49 53  0  0  0  0  0  0  0  0999 V2000
   36.7510   25.3200   38.2870 C   0  0  0  0  0  0  0  0  0  0  0  0
   37.1520   26.1110   39.3530 C   0  0  0  0  0  0  0  0  0  0  0  0
   37.0270   25.6460   40.6390 C   0  0  0  0  0  0  0  0  0  0  0  0
   36.4950   24.3800   40.7960 N   0  0  0  0  0  0  0  0  0  0  0  0
   36.1130   23.6270   39.7710 C   0  0  0  0  0  0  0  0  0  0  0  0
   36.2470   24.1120   38.5170 N   0  0  0  0  0  0  0  0  0  0  0  0
   36.8410   25.6700   37.2500 H   0  0  0  0  0  0  0  0  0  0  0  0
   35.7000   22.6410   39.9100 H   0  0  0  0  0  0  0  0  0  0  0  0
   37.3880   26.3240   41.8270 C   0  0  0  0  0  0  0  0  0  0  0  0
   36.5710   27.2530   42.4770 C   0  0  0  0  0  0  0  0  0  0  0  0
   36.9430   27.9600   43.5910 C   0  0  0  0  0  0  0  0  0  0  0  0
   38.1910   27.7690   44.1300 C   0  0  0  0  0  0  0  0  0  0  0  0
   39.0380   26.8280   43.4870 C   0  0  0  0  0  0  0  0  0  0  0  0
   40.2890   26.6310   44.0130 C   0  0  0  0  0  0  0  0  0  0  0  0
   41.1650   25.7340   43.4370 C   0  0  0  0  0  0  0  0  0  0  0  0
   40.7610   25.0140   42.3000 C   0  0  0  0  0  0  0  0  0  0  0  0
   39.4690   25.2490   41.7950 C   0  0  0  0  0  0  0  0  0  0  0  0
   38.6270   26.1490   42.3860 C   0  0  0  0  0  0  0  0  0  0  0  0
   35.5790   27.4340   42.0840 H   0  0  0  0  0  0  0  0  0  0  0  0
   36.2770   28.6710   44.0640 H   0  0  0  0  0  0  0  0  0  0  0  0
   38.5670   28.2850   45.0060 H   0  0  0  0  0  0  0  0  0  0  0  0
   40.6030   27.1840   44.8910 H   0  0  0  0  0  0  0  0  0  0  0  0
   42.1460   25.6190   43.8960 H   0  0  0  0  0  0  0  0  0  0  0  0
   41.5050   24.3360   41.9190 H   0  0  0  0  0  0  0  0  0  0  0  0
   39.3440   24.6000   40.9540 H   0  0  0  0  0  0  0  0  0  0  0  0
   37.6680   27.3440   39.0580 O   0  0  0  0  0  0  0  0  0  0  0  0
   36.8480   29.1790   37.3780 O   0  0  0  0  0  0  0  0  0  0  0  0
   36.7400   28.7370   38.7940 P   0  0  1  0  0  0  0  0  0  0  0  0
   35.1040   28.4320   39.0970 O   0  0  0  0  0  0  0  0  0  0  0  0
   34.6850   28.3560   36.3270 H   0  0  0  0  0  0  0  0  0  0  0  0
   33.9400   28.7340   36.9710 N   0  0  0  0  0  0  0  0  0  0  0  0
   34.0640   28.8020   38.2930 C   0  0  0  0  0  0  0  0  0  0  0  0
   32.9060   29.3410   38.7590 N   0  0  0  0  0  0  0  0  0  0  0  0
   32.1000   29.5890   37.7010 C   0  0  0  0  0  0  0  0  0  0  0  0
   30.8340   30.1160   37.5370 C   0  0  0  0  0  0  0  0  0  0  0  0
   30.3080   30.2300   36.3270 N   0  0  0  0  0  0  0  0  0  0  0  0
   30.9750   29.8430   35.2300 C   0  0  0  0  0  0  0  0  0  0  0  0
   30.6260   29.8960   34.1870 H   0  0  0  0  0  0  0  0  0  0  0  0
   32.2000   29.3280   35.3390 N   0  0  0  0  0  0  0  0  0  0  0  0
   32.7530   29.2040   36.5470 C   0  0  0  0  0  0  0  0  0  0  0  0
   30.1070   30.5310   38.6730 N   0  0  0  0  0  0  0  0  0  0  0  0
   29.1910   30.3290   39.1710 H   0  0  0  0  0  0  0  0  0  0  0  0
   30.5660   31.2740   39.2460 H   0  0  0  0  0  0  0  0  0  0  0  0
   37.2720   29.9300   39.8480 O   0  0  0  0  0  0  0  0  0  0  0  0
   36.5770   31.0640   40.2350 C   0  0  0  0  0  0  0  0  0  0  0  0
   37.0750   31.9860   39.5630 O   0  0  0  0  0  0  0  0  0  0  0  0
   35.5830   30.7440   41.2300 N   0  0  0  0  0  0  0  0  0  0  0  0
   35.5850   31.0760   42.2260 H   0  0  0  0  0  0  0  0  0  0  0  0
   34.7920   30.1320   40.9540 H   0  0  0  0  0  0  0  0  0  0  0  0
  1  6  2  0  0  0  0
  1  2  1  0  0  0  0
  2  3  2  0  0  0  0
  3  4  1  0  0  0  0
  3  9  1  0  0  0  0
  5  8  1  0  0  0  0
  5  4  2  0  0  0  0
  6  5  1  0  0  0  0
  7  1  1  0  0  0  0
  9 18  2  0  0  0  0
  9 10  1  0  0  0  0
 10 11  2  0  0  0  0
 11 20  1  0  0  0  0
 11 12  1  0  0  0  0
 12 21  1  0  0  0  0
 13 14  1  0  0  0  0
 13 12  2  0  0  0  0
 14 22  1  0  0  0  0
 15 23  1  0  0  0  0
 15 14  2  0  0  0  0
 16 15  1  0  0  0  0
 17 16  2  0  0  0  0
 17 18  1  0  0  0  0
 18 13  1  0  0  0  0
 19 10  1  0  0  0  0
 24 16  1  0  0  0  0
 25 17  1  0  0  0  0
 26  2  1  0  0  0  0
 28 27  2  6  0  0  0
 28 26  1  0  0  0  0
 28 29  1  0  0  0  0
 28 44  1  0  0  0  0
 30 31  1  0  0  0  0
 31 32  1  0  0  0  0
 32 33  2  0  0  0  0
 32 29  1  0  0  0  0
 34 33  1  0  0  0  0
 35 34  1  0  0  0  0
 35 41  1  0  0  0  0
 36 35  2  0  0  0  0
 37 39  2  0  0  0  0
 37 36  1  0  0  0  0
 38 37  1  0  0  0  0
 39 40  1  0  0  0  0
 40 31  1  0  0  0  0
 40 34  2  0  0  0  0
 41 42  1  0  0  0  0
 41 43  1  0  0  0  0
 44 45  1  0  0  0  0
 45 47  1  0  0  0  0
 46 45  2  0  0  0  0
 47 48  1  0  0  0  0
 49 47  1  0  0  0  0
M  END
>  <minimizedAffinity>
-6.69594145

$$$$

 OpenBabel03252508103D

 49 53  0  0  0  0  0  0  0  0999 V2000
   37.2800   29.8890   37.7380 C   0  0  0  0  0  0  0  0  0  0  0  0
   37.5100   29.2130   38.9250 C   0  0  0  0  0  0  0  0  0  0  0  0
   36.5160   28.4520   39.4880 C   0  0  0  0  0  0  0  0  0  0  0  0
   35.3100   28.4050   38.8140 N   0  0  0  0  0  0  0  0  0  0  0  0
   35.0940   29.0550   37.6760 C   0  0  0  0  0  0  0  0  0  0  0  0
   36.0920   29.7960   37.1470 N   0  0  0  0  0  0  0  0  0  0  0  0
   38.0590   30.5040   37.2690 H   0  0  0  0  0  0  0  0  0  0  0  0
   34.1470   29.0070   37.1620 H   0  0  0  0  0  0  0  0  0  0  0  0
   36.5910   27.7050   40.6870 C   0  0  0  0  0  0  0  0  0  0  0  0
   36.4310   28.2530   41.9630 C   0  0  0  0  0  0  0  0  0  0  0  0
   36.5680   27.5460   43.1280 C   0  0  0  0  0  0  0  0  0  0  0  0
   36.8830   26.2110   43.0790 C   0  0  0  0  0  0  0  0  0  0  0  0
   37.0480   25.6310   41.7930 C   0  0  0  0  0  0  0  0  0  0  0  0
   37.3670   24.2990   41.7290 C   0  0  0  0  0  0  0  0  0  0  0  0
   37.5440   23.6720   40.5130 C   0  0  0  0  0  0  0  0  0  0  0  0
   37.3920   24.4140   39.3290 C   0  0  0  0  0  0  0  0  0  0  0  0
   37.0660   25.7780   39.4430 C   0  0  0  0  0  0  0  0  0  0  0  0
   36.9010   26.3710   40.6640 C   0  0  0  0  0  0  0  0  0  0  0  0
   36.1830   29.3040   42.0460 H   0  0  0  0  0  0  0  0  0  0  0  0
   36.4350   28.0110   44.0970 H   0  0  0  0  0  0  0  0  0  0  0  0
   37.0110   25.5780   43.9480 H   0  0  0  0  0  0  0  0  0  0  0  0
   37.4830   23.7240   42.6400 H   0  0  0  0  0  0  0  0  0  0  0  0
   37.7970   22.6130   40.5220 H   0  0  0  0  0  0  0  0  0  0  0  0
   37.5460   23.8450   38.4280 H   0  0  0  0  0  0  0  0  0  0  0  0
   36.9730   26.1570   38.4480 H   0  0  0  0  0  0  0  0  0  0  0  0
   38.7520   29.3410   39.4870 O   0  0  0  0  0  0  0  0  0  0  0  0
   38.6060   30.7470   41.6930 O   0  0  0  0  0  0  0  0  0  0  0  0
   39.2760   30.6910   40.3660 P   0  0  1  0  0  0  0  0  0  0  0  0
   40.9410   30.6070   40.6540 O   0  0  0  0  0  0  0  0  0  0  0  0
   42.1470   30.3570   38.1360 H   0  0  0  0  0  0  0  0  0  0  0  0
   42.4240   31.1400   38.7870 N   0  0  0  0  0  0  0  0  0  0  0  0
   41.8980   31.3230   39.9940 C   0  0  0  0  0  0  0  0  0  0  0  0
   42.5090   32.4220   40.5140 N   0  0  0  0  0  0  0  0  0  0  0  0
   43.3970   32.8820   39.6020 C   0  0  0  0  0  0  0  0  0  0  0  0
   44.2900   33.9340   39.5500 C   0  0  0  0  0  0  0  0  0  0  0  0
   45.0440   34.1200   38.4770 N   0  0  0  0  0  0  0  0  0  0  0  0
   44.9690   33.3050   37.4150 C   0  0  0  0  0  0  0  0  0  0  0  0
   45.5490   33.3750   36.4820 H   0  0  0  0  0  0  0  0  0  0  0  0
   44.1220   32.2750   37.4200 N   0  0  0  0  0  0  0  0  0  0  0  0
   43.3520   32.0670   38.4890 C   0  0  0  0  0  0  0  0  0  0  0  0
   44.3910   34.8100   40.6520 N   0  0  0  0  0  0  0  0  0  0  0  0
   44.2780   35.8390   40.8860 H   0  0  0  0  0  0  0  0  0  0  0  0
   44.6580   34.3570   41.5550 H   0  0  0  0  0  0  0  0  0  0  0  0
   38.9520   32.0660   39.4600 O   0  0  0  0  0  0  0  0  0  0  0  0
   38.3900   33.2460   39.9180 C   0  0  0  0  0  0  0  0  0  0  0  0
   39.3300   34.0620   39.9300 O   0  0  0  0  0  0  0  0  0  0  0  0
   36.9840   33.0740   40.1920 N   0  0  0  0  0  0  0  0  0  0  0  0
   36.5330   33.1380   41.1370 H   0  0  0  0  0  0  0  0  0  0  0  0
   36.3510   32.8690   39.3960 H   0  0  0  0  0  0  0  0  0  0  0  0
  1  2  1  0  0  0  0
  2 26  1  0  0  0  0
  2  3  2  0  0  0  0
  3  9  1  0  0  0  0
  4  3  1  0  0  0  0
  5  4  2  0  0  0  0
  6  5  1  0  0  0  0
  6  1  2  0  0  0  0
  7  1  1  0  0  0  0
  8  5  1  0  0  0  0
  9 10  1  0  0  0  0
 10 19  1  0  0  0  0
 10 11  2  0  0  0  0
 11 20  1  0  0  0  0
 12 11  1  0  0  0  0
 12 21  1  0  0  0  0
 13 12  2  0  0  0  0
 14 13  1  0  0  0  0
 14 22  1  0  0  0  0
 15 23  1  0  0  0  0
 15 14  2  0  0  0  0
 16 17  2  0  0  0  0
 16 15  1  0  0  0  0
 17 18  1  0  0  0  0
 18  9  2  0  0  0  0
 18 13  1  0  0  0  0
 24 16  1  0  0  0  0
 25 17  1  0  0  0  0
 26 28  1  0  0  0  0
 28 29  1  0  0  0  0
 28 27  2  1  0  0  0
 30 31  1  0  0  0  0
 31 32  1  0  0  0  0
 32 33  2  0  0  0  0
 32 29  1  0  0  0  0
 34 33  1  0  0  0  0
 35 34  1  0  0  0  0
 35 41  1  0  0  0  0
 36 35  2  0  0  0  0
 37 39  2  0  0  0  0
 37 36  1  0  0  0  0
 38 37  1  0  0  0  0
 39 40  1  0  0  0  0
 40 31  1  0  0  0  0
 40 34  2  0  0  0  0
 41 42  1  0  0  0  0
 41 43  1  0  0  0  0
 44 45  1  0  0  0  0
 44 28  1  0  0  0  0
 45 46  2  0  0  0  0
 45 47  1  0  0  0  0
 47 48  1  0  0  0  0
 49 47  1  0  0  0  0
M  END
>  <minimizedAffinity>
-6.69342375

$$$$

 OpenBabel03252508103D

 49 53  0  0  0  0  0  0  0  0999 V2000
   42.0750   29.3010   40.7400 C   0  0  0  0  0  0  0  0  0  0  0  0
   40.7450   28.9850   40.9720 C   0  0  0  0  0  0  0  0  0  0  0  0
   40.3720   28.4120   42.1620 C   0  0  0  0  0  0  0  0  0  0  0  0
   41.3750   28.1820   43.0850 N   0  0  0  0  0  0  0  0  0  0  0  0
   42.6470   28.4880   42.8580 C   0  0  0  0  0  0  0  0  0  0  0  0
   42.9850   29.0500   41.6770 N   0  0  0  0  0  0  0  0  0  0  0  0
   42.3980   29.7590   39.7950 H   0  0  0  0  0  0  0  0  0  0  0  0
   43.4180   28.3030   43.5900 H   0  0  0  0  0  0  0  0  0  0  0  0
   39.0660   28.0330   42.5510 C   0  0  0  0  0  0  0  0  0  0  0  0
   38.2230   28.8220   43.3380 C   0  0  0  0  0  0  0  0  0  0  0  0
   36.9830   28.4300   43.7710 C   0  0  0  0  0  0  0  0  0  0  0  0
   36.5060   27.1890   43.4310 C   0  0  0  0  0  0  0  0  0  0  0  0
   37.3450   26.3700   42.6300 C   0  0  0  0  0  0  0  0  0  0  0  0
   36.8830   25.1260   42.2850 C   0  0  0  0  0  0  0  0  0  0  0  0
   37.6470   24.2770   41.5110 C   0  0  0  0  0  0  0  0  0  0  0  0
   38.9120   24.7010   41.0710 C   0  0  0  0  0  0  0  0  0  0  0  0
   39.3450   25.9850   41.4490 C   0  0  0  0  0  0  0  0  0  0  0  0
   38.5660   26.8000   42.2210 C   0  0  0  0  0  0  0  0  0  0  0  0
   38.5610   29.8090   43.6300 H   0  0  0  0  0  0  0  0  0  0  0  0
   36.3610   29.0750   44.3800 H   0  0  0  0  0  0  0  0  0  0  0  0
   35.5410   26.7990   43.7300 H   0  0  0  0  0  0  0  0  0  0  0  0
   35.9060   24.7970   42.6220 H   0  0  0  0  0  0  0  0  0  0  0  0
   37.2290   23.3000   41.2690 H   0  0  0  0  0  0  0  0  0  0  0  0
   39.4370   23.9770   40.4710 H   0  0  0  0  0  0  0  0  0  0  0  0
   40.3070   26.1290   41.0040 H   0  0  0  0  0  0  0  0  0  0  0  0
   39.8520   29.2690   39.9750 O   0  0  0  0  0  0  0  0  0  0  0  0
   40.2790   31.1000   38.1510 O   0  0  0  0  0  0  0  0  0  0  0  0
   39.5160   30.8260   39.3980 P   0  0  1  0  0  0  0  0  0  0  0  0
   37.8740   30.9830   39.0220 O   0  0  0  0  0  0  0  0  0  0  0  0
   38.4510   30.5140   36.3200 H   0  0  0  0  0  0  0  0  0  0  0  0
   37.5640   30.1410   36.7510 N   0  0  0  0  0  0  0  0  0  0  0  0
   37.2210   30.3210   38.0220 C   0  0  0  0  0  0  0  0  0  0  0  0
   36.0240   29.6970   38.1890 N   0  0  0  0  0  0  0  0  0  0  0  0
   35.6670   29.1480   37.0050 C   0  0  0  0  0  0  0  0  0  0  0  0
   34.5910   28.4090   36.5540 C   0  0  0  0  0  0  0  0  0  0  0  0
   34.5360   28.0080   35.2920 N   0  0  0  0  0  0  0  0  0  0  0  0
   35.5100   28.2990   34.4180 C   0  0  0  0  0  0  0  0  0  0  0  0
   35.5560   28.0130   33.3560 H   0  0  0  0  0  0  0  0  0  0  0  0
   36.5680   29.0090   34.8080 N   0  0  0  0  0  0  0  0  0  0  0  0
   36.6470   29.4260   36.0730 C   0  0  0  0  0  0  0  0  0  0  0  0
   33.5500   28.0870   37.4500 N   0  0  0  0  0  0  0  0  0  0  0  0
   33.0610   27.2370   37.8570 H   0  0  0  0  0  0  0  0  0  0  0  0
   33.0700   28.9070   37.8850 H   0  0  0  0  0  0  0  0  0  0  0  0
   39.9030   31.9280   40.6040 O   0  0  0  0  0  0  0  0  0  0  0  0
   39.5830   33.2760   40.6290 C   0  0  0  0  0  0  0  0  0  0  0  0
   40.6740   33.8630   40.5000 O   0  0  0  0  0  0  0  0  0  0  0  0
   38.1620   33.4650   40.7870 N   0  0  0  0  0  0  0  0  0  0  0  0
   37.6920   33.9030   41.6160 H   0  0  0  0  0  0  0  0  0  0  0  0
   37.5370   33.1440   40.0230 H   0  0  0  0  0  0  0  0  0  0  0  0
  1  2  2  0  0  0  0
  1  6  1  0  0  0  0
  2  3  1  0  0  0  0
  3  9  1  0  0  0  0
  3  4  2  0  0  0  0
  5  4  1  0  0  0  0
  5  8  1  0  0  0  0
  6  5  2  0  0  0  0
  7  1  1  0  0  0  0
  9 10  1  0  0  0  0
 10 19  1  0  0  0  0
 10 11  2  0  0  0  0
 11 20  1  0  0  0  0
 12 21  1  0  0  0  0
 12 11  1  0  0  0  0
 13 12  2  0  0  0  0
 14 22  1  0  0  0  0
 14 13  1  0  0  0  0
 15 14  2  0  0  0  0
 16 17  2  0  0  0  0
 16 15  1  0  0  0  0
 17 18  1  0  0  0  0
 18  9  2  0  0  0  0
 18 13  1  0  0  0  0
 23 15  1  0  0  0  0
 24 16  1  0  0  0  0
 25 17  1  0  0  0  0
 26  2  1  0  0  0  0
 28 27  2  6  0  0  0
 28 26  1  0  0  0  0
 28 44  1  0  0  0  0
 29 28  1  0  0  0  0
 30 31  1  0  0  0  0
 31 32  1  0  0  0  0
 32 33  2  0  0  0  0
 32 29  1  0  0  0  0
 34 33  1  0  0  0  0
 35 34  1  0  0  0  0
 35 41  1  0  0  0  0
 36 35  2  0  0  0  0
 37 39  2  0  0  0  0
 37 36  1  0  0  0  0
 38 37  1  0  0  0  0
 39 40  1  0  0  0  0
 40 31  1  0  0  0  0
 40 34  2  0  0  0  0
 41 42  1  0  0  0  0
 41 43  1  0  0  0  0
 44 45  1  0  0  0  0
 45 47  1  0  0  0  0
 46 45  2  0  0  0  0
 47 48  1  0  0  0  0
 49 47  1  0  0  0  0
M  END
>  <minimizedAffinity>
-6.52939653

$$$$

 OpenBabel03252508103D

 49 53  0  0  0  0  0  0  0  0999 V2000
   35.9750   28.6800   38.0140 C   0  0  0  0  0  0  0  0  0  0  0  0
   36.9260   28.2060   38.9030 C   0  0  0  0  0  0  0  0  0  0  0  0
   36.6950   28.2660   40.2540 C   0  0  0  0  0  0  0  0  0  0  0  0
   35.4900   28.8100   40.6570 N   0  0  0  0  0  0  0  0  0  0  0  0
   34.5810   29.2620   39.8010 C   0  0  0  0  0  0  0  0  0  0  0  0
   34.8370   29.1910   38.4760 N   0  0  0  0  0  0  0  0  0  0  0  0
   36.1370   28.6440   36.9280 H   0  0  0  0  0  0  0  0  0  0  0  0
   33.6450   29.6830   40.1320 H   0  0  0  0  0  0  0  0  0  0  0  0
   37.5580   27.8270   41.2860 C   0  0  0  0  0  0  0  0  0  0  0  0
   38.3140   28.6830   42.0920 C   0  0  0  0  0  0  0  0  0  0  0  0
   39.2000   28.2600   43.0470 C   0  0  0  0  0  0  0  0  0  0  0  0
   39.3840   26.9150   43.2540 C   0  0  0  0  0  0  0  0  0  0  0  0
   38.6260   26.0260   42.4470 C   0  0  0  0  0  0  0  0  0  0  0  0
   38.8030   24.6800   42.6400 C   0  0  0  0  0  0  0  0  0  0  0  0
   38.1000   23.7600   41.8900 C   0  0  0  0  0  0  0  0  0  0  0  0
   37.1910   24.2150   40.9200 C   0  0  0  0  0  0  0  0  0  0  0  0
   37.0420   25.6040   40.7570 C   0  0  0  0  0  0  0  0  0  0  0  0
   37.7570   26.4910   41.5130 C   0  0  0  0  0  0  0  0  0  0  0  0
   38.1990   29.7520   41.9600 H   0  0  0  0  0  0  0  0  0  0  0  0
   39.7660   28.9590   43.6500 H   0  0  0  0  0  0  0  0  0  0  0  0
   40.0630   26.4940   43.9840 H   0  0  0  0  0  0  0  0  0  0  0  0
   39.5030   24.3260   43.3880 H   0  0  0  0  0  0  0  0  0  0  0  0
   38.2820   22.7040   42.0850 H   0  0  0  0  0  0  0  0  0  0  0  0
   36.6850   23.4290   40.3850 H   0  0  0  0  0  0  0  0  0  0  0  0
   36.3000   25.7480   40.0000 H   0  0  0  0  0  0  0  0  0  0  0  0
   38.0760   27.6880   38.3710 O   0  0  0  0  0  0  0  0  0  0  0  0
   40.0200   28.0950   36.6630 O   0  0  0  0  0  0  0  0  0  0  0  0
   39.4320   28.6040   37.9310 P   0  0  1  0  0  0  0  0  0  0  0  0
   39.0030   30.2190   37.6680 O   0  0  0  0  0  0  0  0  0  0  0  0
   39.0680   31.5300   40.1440 H   0  0  0  0  0  0  0  0  0  0  0  0
   39.6570   31.8750   39.3400 N   0  0  0  0  0  0  0  0  0  0  0  0
   39.6800   31.3080   38.1390 C   0  0  0  0  0  0  0  0  0  0  0  0
   40.5500   32.0350   37.3880 N   0  0  0  0  0  0  0  0  0  0  0  0
   41.0380   33.0340   38.1580 C   0  0  0  0  0  0  0  0  0  0  0  0
   41.9320   34.0700   37.9680 C   0  0  0  0  0  0  0  0  0  0  0  0
   42.2070   34.9080   38.9570 N   0  0  0  0  0  0  0  0  0  0  0  0
   41.6350   34.7840   40.1630 C   0  0  0  0  0  0  0  0  0  0  0  0
   41.7970   35.4250   41.0440 H   0  0  0  0  0  0  0  0  0  0  0  0
   40.7660   33.8000   40.3940 N   0  0  0  0  0  0  0  0  0  0  0  0
   40.4720   32.9430   39.4140 C   0  0  0  0  0  0  0  0  0  0  0  0
   42.5500   34.2260   36.7090 N   0  0  0  0  0  0  0  0  0  0  0  0
   43.5190   34.2470   36.2760 H   0  0  0  0  0  0  0  0  0  0  0  0
   41.8950   34.3690   35.9080 H   0  0  0  0  0  0  0  0  0  0  0  0
   40.5410   28.5360   39.1890 O   0  0  0  0  0  0  0  0  0  0  0  0
   41.0200   27.3950   39.8120 C   0  0  0  0  0  0  0  0  0  0  0  0
   41.7550   27.8170   40.7240 O   0  0  0  0  0  0  0  0  0  0  0  0
   40.4980   26.2080   39.1810 N   0  0  0  0  0  0  0  0  0  0  0  0
   41.0630   25.4930   38.6600 H   0  0  0  0  0  0  0  0  0  0  0  0
   39.4770   26.0310   39.2380 H   0  0  0  0  0  0  0  0  0  0  0  0
  1  6  2  0  0  0  0
  1  2  1  0  0  0  0
  2  3  2  0  0  0  0
  3  4  1  0  0  0  0
  3  9  1  0  0  0  0
  5  8  1  0  0  0  0
  5  4  2  0  0  0  0
  6  5  1  0  0  0  0
  7  1  1  0  0  0  0
  9 18  2  0  0  0  0
  9 10  1  0  0  0  0
 10 11  2  0  0  0  0
 11 12  1  0  0  0  0
 11 20  1  0  0  0  0
 12 21  1  0  0  0  0
 13 14  1  0  0  0  0
 13 12  2  0  0  0  0
 14 22  1  0  0  0  0
 15 23  1  0  0  0  0
 15 14  2  0  0  0  0
 16 15  1  0  0  0  0
 17 16  2  0  0  0  0
 17 18  1  0  0  0  0
 18 13  1  0  0  0  0
 19 10  1  0  0  0  0
 24 16  1  0  0  0  0
 25 17  1  0  0  0  0
 26  2  1  0  0  0  0
 28 27  2  6  0  0  0
 28 26  1  0  0  0  0
 28 44  1  0  0  0  0
 29 28  1  0  0  0  0
 29 32  1  0  0  0  0
 31 40  1  0  0  0  0
 31 30  1  0  0  0  0
 32 31  1  0  0  0  0
 33 32  2  0  0  0  0
 33 34  1  0  0  0  0
 34 40  1  0  0  0  0
 35 34  2  0  0  0  0
 35 36  1  0  0  0  0
 36 37  2  0  0  0  0
 37 39  1  0  0  0  0
 37 38  1  0  0  0  0
 40 39  2  0  0  0  0
 41 35  1  0  0  0  0
 42 41  1  0  0  0  0
 43 41  1  0  0  0  0
 44 45  1  0  0  0  0
 45 46  2  0  0  0  0
 47 49  1  0  0  0  0
 47 45  1  0  0  0  0
 48 47  1  0  0  0  0
M  END
>  <minimizedAffinity>
-6.50974846

$$$$
