
 OpenBabel03252506383D

 49 53  0  0  1  0  0  0  0  0999 V2000
   45.2910   30.5630   43.6080 O   0  0  0  0  0  0  0  0  0  0  0  0
   44.8230   29.9610   44.5880 C   0  0  0  0  0  0  0  0  0  0  0  0
   45.1470   29.6740   46.0090 C   0  0  1  0  0  0  0  0  0  0  0  0
   44.6680   28.2510   46.1530 C   0  0  0  0  0  0  0  0  0  0  0  0
   43.2550   28.4510   45.6060 C   0  0  0  0  0  0  0  0  0  0  0  0
   43.5630   29.2740   44.4440 N   0  0  0  0  0  0  0  0  0  0  0  0
   44.3090   30.2330   46.5090 H   0  0  0  0  0  0  0  0  0  0  0  0
   45.2810   27.6300   45.4790 H   0  0  0  0  0  0  0  0  0  0  0  0
   44.6710   27.8800   47.1890 H   0  0  0  0  0  0  0  0  0  0  0  0
   42.6960   29.0570   46.3190 H   0  0  0  0  0  0  0  0  0  0  0  0
   42.7850   27.4930   45.3320 H   0  0  0  0  0  0  0  0  0  0  0  0
   40.9410   30.1040   44.4900 H   0  0  0  0  0  0  0  0  0  0  0  0
   41.3800   29.7720   43.5920 N   0  0  0  0  0  0  0  0  0  0  0  0
   42.6400   29.3220   43.3320 C   0  0  0  0  0  0  0  0  0  0  0  0
   42.7510   29.0040   42.0340 N   0  0  0  0  0  0  0  0  0  0  0  0
   41.5400   29.2570   41.4580 C   0  0  0  0  0  0  0  0  0  0  0  0
   41.0310   29.1430   40.2000 C   0  0  0  0  0  0  0  0  0  0  0  0
   39.7630   29.4840   39.9480 N   0  0  0  0  0  0  0  0  0  0  0  0
   38.9220   29.9540   40.9000 C   0  0  0  0  0  0  0  0  0  0  0  0
   37.8920   30.2420   40.7410 H   0  0  0  0  0  0  0  0  0  0  0  0
   39.3890   30.0820   42.1560 N   0  0  0  0  0  0  0  0  0  0  0  0
   40.6620   29.7440   42.4320 C   0  0  0  0  0  0  0  0  0  0  0  0
   41.8830   28.6540   39.1750 N   0  0  0  0  0  0  0  0  0  0  0  0
   42.8760   28.9810   39.1440 H   0  0  0  0  0  0  0  0  0  0  0  0
   41.7600   27.9870   38.3670 H   0  0  0  0  0  0  0  0  0  0  0  0
   46.7810   29.9830   46.5340 S   0  0  0  0  0  0  0  0  0  0  0  0
   44.5400   35.4360   45.1820 C   0  0  0  0  0  0  0  0  0  0  0  0
   45.2060   35.4600   43.9370 C   0  0  0  0  0  0  0  0  0  0  0  0
   46.1490   34.5240   43.6700 C   0  0  0  0  0  0  0  0  0  0  0  0
   46.3920   33.6080   44.6380 N   0  0  0  0  0  0  0  0  0  0  0  0
   45.7650   33.5880   45.8060 C   0  0  0  0  0  0  0  0  0  0  0  0
   44.8340   34.4960   46.0950 N   0  0  0  0  0  0  0  0  0  0  0  0
   46.1140   32.5660   46.7570 N   0  0  0  0  0  0  0  0  0  0  0  0
   45.3770   32.2820   47.9340 C   0  0  0  0  0  0  0  0  0  0  0  0
   46.4590   31.9500   48.9470 C   0  0  0  0  0  0  0  0  0  0  0  0
   47.7430   31.8840   48.1800 C   0  0  0  0  0  0  0  0  0  0  0  0
   47.2540   31.6820   46.7470 C   0  0  1  0  0  0  0  0  0  0  0  0
   43.7940   36.1910   45.3720 H   0  0  0  0  0  0  0  0  0  0  0  0
   46.6590   34.5280   42.7390 H   0  0  0  0  0  0  0  0  0  0  0  0
   44.6050   31.5920   48.0270 H   0  0  0  0  0  0  0  0  0  0  0  0
   44.9650   33.2730   48.3020 H   0  0  0  0  0  0  0  0  0  0  0  0
   46.5270   32.6550   49.7820 H   0  0  0  0  0  0  0  0  0  0  0  0
   46.2570   30.9480   49.4210 H   0  0  0  0  0  0  0  0  0  0  0  0
   48.3310   31.0280   48.5300 H   0  0  0  0  0  0  0  0  0  0  0  0
   48.2710   32.8580   48.2970 H   0  0  0  0  0  0  0  0  0  0  0  0
   48.0700   32.0230   46.0800 H   0  0  0  0  0  0  0  0  0  0  0  0
   44.8300   36.5010   43.0180 N   0  0  0  0  0  0  0  0  0  0  0  0
   45.5700   36.7760   42.3090 H   0  0  0  0  0  0  0  0  0  0  0  0
   43.8960   36.9220   43.0800 H   0  0  0  0  0  0  0  0  0  0  0  0
  1  2  2  0  0  0  0
  2  3  1  0  0  0  0
  3  4  1  0  0  0  0
  3  7  1  1  0  0  0
  3 26  1  0  0  0  0
  4  9  1  0  0  0  0
  5  4  1  0  0  0  0
  5 10  1  0  0  0  0
  6  2  1  0  0  0  0
  6  5  1  0  0  0  0
  8  4  1  0  0  0  0
 11  5  1  0  0  0  0
 13 12  1  0  0  0  0
 14 13  1  0  0  0  0
 14  6  1  0  0  0  0
 15 14  2  0  0  0  0
 16 15  1  0  0  0  0
 16 22  1  0  0  0  0
 17 16  2  0  0  0  0
 18 17  1  0  0  0  0
 18 19  2  0  0  0  0
 19 21  1  0  0  0  0
 20 19  1  0  0  0  0
 21 22  2  0  0  0  0
 22 13  1  0  0  0  0
 23 17  1  0  0  0  0
 24 23  1  0  0  0  0
 25 23  1  0  0  0  0
 26 37  1  0  0  0  0
 27 38  1  0  0  0  0
 27 32  1  0  0  0  0
 28 27  2  0  0  0  0
 29 28  1  0  0  0  0
 29 30  2  0  0  0  0
 30 31  1  0  0  0  0
 31 32  2  0  0  0  0
 31 33  1  0  0  0  0
 33 34  1  0  0  0  0
 34 40  1  0  0  0  0
 34 41  1  0  0  0  0
 34 35  1  0  0  0  0
 35 43  1  0  0  0  0
 35 42  1  0  0  0  0
 36 45  1  0  0  0  0
 36 44  1  0  0  0  0
 36 35  1  0  0  0  0
 37 46  1  6  0  0  0
 37 33  1  0  0  0  0
 37 36  1  0  0  0  0
 39 29  1  0  0  0  0
 47 49  1  0  0  0  0
 47 28  1  0  0  0  0
 48 47  1  0  0  0  0
M  END
>  <minimizedAffinity>
-6.21394682

>  <minimizedRMSD>
0.61258924

$$$$
