
 OpenBabel03252506383D

 49 53  0  0  1  0  0  0  0  0999 V2000
   45.6530   30.6370   43.4380 O   0  0  0  0  0  0  0  0  0  0  0  0
   45.0330   30.0430   44.3360 C   0  0  0  0  0  0  0  0  0  0  0  0
   45.1310   29.7570   45.7900 C   0  0  1  0  0  0  0  0  0  0  0  0
   44.6200   28.3400   45.8610 C   0  0  0  0  0  0  0  0  0  0  0  0
   43.3100   28.5530   45.1010 C   0  0  0  0  0  0  0  0  0  0  0  0
   43.8030   29.3690   44.0000 N   0  0  0  0  0  0  0  0  0  0  0  0
   44.2310   30.3260   46.1530 H   0  0  0  0  0  0  0  0  0  0  0  0
   45.3230   27.7100   45.2900 H   0  0  0  0  0  0  0  0  0  0  0  0
   44.4580   27.9720   46.8850 H   0  0  0  0  0  0  0  0  0  0  0  0
   42.6540   29.1660   45.7190 H   0  0  0  0  0  0  0  0  0  0  0  0
   42.8780   27.5990   44.7600 H   0  0  0  0  0  0  0  0  0  0  0  0
   44.4430   30.7970   41.7360 H   0  0  0  0  0  0  0  0  0  0  0  0
   43.5730   30.2030   41.7650 N   0  0  0  0  0  0  0  0  0  0  0  0
   43.0630   29.4230   42.7590 C   0  0  0  0  0  0  0  0  0  0  0  0
   41.9260   28.8450   42.3450 N   0  0  0  0  0  0  0  0  0  0  0  0
   41.7090   29.2660   41.0650 C   0  0  0  0  0  0  0  0  0  0  0  0
   40.7480   29.0380   40.1260 C   0  0  0  0  0  0  0  0  0  0  0  0
   40.8230   29.6180   38.9250 N   0  0  0  0  0  0  0  0  0  0  0  0
   41.8310   30.4500   38.5690 C   0  0  0  0  0  0  0  0  0  0  0  0
   41.9290   30.9410   37.6090 H   0  0  0  0  0  0  0  0  0  0  0  0
   42.8000   30.7010   39.4680 N   0  0  0  0  0  0  0  0  0  0  0  0
   42.7450   30.1260   40.6850 C   0  0  0  0  0  0  0  0  0  0  0  0
   39.6760   28.1710   40.4650 N   0  0  0  0  0  0  0  0  0  0  0  0
   39.8810   27.2990   41.0050 H   0  0  0  0  0  0  0  0  0  0  0  0
   38.6340   28.1830   40.2960 H   0  0  0  0  0  0  0  0  0  0  0  0
   46.6670   30.0510   46.5600 S   0  0  0  0  0  0  0  0  0  0  0  0
   44.5090   35.5190   45.1340 C   0  0  0  0  0  0  0  0  0  0  0  0
   45.1770   35.5170   43.8910 C   0  0  0  0  0  0  0  0  0  0  0  0
   46.1080   34.5640   43.6380 C   0  0  0  0  0  0  0  0  0  0  0  0
   46.3350   33.6570   44.6180 N   0  0  0  0  0  0  0  0  0  0  0  0
   45.7050   33.6610   45.7850 C   0  0  0  0  0  0  0  0  0  0  0  0
   44.7870   34.5860   46.0590 N   0  0  0  0  0  0  0  0  0  0  0  0
   46.0370   32.6460   46.7490 N   0  0  0  0  0  0  0  0  0  0  0  0
   45.2930   32.3870   47.9280 C   0  0  0  0  0  0  0  0  0  0  0  0
   46.3680   32.0530   48.9480 C   0  0  0  0  0  0  0  0  0  0  0  0
   47.6530   31.9580   48.1850 C   0  0  0  0  0  0  0  0  0  0  0  0
   47.1640   31.7460   46.7530 C   0  0  1  0  0  0  0  0  0  0  0  0
   43.7720   36.2860   45.3130 H   0  0  0  0  0  0  0  0  0  0  0  0
   46.6190   34.5490   42.7090 H   0  0  0  0  0  0  0  0  0  0  0  0
   44.5110   31.7100   48.0280 H   0  0  0  0  0  0  0  0  0  0  0  0
   44.8950   33.3890   48.2830 H   0  0  0  0  0  0  0  0  0  0  0  0
   46.4440   32.7670   49.7740 H   0  0  0  0  0  0  0  0  0  0  0  0
   46.1500   31.0600   49.4340 H   0  0  0  0  0  0  0  0  0  0  0  0
   48.2280   31.0990   48.5470 H   0  0  0  0  0  0  0  0  0  0  0  0
   48.1950   32.9270   48.2900 H   0  0  0  0  0  0  0  0  0  0  0  0
   47.9860   32.0660   46.0840 H   0  0  0  0  0  0  0  0  0  0  0  0
   44.8180   36.5520   42.9580 N   0  0  0  0  0  0  0  0  0  0  0  0
   45.5640   36.8070   42.2480 H   0  0  0  0  0  0  0  0  0  0  0  0
   43.8910   36.9870   43.0120 H   0  0  0  0  0  0  0  0  0  0  0  0
  1  2  2  0  0  0  0
  2  3  1  0  0  0  0
  3  4  1  0  0  0  0
  3  7  1  1  0  0  0
  3 26  1  0  0  0  0
  4  9  1  0  0  0  0
  5 10  1  0  0  0  0
  5  4  1  0  0  0  0
  6  2  1  0  0  0  0
  6  5  1  0  0  0  0
  8  4  1  0  0  0  0
 11  5  1  0  0  0  0
 12 13  1  0  0  0  0
 13 14  1  0  0  0  0
 14  6  1  0  0  0  0
 15 14  2  0  0  0  0
 16 15  1  0  0  0  0
 17 23  1  0  0  0  0
 17 16  2  0  0  0  0
 18 17  1  0  0  0  0
 19 18  2  0  0  0  0
 19 21  1  0  0  0  0
 20 19  1  0  0  0  0
 21 22  2  0  0  0  0
 22 16  1  0  0  0  0
 22 13  1  0  0  0  0
 23 24  1  0  0  0  0
 25 23  1  0  0  0  0
 26 37  1  0  0  0  0
 27 38  1  0  0  0  0
 27 32  1  0  0  0  0
 28 27  2  0  0  0  0
 29 28  1  0  0  0  0
 29 30  2  0  0  0  0
 30 31  1  0  0  0  0
 31 32  2  0  0  0  0
 31 33  1  0  0  0  0
 33 37  1  0  0  0  0
 33 34  1  0  0  0  0
 34 40  1  0  0  0  0
 34 41  1  0  0  0  0
 34 35  1  0  0  0  0
 35 43  1  0  0  0  0
 35 42  1  0  0  0  0
 36 45  1  0  0  0  0
 36 44  1  0  0  0  0
 36 35  1  0  0  0  0
 37 46  1  6  0  0  0
 37 36  1  0  0  0  0
 39 29  1  0  0  0  0
 47 49  1  0  0  0  0
 47 28  1  0  0  0  0
 48 47  1  0  0  0  0
M  END
>  <minimizedAffinity>
-5.77643967

>  <minimizedRMSD>
0.164513931

$$$$
