
 OpenBabel03252506383D

 49 53  0  0  1  0  0  0  0  0999 V2000
   45.3380   30.6250   43.5880 O   0  0  0  0  0  0  0  0  0  0  0  0
   44.8680   29.9920   44.5470 C   0  0  0  0  0  0  0  0  0  0  0  0
   45.1790   29.6750   45.9640 C   0  0  1  0  0  0  0  0  0  0  0  0
   44.7190   28.2420   46.0680 C   0  0  0  0  0  0  0  0  0  0  0  0
   43.3100   28.4360   45.5080 C   0  0  0  0  0  0  0  0  0  0  0  0
   43.6200   29.2910   44.3700 N   0  0  0  0  0  0  0  0  0  0  0  0
   44.3270   30.2090   46.4670 H   0  0  0  0  0  0  0  0  0  0  0  0
   45.3500   27.6470   45.3860 H   0  0  0  0  0  0  0  0  0  0  0  0
   44.7150   27.8460   47.0950 H   0  0  0  0  0  0  0  0  0  0  0  0
   42.7340   29.0150   46.2290 H   0  0  0  0  0  0  0  0  0  0  0  0
   42.8570   27.4780   45.2050 H   0  0  0  0  0  0  0  0  0  0  0  0
   41.9560   27.2960   43.4640 H   0  0  0  0  0  0  0  0  0  0  0  0
   41.9780   28.2340   42.9830 N   0  0  0  0  0  0  0  0  0  0  0  0
   42.7100   29.3530   43.2490 C   0  0  0  0  0  0  0  0  0  0  0  0
   42.4070   30.3140   42.3660 N   0  0  0  0  0  0  0  0  0  0  0  0
   41.4670   29.7990   41.5230 C   0  0  0  0  0  0  0  0  0  0  0  0
   40.7780   30.2680   40.4440 C   0  0  0  0  0  0  0  0  0  0  0  0
   39.8950   29.4910   39.8130 N   0  0  0  0  0  0  0  0  0  0  0  0
   39.6320   28.2160   40.1890 C   0  0  0  0  0  0  0  0  0  0  0  0
   38.9250   27.5530   39.7060 H   0  0  0  0  0  0  0  0  0  0  0  0
   40.2920   27.7150   41.2490 N   0  0  0  0  0  0  0  0  0  0  0  0
   41.1850   28.4820   41.9020 C   0  0  0  0  0  0  0  0  0  0  0  0
   41.0290   31.6000   40.0220 N   0  0  0  0  0  0  0  0  0  0  0  0
   41.1430   32.3490   40.7430 H   0  0  0  0  0  0  0  0  0  0  0  0
   41.1390   32.0700   39.0820 H   0  0  0  0  0  0  0  0  0  0  0  0
   46.8020   29.9950   46.5170 S   0  0  0  0  0  0  0  0  0  0  0  0
   44.5310   35.4360   45.1650 C   0  0  0  0  0  0  0  0  0  0  0  0
   45.2080   35.4690   43.9270 C   0  0  0  0  0  0  0  0  0  0  0  0
   46.1610   34.5420   43.6650 C   0  0  0  0  0  0  0  0  0  0  0  0
   46.4030   33.6240   44.6320 N   0  0  0  0  0  0  0  0  0  0  0  0
   45.7640   33.5940   45.7930 C   0  0  0  0  0  0  0  0  0  0  0  0
   44.8230   34.4940   46.0770 N   0  0  0  0  0  0  0  0  0  0  0  0
   46.1120   32.5710   46.7440 N   0  0  0  0  0  0  0  0  0  0  0  0
   45.3660   32.2770   47.9120 C   0  0  0  0  0  0  0  0  0  0  0  0
   46.4410   31.9500   48.9350 C   0  0  0  0  0  0  0  0  0  0  0  0
   47.7330   31.8960   48.1800 C   0  0  0  0  0  0  0  0  0  0  0  0
   47.2590   31.6970   46.7410 C   0  0  1  0  0  0  0  0  0  0  0  0
   43.7760   36.1830   45.3500 H   0  0  0  0  0  0  0  0  0  0  0  0
   46.6800   34.5540   42.7390 H   0  0  0  0  0  0  0  0  0  0  0  0
   44.5990   31.5800   47.9960 H   0  0  0  0  0  0  0  0  0  0  0  0
   44.9430   33.2630   48.2810 H   0  0  0  0  0  0  0  0  0  0  0  0
   46.4950   32.6520   49.7730 H   0  0  0  0  0  0  0  0  0  0  0  0
   46.2420   30.9440   49.4030 H   0  0  0  0  0  0  0  0  0  0  0  0
   48.3240   31.0440   48.5320 H   0  0  0  0  0  0  0  0  0  0  0  0
   48.2520   32.8750   48.3050 H   0  0  0  0  0  0  0  0  0  0  0  0
   48.0790   32.0470   46.0840 H   0  0  0  0  0  0  0  0  0  0  0  0
   44.8320   36.5110   43.0080 N   0  0  0  0  0  0  0  0  0  0  0  0
   45.5770   36.7950   42.3080 H   0  0  0  0  0  0  0  0  0  0  0  0
   43.8950   36.9250   43.0620 H   0  0  0  0  0  0  0  0  0  0  0  0
  1  2  2  0  0  0  0
  2  3  1  0  0  0  0
  3  4  1  0  0  0  0
  3  7  1  1  0  0  0
  3 26  1  0  0  0  0
  4  9  1  0  0  0  0
  5  4  1  0  0  0  0
  5 10  1  0  0  0  0
  6  2  1  0  0  0  0
  6  5  1  0  0  0  0
  8  4  1  0  0  0  0
 11  5  1  0  0  0  0
 13 14  1  0  0  0  0
 13 12  1  0  0  0  0
 14  6  1  0  0  0  0
 15 14  2  0  0  0  0
 16 22  1  0  0  0  0
 16 15  1  0  0  0  0
 17 16  2  0  0  0  0
 18 19  2  0  0  0  0
 18 17  1  0  0  0  0
 19 21  1  0  0  0  0
 20 19  1  0  0  0  0
 21 22  2  0  0  0  0
 22 13  1  0  0  0  0
 23 17  1  0  0  0  0
 23 24  1  0  0  0  0
 25 23  1  0  0  0  0
 26 37  1  0  0  0  0
 27 38  1  0  0  0  0
 27 32  1  0  0  0  0
 28 27  2  0  0  0  0
 29 28  1  0  0  0  0
 29 30  2  0  0  0  0
 30 31  1  0  0  0  0
 31 32  2  0  0  0  0
 31 33  1  0  0  0  0
 33 34  1  0  0  0  0
 34 40  1  0  0  0  0
 34 41  1  0  0  0  0
 34 35  1  0  0  0  0
 35 43  1  0  0  0  0
 35 42  1  0  0  0  0
 36 45  1  0  0  0  0
 36 44  1  0  0  0  0
 36 35  1  0  0  0  0
 37 46  1  6  0  0  0
 37 33  1  0  0  0  0
 37 36  1  0  0  0  0
 39 29  1  0  0  0  0
 47 49  1  0  0  0  0
 47 28  1  0  0  0  0
 48 47  1  0  0  0  0
M  END
>  <minimizedAffinity>
-5.97213745

>  <minimizedRMSD>
0.521466136

$$$$
