
 OpenBabel03252500253D

 42 45  0  0  1  0  0  0  0  0999 V2000
   47.9250   29.7560   47.7170 C   0  0  2  0  0  0  0  0  0  0  0  0
   46.4570   29.6920   47.5430 C   0  0  2  0  0  0  0  0  0  0  0  0
   46.2940   29.1230   46.1830 C   0  0  0  0  0  0  0  0  0  0  0  0
   47.3870   28.3070   45.9370 O   0  0  0  0  0  0  0  0  0  0  0  0
   48.3030   28.4900   46.9220 C   0  0  0  0  0  0  0  0  0  0  0  0
   48.5680   30.4790   47.3180 H   0  0  0  0  0  0  0  0  0  0  0  0
   46.0840   29.0530   48.3870 H   0  0  0  0  0  0  0  0  0  0  0  0
   45.4450   28.3790   46.2890 H   0  0  0  0  0  0  0  0  0  0  0  0
   45.9700   29.7770   45.3980 H   0  0  0  0  0  0  0  0  0  0  0  0
   48.1970   27.6390   47.6470 H   0  0  0  0  0  0  0  0  0  0  0  0
   49.3340   28.4960   46.5750 H   0  0  0  0  0  0  0  0  0  0  0  0
   45.8140   30.9000   47.6850 O   0  0  0  0  0  0  0  0  0  0  0  0
   47.5600   32.7940   47.7400 O   0  0  0  0  0  0  0  0  0  0  0  0
   46.6100   32.0760   46.8180 P   0  0  1  0  0  0  0  0  0  0  0  0
   47.5040   31.3400   45.5830 O   0  0  0  0  0  0  0  0  0  0  0  0
   47.0880   31.4350   44.7070 H   0  0  0  0  0  0  0  0  0  0  0  0
   45.5350   33.2390   46.1690 O   0  0  0  0  0  0  0  0  0  0  0  0
   45.0410   35.4670   43.4340 C   0  0  0  0  0  0  0  0  0  0  0  0
   46.2020   35.3030   42.6300 C   0  0  0  0  0  0  0  0  0  0  0  0
   47.1540   34.3820   43.0940 C   0  0  0  0  0  0  0  0  0  0  0  0
   46.9150   33.7240   44.2460 N   0  0  0  0  0  0  0  0  0  0  0  0
   45.7910   33.9150   44.9770 C   0  0  0  0  0  0  0  0  0  0  0  0
   44.8710   34.7820   44.5610 N   0  0  0  0  0  0  0  0  0  0  0  0
   46.3850   35.8250   41.7210 H   0  0  0  0  0  0  0  0  0  0  0  0
   48.0630   34.1930   42.5520 H   0  0  0  0  0  0  0  0  0  0  0  0
   44.0980   36.3720   42.9860 O   0  0  0  0  0  0  0  0  0  0  0  0
   44.3660   37.3440   42.8820 H   0  0  0  0  0  0  0  0  0  0  0  0
   48.3090   29.6670   49.0460 O   0  0  0  0  0  0  0  0  0  0  0  0
   49.3930   32.0910   48.3430 H   0  0  0  0  0  0  0  0  0  0  0  0
   49.6350   31.5820   49.2240 N   0  0  0  0  0  0  0  0  0  0  0  0
   49.2180   30.3970   49.7420 C   0  0  0  0  0  0  0  0  0  0  0  0
   49.8590   30.2200   50.9160 N   0  0  0  0  0  0  0  0  0  0  0  0
   50.6700   31.2400   51.1760 C   0  0  0  0  0  0  0  0  0  0  0  0
   51.5140   31.4980   52.2360 C   0  0  0  0  0  0  0  0  0  0  0  0
   52.2300   32.6530   52.2130 N   0  0  0  0  0  0  0  0  0  0  0  0
   52.0980   33.5060   51.1640 C   0  0  0  0  0  0  0  0  0  0  0  0
   52.6850   34.4150   51.1830 H   0  0  0  0  0  0  0  0  0  0  0  0
   51.2680   33.2310   50.1430 N   0  0  0  0  0  0  0  0  0  0  0  0
   50.5270   32.0980   50.1050 C   0  0  0  0  0  0  0  0  0  0  0  0
   51.6160   30.5670   53.3120 N   0  0  0  0  0  0  0  0  0  0  0  0
   51.0350   30.3510   54.1740 H   0  0  0  0  0  0  0  0  0  0  0  0
   52.4640   29.9320   53.2570 H   0  0  0  0  0  0  0  0  0  0  0  0
  1  6  1  6  0  0  0
  1 28  1  0  0  0  0
  2 12  1  0  0  0  0
  2  1  1  0  0  0  0
  2  7  1  1  0  0  0
  3  8  1  0  0  0  0
  3  2  1  0  0  0  0
  4  3  1  0  0  0  0
  4  5  1  0  0  0  0
  5 10  1  0  0  0  0
  5  1  1  0  0  0  0
  9  3  1  0  0  0  0
 11  5  1  0  0  0  0
 14 12  1  0  0  0  0
 14 13  2  1  0  0  0
 15 14  1  0  0  0  0
 16 15  1  0  0  0  0
 17 14  1  0  0  0  0
 18 23  1  0  0  0  0
 19 20  1  0  0  0  0
 19 18  2  0  0  0  0
 20 21  2  0  0  0  0
 21 22  1  0  0  0  0
 22 17  1  0  0  0  0
 23 22  2  0  0  0  0
 24 19  1  0  0  0  0
 25 20  1  0  0  0  0
 26 18  1  0  0  0  0
 27 26  1  0  0  0  0
 28 31  1  0  0  0  0
 29 30  1  0  0  0  0
 30 31  1  0  0  0  0
 30 39  1  0  0  0  0
 31 32  2  0  0  0  0
 32 33  1  0  0  0  0
 33 34  1  0  0  0  0
 34 40  1  0  0  0  0
 35 34  2  0  0  0  0
 36 37  1  0  0  0  0
 36 35  1  0  0  0  0
 38 36  2  0  0  0  0
 39 38  1  0  0  0  0
 39 33  2  0  0  0  0
 40 41  1  0  0  0  0
 42 40  1  0  0  0  0
M  END
>  <minimizedAffinity>
-6.05165672

>  <minimizedRMSD>
1.27301061

$$$$
