
 OpenBabel03252500253D

 42 45  0  0  1  0  0  0  0  0999 V2000
   47.5580   30.0610   47.9980 C   0  0  2  0  0  0  0  0  0  0  0  0
   46.0940   29.9720   47.7990 C   0  0  2  0  0  0  0  0  0  0  0  0
   45.9610   29.1440   46.5760 C   0  0  0  0  0  0  0  0  0  0  0  0
   47.0500   28.2880   46.5290 O   0  0  0  0  0  0  0  0  0  0  0  0
   47.9420   28.6590   47.4830 C   0  0  0  0  0  0  0  0  0  0  0  0
   48.2200   30.6850   47.4810 H   0  0  0  0  0  0  0  0  0  0  0  0
   45.6920   29.5170   48.7430 H   0  0  0  0  0  0  0  0  0  0  0  0
   45.1000   28.4410   46.8050 H   0  0  0  0  0  0  0  0  0  0  0  0
   45.6650   29.6290   45.6680 H   0  0  0  0  0  0  0  0  0  0  0  0
   47.8070   27.9710   48.3600 H   0  0  0  0  0  0  0  0  0  0  0  0
   48.9820   28.5890   47.1710 H   0  0  0  0  0  0  0  0  0  0  0  0
   45.4630   31.1880   47.6790 O   0  0  0  0  0  0  0  0  0  0  0  0
   47.4320   32.8460   47.5870 O   0  0  0  0  0  0  0  0  0  0  0  0
   46.3690   32.2110   46.7310 P   0  0  1  0  0  0  0  0  0  0  0  0
   47.1210   31.3110   45.5100 O   0  0  0  0  0  0  0  0  0  0  0  0
   46.6910   31.4170   44.6420 H   0  0  0  0  0  0  0  0  0  0  0  0
   45.4260   33.4700   46.0530 O   0  0  0  0  0  0  0  0  0  0  0  0
   45.1760   35.6750   43.2670 C   0  0  0  0  0  0  0  0  0  0  0  0
   46.3210   35.3800   42.4780 C   0  0  0  0  0  0  0  0  0  0  0  0
   47.1740   34.3790   42.9700 C   0  0  0  0  0  0  0  0  0  0  0  0
   46.8620   33.7730   44.1340 N   0  0  0  0  0  0  0  0  0  0  0  0
   45.7570   34.0900   44.8490 C   0  0  0  0  0  0  0  0  0  0  0  0
   44.9310   35.0360   44.4070 N   0  0  0  0  0  0  0  0  0  0  0  0
   46.5630   35.8610   41.5600 H   0  0  0  0  0  0  0  0  0  0  0  0
   48.0630   34.0880   42.4410 H   0  0  0  0  0  0  0  0  0  0  0  0
   44.3320   36.6600   42.7910 O   0  0  0  0  0  0  0  0  0  0  0  0
   44.6960   37.5980   42.6700 H   0  0  0  0  0  0  0  0  0  0  0  0
   47.9060   30.2370   49.3280 O   0  0  0  0  0  0  0  0  0  0  0  0
   49.5530   28.8670   51.0490 H   0  0  0  0  0  0  0  0  0  0  0  0
   49.7470   29.8370   50.7090 N   0  0  0  0  0  0  0  0  0  0  0  0
   49.0710   30.6690   49.8750 C   0  0  0  0  0  0  0  0  0  0  0  0
   49.7790   31.8140   49.7840 N   0  0  0  0  0  0  0  0  0  0  0  0
   50.8810   31.7550   50.5240 C   0  0  0  0  0  0  0  0  0  0  0  0
   51.8930   32.6660   50.7440 C   0  0  0  0  0  0  0  0  0  0  0  0
   52.9070   32.3040   51.5720 N   0  0  0  0  0  0  0  0  0  0  0  0
   52.8960   31.0760   52.1530 C   0  0  0  0  0  0  0  0  0  0  0  0
   53.7220   30.8260   52.8060 H   0  0  0  0  0  0  0  0  0  0  0  0
   51.8970   30.2060   51.9230 N   0  0  0  0  0  0  0  0  0  0  0  0
   50.8580   30.5060   51.1080 C   0  0  0  0  0  0  0  0  0  0  0  0
   51.8560   33.9430   50.1080 N   0  0  0  0  0  0  0  0  0  0  0  0
   52.1000   34.3070   49.1410 H   0  0  0  0  0  0  0  0  0  0  0  0
   51.5030   34.7270   50.7300 H   0  0  0  0  0  0  0  0  0  0  0  0
  1  6  1  6  0  0  0
  1 28  1  0  0  0  0
  2  1  1  0  0  0  0
  2  7  1  1  0  0  0
  3  8  1  0  0  0  0
  3  2  1  0  0  0  0
  4  3  1  0  0  0  0
  4  5  1  0  0  0  0
  5  1  1  0  0  0  0
  5 10  1  0  0  0  0
  9  3  1  0  0  0  0
 11  5  1  0  0  0  0
 12  2  1  0  0  0  0
 14 13  2  1  0  0  0
 14 12  1  0  0  0  0
 15 14  1  0  0  0  0
 16 15  1  0  0  0  0
 17 14  1  0  0  0  0
 18 23  1  0  0  0  0
 19 20  1  0  0  0  0
 19 18  2  0  0  0  0
 20 21  2  0  0  0  0
 21 22  1  0  0  0  0
 22 17  1  0  0  0  0
 23 22  2  0  0  0  0
 24 19  1  0  0  0  0
 25 20  1  0  0  0  0
 26 18  1  0  0  0  0
 27 26  1  0  0  0  0
 28 31  1  0  0  0  0
 30 29  1  0  0  0  0
 30 39  1  0  0  0  0
 31 30  1  0  0  0  0
 32 31  2  0  0  0  0
 32 33  1  0  0  0  0
 33 34  2  0  0  0  0
 33 39  1  0  0  0  0
 34 35  1  0  0  0  0
 35 36  2  0  0  0  0
 36 37  1  0  0  0  0
 38 36  1  0  0  0  0
 39 38  2  0  0  0  0
 40 42  1  0  0  0  0
 40 34  1  0  0  0  0
 41 40  1  0  0  0  0
M  END
>  <minimizedAffinity>
-6.09926462

>  <minimizedRMSD>
0.827525318

$$$$
