
 OpenBabel03252506383D

 49 53  0  0  1  0  0  0  0  0999 V2000
   45.4940   30.5900   43.4970 O   0  0  0  0  0  0  0  0  0  0  0  0
   44.9420   29.9960   44.4380 C   0  0  0  0  0  0  0  0  0  0  0  0
   45.1450   29.7150   45.8820 C   0  0  1  0  0  0  0  0  0  0  0  0
   44.6450   28.2970   45.9940 C   0  0  0  0  0  0  0  0  0  0  0  0
   43.2830   28.5040   45.3300 C   0  0  0  0  0  0  0  0  0  0  0  0
   43.6930   29.3180   44.1930 N   0  0  0  0  0  0  0  0  0  0  0  0
   44.2720   30.2830   46.3080 H   0  0  0  0  0  0  0  0  0  0  0  0
   45.3070   27.6670   45.3760 H   0  0  0  0  0  0  0  0  0  0  0  0
   44.5590   27.9320   47.0280 H   0  0  0  0  0  0  0  0  0  0  0  0
   42.6720   29.1170   45.9910 H   0  0  0  0  0  0  0  0  0  0  0  0
   42.8300   27.5470   45.0230 H   0  0  0  0  0  0  0  0  0  0  0  0
   41.0800   28.4930   43.9520 H   0  0  0  0  0  0  0  0  0  0  0  0
   41.5900   28.8970   43.1250 N   0  0  0  0  0  0  0  0  0  0  0  0
   42.8660   29.3650   43.0090 C   0  0  0  0  0  0  0  0  0  0  0  0
   43.0830   29.7880   41.7550 N   0  0  0  0  0  0  0  0  0  0  0  0
   41.9260   29.5870   41.0620 C   0  0  0  0  0  0  0  0  0  0  0  0
   41.5210   29.8050   39.7790 C   0  0  0  0  0  0  0  0  0  0  0  0
   40.2810   29.4900   39.3950 N   0  0  0  0  0  0  0  0  0  0  0  0
   39.3660   28.9440   40.2320 C   0  0  0  0  0  0  0  0  0  0  0  0
   38.3530   28.6730   39.9630 H   0  0  0  0  0  0  0  0  0  0  0  0
   39.7270   28.7120   41.5070 N   0  0  0  0  0  0  0  0  0  0  0  0
   40.9710   29.0230   41.9160 C   0  0  0  0  0  0  0  0  0  0  0  0
   42.4530   30.3770   38.8730 N   0  0  0  0  0  0  0  0  0  0  0  0
   43.0720   31.1530   39.2040 H   0  0  0  0  0  0  0  0  0  0  0  0
   42.7040   30.2020   37.8620 H   0  0  0  0  0  0  0  0  0  0  0  0
   46.7320   30.0160   46.5390 S   0  0  0  0  0  0  0  0  0  0  0  0
   44.5240   35.4740   45.1520 C   0  0  0  0  0  0  0  0  0  0  0  0
   45.1910   35.4860   43.9080 C   0  0  0  0  0  0  0  0  0  0  0  0
   46.1300   34.5430   43.6480 C   0  0  0  0  0  0  0  0  0  0  0  0
   46.3660   33.6320   44.6220 N   0  0  0  0  0  0  0  0  0  0  0  0
   45.7380   33.6220   45.7890 C   0  0  0  0  0  0  0  0  0  0  0  0
   44.8120   34.5380   46.0710 N   0  0  0  0  0  0  0  0  0  0  0  0
   46.0790   32.6040   46.7460 N   0  0  0  0  0  0  0  0  0  0  0  0
   45.3400   32.3310   47.9240 C   0  0  0  0  0  0  0  0  0  0  0  0
   46.4190   32.0000   48.9400 C   0  0  0  0  0  0  0  0  0  0  0  0
   47.7040   31.9210   48.1760 C   0  0  0  0  0  0  0  0  0  0  0  0
   47.2150   31.7140   46.7430 C   0  0  1  0  0  0  0  0  0  0  0  0
   43.7820   36.2340   45.3370 H   0  0  0  0  0  0  0  0  0  0  0  0
   46.6400   34.5390   42.7170 H   0  0  0  0  0  0  0  0  0  0  0  0
   44.5640   31.6460   48.0210 H   0  0  0  0  0  0  0  0  0  0  0  0
   44.9340   33.3270   48.2860 H   0  0  0  0  0  0  0  0  0  0  0  0
   46.4900   32.7090   49.7710 H   0  0  0  0  0  0  0  0  0  0  0  0
   46.2100   31.0010   49.4200 H   0  0  0  0  0  0  0  0  0  0  0  0
   48.2860   31.0640   48.5310 H   0  0  0  0  0  0  0  0  0  0  0  0
   48.2370   32.8930   48.2860 H   0  0  0  0  0  0  0  0  0  0  0  0
   48.0330   32.0450   46.0750 H   0  0  0  0  0  0  0  0  0  0  0  0
   44.8220   36.5240   42.9820 N   0  0  0  0  0  0  0  0  0  0  0  0
   45.5640   36.7910   42.2730 H   0  0  0  0  0  0  0  0  0  0  0  0
   43.8910   36.9510   43.0410 H   0  0  0  0  0  0  0  0  0  0  0  0
  1  2  2  0  0  0  0
  2  3  1  0  0  0  0
  3  4  1  0  0  0  0
  3  7  1  1  0  0  0
  3 26  1  0  0  0  0
  4  9  1  0  0  0  0
  5 10  1  0  0  0  0
  5  4  1  0  0  0  0
  6  2  1  0  0  0  0
  6  5  1  0  0  0  0
  8  4  1  0  0  0  0
 11  5  1  0  0  0  0
 13 12  1  0  0  0  0
 14 13  1  0  0  0  0
 14  6  1  0  0  0  0
 15 14  2  0  0  0  0
 16 15  1  0  0  0  0
 16 22  1  0  0  0  0
 17 16  2  0  0  0  0
 18 17  1  0  0  0  0
 18 19  2  0  0  0  0
 19 21  1  0  0  0  0
 20 19  1  0  0  0  0
 21 22  2  0  0  0  0
 22 13  1  0  0  0  0
 23 24  1  0  0  0  0
 23 17  1  0  0  0  0
 25 23  1  0  0  0  0
 26 37  1  0  0  0  0
 27 38  1  0  0  0  0
 27 32  1  0  0  0  0
 28 27  2  0  0  0  0
 29 28  1  0  0  0  0
 29 30  2  0  0  0  0
 30 31  1  0  0  0  0
 31 32  2  0  0  0  0
 31 33  1  0  0  0  0
 33 34  1  0  0  0  0
 34 40  1  0  0  0  0
 34 41  1  0  0  0  0
 34 35  1  0  0  0  0
 35 43  1  0  0  0  0
 35 42  1  0  0  0  0
 36 45  1  0  0  0  0
 36 44  1  0  0  0  0
 36 35  1  0  0  0  0
 37 46  1  6  0  0  0
 37 33  1  0  0  0  0
 37 36  1  0  0  0  0
 39 29  1  0  0  0  0
 47 49  1  0  0  0  0
 47 28  1  0  0  0  0
 48 47  1  0  0  0  0
M  END
>  <minimizedAffinity>
-5.89606524

>  <minimizedRMSD>
0.251582295

$$$$
