
 OpenBabel03252500263D

 42 45  0  0  1  0  0  0  0  0999 V2000
   37.9710   32.8370   40.4970 C   0  0  2  0  0  0  0  0  0  0  0  0
   38.5660   31.4850   40.5840 C   0  0  2  0  0  0  0  0  0  0  0  0
   37.6530   30.6510   39.7650 C   0  0  0  0  0  0  0  0  0  0  0  0
   37.1110   31.4650   38.7840 O   0  0  0  0  0  0  0  0  0  0  0  0
   37.4340   32.7560   39.0530 C   0  0  0  0  0  0  0  0  0  0  0  0
   37.1420   33.1880   41.0310 H   0  0  0  0  0  0  0  0  0  0  0  0
   39.6120   31.5940   40.1910 H   0  0  0  0  0  0  0  0  0  0  0  0
   38.3440   29.9740   39.1740 H   0  0  0  0  0  0  0  0  0  0  0  0
   36.9970   29.9730   40.2730 H   0  0  0  0  0  0  0  0  0  0  0  0
   38.3020   33.0330   38.3960 H   0  0  0  0  0  0  0  0  0  0  0  0
   36.6350   33.4660   38.8540 H   0  0  0  0  0  0  0  0  0  0  0  0
   38.7030   31.0060   41.8660 O   0  0  0  0  0  0  0  0  0  0  0  0
   40.9560   30.3920   40.7790 O   0  0  0  0  0  0  0  0  0  0  0  0
   40.2560   30.4620   42.1100 P   0  0  1  0  0  0  0  0  0  0  0  0
   41.0780   31.5640   43.0980 O   0  0  0  0  0  0  0  0  0  0  0  0
   41.1730   31.2520   44.0160 H   0  0  0  0  0  0  0  0  0  0  0  0
   40.2910   28.8960   42.8010 O   0  0  0  0  0  0  0  0  0  0  0  0
   37.1190   27.3170   43.1660 C   0  0  0  0  0  0  0  0  0  0  0  0
   37.1830   26.1900   42.3020 C   0  0  0  0  0  0  0  0  0  0  0  0
   38.3830   26.0160   41.5930 C   0  0  0  0  0  0  0  0  0  0  0  0
   39.3780   26.9090   41.7730 N   0  0  0  0  0  0  0  0  0  0  0  0
   39.2680   27.9680   42.6090 C   0  0  0  0  0  0  0  0  0  0  0  0
   38.1430   28.1570   43.2930 N   0  0  0  0  0  0  0  0  0  0  0  0
   36.3950   25.4890   42.1650 H   0  0  0  0  0  0  0  0  0  0  0  0
   38.5220   25.1930   40.9180 H   0  0  0  0  0  0  0  0  0  0  0  0
   35.9420   27.4960   43.8660 O   0  0  0  0  0  0  0  0  0  0  0  0
   35.0830   27.6360   43.3470 H   0  0  0  0  0  0  0  0  0  0  0  0
   38.9120   33.8450   40.6430 O   0  0  0  0  0  0  0  0  0  0  0  0
   41.2070   33.6290   42.1380 H   0  0  0  0  0  0  0  0  0  0  0  0
   41.2010   33.7810   41.1040 N   0  0  0  0  0  0  0  0  0  0  0  0
   40.1940   33.9110   40.2010 C   0  0  0  0  0  0  0  0  0  0  0  0
   40.7580   34.0900   38.9880 N   0  0  0  0  0  0  0  0  0  0  0  0
   42.0830   34.0800   39.0700 C   0  0  0  0  0  0  0  0  0  0  0  0
   43.0670   34.2210   38.1130 C   0  0  0  0  0  0  0  0  0  0  0  0
   44.3620   34.1650   38.5190 N   0  0  0  0  0  0  0  0  0  0  0  0
   44.6490   33.9720   39.8330 C   0  0  0  0  0  0  0  0  0  0  0  0
   45.6930   33.9330   40.1150 H   0  0  0  0  0  0  0  0  0  0  0  0
   43.6710   33.8370   40.7470 N   0  0  0  0  0  0  0  0  0  0  0  0
   42.3610   33.8840   40.4080 C   0  0  0  0  0  0  0  0  0  0  0  0
   42.7100   34.4210   36.7460 N   0  0  0  0  0  0  0  0  0  0  0  0
   42.4020   33.7870   35.9510 H   0  0  0  0  0  0  0  0  0  0  0  0
   42.7570   35.4330   36.4290 H   0  0  0  0  0  0  0  0  0  0  0  0
  1  2  1  0  0  0  0
  1 28  1  0  0  0  0
  1  6  1  1  0  0  0
  2  7  1  6  0  0  0
  2 12  1  0  0  0  0
  3  9  1  0  0  0  0
  3  2  1  0  0  0  0
  4  5  1  0  0  0  0
  4  3  1  0  0  0  0
  5  1  1  0  0  0  0
  8  3  1  0  0  0  0
 10  5  1  0  0  0  0
 11  5  1  0  0  0  0
 12 14  1  0  0  0  0
 14 13  2  6  0  0  0
 14 17  1  0  0  0  0
 14 15  1  0  0  0  0
 15 16  1  0  0  0  0
 18 23  1  0  0  0  0
 18 26  1  0  0  0  0
 19 18  2  0  0  0  0
 20 21  2  0  0  0  0
 20 19  1  0  0  0  0
 21 22  1  0  0  0  0
 22 17  1  0  0  0  0
 22 23  2  0  0  0  0
 24 19  1  0  0  0  0
 25 20  1  0  0  0  0
 27 26  1  0  0  0  0
 30 29  1  0  0  0  0
 31 28  1  0  0  0  0
 31 30  1  0  0  0  0
 32 33  1  0  0  0  0
 32 31  2  0  0  0  0
 33 39  1  0  0  0  0
 34 35  1  0  0  0  0
 34 33  2  0  0  0  0
 35 36  2  0  0  0  0
 36 37  1  0  0  0  0
 36 38  1  0  0  0  0
 39 38  2  0  0  0  0
 39 30  1  0  0  0  0
 40 34  1  0  0  0  0
 41 40  1  0  0  0  0
 42 40  1  0  0  0  0
M  END
>  <minimizedAffinity>
-6.82653618

$$$$

 OpenBabel03252500263D

 42 45  0  0  1  0  0  0  0  0999 V2000
   38.2120   27.4350   43.4660 C   0  0  2  0  0  0  0  0  0  0  0  0
   38.3910   28.5440   42.5030 C   0  0  2  0  0  0  0  0  0  0  0  0
   39.7870   28.9860   42.7390 C   0  0  0  0  0  0  0  0  0  0  0  0
   40.5070   27.8830   43.1700 O   0  0  0  0  0  0  0  0  0  0  0  0
   39.6450   26.8670   43.4260 C   0  0  0  0  0  0  0  0  0  0  0  0
   38.0290   27.5250   44.4920 H   0  0  0  0  0  0  0  0  0  0  0  0
   38.1840   28.0990   41.4940 H   0  0  0  0  0  0  0  0  0  0  0  0
   40.2050   29.1670   41.7000 H   0  0  0  0  0  0  0  0  0  0  0  0
   39.9430   29.9160   43.2470 H   0  0  0  0  0  0  0  0  0  0  0  0
   39.6660   26.1730   42.5430 H   0  0  0  0  0  0  0  0  0  0  0  0
   39.8970   26.2800   44.3070 H   0  0  0  0  0  0  0  0  0  0  0  0
   37.4860   29.5710   42.6450 O   0  0  0  0  0  0  0  0  0  0  0  0
   35.9210   28.6810   40.8020 O   0  0  0  0  0  0  0  0  0  0  0  0
   36.7430   29.8820   41.1890 P   0  0  1  0  0  0  0  0  0  0  0  0
   35.7100   31.2110   41.3690 O   0  0  0  0  0  0  0  0  0  0  0  0
   36.0760   32.0290   40.9850 H   0  0  0  0  0  0  0  0  0  0  0  0
   37.8730   30.1660   39.9340 O   0  0  0  0  0  0  0  0  0  0  0  0
   38.9510   33.4790   40.6700 C   0  0  0  0  0  0  0  0  0  0  0  0
   39.9440   33.7540   39.6910 C   0  0  0  0  0  0  0  0  0  0  0  0
   40.2110   32.7280   38.7710 C   0  0  0  0  0  0  0  0  0  0  0  0
   39.5250   31.5710   38.8710 N   0  0  0  0  0  0  0  0  0  0  0  0
   38.5870   31.3580   39.8230 C   0  0  0  0  0  0  0  0  0  0  0  0
   38.3140   32.3130   40.7090 N   0  0  0  0  0  0  0  0  0  0  0  0
   40.4820   34.6700   39.6160 H   0  0  0  0  0  0  0  0  0  0  0  0
   40.9450   32.8460   37.9950 H   0  0  0  0  0  0  0  0  0  0  0  0
   38.6830   34.4840   41.5810 O   0  0  0  0  0  0  0  0  0  0  0  0
   39.4290   34.8050   42.1860 H   0  0  0  0  0  0  0  0  0  0  0  0
   37.2740   26.5060   43.0410 O   0  0  0  0  0  0  0  0  0  0  0  0
   36.6060   26.9870   40.4200 H   0  0  0  0  0  0  0  0  0  0  0  0
   36.9470   26.0630   40.7720 N   0  0  0  0  0  0  0  0  0  0  0  0
   37.3220   25.6310   42.0040 C   0  0  0  0  0  0  0  0  0  0  0  0
   37.6780   24.3350   41.8890 N   0  0  0  0  0  0  0  0  0  0  0  0
   37.5480   23.9130   40.6360 C   0  0  0  0  0  0  0  0  0  0  0  0
   37.7890   22.6880   40.0460 C   0  0  0  0  0  0  0  0  0  0  0  0
   37.5550   22.5670   38.7140 N   0  0  0  0  0  0  0  0  0  0  0  0
   37.1010   23.6370   38.0090 C   0  0  0  0  0  0  0  0  0  0  0  0
   36.9280   23.4990   36.9500 H   0  0  0  0  0  0  0  0  0  0  0  0
   36.8750   24.8200   38.6070 N   0  0  0  0  0  0  0  0  0  0  0  0
   37.0880   25.0060   39.9320 C   0  0  0  0  0  0  0  0  0  0  0  0
   38.2650   21.5980   40.8330 N   0  0  0  0  0  0  0  0  0  0  0  0
   39.2150   21.3030   41.2080 H   0  0  0  0  0  0  0  0  0  0  0  0
   37.5120   20.9090   41.1220 H   0  0  0  0  0  0  0  0  0  0  0  0
  1  6  1  1  0  0  0
  2  7  1  6  0  0  0
  2 12  1  0  0  0  0
  2  3  1  0  0  0  0
  2  1  1  0  0  0  0
  3  4  1  0  0  0  0
  3  9  1  0  0  0  0
  4  5  1  0  0  0  0
  5  1  1  0  0  0  0
  5 11  1  0  0  0  0
  8  3  1  0  0  0  0
 10  5  1  0  0  0  0
 14 13  2  6  0  0  0
 14 15  1  0  0  0  0
 14 12  1  0  0  0  0
 16 15  1  0  0  0  0
 17 14  1  0  0  0  0
 18 23  1  0  0  0  0
 18 26  1  0  0  0  0
 19 18  2  0  0  0  0
 20 21  2  0  0  0  0
 20 19  1  0  0  0  0
 21 22  1  0  0  0  0
 22 17  1  0  0  0  0
 22 23  2  0  0  0  0
 24 19  1  0  0  0  0
 25 20  1  0  0  0  0
 26 27  1  0  0  0  0
 28  1  1  0  0  0  0
 29 30  1  0  0  0  0
 30 31  1  0  0  0  0
 31 28  1  0  0  0  0
 32 31  2  0  0  0  0
 33 32  1  0  0  0  0
 34 33  1  0  0  0  0
 34 40  1  0  0  0  0
 35 34  2  0  0  0  0
 36 38  2  0  0  0  0
 36 35  1  0  0  0  0
 37 36  1  0  0  0  0
 38 39  1  0  0  0  0
 39 33  2  0  0  0  0
 39 30  1  0  0  0  0
 40 42  1  0  0  0  0
 40 41  1  0  0  0  0
M  END
>  <minimizedAffinity>
-6.59177637

$$$$

 OpenBabel03252500263D

 42 45  0  0  1  0  0  0  0  0999 V2000
   40.4550   27.9880   42.6920 C   0  0  2  0  0  0  0  0  0  0  0  0
   39.2610   27.2160   43.1030 C   0  0  2  0  0  0  0  0  0  0  0  0
   39.8090   25.8760   43.4250 C   0  0  0  0  0  0  0  0  0  0  0  0
   41.1120   26.0510   43.8640 O   0  0  0  0  0  0  0  0  0  0  0  0
   41.4830   27.3370   43.6390 C   0  0  0  0  0  0  0  0  0  0  0  0
   40.9370   27.9430   41.7640 H   0  0  0  0  0  0  0  0  0  0  0  0
   38.8230   27.7840   43.9670 H   0  0  0  0  0  0  0  0  0  0  0  0
   39.2650   25.5690   44.3710 H   0  0  0  0  0  0  0  0  0  0  0  0
   39.6140   25.0740   42.7410 H   0  0  0  0  0  0  0  0  0  0  0  0
   41.3880   27.8920   44.6110 H   0  0  0  0  0  0  0  0  0  0  0  0
   42.5100   27.4500   43.2980 H   0  0  0  0  0  0  0  0  0  0  0  0
   38.2660   27.1610   42.1550 O   0  0  0  0  0  0  0  0  0  0  0  0
   36.1380   27.0650   43.6030 O   0  0  0  0  0  0  0  0  0  0  0  0
   36.9190   27.9750   42.6940 P   0  0  1  0  0  0  0  0  0  0  0  0
   37.4110   29.3330   43.5780 O   0  0  0  0  0  0  0  0  0  0  0  0
   37.3130   30.1640   43.0800 H   0  0  0  0  0  0  0  0  0  0  0  0
   35.8870   28.4390   41.4090 O   0  0  0  0  0  0  0  0  0  0  0  0
   36.6750   31.6090   39.9910 C   0  0  0  0  0  0  0  0  0  0  0  0
   36.9840   31.3230   38.6330 C   0  0  0  0  0  0  0  0  0  0  0  0
   36.9020   29.9760   38.2470 C   0  0  0  0  0  0  0  0  0  0  0  0
   36.5430   29.0570   39.1680 N   0  0  0  0  0  0  0  0  0  0  0  0
   36.2580   29.3810   40.4510 C   0  0  0  0  0  0  0  0  0  0  0  0
   36.3280   30.6500   40.8440 N   0  0  0  0  0  0  0  0  0  0  0  0
   37.2660   32.0520   37.9110 H   0  0  0  0  0  0  0  0  0  0  0  0
   37.1160   29.6650   37.2420 H   0  0  0  0  0  0  0  0  0  0  0  0
   36.7550   32.9330   40.3800 O   0  0  0  0  0  0  0  0  0  0  0  0
   37.6460   33.4090   40.3080 H   0  0  0  0  0  0  0  0  0  0  0  0
   40.3200   29.3470   42.9300 O   0  0  0  0  0  0  0  0  0  0  0  0
   41.7010   29.4800   40.5590 H   0  0  0  0  0  0  0  0  0  0  0  0
   41.1220   30.2640   40.9380 N   0  0  0  0  0  0  0  0  0  0  0  0
   40.3780   30.3930   42.0670 C   0  0  0  0  0  0  0  0  0  0  0  0
   39.8350   31.6290   42.0560 N   0  0  0  0  0  0  0  0  0  0  0  0
   40.1970   32.3000   40.9690 C   0  0  0  0  0  0  0  0  0  0  0  0
   39.8960   33.5730   40.5290 C   0  0  0  0  0  0  0  0  0  0  0  0
   40.4320   33.9820   39.3490 N   0  0  0  0  0  0  0  0  0  0  0  0
   41.2340   33.1410   38.6450 C   0  0  0  0  0  0  0  0  0  0  0  0
   41.6400   33.5040   37.7100 H   0  0  0  0  0  0  0  0  0  0  0  0
   41.5110   31.9040   39.0950 N   0  0  0  0  0  0  0  0  0  0  0  0
   41.0090   31.4360   40.2630 C   0  0  0  0  0  0  0  0  0  0  0  0
   39.0490   34.4160   41.3070 N   0  0  0  0  0  0  0  0  0  0  0  0
   37.9990   34.5040   41.4420 H   0  0  0  0  0  0  0  0  0  0  0  0
   39.5690   35.1290   41.8970 H   0  0  0  0  0  0  0  0  0  0  0  0
  1  6  1  6  0  0  0
  1 28  1  0  0  0  0
  1  2  1  0  0  0  0
  1  5  1  0  0  0  0
  2  3  1  0  0  0  0
  2  7  1  1  0  0  0
  3  4  1  0  0  0  0
  3  8  1  0  0  0  0
  5  4  1  0  0  0  0
  5 10  1  0  0  0  0
  9  3  1  0  0  0  0
 11  5  1  0  0  0  0
 12 14  1  0  0  0  0
 12  2  1  0  0  0  0
 14 15  1  0  0  0  0
 14 13  2  1  0  0  0
 16 15  1  0  0  0  0
 17 14  1  0  0  0  0
 18 26  1  0  0  0  0
 18 23  1  0  0  0  0
 19 18  2  0  0  0  0
 20 19  1  0  0  0  0
 20 21  2  0  0  0  0
 21 22  1  0  0  0  0
 22 23  2  0  0  0  0
 22 17  1  0  0  0  0
 24 19  1  0  0  0  0
 25 20  1  0  0  0  0
 27 26  1  0  0  0  0
 29 30  1  0  0  0  0
 30 31  1  0  0  0  0
 31 28  1  0  0  0  0
 32 31  2  0  0  0  0
 33 32  1  0  0  0  0
 34 33  1  0  0  0  0
 34 40  1  0  0  0  0
 35 34  2  0  0  0  0
 36 38  2  0  0  0  0
 36 35  1  0  0  0  0
 37 36  1  0  0  0  0
 38 39  1  0  0  0  0
 39 30  1  0  0  0  0
 39 33  2  0  0  0  0
 40 41  1  0  0  0  0
 40 42  1  0  0  0  0
M  END
>  <minimizedAffinity>
-6.54245901

$$$$

 OpenBabel03252500263D

 42 45  0  0  1  0  0  0  0  0999 V2000
   36.9680   30.5070   38.6060 C   0  0  2  0  0  0  0  0  0  0  0  0
   36.7050   29.7120   39.8270 C   0  0  2  0  0  0  0  0  0  0  0  0
   35.3040   29.2580   39.6480 C   0  0  0  0  0  0  0  0  0  0  0  0
   35.0710   29.1440   38.2870 O   0  0  0  0  0  0  0  0  0  0  0  0
   36.1170   29.6880   37.6140 C   0  0  0  0  0  0  0  0  0  0  0  0
   36.6550   31.4880   38.4230 H   0  0  0  0  0  0  0  0  0  0  0  0
   37.4840   28.9030   39.8290 H   0  0  0  0  0  0  0  0  0  0  0  0
   35.3130   28.1770   39.9920 H   0  0  0  0  0  0  0  0  0  0  0  0
   34.5450   29.7150   40.2510 H   0  0  0  0  0  0  0  0  0  0  0  0
   36.7790   28.8460   37.2780 H   0  0  0  0  0  0  0  0  0  0  0  0
   35.8320   30.2520   36.7290 H   0  0  0  0  0  0  0  0  0  0  0  0
   36.8860   30.4010   41.0040 O   0  0  0  0  0  0  0  0  0  0  0  0
   39.0720   30.4650   42.3640 O   0  0  0  0  0  0  0  0  0  0  0  0
   37.9220   29.5640   42.0010 P   0  0  1  0  0  0  0  0  0  0  0  0
   37.1000   29.1350   43.4170 O   0  0  0  0  0  0  0  0  0  0  0  0
   36.8440   28.1950   43.4360 H   0  0  0  0  0  0  0  0  0  0  0  0
   38.5700   28.1740   41.2390 O   0  0  0  0  0  0  0  0  0  0  0  0
   38.8900   24.7400   42.1280 C   0  0  0  0  0  0  0  0  0  0  0  0
   39.7040   24.7500   43.2930 C   0  0  0  0  0  0  0  0  0  0  0  0
   40.1290   26.0100   43.7440 C   0  0  0  0  0  0  0  0  0  0  0  0
   39.7470   27.1070   43.0590 N   0  0  0  0  0  0  0  0  0  0  0  0
   38.9690   27.0450   41.9530 C   0  0  0  0  0  0  0  0  0  0  0  0
   38.5520   25.8640   41.5030 N   0  0  0  0  0  0  0  0  0  0  0  0
   40.0020   23.8810   43.8290 H   0  0  0  0  0  0  0  0  0  0  0  0
   40.7470   26.1160   44.6160 H   0  0  0  0  0  0  0  0  0  0  0  0
   38.4680   23.5040   41.6760 O   0  0  0  0  0  0  0  0  0  0  0  0
   39.1650   22.8220   41.3980 H   0  0  0  0  0  0  0  0  0  0  0  0
   38.3090   30.5150   38.2540 O   0  0  0  0  0  0  0  0  0  0  0  0
   38.9660   31.6510   40.6680 H   0  0  0  0  0  0  0  0  0  0  0  0
   39.4410   31.8880   39.7670 N   0  0  0  0  0  0  0  0  0  0  0  0
   39.2680   31.4460   38.4940 C   0  0  0  0  0  0  0  0  0  0  0  0
   40.1600   32.0930   37.7150 N   0  0  0  0  0  0  0  0  0  0  0  0
   40.9000   32.9310   38.4310 C   0  0  0  0  0  0  0  0  0  0  0  0
   41.9230   33.7900   38.0790 C   0  0  0  0  0  0  0  0  0  0  0  0
   42.4960   34.5330   39.0610 N   0  0  0  0  0  0  0  0  0  0  0  0
   42.0560   34.4120   40.3420 C   0  0  0  0  0  0  0  0  0  0  0  0
   42.5400   35.0220   41.0940 H   0  0  0  0  0  0  0  0  0  0  0  0
   41.0590   33.5670   40.6590 N   0  0  0  0  0  0  0  0  0  0  0  0
   40.4460   32.7990   39.7270 C   0  0  0  0  0  0  0  0  0  0  0  0
   42.3450   33.8770   36.7200 N   0  0  0  0  0  0  0  0  0  0  0  0
   42.9760   33.2970   36.0920 H   0  0  0  0  0  0  0  0  0  0  0  0
   41.9470   34.7090   36.1950 H   0  0  0  0  0  0  0  0  0  0  0  0
  1  6  1  1  0  0  0
  1  2  1  0  0  0  0
  2  7  1  6  0  0  0
  2 12  1  0  0  0  0
  3  2  1  0  0  0  0
  3  8  1  0  0  0  0
  3  9  1  0  0  0  0
  4  3  1  0  0  0  0
  5  4  1  0  0  0  0
  5  1  1  0  0  0  0
 10  5  1  0  0  0  0
 11  5  1  0  0  0  0
 12 14  1  0  0  0  0
 14 13  2  1  0  0  0
 14 15  1  0  0  0  0
 15 16  1  0  0  0  0
 17 22  1  0  0  0  0
 17 14  1  0  0  0  0
 18 19  1  0  0  0  0
 19 20  2  0  0  0  0
 19 24  1  0  0  0  0
 20 25  1  0  0  0  0
 21 20  1  0  0  0  0
 22 21  2  0  0  0  0
 23 22  1  0  0  0  0
 23 18  2  0  0  0  0
 26 18  1  0  0  0  0
 27 26  1  0  0  0  0
 28 31  1  0  0  0  0
 28  1  1  0  0  0  0
 30 29  1  0  0  0  0
 31 30  1  0  0  0  0
 32 33  1  0  0  0  0
 32 31  2  0  0  0  0
 33 39  1  0  0  0  0
 34 33  2  0  0  0  0
 34 35  1  0  0  0  0
 35 36  2  0  0  0  0
 36 38  1  0  0  0  0
 36 37  1  0  0  0  0
 39 30  1  0  0  0  0
 39 38  2  0  0  0  0
 40 34  1  0  0  0  0
 41 40  1  0  0  0  0
 42 40  1  0  0  0  0
M  END
>  <minimizedAffinity>
-6.43546581

$$$$

 OpenBabel03252500263D

 42 45  0  0  1  0  0  0  0  0999 V2000
   35.8440   28.5500   37.8560 C   0  0  2  0  0  0  0  0  0  0  0  0
   36.5590   28.0000   39.0290 C   0  0  2  0  0  0  0  0  0  0  0  0
   36.9020   26.6200   38.6100 C   0  0  0  0  0  0  0  0  0  0  0  0
   37.0570   26.6270   37.2330 O   0  0  0  0  0  0  0  0  0  0  0  0
   36.6320   27.8220   36.7490 C   0  0  0  0  0  0  0  0  0  0  0  0
   34.8490   28.3650   37.5900 H   0  0  0  0  0  0  0  0  0  0  0  0
   37.4280   28.6900   39.1980 H   0  0  0  0  0  0  0  0  0  0  0  0
   37.9630   26.4690   38.9800 H   0  0  0  0  0  0  0  0  0  0  0  0
   36.3560   25.8090   39.0490 H   0  0  0  0  0  0  0  0  0  0  0  0
   37.5410   28.4560   36.5640 H   0  0  0  0  0  0  0  0  0  0  0  0
   36.0860   27.7540   35.8100 H   0  0  0  0  0  0  0  0  0  0  0  0
   35.8350   28.0270   40.1990 O   0  0  0  0  0  0  0  0  0  0  0  0
   38.0790   29.1040   40.8650 O   0  0  0  0  0  0  0  0  0  0  0  0
   36.6940   28.8200   41.3830 P   0  0  1  0  0  0  0  0  0  0  0  0
   35.9310   30.2910   41.7280 O   0  0  0  0  0  0  0  0  0  0  0  0
   35.4290   30.2700   42.5630 H   0  0  0  0  0  0  0  0  0  0  0  0
   36.8530   27.8790   42.8050 O   0  0  0  0  0  0  0  0  0  0  0  0
   38.4380   24.7120   42.4240 C   0  0  0  0  0  0  0  0  0  0  0  0
   39.6560   24.8370   43.1460 C   0  0  0  0  0  0  0  0  0  0  0  0
   39.8880   26.0750   43.7650 C   0  0  0  0  0  0  0  0  0  0  0  0
   38.9620   27.0480   43.6400 N   0  0  0  0  0  0  0  0  0  0  0  0
   37.8150   26.8800   42.9400 C   0  0  0  0  0  0  0  0  0  0  0  0
   37.5700   25.7160   42.3430 N   0  0  0  0  0  0  0  0  0  0  0  0
   40.3830   24.0650   43.2410 H   0  0  0  0  0  0  0  0  0  0  0  0
   40.7810   26.2610   44.3320 H   0  0  0  0  0  0  0  0  0  0  0  0
   38.2020   23.4970   41.8100 O   0  0  0  0  0  0  0  0  0  0  0  0
   38.8490   23.1750   41.1000 H   0  0  0  0  0  0  0  0  0  0  0  0
   35.9630   29.9280   37.7560 O   0  0  0  0  0  0  0  0  0  0  0  0
   36.1840   31.7120   39.8340 H   0  0  0  0  0  0  0  0  0  0  0  0
   36.9330   31.5540   39.1220 N   0  0  0  0  0  0  0  0  0  0  0  0
   37.0160   30.7350   38.0420 C   0  0  0  0  0  0  0  0  0  0  0  0
   38.2210   30.9390   37.4700 N   0  0  0  0  0  0  0  0  0  0  0  0
   38.9170   31.8540   38.1340 C   0  0  0  0  0  0  0  0  0  0  0  0
   40.1770   32.3820   37.9310 C   0  0  0  0  0  0  0  0  0  0  0  0
   40.6200   33.3240   38.8030 N   0  0  0  0  0  0  0  0  0  0  0  0
   39.8270   33.7140   39.8360 C   0  0  0  0  0  0  0  0  0  0  0  0
   40.2170   34.4660   40.5080 H   0  0  0  0  0  0  0  0  0  0  0  0
   38.6030   33.1830   40.0130 N   0  0  0  0  0  0  0  0  0  0  0  0
   38.1030   32.2410   39.1790 C   0  0  0  0  0  0  0  0  0  0  0  0
   40.9680   31.9370   36.8310 N   0  0  0  0  0  0  0  0  0  0  0  0
   41.5840   31.0920   36.6440 H   0  0  0  0  0  0  0  0  0  0  0  0
   40.9510   32.5880   35.9930 H   0  0  0  0  0  0  0  0  0  0  0  0
  1  6  1  1  0  0  0
  1  2  1  0  0  0  0
  2  7  1  1  0  0  0
  2 12  1  0  0  0  0
  3  8  1  0  0  0  0
  3  2  1  0  0  0  0
  3  9  1  0  0  0  0
  4  3  1  0  0  0  0
  5  4  1  0  0  0  0
  5  1  1  0  0  0  0
 10  5  1  0  0  0  0
 11  5  1  0  0  0  0
 12 14  1  0  0  0  0
 14 13  2  6  0  0  0
 14 15  1  0  0  0  0
 14 17  1  0  0  0  0
 15 16  1  0  0  0  0
 17 22  1  0  0  0  0
 18 19  1  0  0  0  0
 19 24  1  0  0  0  0
 19 20  2  0  0  0  0
 20 25  1  0  0  0  0
 21 20  1  0  0  0  0
 22 21  2  0  0  0  0
 23 18  2  0  0  0  0
 23 22  1  0  0  0  0
 26 18  1  0  0  0  0
 27 26  1  0  0  0  0
 28  1  1  0  0  0  0
 28 31  1  0  0  0  0
 30 39  1  0  0  0  0
 30 29  1  0  0  0  0
 31 30  1  0  0  0  0
 32 31  2  0  0  0  0
 32 33  1  0  0  0  0
 33 39  1  0  0  0  0
 34 33  2  0  0  0  0
 34 35  1  0  0  0  0
 35 36  2  0  0  0  0
 36 38  1  0  0  0  0
 36 37  1  0  0  0  0
 39 38  2  0  0  0  0
 40 34  1  0  0  0  0
 41 40  1  0  0  0  0
 42 40  1  0  0  0  0
M  END
>  <minimizedAffinity>
-6.19122982

$$$$

 OpenBabel03252500263D

 42 45  0  0  1  0  0  0  0  0999 V2000
   41.3810   28.8430   37.9530 C   0  0  2  0  0  0  0  0  0  0  0  0
   41.4400   30.2590   37.5250 C   0  0  2  0  0  0  0  0  0  0  0  0
   42.6480   30.3100   36.6660 C   0  0  0  0  0  0  0  0  0  0  0  0
   42.8020   29.0620   36.0850 O   0  0  0  0  0  0  0  0  0  0  0  0
   41.9360   28.1950   36.6690 C   0  0  0  0  0  0  0  0  0  0  0  0
   41.9560   28.3960   38.7040 H   0  0  0  0  0  0  0  0  0  0  0  0
   40.4640   30.4540   37.0060 H   0  0  0  0  0  0  0  0  0  0  0  0
   42.3420   30.9590   35.7870 H   0  0  0  0  0  0  0  0  0  0  0  0
   43.5220   30.7950   37.0530 H   0  0  0  0  0  0  0  0  0  0  0  0
   41.0530   28.0840   35.9840 H   0  0  0  0  0  0  0  0  0  0  0  0
   42.3460   27.2010   36.8350 H   0  0  0  0  0  0  0  0  0  0  0  0
   41.4950   31.1640   38.5600 O   0  0  0  0  0  0  0  0  0  0  0  0
   41.4530   33.7280   38.3140 O   0  0  0  0  0  0  0  0  0  0  0  0
   40.5830   32.5050   38.1940 P   0  0  1  0  0  0  0  0  0  0  0  0
   40.0370   32.3830   36.5950 O   0  0  0  0  0  0  0  0  0  0  0  0
   39.0980   32.1300   36.5350 H   0  0  0  0  0  0  0  0  0  0  0  0
   39.2610   32.7000   39.2650 O   0  0  0  0  0  0  0  0  0  0  0  0
   36.3510   31.0130   40.4380 C   0  0  0  0  0  0  0  0  0  0  0  0
   35.9550   30.1910   39.3480 C   0  0  0  0  0  0  0  0  0  0  0  0
   36.7520   30.2600   38.1940 C   0  0  0  0  0  0  0  0  0  0  0  0
   37.8210   31.0830   38.1920 N   0  0  0  0  0  0  0  0  0  0  0  0
   38.1580   31.8470   39.2580 C   0  0  0  0  0  0  0  0  0  0  0  0
   37.4200   31.8010   40.3640 N   0  0  0  0  0  0  0  0  0  0  0  0
   35.1100   29.5430   39.3550 H   0  0  0  0  0  0  0  0  0  0  0  0
   36.5300   29.6760   37.3210 H   0  0  0  0  0  0  0  0  0  0  0  0
   35.5710   30.9510   41.5770 O   0  0  0  0  0  0  0  0  0  0  0  0
   34.5960   31.2180   41.5140 H   0  0  0  0  0  0  0  0  0  0  0  0
   40.0890   28.4230   38.2290 O   0  0  0  0  0  0  0  0  0  0  0  0
   40.0110   30.1250   40.3840 H   0  0  0  0  0  0  0  0  0  0  0  0
   39.5520   29.1860   40.3700 N   0  0  0  0  0  0  0  0  0  0  0  0
   39.4760   28.2150   39.4220 C   0  0  0  0  0  0  0  0  0  0  0  0
   38.7540   27.2000   39.9390 N   0  0  0  0  0  0  0  0  0  0  0  0
   38.3610   27.4740   41.1770 C   0  0  0  0  0  0  0  0  0  0  0  0
   37.6140   26.7540   42.0890 C   0  0  0  0  0  0  0  0  0  0  0  0
   37.3750   27.3170   43.3010 N   0  0  0  0  0  0  0  0  0  0  0  0
   37.8670   28.5530   43.5800 C   0  0  0  0  0  0  0  0  0  0  0  0
   37.6540   28.9670   44.5570 H   0  0  0  0  0  0  0  0  0  0  0  0
   38.5910   29.2350   42.6740 N   0  0  0  0  0  0  0  0  0  0  0  0
   38.8650   28.7290   41.4470 C   0  0  0  0  0  0  0  0  0  0  0  0
   37.1220   25.4610   41.7450 N   0  0  0  0  0  0  0  0  0  0  0  0
   36.2950   25.0970   41.1850 H   0  0  0  0  0  0  0  0  0  0  0  0
   37.7030   24.6590   42.1280 H   0  0  0  0  0  0  0  0  0  0  0  0
  1 28  1  0  0  0  0
  1  6  1  1  0  0  0
  2  7  1  6  0  0  0
  2  1  1  0  0  0  0
  2 12  1  0  0  0  0
  3  9  1  0  0  0  0
  3  2  1  0  0  0  0
  4  3  1  0  0  0  0
  4  5  1  0  0  0  0
  5 11  1  0  0  0  0
  5  1  1  0  0  0  0
  8  3  1  0  0  0  0
 10  5  1  0  0  0  0
 14 13  2  1  0  0  0
 14 12  1  0  0  0  0
 14 17  1  0  0  0  0
 15 14  1  0  0  0  0
 16 15  1  0  0  0  0
 18 26  1  0  0  0  0
 19 24  1  0  0  0  0
 19 18  2  0  0  0  0
 20 19  1  0  0  0  0
 21 20  2  0  0  0  0
 21 22  1  0  0  0  0
 22 17  1  0  0  0  0
 22 23  2  0  0  0  0
 23 18  1  0  0  0  0
 25 20  1  0  0  0  0
 27 26  1  0  0  0  0
 28 31  1  0  0  0  0
 30 29  1  0  0  0  0
 30 39  1  0  0  0  0
 31 32  2  0  0  0  0
 31 30  1  0  0  0  0
 32 33  1  0  0  0  0
 33 39  2  0  0  0  0
 33 34  1  0  0  0  0
 34 35  2  0  0  0  0
 35 36  1  0  0  0  0
 36 37  1  0  0  0  0
 38 36  2  0  0  0  0
 39 38  1  0  0  0  0
 40 34  1  0  0  0  0
 40 42  1  0  0  0  0
 41 40  1  0  0  0  0
M  END
>  <minimizedAffinity>
-5.92344093

$$$$

 OpenBabel03252500263D

 42 45  0  0  1  0  0  0  0  0999 V2000
   41.2220   33.5930   39.6180 C   0  0  2  0  0  0  0  0  0  0  0  0
   41.5480   32.3020   40.2630 C   0  0  2  0  0  0  0  0  0  0  0  0
   42.8090   32.5860   40.9890 C   0  0  0  0  0  0  0  0  0  0  0  0
   42.7980   33.9260   41.3390 O   0  0  0  0  0  0  0  0  0  0  0  0
   41.7580   34.5360   40.7150 C   0  0  0  0  0  0  0  0  0  0  0  0
   41.6560   33.9820   38.7480 H   0  0  0  0  0  0  0  0  0  0  0  0
   40.6600   32.0570   40.9050 H   0  0  0  0  0  0  0  0  0  0  0  0
   42.6820   32.0650   41.9890 H   0  0  0  0  0  0  0  0  0  0  0  0
   43.7200   32.1780   40.5980 H   0  0  0  0  0  0  0  0  0  0  0  0
   40.9240   34.6320   41.4600 H   0  0  0  0  0  0  0  0  0  0  0  0
   41.9840   35.5340   40.3470 H   0  0  0  0  0  0  0  0  0  0  0  0
   41.6730   31.2460   39.3900 O   0  0  0  0  0  0  0  0  0  0  0  0
   40.0840   29.2360   39.1150 O   0  0  0  0  0  0  0  0  0  0  0  0
   41.0590   29.8610   40.0770 P   0  0  1  0  0  0  0  0  0  0  0  0
   42.3260   28.7720   40.3500 O   0  0  0  0  0  0  0  0  0  0  0  0
   42.5930   28.7280   41.2860 H   0  0  0  0  0  0  0  0  0  0  0  0
   40.2200   30.1810   41.5350 O   0  0  0  0  0  0  0  0  0  0  0  0
   37.7350   28.3260   43.2880 C   0  0  0  0  0  0  0  0  0  0  0  0
   38.4410   27.2230   43.8410 C   0  0  0  0  0  0  0  0  0  0  0  0
   39.8170   27.1660   43.5690 C   0  0  0  0  0  0  0  0  0  0  0  0
   40.3720   28.1390   42.8170 N   0  0  0  0  0  0  0  0  0  0  0  0
   39.6550   29.1710   42.3130 C   0  0  0  0  0  0  0  0  0  0  0  0
   38.3490   29.2500   42.5540 N   0  0  0  0  0  0  0  0  0  0  0  0
   37.9980   26.4580   44.4330 H   0  0  0  0  0  0  0  0  0  0  0  0
   40.4320   26.3690   43.9450 H   0  0  0  0  0  0  0  0  0  0  0  0
   36.3800   28.3890   43.5490 O   0  0  0  0  0  0  0  0  0  0  0  0
   35.7850   27.6330   43.2280 H   0  0  0  0  0  0  0  0  0  0  0  0
   39.8610   33.7590   39.4130 O   0  0  0  0  0  0  0  0  0  0  0  0
   39.1130   32.2840   37.2190 H   0  0  0  0  0  0  0  0  0  0  0  0
   38.6530   32.2060   38.1550 N   0  0  0  0  0  0  0  0  0  0  0  0
   38.8710   32.8330   39.3400 C   0  0  0  0  0  0  0  0  0  0  0  0
   37.9800   32.3440   40.2270 N   0  0  0  0  0  0  0  0  0  0  0  0
   37.1980   31.4300   39.6650 C   0  0  0  0  0  0  0  0  0  0  0  0
   36.1610   30.6680   40.1670 C   0  0  0  0  0  0  0  0  0  0  0  0
   35.5430   29.8010   39.3240 N   0  0  0  0  0  0  0  0  0  0  0  0
   35.9540   29.7070   38.0320 C   0  0  0  0  0  0  0  0  0  0  0  0
   35.4350   29.0040   37.3930 H   0  0  0  0  0  0  0  0  0  0  0  0
   36.9670   30.4600   37.5670 N   0  0  0  0  0  0  0  0  0  0  0  0
   37.6250   31.3430   38.3560 C   0  0  0  0  0  0  0  0  0  0  0  0
   35.7700   30.8060   41.5310 N   0  0  0  0  0  0  0  0  0  0  0  0
   36.1350   30.4360   42.4580 H   0  0  0  0  0  0  0  0  0  0  0  0
   34.9150   31.4190   41.6770 H   0  0  0  0  0  0  0  0  0  0  0  0
  1  6  1  6  0  0  0
  1  2  1  0  0  0  0
  1  5  1  0  0  0  0
  2  7  1  1  0  0  0
  2  3  1  0  0  0  0
  3  4  1  0  0  0  0
  3  8  1  0  0  0  0
  5  4  1  0  0  0  0
  5 10  1  0  0  0  0
  9  3  1  0  0  0  0
 11  5  1  0  0  0  0
 12 14  1  0  0  0  0
 12  2  1  0  0  0  0
 14 13  2  6  0  0  0
 14 15  1  0  0  0  0
 14 17  1  0  0  0  0
 15 16  1  0  0  0  0
 17 22  1  0  0  0  0
 18 26  1  0  0  0  0
 18 19  1  0  0  0  0
 19 24  1  0  0  0  0
 20 19  2  0  0  0  0
 20 25  1  0  0  0  0
 21 20  1  0  0  0  0
 22 23  1  0  0  0  0
 22 21  2  0  0  0  0
 23 18  2  0  0  0  0
 27 26  1  0  0  0  0
 28  1  1  0  0  0  0
 29 30  1  0  0  0  0
 30 39  1  0  0  0  0
 30 31  1  0  0  0  0
 31 28  1  0  0  0  0
 31 32  2  0  0  0  0
 33 34  1  0  0  0  0
 33 32  1  0  0  0  0
 34 40  1  0  0  0  0
 35 34  2  0  0  0  0
 36 35  1  0  0  0  0
 37 36  1  0  0  0  0
 38 36  2  0  0  0  0
 38 39  1  0  0  0  0
 39 33  2  0  0  0  0
 40 42  1  0  0  0  0
 40 41  1  0  0  0  0
M  END
>  <minimizedAffinity>
-5.89606047

$$$$

 OpenBabel03252500263D

 42 45  0  0  1  0  0  0  0  0999 V2000
   37.2580   29.0570   42.7130 C   0  0  2  0  0  0  0  0  0  0  0  0
   38.7190   29.0160   42.4810 C   0  0  2  0  0  0  0  0  0  0  0  0
   39.1060   27.6660   42.9580 C   0  0  0  0  0  0  0  0  0  0  0  0
   38.0200   26.8280   42.7690 O   0  0  0  0  0  0  0  0  0  0  0  0
   36.9410   27.5760   42.4260 C   0  0  0  0  0  0  0  0  0  0  0  0
   36.7770   29.2230   43.6270 H   0  0  0  0  0  0  0  0  0  0  0  0
   38.8520   29.2020   41.3820 H   0  0  0  0  0  0  0  0  0  0  0  0
   39.8460   27.2950   42.1830 H   0  0  0  0  0  0  0  0  0  0  0  0
   39.6420   27.5920   43.8840 H   0  0  0  0  0  0  0  0  0  0  0  0
   36.8200   27.5060   41.3120 H   0  0  0  0  0  0  0  0  0  0  0  0
   36.0080   27.2440   42.8760 H   0  0  0  0  0  0  0  0  0  0  0  0
   39.4230   30.0160   43.1110 O   0  0  0  0  0  0  0  0  0  0  0  0
   39.0590   32.0870   41.6240 O   0  0  0  0  0  0  0  0  0  0  0  0
   40.0840   31.0460   41.9850 P   0  0  1  0  0  0  0  0  0  0  0  0
   41.4280   31.8190   42.6640 O   0  0  0  0  0  0  0  0  0  0  0  0
   42.2740   31.4540   42.3480 H   0  0  0  0  0  0  0  0  0  0  0  0
   40.5260   30.2300   40.5450 O   0  0  0  0  0  0  0  0  0  0  0  0
   40.3410   31.9360   37.4240 C   0  0  0  0  0  0  0  0  0  0  0  0
   41.6920   32.2450   37.1090 C   0  0  0  0  0  0  0  0  0  0  0  0
   42.6590   31.8290   38.0380 C   0  0  0  0  0  0  0  0  0  0  0  0
   42.2540   31.1760   39.1470 N   0  0  0  0  0  0  0  0  0  0  0  0
   40.9530   30.9040   39.4020 C   0  0  0  0  0  0  0  0  0  0  0  0
   40.0160   31.2880   38.5390 N   0  0  0  0  0  0  0  0  0  0  0  0
   42.0050   32.7610   36.2320 H   0  0  0  0  0  0  0  0  0  0  0  0
   43.7050   32.0180   37.8840 H   0  0  0  0  0  0  0  0  0  0  0  0
   39.3830   32.3440   36.5150 O   0  0  0  0  0  0  0  0  0  0  0  0
   39.2860   33.3330   36.3200 H   0  0  0  0  0  0  0  0  0  0  0  0
   36.6030   29.9070   41.8340 O   0  0  0  0  0  0  0  0  0  0  0  0
   38.2090   30.5710   39.7060 H   0  0  0  0  0  0  0  0  0  0  0  0
   37.2590   30.1450   39.6060 N   0  0  0  0  0  0  0  0  0  0  0  0
   36.3280   29.7520   40.5140 C   0  0  0  0  0  0  0  0  0  0  0  0
   35.2730   29.2660   39.8280 N   0  0  0  0  0  0  0  0  0  0  0  0
   35.4840   29.3280   38.5180 C   0  0  0  0  0  0  0  0  0  0  0  0
   34.7060   28.9550   37.4400 C   0  0  0  0  0  0  0  0  0  0  0  0
   35.2110   29.1500   36.1940 N   0  0  0  0  0  0  0  0  0  0  0  0
   36.4460   29.6960   36.0450 C   0  0  0  0  0  0  0  0  0  0  0  0
   36.8120   29.8350   35.0360 H   0  0  0  0  0  0  0  0  0  0  0  0
   37.1850   30.0510   37.1120 N   0  0  0  0  0  0  0  0  0  0  0  0
   36.7390   29.8830   38.3800 C   0  0  0  0  0  0  0  0  0  0  0  0
   33.4160   28.3860   37.6530 N   0  0  0  0  0  0  0  0  0  0  0  0
   33.0560   27.4190   37.9070 H   0  0  0  0  0  0  0  0  0  0  0  0
   32.6150   29.0720   37.5370 H   0  0  0  0  0  0  0  0  0  0  0  0
  1  6  1  1  0  0  0
  2  7  1  6  0  0  0
  2  1  1  0  0  0  0
  2  3  1  0  0  0  0
  2 12  1  0  0  0  0
  3  9  1  0  0  0  0
  4  3  1  0  0  0  0
  5  1  1  0  0  0  0
  5  4  1  0  0  0  0
  5 11  1  0  0  0  0
  8  3  1  0  0  0  0
 10  5  1  0  0  0  0
 14 13  2  6  0  0  0
 14 15  1  0  0  0  0
 14 12  1  0  0  0  0
 16 15  1  0  0  0  0
 17 14  1  0  0  0  0
 18 23  1  0  0  0  0
 19 18  2  0  0  0  0
 19 20  1  0  0  0  0
 20 21  2  0  0  0  0
 21 22  1  0  0  0  0
 22 17  1  0  0  0  0
 23 22  2  0  0  0  0
 24 19  1  0  0  0  0
 25 20  1  0  0  0  0
 26 18  1  0  0  0  0
 27 26  1  0  0  0  0
 28  1  1  0  0  0  0
 30 29  1  0  0  0  0
 30 31  1  0  0  0  0
 31 28  1  0  0  0  0
 32 31  2  0  0  0  0
 33 32  1  0  0  0  0
 34 40  1  0  0  0  0
 34 33  2  0  0  0  0
 35 34  1  0  0  0  0
 36 35  2  0  0  0  0
 36 38  1  0  0  0  0
 37 36  1  0  0  0  0
 38 39  2  0  0  0  0
 39 33  1  0  0  0  0
 39 30  1  0  0  0  0
 40 41  1  0  0  0  0
 42 40  1  0  0  0  0
M  END
>  <minimizedAffinity>
-5.8021965

$$$$

 OpenBabel03252500263D

 42 45  0  0  1  0  0  0  0  0999 V2000
   40.1990   28.1390   41.9490 C   0  0  2  0  0  0  0  0  0  0  0  0
   38.7820   27.7160   41.9030 C   0  0  2  0  0  0  0  0  0  0  0  0
   38.8640   26.2350   41.9000 C   0  0  0  0  0  0  0  0  0  0  0  0
   40.0130   25.8780   42.5860 O   0  0  0  0  0  0  0  0  0  0  0  0
   40.7510   26.9930   42.8200 C   0  0  0  0  0  0  0  0  0  0  0  0
   40.8690   28.1600   41.1450 H   0  0  0  0  0  0  0  0  0  0  0  0
   38.3040   28.1760   42.8090 H   0  0  0  0  0  0  0  0  0  0  0  0
   38.0390   25.9060   42.6050 H   0  0  0  0  0  0  0  0  0  0  0  0
   38.6440   25.7200   40.9860 H   0  0  0  0  0  0  0  0  0  0  0  0
   40.5630   27.3070   43.8820 H   0  0  0  0  0  0  0  0  0  0  0  0
   41.8230   26.8490   42.7080 H   0  0  0  0  0  0  0  0  0  0  0  0
   38.0780   28.2040   40.8270 O   0  0  0  0  0  0  0  0  0  0  0  0
   35.5590   28.4770   41.2940 O   0  0  0  0  0  0  0  0  0  0  0  0
   36.8680   29.2190   41.3490 P   0  0  1  0  0  0  0  0  0  0  0  0
   37.1740   29.6620   42.9540 O   0  0  0  0  0  0  0  0  0  0  0  0
   37.5230   30.5680   43.0370 H   0  0  0  0  0  0  0  0  0  0  0  0
   36.7200   30.6100   40.3610 O   0  0  0  0  0  0  0  0  0  0  0  0
   37.7850   31.4410   37.0660 C   0  0  0  0  0  0  0  0  0  0  0  0
   37.0820   30.5340   36.2270 C   0  0  0  0  0  0  0  0  0  0  0  0
   36.2260   29.6270   36.8710 C   0  0  0  0  0  0  0  0  0  0  0  0
   36.1260   29.6720   38.2160 N   0  0  0  0  0  0  0  0  0  0  0  0
   36.8180   30.5570   38.9720 C   0  0  0  0  0  0  0  0  0  0  0  0
   37.6370   31.4270   38.3870 N   0  0  0  0  0  0  0  0  0  0  0  0
   37.1650   30.5040   35.1660 H   0  0  0  0  0  0  0  0  0  0  0  0
   35.6530   28.9050   36.3190 H   0  0  0  0  0  0  0  0  0  0  0  0
   38.6310   32.3370   36.4400 O   0  0  0  0  0  0  0  0  0  0  0  0
   39.4080   31.9760   35.8970 H   0  0  0  0  0  0  0  0  0  0  0  0
   40.3670   29.3760   42.5540 O   0  0  0  0  0  0  0  0  0  0  0  0
   42.6030   30.8800   43.0900 H   0  0  0  0  0  0  0  0  0  0  0  0
   41.8620   31.1640   42.4090 N   0  0  0  0  0  0  0  0  0  0  0  0
   40.7060   30.5730   42.0100 C   0  0  0  0  0  0  0  0  0  0  0  0
   40.1280   31.3850   41.1000 N   0  0  0  0  0  0  0  0  0  0  0  0
   40.8620   32.4720   40.8950 C   0  0  0  0  0  0  0  0  0  0  0  0
   40.6820   33.5640   40.0700 C   0  0  0  0  0  0  0  0  0  0  0  0
   41.6310   34.5350   40.0840 N   0  0  0  0  0  0  0  0  0  0  0  0
   42.7140   34.4080   40.8940 C   0  0  0  0  0  0  0  0  0  0  0  0
   43.4480   35.2040   40.8750 H   0  0  0  0  0  0  0  0  0  0  0  0
   42.8680   33.3340   41.6880 N   0  0  0  0  0  0  0  0  0  0  0  0
   41.9580   32.3310   41.7220 C   0  0  0  0  0  0  0  0  0  0  0  0
   39.5260   33.6470   39.2380 N   0  0  0  0  0  0  0  0  0  0  0  0
   39.2430   33.2310   38.3030 H   0  0  0  0  0  0  0  0  0  0  0  0
   38.7550   34.2650   39.6270 H   0  0  0  0  0  0  0  0  0  0  0  0
  1  6  1  6  0  0  0
  1 28  1  0  0  0  0
  1  5  1  0  0  0  0
  2  1  1  0  0  0  0
  2  7  1  1  0  0  0
  3  2  1  0  0  0  0
  3  4  1  0  0  0  0
  3  8  1  0  0  0  0
  4  5  1  0  0  0  0
  5 10  1  0  0  0  0
  9  3  1  0  0  0  0
 11  5  1  0  0  0  0
 12 14  1  0  0  0  0
 12  2  1  0  0  0  0
 14 13  2  6  0  0  0
 14 15  1  0  0  0  0
 15 16  1  0  0  0  0
 17 14  1  0  0  0  0
 18 23  1  0  0  0  0
 19 20  1  0  0  0  0
 19 18  2  0  0  0  0
 20 21  2  0  0  0  0
 21 22  1  0  0  0  0
 22 17  1  0  0  0  0
 23 22  2  0  0  0  0
 24 19  1  0  0  0  0
 25 20  1  0  0  0  0
 26 18  1  0  0  0  0
 27 26  1  0  0  0  0
 30 29  1  0  0  0  0
 31 30  1  0  0  0  0
 31 28  1  0  0  0  0
 32 31  2  0  0  0  0
 33 32  1  0  0  0  0
 33 39  1  0  0  0  0
 34 35  1  0  0  0  0
 34 33  2  0  0  0  0
 35 36  2  0  0  0  0
 36 38  1  0  0  0  0
 37 36  1  0  0  0  0
 38 39  2  0  0  0  0
 39 30  1  0  0  0  0
 40 42  1  0  0  0  0
 40 34  1  0  0  0  0
 41 40  1  0  0  0  0
M  END
>  <minimizedAffinity>
-5.65328312

$$$$
