
 OpenBabel03252500253D

 42 45  0  0  1  0  0  0  0  0999 V2000
   46.9340   29.8940   47.8820 C   0  0  2  0  0  0  0  0  0  0  0  0
   45.5050   30.2200   48.0850 C   0  0  2  0  0  0  0  0  0  0  0  0
   44.8230   29.4770   46.9970 C   0  0  0  0  0  0  0  0  0  0  0  0
   45.5820   28.3530   46.7190 O   0  0  0  0  0  0  0  0  0  0  0  0
   46.7670   28.4470   47.3750 C   0  0  0  0  0  0  0  0  0  0  0  0
   47.5740   30.3150   47.1690 H   0  0  0  0  0  0  0  0  0  0  0  0
   45.2680   29.8840   49.1290 H   0  0  0  0  0  0  0  0  0  0  0  0
   43.9000   29.0400   47.4910 H   0  0  0  0  0  0  0  0  0  0  0  0
   44.4340   30.0380   46.1710 H   0  0  0  0  0  0  0  0  0  0  0  0
   46.6940   27.8140   48.3000 H   0  0  0  0  0  0  0  0  0  0  0  0
   47.6220   28.0930   46.8040 H   0  0  0  0  0  0  0  0  0  0  0  0
   45.2200   31.5660   48.0580 O   0  0  0  0  0  0  0  0  0  0  0  0
   47.4120   32.8150   47.5380 O   0  0  0  0  0  0  0  0  0  0  0  0
   46.1420   32.3220   46.8980 P   0  0  1  0  0  0  0  0  0  0  0  0
   46.5410   31.2010   45.6930 O   0  0  0  0  0  0  0  0  0  0  0  0
   46.0130   31.3140   44.8820 H   0  0  0  0  0  0  0  0  0  0  0  0
   45.3420   33.6740   46.2170 O   0  0  0  0  0  0  0  0  0  0  0  0
   45.1520   35.7030   43.2960 C   0  0  0  0  0  0  0  0  0  0  0  0
   46.2660   35.2980   42.5110 C   0  0  0  0  0  0  0  0  0  0  0  0
   47.0760   34.2890   43.0540 C   0  0  0  0  0  0  0  0  0  0  0  0
   46.7550   33.7770   44.2600 N   0  0  0  0  0  0  0  0  0  0  0  0
   45.6820   34.1970   44.9700 C   0  0  0  0  0  0  0  0  0  0  0  0
   44.8960   35.1530   44.4790 N   0  0  0  0  0  0  0  0  0  0  0  0
   46.5140   35.7050   41.5590 H   0  0  0  0  0  0  0  0  0  0  0  0
   47.9390   33.9190   42.5330 H   0  0  0  0  0  0  0  0  0  0  0  0
   44.3500   36.6970   42.7680 O   0  0  0  0  0  0  0  0  0  0  0  0
   44.7590   37.6050   42.5800 H   0  0  0  0  0  0  0  0  0  0  0  0
   47.6660   29.9490   49.0590 O   0  0  0  0  0  0  0  0  0  0  0  0
   49.8950   29.4080   47.5470 H   0  0  0  0  0  0  0  0  0  0  0  0
   49.9080   30.0010   48.4080 N   0  0  0  0  0  0  0  0  0  0  0  0
   48.9350   30.3800   49.2770 C   0  0  0  0  0  0  0  0  0  0  0  0
   49.5120   31.1550   50.2190 N   0  0  0  0  0  0  0  0  0  0  0  0
   50.8130   31.2900   49.9960 C   0  0  0  0  0  0  0  0  0  0  0  0
   51.7990   31.9760   50.6760 C   0  0  0  0  0  0  0  0  0  0  0  0
   53.0660   31.9220   50.1870 N   0  0  0  0  0  0  0  0  0  0  0  0
   53.3230   31.2070   49.0610 C   0  0  0  0  0  0  0  0  0  0  0  0
   54.3440   31.1890   48.7040 H   0  0  0  0  0  0  0  0  0  0  0  0
   52.3440   30.5470   48.4160 N   0  0  0  0  0  0  0  0  0  0  0  0
   51.0620   30.5610   48.8510 C   0  0  0  0  0  0  0  0  0  0  0  0
   51.4740   32.7120   51.8540 N   0  0  0  0  0  0  0  0  0  0  0  0
   51.0480   33.6640   52.0500 H   0  0  0  0  0  0  0  0  0  0  0  0
   51.7020   32.2060   52.7580 H   0  0  0  0  0  0  0  0  0  0  0  0
  1  6  1  6  0  0  0
  1  2  1  0  0  0  0
  1 28  1  0  0  0  0
  2  7  1  1  0  0  0
  3  8  1  0  0  0  0
  3  2  1  0  0  0  0
  4  3  1  0  0  0  0
  4  5  1  0  0  0  0
  5  1  1  0  0  0  0
  5 10  1  0  0  0  0
  9  3  1  0  0  0  0
 11  5  1  0  0  0  0
 12  2  1  0  0  0  0
 14 13  2  1  0  0  0
 14 12  1  0  0  0  0
 15 14  1  0  0  0  0
 16 15  1  0  0  0  0
 17 14  1  0  0  0  0
 18 23  1  0  0  0  0
 19 20  1  0  0  0  0
 19 18  2  0  0  0  0
 20 21  2  0  0  0  0
 21 22  1  0  0  0  0
 22 17  1  0  0  0  0
 23 22  2  0  0  0  0
 24 19  1  0  0  0  0
 25 20  1  0  0  0  0
 26 18  1  0  0  0  0
 27 26  1  0  0  0  0
 28 31  1  0  0  0  0
 29 30  1  0  0  0  0
 30 39  1  0  0  0  0
 30 31  1  0  0  0  0
 31 32  2  0  0  0  0
 33 32  1  0  0  0  0
 33 34  1  0  0  0  0
 34 40  1  0  0  0  0
 35 34  2  0  0  0  0
 36 35  1  0  0  0  0
 37 36  1  0  0  0  0
 38 39  1  0  0  0  0
 38 36  2  0  0  0  0
 39 33  2  0  0  0  0
 40 41  1  0  0  0  0
 40 42  1  0  0  0  0
M  END
>  <minimizedAffinity>
-5.52237844

>  <minimizedRMSD>
0.36167416

$$$$
