REMARK  Name = 
REMARK  8 active torsions:
REMARK  status: ('A' for Active; 'I' for Inactive)
REMARK    1  A    between atoms: C_2  and  O_17
REMARK    2  A    between atoms: C_3  and  C_7
REMARK    3  A    between atoms: O_17  and  P_19
REMARK    4  A    between atoms: P_19  and  O_20
REMARK    5  A    between atoms: P_19  and  O_21
REMARK    6  A    between atoms: O_20  and  C_38
REMARK    7  A    between atoms: O_21  and  C_22
REMARK    8  A    between atoms: C_41  and  N_42
REMARK                            x       y       z     vdW  Elec       q    Type
REMARK                         _______ _______ _______ _____ _____    ______ ____
ROOT
ATOM      1  C   UNL     1      45.130  36.016  42.916  0.00  0.00    +0.000 A 
ATOM      2  C   UNL     1      45.371  34.651  42.910  0.00  0.00    +0.000 A 
ATOM      3  C   UNL     1      45.215  33.920  44.061  0.00  0.00    +0.000 A 
ATOM      4  N   UNL     1      44.813  34.611  45.189  0.00  0.00    +0.000 NA
ATOM      5  C   UNL     1      44.583  35.919  45.189  0.00  0.00    +0.000 A 
ATOM      6  N   UNL     1      44.746  36.612  44.041  0.00  0.00    +0.000 NA
ATOM      7  H   UNL     1      45.249  36.622  42.008  0.00  0.00    +0.000 HD
ATOM      8  H   UNL     1      44.269  36.443  46.078  0.00  0.00    +0.000 HD
ENDROOT
BRANCH   3   9
ATOM      9  C   UNL     1      45.419  32.529  44.220  0.00  0.00    +0.000 A 
ATOM     10  C   UNL     1      44.940  31.561  43.333  0.00  0.00    +0.000 A 
ATOM     11  C   UNL     1      45.079  30.210  43.518  0.00  0.00    +0.000 A 
ATOM     12  C   UNL     1      45.724  29.741  44.635  0.00  0.00    +0.000 A 
ATOM     13  C   UNL     1      46.221  30.707  45.550  0.00  0.00    +0.000 A 
ATOM     14  C   UNL     1      46.864  30.252  46.672  0.00  0.00    +0.000 A 
ATOM     15  C   UNL     1      47.370  31.135  47.604  0.00  0.00    +0.000 A 
ATOM     16  C   UNL     1      47.223  32.516  47.392  0.00  0.00    +0.000 A 
ATOM     17  C   UNL     1      46.556  32.937  46.227  0.00  0.00    +0.000 A 
ATOM     18  C   UNL     1      46.062  32.036  45.325  0.00  0.00    +0.000 A 
ATOM     19  H   UNL     1      44.424  31.889  42.439  0.00  0.00    +0.000 HD
ATOM     20  H   UNL     1      44.692  29.494  42.804  0.00  0.00    +0.000 HD
ATOM     21  H   UNL     1      45.877  28.693  44.861  0.00  0.00    +0.000 HD
ATOM     22  H   UNL     1      46.980  29.187  46.838  0.00  0.00    +0.000 HD
ATOM     23  H   UNL     1      47.870  30.717  48.477  0.00  0.00    +0.000 HD
ATOM     24  H   UNL     1      47.649  33.130  48.167  0.00  0.00    +0.000 HD
ATOM     25  H   UNL     1      46.566  34.006  46.235  0.00  0.00    +0.000 HD
ENDBRANCH   3   9
BRANCH   2  26
ATOM     26  O   UNL     1      45.760  34.090  41.724  0.00  0.00    +0.000 OA
BRANCH  26  28
ATOM     27  O   UNL     1      47.683  32.428  41.090  0.00  0.00    +0.000 OA
ATOM     28  P   UNL     1      47.370  33.874  41.243  0.00  0.00    +0.000 P 
BRANCH  28  29
ATOM     29  O   UNL     1      47.649  34.605  39.743  0.00  0.00    +0.000 OA
BRANCH  29  32
ATOM     30  H   UNL     1      47.511  33.237  37.301  0.00  0.00    +0.000 HD
ATOM     31  N   UNL     1      48.440  33.560  37.682  0.00  0.00    +0.000 N 
ATOM     32  C   UNL     1      48.586  34.213  38.830  0.00  0.00    +0.000 A 
ATOM     33  N   UNL     1      49.918  34.450  38.969  0.00  0.00    +0.000 NA
ATOM     34  C   UNL     1      50.553  33.931  37.893  0.00  0.00    +0.000 A 
ATOM     35  C   UNL     1      51.867  33.857  37.473  0.00  0.00    +0.000 A 
ATOM     36  N   UNL     1      52.172  33.261  36.330  0.00  0.00    +0.000 NA
ATOM     37  C   UNL     1      51.230  32.715  35.548  0.00  0.00    +0.000 A 
ATOM     38  H   UNL     1      51.381  32.201  34.586  0.00  0.00    +0.000 HD
ATOM     39  N   UNL     1      49.948  32.762  35.912  0.00  0.00    +0.000 NA
ATOM     40  C   UNL     1      49.615  33.356  37.059  0.00  0.00    +0.000 A 
BRANCH  35  41
ATOM     41  N   UNL     1      52.881  34.423  38.275  0.00  0.00    +0.000 N 
ATOM     42  H   UNL     1      53.644  35.159  38.221  0.00  0.00    +0.000 HD
ATOM     43  H   UNL     1      52.951  34.033  39.242  0.00  0.00    +0.000 HD
ENDBRANCH  35  41
ENDBRANCH  29  32
ENDBRANCH  28  29
BRANCH  28  44
ATOM     44  O   UNL     1      48.362  34.595  42.389  0.00  0.00    +0.000 OA
BRANCH  44  45
ATOM     45  C   UNL     1      49.535  35.292  42.149  0.00  0.00    +0.000 C 
ATOM     46  O   UNL     1      49.205  36.212  41.378  0.00  0.00    +0.000 OA
ATOM     47  N   UNL     1      50.640  34.700  42.862  0.00  0.00    +0.000 N 
ATOM     48  H   UNL     1      51.474  34.238  42.423  0.00  0.00    +0.000 HD
ATOM     49  H   UNL     1      50.624  34.724  43.899  0.00  0.00    +0.000 HD
ENDBRANCH  44  45
ENDBRANCH  28  44
ENDBRANCH  26  28
ENDBRANCH   2  26
TORSDOF 8
