
 OpenBabel03252506383D

 49 53  0  0  1  0  0  0  0  0999 V2000
   45.1300   30.7060   43.5300 O   0  0  0  0  0  0  0  0  0  0  0  0
   44.7090   30.0280   44.4820 C   0  0  0  0  0  0  0  0  0  0  0  0
   45.1000   29.6310   45.8580 C   0  0  1  0  0  0  0  0  0  0  0  0
   44.6250   28.2010   45.9140 C   0  0  0  0  0  0  0  0  0  0  0  0
   43.1880   28.4420   45.4520 C   0  0  0  0  0  0  0  0  0  0  0  0
   43.4420   29.3540   44.3450 N   0  0  0  0  0  0  0  0  0  0  0  0
   44.2880   30.1480   46.4400 H   0  0  0  0  0  0  0  0  0  0  0  0
   45.2040   27.6350   45.1640 H   0  0  0  0  0  0  0  0  0  0  0  0
   44.6770   27.7500   46.9160 H   0  0  0  0  0  0  0  0  0  0  0  0
   42.6650   28.9880   46.2370 H   0  0  0  0  0  0  0  0  0  0  0  0
   42.7030   27.5070   45.1270 H   0  0  0  0  0  0  0  0  0  0  0  0
   42.1110   31.6370   43.5820 H   0  0  0  0  0  0  0  0  0  0  0  0
   41.9330   30.7250   43.0860 N   0  0  0  0  0  0  0  0  0  0  0  0
   42.4660   29.4870   43.2860 C   0  0  0  0  0  0  0  0  0  0  0  0
   41.9400   28.6190   42.4110 N   0  0  0  0  0  0  0  0  0  0  0  0
   41.0570   29.3170   41.6400 C   0  0  0  0  0  0  0  0  0  0  0  0
   40.2270   29.0060   40.6040 C   0  0  0  0  0  0  0  0  0  0  0  0
   39.4620   29.9460   40.0430 N   0  0  0  0  0  0  0  0  0  0  0  0
   39.4560   31.2380   40.4560 C   0  0  0  0  0  0  0  0  0  0  0  0
   38.8530   32.0280   40.0320 H   0  0  0  0  0  0  0  0  0  0  0  0
   40.2610   31.5830   41.4770 N   0  0  0  0  0  0  0  0  0  0  0  0
   41.0420   30.6520   42.0570 C   0  0  0  0  0  0  0  0  0  0  0  0
   40.2070   27.6630   40.1450 N   0  0  0  0  0  0  0  0  0  0  0  0
   41.1100   27.1400   40.0660 H   0  0  0  0  0  0  0  0  0  0  0  0
   39.4460   26.9990   39.8360 H   0  0  0  0  0  0  0  0  0  0  0  0
   46.7580   29.9010   46.3270 S   0  0  0  0  0  0  0  0  0  0  0  0
   44.5610   35.4300   45.2360 C   0  0  0  0  0  0  0  0  0  0  0  0
   45.1930   35.4900   43.9760 C   0  0  0  0  0  0  0  0  0  0  0  0
   46.1150   34.5510   43.6480 C   0  0  0  0  0  0  0  0  0  0  0  0
   46.3710   33.5980   44.5760 N   0  0  0  0  0  0  0  0  0  0  0  0
   45.7760   33.5430   45.7590 C   0  0  0  0  0  0  0  0  0  0  0  0
   44.8660   34.4530   46.1060 N   0  0  0  0  0  0  0  0  0  0  0  0
   46.1350   32.4820   46.6620 N   0  0  0  0  0  0  0  0  0  0  0  0
   45.4260   32.1650   47.8470 C   0  0  0  0  0  0  0  0  0  0  0  0
   46.5300   31.7820   48.8180 C   0  0  0  0  0  0  0  0  0  0  0  0
   47.7930   31.7260   48.0140 C   0  0  0  0  0  0  0  0  0  0  0  0
   47.2620   31.5840   46.5880 C   0  0  1  0  0  0  0  0  0  0  0  0
   43.8310   36.1870   45.4740 H   0  0  0  0  0  0  0  0  0  0  0  0
   46.5990   34.5830   42.7050 H   0  0  0  0  0  0  0  0  0  0  0  0
   44.6470   31.4820   47.9370 H   0  0  0  0  0  0  0  0  0  0  0  0
   45.0390   33.1480   48.2630 H   0  0  0  0  0  0  0  0  0  0  0  0
   46.6310   32.4540   49.6750 H   0  0  0  0  0  0  0  0  0  0  0  0
   46.3270   30.7660   49.2600 H   0  0  0  0  0  0  0  0  0  0  0  0
   48.3770   30.8500   48.3160 H   0  0  0  0  0  0  0  0  0  0  0  0
   48.3380   32.6890   48.1510 H   0  0  0  0  0  0  0  0  0  0  0  0
   48.0640   31.9380   45.9120 H   0  0  0  0  0  0  0  0  0  0  0  0
   44.8070   36.5690   43.1060 N   0  0  0  0  0  0  0  0  0  0  0  0
   45.5320   36.8600   42.3870 H   0  0  0  0  0  0  0  0  0  0  0  0
   43.8820   37.0000   43.2080 H   0  0  0  0  0  0  0  0  0  0  0  0
  1  2  2  0  0  0  0
  2  3  1  0  0  0  0
  3  4  1  0  0  0  0
  3 26  1  0  0  0  0
  3  7  1  1  0  0  0
  4  9  1  0  0  0  0
  5  4  1  0  0  0  0
  5 10  1  0  0  0  0
  6  2  1  0  0  0  0
  6  5  1  0  0  0  0
  8  4  1  0  0  0  0
 11  5  1  0  0  0  0
 13 14  1  0  0  0  0
 13 12  1  0  0  0  0
 14  6  1  0  0  0  0
 15 14  2  0  0  0  0
 16 22  1  0  0  0  0
 16 15  1  0  0  0  0
 17 16  2  0  0  0  0
 18 19  2  0  0  0  0
 18 17  1  0  0  0  0
 19 21  1  0  0  0  0
 20 19  1  0  0  0  0
 21 22  2  0  0  0  0
 22 13  1  0  0  0  0
 23 17  1  0  0  0  0
 24 23  1  0  0  0  0
 25 23  1  0  0  0  0
 26 37  1  0  0  0  0
 27 38  1  0  0  0  0
 27 32  1  0  0  0  0
 28 27  2  0  0  0  0
 29 28  1  0  0  0  0
 29 30  2  0  0  0  0
 30 31  1  0  0  0  0
 31 32  2  0  0  0  0
 31 33  1  0  0  0  0
 33 34  1  0  0  0  0
 34 40  1  0  0  0  0
 34 41  1  0  0  0  0
 34 35  1  0  0  0  0
 35 43  1  0  0  0  0
 35 42  1  0  0  0  0
 36 45  1  0  0  0  0
 36 44  1  0  0  0  0
 36 35  1  0  0  0  0
 37 46  1  6  0  0  0
 37 33  1  0  0  0  0
 37 36  1  0  0  0  0
 39 29  1  0  0  0  0
 47 49  1  0  0  0  0
 47 28  1  0  0  0  0
 48 47  1  0  0  0  0
M  END
>  <minimizedAffinity>
-6.33080721

>  <minimizedRMSD>
0.797772825

$$$$
