
 OpenBabel03252506393D

 49 53  0  0  1  0  0  0  0  0999 V2000
   39.4130   27.8490   40.3330 O   0  0  0  0  0  0  0  0  0  0  0  0
   38.7140   27.8630   41.3600 C   0  0  0  0  0  0  0  0  0  0  0  0
   38.1580   26.9290   42.3720 C   0  0  1  0  0  0  0  0  0  0  0  0
   36.7970   27.5270   42.6290 C   0  0  0  0  0  0  0  0  0  0  0  0
   37.2510   28.9570   42.9210 C   0  0  0  0  0  0  0  0  0  0  0  0
   38.2150   29.1270   41.8410 N   0  0  0  0  0  0  0  0  0  0  0  0
   38.7200   27.2800   43.2800 H   0  0  0  0  0  0  0  0  0  0  0  0
   36.2300   27.4650   41.6850 H   0  0  0  0  0  0  0  0  0  0  0  0
   36.2610   27.0730   43.4760 H   0  0  0  0  0  0  0  0  0  0  0  0
   37.7900   28.9560   43.8680 H   0  0  0  0  0  0  0  0  0  0  0  0
   36.4140   29.6710   42.8570 H   0  0  0  0  0  0  0  0  0  0  0  0
   40.7000   30.3060   41.8480 H   0  0  0  0  0  0  0  0  0  0  0  0
   39.8620   30.8310   41.4860 N   0  0  0  0  0  0  0  0  0  0  0  0
   38.5550   30.4560   41.3860 C   0  0  0  0  0  0  0  0  0  0  0  0
   37.8350   31.4580   40.8610 N   0  0  0  0  0  0  0  0  0  0  0  0
   38.6980   32.4860   40.6220 C   0  0  0  0  0  0  0  0  0  0  0  0
   38.5800   33.7440   40.1100 C   0  0  0  0  0  0  0  0  0  0  0  0
   39.6510   34.5350   40.0010 N   0  0  0  0  0  0  0  0  0  0  0  0
   40.8940   34.1520   40.3830 C   0  0  0  0  0  0  0  0  0  0  0  0
   41.7860   34.7590   40.3140 H   0  0  0  0  0  0  0  0  0  0  0  0
   41.0510   32.9180   40.8950 N   0  0  0  0  0  0  0  0  0  0  0  0
   39.9860   32.1030   41.0130 C   0  0  0  0  0  0  0  0  0  0  0  0
   37.2930   34.1780   39.6980 N   0  0  0  0  0  0  0  0  0  0  0  0
   36.6720   33.5100   39.1860 H   0  0  0  0  0  0  0  0  0  0  0  0
   36.7560   35.0840   39.7850 H   0  0  0  0  0  0  0  0  0  0  0  0
   38.1810   25.2280   41.9870 S   0  0  0  0  0  0  0  0  0  0  0  0
   38.5190   26.4330   36.0690 C   0  0  0  0  0  0  0  0  0  0  0  0
   37.5820   27.4830   36.1750 C   0  0  0  0  0  0  0  0  0  0  0  0
   36.8780   27.6320   37.3240 C   0  0  0  0  0  0  0  0  0  0  0  0
   37.1300   26.7430   38.3150 N   0  0  0  0  0  0  0  0  0  0  0  0
   38.0120   25.7580   38.2120 C   0  0  0  0  0  0  0  0  0  0  0  0
   38.7160   25.5890   37.0940 N   0  0  0  0  0  0  0  0  0  0  0  0
   38.1890   24.8740   39.3340 N   0  0  0  0  0  0  0  0  0  0  0  0
   39.2430   23.9350   39.4540 C   0  0  0  0  0  0  0  0  0  0  0  0
   38.5730   22.7460   40.1200 C   0  0  0  0  0  0  0  0  0  0  0  0
   37.2010   23.2030   40.5080 C   0  0  0  0  0  0  0  0  0  0  0  0
   37.3520   24.7230   40.4990 C   0  0  1  0  0  0  0  0  0  0  0  0
   39.0670   26.3340   35.1460 H   0  0  0  0  0  0  0  0  0  0  0  0
   36.1690   28.4160   37.4200 H   0  0  0  0  0  0  0  0  0  0  0  0
   40.1660   24.0970   39.9050 H   0  0  0  0  0  0  0  0  0  0  0  0
   39.4620   23.5600   38.4050 H   0  0  0  0  0  0  0  0  0  0  0  0
   38.5350   21.8440   39.5020 H   0  0  0  0  0  0  0  0  0  0  0  0
   39.1400   22.4460   41.0470 H   0  0  0  0  0  0  0  0  0  0  0  0
   36.9610   22.8270   41.5080 H   0  0  0  0  0  0  0  0  0  0  0  0
   36.4840   22.8610   39.7260 H   0  0  0  0  0  0  0  0  0  0  0  0
   36.3360   25.1450   40.3700 H   0  0  0  0  0  0  0  0  0  0  0  0
   37.4330   28.3410   35.0290 N   0  0  0  0  0  0  0  0  0  0  0  0
   36.4950   28.8270   34.9400 H   0  0  0  0  0  0  0  0  0  0  0  0
   38.2100   28.4460   34.3680 H   0  0  0  0  0  0  0  0  0  0  0  0
  1  2  2  0  0  0  0
  2  6  1  0  0  0  0
  2  3  1  0  0  0  0
  3  4  1  0  0  0  0
  3  7  1  1  0  0  0
  4  5  1  0  0  0  0
  4  9  1  0  0  0  0
  5 10  1  0  0  0  0
  6  5  1  0  0  0  0
  8  4  1  0  0  0  0
 11  5  1  0  0  0  0
 13 12  1  0  0  0  0
 14 13  1  0  0  0  0
 14  6  1  0  0  0  0
 15 14  2  0  0  0  0
 16 15  1  0  0  0  0
 16 22  1  0  0  0  0
 17 16  2  0  0  0  0
 18 17  1  0  0  0  0
 18 19  2  0  0  0  0
 19 21  1  0  0  0  0
 20 19  1  0  0  0  0
 21 22  2  0  0  0  0
 22 13  1  0  0  0  0
 23 25  1  0  0  0  0
 23 17  1  0  0  0  0
 24 23  1  0  0  0  0
 26  3  1  0  0  0  0
 27 28  2  0  0  0  0
 27 32  1  0  0  0  0
 28 29  1  0  0  0  0
 29 39  1  0  0  0  0
 29 30  2  0  0  0  0
 31 30  1  0  0  0  0
 31 33  1  0  0  0  0
 32 31  2  0  0  0  0
 33 34  1  0  0  0  0
 33 37  1  0  0  0  0
 34 40  1  0  0  0  0
 34 35  1  0  0  0  0
 35 36  1  0  0  0  0
 35 43  1  0  0  0  0
 36 44  1  0  0  0  0
 37 46  1  6  0  0  0
 37 36  1  0  0  0  0
 37 26  1  0  0  0  0
 38 27  1  0  0  0  0
 41 34  1  0  0  0  0
 42 35  1  0  0  0  0
 45 36  1  0  0  0  0
 47 28  1  0  0  0  0
 48 47  1  0  0  0  0
 49 47  1  0  0  0  0
M  END
>  <minimizedAffinity>
-6.80847311

$$$$

 OpenBabel03252506393D

 49 53  0  0  1  0  0  0  0  0999 V2000
   40.6690   29.3690   41.3280 O   0  0  0  0  0  0  0  0  0  0  0  0
   39.6540   30.0760   41.4430 C   0  0  0  0  0  0  0  0  0  0  0  0
   38.3020   30.0350   42.0550 C   0  0  1  0  0  0  0  0  0  0  0  0
   37.4690   30.7390   41.0130 C   0  0  0  0  0  0  0  0  0  0  0  0
   38.3270   31.9970   40.8770 C   0  0  0  0  0  0  0  0  0  0  0  0
   39.6470   31.3830   40.8340 N   0  0  0  0  0  0  0  0  0  0  0  0
   38.4190   30.8510   42.8210 H   0  0  0  0  0  0  0  0  0  0  0  0
   37.5030   30.1230   40.0980 H   0  0  0  0  0  0  0  0  0  0  0  0
   36.4410   30.9620   41.3350 H   0  0  0  0  0  0  0  0  0  0  0  0
   38.2420   32.5690   41.8020 H   0  0  0  0  0  0  0  0  0  0  0  0
   38.0900   32.5540   39.9560 H   0  0  0  0  0  0  0  0  0  0  0  0
   42.0010   32.1460   42.0370 H   0  0  0  0  0  0  0  0  0  0  0  0
   41.8240   32.3680   41.0220 N   0  0  0  0  0  0  0  0  0  0  0  0
   40.7510   32.0940   40.2280 C   0  0  0  0  0  0  0  0  0  0  0  0
   40.9650   32.5710   38.9940 N   0  0  0  0  0  0  0  0  0  0  0  0
   42.1970   33.1580   39.0030 C   0  0  0  0  0  0  0  0  0  0  0  0
   42.9620   33.8050   38.0790 C   0  0  0  0  0  0  0  0  0  0  0  0
   44.1670   34.2800   38.4090 N   0  0  0  0  0  0  0  0  0  0  0  0
   44.6940   34.1560   39.6520 C   0  0  0  0  0  0  0  0  0  0  0  0
   45.6620   34.5260   39.9610 H   0  0  0  0  0  0  0  0  0  0  0  0
   43.9680   33.5240   40.5920 N   0  0  0  0  0  0  0  0  0  0  0  0
   42.7520   33.0370   40.2820 C   0  0  0  0  0  0  0  0  0  0  0  0
   42.4420   33.9530   36.7670 N   0  0  0  0  0  0  0  0  0  0  0  0
   41.9330   33.1500   36.3290 H   0  0  0  0  0  0  0  0  0  0  0  0
   42.4370   34.7350   36.0580 H   0  0  0  0  0  0  0  0  0  0  0  0
   37.7090   28.4820   42.5810 S   0  0  0  0  0  0  0  0  0  0  0  0
   38.5870   27.4240   36.6910 C   0  0  0  0  0  0  0  0  0  0  0  0
   37.6040   28.3670   36.3210 C   0  0  0  0  0  0  0  0  0  0  0  0
   36.7840   28.8810   37.2700 C   0  0  0  0  0  0  0  0  0  0  0  0
   36.9710   28.4440   38.5390 N   0  0  0  0  0  0  0  0  0  0  0  0
   37.8960   27.5590   38.8840 C   0  0  0  0  0  0  0  0  0  0  0  0
   38.7140   27.0380   37.9700 N   0  0  0  0  0  0  0  0  0  0  0  0
   37.9940   27.1690   40.2650 N   0  0  0  0  0  0  0  0  0  0  0  0
   39.0670   26.4220   40.8120 C   0  0  0  0  0  0  0  0  0  0  0  0
   38.3800   25.5200   41.8230 C   0  0  0  0  0  0  0  0  0  0  0  0
   36.9590   25.9870   41.9020 C   0  0  0  0  0  0  0  0  0  0  0  0
   37.0520   27.4020   41.3330 C   0  0  1  0  0  0  0  0  0  0  0  0
   39.2280   27.0300   35.9180 H   0  0  0  0  0  0  0  0  0  0  0  0
   36.0400   29.5900   37.0080 H   0  0  0  0  0  0  0  0  0  0  0  0
   39.9330   26.8070   41.2390 H   0  0  0  0  0  0  0  0  0  0  0  0
   39.4030   25.7020   40.0020 H   0  0  0  0  0  0  0  0  0  0  0  0
   38.4380   24.4520   41.5880 H   0  0  0  0  0  0  0  0  0  0  0  0
   38.8630   25.6280   42.8350 H   0  0  0  0  0  0  0  0  0  0  0  0
   36.6360   25.9930   42.9480 H   0  0  0  0  0  0  0  0  0  0  0  0
   36.3370   25.3280   41.2520 H   0  0  0  0  0  0  0  0  0  0  0  0
   36.0390   27.6700   40.9760 H   0  0  0  0  0  0  0  0  0  0  0  0
   37.5380   28.7250   34.9280 N   0  0  0  0  0  0  0  0  0  0  0  0
   36.5950   29.0740   34.5890 H   0  0  0  0  0  0  0  0  0  0  0  0
   38.3720   28.6330   34.3380 H   0  0  0  0  0  0  0  0  0  0  0  0
  1  2  2  0  0  0  0
  2  3  1  0  0  0  0
  3 26  1  0  0  0  0
  3  7  1  1  0  0  0
  4  9  1  0  0  0  0
  4  3  1  0  0  0  0
  5  4  1  0  0  0  0
  5 10  1  0  0  0  0
  6  5  1  0  0  0  0
  6  2  1  0  0  0  0
  8  4  1  0  0  0  0
 11  5  1  0  0  0  0
 13 12  1  0  0  0  0
 14  6  1  0  0  0  0
 14 13  1  0  0  0  0
 15 16  1  0  0  0  0
 15 14  2  0  0  0  0
 16 22  1  0  0  0  0
 17 18  1  0  0  0  0
 17 16  2  0  0  0  0
 18 19  2  0  0  0  0
 19 20  1  0  0  0  0
 19 21  1  0  0  0  0
 22 21  2  0  0  0  0
 22 13  1  0  0  0  0
 23 17  1  0  0  0  0
 24 23  1  0  0  0  0
 25 23  1  0  0  0  0
 27 32  1  0  0  0  0
 28 27  2  0  0  0  0
 28 29  1  0  0  0  0
 29 30  2  0  0  0  0
 30 31  1  0  0  0  0
 31 33  1  0  0  0  0
 32 31  2  0  0  0  0
 33 34  1  0  0  0  0
 33 37  1  0  0  0  0
 34 40  1  0  0  0  0
 34 35  1  0  0  0  0
 35 36  1  0  0  0  0
 35 43  1  0  0  0  0
 36 44  1  0  0  0  0
 37 46  1  6  0  0  0
 37 36  1  0  0  0  0
 37 26  1  0  0  0  0
 38 27  1  0  0  0  0
 39 29  1  0  0  0  0
 41 34  1  0  0  0  0
 42 35  1  0  0  0  0
 45 36  1  0  0  0  0
 47 28  1  0  0  0  0
 48 47  1  0  0  0  0
 49 47  1  0  0  0  0
M  END
>  <minimizedAffinity>
-6.6623621

$$$$

 OpenBabel03252506393D

 49 53  0  0  1  0  0  0  0  0999 V2000
   39.7060   29.4910   39.2540 O   0  0  0  0  0  0  0  0  0  0  0  0
   39.4840   30.0540   40.3390 C   0  0  0  0  0  0  0  0  0  0  0  0
   39.4910   31.4120   40.9390 C   0  0  1  0  0  0  0  0  0  0  0  0
   40.0310   31.1360   42.3200 C   0  0  0  0  0  0  0  0  0  0  0  0
   39.0590   30.0200   42.7030 C   0  0  0  0  0  0  0  0  0  0  0  0
   39.0780   29.2510   41.4660 N   0  0  0  0  0  0  0  0  0  0  0  0
   38.3940   31.5260   41.1580 H   0  0  0  0  0  0  0  0  0  0  0  0
   41.0590   30.7560   42.1990 H   0  0  0  0  0  0  0  0  0  0  0  0
   39.9750   31.9970   43.0030 H   0  0  0  0  0  0  0  0  0  0  0  0
   38.0680   30.4570   42.8230 H   0  0  0  0  0  0  0  0  0  0  0  0
   39.4240   29.4400   43.5660 H   0  0  0  0  0  0  0  0  0  0  0  0
   37.0230   28.0460   40.0900 H   0  0  0  0  0  0  0  0  0  0  0  0
   37.6510   27.4780   40.7180 N   0  0  0  0  0  0  0  0  0  0  0  0
   38.7130   27.8520   41.4840 C   0  0  0  0  0  0  0  0  0  0  0  0
   39.2130   26.7830   42.1200 N   0  0  0  0  0  0  0  0  0  0  0  0
   38.4550   25.7110   41.7520 C   0  0  0  0  0  0  0  0  0  0  0  0
   38.4580   24.3810   42.0500 C   0  0  0  0  0  0  0  0  0  0  0  0
   37.5530   23.5620   41.5070 N   0  0  0  0  0  0  0  0  0  0  0  0
   36.5950   23.9860   40.6480 C   0  0  0  0  0  0  0  0  0  0  0  0
   35.8440   23.3590   40.1870 H   0  0  0  0  0  0  0  0  0  0  0  0
   36.5580   25.2930   40.3290 N   0  0  0  0  0  0  0  0  0  0  0  0
   37.4610   26.1360   40.8640 C   0  0  0  0  0  0  0  0  0  0  0  0
   39.4480   23.9010   42.9470 N   0  0  0  0  0  0  0  0  0  0  0  0
   40.4260   24.2640   42.8660 H   0  0  0  0  0  0  0  0  0  0  0  0
   39.4490   23.2100   43.7450 H   0  0  0  0  0  0  0  0  0  0  0  0
   40.2960   32.6760   40.0470 S   0  0  0  0  0  0  0  0  0  0  0  0
   43.3050   29.8640   35.6170 C   0  0  0  0  0  0  0  0  0  0  0  0
   43.3510   28.6550   36.3440 C   0  0  0  0  0  0  0  0  0  0  0  0
   42.9940   28.6510   37.6520 C   0  0  0  0  0  0  0  0  0  0  0  0
   42.6070   29.8360   38.1830 N   0  0  0  0  0  0  0  0  0  0  0  0
   42.5630   30.9700   37.4970 C   0  0  0  0  0  0  0  0  0  0  0  0
   42.9100   31.0010   36.2110 N   0  0  0  0  0  0  0  0  0  0  0  0
   42.1380   32.1670   38.1730 N   0  0  0  0  0  0  0  0  0  0  0  0
   41.8240   33.3850   37.5210 C   0  0  0  0  0  0  0  0  0  0  0  0
   42.3560   34.4370   38.4800 C   0  0  0  0  0  0  0  0  0  0  0  0
   42.7630   33.7030   39.7200 C   0  0  0  0  0  0  0  0  0  0  0  0
   41.9890   32.3930   39.5900 C   0  0  1  0  0  0  0  0  0  0  0  0
   43.5940   29.8420   34.5790 H   0  0  0  0  0  0  0  0  0  0  0  0
   43.0250   27.7510   38.2130 H   0  0  0  0  0  0  0  0  0  0  0  0
   40.8860   33.6810   37.1840 H   0  0  0  0  0  0  0  0  0  0  0  0
   42.5230   33.4630   36.6300 H   0  0  0  0  0  0  0  0  0  0  0  0
   43.1790   35.0360   38.0810 H   0  0  0  0  0  0  0  0  0  0  0  0
   41.5460   35.1780   38.7360 H   0  0  0  0  0  0  0  0  0  0  0  0
   42.4460   34.2730   40.6000 H   0  0  0  0  0  0  0  0  0  0  0  0
   43.8630   33.5310   39.6800 H   0  0  0  0  0  0  0  0  0  0  0  0
   42.5170   31.6460   40.2130 H   0  0  0  0  0  0  0  0  0  0  0  0
   43.7870   27.4830   35.6310 N   0  0  0  0  0  0  0  0  0  0  0  0
   44.2130   26.7160   36.2270 H   0  0  0  0  0  0  0  0  0  0  0  0
   43.6740   27.4350   34.6130 H   0  0  0  0  0  0  0  0  0  0  0  0
  1  2  2  0  0  0  0
  2  3  1  0  0  0  0
  2  6  1  0  0  0  0
  3  7  1  1  0  0  0
  3  4  1  0  0  0  0
  4  5  1  0  0  0  0
  4  9  1  0  0  0  0
  5 10  1  0  0  0  0
  5 11  1  0  0  0  0
  6 14  1  0  0  0  0
  6  5  1  0  0  0  0
  8  4  1  0  0  0  0
 12 13  1  0  0  0  0
 13 22  1  0  0  0  0
 13 14  1  0  0  0  0
 14 15  2  0  0  0  0
 16 17  1  0  0  0  0
 16 15  1  0  0  0  0
 17 23  1  0  0  0  0
 18 17  2  0  0  0  0
 19 18  1  0  0  0  0
 20 19  1  0  0  0  0
 21 19  2  0  0  0  0
 21 22  1  0  0  0  0
 22 16  2  0  0  0  0
 23 25  1  0  0  0  0
 24 23  1  0  0  0  0
 26  3  1  0  0  0  0
 27 32  2  0  0  0  0
 27 28  1  0  0  0  0
 28 29  2  0  0  0  0
 29 30  1  0  0  0  0
 29 39  1  0  0  0  0
 31 33  1  0  0  0  0
 31 30  2  0  0  0  0
 32 31  1  0  0  0  0
 33 37  1  0  0  0  0
 34 33  1  0  0  0  0
 34 35  1  0  0  0  0
 35 43  1  0  0  0  0
 35 36  1  0  0  0  0
 36 44  1  0  0  0  0
 37 36  1  0  0  0  0
 37 26  1  0  0  0  0
 37 46  1  1  0  0  0
 38 27  1  0  0  0  0
 40 34  1  0  0  0  0
 41 34  1  0  0  0  0
 42 35  1  0  0  0  0
 45 36  1  0  0  0  0
 47 48  1  0  0  0  0
 47 28  1  0  0  0  0
 49 47  1  0  0  0  0
M  END
>  <minimizedAffinity>
-6.3672142

$$$$

 OpenBabel03252506393D

 49 53  0  0  1  0  0  0  0  0999 V2000
   41.3510   28.6290   40.2090 O   0  0  0  0  0  0  0  0  0  0  0  0
   40.9460   29.4080   41.0870 C   0  0  0  0  0  0  0  0  0  0  0  0
   40.1710   29.3910   42.3540 C   0  0  1  0  0  0  0  0  0  0  0  0
   39.3770   30.6700   42.2470 C   0  0  0  0  0  0  0  0  0  0  0  0
   40.5430   31.6130   41.9520 C   0  0  0  0  0  0  0  0  0  0  0  0
   41.2570   30.8110   40.9670 N   0  0  0  0  0  0  0  0  0  0  0  0
   40.9790   29.7020   43.0720 H   0  0  0  0  0  0  0  0  0  0  0  0
   38.7070   30.5660   41.3770 H   0  0  0  0  0  0  0  0  0  0  0  0
   38.8380   30.9400   43.1670 H   0  0  0  0  0  0  0  0  0  0  0  0
   41.1580   31.6870   42.8490 H   0  0  0  0  0  0  0  0  0  0  0  0
   40.1950   32.5750   41.5410 H   0  0  0  0  0  0  0  0  0  0  0  0
   43.9540   30.3660   40.6560 H   0  0  0  0  0  0  0  0  0  0  0  0
   43.4560   31.0720   40.0520 N   0  0  0  0  0  0  0  0  0  0  0  0
   42.1480   31.4530   40.0270 C   0  0  0  0  0  0  0  0  0  0  0  0
   41.9670   32.3920   39.0870 N   0  0  0  0  0  0  0  0  0  0  0  0
   43.1800   32.6100   38.5030 C   0  0  0  0  0  0  0  0  0  0  0  0
   43.6390   33.4220   37.5100 C   0  0  0  0  0  0  0  0  0  0  0  0
   44.9280   33.4010   37.1580 N   0  0  0  0  0  0  0  0  0  0  0  0
   45.8420   32.5930   37.7480 C   0  0  0  0  0  0  0  0  0  0  0  0
   46.8910   32.5440   37.4950 H   0  0  0  0  0  0  0  0  0  0  0  0
   45.4270   31.7760   38.7340 N   0  0  0  0  0  0  0  0  0  0  0  0
   44.1330   31.7810   39.1050 C   0  0  0  0  0  0  0  0  0  0  0  0
   42.7100   34.2820   36.8690 N   0  0  0  0  0  0  0  0  0  0  0  0
   41.7570   33.9170   36.6370 H   0  0  0  0  0  0  0  0  0  0  0  0
   42.7380   35.2840   36.5360 H   0  0  0  0  0  0  0  0  0  0  0  0
   39.2510   27.9530   42.7090 S   0  0  0  0  0  0  0  0  0  0  0  0
   38.0260   26.8470   36.8900 C   0  0  0  0  0  0  0  0  0  0  0  0
   37.8620   28.2210   36.6090 C   0  0  0  0  0  0  0  0  0  0  0  0
   37.7950   29.1060   37.6330 C   0  0  0  0  0  0  0  0  0  0  0  0
   37.8920   28.5990   38.8860 N   0  0  0  0  0  0  0  0  0  0  0  0
   38.0470   27.3080   39.1470 C   0  0  0  0  0  0  0  0  0  0  0  0
   38.1160   26.4170   38.1590 N   0  0  0  0  0  0  0  0  0  0  0  0
   38.1350   26.8900   40.5210 N   0  0  0  0  0  0  0  0  0  0  0  0
   38.5270   25.5950   40.9400 C   0  0  0  0  0  0  0  0  0  0  0  0
   37.6340   25.3340   42.1410 C   0  0  0  0  0  0  0  0  0  0  0  0
   36.9270   26.6240   42.4230 C   0  0  0  0  0  0  0  0  0  0  0  0
   37.8160   27.6420   41.7100 C   0  0  1  0  0  0  0  0  0  0  0  0
   38.0770   26.1620   36.0590 H   0  0  0  0  0  0  0  0  0  0  0  0
   37.6710   30.1420   37.4390 H   0  0  0  0  0  0  0  0  0  0  0  0
   39.4940   25.2850   41.1670 H   0  0  0  0  0  0  0  0  0  0  0  0
   38.1350   24.8710   40.1580 H   0  0  0  0  0  0  0  0  0  0  0  0
   36.9250   24.5110   42.0060 H   0  0  0  0  0  0  0  0  0  0  0  0
   38.2550   25.0470   43.0360 H   0  0  0  0  0  0  0  0  0  0  0  0
   36.9040   26.7960   43.5050 H   0  0  0  0  0  0  0  0  0  0  0  0
   35.9140   26.5760   41.9630 H   0  0  0  0  0  0  0  0  0  0  0  0
   37.1870   28.5320   41.5140 H   0  0  0  0  0  0  0  0  0  0  0  0
   37.7750   28.5950   35.2220 N   0  0  0  0  0  0  0  0  0  0  0  0
   37.2540   29.4970   35.0230 H   0  0  0  0  0  0  0  0  0  0  0  0
   38.2020   27.9980   34.5060 H   0  0  0  0  0  0  0  0  0  0  0  0
  1  2  2  0  0  0  0
  2  3  1  0  0  0  0
  3 26  1  0  0  0  0
  3  7  1  1  0  0  0
  4  3  1  0  0  0  0
  4  9  1  0  0  0  0
  5  4  1  0  0  0  0
  5 10  1  0  0  0  0
  6  2  1  0  0  0  0
  6  5  1  0  0  0  0
  8  4  1  0  0  0  0
 11  5  1  0  0  0  0
 13 12  1  0  0  0  0
 14 13  1  0  0  0  0
 14  6  1  0  0  0  0
 15 14  2  0  0  0  0
 16 15  1  0  0  0  0
 16 22  1  0  0  0  0
 17 16  2  0  0  0  0
 18 17  1  0  0  0  0
 18 19  2  0  0  0  0
 19 21  1  0  0  0  0
 20 19  1  0  0  0  0
 21 22  2  0  0  0  0
 22 13  1  0  0  0  0
 23 17  1  0  0  0  0
 24 23  1  0  0  0  0
 25 23  1  0  0  0  0
 27 32  1  0  0  0  0
 28 27  2  0  0  0  0
 28 29  1  0  0  0  0
 29 30  2  0  0  0  0
 30 31  1  0  0  0  0
 31 33  1  0  0  0  0
 32 31  2  0  0  0  0
 33 34  1  0  0  0  0
 33 37  1  0  0  0  0
 34 40  1  0  0  0  0
 34 35  1  0  0  0  0
 35 36  1  0  0  0  0
 35 43  1  0  0  0  0
 36 44  1  0  0  0  0
 37 46  1  6  0  0  0
 37 36  1  0  0  0  0
 37 26  1  0  0  0  0
 38 27  1  0  0  0  0
 39 29  1  0  0  0  0
 41 34  1  0  0  0  0
 42 35  1  0  0  0  0
 45 36  1  0  0  0  0
 47 28  1  0  0  0  0
 48 47  1  0  0  0  0
 49 47  1  0  0  0  0
M  END
>  <minimizedAffinity>
-6.22885704

$$$$

 OpenBabel03252506393D

 49 53  0  0  1  0  0  0  0  0999 V2000
   39.3940   27.8410   40.0840 O   0  0  0  0  0  0  0  0  0  0  0  0
   38.7140   27.8160   41.1230 C   0  0  0  0  0  0  0  0  0  0  0  0
   38.1760   26.8440   42.1090 C   0  0  1  0  0  0  0  0  0  0  0  0
   36.8200   27.4300   42.4130 C   0  0  0  0  0  0  0  0  0  0  0  0
   37.2780   28.8490   42.7500 C   0  0  0  0  0  0  0  0  0  0  0  0
   38.2220   29.0610   41.6600 N   0  0  0  0  0  0  0  0  0  0  0  0
   38.7550   27.1620   43.0200 H   0  0  0  0  0  0  0  0  0  0  0  0
   36.2360   27.4020   41.4780 H   0  0  0  0  0  0  0  0  0  0  0  0
   36.3000   26.9440   43.2510 H   0  0  0  0  0  0  0  0  0  0  0  0
   37.8340   28.8140   43.6870 H   0  0  0  0  0  0  0  0  0  0  0  0
   36.4400   29.5630   42.7270 H   0  0  0  0  0  0  0  0  0  0  0  0
   40.7070   30.2420   41.6660 H   0  0  0  0  0  0  0  0  0  0  0  0
   39.8610   30.7790   41.3390 N   0  0  0  0  0  0  0  0  0  0  0  0
   38.5530   30.4060   41.2490 C   0  0  0  0  0  0  0  0  0  0  0  0
   37.8230   31.4260   40.7740 N   0  0  0  0  0  0  0  0  0  0  0  0
   38.6810   32.4640   40.5580 C   0  0  0  0  0  0  0  0  0  0  0  0
   38.5530   33.7390   40.0960 C   0  0  0  0  0  0  0  0  0  0  0  0
   39.6210   34.5350   39.9970 N   0  0  0  0  0  0  0  0  0  0  0  0
   40.8710   34.1400   40.3430 C   0  0  0  0  0  0  0  0  0  0  0  0
   41.7610   34.7510   40.2800 H   0  0  0  0  0  0  0  0  0  0  0  0
   41.0380   32.8880   40.8050 N   0  0  0  0  0  0  0  0  0  0  0  0
   39.9760   32.0680   40.9120 C   0  0  0  0  0  0  0  0  0  0  0  0
   37.2590   34.1870   39.7240 N   0  0  0  0  0  0  0  0  0  0  0  0
   36.6280   33.5380   39.1980 H   0  0  0  0  0  0  0  0  0  0  0  0
   36.7230   35.0880   39.8540 H   0  0  0  0  0  0  0  0  0  0  0  0
   38.1940   25.1590   41.6600 S   0  0  0  0  0  0  0  0  0  0  0  0
   40.8110   21.4120   37.6980 C   0  0  0  0  0  0  0  0  0  0  0  0
   41.7910   22.3700   37.3590 C   0  0  0  0  0  0  0  0  0  0  0  0
   41.6460   23.6480   37.7850 C   0  0  0  0  0  0  0  0  0  0  0  0
   40.5450   23.9250   38.5250 N   0  0  0  0  0  0  0  0  0  0  0  0
   39.6270   23.0230   38.8420 C   0  0  0  0  0  0  0  0  0  0  0  0
   39.7440   21.7600   38.4360 N   0  0  0  0  0  0  0  0  0  0  0  0
   38.4980   23.4390   39.6320 N   0  0  0  0  0  0  0  0  0  0  0  0
   37.5720   22.5520   40.2340 C   0  0  0  0  0  0  0  0  0  0  0  0
   36.2480   23.2810   40.0840 C   0  0  0  0  0  0  0  0  0  0  0  0
   36.5790   24.6480   39.5680 C   0  0  0  0  0  0  0  0  0  0  0  0
   38.0570   24.7800   39.9300 C   0  0  1  0  0  0  0  0  0  0  0  0
   40.9470   20.4010   37.3480 H   0  0  0  0  0  0  0  0  0  0  0  0
   42.3740   24.3800   37.5380 H   0  0  0  0  0  0  0  0  0  0  0  0
   37.6310   22.1560   41.1930 H   0  0  0  0  0  0  0  0  0  0  0  0
   37.4670   21.6690   39.5290 H   0  0  0  0  0  0  0  0  0  0  0  0
   35.5230   22.7740   39.4390 H   0  0  0  0  0  0  0  0  0  0  0  0
   35.7380   23.3760   41.0850 H   0  0  0  0  0  0  0  0  0  0  0  0
   35.9670   25.3910   40.0900 H   0  0  0  0  0  0  0  0  0  0  0  0
   36.4290   24.6500   38.4640 H   0  0  0  0  0  0  0  0  0  0  0  0
   38.4840   25.5460   39.2540 H   0  0  0  0  0  0  0  0  0  0  0  0
   42.9000   21.9120   36.5650 N   0  0  0  0  0  0  0  0  0  0  0  0
   43.3820   22.6540   35.9800 H   0  0  0  0  0  0  0  0  0  0  0  0
   43.1740   20.9240   36.5940 H   0  0  0  0  0  0  0  0  0  0  0  0
  1  2  2  0  0  0  0
  2  6  1  0  0  0  0
  2  3  1  0  0  0  0
  3  4  1  0  0  0  0
  3  7  1  1  0  0  0
  4  5  1  0  0  0  0
  4  9  1  0  0  0  0
  5 10  1  0  0  0  0
  6  5  1  0  0  0  0
  8  4  1  0  0  0  0
 11  5  1  0  0  0  0
 13 12  1  0  0  0  0
 14 13  1  0  0  0  0
 14  6  1  0  0  0  0
 15 14  2  0  0  0  0
 16 15  1  0  0  0  0
 16 22  1  0  0  0  0
 17 16  2  0  0  0  0
 18 17  1  0  0  0  0
 18 19  2  0  0  0  0
 19 21  1  0  0  0  0
 20 19  1  0  0  0  0
 21 22  2  0  0  0  0
 22 13  1  0  0  0  0
 23 25  1  0  0  0  0
 23 17  1  0  0  0  0
 24 23  1  0  0  0  0
 26  3  1  0  0  0  0
 27 32  1  0  0  0  0
 28 27  2  0  0  0  0
 28 29  1  0  0  0  0
 29 30  2  0  0  0  0
 30 31  1  0  0  0  0
 31 33  1  0  0  0  0
 32 31  2  0  0  0  0
 33 37  1  0  0  0  0
 33 34  1  0  0  0  0
 34 40  1  0  0  0  0
 35 34  1  0  0  0  0
 35 43  1  0  0  0  0
 36 37  1  0  0  0  0
 36 35  1  0  0  0  0
 36 44  1  0  0  0  0
 37 46  1  6  0  0  0
 37 26  1  0  0  0  0
 38 27  1  0  0  0  0
 39 29  1  0  0  0  0
 41 34  1  0  0  0  0
 42 35  1  0  0  0  0
 45 36  1  0  0  0  0
 47 49  1  0  0  0  0
 47 28  1  0  0  0  0
 48 47  1  0  0  0  0
M  END
>  <minimizedAffinity>
-6.18185568

$$$$

 OpenBabel03252506393D

 49 53  0  0  1  0  0  0  0  0999 V2000
   39.8310   29.6730   39.0280 O   0  0  0  0  0  0  0  0  0  0  0  0
   39.4270   30.8340   39.2030 C   0  0  0  0  0  0  0  0  0  0  0  0
   39.8840   32.1240   39.7800 C   0  0  1  0  0  0  0  0  0  0  0  0
   38.6210   32.6410   40.4210 C   0  0  0  0  0  0  0  0  0  0  0  0
   37.7020   32.5070   39.2070 C   0  0  0  0  0  0  0  0  0  0  0  0
   38.1040   31.1840   38.7480 N   0  0  0  0  0  0  0  0  0  0  0  0
   39.9170   32.7470   38.8430 H   0  0  0  0  0  0  0  0  0  0  0  0
   38.3460   31.9310   41.2200 H   0  0  0  0  0  0  0  0  0  0  0  0
   38.6930   33.6770   40.7830 H   0  0  0  0  0  0  0  0  0  0  0  0
   38.0120   33.2400   38.4630 H   0  0  0  0  0  0  0  0  0  0  0  0
   36.6390   32.5490   39.4950 H   0  0  0  0  0  0  0  0  0  0  0  0
   38.5440   30.2470   36.1990 H   0  0  0  0  0  0  0  0  0  0  0  0
   37.6350   30.0460   36.6920 N   0  0  0  0  0  0  0  0  0  0  0  0
   37.2010   30.4010   37.9340 C   0  0  0  0  0  0  0  0  0  0  0  0
   35.9660   29.9210   38.1380 N   0  0  0  0  0  0  0  0  0  0  0  0
   35.6080   29.2490   37.0060 C   0  0  0  0  0  0  0  0  0  0  0  0
   34.5040   28.5590   36.6040 C   0  0  0  0  0  0  0  0  0  0  0  0
   34.4600   27.9950   35.3940 N   0  0  0  0  0  0  0  0  0  0  0  0
   35.4820   28.0710   34.5060 C   0  0  0  0  0  0  0  0  0  0  0  0
   35.4870   27.6320   33.5190 H   0  0  0  0  0  0  0  0  0  0  0  0
   36.5890   28.7450   34.8660 N   0  0  0  0  0  0  0  0  0  0  0  0
   36.6560   29.3200   36.0810 C   0  0  0  0  0  0  0  0  0  0  0  0
   33.4140   28.4590   37.5080 N   0  0  0  0  0  0  0  0  0  0  0  0
   33.6100   28.2870   38.5220 H   0  0  0  0  0  0  0  0  0  0  0  0
   32.3650   28.5190   37.4100 H   0  0  0  0  0  0  0  0  0  0  0  0
   41.2960   32.0860   40.8020 S   0  0  0  0  0  0  0  0  0  0  0  0
   38.7510   27.0880   43.0660 C   0  0  0  0  0  0  0  0  0  0  0  0
   37.5350   27.7580   43.3190 C   0  0  0  0  0  0  0  0  0  0  0  0
   37.4870   29.1090   43.2190 C   0  0  0  0  0  0  0  0  0  0  0  0
   38.6360   29.7370   42.8730 N   0  0  0  0  0  0  0  0  0  0  0  0
   39.7770   29.1050   42.6350 C   0  0  0  0  0  0  0  0  0  0  0  0
   39.8520   27.7780   42.7270 N   0  0  0  0  0  0  0  0  0  0  0  0
   40.9340   29.8830   42.2790 N   0  0  0  0  0  0  0  0  0  0  0  0
   42.1420   29.3390   41.7770 C   0  0  0  0  0  0  0  0  0  0  0  0
   43.2070   30.2090   42.4220 C   0  0  0  0  0  0  0  0  0  0  0  0
   42.4780   31.3280   43.0990 C   0  0  0  0  0  0  0  0  0  0  0  0
   41.1250   31.3090   42.3900 C   0  0  1  0  0  0  0  0  0  0  0  0
   38.7650   26.0130   43.1510 H   0  0  0  0  0  0  0  0  0  0  0  0
   36.5800   29.6280   43.4060 H   0  0  0  0  0  0  0  0  0  0  0  0
   42.3850   29.1940   40.7770 H   0  0  0  0  0  0  0  0  0  0  0  0
   42.2780   28.3340   42.2880 H   0  0  0  0  0  0  0  0  0  0  0  0
   43.8630   29.6780   43.1190 H   0  0  0  0  0  0  0  0  0  0  0  0
   43.8930   30.6350   41.6350 H   0  0  0  0  0  0  0  0  0  0  0  0
   43.0130   32.2680   42.9240 H   0  0  0  0  0  0  0  0  0  0  0  0
   42.3750   31.0750   44.1800 H   0  0  0  0  0  0  0  0  0  0  0  0
   40.4020   31.7990   43.0700 H   0  0  0  0  0  0  0  0  0  0  0  0
   36.4040   26.9420   43.6760 N   0  0  0  0  0  0  0  0  0  0  0  0
   35.6540   27.4250   44.2500 H   0  0  0  0  0  0  0  0  0  0  0  0
   36.3670   25.9630   43.3730 H   0  0  0  0  0  0  0  0  0  0  0  0
  1  2  2  0  0  0  0
  2  3  1  0  0  0  0
  3  7  1  6  0  0  0
  3  4  1  0  0  0  0
  3 26  1  0  0  0  0
  4  9  1  0  0  0  0
  4  8  1  0  0  0  0
  5 11  1  0  0  0  0
  5  4  1  0  0  0  0
  6  2  1  0  0  0  0
  6  5  1  0  0  0  0
 10  5  1  0  0  0  0
 12 13  1  0  0  0  0
 13 14  1  0  0  0  0
 14 15  2  0  0  0  0
 14  6  1  0  0  0  0
 16 15  1  0  0  0  0
 17 16  1  0  0  0  0
 17 23  1  0  0  0  0
 18 17  2  0  0  0  0
 19 21  2  0  0  0  0
 19 18  1  0  0  0  0
 20 19  1  0  0  0  0
 21 22  1  0  0  0  0
 22 13  1  0  0  0  0
 22 16  2  0  0  0  0
 23 24  1  0  0  0  0
 25 23  1  0  0  0  0
 26 37  1  0  0  0  0
 27 38  1  0  0  0  0
 27 28  1  0  0  0  0
 28 47  1  0  0  0  0
 29 28  2  0  0  0  0
 29 39  1  0  0  0  0
 30 29  1  0  0  0  0
 31 32  1  0  0  0  0
 31 30  2  0  0  0  0
 32 27  2  0  0  0  0
 33 37  1  0  0  0  0
 33 31  1  0  0  0  0
 34 33  1  0  0  0  0
 34 41  1  0  0  0  0
 34 35  1  0  0  0  0
 35 36  1  0  0  0  0
 35 42  1  0  0  0  0
 36 45  1  0  0  0  0
 37 46  1  1  0  0  0
 37 36  1  0  0  0  0
 40 34  1  0  0  0  0
 43 35  1  0  0  0  0
 44 36  1  0  0  0  0
 47 48  1  0  0  0  0
 49 47  1  0  0  0  0
M  END
>  <minimizedAffinity>
-6.12164736

$$$$

 OpenBabel03252506393D

 49 53  0  0  1  0  0  0  0  0999 V2000
   38.4290   29.3670   41.2540 O   0  0  0  0  0  0  0  0  0  0  0  0
   39.3650   28.6770   41.6900 C   0  0  0  0  0  0  0  0  0  0  0  0
   39.6350   27.2990   42.1730 C   0  0  1  0  0  0  0  0  0  0  0  0
   40.6020   27.5530   43.3030 C   0  0  0  0  0  0  0  0  0  0  0  0
   41.6000   28.4170   42.5330 C   0  0  0  0  0  0  0  0  0  0  0  0
   40.6680   29.2810   41.8210 N   0  0  0  0  0  0  0  0  0  0  0  0
   40.3380   26.9520   41.3660 H   0  0  0  0  0  0  0  0  0  0  0  0
   40.0630   28.1370   44.0690 H   0  0  0  0  0  0  0  0  0  0  0  0
   41.0610   26.6410   43.7130 H   0  0  0  0  0  0  0  0  0  0  0  0
   42.1090   27.7830   41.8060 H   0  0  0  0  0  0  0  0  0  0  0  0
   42.2610   28.9780   43.2120 H   0  0  0  0  0  0  0  0  0  0  0  0
   40.7080   30.1740   39.2190 H   0  0  0  0  0  0  0  0  0  0  0  0
   41.0380   30.7970   40.0020 N   0  0  0  0  0  0  0  0  0  0  0  0
   41.1080   30.5730   41.3440 C   0  0  0  0  0  0  0  0  0  0  0  0
   41.5970   31.6590   41.9610 N   0  0  0  0  0  0  0  0  0  0  0  0
   41.8420   32.5890   40.9930 C   0  0  0  0  0  0  0  0  0  0  0  0
   42.3290   33.8620   40.9820 C   0  0  0  0  0  0  0  0  0  0  0  0
   42.4510   34.5310   39.8320 N   0  0  0  0  0  0  0  0  0  0  0  0
   42.1090   34.0040   38.6310 C   0  0  0  0  0  0  0  0  0  0  0  0
   42.1920   34.5090   37.6790 H   0  0  0  0  0  0  0  0  0  0  0  0
   41.6250   32.7490   38.6010 N   0  0  0  0  0  0  0  0  0  0  0  0
   41.4930   32.0560   39.7470 C   0  0  0  0  0  0  0  0  0  0  0  0
   42.6980   34.4460   42.2220 N   0  0  0  0  0  0  0  0  0  0  0  0
   42.0860   34.2910   43.0570 H   0  0  0  0  0  0  0  0  0  0  0  0
   43.5010   35.0500   42.5440 H   0  0  0  0  0  0  0  0  0  0  0  0
   38.2570   26.3030   42.5590 S   0  0  0  0  0  0  0  0  0  0  0  0
   38.3700   26.4960   36.5150 C   0  0  0  0  0  0  0  0  0  0  0  0
   37.7580   27.7680   36.4910 C   0  0  0  0  0  0  0  0  0  0  0  0
   37.2250   28.2710   37.6320 C   0  0  0  0  0  0  0  0  0  0  0  0
   37.3200   27.5000   38.7420 N   0  0  0  0  0  0  0  0  0  0  0  0
   37.8960   26.3060   38.7610 C   0  0  0  0  0  0  0  0  0  0  0  0
   38.4270   25.7880   37.6550 N   0  0  0  0  0  0  0  0  0  0  0  0
   37.9320   25.5800   40.0030 N   0  0  0  0  0  0  0  0  0  0  0  0
   38.7060   24.4140   40.2260 C   0  0  0  0  0  0  0  0  0  0  0  0
   37.8060   23.5660   41.1090 C   0  0  0  0  0  0  0  0  0  0  0  0
   36.6450   24.4360   41.4800 C   0  0  0  0  0  0  0  0  0  0  0  0
   37.1930   25.8370   41.2150 C   0  0  1  0  0  0  0  0  0  0  0  0
   38.7870   26.1170   35.5960 H   0  0  0  0  0  0  0  0  0  0  0  0
   36.7620   29.2260   37.6310 H   0  0  0  0  0  0  0  0  0  0  0  0
   39.6750   24.3780   40.6010 H   0  0  0  0  0  0  0  0  0  0  0  0
   38.7220   23.8460   39.2440 H   0  0  0  0  0  0  0  0  0  0  0  0
   37.4750   22.6300   40.6490 H   0  0  0  0  0  0  0  0  0  0  0  0
   38.3540   23.2590   42.0450 H   0  0  0  0  0  0  0  0  0  0  0  0
   36.4060   24.2900   42.5390 H   0  0  0  0  0  0  0  0  0  0  0  0
   35.7960   24.1960   40.7990 H   0  0  0  0  0  0  0  0  0  0  0  0
   36.3190   26.4990   41.0660 H   0  0  0  0  0  0  0  0  0  0  0  0
   37.7400   28.4580   35.2280 N   0  0  0  0  0  0  0  0  0  0  0  0
   36.9610   29.1670   35.1040 H   0  0  0  0  0  0  0  0  0  0  0  0
   38.4550   28.2470   34.5230 H   0  0  0  0  0  0  0  0  0  0  0  0
  1  2  2  0  0  0  0
  2  6  1  0  0  0  0
  2  3  1  0  0  0  0
  3  7  1  6  0  0  0
  3 26  1  0  0  0  0
  3  4  1  0  0  0  0
  4  9  1  0  0  0  0
  4  8  1  0  0  0  0
  5 11  1  0  0  0  0
  5  4  1  0  0  0  0
  6  5  1  0  0  0  0
 10  5  1  0  0  0  0
 12 13  1  0  0  0  0
 13 14  1  0  0  0  0
 14  6  1  0  0  0  0
 14 15  2  0  0  0  0
 16 15  1  0  0  0  0
 17 16  1  0  0  0  0
 17 23  1  0  0  0  0
 18 17  2  0  0  0  0
 19 18  1  0  0  0  0
 20 19  1  0  0  0  0
 21 19  2  0  0  0  0
 21 22  1  0  0  0  0
 22 13  1  0  0  0  0
 22 16  2  0  0  0  0
 23 25  1  0  0  0  0
 23 24  1  0  0  0  0
 27 32  1  0  0  0  0
 28 27  2  0  0  0  0
 28 29  1  0  0  0  0
 29 30  2  0  0  0  0
 30 31  1  0  0  0  0
 31 33  1  0  0  0  0
 32 31  2  0  0  0  0
 33 34  1  0  0  0  0
 33 37  1  0  0  0  0
 34 40  1  0  0  0  0
 34 35  1  0  0  0  0
 35 36  1  0  0  0  0
 35 43  1  0  0  0  0
 36 44  1  0  0  0  0
 37 46  1  6  0  0  0
 37 36  1  0  0  0  0
 37 26  1  0  0  0  0
 38 27  1  0  0  0  0
 39 29  1  0  0  0  0
 41 34  1  0  0  0  0
 42 35  1  0  0  0  0
 45 36  1  0  0  0  0
 47 28  1  0  0  0  0
 48 47  1  0  0  0  0
 49 47  1  0  0  0  0
M  END
>  <minimizedAffinity>
-6.08396959

$$$$

 OpenBabel03252506393D

 49 53  0  0  1  0  0  0  0  0999 V2000
   40.5520   30.1150   40.7970 O   0  0  0  0  0  0  0  0  0  0  0  0
   39.6150   30.4310   40.0460 C   0  0  0  0  0  0  0  0  0  0  0  0
   38.1390   30.5970   40.0740 C   0  0  1  0  0  0  0  0  0  0  0  0
   37.7420   30.0680   38.7190 C   0  0  0  0  0  0  0  0  0  0  0  0
   38.6980   30.9130   37.8780 C   0  0  0  0  0  0  0  0  0  0  0  0
   39.9090   30.7710   38.6760 N   0  0  0  0  0  0  0  0  0  0  0  0
   38.0730   31.7060   39.8970 H   0  0  0  0  0  0  0  0  0  0  0  0
   38.0150   28.9990   38.6940 H   0  0  0  0  0  0  0  0  0  0  0  0
   36.6870   30.2410   38.4610 H   0  0  0  0  0  0  0  0  0  0  0  0
   38.3700   31.9510   37.9290 H   0  0  0  0  0  0  0  0  0  0  0  0
   38.8130   30.5060   36.8600 H   0  0  0  0  0  0  0  0  0  0  0  0
   41.8120   32.6350   39.3640 H   0  0  0  0  0  0  0  0  0  0  0  0
   41.9850   31.9620   38.5710 N   0  0  0  0  0  0  0  0  0  0  0  0
   41.2020   30.9710   38.0610 C   0  0  0  0  0  0  0  0  0  0  0  0
   41.8370   30.3680   37.0450 N   0  0  0  0  0  0  0  0  0  0  0  0
   43.0450   30.9870   36.9080 C   0  0  0  0  0  0  0  0  0  0  0  0
   44.1150   30.8370   36.0780 C   0  0  0  0  0  0  0  0  0  0  0  0
   45.1860   31.6260   36.2020 N   0  0  0  0  0  0  0  0  0  0  0  0
   45.2790   32.6030   37.1370 C   0  0  0  0  0  0  0  0  0  0  0  0
   46.1240   33.2630   37.2720 H   0  0  0  0  0  0  0  0  0  0  0  0
   44.2420   32.7820   37.9750 N   0  0  0  0  0  0  0  0  0  0  0  0
   43.1530   31.9990   37.8680 C   0  0  0  0  0  0  0  0  0  0  0  0
   44.0530   29.8230   35.0860 N   0  0  0  0  0  0  0  0  0  0  0  0
   43.6470   28.8920   35.3370 H   0  0  0  0  0  0  0  0  0  0  0  0
   44.3380   29.7630   34.0710 H   0  0  0  0  0  0  0  0  0  0  0  0
   37.2850   29.9210   41.4360 S   0  0  0  0  0  0  0  0  0  0  0  0
   41.0290   25.2300   40.6880 C   0  0  0  0  0  0  0  0  0  0  0  0
   40.6970   25.1150   39.3210 C   0  0  0  0  0  0  0  0  0  0  0  0
   39.6450   25.8150   38.8310 C   0  0  0  0  0  0  0  0  0  0  0  0
   38.9680   26.5950   39.7080 N   0  0  0  0  0  0  0  0  0  0  0  0
   39.2830   26.7020   40.9920 C   0  0  0  0  0  0  0  0  0  0  0  0
   40.3120   26.0250   41.4990 N   0  0  0  0  0  0  0  0  0  0  0  0
   38.4860   27.5610   41.8260 N   0  0  0  0  0  0  0  0  0  0  0  0
   38.8370   27.9490   43.1430 C   0  0  0  0  0  0  0  0  0  0  0  0
   37.5020   27.9620   43.8670 C   0  0  0  0  0  0  0  0  0  0  0  0
   36.4540   27.7640   42.8160 C   0  0  0  0  0  0  0  0  0  0  0  0
   37.2000   28.1500   41.5400 C   0  0  1  0  0  0  0  0  0  0  0  0
   41.8700   24.6640   41.0550 H   0  0  0  0  0  0  0  0  0  0  0  0
   39.3820   25.7390   37.8060 H   0  0  0  0  0  0  0  0  0  0  0  0
   39.3760   28.7960   43.4150 H   0  0  0  0  0  0  0  0  0  0  0  0
   39.3790   27.0650   43.6050 H   0  0  0  0  0  0  0  0  0  0  0  0
   37.4140   27.2190   44.6660 H   0  0  0  0  0  0  0  0  0  0  0  0
   37.3400   28.9580   44.3700 H   0  0  0  0  0  0  0  0  0  0  0  0
   35.6120   28.4370   43.0100 H   0  0  0  0  0  0  0  0  0  0  0  0
   36.1660   26.6880   42.8080 H   0  0  0  0  0  0  0  0  0  0  0  0
   36.6690   27.6620   40.6990 H   0  0  0  0  0  0  0  0  0  0  0  0
   41.5180   24.2420   38.5240 N   0  0  0  0  0  0  0  0  0  0  0  0
   41.0520   23.8380   37.6610 H   0  0  0  0  0  0  0  0  0  0  0  0
   42.4840   24.0500   38.8090 H   0  0  0  0  0  0  0  0  0  0  0  0
  2  3  1  0  0  0  0
  2  1  2  0  0  0  0
  3  7  1  6  0  0  0
  3 26  1  0  0  0  0
  4  3  1  0  0  0  0
  5 10  1  0  0  0  0
  5  6  1  0  0  0  0
  5  4  1  0  0  0  0
  6  2  1  0  0  0  0
  8  4  1  0  0  0  0
  9  4  1  0  0  0  0
 11  5  1  0  0  0  0
 13 12  1  0  0  0  0
 14 13  1  0  0  0  0
 14  6  1  0  0  0  0
 15 14  2  0  0  0  0
 16 15  1  0  0  0  0
 16 22  1  0  0  0  0
 17 18  1  0  0  0  0
 17 16  2  0  0  0  0
 18 19  2  0  0  0  0
 19 20  1  0  0  0  0
 19 21  1  0  0  0  0
 22 21  2  0  0  0  0
 22 13  1  0  0  0  0
 23 24  1  0  0  0  0
 23 17  1  0  0  0  0
 25 23  1  0  0  0  0
 26 37  1  0  0  0  0
 27 38  1  0  0  0  0
 27 32  1  0  0  0  0
 28 27  2  0  0  0  0
 29 28  1  0  0  0  0
 29 30  2  0  0  0  0
 30 31  1  0  0  0  0
 31 32  2  0  0  0  0
 31 33  1  0  0  0  0
 33 34  1  0  0  0  0
 34 40  1  0  0  0  0
 34 41  1  0  0  0  0
 34 35  1  0  0  0  0
 35 43  1  0  0  0  0
 35 42  1  0  0  0  0
 36 44  1  0  0  0  0
 36 35  1  0  0  0  0
 37 46  1  6  0  0  0
 37 33  1  0  0  0  0
 37 36  1  0  0  0  0
 39 29  1  0  0  0  0
 45 36  1  0  0  0  0
 47 49  1  0  0  0  0
 47 28  1  0  0  0  0
 48 47  1  0  0  0  0
M  END
>  <minimizedAffinity>
-6.04419422

$$$$

 OpenBabel03252506393D

 49 53  0  0  1  0  0  0  0  0999 V2000
   39.4650   28.4340   39.3860 O   0  0  0  0  0  0  0  0  0  0  0  0
   38.9290   29.1810   40.2210 C   0  0  0  0  0  0  0  0  0  0  0  0
   39.2510   29.8940   41.4840 C   0  0  1  0  0  0  0  0  0  0  0  0
   37.9670   29.7410   42.2610 C   0  0  0  0  0  0  0  0  0  0  0  0
   37.0120   30.2610   41.1870 C   0  0  0  0  0  0  0  0  0  0  0  0
   37.5520   29.5620   40.0280 N   0  0  0  0  0  0  0  0  0  0  0  0
   39.1590   30.9570   41.1270 H   0  0  0  0  0  0  0  0  0  0  0  0
   37.8240   28.6630   42.4460 H   0  0  0  0  0  0  0  0  0  0  0  0
   37.9290   30.3380   43.1840 H   0  0  0  0  0  0  0  0  0  0  0  0
   37.1900   31.3290   41.0600 H   0  0  0  0  0  0  0  0  0  0  0  0
   35.9680   29.9800   41.4000 H   0  0  0  0  0  0  0  0  0  0  0  0
   37.9750   30.4470   37.4580 H   0  0  0  0  0  0  0  0  0  0  0  0
   37.1240   29.8710   37.6910 N   0  0  0  0  0  0  0  0  0  0  0  0
   36.7130   29.3320   38.8730 C   0  0  0  0  0  0  0  0  0  0  0  0
   35.5590   28.6730   38.6950 N   0  0  0  0  0  0  0  0  0  0  0  0
   35.2310   28.7950   37.3770 C   0  0  0  0  0  0  0  0  0  0  0  0
   34.2020   28.3590   36.5960 C   0  0  0  0  0  0  0  0  0  0  0  0
   34.1670   28.6550   35.2930 N   0  0  0  0  0  0  0  0  0  0  0  0
   35.1250   29.3890   34.6760 C   0  0  0  0  0  0  0  0  0  0  0  0
   35.1350   29.6510   33.6280 H   0  0  0  0  0  0  0  0  0  0  0  0
   36.1570   29.8380   35.4140 N   0  0  0  0  0  0  0  0  0  0  0  0
   36.2130   29.5520   36.7280 C   0  0  0  0  0  0  0  0  0  0  0  0
   33.1800   27.5880   37.2080 N   0  0  0  0  0  0  0  0  0  0  0  0
   33.4470   26.8580   37.9100 H   0  0  0  0  0  0  0  0  0  0  0  0
   32.1280   27.5590   37.1290 H   0  0  0  0  0  0  0  0  0  0  0  0
   40.7070   29.4210   42.3190 S   0  0  0  0  0  0  0  0  0  0  0  0
   42.9590   34.0670   39.1680 C   0  0  0  0  0  0  0  0  0  0  0  0
   42.5830   33.4830   37.9380 C   0  0  0  0  0  0  0  0  0  0  0  0
   42.1640   32.1950   37.9140 C   0  0  0  0  0  0  0  0  0  0  0  0
   42.1320   31.5410   39.1010 N   0  0  0  0  0  0  0  0  0  0  0  0
   42.4840   32.0910   40.2540 C   0  0  0  0  0  0  0  0  0  0  0  0
   42.9010   33.3560   40.3050 N   0  0  0  0  0  0  0  0  0  0  0  0
   42.4110   31.2930   41.4490 N   0  0  0  0  0  0  0  0  0  0  0  0
   42.5310   31.8070   42.7640 C   0  0  0  0  0  0  0  0  0  0  0  0
   43.3030   30.7190   43.4900 C   0  0  0  0  0  0  0  0  0  0  0  0
   43.3860   29.5620   42.5440 C   0  0  0  0  0  0  0  0  0  0  0  0
   42.2530   29.8640   41.5640 C   0  0  1  0  0  0  0  0  0  0  0  0
   43.2890   35.0930   39.1610 H   0  0  0  0  0  0  0  0  0  0  0  0
   41.8790   31.7410   36.9980 H   0  0  0  0  0  0  0  0  0  0  0  0
   41.7530   32.1320   43.3730 H   0  0  0  0  0  0  0  0  0  0  0  0
   43.2720   32.6640   42.7070 H   0  0  0  0  0  0  0  0  0  0  0  0
   44.2950   31.0250   43.8370 H   0  0  0  0  0  0  0  0  0  0  0  0
   42.7500   30.4000   44.4190 H   0  0  0  0  0  0  0  0  0  0  0  0
   43.2080   28.6310   43.0920 H   0  0  0  0  0  0  0  0  0  0  0  0
   44.3790   29.5940   42.0390 H   0  0  0  0  0  0  0  0  0  0  0  0
   42.4850   29.3170   40.6300 H   0  0  0  0  0  0  0  0  0  0  0  0
   42.6760   34.3160   36.7680 N   0  0  0  0  0  0  0  0  0  0  0  0
   42.8050   33.8020   35.8490 H   0  0  0  0  0  0  0  0  0  0  0  0
   42.6160   35.3350   36.8620 H   0  0  0  0  0  0  0  0  0  0  0  0
  1  2  2  0  0  0  0
  2  3  1  0  0  0  0
  3  7  1  6  0  0  0
  3  4  1  0  0  0  0
  3 26  1  0  0  0  0
  4  8  1  0  0  0  0
  4  9  1  0  0  0  0
  5 11  1  0  0  0  0
  5  4  1  0  0  0  0
  6  2  1  0  0  0  0
  6  5  1  0  0  0  0
 10  5  1  0  0  0  0
 12 13  1  0  0  0  0
 13 14  1  0  0  0  0
 14  6  1  0  0  0  0
 15 14  2  0  0  0  0
 16 15  1  0  0  0  0
 17 23  1  0  0  0  0
 17 16  2  0  0  0  0
 18 17  1  0  0  0  0
 19 18  2  0  0  0  0
 19 21  1  0  0  0  0
 20 19  1  0  0  0  0
 21 22  2  0  0  0  0
 22 16  1  0  0  0  0
 22 13  1  0  0  0  0
 23 24  1  0  0  0  0
 25 23  1  0  0  0  0
 27 32  1  0  0  0  0
 28 27  2  0  0  0  0
 29 28  1  0  0  0  0
 29 30  2  0  0  0  0
 30 31  1  0  0  0  0
 31 32  2  0  0  0  0
 31 33  1  0  0  0  0
 33 37  1  0  0  0  0
 33 34  1  0  0  0  0
 34 40  1  0  0  0  0
 34 35  1  0  0  0  0
 35 42  1  0  0  0  0
 35 43  1  0  0  0  0
 36 44  1  0  0  0  0
 36 35  1  0  0  0  0
 37 46  1  6  0  0  0
 37 26  1  0  0  0  0
 37 36  1  0  0  0  0
 38 27  1  0  0  0  0
 39 29  1  0  0  0  0
 41 34  1  0  0  0  0
 45 36  1  0  0  0  0
 47 49  1  0  0  0  0
 47 28  1  0  0  0  0
 48 47  1  0  0  0  0
M  END
>  <minimizedAffinity>
-5.92768526

$$$$
