
 OpenBabel03252500253D

 42 45  0  0  1  0  0  0  0  0999 V2000
   47.6260   29.9470   47.8910 C   0  0  2  0  0  0  0  0  0  0  0  0
   46.1630   29.8790   47.6790 C   0  0  2  0  0  0  0  0  0  0  0  0
   46.0330   29.1370   46.4010 C   0  0  0  0  0  0  0  0  0  0  0  0
   47.1180   28.2830   46.3000 O   0  0  0  0  0  0  0  0  0  0  0  0
   48.0070   28.5830   47.2820 C   0  0  0  0  0  0  0  0  0  0  0  0
   48.2930   30.6030   47.4220 H   0  0  0  0  0  0  0  0  0  0  0  0
   45.7540   29.3610   48.5870 H   0  0  0  0  0  0  0  0  0  0  0  0
   45.1680   28.4240   46.5760 H   0  0  0  0  0  0  0  0  0  0  0  0
   45.7430   29.6860   45.5270 H   0  0  0  0  0  0  0  0  0  0  0  0
   47.8650   27.8360   48.1080 H   0  0  0  0  0  0  0  0  0  0  0  0
   49.0480   28.5300   46.9710 H   0  0  0  0  0  0  0  0  0  0  0  0
   45.5360   31.1030   47.6400 O   0  0  0  0  0  0  0  0  0  0  0  0
   47.4590   32.8180   47.6300 O   0  0  0  0  0  0  0  0  0  0  0  0
   46.4320   32.1740   46.7370 P   0  0  1  0  0  0  0  0  0  0  0  0
   47.2350   31.3260   45.5110 O   0  0  0  0  0  0  0  0  0  0  0  0
   46.8200   31.4400   44.6370 H   0  0  0  0  0  0  0  0  0  0  0  0
   45.4670   33.4220   46.0690 O   0  0  0  0  0  0  0  0  0  0  0  0
   45.1820   35.6500   43.3060 C   0  0  0  0  0  0  0  0  0  0  0  0
   46.3260   35.3740   42.5090 C   0  0  0  0  0  0  0  0  0  0  0  0
   47.1910   34.3770   42.9870 C   0  0  0  0  0  0  0  0  0  0  0  0
   46.8900   33.7570   44.1460 N   0  0  0  0  0  0  0  0  0  0  0  0
   45.7860   34.0570   44.8700 C   0  0  0  0  0  0  0  0  0  0  0  0
   44.9490   34.9980   44.4410 N   0  0  0  0  0  0  0  0  0  0  0  0
   46.5590   35.8660   41.5940 H   0  0  0  0  0  0  0  0  0  0  0  0
   48.0800   34.1000   42.4510 H   0  0  0  0  0  0  0  0  0  0  0  0
   44.3260   36.6310   42.8430 O   0  0  0  0  0  0  0  0  0  0  0  0
   44.6810   37.5740   42.7290 H   0  0  0  0  0  0  0  0  0  0  0  0
   47.9670   30.0290   49.2320 O   0  0  0  0  0  0  0  0  0  0  0  0
   49.1890   32.3990   48.5740 H   0  0  0  0  0  0  0  0  0  0  0  0
   49.5120   31.7770   49.3490 N   0  0  0  0  0  0  0  0  0  0  0  0
   49.0540   30.5880   49.8230 C   0  0  0  0  0  0  0  0  0  0  0  0
   49.8550   30.2250   50.8460 N   0  0  0  0  0  0  0  0  0  0  0  0
   50.8080   31.1260   51.0520 C   0  0  0  0  0  0  0  0  0  0  0  0
   51.8380   31.1870   51.9680 C   0  0  0  0  0  0  0  0  0  0  0  0
   52.6660   32.2630   51.9250 N   0  0  0  0  0  0  0  0  0  0  0  0
   52.4620   33.2340   50.9970 C   0  0  0  0  0  0  0  0  0  0  0  0
   53.1430   34.0750   50.9950 H   0  0  0  0  0  0  0  0  0  0  0  0
   51.4490   33.1510   50.1140 N   0  0  0  0  0  0  0  0  0  0  0  0
   50.5890   32.1060   50.1040 C   0  0  0  0  0  0  0  0  0  0  0  0
   52.0070   30.1400   52.9220 N   0  0  0  0  0  0  0  0  0  0  0  0
   51.5540   29.8890   53.8490 H   0  0  0  0  0  0  0  0  0  0  0  0
   52.7580   29.4350   52.6630 H   0  0  0  0  0  0  0  0  0  0  0  0
  1  6  1  6  0  0  0
  1 28  1  0  0  0  0
  2  1  1  0  0  0  0
  2  7  1  1  0  0  0
  3  8  1  0  0  0  0
  3  2  1  0  0  0  0
  4  3  1  0  0  0  0
  4  5  1  0  0  0  0
  5  1  1  0  0  0  0
  5 10  1  0  0  0  0
  9  3  1  0  0  0  0
 11  5  1  0  0  0  0
 12  2  1  0  0  0  0
 14 13  2  1  0  0  0
 14 12  1  0  0  0  0
 15 14  1  0  0  0  0
 16 15  1  0  0  0  0
 17 14  1  0  0  0  0
 18 23  1  0  0  0  0
 19 20  1  0  0  0  0
 19 18  2  0  0  0  0
 20 21  2  0  0  0  0
 21 22  1  0  0  0  0
 22 17  1  0  0  0  0
 23 22  2  0  0  0  0
 24 19  1  0  0  0  0
 25 20  1  0  0  0  0
 26 18  1  0  0  0  0
 27 26  1  0  0  0  0
 28 31  1  0  0  0  0
 29 30  1  0  0  0  0
 30 31  1  0  0  0  0
 30 39  1  0  0  0  0
 31 32  2  0  0  0  0
 32 33  1  0  0  0  0
 33 34  1  0  0  0  0
 34 40  1  0  0  0  0
 35 34  2  0  0  0  0
 36 35  1  0  0  0  0
 37 36  1  0  0  0  0
 38 36  2  0  0  0  0
 39 38  1  0  0  0  0
 39 33  2  0  0  0  0
 40 41  1  0  0  0  0
 42 40  1  0  0  0  0
M  END
>  <minimizedAffinity>
-6.04055929

>  <minimizedRMSD>
0.887657464

$$$$
