
     RDKit          3D

 50 55  0  0  0  0  0  0  0  0999 V2000
   44.1707   34.8647   42.5864 C   0  0  0  0  0  0  0  0  0  0  0  0
   43.4075   34.1044   41.7224 C   0  0  0  0  0  0  0  0  0  0  0  0
   43.4914   32.7146   41.8467 C   0  0  0  0  0  0  0  0  0  0  0  0
   44.2997   32.1721   42.7885 N   0  0  0  0  0  0  0  0  0  0  0  0
   45.0370   32.9544   43.6223 C   0  0  0  0  0  0  0  0  0  0  0  0
   44.9644   34.2833   43.5122 N   0  0  0  0  0  0  0  0  0  0  0  0
   42.6085   34.7934   40.7897 N   0  0  0  0  0  0  0  0  0  0  0  0
   42.8290   34.5458   39.4002 C   0  0  0  0  0  0  0  0  0  0  0  0
   41.9953   35.3714   38.4925 C   0  0  0  0  0  0  0  0  0  0  0  0
   40.6185   35.4039   38.8692 N   0  0  0  0  0  0  0  0  0  0  0  0
   40.3213   35.4441   40.2454 C   0  0  0  0  0  0  0  0  0  0  0  0
   41.5693   35.7418   41.0720 C   0  0  0  0  0  0  0  0  0  0  0  0
   46.3713   31.0469   44.4201 C   0  0  0  0  0  0  0  0  0  0  0  0
   45.8831   32.2888   44.6146 C   0  0  0  0  0  0  0  0  0  0  0  0
   46.1972   32.9457   45.8012 C   0  0  0  0  0  0  0  0  0  0  0  0
   46.9879   32.3354   46.7489 C   0  0  0  0  0  0  0  0  0  0  0  0
   47.4823   31.0448   46.5230 C   0  0  0  0  0  0  0  0  0  0  0  0
   47.1693   30.3856   45.3359 C   0  0  0  0  0  0  0  0  0  0  0  0
   48.2385   30.6885   47.6360 O   0  0  0  0  0  0  0  0  0  0  0  0
   47.8919   31.5887   48.6900 C   0  0  1  0  0  0  0  0  0  0  0  0
   47.4609   32.7329   48.0018 O   0  0  0  0  0  0  0  0  0  0  0  0
   44.2229   35.9505   42.6249 H   0  0  0  0  0  0  0  0  0  0  0  0
   42.8870   32.1307   41.1621 H   0  0  0  0  0  0  0  0  0  0  0  0
   42.5533   33.4670   39.2167 H   0  0  0  0  0  0  0  0  0  0  0  0
   43.8965   34.6424   39.1852 H   0  0  0  0  0  0  0  0  0  0  0  0
   42.3814   36.3933   38.4368 H   0  0  0  0  0  0  0  0  0  0  0  0
   42.0293   34.8983   37.4698 H   0  0  0  0  0  0  0  0  0  0  0  0
   40.1642   36.2402   38.4022 H   0  0  0  0  0  0  0  0  0  0  0  0
   39.5911   36.2372   40.5390 H   0  0  0  0  0  0  0  0  0  0  0  0
   39.9139   34.4845   40.6476 H   0  0  0  0  0  0  0  0  0  0  0  0
   41.3002   35.6591   42.1450 H   0  0  0  0  0  0  0  0  0  0  0  0
   41.9345   36.7706   40.9227 H   0  0  0  0  0  0  0  0  0  0  0  0
   46.1615   30.4861   43.5170 H   0  0  0  0  0  0  0  0  0  0  0  0
   45.8421   33.9486   46.0319 H   0  0  0  0  0  0  0  0  0  0  0  0
   47.5461   29.3959   45.1578 H   0  0  0  0  0  0  0  0  0  0  0  0
   48.6947   31.7452   49.4159 H   0  0  0  0  0  0  0  0  0  0  0  0
   46.6899   31.0260   49.3215 N   0  0  0  0  0  0  0  0  0  0  0  0
   46.5955   30.2259   50.4236 C   0  0  0  0  0  0  0  0  0  0  0  0
   47.4826   29.9039   50.9841 H   0  0  0  0  0  0  0  0  0  0  0  0
   45.3000   29.9439   50.6523 N   0  0  0  0  0  0  0  0  0  0  0  0
   44.5444   30.5482   49.7152 C   0  0  0  0  0  0  0  0  0  0  0  0
   43.1711   30.5159   49.5864 C   0  0  0  0  0  0  0  0  0  0  0  0
   42.3679   29.7733   50.5187 N   0  0  0  0  0  0  0  0  0  0  0  0
   42.5330   28.7539   50.3680 H   0  0  0  0  0  0  0  0  0  0  0  0
   42.6712   31.2169   48.5471 N   0  0  0  0  0  0  0  0  0  0  0  0
   43.5016   31.8900   47.7150 C   0  0  0  0  0  0  0  0  0  0  0  0
   43.0331   32.4330   46.8998 H   0  0  0  0  0  0  0  0  0  0  0  0
   44.8549   31.9038   47.8671 N   0  0  0  0  0  0  0  0  0  0  0  0
   45.4159   31.2231   48.8859 C   0  0  0  0  0  0  0  0  0  0  0  0
   41.7438   30.2825   51.2050 H   0  0  0  0  0  0  0  0  0  0  0  0
  1  6  2  0
  2  3  2  0
  2  1  1  0
  3  4  1  0
  4  5  2  0
  5 14  1  0
  6  5  1  0
  7 12  1  0
  7  2  1  0
  8  7  1  0
  9 10  1  0
  9  8  1  0
 10 11  1  0
 11 12  1  0
 13 14  2  0
 13 18  1  0
 14 15  1  0
 15 16  2  0
 16 21  1  0
 17 16  1  0
 17 19  1  0
 18 17  2  0
 19 20  1  0
 21 20  1  0
  1 22  1  0
  3 23  1  0
  8 24  1  0
  8 25  1  0
  9 26  1  0
  9 27  1  0
 10 28  1  0
 11 29  1  0
 11 30  1  0
 12 31  1  0
 12 32  1  0
 13 33  1  0
 15 34  1  0
 18 35  1  0
 20 36  1  1
 37 38  1  0
 38 39  1  0
 38 40  2  0
 40 41  1  0
 41 42  2  0
 42 43  1  0
 43 44  1  0
 42 45  1  0
 45 46  2  0
 46 47  1  0
 46 48  1  0
 48 49  2  0
 49 37  1  0
 49 41  1  0
 43 50  1  0
 20 37  1  0
M  ISO  8  22  14  23  14  24  13  25  13  26  13  27  13  28   5  29  13
M  ISO  8  30  13  31  13  32  13  33  14  34  14  35  14  36  13  39  15
M  ISO  2  44   5  47  16
M  END
>  <DihAtoms>  (1) 
18,19,36,37

>  <DihDeg>  (1) 
-114.56341731743211

$$$$
