
 OpenBabel03242518253D

 50 55  0  0  1  0  0  0  0  0999 V2000
   45.8690   30.0290   41.2130 C   0  0  0  0  0  0  0  0  0  0  0  0
   45.3220   31.1290   41.7680 C   0  0  0  0  0  0  0  0  0  0  0  0
   45.9060   31.6520   42.9180 C   0  0  0  0  0  0  0  0  0  0  0  0
   47.0160   31.0540   43.4700 C   0  0  0  0  0  0  0  0  0  0  0  0
   47.5660   29.9120   42.8760 C   0  0  0  0  0  0  0  0  0  0  0  0
   46.9830   29.3870   41.7240 C   0  0  0  0  0  0  0  0  0  0  0  0
   48.6650   29.5330   43.6410 O   0  0  0  0  0  0  0  0  0  0  0  0
   48.5560   30.2000   44.9000 C   0  0  1  0  0  0  0  0  0  0  0  0
   47.8020   31.3420   44.5900 O   0  0  0  0  0  0  0  0  0  0  0  0
   45.4590   29.5760   40.3180 H   0  0  0  0  0  0  0  0  0  0  0  0
   45.5230   32.5370   43.4240 H   0  0  0  0  0  0  0  0  0  0  0  0
   47.4010   28.5110   41.2640 H   0  0  0  0  0  0  0  0  0  0  0  0
   49.5190   30.3840   45.3840 H   0  0  0  0  0  0  0  0  0  0  0  0
   47.6820   29.3570   45.7290 N   0  0  0  0  0  0  0  0  0  0  0  0
   47.5130   28.0030   45.6940 C   0  0  0  0  0  0  0  0  0  0  0  0
   48.0610   27.3680   44.9850 H   0  0  0  0  0  0  0  0  0  0  0  0
   46.6150   27.6480   46.6300 N   0  0  0  0  0  0  0  0  0  0  0  0
   46.1920   28.7510   47.2770 C   0  0  0  0  0  0  0  0  0  0  0  0
   45.2750   28.8290   48.3050 C   0  0  0  0  0  0  0  0  0  0  0  0
   45.0350   30.0720   48.7730 N   0  0  0  0  0  0  0  0  0  0  0  0
   45.6770   31.1390   48.2380 C   0  0  0  0  0  0  0  0  0  0  0  0
   45.4360   32.1090   48.6610 H   0  0  0  0  0  0  0  0  0  0  0  0
   46.5780   31.0310   47.2230 N   0  0  0  0  0  0  0  0  0  0  0  0
   46.8610   29.8170   46.7120 C   0  0  0  0  0  0  0  0  0  0  0  0
   44.6420   27.6420   48.8110 N   0  0  0  0  0  0  0  0  0  0  0  0
   43.9890   27.2740   48.0850 H   0  0  0  0  0  0  0  0  0  0  0  0
   44.8770   27.2860   49.7790 H   0  0  0  0  0  0  0  0  0  0  0  0
   42.6100   33.5440   41.0590 C   0  0  0  0  0  0  0  0  0  0  0  0
   41.8950   32.9050   40.0640 C   0  0  0  0  0  0  0  0  0  0  0  0
   42.3550   31.6520   39.6490 C   0  0  0  0  0  0  0  0  0  0  0  0
   43.4610   31.1180   40.2200 N   0  0  0  0  0  0  0  0  0  0  0  0
   44.1390   31.7770   41.1980 C   0  0  0  0  0  0  0  0  0  0  0  0
   43.7080   32.9750   41.6040 N   0  0  0  0  0  0  0  0  0  0  0  0
   42.3920   34.5150   41.4960 H   0  0  0  0  0  0  0  0  0  0  0  0
   41.7850   31.1640   38.8670 H   0  0  0  0  0  0  0  0  0  0  0  0
   40.7640   33.5690   39.5550 N   0  0  0  0  0  0  0  0  0  0  0  0
   40.6350   33.6900   38.1370 C   0  0  0  0  0  0  0  0  0  0  0  0
   39.4530   34.4700   37.6940 C   0  0  0  0  0  0  0  0  0  0  0  0
   38.2480   34.0920   38.3620 N   0  0  0  0  0  0  0  0  0  0  0  0
   38.3380   33.7600   39.7270 C   0  0  0  0  0  0  0  0  0  0  0  0
   39.6930   34.1590   40.3060 C   0  0  0  0  0  0  0  0  0  0  0  0
   40.5120   32.6430   37.7340 H   0  0  0  0  0  0  0  0  0  0  0  0
   41.5690   34.0820   37.7240 H   0  0  0  0  0  0  0  0  0  0  0  0
   39.6240   35.5410   37.8340 H   0  0  0  0  0  0  0  0  0  0  0  0
   39.2870   34.2520   36.6010 H   0  0  0  0  0  0  0  0  0  0  0  0
   37.5450   34.8760   38.2510 H   0  0  0  0  0  0  0  0  0  0  0  0
   37.5900   34.2730   40.3790 H   0  0  0  0  0  0  0  0  0  0  0  0
   38.2310   32.6670   39.9350 H   0  0  0  0  0  0  0  0  0  0  0  0
   39.7470   33.7840   41.3480 H   0  0  0  0  0  0  0  0  0  0  0  0
   39.8170   35.2530   40.3640 H   0  0  0  0  0  0  0  0  0  0  0  0
  1  6  2  0  0  0  0
  1  2  1  0  0  0  0
  2  3  2  0  0  0  0
  3 11  1  0  0  0  0
  3  4  1  0  0  0  0
  4  9  1  0  0  0  0
  5  4  2  0  0  0  0
  5  7  1  0  0  0  0
  6  5  1  0  0  0  0
  7  8  1  0  0  0  0
  8 13  1  1  0  0  0
  8 14  1  0  0  0  0
  9  8  1  0  0  0  0
 10  1  1  0  0  0  0
 12  6  1  0  0  0  0
 14 24  1  0  0  0  0
 15 14  1  0  0  0  0
 15 17  2  0  0  0  0
 16 15  1  0  0  0  0
 17 18  1  0  0  0  0
 18 19  1  0  0  0  0
 19 20  2  0  0  0  0
 19 25  1  0  0  0  0
 21 22  1  0  0  0  0
 21 20  1  0  0  0  0
 23 21  2  0  0  0  0
 24 23  1  0  0  0  0
 24 18  2  0  0  0  0
 25 27  1  0  0  0  0
 26 25  1  0  0  0  0
 28 34  1  0  0  0  0
 28 33  1  0  0  0  0
 29 28  2  0  0  0  0
 30 29  1  0  0  0  0
 30 31  2  0  0  0  0
 31 32  1  0  0  0  0
 32 33  2  0  0  0  0
 32  2  1  0  0  0  0
 35 30  1  0  0  0  0
 36 29  1  0  0  0  0
 36 41  1  0  0  0  0
 37 36  1  0  0  0  0
 38 44  1  0  0  0  0
 38 37  1  0  0  0  0
 38 39  1  0  0  0  0
 39 40  1  0  0  0  0
 40 48  1  0  0  0  0
 40 41  1  0  0  0  0
 40 47  1  0  0  0  0
 41 50  1  0  0  0  0
 41 49  1  0  0  0  0
 42 37  1  0  0  0  0
 43 37  1  0  0  0  0
 45 38  1  0  0  0  0
 46 39  1  0  0  0  0
M  END
>  <minimizedAffinity>
-4.53756475

>  <minimizedRMSD>
3.31425118

$$$$
