REMARK  Name = 
REMARK  4 active torsions:
REMARK  status: ('A' for Active; 'I' for Inactive)
REMARK    1  A    between atoms: C_2  and  N_7
REMARK    2  A    between atoms: C_5  and  C_14
REMARK    3  A    between atoms: C_20  and  N_37
REMARK    4  A    between atoms: C_42  and  N_43
REMARK                            x       y       z     vdW  Elec       q    Type
REMARK                         _______ _______ _______ _____ _____    ______ ____
ROOT
ATOM      1  C   UNL     1      46.371  31.047  44.420  0.00  0.00    +0.000 A 
ATOM      2  C   UNL     1      45.883  32.289  44.615  0.00  0.00    +0.000 A 
ATOM      3  C   UNL     1      46.197  32.946  45.801  0.00  0.00    +0.000 A 
ATOM      4  C   UNL     1      46.988  32.335  46.749  0.00  0.00    +0.000 A 
ATOM      5  C   UNL     1      47.482  31.045  46.523  0.00  0.00    +0.000 A 
ATOM      6  C   UNL     1      47.169  30.386  45.336  0.00  0.00    +0.000 A 
ATOM      7  O   UNL     1      48.239  30.689  47.636  0.00  0.00    +0.000 OA
ATOM      8  C   UNL     1      47.892  31.589  48.690  0.00  0.00    +0.000 C 
ATOM      9  O   UNL     1      47.461  32.733  48.002  0.00  0.00    +0.000 OA
ATOM     10  H   UNL     1      46.161  30.486  43.517  0.00  0.00    +0.000 HD
ATOM     11  H   UNL     1      45.842  33.949  46.032  0.00  0.00    +0.000 HD
ATOM     12  H   UNL     1      47.546  29.396  45.158  0.00  0.00    +0.000 HD
ATOM     13  H   UNL     1      48.695  31.745  49.416  0.00  0.00    +0.000 HD
ENDROOT
BRANCH   8  14
ATOM     14  N   UNL     1      46.690  31.026  49.322  0.00  0.00    +0.000 N 
ATOM     15  C   UNL     1      46.555  30.465  50.559  0.00  0.00    +0.000 A 
ATOM     16  H   UNL     1      47.402  30.376  51.251  0.00  0.00    +0.000 HD
ATOM     17  N   UNL     1      45.277  30.080  50.729  0.00  0.00    +0.000 NA
ATOM     18  C   UNL     1      44.573  30.382  49.621  0.00  0.00    +0.000 A 
ATOM     19  C   UNL     1      43.233  30.157  49.383  0.00  0.00    +0.000 A 
ATOM     20  N   UNL     1      42.783  30.562  48.177  0.00  0.00    +0.000 NA
ATOM     21  C   UNL     1      43.629  31.145  47.294  0.00  0.00    +0.000 A 
ATOM     22  H   UNL     1      43.202  31.447  46.343  0.00  0.00    +0.000 HD
ATOM     23  N   UNL     1      44.949  31.355  47.557  0.00  0.00    +0.000 NA
ATOM     24  C   UNL     1      45.459  30.972  48.744  0.00  0.00    +0.000 A 
BRANCH  19  25
ATOM     25  N   UNL     1      42.410  29.530  50.381  0.00  0.00    +0.000 N 
ATOM     26  H   UNL     1      42.692  28.529  50.470  0.00  0.00    +0.000 HD
ATOM     27  H   UNL     1      41.665  30.090  50.883  0.00  0.00    +0.000 HD
ENDBRANCH  19  25
ENDBRANCH   8  14
BRANCH   2  32
ATOM     28  C   UNL     1      44.171  34.865  42.586  0.00  0.00    +0.000 A 
ATOM     29  C   UNL     1      43.407  34.104  41.722  0.00  0.00    +0.000 A 
ATOM     30  C   UNL     1      43.491  32.715  41.847  0.00  0.00    +0.000 A 
ATOM     31  N   UNL     1      44.300  32.172  42.788  0.00  0.00    +0.000 NA
ATOM     32  C   UNL     1      45.037  32.954  43.622  0.00  0.00    +0.000 A 
ATOM     33  N   UNL     1      44.964  34.283  43.512  0.00  0.00    +0.000 NA
ATOM     34  H   UNL     1      44.223  35.950  42.625  0.00  0.00    +0.000 HD
ATOM     35  H   UNL     1      42.887  32.131  41.162  0.00  0.00    +0.000 HD
BRANCH  29  36
ATOM     36  N   UNL     1      42.608  34.793  40.790  0.00  0.00    +0.000 N 
ATOM     37  C   UNL     1      42.829  34.546  39.400  0.00  0.00    +0.000 C 
ATOM     38  C   UNL     1      41.995  35.371  38.492  0.00  0.00    +0.000 C 
ATOM     39  N   UNL     1      40.618  35.404  38.869  0.00  0.00    +0.000 NA
ATOM     40  C   UNL     1      40.321  35.444  40.245  0.00  0.00    +0.000 C 
ATOM     41  C   UNL     1      41.569  35.742  41.072  0.00  0.00    +0.000 C 
ATOM     42  H   UNL     1      42.553  33.467  39.217  0.00  0.00    +0.000 HD
ATOM     43  H   UNL     1      43.897  34.642  39.185  0.00  0.00    +0.000 HD
ATOM     44  H   UNL     1      42.381  36.393  38.437  0.00  0.00    +0.000 HD
ATOM     45  H   UNL     1      42.029  34.898  37.470  0.00  0.00    +0.000 HD
ATOM     46  H   UNL     1      40.164  36.240  38.402  0.00  0.00    +0.000 HD
ATOM     47  H   UNL     1      39.591  36.237  40.539  0.00  0.00    +0.000 HD
ATOM     48  H   UNL     1      39.914  34.484  40.648  0.00  0.00    +0.000 HD
ATOM     49  H   UNL     1      41.300  35.659  42.145  0.00  0.00    +0.000 HD
ATOM     50  H   UNL     1      41.934  36.771  40.923  0.00  0.00    +0.000 HD
ENDBRANCH  29  36
ENDBRANCH   2  32
TORSDOF 4
