
 OpenBabel03242518243D

 50 55  0  0  1  0  0  0  0  0999 V2000
   46.4500   29.8090   40.8880 C   0  0  0  0  0  0  0  0  0  0  0  0
   46.1790   30.8700   41.6750 C   0  0  0  0  0  0  0  0  0  0  0  0
   47.1060   31.2270   42.6500 C   0  0  0  0  0  0  0  0  0  0  0  0
   48.2710   30.5080   42.8010 C   0  0  0  0  0  0  0  0  0  0  0  0
   48.5300   29.4110   41.9720 C   0  0  0  0  0  0  0  0  0  0  0  0
   47.6030   29.0520   40.9950 C   0  0  0  0  0  0  0  0  0  0  0  0
   49.7630   28.8860   42.3490 O   0  0  0  0  0  0  0  0  0  0  0  0
   50.0710   29.4140   43.6400 C   0  0  1  0  0  0  0  0  0  0  0  0
   49.3620   30.6240   43.6670 O   0  0  0  0  0  0  0  0  0  0  0  0
   45.7670   29.4830   40.1120 H   0  0  0  0  0  0  0  0  0  0  0  0
   46.9590   32.0700   43.3230 H   0  0  0  0  0  0  0  0  0  0  0  0
   47.7970   28.2110   40.3560 H   0  0  0  0  0  0  0  0  0  0  0  0
   51.1440   29.4870   43.8410 H   0  0  0  0  0  0  0  0  0  0  0  0
   49.3960   28.5340   44.6060 N   0  0  0  0  0  0  0  0  0  0  0  0
   48.5190   27.5160   44.3710 C   0  0  0  0  0  0  0  0  0  0  0  0
   48.2110   27.2390   43.3540 H   0  0  0  0  0  0  0  0  0  0  0  0
   48.1460   26.9770   45.5460 N   0  0  0  0  0  0  0  0  0  0  0  0
   48.7690   27.6270   46.5480 C   0  0  0  0  0  0  0  0  0  0  0  0
   48.6660   27.3900   47.9030 C   0  0  0  0  0  0  0  0  0  0  0  0
   49.4060   28.1980   48.6900 N   0  0  0  0  0  0  0  0  0  0  0  0
   50.1820   29.1630   48.1400 C   0  0  0  0  0  0  0  0  0  0  0  0
   50.7510   29.7770   48.8300 H   0  0  0  0  0  0  0  0  0  0  0  0
   50.2640   29.3740   46.7970 N   0  0  0  0  0  0  0  0  0  0  0  0
   49.5480   28.6000   45.9570 C   0  0  0  0  0  0  0  0  0  0  0  0
   47.8150   26.3420   48.3970 N   0  0  0  0  0  0  0  0  0  0  0  0
   46.8200   26.6140   48.2410 H   0  0  0  0  0  0  0  0  0  0  0  0
   48.2390   25.4750   48.8330 H   0  0  0  0  0  0  0  0  0  0  0  0
   43.7540   33.6590   41.5060 C   0  0  0  0  0  0  0  0  0  0  0  0
   42.5640   33.0030   41.2570 C   0  0  0  0  0  0  0  0  0  0  0  0
   42.6100   31.6110   41.1480 C   0  0  0  0  0  0  0  0  0  0  0  0
   43.7910   30.9640   41.2870 N   0  0  0  0  0  0  0  0  0  0  0  0
   44.9440   31.6440   41.5340 C   0  0  0  0  0  0  0  0  0  0  0  0
   44.9120   32.9750   41.6400 N   0  0  0  0  0  0  0  0  0  0  0  0
   43.8960   34.7300   41.6190 H   0  0  0  0  0  0  0  0  0  0  0  0
   41.6680   31.1110   40.9520 H   0  0  0  0  0  0  0  0  0  0  0  0
   41.4060   33.7940   41.1340 N   0  0  0  0  0  0  0  0  0  0  0  0
   41.5330   35.0880   40.5410 C   0  0  0  0  0  0  0  0  0  0  0  0
   40.2770   35.8780   40.5220 C   0  0  0  0  0  0  0  0  0  0  0  0
   39.1500   35.1320   40.0630 N   0  0  0  0  0  0  0  0  0  0  0  0
   39.0650   33.7800   40.4470 C   0  0  0  0  0  0  0  0  0  0  0  0
   40.0740   33.4520   41.5440 C   0  0  0  0  0  0  0  0  0  0  0  0
   41.8370   34.9210   39.4670 H   0  0  0  0  0  0  0  0  0  0  0  0
   42.3540   35.6240   41.0240 H   0  0  0  0  0  0  0  0  0  0  0  0
   40.0640   36.2840   41.5150 H   0  0  0  0  0  0  0  0  0  0  0  0
   40.4140   36.7230   39.7890 H   0  0  0  0  0  0  0  0  0  0  0  0
   38.2690   35.6280   40.3800 H   0  0  0  0  0  0  0  0  0  0  0  0
   38.0760   33.4800   40.8730 H   0  0  0  0  0  0  0  0  0  0  0  0
   39.2760   33.0600   39.6180 H   0  0  0  0  0  0  0  0  0  0  0  0
   40.0350   32.3590   41.7330 H   0  0  0  0  0  0  0  0  0  0  0  0
   39.8260   33.9400   42.5000 H   0  0  0  0  0  0  0  0  0  0  0  0
  1  6  2  0  0  0  0
  1  2  1  0  0  0  0
  2  3  2  0  0  0  0
  3  4  1  0  0  0  0
  3 11  1  0  0  0  0
  4  9  1  0  0  0  0
  5  7  1  0  0  0  0
  5  4  2  0  0  0  0
  6  5  1  0  0  0  0
  7  8  1  0  0  0  0
  8  9  1  0  0  0  0
  8 13  1  1  0  0  0
  8 14  1  0  0  0  0
 10  1  1  0  0  0  0
 12  6  1  0  0  0  0
 14 24  1  0  0  0  0
 15 14  1  0  0  0  0
 15 17  2  0  0  0  0
 16 15  1  0  0  0  0
 17 18  1  0  0  0  0
 18 19  1  0  0  0  0
 19 25  1  0  0  0  0
 19 20  2  0  0  0  0
 21 20  1  0  0  0  0
 21 22  1  0  0  0  0
 23 21  2  0  0  0  0
 24 18  2  0  0  0  0
 24 23  1  0  0  0  0
 25 27  1  0  0  0  0
 26 25  1  0  0  0  0
 28 34  1  0  0  0  0
 28 33  1  0  0  0  0
 29 28  2  0  0  0  0
 30 29  1  0  0  0  0
 30 31  2  0  0  0  0
 31 32  1  0  0  0  0
 32 33  2  0  0  0  0
 32  2  1  0  0  0  0
 35 30  1  0  0  0  0
 36 29  1  0  0  0  0
 36 41  1  0  0  0  0
 37 43  1  0  0  0  0
 37 36  1  0  0  0  0
 38 37  1  0  0  0  0
 38 44  1  0  0  0  0
 39 46  1  0  0  0  0
 39 40  1  0  0  0  0
 39 38  1  0  0  0  0
 40 47  1  0  0  0  0
 40 41  1  0  0  0  0
 41 49  1  0  0  0  0
 41 50  1  0  0  0  0
 42 37  1  0  0  0  0
 45 38  1  0  0  0  0
 48 40  1  0  0  0  0
M  END
>  <minimizedAffinity>
-4.03786469

>  <minimizedRMSD>
4.61464071

$$$$
