
 OpenBabel03242518273D

 50 55  0  0  1  0  0  0  0  0999 V2000
   37.9290   32.0510   39.5870 C   0  0  0  0  0  0  0  0  0  0  0  0
   38.6530   31.1310   40.2550 C   0  0  0  0  0  0  0  0  0  0  0  0
   39.8220   31.5410   40.8900 C   0  0  0  0  0  0  0  0  0  0  0  0
   40.2230   32.8580   40.8320 C   0  0  0  0  0  0  0  0  0  0  0  0
   39.4530   33.7940   40.1310 C   0  0  0  0  0  0  0  0  0  0  0  0
   38.2830   33.3850   39.4950 C   0  0  0  0  0  0  0  0  0  0  0  0
   40.0930   35.0250   40.2430 O   0  0  0  0  0  0  0  0  0  0  0  0
   41.4310   34.7700   40.6740 C   0  0  1  0  0  0  0  0  0  0  0  0
   41.3180   33.5500   41.3560 O   0  0  0  0  0  0  0  0  0  0  0  0
   37.0110   31.7920   39.0730 H   0  0  0  0  0  0  0  0  0  0  0  0
   40.4600   30.8600   41.4500 H   0  0  0  0  0  0  0  0  0  0  0  0
   37.6890   34.1000   38.9560 H   0  0  0  0  0  0  0  0  0  0  0  0
   41.8740   35.5930   41.2420 H   0  0  0  0  0  0  0  0  0  0  0  0
   42.1990   34.4770   39.4540 N   0  0  0  0  0  0  0  0  0  0  0  0
   41.8270   34.6310   38.1500 C   0  0  0  0  0  0  0  0  0  0  0  0
   40.8400   35.0190   37.8700 H   0  0  0  0  0  0  0  0  0  0  0  0
   42.8400   34.2390   37.3560 N   0  0  0  0  0  0  0  0  0  0  0  0
   43.8690   33.8310   38.1220 C   0  0  0  0  0  0  0  0  0  0  0  0
   45.0950   33.3530   37.7050 C   0  0  0  0  0  0  0  0  0  0  0  0
   45.9490   33.0130   38.6940 N   0  0  0  0  0  0  0  0  0  0  0  0
   45.5810   33.1480   39.9900 C   0  0  0  0  0  0  0  0  0  0  0  0
   46.3160   32.8560   40.7350 H   0  0  0  0  0  0  0  0  0  0  0  0
   44.3630   33.6230   40.3720 N   0  0  0  0  0  0  0  0  0  0  0  0
   43.4660   33.9810   39.4320 C   0  0  0  0  0  0  0  0  0  0  0  0
   45.3990   33.2430   36.3050 N   0  0  0  0  0  0  0  0  0  0  0  0
   44.8190   32.4790   35.8940 H   0  0  0  0  0  0  0  0  0  0  0  0
   46.1130   33.8870   35.8650 H   0  0  0  0  0  0  0  0  0  0  0  0
   37.9750   27.6000   39.3880 C   0  0  0  0  0  0  0  0  0  0  0  0
   37.4460   27.1010   40.5620 C   0  0  0  0  0  0  0  0  0  0  0  0
   37.3300   27.9850   41.6380 C   0  0  0  0  0  0  0  0  0  0  0  0
   37.7310   29.2710   41.4990 N   0  0  0  0  0  0  0  0  0  0  0  0
   38.2470   29.7260   40.3260 C   0  0  0  0  0  0  0  0  0  0  0  0
   38.3620   28.8910   39.2900 N   0  0  0  0  0  0  0  0  0  0  0  0
   38.1330   27.0530   38.4610 H   0  0  0  0  0  0  0  0  0  0  0  0
   36.9140   27.5790   42.5540 H   0  0  0  0  0  0  0  0  0  0  0  0
   37.0670   25.7450   40.5750 N   0  0  0  0  0  0  0  0  0  0  0  0
   36.5150   25.1890   39.3800 C   0  0  0  0  0  0  0  0  0  0  0  0
   36.0750   23.7780   39.5090 C   0  0  0  0  0  0  0  0  0  0  0  0
   37.0420   22.9450   40.1500 N   0  0  0  0  0  0  0  0  0  0  0  0
   37.7740   23.5000   41.2170 C   0  0  0  0  0  0  0  0  0  0  0  0
   37.1700   24.8260   41.6720 C   0  0  0  0  0  0  0  0  0  0  0  0
   37.3350   25.2130   38.6050 H   0  0  0  0  0  0  0  0  0  0  0  0
   35.7150   25.8420   39.0180 H   0  0  0  0  0  0  0  0  0  0  0  0
   35.1270   23.7180   40.0510 H   0  0  0  0  0  0  0  0  0  0  0  0
   35.9440   23.3630   38.4700 H   0  0  0  0  0  0  0  0  0  0  0  0
   36.5520   22.0710   40.4970 H   0  0  0  0  0  0  0  0  0  0  0  0
   37.8010   22.8700   42.1390 H   0  0  0  0  0  0  0  0  0  0  0  0
   38.8400   23.7260   40.9650 H   0  0  0  0  0  0  0  0  0  0  0  0
   37.8410   25.2670   42.4380 H   0  0  0  0  0  0  0  0  0  0  0  0
   36.1900   24.6940   42.1590 H   0  0  0  0  0  0  0  0  0  0  0  0
  1  2  1  0  0  0  0
  2 32  1  0  0  0  0
  2  3  2  0  0  0  0
  3 11  1  0  0  0  0
  4  3  1  0  0  0  0
  4  9  1  0  0  0  0
  5  7  1  0  0  0  0
  5  4  2  0  0  0  0
  6  1  2  0  0  0  0
  6  5  1  0  0  0  0
  7  8  1  0  0  0  0
  8 13  1  1  0  0  0
  8  9  1  0  0  0  0
 10  1  1  0  0  0  0
 12  6  1  0  0  0  0
 14  8  1  0  0  0  0
 15 14  1  0  0  0  0
 16 15  1  0  0  0  0
 17 18  1  0  0  0  0
 17 15  2  0  0  0  0
 18 24  1  0  0  0  0
 19 18  2  0  0  0  0
 19 20  1  0  0  0  0
 20 21  2  0  0  0  0
 21 23  1  0  0  0  0
 21 22  1  0  0  0  0
 24 14  1  0  0  0  0
 24 23  2  0  0  0  0
 25 19  1  0  0  0  0
 26 25  1  0  0  0  0
 27 25  1  0  0  0  0
 28 29  1  0  0  0  0
 29 36  1  0  0  0  0
 29 30  2  0  0  0  0
 30 35  1  0  0  0  0
 31 30  1  0  0  0  0
 32 31  2  0  0  0  0
 33 28  2  0  0  0  0
 33 32  1  0  0  0  0
 34 28  1  0  0  0  0
 36 41  1  0  0  0  0
 37 38  1  0  0  0  0
 37 36  1  0  0  0  0
 38 44  1  0  0  0  0
 38 39  1  0  0  0  0
 39 46  1  0  0  0  0
 39 40  1  0  0  0  0
 40 41  1  0  0  0  0
 40 47  1  0  0  0  0
 41 50  1  0  0  0  0
 41 49  1  0  0  0  0
 42 37  1  0  0  0  0
 43 37  1  0  0  0  0
 45 38  1  0  0  0  0
 48 40  1  0  0  0  0
M  END
>  <minimizedAffinity>
-6.35554457

$$$$

 OpenBabel03242518273D

 50 55  0  0  1  0  0  0  0  0999 V2000
   37.0600   29.5820   35.9480 C   0  0  0  0  0  0  0  0  0  0  0  0
   36.8910   30.0440   37.2040 C   0  0  0  0  0  0  0  0  0  0  0  0
   35.7390   29.6790   37.8950 C   0  0  0  0  0  0  0  0  0  0  0  0
   34.7990   28.8650   37.3030 C   0  0  0  0  0  0  0  0  0  0  0  0
   34.9980   28.3980   35.9990 C   0  0  0  0  0  0  0  0  0  0  0  0
   36.1500   28.7620   35.3050 C   0  0  0  0  0  0  0  0  0  0  0  0
   33.9000   27.6090   35.6680 O   0  0  0  0  0  0  0  0  0  0  0  0
   32.8660   27.9050   36.6080 C   0  0  1  0  0  0  0  0  0  0  0  0
   33.5770   28.3430   37.7350 O   0  0  0  0  0  0  0  0  0  0  0  0
   37.9360   29.8310   35.3610 H   0  0  0  0  0  0  0  0  0  0  0  0
   35.5310   30.0110   38.9110 H   0  0  0  0  0  0  0  0  0  0  0  0
   36.3070   28.4070   34.3040 H   0  0  0  0  0  0  0  0  0  0  0  0
   32.1730   27.0750   36.7750 H   0  0  0  0  0  0  0  0  0  0  0  0
   32.1740   29.0930   36.0860 N   0  0  0  0  0  0  0  0  0  0  0  0
   32.2550   29.6550   34.8450 C   0  0  0  0  0  0  0  0  0  0  0  0
   32.8970   29.2370   34.0600 H   0  0  0  0  0  0  0  0  0  0  0  0
   31.4500   30.7330   34.7980 N   0  0  0  0  0  0  0  0  0  0  0  0
   30.8450   30.8840   35.9910 C   0  0  0  0  0  0  0  0  0  0  0  0
   29.9450   31.8620   36.3640 C   0  0  0  0  0  0  0  0  0  0  0  0
   29.4900   31.7750   37.6330 N   0  0  0  0  0  0  0  0  0  0  0  0
   29.9180   30.7790   38.4440 C   0  0  0  0  0  0  0  0  0  0  0  0
   29.5120   30.7680   39.4510 H   0  0  0  0  0  0  0  0  0  0  0  0
   30.8070   29.8270   38.0480 N   0  0  0  0  0  0  0  0  0  0  0  0
   31.2990   29.8580   36.7940 C   0  0  0  0  0  0  0  0  0  0  0  0
   29.5490   32.8830   35.4340 N   0  0  0  0  0  0  0  0  0  0  0  0
   30.3600   33.5170   35.2630 H   0  0  0  0  0  0  0  0  0  0  0  0
   28.5650   32.8940   35.0470 H   0  0  0  0  0  0  0  0  0  0  0  0
   40.0750   31.5890   38.2800 C   0  0  0  0  0  0  0  0  0  0  0  0
   39.6460   32.6020   39.1170 C   0  0  0  0  0  0  0  0  0  0  0  0
   38.2680   32.7410   39.3000 C   0  0  0  0  0  0  0  0  0  0  0  0
   37.4170   31.9000   38.6650 N   0  0  0  0  0  0  0  0  0  0  0  0
   37.8760   30.9140   37.8490 C   0  0  0  0  0  0  0  0  0  0  0  0
   39.1920   30.7710   37.6670 N   0  0  0  0  0  0  0  0  0  0  0  0
   41.1040   31.3430   38.0300 H   0  0  0  0  0  0  0  0  0  0  0  0
   37.9470   33.5400   39.9580 H   0  0  0  0  0  0  0  0  0  0  0  0
   40.6350   33.4060   39.7150 N   0  0  0  0  0  0  0  0  0  0  0  0
   40.2380   34.6620   40.2690 C   0  0  0  0  0  0  0  0  0  0  0  0
   41.3560   35.4730   40.8090 C   0  0  0  0  0  0  0  0  0  0  0  0
   42.2450   34.7240   41.6370 N   0  0  0  0  0  0  0  0  0  0  0  0
   42.5250   33.3970   41.2570 C   0  0  0  0  0  0  0  0  0  0  0  0
   42.0340   33.1120   39.8400 C   0  0  0  0  0  0  0  0  0  0  0  0
   39.5480   34.4300   41.1310 H   0  0  0  0  0  0  0  0  0  0  0  0
   39.6480   35.2090   39.5280 H   0  0  0  0  0  0  0  0  0  0  0  0
   41.9220   35.9380   39.9960 H   0  0  0  0  0  0  0  0  0  0  0  0
   40.9130   36.2730   41.4670 H   0  0  0  0  0  0  0  0  0  0  0  0
   43.1600   35.2530   41.7100 H   0  0  0  0  0  0  0  0  0  0  0  0
   43.6120   33.1400   41.2370 H   0  0  0  0  0  0  0  0  0  0  0  0
   42.0380   32.6280   41.9060 H   0  0  0  0  0  0  0  0  0  0  0  0
   42.1850   32.0320   39.6330 H   0  0  0  0  0  0  0  0  0  0  0  0
   42.6140   33.6570   39.0790 H   0  0  0  0  0  0  0  0  0  0  0  0
  1  2  1  0  0  0  0
  2 32  1  0  0  0  0
  2  3  2  0  0  0  0
  3 11  1  0  0  0  0
  4  9  1  0  0  0  0
  4  3  1  0  0  0  0
  5  4  2  0  0  0  0
  6  1  2  0  0  0  0
  6  5  1  0  0  0  0
  7  5  1  0  0  0  0
  7  8  1  0  0  0  0
  8 13  1  1  0  0  0
  8  9  1  0  0  0  0
 10  1  1  0  0  0  0
 12  6  1  0  0  0  0
 14  8  1  0  0  0  0
 14 24  1  0  0  0  0
 15 14  1  0  0  0  0
 16 15  1  0  0  0  0
 17 15  2  0  0  0  0
 17 18  1  0  0  0  0
 18 19  2  0  0  0  0
 18 24  1  0  0  0  0
 19 20  1  0  0  0  0
 20 21  2  0  0  0  0
 21 22  1  0  0  0  0
 23 21  1  0  0  0  0
 24 23  2  0  0  0  0
 25 19  1  0  0  0  0
 26 25  1  0  0  0  0
 27 25  1  0  0  0  0
 28 29  1  0  0  0  0
 29 30  2  0  0  0  0
 29 36  1  0  0  0  0
 30 35  1  0  0  0  0
 31 30  1  0  0  0  0
 32 31  2  0  0  0  0
 33 32  1  0  0  0  0
 33 28  2  0  0  0  0
 34 28  1  0  0  0  0
 36 41  1  0  0  0  0
 36 37  1  0  0  0  0
 37 38  1  0  0  0  0
 37 42  1  0  0  0  0
 38 45  1  0  0  0  0
 38 39  1  0  0  0  0
 39 46  1  0  0  0  0
 40 39  1  0  0  0  0
 40 48  1  0  0  0  0
 41 40  1  0  0  0  0
 43 37  1  0  0  0  0
 44 38  1  0  0  0  0
 47 40  1  0  0  0  0
 49 41  1  0  0  0  0
 50 41  1  0  0  0  0
M  END
>  <minimizedAffinity>
-6.35081625

$$$$

 OpenBabel03242518273D

 50 55  0  0  1  0  0  0  0  0999 V2000
   37.1420   29.5040   37.8820 C   0  0  0  0  0  0  0  0  0  0  0  0
   35.8540   29.3760   38.2620 C   0  0  0  0  0  0  0  0  0  0  0  0
   35.5530   29.4560   39.6190 C   0  0  0  0  0  0  0  0  0  0  0  0
   36.5520   29.6600   40.5450 C   0  0  0  0  0  0  0  0  0  0  0  0
   37.8810   29.7890   40.1250 C   0  0  0  0  0  0  0  0  0  0  0  0
   38.1840   29.7100   38.7670 C   0  0  0  0  0  0  0  0  0  0  0  0
   38.6590   29.9840   41.2630 O   0  0  0  0  0  0  0  0  0  0  0  0
   37.8710   29.5900   42.3880 C   0  0  1  0  0  0  0  0  0  0  0  0
   36.5560   29.7800   41.9370 O   0  0  0  0  0  0  0  0  0  0  0  0
   37.4380   29.4510   36.8410 H   0  0  0  0  0  0  0  0  0  0  0  0
   34.5390   29.3620   40.0040 H   0  0  0  0  0  0  0  0  0  0  0  0
   39.2030   29.8090   38.4400 H   0  0  0  0  0  0  0  0  0  0  0  0
   38.1370   30.1100   43.3130 H   0  0  0  0  0  0  0  0  0  0  0  0
   38.0440   28.1360   42.5130 N   0  0  0  0  0  0  0  0  0  0  0  0
   37.1380   27.1420   42.2800 C   0  0  0  0  0  0  0  0  0  0  0  0
   36.1140   27.3560   41.9520 H   0  0  0  0  0  0  0  0  0  0  0  0
   37.7210   25.9520   42.5190 N   0  0  0  0  0  0  0  0  0  0  0  0
   38.9950   26.1540   42.9040 C   0  0  0  0  0  0  0  0  0  0  0  0
   39.9360   25.2030   43.2420 C   0  0  0  0  0  0  0  0  0  0  0  0
   41.1470   25.6870   43.5940 N   0  0  0  0  0  0  0  0  0  0  0  0
   41.3720   27.0220   43.5990 C   0  0  0  0  0  0  0  0  0  0  0  0
   42.3680   27.3430   43.8920 H   0  0  0  0  0  0  0  0  0  0  0  0
   40.4230   27.9380   43.2600 N   0  0  0  0  0  0  0  0  0  0  0  0
   39.1940   27.5190   42.8990 C   0  0  0  0  0  0  0  0  0  0  0  0
   39.6060   23.8040   43.2090 N   0  0  0  0  0  0  0  0  0  0  0  0
   38.9350   23.5980   43.9810 H   0  0  0  0  0  0  0  0  0  0  0  0
   40.0340   23.1760   42.4730 H   0  0  0  0  0  0  0  0  0  0  0  0
   32.5300   28.8300   36.7350 C   0  0  0  0  0  0  0  0  0  0  0  0
   32.8320   28.7320   35.3910 C   0  0  0  0  0  0  0  0  0  0  0  0
   34.1750   28.8550   35.0260 C   0  0  0  0  0  0  0  0  0  0  0  0
   35.1150   29.0640   35.9790 N   0  0  0  0  0  0  0  0  0  0  0  0
   34.7790   29.1550   37.2940 C   0  0  0  0  0  0  0  0  0  0  0  0
   33.4980   29.0370   37.6540 N   0  0  0  0  0  0  0  0  0  0  0  0
   31.5440   28.7570   37.1880 H   0  0  0  0  0  0  0  0  0  0  0  0
   34.3980   28.7770   33.9680 H   0  0  0  0  0  0  0  0  0  0  0  0
   31.7620   28.5140   34.5030 N   0  0  0  0  0  0  0  0  0  0  0  0
   31.0760   29.6540   33.9810 C   0  0  0  0  0  0  0  0  0  0  0  0
   29.9170   29.3270   33.1160 C   0  0  0  0  0  0  0  0  0  0  0  0
   30.2070   28.3230   32.1430 N   0  0  0  0  0  0  0  0  0  0  0  0
   31.0500   27.2640   32.5320 C   0  0  0  0  0  0  0  0  0  0  0  0
   31.2590   27.2500   34.0440 C   0  0  0  0  0  0  0  0  0  0  0  0
   31.8200   30.2130   33.3430 H   0  0  0  0  0  0  0  0  0  0  0  0
   30.8040   30.3160   34.8080 H   0  0  0  0  0  0  0  0  0  0  0  0
   29.0620   29.0100   33.7200 H   0  0  0  0  0  0  0  0  0  0  0  0
   29.6470   30.2550   32.5370 H   0  0  0  0  0  0  0  0  0  0  0  0
   29.2910   27.9150   31.8000 H   0  0  0  0  0  0  0  0  0  0  0  0
   30.6580   26.2460   32.2910 H   0  0  0  0  0  0  0  0  0  0  0  0
   32.0740   27.3140   32.0870 H   0  0  0  0  0  0  0  0  0  0  0  0
   32.0070   26.4670   34.2820 H   0  0  0  0  0  0  0  0  0  0  0  0
   30.3410   26.9780   34.5910 H   0  0  0  0  0  0  0  0  0  0  0  0
  1  2  2  0  0  0  0
  1  6  1  0  0  0  0
  2  3  1  0  0  0  0
  3 11  1  0  0  0  0
  3  4  2  0  0  0  0
  4  9  1  0  0  0  0
  5  4  1  0  0  0  0
  5  7  1  0  0  0  0
  6  5  2  0  0  0  0
  7  8  1  0  0  0  0
  8 14  1  0  0  0  0
  8 13  1  1  0  0  0
  9  8  1  0  0  0  0
 10  1  1  0  0  0  0
 12  6  1  0  0  0  0
 14 24  1  0  0  0  0
 15 14  1  0  0  0  0
 15 17  2  0  0  0  0
 16 15  1  0  0  0  0
 17 18  1  0  0  0  0
 18 19  1  0  0  0  0
 19 20  2  0  0  0  0
 20 21  1  0  0  0  0
 21 22  1  0  0  0  0
 23 21  2  0  0  0  0
 24 18  2  0  0  0  0
 24 23  1  0  0  0  0
 25 19  1  0  0  0  0
 25 26  1  0  0  0  0
 27 25  1  0  0  0  0
 28 34  1  0  0  0  0
 28 33  1  0  0  0  0
 29 28  2  0  0  0  0
 30 29  1  0  0  0  0
 30 31  2  0  0  0  0
 31 32  1  0  0  0  0
 32 33  2  0  0  0  0
 32  2  1  0  0  0  0
 35 30  1  0  0  0  0
 36 29  1  0  0  0  0
 37 36  1  0  0  0  0
 37 43  1  0  0  0  0
 38 44  1  0  0  0  0
 38 37  1  0  0  0  0
 39 40  1  0  0  0  0
 39 38  1  0  0  0  0
 40 41  1  0  0  0  0
 41 49  1  0  0  0  0
 41 36  1  0  0  0  0
 41 50  1  0  0  0  0
 42 37  1  0  0  0  0
 45 38  1  0  0  0  0
 46 39  1  0  0  0  0
 47 40  1  0  0  0  0
 48 40  1  0  0  0  0
M  END
>  <minimizedAffinity>
-6.30630779

$$$$

 OpenBabel03242518273D

 50 55  0  0  1  0  0  0  0  0999 V2000
   34.5250   29.0010   39.6790 C   0  0  0  0  0  0  0  0  0  0  0  0
   34.8710   28.9520   38.3770 C   0  0  0  0  0  0  0  0  0  0  0  0
   36.2150   28.7920   38.0530 C   0  0  0  0  0  0  0  0  0  0  0  0
   37.1640   28.6880   39.0460 C   0  0  0  0  0  0  0  0  0  0  0  0
   36.7800   28.7430   40.3910 C   0  0  0  0  0  0  0  0  0  0  0  0
   35.4350   28.9020   40.7160 C   0  0  0  0  0  0  0  0  0  0  0  0
   37.9340   28.6130   41.1580 O   0  0  0  0  0  0  0  0  0  0  0  0
   39.0460   28.8680   40.2980 C   0  0  1  0  0  0  0  0  0  0  0  0
   38.5520   28.5250   39.0300 O   0  0  0  0  0  0  0  0  0  0  0  0
   33.4950   29.1240   39.9920 H   0  0  0  0  0  0  0  0  0  0  0  0
   36.5730   28.7430   37.0260 H   0  0  0  0  0  0  0  0  0  0  0  0
   35.1350   28.9450   41.7470 H   0  0  0  0  0  0  0  0  0  0  0  0
   39.9640   28.3570   40.6040 H   0  0  0  0  0  0  0  0  0  0  0  0
   39.2170   30.3280   40.2800 N   0  0  0  0  0  0  0  0  0  0  0  0
   38.7170   31.2590   41.1430 C   0  0  0  0  0  0  0  0  0  0  0  0
   38.0900   30.9800   41.9980 H   0  0  0  0  0  0  0  0  0  0  0  0
   39.1230   32.4820   40.7510 N   0  0  0  0  0  0  0  0  0  0  0  0
   39.8800   32.3630   39.6450 C   0  0  0  0  0  0  0  0  0  0  0  0
   40.4910   33.3710   38.9270 C   0  0  0  0  0  0  0  0  0  0  0  0
   41.1980   32.9660   37.8500 N   0  0  0  0  0  0  0  0  0  0  0  0
   41.2730   31.6500   37.5380 C   0  0  0  0  0  0  0  0  0  0  0  0
   41.8580   31.3940   36.6590 H   0  0  0  0  0  0  0  0  0  0  0  0
   40.6590   30.6770   38.2660 N   0  0  0  0  0  0  0  0  0  0  0  0
   39.9380   31.0160   39.3530 C   0  0  0  0  0  0  0  0  0  0  0  0
   40.3560   34.7420   39.3330 N   0  0  0  0  0  0  0  0  0  0  0  0
   39.3720   35.0480   39.1680 H   0  0  0  0  0  0  0  0  0  0  0  0
   41.1890   35.2640   39.7250 H   0  0  0  0  0  0  0  0  0  0  0  0
   33.2500   29.0330   35.0530 C   0  0  0  0  0  0  0  0  0  0  0  0
   31.9330   29.3040   35.3700 C   0  0  0  0  0  0  0  0  0  0  0  0
   31.6180   29.4540   36.7240 C   0  0  0  0  0  0  0  0  0  0  0  0
   32.5910   29.3310   37.6580 N   0  0  0  0  0  0  0  0  0  0  0  0
   33.8780   29.0650   37.3060 C   0  0  0  0  0  0  0  0  0  0  0  0
   34.1900   28.9200   36.0160 N   0  0  0  0  0  0  0  0  0  0  0  0
   33.6630   28.8890   34.0570 H   0  0  0  0  0  0  0  0  0  0  0  0
   30.5810   29.6650   36.9580 H   0  0  0  0  0  0  0  0  0  0  0  0
   31.0200   29.4070   34.3040 N   0  0  0  0  0  0  0  0  0  0  0  0
   30.8580   30.6800   33.6760 C   0  0  0  0  0  0  0  0  0  0  0  0
   29.8220   30.7110   32.6150 C   0  0  0  0  0  0  0  0  0  0  0  0
   29.9190   29.6170   31.7020 N   0  0  0  0  0  0  0  0  0  0  0  0
   30.2760   28.3600   32.2290 C   0  0  0  0  0  0  0  0  0  0  0  0
   30.2060   28.3600   33.7540 C   0  0  0  0  0  0  0  0  0  0  0  0
   31.8440   30.9250   33.1850 H   0  0  0  0  0  0  0  0  0  0  0  0
   30.6880   31.4390   34.4450 H   0  0  0  0  0  0  0  0  0  0  0  0
   28.8200   30.7290   33.0540 H   0  0  0  0  0  0  0  0  0  0  0  0
   29.9840   31.6440   32.0040 H   0  0  0  0  0  0  0  0  0  0  0  0
   28.9920   29.5190   31.1980 H   0  0  0  0  0  0  0  0  0  0  0  0
   29.6110   27.5200   31.9150 H   0  0  0  0  0  0  0  0  0  0  0  0
   31.3180   28.0430   31.9750 H   0  0  0  0  0  0  0  0  0  0  0  0
   30.5950   27.3860   34.1170 H   0  0  0  0  0  0  0  0  0  0  0  0
   29.1720   28.4380   34.1260 H   0  0  0  0  0  0  0  0  0  0  0  0
  1 10  1  0  0  0  0
  1  6  1  0  0  0  0
  2  1  2  0  0  0  0
  3  2  1  0  0  0  0
  3  4  2  0  0  0  0
  4  5  1  0  0  0  0
  5  6  2  0  0  0  0
  5  7  1  0  0  0  0
  6 12  1  0  0  0  0
  8 13  1  1  0  0  0
  8  7  1  0  0  0  0
  9  4  1  0  0  0  0
  9  8  1  0  0  0  0
 11  3  1  0  0  0  0
 14  8  1  0  0  0  0
 14 15  1  0  0  0  0
 15 16  1  0  0  0  0
 17 15  2  0  0  0  0
 18 17  1  0  0  0  0
 19 25  1  0  0  0  0
 19 18  2  0  0  0  0
 20 19  1  0  0  0  0
 21 20  2  0  0  0  0
 21 23  1  0  0  0  0
 22 21  1  0  0  0  0
 23 24  2  0  0  0  0
 24 18  1  0  0  0  0
 24 14  1  0  0  0  0
 25 27  1  0  0  0  0
 26 25  1  0  0  0  0
 28 29  2  0  0  0  0
 28 33  1  0  0  0  0
 29 30  1  0  0  0  0
 30 35  1  0  0  0  0
 30 31  2  0  0  0  0
 32 31  1  0  0  0  0
 32  2  1  0  0  0  0
 33 32  2  0  0  0  0
 34 28  1  0  0  0  0
 36 29  1  0  0  0  0
 37 36  1  0  0  0  0
 37 43  1  0  0  0  0
 38 44  1  0  0  0  0
 38 37  1  0  0  0  0
 39 40  1  0  0  0  0
 39 38  1  0  0  0  0
 40 41  1  0  0  0  0
 41 49  1  0  0  0  0
 41 50  1  0  0  0  0
 41 36  1  0  0  0  0
 42 37  1  0  0  0  0
 45 38  1  0  0  0  0
 46 39  1  0  0  0  0
 47 40  1  0  0  0  0
 48 40  1  0  0  0  0
M  END
>  <minimizedAffinity>
-6.02503681

$$$$

 OpenBabel03242518273D

 50 55  0  0  1  0  0  0  0  0999 V2000
   36.9730   26.2170   42.1000 C   0  0  0  0  0  0  0  0  0  0  0  0
   37.5460   26.0020   40.8980 C   0  0  0  0  0  0  0  0  0  0  0  0
   38.6380   26.7850   40.5350 C   0  0  0  0  0  0  0  0  0  0  0  0
   39.1160   27.7550   41.3890 C   0  0  0  0  0  0  0  0  0  0  0  0
   38.5030   27.9590   42.6310 C   0  0  0  0  0  0  0  0  0  0  0  0
   37.4100   27.1750   42.9960 C   0  0  0  0  0  0  0  0  0  0  0  0
   39.1900   28.9880   43.2690 O   0  0  0  0  0  0  0  0  0  0  0  0
   39.9610   29.6630   42.2740 C   0  0  1  0  0  0  0  0  0  0  0  0
   40.1670   28.6720   41.3030 O   0  0  0  0  0  0  0  0  0  0  0  0
   36.1200   25.6390   42.4380 H   0  0  0  0  0  0  0  0  0  0  0  0
   39.1540   26.6730   39.5830 H   0  0  0  0  0  0  0  0  0  0  0  0
   36.9370   27.3280   43.9480 H   0  0  0  0  0  0  0  0  0  0  0  0
   40.8650   30.1390   42.6670 H   0  0  0  0  0  0  0  0  0  0  0  0
   39.0550   30.6440   41.6580 N   0  0  0  0  0  0  0  0  0  0  0  0
   37.7020   30.5750   41.4930 C   0  0  0  0  0  0  0  0  0  0  0  0
   37.1200   29.7090   41.8330 H   0  0  0  0  0  0  0  0  0  0  0  0
   37.2770   31.6950   40.8800 N   0  0  0  0  0  0  0  0  0  0  0  0
   38.3330   32.4960   40.6420 C   0  0  0  0  0  0  0  0  0  0  0  0
   38.3330   33.7340   40.0330 C   0  0  0  0  0  0  0  0  0  0  0  0
   39.5430   34.3230   39.9220 N   0  0  0  0  0  0  0  0  0  0  0  0
   40.6510   33.7010   40.3910 C   0  0  0  0  0  0  0  0  0  0  0  0
   41.5910   34.2300   40.2700 H   0  0  0  0  0  0  0  0  0  0  0  0
   40.6200   32.4770   40.9880 N   0  0  0  0  0  0  0  0  0  0  0  0
   39.4420   31.8370   41.1290 C   0  0  0  0  0  0  0  0  0  0  0  0
   37.1070   34.3190   39.5650 N   0  0  0  0  0  0  0  0  0  0  0  0
   36.7670   33.7740   38.7420 H   0  0  0  0  0  0  0  0  0  0  0  0
   36.7030   35.1660   40.0530 H   0  0  0  0  0  0  0  0  0  0  0  0
   35.6460   24.2520   38.2500 C   0  0  0  0  0  0  0  0  0  0  0  0
   36.1860   22.9810   38.2870 C   0  0  0  0  0  0  0  0  0  0  0  0
   37.1970   22.7420   39.2210 C   0  0  0  0  0  0  0  0  0  0  0  0
   37.6060   23.7400   40.0400 N   0  0  0  0  0  0  0  0  0  0  0  0
   37.0500   24.9800   39.9750 C   0  0  0  0  0  0  0  0  0  0  0  0
   36.0820   25.2200   39.0860 N   0  0  0  0  0  0  0  0  0  0  0  0
   34.8580   24.6060   37.5900 H   0  0  0  0  0  0  0  0  0  0  0  0
   37.6120   21.7400   39.2380 H   0  0  0  0  0  0  0  0  0  0  0  0
   35.6700   22.0350   37.3810 N   0  0  0  0  0  0  0  0  0  0  0  0
   34.3580   21.5220   37.6170 C   0  0  0  0  0  0  0  0  0  0  0  0
   33.9280   20.4760   36.6570 C   0  0  0  0  0  0  0  0  0  0  0  0
   34.1850   20.8230   35.2960 N   0  0  0  0  0  0  0  0  0  0  0  0
   35.3790   21.5160   35.0160 C   0  0  0  0  0  0  0  0  0  0  0  0
   36.3210   21.5040   36.2170 C   0  0  0  0  0  0  0  0  0  0  0  0
   33.6470   22.3910   37.5020 H   0  0  0  0  0  0  0  0  0  0  0  0
   34.2850   21.1870   38.6560 H   0  0  0  0  0  0  0  0  0  0  0  0
   34.4110   19.5210   36.8860 H   0  0  0  0  0  0  0  0  0  0  0  0
   32.8100   20.3660   36.7460 H   0  0  0  0  0  0  0  0  0  0  0  0
   34.1670   19.9360   34.7160 H   0  0  0  0  0  0  0  0  0  0  0  0
   35.9810   21.0830   34.1800 H   0  0  0  0  0  0  0  0  0  0  0  0
   35.2270   22.5940   34.7620 H   0  0  0  0  0  0  0  0  0  0  0  0
   37.1920   22.1480   35.9790 H   0  0  0  0  0  0  0  0  0  0  0  0
   36.7240   20.5000   36.4230 H   0  0  0  0  0  0  0  0  0  0  0  0
  1 10  1  0  0  0  0
  1  6  1  0  0  0  0
  2  1  2  0  0  0  0
  3  2  1  0  0  0  0
  3  4  2  0  0  0  0
  4  5  1  0  0  0  0
  5  6  2  0  0  0  0
  5  7  1  0  0  0  0
  6 12  1  0  0  0  0
  8 13  1  1  0  0  0
  8  7  1  0  0  0  0
  9  4  1  0  0  0  0
  9  8  1  0  0  0  0
 11  3  1  0  0  0  0
 14  8  1  0  0  0  0
 15 14  1  0  0  0  0
 15 16  1  0  0  0  0
 17 15  2  0  0  0  0
 18 17  1  0  0  0  0
 18 24  1  0  0  0  0
 19 18  2  0  0  0  0
 20 19  1  0  0  0  0
 20 21  2  0  0  0  0
 21 23  1  0  0  0  0
 22 21  1  0  0  0  0
 23 24  2  0  0  0  0
 24 14  1  0  0  0  0
 25 19  1  0  0  0  0
 25 27  1  0  0  0  0
 26 25  1  0  0  0  0
 28 29  2  0  0  0  0
 28 33  1  0  0  0  0
 29 30  1  0  0  0  0
 30 35  1  0  0  0  0
 30 31  2  0  0  0  0
 32 31  1  0  0  0  0
 32  2  1  0  0  0  0
 33 32  2  0  0  0  0
 34 28  1  0  0  0  0
 36 37  1  0  0  0  0
 36 29  1  0  0  0  0
 37 43  1  0  0  0  0
 38 45  1  0  0  0  0
 38 44  1  0  0  0  0
 38 37  1  0  0  0  0
 39 38  1  0  0  0  0
 40 39  1  0  0  0  0
 40 41  1  0  0  0  0
 41 50  1  0  0  0  0
 41 36  1  0  0  0  0
 42 37  1  0  0  0  0
 46 39  1  0  0  0  0
 47 40  1  0  0  0  0
 48 40  1  0  0  0  0
 49 41  1  0  0  0  0
M  END
>  <minimizedAffinity>
-5.97652197

$$$$

 OpenBabel03242518273D

 50 55  0  0  1  0  0  0  0  0999 V2000
   36.7520   29.6360   39.1970 C   0  0  0  0  0  0  0  0  0  0  0  0
   37.6390   28.8450   39.8340 C   0  0  0  0  0  0  0  0  0  0  0  0
   38.5800   29.4420   40.6670 C   0  0  0  0  0  0  0  0  0  0  0  0
   38.6000   30.8100   40.8310 C   0  0  0  0  0  0  0  0  0  0  0  0
   37.6680   31.6090   40.1590 C   0  0  0  0  0  0  0  0  0  0  0  0
   36.7250   31.0130   39.3250 C   0  0  0  0  0  0  0  0  0  0  0  0
   37.9240   32.9320   40.5110 O   0  0  0  0  0  0  0  0  0  0  0  0
   39.2340   32.9720   41.0810 C   0  0  1  0  0  0  0  0  0  0  0  0
   39.4030   31.6730   41.5810 O   0  0  0  0  0  0  0  0  0  0  0  0
   35.9950   29.2300   38.5360 H   0  0  0  0  0  0  0  0  0  0  0  0
   39.3290   28.8720   41.2150 H   0  0  0  0  0  0  0  0  0  0  0  0
   36.0080   31.6230   38.8060 H   0  0  0  0  0  0  0  0  0  0  0  0
   39.3730   33.7820   41.8040 H   0  0  0  0  0  0  0  0  0  0  0  0
   40.1630   33.0900   39.9490 N   0  0  0  0  0  0  0  0  0  0  0  0
   39.9270   32.8810   38.6210 C   0  0  0  0  0  0  0  0  0  0  0  0
   38.9400   32.5810   38.2470 H   0  0  0  0  0  0  0  0  0  0  0  0
   41.0620   33.1020   37.9320 N   0  0  0  0  0  0  0  0  0  0  0  0
   42.0380   33.4520   38.7910 C   0  0  0  0  0  0  0  0  0  0  0  0
   43.3500   33.7630   38.4980 C   0  0  0  0  0  0  0  0  0  0  0  0
   44.1200   34.0820   39.5610 N   0  0  0  0  0  0  0  0  0  0  0  0
   43.5940   34.0830   40.8090 C   0  0  0  0  0  0  0  0  0  0  0  0
   44.2680   34.3490   41.6170 H   0  0  0  0  0  0  0  0  0  0  0  0
   42.2940   33.7710   41.0680 N   0  0  0  0  0  0  0  0  0  0  0  0
   41.4730   33.4440   40.0500 C   0  0  0  0  0  0  0  0  0  0  0  0
   43.8220   33.7360   37.1410 N   0  0  0  0  0  0  0  0  0  0  0  0
   43.8500   32.7450   36.8140 H   0  0  0  0  0  0  0  0  0  0  0  0
   44.0710   34.6380   36.6480 H   0  0  0  0  0  0  0  0  0  0  0  0
   36.5950   25.3690   39.1200 C   0  0  0  0  0  0  0  0  0  0  0  0
   37.7410   24.6510   39.3990 C   0  0  0  0  0  0  0  0  0  0  0  0
   38.8590   25.3710   39.8280 C   0  0  0  0  0  0  0  0  0  0  0  0
   38.7850   26.7170   39.9520 N   0  0  0  0  0  0  0  0  0  0  0  0
   37.6380   27.3900   39.6690 C   0  0  0  0  0  0  0  0  0  0  0  0
   36.5630   26.7130   39.2590 N   0  0  0  0  0  0  0  0  0  0  0  0
   35.6430   24.9690   38.7790 H   0  0  0  0  0  0  0  0  0  0  0  0
   39.7520   24.7940   40.0420 H   0  0  0  0  0  0  0  0  0  0  0  0
   37.6850   23.2550   39.2290 N   0  0  0  0  0  0  0  0  0  0  0  0
   38.1260   22.4260   40.3060 C   0  0  0  0  0  0  0  0  0  0  0  0
   38.1020   20.9730   40.0090 C   0  0  0  0  0  0  0  0  0  0  0  0
   36.8840   20.5430   39.4010 N   0  0  0  0  0  0  0  0  0  0  0  0
   36.2810   21.4100   38.4690 C   0  0  0  0  0  0  0  0  0  0  0  0
   37.2280   22.5390   38.0710 C   0  0  0  0  0  0  0  0  0  0  0  0
   37.4110   22.6030   41.1610 H   0  0  0  0  0  0  0  0  0  0  0  0
   39.1110   22.7660   40.6390 H   0  0  0  0  0  0  0  0  0  0  0  0
   38.9450   20.6970   39.3690 H   0  0  0  0  0  0  0  0  0  0  0  0
   38.1750   20.4210   40.9890 H   0  0  0  0  0  0  0  0  0  0  0  0
   37.0570   19.6100   38.9300 H   0  0  0  0  0  0  0  0  0  0  0  0
   35.9970   20.9260   37.5030 H   0  0  0  0  0  0  0  0  0  0  0  0
   35.3570   21.9100   38.8490 H   0  0  0  0  0  0  0  0  0  0  0  0
   36.6700   23.2440   37.4210 H   0  0  0  0  0  0  0  0  0  0  0  0
   38.0830   22.1790   37.4760 H   0  0  0  0  0  0  0  0  0  0  0  0
  1  6  2  0  0  0  0
  1  2  1  0  0  0  0
  2  3  2  0  0  0  0
  3  4  1  0  0  0  0
  3 11  1  0  0  0  0
  4  9  1  0  0  0  0
  5  7  1  0  0  0  0
  5  4  2  0  0  0  0
  6  5  1  0  0  0  0
  7  8  1  0  0  0  0
  8  9  1  0  0  0  0
  8 13  1  1  0  0  0
 10  1  1  0  0  0  0
 12  6  1  0  0  0  0
 14 24  1  0  0  0  0
 14  8  1  0  0  0  0
 15 14  1  0  0  0  0
 16 15  1  0  0  0  0
 17 15  2  0  0  0  0
 17 18  1  0  0  0  0
 18 24  1  0  0  0  0
 19 18  2  0  0  0  0
 19 20  1  0  0  0  0
 20 21  2  0  0  0  0
 21 23  1  0  0  0  0
 21 22  1  0  0  0  0
 24 23  2  0  0  0  0
 25 19  1  0  0  0  0
 26 25  1  0  0  0  0
 27 25  1  0  0  0  0
 28 33  2  0  0  0  0
 28 29  1  0  0  0  0
 29 30  2  0  0  0  0
 30 31  1  0  0  0  0
 30 35  1  0  0  0  0
 32  2  1  0  0  0  0
 32 31  2  0  0  0  0
 33 32  1  0  0  0  0
 34 28  1  0  0  0  0
 36 29  1  0  0  0  0
 36 37  1  0  0  0  0
 37 43  1  0  0  0  0
 37 42  1  0  0  0  0
 38 37  1  0  0  0  0
 38 45  1  0  0  0  0
 39 38  1  0  0  0  0
 40 48  1  0  0  0  0
 40 39  1  0  0  0  0
 41 40  1  0  0  0  0
 41 36  1  0  0  0  0
 44 38  1  0  0  0  0
 46 39  1  0  0  0  0
 47 40  1  0  0  0  0
 49 41  1  0  0  0  0
 50 41  1  0  0  0  0
M  END
>  <minimizedAffinity>
-5.93951702

$$$$

 OpenBabel03242518273D

 50 55  0  0  1  0  0  0  0  0999 V2000
   37.0320   29.1830   37.5070 C   0  0  0  0  0  0  0  0  0  0  0  0
   36.6020   28.5920   38.6410 C   0  0  0  0  0  0  0  0  0  0  0  0
   36.4420   29.3780   39.7780 C   0  0  0  0  0  0  0  0  0  0  0  0
   36.7200   30.7260   39.7400 C   0  0  0  0  0  0  0  0  0  0  0  0
   37.1660   31.3160   38.5510 C   0  0  0  0  0  0  0  0  0  0  0  0
   37.3260   30.5310   37.4110 C   0  0  0  0  0  0  0  0  0  0  0  0
   37.3640   32.6700   38.8070 O   0  0  0  0  0  0  0  0  0  0  0  0
   37.4120   32.8300   40.2260 C   0  0  1  0  0  0  0  0  0  0  0  0
   36.6570   31.7450   40.6940 O   0  0  0  0  0  0  0  0  0  0  0  0
   37.1750   28.6230   36.5900 H   0  0  0  0  0  0  0  0  0  0  0  0
   36.0990   28.9760   40.7300 H   0  0  0  0  0  0  0  0  0  0  0  0
   37.6680   30.9780   36.4960 H   0  0  0  0  0  0  0  0  0  0  0  0
   37.0880   33.8180   40.5670 H   0  0  0  0  0  0  0  0  0  0  0  0
   38.8010   32.5490   40.6170 N   0  0  0  0  0  0  0  0  0  0  0  0
   39.2930   31.4990   41.3370 C   0  0  0  0  0  0  0  0  0  0  0  0
   38.6420   30.7050   41.7230 H   0  0  0  0  0  0  0  0  0  0  0  0
   40.6260   31.6380   41.4610 N   0  0  0  0  0  0  0  0  0  0  0  0
   41.0130   32.7640   40.8320 C   0  0  0  0  0  0  0  0  0  0  0  0
   42.2910   33.2720   40.7210 C   0  0  0  0  0  0  0  0  0  0  0  0
   42.3950   34.4270   40.0280 N   0  0  0  0  0  0  0  0  0  0  0  0
   41.2920   35.0080   39.5000 C   0  0  0  0  0  0  0  0  0  0  0  0
   41.4470   35.9340   38.9550 H   0  0  0  0  0  0  0  0  0  0  0  0
   40.0420   34.4820   39.6260 N   0  0  0  0  0  0  0  0  0  0  0  0
   39.8710   33.3310   40.3050 C   0  0  0  0  0  0  0  0  0  0  0  0
   43.4050   32.5870   41.3160 N   0  0  0  0  0  0  0  0  0  0  0  0
   43.3290   32.6610   42.3550 H   0  0  0  0  0  0  0  0  0  0  0  0
   44.1270   32.1160   40.7040 H   0  0  0  0  0  0  0  0  0  0  0  0
   35.3320   25.2070   37.8570 C   0  0  0  0  0  0  0  0  0  0  0  0
   35.7980   24.4610   38.9220 C   0  0  0  0  0  0  0  0  0  0  0  0
   36.5440   25.1300   39.8960 C   0  0  0  0  0  0  0  0  0  0  0  0
   36.7820   26.4570   39.7660 N   0  0  0  0  0  0  0  0  0  0  0  0
   36.3050   27.1600   38.7040 C   0  0  0  0  0  0  0  0  0  0  0  0
   35.5900   26.5300   37.7670 N   0  0  0  0  0  0  0  0  0  0  0  0
   34.7400   24.8470   37.0200 H   0  0  0  0  0  0  0  0  0  0  0  0
   36.9040   24.5310   40.7250 H   0  0  0  0  0  0  0  0  0  0  0  0
   35.4810   23.0890   38.9370 N   0  0  0  0  0  0  0  0  0  0  0  0
   34.1010   22.7160   38.9230 C   0  0  0  0  0  0  0  0  0  0  0  0
   33.8620   21.2560   39.0160 C   0  0  0  0  0  0  0  0  0  0  0  0
   34.6830   20.4940   38.1310 N   0  0  0  0  0  0  0  0  0  0  0  0
   36.0090   20.9270   37.9390 C   0  0  0  0  0  0  0  0  0  0  0  0
   36.3990   21.9870   38.9660 C   0  0  0  0  0  0  0  0  0  0  0  0
   33.6850   23.0590   37.9310 H   0  0  0  0  0  0  0  0  0  0  0  0
   33.5720   23.2750   39.7000 H   0  0  0  0  0  0  0  0  0  0  0  0
   34.0110   20.9060   40.0420 H   0  0  0  0  0  0  0  0  0  0  0  0
   32.7970   21.0610   38.7020 H   0  0  0  0  0  0  0  0  0  0  0  0
   34.7020   19.4910   38.4730 H   0  0  0  0  0  0  0  0  0  0  0  0
   36.7800   20.1260   38.0530 H   0  0  0  0  0  0  0  0  0  0  0  0
   36.1930   21.3930   36.9400 H   0  0  0  0  0  0  0  0  0  0  0  0
   37.4090   22.3640   38.7060 H   0  0  0  0  0  0  0  0  0  0  0  0
   36.4760   21.5740   39.9850 H   0  0  0  0  0  0  0  0  0  0  0  0
  1  2  1  0  0  0  0
  2 32  1  0  0  0  0
  2  3  2  0  0  0  0
  3 11  1  0  0  0  0
  4  3  1  0  0  0  0
  4  9  1  0  0  0  0
  5  7  1  0  0  0  0
  5  4  2  0  0  0  0
  6  1  2  0  0  0  0
  6  5  1  0  0  0  0
  7  8  1  0  0  0  0
  8 13  1  1  0  0  0
  8 14  1  0  0  0  0
  8  9  1  0  0  0  0
 10  1  1  0  0  0  0
 12  6  1  0  0  0  0
 14 15  1  0  0  0  0
 15 17  2  0  0  0  0
 15 16  1  0  0  0  0
 18 17  1  0  0  0  0
 19 18  1  0  0  0  0
 19 25  1  0  0  0  0
 20 19  2  0  0  0  0
 21 23  2  0  0  0  0
 21 20  1  0  0  0  0
 22 21  1  0  0  0  0
 23 24  1  0  0  0  0
 24 14  1  0  0  0  0
 24 18  2  0  0  0  0
 25 26  1  0  0  0  0
 27 25  1  0  0  0  0
 28 29  1  0  0  0  0
 29 36  1  0  0  0  0
 29 30  2  0  0  0  0
 30 35  1  0  0  0  0
 31 30  1  0  0  0  0
 32 31  2  0  0  0  0
 33 28  2  0  0  0  0
 33 32  1  0  0  0  0
 34 28  1  0  0  0  0
 36 41  1  0  0  0  0
 37 36  1  0  0  0  0
 37 38  1  0  0  0  0
 37 43  1  0  0  0  0
 38 44  1  0  0  0  0
 39 46  1  0  0  0  0
 39 38  1  0  0  0  0
 40 47  1  0  0  0  0
 40 39  1  0  0  0  0
 40 41  1  0  0  0  0
 41 50  1  0  0  0  0
 42 37  1  0  0  0  0
 45 38  1  0  0  0  0
 48 40  1  0  0  0  0
 49 41  1  0  0  0  0
M  END
>  <minimizedAffinity>
-5.93920231

$$$$

 OpenBabel03242518273D

 50 55  0  0  1  0  0  0  0  0999 V2000
   37.0860   28.8720   41.3250 C   0  0  0  0  0  0  0  0  0  0  0  0
   37.8360   27.7610   41.1810 C   0  0  0  0  0  0  0  0  0  0  0  0
   39.1930   27.8340   41.4840 C   0  0  0  0  0  0  0  0  0  0  0  0
   39.7480   29.0170   41.9190 C   0  0  0  0  0  0  0  0  0  0  0  0
   38.9480   30.1570   42.0590 C   0  0  0  0  0  0  0  0  0  0  0  0
   37.5900   30.0860   41.7570 C   0  0  0  0  0  0  0  0  0  0  0  0
   39.7680   31.1880   42.5080 O   0  0  0  0  0  0  0  0  0  0  0  0
   41.1200   30.7880   42.2720 C   0  0  1  0  0  0  0  0  0  0  0  0
   41.0440   29.3880   42.2890 O   0  0  0  0  0  0  0  0  0  0  0  0
   36.0250   28.8770   41.1050 H   0  0  0  0  0  0  0  0  0  0  0  0
   39.8640   26.9820   41.3940 H   0  0  0  0  0  0  0  0  0  0  0  0
   36.9710   30.9580   41.8630 H   0  0  0  0  0  0  0  0  0  0  0  0
   41.8370   31.2340   42.9670 H   0  0  0  0  0  0  0  0  0  0  0  0
   41.4120   31.1560   40.8790 N   0  0  0  0  0  0  0  0  0  0  0  0
   41.7340   30.3460   39.8290 C   0  0  0  0  0  0  0  0  0  0  0  0
   41.8100   29.2570   39.9380 H   0  0  0  0  0  0  0  0  0  0  0  0
   41.9200   31.1030   38.7310 N   0  0  0  0  0  0  0  0  0  0  0  0
   41.7250   32.3970   39.0500 C   0  0  0  0  0  0  0  0  0  0  0  0
   41.8170   33.4940   38.2180 C   0  0  0  0  0  0  0  0  0  0  0  0
   41.5680   34.6860   38.8040 N   0  0  0  0  0  0  0  0  0  0  0  0
   41.2540   34.7470   40.1200 C   0  0  0  0  0  0  0  0  0  0  0  0
   41.0660   35.7360   40.5260 H   0  0  0  0  0  0  0  0  0  0  0  0
   41.1710   33.6450   40.9160 N   0  0  0  0  0  0  0  0  0  0  0  0
   41.4070   32.4270   40.3920 C   0  0  0  0  0  0  0  0  0  0  0  0
   42.1570   33.3340   36.8310 N   0  0  0  0  0  0  0  0  0  0  0  0
   43.1560   33.0380   36.7620 H   0  0  0  0  0  0  0  0  0  0  0  0
   41.4320   33.5130   36.0830 H   0  0  0  0  0  0  0  0  0  0  0  0
   36.6610   24.2570   41.0320 C   0  0  0  0  0  0  0  0  0  0  0  0
   36.1800   24.1600   39.7400 C   0  0  0  0  0  0  0  0  0  0  0  0
   36.2640   25.3000   38.9370 C   0  0  0  0  0  0  0  0  0  0  0  0
   36.8010   26.4380   39.4390 N   0  0  0  0  0  0  0  0  0  0  0  0
   37.2660   26.4950   40.7170 C   0  0  0  0  0  0  0  0  0  0  0  0
   37.1910   25.4110   41.4930 N   0  0  0  0  0  0  0  0  0  0  0  0
   36.6730   23.4710   41.7830 H   0  0  0  0  0  0  0  0  0  0  0  0
   35.8820   25.2090   37.9270 H   0  0  0  0  0  0  0  0  0  0  0  0
   35.6460   22.9190   39.3420 N   0  0  0  0  0  0  0  0  0  0  0  0
   34.2300   22.7390   39.4170 C   0  0  0  0  0  0  0  0  0  0  0  0
   33.7670   21.3780   39.0510 C   0  0  0  0  0  0  0  0  0  0  0  0
   34.3560   20.8890   37.8460 N   0  0  0  0  0  0  0  0  0  0  0  0
   35.7080   21.2040   37.6080 C   0  0  0  0  0  0  0  0  0  0  0  0
   36.3700   21.7790   38.8580 C   0  0  0  0  0  0  0  0  0  0  0  0
   33.7750   23.4570   38.6750 H   0  0  0  0  0  0  0  0  0  0  0  0
   33.8830   23.0440   40.4090 H   0  0  0  0  0  0  0  0  0  0  0  0
   33.9630   20.6730   39.8640 H   0  0  0  0  0  0  0  0  0  0  0  0
   32.6580   21.4340   38.8580 H   0  0  0  0  0  0  0  0  0  0  0  0
   34.2470   19.8350   37.8250 H   0  0  0  0  0  0  0  0  0  0  0  0
   36.3450   20.3310   37.3260 H   0  0  0  0  0  0  0  0  0  0  0  0
   35.8600   21.9700   36.8070 H   0  0  0  0  0  0  0  0  0  0  0  0
   37.3960   22.1030   38.5870 H   0  0  0  0  0  0  0  0  0  0  0  0
   36.4840   21.0260   39.6550 H   0  0  0  0  0  0  0  0  0  0  0  0
  1  6  1  0  0  0  0
  2  1  2  0  0  0  0
  2  3  1  0  0  0  0
  3  4  2  0  0  0  0
  4  5  1  0  0  0  0
  4  9  1  0  0  0  0
  5  7  1  0  0  0  0
  6 12  1  0  0  0  0
  6  5  2  0  0  0  0
  8  9  1  0  0  0  0
  8  7  1  0  0  0  0
  8 13  1  1  0  0  0
 10  1  1  0  0  0  0
 11  3  1  0  0  0  0
 14  8  1  0  0  0  0
 15 16  1  0  0  0  0
 15 14  1  0  0  0  0
 17 18  1  0  0  0  0
 17 15  2  0  0  0  0
 18 24  1  0  0  0  0
 19 20  1  0  0  0  0
 19 18  2  0  0  0  0
 20 21  2  0  0  0  0
 21 22  1  0  0  0  0
 21 23  1  0  0  0  0
 24 14  1  0  0  0  0
 24 23  2  0  0  0  0
 25 19  1  0  0  0  0
 26 25  1  0  0  0  0
 27 25  1  0  0  0  0
 28 33  1  0  0  0  0
 28 34  1  0  0  0  0
 29 28  2  0  0  0  0
 30 31  2  0  0  0  0
 30 29  1  0  0  0  0
 31 32  1  0  0  0  0
 32  2  1  0  0  0  0
 32 33  2  0  0  0  0
 35 30  1  0  0  0  0
 36 37  1  0  0  0  0
 36 29  1  0  0  0  0
 37 43  1  0  0  0  0
 38 37  1  0  0  0  0
 38 44  1  0  0  0  0
 39 38  1  0  0  0  0
 40 39  1  0  0  0  0
 40 41  1  0  0  0  0
 41 36  1  0  0  0  0
 41 50  1  0  0  0  0
 42 37  1  0  0  0  0
 45 38  1  0  0  0  0
 46 39  1  0  0  0  0
 47 40  1  0  0  0  0
 48 40  1  0  0  0  0
 49 41  1  0  0  0  0
M  END
>  <minimizedAffinity>
-5.92093229

$$$$

 OpenBabel03242518273D

 50 55  0  0  1  0  0  0  0  0999 V2000
   36.0740   30.7160   39.8090 C   0  0  0  0  0  0  0  0  0  0  0  0
   36.5570   29.7630   38.9880 C   0  0  0  0  0  0  0  0  0  0  0  0
   37.8920   29.3900   39.1180 C   0  0  0  0  0  0  0  0  0  0  0  0
   38.6930   29.9860   40.0670 C   0  0  0  0  0  0  0  0  0  0  0  0
   38.1680   30.9730   40.9070 C   0  0  0  0  0  0  0  0  0  0  0  0
   36.8320   31.3480   40.7780 C   0  0  0  0  0  0  0  0  0  0  0  0
   39.1930   31.3890   41.7530 O   0  0  0  0  0  0  0  0  0  0  0  0
   40.4230   30.9420   41.1780 C   0  0  1  0  0  0  0  0  0  0  0  0
   40.0340   29.8240   40.4250 O   0  0  0  0  0  0  0  0  0  0  0  0
   35.0430   31.0480   39.7550 H   0  0  0  0  0  0  0  0  0  0  0  0
   38.3550   28.6280   38.4930 H   0  0  0  0  0  0  0  0  0  0  0  0
   36.4240   32.1050   41.4220 H   0  0  0  0  0  0  0  0  0  0  0  0
   41.2130   30.7690   41.9140 H   0  0  0  0  0  0  0  0  0  0  0  0
   40.8070   31.9700   40.1990 N   0  0  0  0  0  0  0  0  0  0  0  0
   40.3490   33.2490   40.0760 C   0  0  0  0  0  0  0  0  0  0  0  0
   39.5880   33.6610   40.7500 H   0  0  0  0  0  0  0  0  0  0  0  0
   40.9740   33.8410   39.0410 N   0  0  0  0  0  0  0  0  0  0  0  0
   41.8350   32.9670   38.4870 C   0  0  0  0  0  0  0  0  0  0  0  0
   42.6700   33.1730   37.4070 C   0  0  0  0  0  0  0  0  0  0  0  0
   43.4350   32.1160   37.0590 N   0  0  0  0  0  0  0  0  0  0  0  0
   43.3530   30.9560   37.7520 C   0  0  0  0  0  0  0  0  0  0  0  0
   43.9960   30.1470   37.4190 H   0  0  0  0  0  0  0  0  0  0  0  0
   42.5190   30.7820   38.8140 N   0  0  0  0  0  0  0  0  0  0  0  0
   41.7290   31.7990   39.2130 C   0  0  0  0  0  0  0  0  0  0  0  0
   42.6900   34.4400   36.7300 N   0  0  0  0  0  0  0  0  0  0  0  0
   41.7890   34.5630   36.2180 H   0  0  0  0  0  0  0  0  0  0  0  0
   43.5360   35.0700   36.8080 H   0  0  0  0  0  0  0  0  0  0  0  0
   33.8220   27.9320   37.2990 C   0  0  0  0  0  0  0  0  0  0  0  0
   34.2320   27.9350   35.9790 C   0  0  0  0  0  0  0  0  0  0  0  0
   35.4430   28.5670   35.6870 C   0  0  0  0  0  0  0  0  0  0  0  0
   36.1590   29.1440   36.6820 N   0  0  0  0  0  0  0  0  0  0  0  0
   35.7230   29.1200   37.9700 C   0  0  0  0  0  0  0  0  0  0  0  0
   34.5670   28.5180   38.2620 N   0  0  0  0  0  0  0  0  0  0  0  0
   32.9130   27.4880   37.6970 H   0  0  0  0  0  0  0  0  0  0  0  0
   35.7520   28.5630   34.6480 H   0  0  0  0  0  0  0  0  0  0  0  0
   33.3960   27.3000   35.0420 N   0  0  0  0  0  0  0  0  0  0  0  0
   32.1730   27.9470   34.6830 C   0  0  0  0  0  0  0  0  0  0  0  0
   31.3220   27.1700   33.7490 C   0  0  0  0  0  0  0  0  0  0  0  0
   32.0470   26.6320   32.6420 N   0  0  0  0  0  0  0  0  0  0  0  0
   33.3500   26.1560   32.8880 C   0  0  0  0  0  0  0  0  0  0  0  0
   33.6250   26.0450   34.3850 C   0  0  0  0  0  0  0  0  0  0  0  0
   32.4580   28.9030   34.1560 H   0  0  0  0  0  0  0  0  0  0  0  0
   31.6380   28.2320   35.5930 H   0  0  0  0  0  0  0  0  0  0  0  0
   30.8120   26.3590   34.2770 H   0  0  0  0  0  0  0  0  0  0  0  0
   30.5600   27.8750   33.3110 H   0  0  0  0  0  0  0  0  0  0  0  0
   31.4760   25.8460   32.2190 H   0  0  0  0  0  0  0  0  0  0  0  0
   33.5540   25.1340   32.4860 H   0  0  0  0  0  0  0  0  0  0  0  0
   34.1560   26.8150   32.4810 H   0  0  0  0  0  0  0  0  0  0  0  0
   34.6910   25.7680   34.5210 H   0  0  0  0  0  0  0  0  0  0  0  0
   33.0350   25.2450   34.8610 H   0  0  0  0  0  0  0  0  0  0  0  0
  1  6  1  0  0  0  0
  2  3  1  0  0  0  0
  2  1  2  0  0  0  0
  3  4  2  0  0  0  0
  4  9  1  0  0  0  0
  4  5  1  0  0  0  0
  5  7  1  0  0  0  0
  6  5  2  0  0  0  0
  6 12  1  0  0  0  0
  8  7  1  0  0  0  0
  8 13  1  1  0  0  0
  9  8  1  0  0  0  0
 10  1  1  0  0  0  0
 11  3  1  0  0  0  0
 14  8  1  0  0  0  0
 15 14  1  0  0  0  0
 15 16  1  0  0  0  0
 17 15  2  0  0  0  0
 18 17  1  0  0  0  0
 18 24  1  0  0  0  0
 19 18  2  0  0  0  0
 20 19  1  0  0  0  0
 20 21  2  0  0  0  0
 21 23  1  0  0  0  0
 22 21  1  0  0  0  0
 23 24  2  0  0  0  0
 24 14  1  0  0  0  0
 25 27  1  0  0  0  0
 25 19  1  0  0  0  0
 26 25  1  0  0  0  0
 28 34  1  0  0  0  0
 28 33  1  0  0  0  0
 29 28  2  0  0  0  0
 30 29  1  0  0  0  0
 30 31  2  0  0  0  0
 31 32  1  0  0  0  0
 32 33  2  0  0  0  0
 32  2  1  0  0  0  0
 35 30  1  0  0  0  0
 36 29  1  0  0  0  0
 37 36  1  0  0  0  0
 37 43  1  0  0  0  0
 38 44  1  0  0  0  0
 38 37  1  0  0  0  0
 39 40  1  0  0  0  0
 39 38  1  0  0  0  0
 40 41  1  0  0  0  0
 41 49  1  0  0  0  0
 41 50  1  0  0  0  0
 41 36  1  0  0  0  0
 42 37  1  0  0  0  0
 45 38  1  0  0  0  0
 46 39  1  0  0  0  0
 47 40  1  0  0  0  0
 48 40  1  0  0  0  0
M  END
>  <minimizedAffinity>
-5.90521479

$$$$
