
 OpenBabel03242518253D

 50 55  0  0  1  0  0  0  0  0999 V2000
   46.9050   31.3080   43.4100 C   0  0  0  0  0  0  0  0  0  0  0  0
   45.9160   32.0780   43.9070 C   0  0  0  0  0  0  0  0  0  0  0  0
   45.7730   32.1640   45.2890 C   0  0  0  0  0  0  0  0  0  0  0  0
   46.6260   31.4750   46.1230 C   0  0  0  0  0  0  0  0  0  0  0  0
   47.6450   30.6830   45.5820 C   0  0  0  0  0  0  0  0  0  0  0  0
   47.7900   30.5960   44.1990 C   0  0  0  0  0  0  0  0  0  0  0  0
   48.3400   30.1150   46.6470 O   0  0  0  0  0  0  0  0  0  0  0  0
   47.5170   30.2470   47.8080 C   0  0  1  0  0  0  0  0  0  0  0  0
   46.7280   31.3690   47.5120 O   0  0  0  0  0  0  0  0  0  0  0  0
   47.0660   31.2020   42.3440 H   0  0  0  0  0  0  0  0  0  0  0  0
   45.0000   32.7640   45.7660 H   0  0  0  0  0  0  0  0  0  0  0  0
   48.5710   29.9890   43.7800 H   0  0  0  0  0  0  0  0  0  0  0  0
   48.0820   30.2970   48.7430 H   0  0  0  0  0  0  0  0  0  0  0  0
   46.6010   29.0980   47.7860 N   0  0  0  0  0  0  0  0  0  0  0  0
   45.2430   29.0810   47.9220 C   0  0  0  0  0  0  0  0  0  0  0  0
   44.6640   30.0010   48.0720 H   0  0  0  0  0  0  0  0  0  0  0  0
   44.8080   27.8100   47.8390 N   0  0  0  0  0  0  0  0  0  0  0  0
   45.8640   26.9940   47.6510 C   0  0  0  0  0  0  0  0  0  0  0  0
   45.8570   25.6210   47.5160 C   0  0  0  0  0  0  0  0  0  0  0  0
   47.0680   25.0520   47.3370 N   0  0  0  0  0  0  0  0  0  0  0  0
   48.1850   25.8180   47.3010 C   0  0  0  0  0  0  0  0  0  0  0  0
   49.1240   25.2960   47.1550 H   0  0  0  0  0  0  0  0  0  0  0  0
   48.1590   27.1730   47.4370 N   0  0  0  0  0  0  0  0  0  0  0  0
   46.9820   27.8020   47.6190 C   0  0  0  0  0  0  0  0  0  0  0  0
   44.6210   24.8890   47.5670 N   0  0  0  0  0  0  0  0  0  0  0  0
   44.2520   24.9210   48.5440 H   0  0  0  0  0  0  0  0  0  0  0  0
   44.2400   24.4290   46.6940 H   0  0  0  0  0  0  0  0  0  0  0  0
   44.2520   34.7720   41.9950 C   0  0  0  0  0  0  0  0  0  0  0  0
   43.2040   34.1040   41.3900 C   0  0  0  0  0  0  0  0  0  0  0  0
   43.0840   32.7360   41.6460 C   0  0  0  0  0  0  0  0  0  0  0  0
   43.9770   32.1230   42.4590 N   0  0  0  0  0  0  0  0  0  0  0  0
   44.9960   32.8140   43.0380 C   0  0  0  0  0  0  0  0  0  0  0  0
   45.1200   34.1220   42.8010 N   0  0  0  0  0  0  0  0  0  0  0  0
   44.4890   35.8290   41.9040 H   0  0  0  0  0  0  0  0  0  0  0  0
   42.2580   32.2250   41.1640 H   0  0  0  0  0  0  0  0  0  0  0  0
   42.3460   34.8600   40.5680 N   0  0  0  0  0  0  0  0  0  0  0  0
   42.5100   34.7610   39.1520 C   0  0  0  0  0  0  0  0  0  0  0  0
   41.6150   35.6480   38.3690 C   0  0  0  0  0  0  0  0  0  0  0  0
   40.2570   35.6020   38.8060 N   0  0  0  0  0  0  0  0  0  0  0  0
   40.0210   35.4940   40.1900 C   0  0  0  0  0  0  0  0  0  0  0  0
   41.2970   35.7440   40.9890 C   0  0  0  0  0  0  0  0  0  0  0  0
   42.2540   33.6980   38.8720 H   0  0  0  0  0  0  0  0  0  0  0  0
   43.5650   34.9100   38.9030 H   0  0  0  0  0  0  0  0  0  0  0  0
   41.9720   36.6820   38.4030 H   0  0  0  0  0  0  0  0  0  0  0  0
   41.6150   35.2820   37.3040 H   0  0  0  0  0  0  0  0  0  0  0  0
   39.7610   36.4670   38.4460 H   0  0  0  0  0  0  0  0  0  0  0  0
   39.2850   36.2310   40.5940 H   0  0  0  0  0  0  0  0  0  0  0  0
   39.6580   34.4860   40.5100 H   0  0  0  0  0  0  0  0  0  0  0  0
   41.0800   35.5450   42.0590 H   0  0  0  0  0  0  0  0  0  0  0  0
   41.6290   36.7930   40.9310 H   0  0  0  0  0  0  0  0  0  0  0  0
  1  2  2  0  0  0  0
  1  6  1  0  0  0  0
  2  3  1  0  0  0  0
  3 11  1  0  0  0  0
  3  4  2  0  0  0  0
  4  9  1  0  0  0  0
  5  4  1  0  0  0  0
  5  7  1  0  0  0  0
  6  5  2  0  0  0  0
  7  8  1  0  0  0  0
  8 13  1  1  0  0  0
  9  8  1  0  0  0  0
 10  1  1  0  0  0  0
 12  6  1  0  0  0  0
 14  8  1  0  0  0  0
 14 15  1  0  0  0  0
 15 16  1  0  0  0  0
 17 15  2  0  0  0  0
 18 17  1  0  0  0  0
 19 25  1  0  0  0  0
 19 18  2  0  0  0  0
 20 19  1  0  0  0  0
 21 20  2  0  0  0  0
 21 23  1  0  0  0  0
 22 21  1  0  0  0  0
 23 24  2  0  0  0  0
 24 18  1  0  0  0  0
 24 14  1  0  0  0  0
 25 26  1  0  0  0  0
 27 25  1  0  0  0  0
 28 33  1  0  0  0  0
 29 30  1  0  0  0  0
 29 28  2  0  0  0  0
 30 31  2  0  0  0  0
 31 32  1  0  0  0  0
 32  2  1  0  0  0  0
 33 32  2  0  0  0  0
 34 28  1  0  0  0  0
 35 30  1  0  0  0  0
 36 41  1  0  0  0  0
 36 29  1  0  0  0  0
 37 36  1  0  0  0  0
 38 44  1  0  0  0  0
 38 39  1  0  0  0  0
 38 37  1  0  0  0  0
 39 40  1  0  0  0  0
 40 48  1  0  0  0  0
 40 47  1  0  0  0  0
 40 41  1  0  0  0  0
 41 49  1  0  0  0  0
 42 37  1  0  0  0  0
 43 37  1  0  0  0  0
 45 38  1  0  0  0  0
 46 39  1  0  0  0  0
 50 41  1  0  0  0  0
M  END
>  <minimizedAffinity>
-5.4002676

>  <minimizedRMSD>
2.23692274

$$$$
