
 OpenBabel03242518243D

 50 55  0  0  1  0  0  0  0  0999 V2000
   46.7080   30.9590   43.1630 C   0  0  0  0  0  0  0  0  0  0  0  0
   45.8530   31.8530   43.7000 C   0  0  0  0  0  0  0  0  0  0  0  0
   45.8660   32.0370   45.0790 C   0  0  0  0  0  0  0  0  0  0  0  0
   46.7350   31.3190   45.8710 C   0  0  0  0  0  0  0  0  0  0  0  0
   47.6130   30.3960   45.2900 C   0  0  0  0  0  0  0  0  0  0  0  0
   47.6010   30.2110   43.9090 C   0  0  0  0  0  0  0  0  0  0  0  0
   48.3600   29.8280   46.3180 O   0  0  0  0  0  0  0  0  0  0  0  0
   47.6810   30.1130   47.5420 C   0  0  1  0  0  0  0  0  0  0  0  0
   46.9730   31.2880   47.2470 O   0  0  0  0  0  0  0  0  0  0  0  0
   46.7450   30.7720   42.0960 H   0  0  0  0  0  0  0  0  0  0  0  0
   45.2070   32.7390   45.5870 H   0  0  0  0  0  0  0  0  0  0  0  0
   48.2730   29.5040   43.4580 H   0  0  0  0  0  0  0  0  0  0  0  0
   48.3440   30.1630   48.4110 H   0  0  0  0  0  0  0  0  0  0  0  0
   46.6650   29.0620   47.6940 N   0  0  0  0  0  0  0  0  0  0  0  0
   45.3180   29.1910   47.8730 C   0  0  0  0  0  0  0  0  0  0  0  0
   44.8310   30.1740   47.9240 H   0  0  0  0  0  0  0  0  0  0  0  0
   44.7670   27.9660   47.9640 N   0  0  0  0  0  0  0  0  0  0  0  0
   45.7340   27.0370   47.8470 C   0  0  0  0  0  0  0  0  0  0  0  0
   45.5980   25.6650   47.8850 C   0  0  0  0  0  0  0  0  0  0  0  0
   46.7420   24.9650   47.7410 N   0  0  0  0  0  0  0  0  0  0  0  0
   47.9200   25.6120   47.5740 C   0  0  0  0  0  0  0  0  0  0  0  0
   48.8030   24.9880   47.4650 H   0  0  0  0  0  0  0  0  0  0  0  0
   48.0260   26.9690   47.5410 N   0  0  0  0  0  0  0  0  0  0  0  0
   46.9180   27.7250   47.6790 C   0  0  0  0  0  0  0  0  0  0  0  0
   44.3040   25.0660   48.0670 N   0  0  0  0  0  0  0  0  0  0  0  0
   43.9810   25.2520   49.0420 H   0  0  0  0  0  0  0  0  0  0  0  0
   43.8450   24.5410   47.2710 H   0  0  0  0  0  0  0  0  0  0  0  0
   44.1900   34.6100   41.8790 C   0  0  0  0  0  0  0  0  0  0  0  0
   43.0970   33.9790   41.3170 C   0  0  0  0  0  0  0  0  0  0  0  0
   42.9470   32.6130   41.5690 C   0  0  0  0  0  0  0  0  0  0  0  0
   43.8560   31.9670   42.3380 N   0  0  0  0  0  0  0  0  0  0  0  0
   44.9190   32.6220   42.8760 C   0  0  0  0  0  0  0  0  0  0  0  0
   45.0720   33.9280   42.6420 N   0  0  0  0  0  0  0  0  0  0  0  0
   44.4550   35.6600   41.7850 H   0  0  0  0  0  0  0  0  0  0  0  0
   42.0860   32.1310   41.1200 H   0  0  0  0  0  0  0  0  0  0  0  0
   42.2280   34.7660   40.5380 N   0  0  0  0  0  0  0  0  0  0  0  0
   42.3290   34.6740   39.1150 C   0  0  0  0  0  0  0  0  0  0  0  0
   41.4270   35.5940   38.3780 C   0  0  0  0  0  0  0  0  0  0  0  0
   40.0880   35.5830   38.8720 N   0  0  0  0  0  0  0  0  0  0  0  0
   39.9090   35.4700   40.2640 C   0  0  0  0  0  0  0  0  0  0  0  0
   41.2250   35.6760   41.0100 C   0  0  0  0  0  0  0  0  0  0  0  0
   42.0290   33.6220   38.8380 H   0  0  0  0  0  0  0  0  0  0  0  0
   43.3750   34.7950   38.8220 H   0  0  0  0  0  0  0  0  0  0  0  0
   41.8160   36.6160   38.4040 H   0  0  0  0  0  0  0  0  0  0  0  0
   41.3710   35.2370   37.3110 H   0  0  0  0  0  0  0  0  0  0  0  0
   39.6030   36.4650   38.5410 H   0  0  0  0  0  0  0  0  0  0  0  0
   39.2130   36.2250   40.7050 H   0  0  0  0  0  0  0  0  0  0  0  0
   39.5290   34.4710   40.5920 H   0  0  0  0  0  0  0  0  0  0  0  0
   41.0470   35.4750   42.0860 H   0  0  0  0  0  0  0  0  0  0  0  0
   41.5840   36.7160   40.9450 H   0  0  0  0  0  0  0  0  0  0  0  0
  1  2  2  0  0  0  0
  1  6  1  0  0  0  0
  2  3  1  0  0  0  0
  3 11  1  0  0  0  0
  3  4  2  0  0  0  0
  4  9  1  0  0  0  0
  5  4  1  0  0  0  0
  5  7  1  0  0  0  0
  6  5  2  0  0  0  0
  7  8  1  0  0  0  0
  8 14  1  0  0  0  0
  8 13  1  1  0  0  0
  9  8  1  0  0  0  0
 10  1  1  0  0  0  0
 12  6  1  0  0  0  0
 14 15  1  0  0  0  0
 15 16  1  0  0  0  0
 15 17  2  0  0  0  0
 18 19  1  0  0  0  0
 18 17  1  0  0  0  0
 19 25  1  0  0  0  0
 20 19  2  0  0  0  0
 21 20  1  0  0  0  0
 22 21  1  0  0  0  0
 23 21  2  0  0  0  0
 23 24  1  0  0  0  0
 24 14  1  0  0  0  0
 24 18  2  0  0  0  0
 25 26  1  0  0  0  0
 27 25  1  0  0  0  0
 28 33  1  0  0  0  0
 29 30  1  0  0  0  0
 29 28  2  0  0  0  0
 30 31  2  0  0  0  0
 31 32  1  0  0  0  0
 32  2  1  0  0  0  0
 33 32  2  0  0  0  0
 34 28  1  0  0  0  0
 35 30  1  0  0  0  0
 36 41  1  0  0  0  0
 36 29  1  0  0  0  0
 37 36  1  0  0  0  0
 38 44  1  0  0  0  0
 38 39  1  0  0  0  0
 38 37  1  0  0  0  0
 39 40  1  0  0  0  0
 40 48  1  0  0  0  0
 40 47  1  0  0  0  0
 40 41  1  0  0  0  0
 41 49  1  0  0  0  0
 42 37  1  0  0  0  0
 43 37  1  0  0  0  0
 45 38  1  0  0  0  0
 46 39  1  0  0  0  0
 50 41  1  0  0  0  0
M  END
>  <minimizedAffinity>
-5.4179678

>  <minimizedRMSD>
2.06022954

$$$$
