
 OpenBabel03252501393D

 40 43  0  0  0  0  0  0  0  0999 V2000
   40.9470   31.5770   42.0350 Cl  0  0  0  0  0  0  0  0  0  0  0  0
   39.2790   31.4780   41.5200 C   0  0  0  0  0  0  0  0  0  0  0  0
   38.3670   30.6200   42.1210 C   0  0  0  0  0  0  0  0  0  0  0  0
   37.0730   30.5900   41.6700 C   0  0  0  0  0  0  0  0  0  0  0  0
   36.6030   31.3730   40.6350 C   0  0  0  0  0  0  0  0  0  0  0  0
   37.4930   32.2380   40.0180 C   0  0  0  0  0  0  0  0  0  0  0  0
   36.9960   33.2750   38.6940 Cl  0  0  0  0  0  0  0  0  0  0  0  0
   38.7850   32.2570   40.4800 C   0  0  0  0  0  0  0  0  0  0  0  0
   36.4000   29.8980   42.1790 H   0  0  0  0  0  0  0  0  0  0  0  0
   35.5860   31.3460   40.2840 H   0  0  0  0  0  0  0  0  0  0  0  0
   39.7560   33.1390   39.8760 N   0  0  0  0  0  0  0  0  0  0  0  0
   40.1140   34.4270   40.1100 C   0  0  0  0  0  0  0  0  0  0  0  0
   39.6250   34.9900   40.8900 H   0  0  0  0  0  0  0  0  0  0  0  0
   41.0870   34.7530   39.2410 N   0  0  0  0  0  0  0  0  0  0  0  0
   41.3520   33.6880   38.4590 C   0  0  0  0  0  0  0  0  0  0  0  0
   42.2280   33.4410   37.4220 C   0  0  0  0  0  0  0  0  0  0  0  0
   42.2710   32.2330   36.8050 N   0  0  0  0  0  0  0  0  0  0  0  0
   41.4570   31.2540   37.1960 C   0  0  0  0  0  0  0  0  0  0  0  0
   41.3500   30.2440   36.8330 H   0  0  0  0  0  0  0  0  0  0  0  0
   40.6010   31.4630   38.1950 N   0  0  0  0  0  0  0  0  0  0  0  0
   40.5030   32.6500   38.8610 C   0  0  0  0  0  0  0  0  0  0  0  0
   43.1110   34.4700   36.9810 N   0  0  0  0  0  0  0  0  0  0  0  0
   44.1100   34.1090   36.9720 H   0  0  0  0  0  0  0  0  0  0  0  0
   42.7180   35.4050   36.7310 H   0  0  0  0  0  0  0  0  0  0  0  0
   38.8470   29.8380   43.1580 O   0  0  0  0  0  0  0  0  0  0  0  0
   38.8560   28.4460   42.9970 C   0  0  0  0  0  0  0  0  0  0  0  0
   38.0840   27.6160   43.5940 O   0  0  0  0  0  0  0  0  0  0  0  0
   39.7740   27.7980   42.1090 N   0  0  0  0  0  0  0  0  0  0  0  0
   40.4530   28.3460   41.5700 H   0  0  0  0  0  0  0  0  0  0  0  0
   39.5340   26.3720   42.1560 C   0  0  0  0  0  0  0  0  0  0  0  0
   40.0420   25.5440   43.1410 C   0  0  0  0  0  0  0  0  0  0  0  0
   39.7120   24.1970   43.0310 C   0  0  0  0  0  0  0  0  0  0  0  0
   38.9470   23.8110   42.0050 N   0  0  0  0  0  0  0  0  0  0  0  0
   38.4740   24.6510   41.0670 C   0  0  0  0  0  0  0  0  0  0  0  0
   38.7740   25.9750   41.1390 N   0  0  0  0  0  0  0  0  0  0  0  0
   40.1100   23.5570   43.8020 H   0  0  0  0  0  0  0  0  0  0  0  0
   37.8610   24.2490   40.2710 H   0  0  0  0  0  0  0  0  0  0  0  0
   40.8360   26.1250   44.1560 N   0  0  0  0  0  0  0  0  0  0  0  0
   40.6130   27.0850   44.4810 H   0  0  0  0  0  0  0  0  0  0  0  0
   41.6640   25.6650   44.6340 H   0  0  0  0  0  0  0  0  0  0  0  0
  2  1  1  0  0  0  0
  2  3  1  0  0  0  0
  3 25  1  0  0  0  0
  4  3  2  0  0  0  0
  4  9  1  0  0  0  0
  5  4  1  0  0  0  0
  6  8  1  0  0  0  0
  6  5  2  0  0  0  0
  7  6  1  0  0  0  0
  8  2  2  0  0  0  0
 10  5  1  0  0  0  0
 11 12  1  0  0  0  0
 11  8  1  0  0  0  0
 12 13  1  0  0  0  0
 14 12  2  0  0  0  0
 15 21  1  0  0  0  0
 15 14  1  0  0  0  0
 16 15  2  0  0  0  0
 17 18  2  0  0  0  0
 17 16  1  0  0  0  0
 18 20  1  0  0  0  0
 19 18  1  0  0  0  0
 20 21  2  0  0  0  0
 21 11  1  0  0  0  0
 22 16  1  0  0  0  0
 23 22  1  0  0  0  0
 24 22  1  0  0  0  0
 26 25  1  0  0  0  0
 26 27  2  0  0  0  0
 28 30  1  0  0  0  0
 28 26  1  0  0  0  0
 29 28  1  0  0  0  0
 30 31  1  0  0  0  0
 31 38  1  0  0  0  0
 32 31  2  0  0  0  0
 32 36  1  0  0  0  0
 33 32  1  0  0  0  0
 34 35  1  0  0  0  0
 34 33  2  0  0  0  0
 35 30  2  0  0  0  0
 37 34  1  0  0  0  0
 38 39  1  0  0  0  0
 38 40  1  0  0  0  0
M  END
>  <minimizedAffinity>
-6.90133524

$$$$

 OpenBabel03252501393D

 40 43  0  0  0  0  0  0  0  0999 V2000
   38.8360   30.2170   42.6230 Cl  0  0  0  0  0  0  0  0  0  0  0  0
   37.8890   30.2380   41.1540 C   0  0  0  0  0  0  0  0  0  0  0  0
   37.7370   31.3860   40.3860 C   0  0  0  0  0  0  0  0  0  0  0  0
   36.9820   31.3360   39.2430 C   0  0  0  0  0  0  0  0  0  0  0  0
   36.3470   30.1960   38.7930 C   0  0  0  0  0  0  0  0  0  0  0  0
   36.4820   29.0370   39.5410 C   0  0  0  0  0  0  0  0  0  0  0  0
   35.7160   27.5360   39.0540 Cl  0  0  0  0  0  0  0  0  0  0  0  0
   37.2410   29.1020   40.6820 C   0  0  0  0  0  0  0  0  0  0  0  0
   36.8970   32.2660   38.6790 H   0  0  0  0  0  0  0  0  0  0  0  0
   35.7540   30.1620   37.8940 H   0  0  0  0  0  0  0  0  0  0  0  0
   37.4190   27.9260   41.5010 N   0  0  0  0  0  0  0  0  0  0  0  0
   36.7430   27.4250   42.5660 C   0  0  0  0  0  0  0  0  0  0  0  0
   35.8800   27.9470   42.9520 H   0  0  0  0  0  0  0  0  0  0  0  0
   37.3480   26.2860   42.9460 N   0  0  0  0  0  0  0  0  0  0  0  0
   38.4000   26.0570   42.1340 C   0  0  0  0  0  0  0  0  0  0  0  0
   39.3600   25.0700   42.0480 C   0  0  0  0  0  0  0  0  0  0  0  0
   40.3260   25.1060   41.0960 N   0  0  0  0  0  0  0  0  0  0  0  0
   40.3640   26.1080   40.2180 C   0  0  0  0  0  0  0  0  0  0  0  0
   41.0440   26.3020   39.4040 H   0  0  0  0  0  0  0  0  0  0  0  0
   39.4500   27.0750   40.2780 N   0  0  0  0  0  0  0  0  0  0  0  0
   38.4500   27.1040   41.2070 C   0  0  0  0  0  0  0  0  0  0  0  0
   39.3460   23.9850   42.9730 N   0  0  0  0  0  0  0  0  0  0  0  0
   39.3640   23.0630   42.4470 H   0  0  0  0  0  0  0  0  0  0  0  0
   39.3200   24.1900   43.9970 H   0  0  0  0  0  0  0  0  0  0  0  0
   38.3770   32.5240   40.8450 O   0  0  0  0  0  0  0  0  0  0  0  0
   39.5060   32.9820   40.1520 C   0  0  0  0  0  0  0  0  0  0  0  0
   39.7290   34.1920   39.7970 O   0  0  0  0  0  0  0  0  0  0  0  0
   40.5590   32.0940   39.7620 N   0  0  0  0  0  0  0  0  0  0  0  0
   40.5060   31.0930   39.9800 H   0  0  0  0  0  0  0  0  0  0  0  0
   41.5790   32.8600   39.0760 C   0  0  0  0  0  0  0  0  0  0  0  0
   41.5610   33.1090   37.7150 C   0  0  0  0  0  0  0  0  0  0  0  0
   42.6220   33.8620   37.2230 C   0  0  0  0  0  0  0  0  0  0  0  0
   43.5580   34.2790   38.0810 N   0  0  0  0  0  0  0  0  0  0  0  0
   43.5370   34.0130   39.3990 C   0  0  0  0  0  0  0  0  0  0  0  0
   42.5170   33.2800   39.9200 N   0  0  0  0  0  0  0  0  0  0  0  0
   42.6020   34.0530   36.1620 H   0  0  0  0  0  0  0  0  0  0  0  0
   44.3390   34.3930   40.0180 H   0  0  0  0  0  0  0  0  0  0  0  0
   40.4880   32.5880   36.9560 N   0  0  0  0  0  0  0  0  0  0  0  0
   39.5470   32.5300   37.3900 H   0  0  0  0  0  0  0  0  0  0  0  0
   40.5490   32.2390   35.9570 H   0  0  0  0  0  0  0  0  0  0  0  0
  2  1  1  0  0  0  0
  3 25  1  0  0  0  0
  3  2  2  0  0  0  0
  4  3  1  0  0  0  0
  5  4  2  0  0  0  0
  5  6  1  0  0  0  0
  6  8  2  0  0  0  0
  7  6  1  0  0  0  0
  8  2  1  0  0  0  0
  8 11  1  0  0  0  0
  9  4  1  0  0  0  0
 10  5  1  0  0  0  0
 11 12  1  0  0  0  0
 12 14  2  0  0  0  0
 12 13  1  0  0  0  0
 15 14  1  0  0  0  0
 16 15  1  0  0  0  0
 16 22  1  0  0  0  0
 17 16  2  0  0  0  0
 18 20  2  0  0  0  0
 18 17  1  0  0  0  0
 19 18  1  0  0  0  0
 20 21  1  0  0  0  0
 21 11  1  0  0  0  0
 21 15  2  0  0  0  0
 22 24  1  0  0  0  0
 23 22  1  0  0  0  0
 26 25  1  0  0  0  0
 27 26  2  0  0  0  0
 28 29  1  0  0  0  0
 28 26  1  0  0  0  0
 30 28  1  0  0  0  0
 30 35  1  0  0  0  0
 31 30  2  0  0  0  0
 32 31  1  0  0  0  0
 32 33  2  0  0  0  0
 33 34  1  0  0  0  0
 34 35  2  0  0  0  0
 34 37  1  0  0  0  0
 36 32  1  0  0  0  0
 38 39  1  0  0  0  0
 38 31  1  0  0  0  0
 40 38  1  0  0  0  0
M  END
>  <minimizedAffinity>
-6.78448009

$$$$

 OpenBabel03252501393D

 40 43  0  0  0  0  0  0  0  0999 V2000
   38.9430   30.1870   42.8180 Cl  0  0  0  0  0  0  0  0  0  0  0  0
   38.0310   30.3890   41.3410 C   0  0  0  0  0  0  0  0  0  0  0  0
   37.9850   31.5980   40.6570 C   0  0  0  0  0  0  0  0  0  0  0  0
   37.2510   31.6900   39.5020 C   0  0  0  0  0  0  0  0  0  0  0  0
   36.5370   30.6400   38.9610 C   0  0  0  0  0  0  0  0  0  0  0  0
   36.5660   29.4230   39.6250 C   0  0  0  0  0  0  0  0  0  0  0  0
   35.6940   28.0280   39.0180 Cl  0  0  0  0  0  0  0  0  0  0  0  0
   37.3050   29.3450   40.7780 C   0  0  0  0  0  0  0  0  0  0  0  0
   37.2510   32.6630   39.0070 H   0  0  0  0  0  0  0  0  0  0  0  0
   35.9620   30.7180   38.0540 H   0  0  0  0  0  0  0  0  0  0  0  0
   37.3720   28.1030   41.5110 N   0  0  0  0  0  0  0  0  0  0  0  0
   36.6280   27.5760   42.5170 C   0  0  0  0  0  0  0  0  0  0  0  0
   35.7920   28.1290   42.9150 H   0  0  0  0  0  0  0  0  0  0  0  0
   37.1400   26.3720   42.8260 N   0  0  0  0  0  0  0  0  0  0  0  0
   38.1990   26.1280   42.0300 C   0  0  0  0  0  0  0  0  0  0  0  0
   39.0910   25.0830   41.8970 C   0  0  0  0  0  0  0  0  0  0  0  0
   40.0890   25.1180   40.9780 N   0  0  0  0  0  0  0  0  0  0  0  0
   40.2250   26.1760   40.1800 C   0  0  0  0  0  0  0  0  0  0  0  0
   40.9440   26.3800   39.4020 H   0  0  0  0  0  0  0  0  0  0  0  0
   39.3790   27.2000   40.2850 N   0  0  0  0  0  0  0  0  0  0  0  0
   38.3540   27.2330   41.1850 C   0  0  0  0  0  0  0  0  0  0  0  0
   38.9710   23.9380   42.7370 N   0  0  0  0  0  0  0  0  0  0  0  0
   38.9420   23.0570   42.1440 H   0  0  0  0  0  0  0  0  0  0  0  0
   38.9250   24.0690   43.7730 H   0  0  0  0  0  0  0  0  0  0  0  0
   38.7030   32.6450   41.2070 O   0  0  0  0  0  0  0  0  0  0  0  0
   39.9850   32.9110   40.7090 C   0  0  0  0  0  0  0  0  0  0  0  0
   40.7860   32.0510   40.1990 O   0  0  0  0  0  0  0  0  0  0  0  0
   40.5410   34.2310   40.7280 N   0  0  0  0  0  0  0  0  0  0  0  0
   40.0060   35.0170   41.1150 H   0  0  0  0  0  0  0  0  0  0  0  0
   41.8640   34.1850   40.1430 C   0  0  0  0  0  0  0  0  0  0  0  0
   43.0150   33.9610   40.8770 C   0  0  0  0  0  0  0  0  0  0  0  0
   44.2030   33.9490   40.1530 C   0  0  0  0  0  0  0  0  0  0  0  0
   44.1450   34.1520   38.8330 N   0  0  0  0  0  0  0  0  0  0  0  0
   43.0020   34.3670   38.1590 C   0  0  0  0  0  0  0  0  0  0  0  0
   41.8200   34.3860   38.8300 N   0  0  0  0  0  0  0  0  0  0  0  0
   45.0970   33.7740   40.7310 H   0  0  0  0  0  0  0  0  0  0  0  0
   43.0510   34.5210   37.0890 H   0  0  0  0  0  0  0  0  0  0  0  0
   42.8900   33.7660   42.2720 N   0  0  0  0  0  0  0  0  0  0  0  0
   42.0510   33.2760   42.6370 H   0  0  0  0  0  0  0  0  0  0  0  0
   43.5880   34.0790   43.0060 H   0  0  0  0  0  0  0  0  0  0  0  0
  2  1  1  0  0  0  0
  3 25  1  0  0  0  0
  3  2  2  0  0  0  0
  4  3  1  0  0  0  0
  5  4  2  0  0  0  0
  5  6  1  0  0  0  0
  6  8  2  0  0  0  0
  7  6  1  0  0  0  0
  8  2  1  0  0  0  0
  8 11  1  0  0  0  0
  9  4  1  0  0  0  0
 10  5  1  0  0  0  0
 11 12  1  0  0  0  0
 12 14  2  0  0  0  0
 12 13  1  0  0  0  0
 15 14  1  0  0  0  0
 16 15  1  0  0  0  0
 16 22  1  0  0  0  0
 17 16  2  0  0  0  0
 18 20  2  0  0  0  0
 18 17  1  0  0  0  0
 19 18  1  0  0  0  0
 20 21  1  0  0  0  0
 21 11  1  0  0  0  0
 21 15  2  0  0  0  0
 22 24  1  0  0  0  0
 23 22  1  0  0  0  0
 26 28  1  0  0  0  0
 26 25  1  0  0  0  0
 27 26  2  0  0  0  0
 28 29  1  0  0  0  0
 30 28  1  0  0  0  0
 30 31  1  0  0  0  0
 31 38  1  0  0  0  0
 32 36  1  0  0  0  0
 32 31  2  0  0  0  0
 33 32  1  0  0  0  0
 34 35  1  0  0  0  0
 34 33  2  0  0  0  0
 35 30  2  0  0  0  0
 37 34  1  0  0  0  0
 38 39  1  0  0  0  0
 38 40  1  0  0  0  0
M  END
>  <minimizedAffinity>
-6.74299097

$$$$

 OpenBabel03252501393D

 40 43  0  0  0  0  0  0  0  0999 V2000
   37.2700   32.6070   39.0790 Cl  0  0  0  0  0  0  0  0  0  0  0  0
   37.9220   31.6680   40.4010 C   0  0  0  0  0  0  0  0  0  0  0  0
   37.1700   30.7140   41.0750 C   0  0  0  0  0  0  0  0  0  0  0  0
   37.7410   30.0110   42.1040 C   0  0  0  0  0  0  0  0  0  0  0  0
   39.0440   30.1890   42.5250 C   0  0  0  0  0  0  0  0  0  0  0  0
   39.8160   31.1350   41.8680 C   0  0  0  0  0  0  0  0  0  0  0  0
   41.4810   31.4370   42.3270 Cl  0  0  0  0  0  0  0  0  0  0  0  0
   39.2310   31.8310   40.8410 C   0  0  0  0  0  0  0  0  0  0  0  0
   37.1040   29.2740   42.5970 H   0  0  0  0  0  0  0  0  0  0  0  0
   39.4870   29.6340   43.3340 H   0  0  0  0  0  0  0  0  0  0  0  0
   39.9870   32.8290   40.1210 N   0  0  0  0  0  0  0  0  0  0  0  0
   40.1670   34.1630   40.2940 C   0  0  0  0  0  0  0  0  0  0  0  0
   39.6830   34.6700   41.1150 H   0  0  0  0  0  0  0  0  0  0  0  0
   40.9810   34.6040   39.3190 N   0  0  0  0  0  0  0  0  0  0  0  0
   41.3200   33.5660   38.5290 C   0  0  0  0  0  0  0  0  0  0  0  0
   42.1080   33.4200   37.4060 C   0  0  0  0  0  0  0  0  0  0  0  0
   42.2690   32.2140   36.8070 N   0  0  0  0  0  0  0  0  0  0  0  0
   41.6600   31.1360   37.3000 C   0  0  0  0  0  0  0  0  0  0  0  0
   41.6710   30.1100   36.9660 H   0  0  0  0  0  0  0  0  0  0  0  0
   40.8940   31.2460   38.3830 N   0  0  0  0  0  0  0  0  0  0  0  0
   40.6870   32.4260   39.0370 C   0  0  0  0  0  0  0  0  0  0  0  0
   42.7720   34.5550   36.8550 N   0  0  0  0  0  0  0  0  0  0  0  0
   43.8080   34.3480   36.7410 H   0  0  0  0  0  0  0  0  0  0  0  0
   42.2170   35.4130   36.6350 H   0  0  0  0  0  0  0  0  0  0  0  0
   35.8650   30.5420   40.6460 O   0  0  0  0  0  0  0  0  0  0  0  0
   35.5840   29.4870   39.7680 C   0  0  0  0  0  0  0  0  0  0  0  0
   35.3250   28.2790   40.1060 O   0  0  0  0  0  0  0  0  0  0  0  0
   35.5610   29.6760   38.3490 N   0  0  0  0  0  0  0  0  0  0  0  0
   35.7560   30.5970   37.9420 H   0  0  0  0  0  0  0  0  0  0  0  0
   35.2360   28.4140   37.7190 C   0  0  0  0  0  0  0  0  0  0  0  0
   33.9400   27.9820   37.4980 C   0  0  0  0  0  0  0  0  0  0  0  0
   33.8110   26.7420   36.8800 C   0  0  0  0  0  0  0  0  0  0  0  0
   34.9230   26.0750   36.5560 N   0  0  0  0  0  0  0  0  0  0  0  0
   36.1660   26.5320   36.7900 C   0  0  0  0  0  0  0  0  0  0  0  0
   36.3340   27.7400   37.3920 N   0  0  0  0  0  0  0  0  0  0  0  0
   32.7990   26.4120   36.7100 H   0  0  0  0  0  0  0  0  0  0  0  0
   37.0080   25.9220   36.4920 H   0  0  0  0  0  0  0  0  0  0  0  0
   32.8790   28.8210   37.9080 N   0  0  0  0  0  0  0  0  0  0  0  0
   33.0000   29.8500   37.8500 H   0  0  0  0  0  0  0  0  0  0  0  0
   31.9410   28.4950   38.2820 H   0  0  0  0  0  0  0  0  0  0  0  0
  1  2  1  0  0  0  0
  2  8  2  0  0  0  0
  2  3  1  0  0  0  0
  3  4  2  0  0  0  0
  4  5  1  0  0  0  0
  4  9  1  0  0  0  0
  5 10  1  0  0  0  0
  6  7  1  0  0  0  0
  6  5  2  0  0  0  0
  8  6  1  0  0  0  0
 11 12  1  0  0  0  0
 11  8  1  0  0  0  0
 12 13  1  0  0  0  0
 14 12  2  0  0  0  0
 15 21  1  0  0  0  0
 15 14  1  0  0  0  0
 16 15  2  0  0  0  0
 17 18  2  0  0  0  0
 17 16  1  0  0  0  0
 18 20  1  0  0  0  0
 19 18  1  0  0  0  0
 20 21  2  0  0  0  0
 21 11  1  0  0  0  0
 22 16  1  0  0  0  0
 23 22  1  0  0  0  0
 24 22  1  0  0  0  0
 25  3  1  0  0  0  0
 26 27  2  0  0  0  0
 26 25  1  0  0  0  0
 28 26  1  0  0  0  0
 29 28  1  0  0  0  0
 30 28  1  0  0  0  0
 31 30  1  0  0  0  0
 31 38  1  0  0  0  0
 32 31  2  0  0  0  0
 33 34  2  0  0  0  0
 33 32  1  0  0  0  0
 34 35  1  0  0  0  0
 35 30  2  0  0  0  0
 36 32  1  0  0  0  0
 37 34  1  0  0  0  0
 38 40  1  0  0  0  0
 39 38  1  0  0  0  0
M  END
>  <minimizedAffinity>
-6.69784307

$$$$

 OpenBabel03252501393D

 40 43  0  0  0  0  0  0  0  0999 V2000
   40.6810   29.2170   39.9940 Cl  0  0  0  0  0  0  0  0  0  0  0  0
   39.1420   29.9180   40.4350 C   0  0  0  0  0  0  0  0  0  0  0  0
   38.3260   29.3620   41.4140 C   0  0  0  0  0  0  0  0  0  0  0  0
   37.1300   29.9610   41.7130 C   0  0  0  0  0  0  0  0  0  0  0  0
   36.6700   31.1060   41.0950 C   0  0  0  0  0  0  0  0  0  0  0  0
   37.4640   31.6810   40.1150 C   0  0  0  0  0  0  0  0  0  0  0  0
   36.9690   33.1360   39.2700 Cl  0  0  0  0  0  0  0  0  0  0  0  0
   38.6580   31.0710   39.8250 C   0  0  0  0  0  0  0  0  0  0  0  0
   36.5320   29.4820   42.4900 H   0  0  0  0  0  0  0  0  0  0  0  0
   35.7290   31.5730   41.3340 H   0  0  0  0  0  0  0  0  0  0  0  0
   39.5270   31.6250   38.8140 N   0  0  0  0  0  0  0  0  0  0  0  0
   39.7350   31.3310   37.5050 C   0  0  0  0  0  0  0  0  0  0  0  0
   39.1810   30.5320   37.0370 H   0  0  0  0  0  0  0  0  0  0  0  0
   40.6710   32.1730   37.0330 N   0  0  0  0  0  0  0  0  0  0  0  0
   41.0590   32.9980   38.0250 C   0  0  0  0  0  0  0  0  0  0  0  0
   41.9630   34.0360   38.1250 C   0  0  0  0  0  0  0  0  0  0  0  0
   42.1470   34.7040   39.2910 N   0  0  0  0  0  0  0  0  0  0  0  0
   41.4470   34.3640   40.3730 C   0  0  0  0  0  0  0  0  0  0  0  0
   41.4560   34.7740   41.3710 H   0  0  0  0  0  0  0  0  0  0  0  0
   40.5670   33.3670   40.3070 N   0  0  0  0  0  0  0  0  0  0  0  0
   40.3300   32.6520   39.1690 C   0  0  0  0  0  0  0  0  0  0  0  0
   42.7270   34.4210   36.9840 N   0  0  0  0  0  0  0  0  0  0  0  0
   42.6240   35.4650   36.8180 H   0  0  0  0  0  0  0  0  0  0  0  0
   43.2680   33.6940   36.4650 H   0  0  0  0  0  0  0  0  0  0  0  0
   38.7960   28.2140   42.0280 O   0  0  0  0  0  0  0  0  0  0  0  0
   38.4740   26.9740   41.4630 C   0  0  0  0  0  0  0  0  0  0  0  0
   37.2910   26.5160   41.2830 O   0  0  0  0  0  0  0  0  0  0  0  0
   39.4860   26.0650   41.0160 N   0  0  0  0  0  0  0  0  0  0  0  0
   40.4800   26.3050   41.1050 H   0  0  0  0  0  0  0  0  0  0  0  0
   38.8440   24.8840   40.4790 C   0  0  0  0  0  0  0  0  0  0  0  0
   38.4730   23.7980   41.2510 C   0  0  0  0  0  0  0  0  0  0  0  0
   37.8670   22.7480   40.5700 C   0  0  0  0  0  0  0  0  0  0  0  0
   37.6920   22.8630   39.2500 N   0  0  0  0  0  0  0  0  0  0  0  0
   38.0690   23.9390   38.5360 C   0  0  0  0  0  0  0  0  0  0  0  0
   38.6640   24.9860   39.1650 N   0  0  0  0  0  0  0  0  0  0  0  0
   37.5800   21.9040   41.1780 H   0  0  0  0  0  0  0  0  0  0  0  0
   37.8860   23.9440   37.4700 H   0  0  0  0  0  0  0  0  0  0  0  0
   38.7360   23.8470   42.6400 N   0  0  0  0  0  0  0  0  0  0  0  0
   38.6750   24.7590   43.1310 H   0  0  0  0  0  0  0  0  0  0  0  0
   38.9990   23.0190   43.2500 H   0  0  0  0  0  0  0  0  0  0  0  0
  1  2  1  0  0  0  0
  2  3  1  0  0  0  0
  3  4  2  0  0  0  0
  3 25  1  0  0  0  0
  4  9  1  0  0  0  0
  5 10  1  0  0  0  0
  5  4  1  0  0  0  0
  6  5  2  0  0  0  0
  7  6  1  0  0  0  0
  8  6  1  0  0  0  0
  8  2  2  0  0  0  0
 11 21  1  0  0  0  0
 11  8  1  0  0  0  0
 12 11  1  0  0  0  0
 13 12  1  0  0  0  0
 14 12  2  0  0  0  0
 14 15  1  0  0  0  0
 15 16  2  0  0  0  0
 15 21  1  0  0  0  0
 16 17  1  0  0  0  0
 17 18  2  0  0  0  0
 18 19  1  0  0  0  0
 20 18  1  0  0  0  0
 21 20  2  0  0  0  0
 22 16  1  0  0  0  0
 23 22  1  0  0  0  0
 24 22  1  0  0  0  0
 26 25  1  0  0  0  0
 27 26  2  0  0  0  0
 28 29  1  0  0  0  0
 28 26  1  0  0  0  0
 30 28  1  0  0  0  0
 30 31  1  0  0  0  0
 31 38  1  0  0  0  0
 32 36  1  0  0  0  0
 32 31  2  0  0  0  0
 33 32  1  0  0  0  0
 34 35  1  0  0  0  0
 34 33  2  0  0  0  0
 35 30  2  0  0  0  0
 37 34  1  0  0  0  0
 38 39  1  0  0  0  0
 38 40  1  0  0  0  0
M  END
>  <minimizedAffinity>
-6.57575607

$$$$

 OpenBabel03252501393D

 40 43  0  0  0  0  0  0  0  0999 V2000
   39.9570   28.6680   37.8380 Cl  0  0  0  0  0  0  0  0  0  0  0  0
   38.6590   29.6570   38.4650 C   0  0  0  0  0  0  0  0  0  0  0  0
   38.5090   30.9930   38.1150 C   0  0  0  0  0  0  0  0  0  0  0  0
   37.4680   31.7140   38.6420 C   0  0  0  0  0  0  0  0  0  0  0  0
   36.5380   31.1910   39.5170 C   0  0  0  0  0  0  0  0  0  0  0  0
   36.6650   29.8590   39.8820 C   0  0  0  0  0  0  0  0  0  0  0  0
   35.5350   29.1000   40.9870 Cl  0  0  0  0  0  0  0  0  0  0  0  0
   37.7110   29.1500   39.3470 C   0  0  0  0  0  0  0  0  0  0  0  0
   37.3990   32.7580   38.3320 H   0  0  0  0  0  0  0  0  0  0  0  0
   35.7230   31.7610   39.9270 H   0  0  0  0  0  0  0  0  0  0  0  0
   37.8930   27.7600   39.6920 N   0  0  0  0  0  0  0  0  0  0  0  0
   37.5710   26.5980   39.0680 C   0  0  0  0  0  0  0  0  0  0  0  0
   37.0720   26.6200   38.1120 H   0  0  0  0  0  0  0  0  0  0  0  0
   37.9790   25.5810   39.8470 N   0  0  0  0  0  0  0  0  0  0  0  0
   38.5570   26.0820   40.9560 C   0  0  0  0  0  0  0  0  0  0  0  0
   39.1420   25.5300   42.0770 C   0  0  0  0  0  0  0  0  0  0  0  0
   39.6550   26.3090   43.0630 N   0  0  0  0  0  0  0  0  0  0  0  0
   39.5990   27.6370   42.9630 C   0  0  0  0  0  0  0  0  0  0  0  0
   39.9490   28.4060   43.6340 H   0  0  0  0  0  0  0  0  0  0  0  0
   39.0400   28.1980   41.8920 N   0  0  0  0  0  0  0  0  0  0  0  0
   38.5050   27.4780   40.8630 C   0  0  0  0  0  0  0  0  0  0  0  0
   39.2160   24.1130   42.2130 N   0  0  0  0  0  0  0  0  0  0  0  0
   40.2170   23.8210   42.4150 H   0  0  0  0  0  0  0  0  0  0  0  0
   38.3450   23.5460   42.1070 H   0  0  0  0  0  0  0  0  0  0  0  0
   39.4470   31.5100   37.2380 O   0  0  0  0  0  0  0  0  0  0  0  0
   40.6550   31.9920   37.7580 C   0  0  0  0  0  0  0  0  0  0  0  0
   40.7850   32.7120   38.8090 O   0  0  0  0  0  0  0  0  0  0  0  0
   41.9100   31.7090   37.1300 N   0  0  0  0  0  0  0  0  0  0  0  0
   41.9510   31.1440   36.2740 H   0  0  0  0  0  0  0  0  0  0  0  0
   42.9650   32.3320   37.9010 C   0  0  0  0  0  0  0  0  0  0  0  0
   43.3730   33.6420   37.7170 C   0  0  0  0  0  0  0  0  0  0  0  0
   44.4010   34.0790   38.5460 C   0  0  0  0  0  0  0  0  0  0  0  0
   44.9070   33.2210   39.4370 N   0  0  0  0  0  0  0  0  0  0  0  0
   44.4800   31.9540   39.5830 C   0  0  0  0  0  0  0  0  0  0  0  0
   43.4770   31.4890   38.7920 N   0  0  0  0  0  0  0  0  0  0  0  0
   44.7140   35.1000   38.3970 H   0  0  0  0  0  0  0  0  0  0  0  0
   44.9500   31.3310   40.3320 H   0  0  0  0  0  0  0  0  0  0  0  0
   42.7230   34.4090   36.7230 N   0  0  0  0  0  0  0  0  0  0  0  0
   41.7130   34.2500   36.5450 H   0  0  0  0  0  0  0  0  0  0  0  0
   43.1780   35.1550   36.1210 H   0  0  0  0  0  0  0  0  0  0  0  0
  1  2  1  0  0  0  0
  2  8  1  0  0  0  0
  3  2  2  0  0  0  0
  3  4  1  0  0  0  0
  4  5  2  0  0  0  0
  5  6  1  0  0  0  0
  5 10  1  0  0  0  0
  6  7  1  0  0  0  0
  8 11  1  0  0  0  0
  8  6  2  0  0  0  0
  9  4  1  0  0  0  0
 11 21  1  0  0  0  0
 12 11  1  0  0  0  0
 12 14  2  0  0  0  0
 13 12  1  0  0  0  0
 14 15  1  0  0  0  0
 15 16  1  0  0  0  0
 16 22  1  0  0  0  0
 16 17  2  0  0  0  0
 18 17  1  0  0  0  0
 18 19  1  0  0  0  0
 20 18  2  0  0  0  0
 21 15  2  0  0  0  0
 21 20  1  0  0  0  0
 22 23  1  0  0  0  0
 24 22  1  0  0  0  0
 25 26  1  0  0  0  0
 25  3  1  0  0  0  0
 26 27  2  0  0  0  0
 28 26  1  0  0  0  0
 28 30  1  0  0  0  0
 29 28  1  0  0  0  0
 30 35  1  0  0  0  0
 31 30  2  0  0  0  0
 31 32  1  0  0  0  0
 32 33  2  0  0  0  0
 33 34  1  0  0  0  0
 34 37  1  0  0  0  0
 35 34  2  0  0  0  0
 36 32  1  0  0  0  0
 38 31  1  0  0  0  0
 39 38  1  0  0  0  0
 40 38  1  0  0  0  0
M  END
>  <minimizedAffinity>
-6.15808678

$$$$

 OpenBabel03252501393D

 40 43  0  0  0  0  0  0  0  0999 V2000
   39.4150   27.4060   38.6780 Cl  0  0  0  0  0  0  0  0  0  0  0  0
   38.3620   28.2840   39.7630 C   0  0  0  0  0  0  0  0  0  0  0  0
   37.9730   29.5960   39.5190 C   0  0  0  0  0  0  0  0  0  0  0  0
   37.1450   30.2290   40.4100 C   0  0  0  0  0  0  0  0  0  0  0  0
   36.6600   29.6380   41.5590 C   0  0  0  0  0  0  0  0  0  0  0  0
   37.0340   28.3300   41.8260 C   0  0  0  0  0  0  0  0  0  0  0  0
   36.4710   27.4900   43.2590 Cl  0  0  0  0  0  0  0  0  0  0  0  0
   37.8620   27.7090   40.9260 C   0  0  0  0  0  0  0  0  0  0  0  0
   36.8710   31.2570   40.1670 H   0  0  0  0  0  0  0  0  0  0  0  0
   36.0100   30.1400   42.2560 H   0  0  0  0  0  0  0  0  0  0  0  0
   38.2840   26.3470   41.1510 N   0  0  0  0  0  0  0  0  0  0  0  0
   39.3090   25.7950   41.8490 C   0  0  0  0  0  0  0  0  0  0  0  0
   40.0050   26.4280   42.3770 H   0  0  0  0  0  0  0  0  0  0  0  0
   39.2290   24.4590   41.7200 N   0  0  0  0  0  0  0  0  0  0  0  0
   38.1660   24.1560   40.9490 C   0  0  0  0  0  0  0  0  0  0  0  0
   37.6060   22.9820   40.4880 C   0  0  0  0  0  0  0  0  0  0  0  0
   36.5000   22.9870   39.7030 N   0  0  0  0  0  0  0  0  0  0  0  0
   35.9290   24.1400   39.3590 C   0  0  0  0  0  0  0  0  0  0  0  0
   35.0590   24.3390   38.7540 H   0  0  0  0  0  0  0  0  0  0  0  0
   36.4470   25.2900   39.7900 N   0  0  0  0  0  0  0  0  0  0  0  0
   37.5560   25.3610   40.5810 C   0  0  0  0  0  0  0  0  0  0  0  0
   38.1950   21.7320   40.8380 N   0  0  0  0  0  0  0  0  0  0  0  0
   37.4590   21.0900   41.2550 H   0  0  0  0  0  0  0  0  0  0  0  0
   39.2150   21.5830   40.6640 H   0  0  0  0  0  0  0  0  0  0  0  0
   38.4640   30.1800   38.3640 O   0  0  0  0  0  0  0  0  0  0  0  0
   39.5450   31.0650   38.4710 C   0  0  0  0  0  0  0  0  0  0  0  0
   40.4920   30.9940   39.3310 O   0  0  0  0  0  0  0  0  0  0  0  0
   39.6930   32.1810   37.5860 N   0  0  0  0  0  0  0  0  0  0  0  0
   39.0000   32.3600   36.8500 H   0  0  0  0  0  0  0  0  0  0  0  0
   40.9000   32.8960   37.9400 C   0  0  0  0  0  0  0  0  0  0  0  0
   40.9450   33.8900   38.9030 C   0  0  0  0  0  0  0  0  0  0  0  0
   42.1900   34.4720   39.1160 C   0  0  0  0  0  0  0  0  0  0  0  0
   43.2270   34.0400   38.3900 N   0  0  0  0  0  0  0  0  0  0  0  0
   43.1390   33.0700   37.4630 C   0  0  0  0  0  0  0  0  0  0  0  0
   41.9400   32.4760   37.2250 N   0  0  0  0  0  0  0  0  0  0  0  0
   42.2180   35.2450   39.8670 H   0  0  0  0  0  0  0  0  0  0  0  0
   44.0330   32.7850   36.9240 H   0  0  0  0  0  0  0  0  0  0  0  0
   39.7460   34.2210   39.5740 N   0  0  0  0  0  0  0  0  0  0  0  0
   39.0550   33.4710   39.7690 H   0  0  0  0  0  0  0  0  0  0  0  0
   39.4720   35.1890   39.9110 H   0  0  0  0  0  0  0  0  0  0  0  0
  1  2  1  0  0  0  0
  2  8  1  0  0  0  0
  3  2  2  0  0  0  0
  3  4  1  0  0  0  0
  4  5  2  0  0  0  0
  5  6  1  0  0  0  0
  5 10  1  0  0  0  0
  6  7  1  0  0  0  0
  8 11  1  0  0  0  0
  8  6  2  0  0  0  0
  9  4  1  0  0  0  0
 11 12  1  0  0  0  0
 12 13  1  0  0  0  0
 14 12  2  0  0  0  0
 15 14  1  0  0  0  0
 16 22  1  0  0  0  0
 16 15  2  0  0  0  0
 17 16  1  0  0  0  0
 18 17  2  0  0  0  0
 18 20  1  0  0  0  0
 19 18  1  0  0  0  0
 20 21  2  0  0  0  0
 21 15  1  0  0  0  0
 21 11  1  0  0  0  0
 22 23  1  0  0  0  0
 24 22  1  0  0  0  0
 25 26  1  0  0  0  0
 25  3  1  0  0  0  0
 26 27  2  0  0  0  0
 28 30  1  0  0  0  0
 28 26  1  0  0  0  0
 29 28  1  0  0  0  0
 30 31  1  0  0  0  0
 31 32  2  0  0  0  0
 31 38  1  0  0  0  0
 32 36  1  0  0  0  0
 33 32  1  0  0  0  0
 34 33  2  0  0  0  0
 35 34  1  0  0  0  0
 35 30  2  0  0  0  0
 37 34  1  0  0  0  0
 38 39  1  0  0  0  0
 38 40  1  0  0  0  0
M  END
>  <minimizedAffinity>
-6.14477062

$$$$

 OpenBabel03252501393D

 40 43  0  0  0  0  0  0  0  0999 V2000
   36.4500   27.7800   40.3790 Cl  0  0  0  0  0  0  0  0  0  0  0  0
   37.6650   27.5530   41.6160 C   0  0  0  0  0  0  0  0  0  0  0  0
   38.1890   28.6130   42.3450 C   0  0  0  0  0  0  0  0  0  0  0  0
   39.1390   28.3680   43.3020 C   0  0  0  0  0  0  0  0  0  0  0  0
   39.6230   27.1090   43.5970 C   0  0  0  0  0  0  0  0  0  0  0  0
   39.1170   26.0340   42.8830 C   0  0  0  0  0  0  0  0  0  0  0  0
   39.6660   24.3950   43.1830 Cl  0  0  0  0  0  0  0  0  0  0  0  0
   38.1660   26.2940   41.9290 C   0  0  0  0  0  0  0  0  0  0  0  0
   39.5150   29.2380   43.8430 H   0  0  0  0  0  0  0  0  0  0  0  0
   40.3700   26.9220   44.3490 H   0  0  0  0  0  0  0  0  0  0  0  0
   37.6030   25.2130   41.1550 N   0  0  0  0  0  0  0  0  0  0  0  0
   36.5500   24.3800   41.3530 C   0  0  0  0  0  0  0  0  0  0  0  0
   35.9510   24.4690   42.2460 H   0  0  0  0  0  0  0  0  0  0  0  0
   36.4740   23.5490   40.2990 N   0  0  0  0  0  0  0  0  0  0  0  0
   37.4650   23.8440   39.4350 C   0  0  0  0  0  0  0  0  0  0  0  0
   37.8700   23.3400   38.2160 C   0  0  0  0  0  0  0  0  0  0  0  0
   38.9380   23.8560   37.5570 N   0  0  0  0  0  0  0  0  0  0  0  0
   39.6230   24.8700   38.0850 C   0  0  0  0  0  0  0  0  0  0  0  0
   40.4840   25.4030   37.7150 H   0  0  0  0  0  0  0  0  0  0  0  0
   39.2550   25.3770   39.2600 N   0  0  0  0  0  0  0  0  0  0  0  0
   38.1920   24.9100   39.9780 C   0  0  0  0  0  0  0  0  0  0  0  0
   37.1580   22.2550   37.6260 N   0  0  0  0  0  0  0  0  0  0  0  0
   36.8790   22.5030   36.6320 H   0  0  0  0  0  0  0  0  0  0  0  0
   36.9930   21.3900   38.1880 H   0  0  0  0  0  0  0  0  0  0  0  0
   37.6980   29.8720   42.0420 O   0  0  0  0  0  0  0  0  0  0  0  0
   38.5100   30.7470   41.3090 C   0  0  0  0  0  0  0  0  0  0  0  0
   39.7660   30.9290   41.4820 O   0  0  0  0  0  0  0  0  0  0  0  0
   37.9810   31.5550   40.2510 N   0  0  0  0  0  0  0  0  0  0  0  0
   36.9850   31.5120   40.0080 H   0  0  0  0  0  0  0  0  0  0  0  0
   39.0580   32.3400   39.6860 C   0  0  0  0  0  0  0  0  0  0  0  0
   39.4650   33.5590   40.2000 C   0  0  0  0  0  0  0  0  0  0  0  0
   40.5160   34.1780   39.5320 C   0  0  0  0  0  0  0  0  0  0  0  0
   41.0420   33.5640   38.4660 N   0  0  0  0  0  0  0  0  0  0  0  0
   40.6140   32.3780   38.0000 C   0  0  0  0  0  0  0  0  0  0  0  0
   39.5900   31.7400   38.6250 N   0  0  0  0  0  0  0  0  0  0  0  0
   40.8290   35.1270   39.9370 H   0  0  0  0  0  0  0  0  0  0  0  0
   41.1010   31.9560   37.1300 H   0  0  0  0  0  0  0  0  0  0  0  0
   38.7930   34.0610   41.3380 N   0  0  0  0  0  0  0  0  0  0  0  0
   38.4470   33.3930   42.0520 H   0  0  0  0  0  0  0  0  0  0  0  0
   38.6000   35.0840   41.5420 H   0  0  0  0  0  0  0  0  0  0  0  0
  1  2  1  0  0  0  0
  2  8  2  0  0  0  0
  2  3  1  0  0  0  0
  3  4  2  0  0  0  0
  4  5  1  0  0  0  0
  4  9  1  0  0  0  0
  5 10  1  0  0  0  0
  6  7  1  0  0  0  0
  6  5  2  0  0  0  0
  8  6  1  0  0  0  0
 11 12  1  0  0  0  0
 11  8  1  0  0  0  0
 12 13  1  0  0  0  0
 14 12  2  0  0  0  0
 15 21  1  0  0  0  0
 15 14  1  0  0  0  0
 16 15  2  0  0  0  0
 17 18  2  0  0  0  0
 17 16  1  0  0  0  0
 18 20  1  0  0  0  0
 19 18  1  0  0  0  0
 20 21  2  0  0  0  0
 21 11  1  0  0  0  0
 22 24  1  0  0  0  0
 22 16  1  0  0  0  0
 23 22  1  0  0  0  0
 25  3  1  0  0  0  0
 26 27  2  0  0  0  0
 26 25  1  0  0  0  0
 28 26  1  0  0  0  0
 29 28  1  0  0  0  0
 30 31  1  0  0  0  0
 30 28  1  0  0  0  0
 31 38  1  0  0  0  0
 32 36  1  0  0  0  0
 32 31  2  0  0  0  0
 33 32  1  0  0  0  0
 34 33  2  0  0  0  0
 34 35  1  0  0  0  0
 35 30  2  0  0  0  0
 37 34  1  0  0  0  0
 38 40  1  0  0  0  0
 38 39  1  0  0  0  0
M  END
>  <minimizedAffinity>
-6.13406467

$$$$

 OpenBabel03252501393D

 40 43  0  0  0  0  0  0  0  0999 V2000
   38.2220   28.8300   37.4290 Cl  0  0  0  0  0  0  0  0  0  0  0  0
   37.7020   29.4560   38.9770 C   0  0  0  0  0  0  0  0  0  0  0  0
   37.7050   30.8150   39.2660 C   0  0  0  0  0  0  0  0  0  0  0  0
   37.2840   31.2420   40.4980 C   0  0  0  0  0  0  0  0  0  0  0  0
   36.8470   30.3930   41.4960 C   0  0  0  0  0  0  0  0  0  0  0  0
   36.8350   29.0320   41.2330 C   0  0  0  0  0  0  0  0  0  0  0  0
   36.2980   27.8710   42.4330 Cl  0  0  0  0  0  0  0  0  0  0  0  0
   37.2590   28.6200   39.9950 C   0  0  0  0  0  0  0  0  0  0  0  0
   37.3070   32.3190   40.6700 H   0  0  0  0  0  0  0  0  0  0  0  0
   36.5180   30.7330   42.4630 H   0  0  0  0  0  0  0  0  0  0  0  0
   37.2670   27.2140   39.6650 N   0  0  0  0  0  0  0  0  0  0  0  0
   36.3510   26.3860   39.1010 C   0  0  0  0  0  0  0  0  0  0  0  0
   35.3870   26.7700   38.8060 H   0  0  0  0  0  0  0  0  0  0  0  0
   36.8910   25.1570   39.0250 N   0  0  0  0  0  0  0  0  0  0  0  0
   38.1380   25.1950   39.5330 C   0  0  0  0  0  0  0  0  0  0  0  0
   39.1390   24.2620   39.7130 C   0  0  0  0  0  0  0  0  0  0  0  0
   40.3290   24.6010   40.2700 N   0  0  0  0  0  0  0  0  0  0  0  0
   40.5520   25.8560   40.6590 C   0  0  0  0  0  0  0  0  0  0  0  0
   41.4210   26.3050   41.1130 H   0  0  0  0  0  0  0  0  0  0  0  0
   39.6040   26.7770   40.4980 N   0  0  0  0  0  0  0  0  0  0  0  0
   38.3850   26.5090   39.9450 C   0  0  0  0  0  0  0  0  0  0  0  0
   38.9300   22.9110   39.3080 N   0  0  0  0  0  0  0  0  0  0  0  0
   39.7230   22.5970   38.6760 H   0  0  0  0  0  0  0  0  0  0  0  0
   38.0820   22.4040   39.6460 H   0  0  0  0  0  0  0  0  0  0  0  0
   38.1440   31.6580   38.2600 O   0  0  0  0  0  0  0  0  0  0  0  0
   39.5190   31.9010   38.1440 C   0  0  0  0  0  0  0  0  0  0  0  0
   40.3900   31.7430   39.0700 O   0  0  0  0  0  0  0  0  0  0  0  0
   40.1000   32.3690   36.9220 N   0  0  0  0  0  0  0  0  0  0  0  0
   39.5140   32.5430   36.0980 H   0  0  0  0  0  0  0  0  0  0  0  0
   41.5270   32.5150   37.1130 C   0  0  0  0  0  0  0  0  0  0  0  0
   42.4320   31.4860   36.9240 C   0  0  0  0  0  0  0  0  0  0  0  0
   43.7670   31.8020   37.1540 C   0  0  0  0  0  0  0  0  0  0  0  0
   44.0690   33.0490   37.5320 N   0  0  0  0  0  0  0  0  0  0  0  0
   43.1560   34.0200   37.7040 C   0  0  0  0  0  0  0  0  0  0  0  0
   41.8410   33.7510   37.4900 N   0  0  0  0  0  0  0  0  0  0  0  0
   44.4670   30.9960   37.0050 H   0  0  0  0  0  0  0  0  0  0  0  0
   43.4940   35.0010   38.0120 H   0  0  0  0  0  0  0  0  0  0  0  0
   41.9340   30.2250   36.5220 N   0  0  0  0  0  0  0  0  0  0  0  0
   41.1100   30.1890   35.8920 H   0  0  0  0  0  0  0  0  0  0  0  0
   42.3280   29.2830   36.8090 H   0  0  0  0  0  0  0  0  0  0  0  0
  1  2  1  0  0  0  0
  2  3  2  0  0  0  0
  2  8  1  0  0  0  0
  3  4  1  0  0  0  0
  4  9  1  0  0  0  0
  4  5  2  0  0  0  0
  5 10  1  0  0  0  0
  6  5  1  0  0  0  0
  6  7  1  0  0  0  0
  8  6  2  0  0  0  0
 11 21  1  0  0  0  0
 11  8  1  0  0  0  0
 12 11  1  0  0  0  0
 13 12  1  0  0  0  0
 14 12  2  0  0  0  0
 14 15  1  0  0  0  0
 15 16  2  0  0  0  0
 15 21  1  0  0  0  0
 16 17  1  0  0  0  0
 17 18  2  0  0  0  0
 18 19  1  0  0  0  0
 20 18  1  0  0  0  0
 21 20  2  0  0  0  0
 22 24  1  0  0  0  0
 22 16  1  0  0  0  0
 23 22  1  0  0  0  0
 25  3  1  0  0  0  0
 26 25  1  0  0  0  0
 26 27  2  0  0  0  0
 28 30  1  0  0  0  0
 28 26  1  0  0  0  0
 29 28  1  0  0  0  0
 30 35  1  0  0  0  0
 31 30  2  0  0  0  0
 31 32  1  0  0  0  0
 32 33  2  0  0  0  0
 33 34  1  0  0  0  0
 34 37  1  0  0  0  0
 35 34  2  0  0  0  0
 36 32  1  0  0  0  0
 38 40  1  0  0  0  0
 38 31  1  0  0  0  0
 39 38  1  0  0  0  0
M  END
>  <minimizedAffinity>
-6.11739874

$$$$
