REMARK  Name = 
REMARK  3 active torsions:
REMARK  status: ('A' for Active; 'I' for Inactive)
REMARK    1  A    between atoms: C_1  and  O_7
REMARK    2  A    between atoms: C_3  and  N_11
REMARK    3  A    between atoms: C_16  and  N_17
REMARK                            x       y       z     vdW  Elec       q    Type
REMARK                         _______ _______ _______ _____ _____    ______ ____
ROOT
ATOM      1  N   UNL     1      47.688  33.303  42.956  0.00  0.00    +0.000 N 
ATOM      2  C   UNL     1      49.016  33.062  43.103  0.00  0.00    +0.000 A 
ATOM      3  H   UNL     1      49.538  33.277  44.022  0.00  0.00    +0.000 HD
ATOM      4  N   UNL     1      49.472  32.546  41.942  0.00  0.00    +0.000 NA
ATOM      5  C   UNL     1      48.470  32.449  41.054  0.00  0.00    +0.000 A 
ATOM      6  C   UNL     1      48.335  32.018  39.769  0.00  0.00    +0.000 A 
ATOM      7  N   UNL     1      47.145  32.045  39.112  0.00  0.00    +0.000 NA
ATOM      8  C   UNL     1      46.064  32.507  39.737  0.00  0.00    +0.000 A 
ATOM      9  H   UNL     1      45.045  32.612  39.402  0.00  0.00    +0.000 HD
ATOM     10  N   UNL     1      46.169  32.934  40.992  0.00  0.00    +0.000 NA
ATOM     11  C   UNL     1      47.337  32.928  41.693  0.00  0.00    +0.000 A 
ENDROOT
BRANCH   1  14
ATOM     12  C   UNL     1      45.002  35.486  44.186  0.00  0.00    +0.000 A 
ATOM     13  C   UNL     1      45.980  34.926  43.348  0.00  0.00    +0.000 A 
ATOM     14  C   UNL     1      46.709  33.836  43.841  0.00  0.00    +0.000 A 
ATOM     15  N   UNL     1      46.439  33.379  45.089  0.00  0.00    +0.000 NA
ATOM     16  C   UNL     1      45.497  33.941  45.858  0.00  0.00    +0.000 A 
ATOM     17  N   UNL     1      44.786  34.985  45.409  0.00  0.00    +0.000 NA
ATOM     18  H   UNL     1      46.154  35.328  42.364  0.00  0.00    +0.000 HD
ATOM     19  H   UNL     1      45.289  33.573  46.848  0.00  0.00    +0.000 HD
BRANCH  12  20
ATOM     20  O   UNL     1      44.285  36.551  43.712  0.00  0.00    +0.000 OA
ATOM     21  H   UNL     1      43.633  36.335  42.942  0.00  0.00    +0.000 HD
ENDBRANCH  12  20
ENDBRANCH   1  14
BRANCH   6  22
ATOM     22  N   UNL     1      49.468  31.517  39.066  0.00  0.00    +0.000 N 
ATOM     23  H   UNL     1      49.924  30.601  38.981  0.00  0.00    +0.000 HD
ATOM     24  H   UNL     1      49.801  32.378  38.580  0.00  0.00    +0.000 HD
ENDBRANCH   6  22
TORSDOF 3
