REMARK  Name = 
REMARK  5 active torsions:
REMARK  status: ('A' for Active; 'I' for Inactive)
REMARK    1  A    between atoms: C_1  and  C_13
REMARK    2  A    between atoms: C_3  and  C_7
REMARK    3  A    between atoms: C_5  and  C_17
REMARK    4  A    between atoms: C_12  and  N_32
REMARK    5  A    between atoms: C_37  and  N_38
REMARK                            x       y       z     vdW  Elec       q    Type
REMARK                         _______ _______ _______ _____ _____    ______ ____
ROOT
ATOM      1  C   UNL     1      46.953  32.342  45.351  0.00  0.00    +0.000 C 
ATOM      2  C   UNL     1      45.920  31.287  44.924  0.00  0.00    +0.000 C 
ATOM      3  C   UNL     1      46.218  30.087  45.843  0.00  0.00    +0.000 C 
ATOM      4  C   UNL     1      45.652  30.550  47.182  0.00  0.00    +0.000 C 
ATOM      5  C   UNL     1      46.411  31.711  47.694  0.00  0.00    +0.000 C 
ATOM      6  C   UNL     1      46.654  32.823  46.721  0.00  0.00    +0.000 C 
ATOM      7  H   UNL     1      47.944  31.814  45.358  0.00  0.00    +0.000 HD
ATOM      8  H   UNL     1      46.084  31.023  43.872  0.00  0.00    +0.000 HD
ATOM      9  H   UNL     1      44.934  31.721  45.157  0.00  0.00    +0.000 HD
ATOM     10  H   UNL     1      45.633  29.244  45.472  0.00  0.00    +0.000 HD
ATOM     11  H   UNL     1      47.304  29.922  45.898  0.00  0.00    +0.000 HD
ATOM     12  H   UNL     1      44.600  30.835  46.968  0.00  0.00    +0.000 HD
ATOM     13  H   UNL     1      45.745  29.715  47.877  0.00  0.00    +0.000 HD
ATOM     14  H   UNL     1      45.806  32.161  48.532  0.00  0.00    +0.000 HD
ATOM     15  H   UNL     1      47.348  31.372  48.181  0.00  0.00    +0.000 HD
ATOM     16  H   UNL     1      45.713  33.446  46.677  0.00  0.00    +0.000 HD
ENDROOT
BRANCH   6  17
ATOM     17  N   UNL     1      47.672  33.663  47.252  0.00  0.00    +0.000 N 
ATOM     18  C   UNL     1      47.557  35.008  47.385  0.00  0.00    +0.000 A 
ATOM     19  H   UNL     1      46.728  35.688  47.137  0.00  0.00    +0.000 HD
ATOM     20  N   UNL     1      48.679  35.532  47.917  0.00  0.00    +0.000 NA
ATOM     21  C   UNL     1      49.542  34.529  48.136  0.00  0.00    +0.000 A 
ATOM     22  C   UNL     1      50.820  34.349  48.637  0.00  0.00    +0.000 A 
ATOM     23  N   UNL     1      51.418  33.148  48.721  0.00  0.00    +0.000 NA
ATOM     24  C   UNL     1      50.763  32.050  48.304  0.00  0.00    +0.000 A 
ATOM     25  H   UNL     1      51.215  31.068  48.357  0.00  0.00    +0.000 HD
ATOM     26  N   UNL     1      49.513  32.178  47.808  0.00  0.00    +0.000 NA
ATOM     27  C   UNL     1      48.903  33.377  47.719  0.00  0.00    +0.000 A 
BRANCH  22  28
ATOM     28  N   UNL     1      51.510  35.512  49.077  0.00  0.00    +0.000 N 
ATOM     29  H   UNL     1      51.509  36.292  49.747  0.00  0.00    +0.000 HD
ATOM     30  H   UNL     1      52.362  35.609  48.470  0.00  0.00    +0.000 HD
ENDBRANCH  22  28
ENDBRANCH   6  17
BRANCH   1  33
ATOM     31  C   UNL     1      47.934  34.504  42.447  0.00  0.00    +0.000 A 
ATOM     32  C   UNL     1      48.029  33.477  43.406  0.00  0.00    +0.000 A 
ATOM     33  C   UNL     1      46.963  33.353  44.319  0.00  0.00    +0.000 A 
ATOM     34  N   UNL     1      45.916  34.234  44.211  0.00  0.00    +0.000 NA
ATOM     35  C   UNL     1      45.871  35.188  43.288  0.00  0.00    +0.000 A 
ATOM     36  N   UNL     1      46.876  35.328  42.405  0.00  0.00    +0.000 NA
ATOM     37  H   UNL     1      48.860  32.789  43.481  0.00  0.00    +0.000 HD
BRANCH  31  38
ATOM     38  C   UNL     1      49.069  34.626  41.486  0.00  0.00    +0.000 C 
ATOM     39  F   UNL     1      49.172  33.513  40.682  0.00  0.00    +0.000 F 
ATOM     40  F   UNL     1      48.896  35.792  40.741  0.00  0.00    +0.000 F 
ATOM     41  F   UNL     1      50.263  34.819  42.206  0.00  0.00    +0.000 F 
ENDBRANCH  31  38
BRANCH  35  42
ATOM     42  C   UNL     1      44.709  36.125  43.213  0.00  0.00    +0.000 C 
ATOM     43  F   UNL     1      44.021  35.984  42.047  0.00  0.00    +0.000 F 
ATOM     44  F   UNL     1      45.162  37.453  43.380  0.00  0.00    +0.000 F 
ATOM     45  F   UNL     1      43.861  35.950  44.281  0.00  0.00    +0.000 F 
ENDBRANCH  35  42
ENDBRANCH   1  33
TORSDOF 5
