
     RDKit          3D

 40 43  0  0  0  0  0  0  0  0999 V2000
   44.3926   34.8602   41.9851 C   0  0  0  0  0  0  0  0  0  0  0  0
   44.1834   33.6484   42.3423 O   0  0  0  0  0  0  0  0  0  0  0  0
   45.3302   35.5267   42.8384 N   0  0  0  0  0  0  0  0  0  0  0  0
   45.7673   34.6003   43.8604 C   0  0  0  0  0  0  0  0  0  0  0  0
   45.2261   34.5562   45.1327 C   0  0  0  0  0  0  0  0  0  0  0  0
   45.7658   33.6025   45.9892 C   0  0  0  0  0  0  0  0  0  0  0  0
   46.7459   32.8168   45.5287 N   0  0  0  0  0  0  0  0  0  0  0  0
   47.2432   32.8937   44.2822 C   0  0  0  0  0  0  0  0  0  0  0  0
   46.7418   33.8132   43.4150 N   0  0  0  0  0  0  0  0  0  0  0  0
   44.1907   35.4661   45.4491 N   0  0  0  0  0  0  0  0  0  0  0  0
   43.7995   35.5092   40.8939 O   0  0  0  0  0  0  0  0  0  0  0  0
   43.6774   33.6789   38.5854 Cl  0  0  0  0  0  0  0  0  0  0  0  0
   42.3253   34.3261   39.4851 C   0  0  0  0  0  0  0  0  0  0  0  0
   42.4949   35.1863   40.5633 C   0  0  0  0  0  0  0  0  0  0  0  0
   41.3930   35.6589   41.2270 C   0  0  0  0  0  0  0  0  0  0  0  0
   40.0954   35.3311   40.8899 C   0  0  0  0  0  0  0  0  0  0  0  0
   39.8980   34.4744   39.8178 C   0  0  0  0  0  0  0  0  0  0  0  0
   38.2888   33.9968   39.3098 Cl  0  0  0  0  0  0  0  0  0  0  0  0
   41.0097   34.0092   39.1627 C   0  0  0  0  0  0  0  0  0  0  0  0
   45.5855   36.5064   42.6678 H   0  0  0  0  0  0  0  0  0  0  0  0
   45.3401   33.5728   46.9794 H   0  0  0  0  0  0  0  0  0  0  0  0
   48.0373   32.2156   43.9974 H   0  0  0  0  0  0  0  0  0  0  0  0
   43.5149   35.7350   44.7093 H   0  0  0  0  0  0  0  0  0  0  0  0
   44.0296   35.9157   46.3957 H   0  0  0  0  0  0  0  0  0  0  0  0
   41.5856   36.3305   42.0652 H   0  0  0  0  0  0  0  0  0  0  0  0
   39.2327   35.7052   41.4147 H   0  0  0  0  0  0  0  0  0  0  0  0
   40.8659   33.1141   38.0389 N   0  0  0  0  0  0  0  0  0  0  0  0
   39.8929   32.9391   37.1089 C   0  0  0  0  0  0  0  0  0  0  0  0
   39.0041   33.5516   37.1356 H   0  0  0  0  0  0  0  0  0  0  0  0
   40.2802   31.9530   36.2812 N   0  0  0  0  0  0  0  0  0  0  0  0
   41.4873   31.4999   36.6747 C   0  0  0  0  0  0  0  0  0  0  0  0
   42.3515   30.5250   36.2182 C   0  0  0  0  0  0  0  0  0  0  0  0
   42.0032   29.7485   35.0754 N   0  0  0  0  0  0  0  0  0  0  0  0
   42.7907   29.7805   34.3634 H   0  0  0  0  0  0  0  0  0  0  0  0
   43.5358   30.2852   36.8366 N   0  0  0  0  0  0  0  0  0  0  0  0
   43.8867   30.9967   37.9078 C   0  0  0  0  0  0  0  0  0  0  0  0
   44.7724   30.9501   38.5206 H   0  0  0  0  0  0  0  0  0  0  0  0
   43.0728   31.9434   38.3698 N   0  0  0  0  0  0  0  0  0  0  0  0
   41.8680   32.2391   37.7996 C   0  0  0  0  0  0  0  0  0  0  0  0
   41.0790   29.2623   35.0527 H   0  0  0  0  0  0  0  0  0  0  0  0
  1  2  2  0
  1  3  1  0
  3  4  1  0
  4  5  2  0
  5 10  1  0
  5  6  1  0
  7  6  2  0
  8  7  1  0
  9  4  1  0
  9  8  2  0
 11  1  1  0
 12 13  1  0
 13 14  2  0
 14 11  1  0
 14 15  1  0
 16 15  2  0
 17 16  1  0
 18 17  1  0
 19 13  1  0
 19 17  2  0
  3 20  1  0
  6 21  1  0
  8 22  1  0
 10 23  1  0
 10 24  1  0
 15 25  1  0
 16 26  1  0
 27 28  1  0
 28 29  1  0
 28 30  2  0
 30 31  1  0
 31 32  2  0
 32 33  1  0
 33 34  1  0
 32 35  1  0
 35 36  2  0
 36 37  1  0
 36 38  1  0
 38 39  2  0
 39 27  1  0
 39 31  1  0
 33 40  1  0
 19 27  1  0
M  ISO  7  21  14  22  14  25  14  26  14  29  15  34   5  37  16
M  END
>  <DihAtoms>  (1) 
12,18,26,27

>  <DihDeg>  (1) 
118.70075701065385

$$$$
