
     RDKit          3D

 45 48  0  0  0  0  0  0  0  0999 V2000
   47.9343   34.5044   42.4472 C   0  0  0  0  0  0  0  0  0  0  0  0
   48.0291   33.4774   43.4057 C   0  0  0  0  0  0  0  0  0  0  0  0
   46.9627   33.3532   44.3188 C   0  0  0  0  0  0  0  0  0  0  0  0
   45.9158   34.2341   44.2108 N   0  0  0  0  0  0  0  0  0  0  0  0
   45.8714   35.1879   43.2885 C   0  0  0  0  0  0  0  0  0  0  0  0
   46.8762   35.3277   42.4052 N   0  0  0  0  0  0  0  0  0  0  0  0
   46.9528   32.3417   45.3510 C   0  0  2  0  0  0  0  0  0  0  0  0
   45.9203   31.2867   44.9238 C   0  0  0  0  0  0  0  0  0  0  0  0
   46.2175   30.0872   45.8427 C   0  0  0  0  0  0  0  0  0  0  0  0
   45.6521   30.5496   47.1818 C   0  0  0  0  0  0  0  0  0  0  0  0
   46.4109   31.7114   47.6937 C   0  0  0  0  0  0  0  0  0  0  0  0
   46.6538   32.8233   46.7205 C   0  0  1  0  0  0  0  0  0  0  0  0
   49.0688   34.6259   41.4863 C   0  0  0  0  0  0  0  0  0  0  0  0
   49.1715   33.5131   40.6824 F   0  0  0  0  0  0  0  0  0  0  0  0
   48.8958   35.7925   40.7411 F   0  0  0  0  0  0  0  0  0  0  0  0
   50.2628   34.8186   42.2056 F   0  0  0  0  0  0  0  0  0  0  0  0
   44.7092   36.1246   43.2132 C   0  0  0  0  0  0  0  0  0  0  0  0
   44.0214   35.9839   42.0470 F   0  0  0  0  0  0  0  0  0  0  0  0
   45.1623   37.4531   43.3796 F   0  0  0  0  0  0  0  0  0  0  0  0
   43.8613   35.9497   44.2811 F   0  0  0  0  0  0  0  0  0  0  0  0
   48.8600   32.7886   43.4811 H   0  0  0  0  0  0  0  0  0  0  0  0
   47.9444   31.8141   45.3583 H   0  0  0  0  0  0  0  0  0  0  0  0
   46.0835   31.0234   43.8718 H   0  0  0  0  0  0  0  0  0  0  0  0
   44.9335   31.7211   45.1574 H   0  0  0  0  0  0  0  0  0  0  0  0
   45.6326   29.2441   45.4722 H   0  0  0  0  0  0  0  0  0  0  0  0
   47.3037   29.9223   45.8981 H   0  0  0  0  0  0  0  0  0  0  0  0
   44.6001   30.8352   46.9680 H   0  0  0  0  0  0  0  0  0  0  0  0
   45.7453   29.7145   47.8768 H   0  0  0  0  0  0  0  0  0  0  0  0
   45.8063   32.1612   48.5325 H   0  0  0  0  0  0  0  0  0  0  0  0
   47.3476   31.3720   48.1805 H   0  0  0  0  0  0  0  0  0  0  0  0
   45.7130   33.4461   46.6772 H   0  0  0  0  0  0  0  0  0  0  0  0
   47.6724   33.6635   47.2519 N   0  0  0  0  0  0  0  0  0  0  0  0
   47.5568   35.0079   47.3853 C   0  0  0  0  0  0  0  0  0  0  0  0
   46.7285   35.6875   47.1367 H   0  0  0  0  0  0  0  0  0  0  0  0
   48.6791   35.5324   47.9169 N   0  0  0  0  0  0  0  0  0  0  0  0
   49.5416   34.5290   48.1361 C   0  0  0  0  0  0  0  0  0  0  0  0
   50.8198   34.3490   48.6368 C   0  0  0  0  0  0  0  0  0  0  0  0
   51.5096   35.5117   49.0766 N   0  0  0  0  0  0  0  0  0  0  0  0
   51.5092   36.2923   49.7472 H   0  0  0  0  0  0  0  0  0  0  0  0
   51.4183   33.1477   48.7210 N   0  0  0  0  0  0  0  0  0  0  0  0
   50.7630   32.0497   48.3041 C   0  0  0  0  0  0  0  0  0  0  0  0
   51.2146   31.0679   48.3574 H   0  0  0  0  0  0  0  0  0  0  0  0
   49.5126   32.1777   47.8077 N   0  0  0  0  0  0  0  0  0  0  0  0
   48.9029   33.3771   47.7188 C   0  0  0  0  0  0  0  0  0  0  0  0
   52.3618   35.6091   48.4701 H   0  0  0  0  0  0  0  0  0  0  0  0
  1  2  2  0
  2  3  1  0
  3  7  1  0
  4  3  2  0
  5  4  1  0
  6  1  1  0
  6  5  2  0
  7 12  1  0
  8  7  1  0
  8  9  1  0
  9 10  1  0
 10 11  1  0
 12 11  1  0
 13 16  1  0
 13  1  1  0
 14 13  1  0
 15 13  1  0
 17  5  1  0
 17 19  1  0
 17 20  1  0
 18 17  1  0
  2 21  1  0
  7 22  1  1
  8 23  1  0
  8 24  1  0
  9 25  1  0
  9 26  1  0
 10 27  1  0
 10 28  1  0
 11 29  1  0
 11 30  1  0
 12 31  1  6
 32 33  1  0
 33 34  1  0
 33 35  2  0
 35 36  1  0
 36 37  2  0
 37 38  1  0
 38 39  1  0
 37 40  1  0
 40 41  2  0
 41 42  1  0
 41 43  1  0
 43 44  2  0
 44 32  1  0
 44 36  1  0
 38 45  1  0
 12 32  1  0
M  ISO  8  21  14  22  13  23  13  24  13  25  13  26  13  27  13  28  13
M  ISO  6  29  13  30  13  31  13  34  15  39   5  42  16
M  END
>  <DihAtoms>  (1) 
6,11,31,32

>  <DihDeg>  (1) 
-28.978682509088635

$$$$
