
     RDKit          3D

 24 26  0  0  0  0  0  0  0  0999 V2000
   45.0019   35.4855   44.1862 C   0  0  0  0  0  0  0  0  0  0  0  0
   45.9796   34.9259   43.3481 C   0  0  0  0  0  0  0  0  0  0  0  0
   46.7091   33.8357   43.8413 C   0  0  0  0  0  0  0  0  0  0  0  0
   46.4392   33.3793   45.0886 N   0  0  0  0  0  0  0  0  0  0  0  0
   45.4973   33.9412   45.8583 C   0  0  0  0  0  0  0  0  0  0  0  0
   44.7862   34.9846   45.4094 N   0  0  0  0  0  0  0  0  0  0  0  0
   44.2847   36.5509   43.7120 O   0  0  0  0  0  0  0  0  0  0  0  0
   46.1543   35.3275   42.3641 H   0  0  0  0  0  0  0  0  0  0  0  0
   45.2890   33.5728   46.8476 H   0  0  0  0  0  0  0  0  0  0  0  0
   43.6325   36.3351   42.9416 H   0  0  0  0  0  0  0  0  0  0  0  0
   47.6880   33.3028   42.9564 N   0  0  0  0  0  0  0  0  0  0  0  0
   48.9396   32.8191   43.1650 C   0  0  0  0  0  0  0  0  0  0  0  0
   49.3823   32.7821   44.1473 H   0  0  0  0  0  0  0  0  0  0  0  0
   49.4376   32.4380   41.9691 N   0  0  0  0  0  0  0  0  0  0  0  0
   48.5382   32.6648   40.9999 C   0  0  0  0  0  0  0  0  0  0  0  0
   48.4830   32.4884   39.6502 C   0  0  0  0  0  0  0  0  0  0  0  0
   49.5981   31.9284   38.9618 N   0  0  0  0  0  0  0  0  0  0  0  0
   49.9158   30.9771   38.7460 H   0  0  0  0  0  0  0  0  0  0  0  0
   47.3918   32.8282   38.9140 N   0  0  0  0  0  0  0  0  0  0  0  0
   46.3312   33.3539   39.5223 C   0  0  0  0  0  0  0  0  0  0  0  0
   45.3839   33.6853   39.1299 H   0  0  0  0  0  0  0  0  0  0  0  0
   46.3594   33.5365   40.8391 N   0  0  0  0  0  0  0  0  0  0  0  0
   47.4274   33.2129   41.6209 C   0  0  0  0  0  0  0  0  0  0  0  0
   50.1102   32.7909   38.6734 H   0  0  0  0  0  0  0  0  0  0  0  0
  1  6  2  0
  2  3  2  0
  2  1  1  0
  3  4  1  0
  4  5  2  0
  6  5  1  0
  7  1  1  0
  2  8  1  0
  5  9  1  0
  7 10  1  0
 11 12  1  0
 12 13  1  0
 12 14  2  0
 14 15  1  0
 15 16  2  0
 16 17  1  0
 17 18  1  0
 16 19  1  0
 19 20  2  0
 20 21  1  0
 20 22  1  0
 22 23  2  0
 23 11  1  0
 23 15  1  0
 17 24  1  0
  3 11  1  0
M  ISO  6   8  14   9  14  10   3  13  15  18   5  21  16
M  END
>  <DihAtoms>  (1) 
1,2,10,11

>  <DihDeg>  (1) 
126.29452987182759

$$$$
