REMARK  Name = 
REMARK  3 active torsions:
REMARK  status: ('A' for Active; 'I' for Inactive)
REMARK    1  A    between atoms: C_1  and  O_7
REMARK    2  A    between atoms: C_3  and  N_11
REMARK    3  A    between atoms: C_16  and  N_17
REMARK                            x       y       z     vdW  Elec       q    Type
REMARK                         _______ _______ _______ _____ _____    ______ ____
ROOT
ATOM      1  N   UNL     1      47.688  33.303  42.956  0.00  0.00    +0.000 N 
ATOM      2  C   UNL     1      49.045  33.299  42.993  0.00  0.00    +0.000 A 
ATOM      3  H   UNL     1      49.597  33.757  43.798  0.00  0.00    +0.000 HD
ATOM      4  N   UNL     1      49.485  32.651  41.893  0.00  0.00    +0.000 NA
ATOM      5  C   UNL     1      48.444  32.239  41.152  0.00  0.00    +0.000 A 
ATOM      6  C   UNL     1      48.279  31.562  39.982  0.00  0.00    +0.000 A 
ATOM      7  N   UNL     1      47.051  31.285  39.467  0.00  0.00    +0.000 NA
ATOM      8  C   UNL     1      45.963  31.685  40.120  0.00  0.00    +0.000 A 
ATOM      9  H   UNL     1      44.917  31.569  39.888  0.00  0.00    +0.000 HD
ATOM     10  N   UNL     1      46.097  32.348  41.265  0.00  0.00    +0.000 NA
ATOM     11  C   UNL     1      47.303  32.650  41.822  0.00  0.00    +0.000 A 
ENDROOT
BRANCH   1  14
ATOM     12  C   UNL     1      45.002  35.486  44.186  0.00  0.00    +0.000 A 
ATOM     13  C   UNL     1      45.980  34.926  43.348  0.00  0.00    +0.000 A 
ATOM     14  C   UNL     1      46.709  33.836  43.841  0.00  0.00    +0.000 A 
ATOM     15  N   UNL     1      46.439  33.379  45.089  0.00  0.00    +0.000 NA
ATOM     16  C   UNL     1      45.497  33.941  45.858  0.00  0.00    +0.000 A 
ATOM     17  N   UNL     1      44.786  34.985  45.409  0.00  0.00    +0.000 NA
ATOM     18  H   UNL     1      46.154  35.328  42.364  0.00  0.00    +0.000 HD
ATOM     19  H   UNL     1      45.289  33.573  46.848  0.00  0.00    +0.000 HD
BRANCH  12  20
ATOM     20  O   UNL     1      44.285  36.551  43.712  0.00  0.00    +0.000 OA
ATOM     21  H   UNL     1      43.633  36.335  42.942  0.00  0.00    +0.000 HD
ENDBRANCH  12  20
ENDBRANCH   1  14
BRANCH   6  22
ATOM     22  N   UNL     1      49.419  31.116  39.253  0.00  0.00    +0.000 N 
ATOM     23  H   UNL     1      50.015  30.281  39.275  0.00  0.00    +0.000 HD
ATOM     24  H   UNL     1      49.559  31.913  38.593  0.00  0.00    +0.000 HD
ENDBRANCH   6  22
TORSDOF 3
