
 OpenBabel03242523453D

 24 26  0  0  0  0  0  0  0  0999 V2000
   48.5890   34.0980   42.8610 N   0  0  0  0  0  0  0  0  0  0  0  0
   49.6840   34.9010   42.8860 C   0  0  0  0  0  0  0  0  0  0  0  0
   49.6650   35.8780   43.3400 H   0  0  0  0  0  0  0  0  0  0  0  0
   50.6890   34.2430   42.2690 N   0  0  0  0  0  0  0  0  0  0  0  0
   50.2670   33.0400   41.8490 C   0  0  0  0  0  0  0  0  0  0  0  0
   50.8160   31.9810   41.1910 C   0  0  0  0  0  0  0  0  0  0  0  0
   50.1090   30.8580   40.8980 N   0  0  0  0  0  0  0  0  0  0  0  0
   48.8310   30.7770   41.2640 C   0  0  0  0  0  0  0  0  0  0  0  0
   48.1070   29.9900   41.1300 H   0  0  0  0  0  0  0  0  0  0  0  0
   48.2710   31.7970   41.9070 N   0  0  0  0  0  0  0  0  0  0  0  0
   48.9370   32.9440   42.2230 C   0  0  0  0  0  0  0  0  0  0  0  0
   45.1540   35.3770   43.0940 C   0  0  0  0  0  0  0  0  0  0  0  0
   46.4680   35.1750   42.6430 C   0  0  0  0  0  0  0  0  0  0  0  0
   47.2650   34.2700   43.3560 C   0  0  0  0  0  0  0  0  0  0  0  0
   46.7370   33.6410   44.4350 N   0  0  0  0  0  0  0  0  0  0  0  0
   45.4770   33.8610   44.8330 C   0  0  0  0  0  0  0  0  0  0  0  0
   44.6940   34.7220   44.1680 N   0  0  0  0  0  0  0  0  0  0  0  0
   46.8380   35.7010   41.7790 H   0  0  0  0  0  0  0  0  0  0  0  0
   45.0650   33.3590   45.6910 H   0  0  0  0  0  0  0  0  0  0  0  0
   44.3680   36.2590   42.4030 O   0  0  0  0  0  0  0  0  0  0  0  0
   44.0940   35.9560   41.4560 H   0  0  0  0  0  0  0  0  0  0  0  0
   52.1810   32.0290   40.7850 N   0  0  0  0  0  0  0  0  0  0  0  0
   53.0790   31.8040   41.2260 H   0  0  0  0  0  0  0  0  0  0  0  0
   52.0870   32.3890   39.8090 H   0  0  0  0  0  0  0  0  0  0  0  0
  1  2  1  0  0  0  0
  1 14  1  0  0  0  0
  2  3  1  0  0  0  0
  4  2  2  0  0  0  0
  5 11  1  0  0  0  0
  5  4  1  0  0  0  0
  6  5  2  0  0  0  0
  7  6  1  0  0  0  0
  7  8  2  0  0  0  0
  8 10  1  0  0  0  0
  9  8  1  0  0  0  0
 10 11  2  0  0  0  0
 11  1  1  0  0  0  0
 12 17  1  0  0  0  0
 13 12  2  0  0  0  0
 13 14  1  0  0  0  0
 14 15  2  0  0  0  0
 15 16  1  0  0  0  0
 16 19  1  0  0  0  0
 17 16  2  0  0  0  0
 18 13  1  0  0  0  0
 20 12  1  0  0  0  0
 21 20  1  0  0  0  0
 22  6  1  0  0  0  0
 22 23  1  0  0  0  0
 24 22  1  0  0  0  0
M  END
>  <minimizedAffinity>
-4.95239258

>  <minimizedRMSD>
1.7835573

$$$$
