
 OpenBabel03252503113D

 39 43  0  0  0  0  0  0  0  0999 V2000
   45.9060   34.1710   40.6400 C   0  0  0  0  0  0  0  0  0  0  0  0
   44.5440   34.0840   40.4830 C   0  0  0  0  0  0  0  0  0  0  0  0
   44.3520   33.5050   39.2830 N   0  0  0  0  0  0  0  0  0  0  0  0
   45.5640   33.2480   38.7260 C   0  0  0  0  0  0  0  0  0  0  0  0
   46.5340   33.6590   39.5640 N   0  0  0  0  0  0  0  0  0  0  0  0
   43.8480   34.4310   41.2180 H   0  0  0  0  0  0  0  0  0  0  0  0
   43.3760   33.3300   38.9380 H   0  0  0  0  0  0  0  0  0  0  0  0
   45.5880   32.6310   37.4430 N   0  0  0  0  0  0  0  0  0  0  0  0
   44.5110   31.9510   36.9530 C   0  0  0  0  0  0  0  0  0  0  0  0
   43.5170   31.7580   37.3880 H   0  0  0  0  0  0  0  0  0  0  0  0
   44.7970   31.4610   35.7120 N   0  0  0  0  0  0  0  0  0  0  0  0
   46.0660   31.8300   35.4040 C   0  0  0  0  0  0  0  0  0  0  0  0
   46.9410   31.6630   34.3290 C   0  0  0  0  0  0  0  0  0  0  0  0
   48.1560   32.2010   34.4170 N   0  0  0  0  0  0  0  0  0  0  0  0
   48.6110   32.9030   35.4710 C   0  0  0  0  0  0  0  0  0  0  0  0
   49.6180   33.2660   35.3710 H   0  0  0  0  0  0  0  0  0  0  0  0
   47.7850   33.0720   36.5070 N   0  0  0  0  0  0  0  0  0  0  0  0
   46.5280   32.5460   36.4840 C   0  0  0  0  0  0  0  0  0  0  0  0
   46.4690   30.9230   33.2100 N   0  0  0  0  0  0  0  0  0  0  0  0
   46.9200   29.9870   33.3910 H   0  0  0  0  0  0  0  0  0  0  0  0
   45.8690   31.0570   32.3720 H   0  0  0  0  0  0  0  0  0  0  0  0
   46.6330   34.7470   41.8220 C   0  0  0  0  0  0  0  0  0  0  0  0
   47.8470   35.1040   41.7870 O   0  0  0  0  0  0  0  0  0  0  0  0
   45.3300   36.1260   43.3580 C   0  0  0  0  0  0  0  0  0  0  0  0
   45.9670   34.9130   43.0540 C   0  0  0  0  0  0  0  0  0  0  0  0
   45.8720   33.9360   44.0520 C   0  0  0  0  0  0  0  0  0  0  0  0
   45.2240   34.1480   45.2060 N   0  0  0  0  0  0  0  0  0  0  0  0
   44.6250   35.3510   45.4440 C   0  0  0  0  0  0  0  0  0  0  0  0
   44.6820   36.3250   44.5240 N   0  0  0  0  0  0  0  0  0  0  0  0
   45.3750   36.9240   42.6070 H   0  0  0  0  0  0  0  0  0  0  0  0
   44.1020   35.5370   46.3620 H   0  0  0  0  0  0  0  0  0  0  0  0
   46.4850   32.6930   43.8290 C   0  0  0  0  0  0  0  0  0  0  0  0
   47.7480   32.2040   44.0090 C   0  0  0  0  0  0  0  0  0  0  0  0
   48.0800   30.9550   43.7100 C   0  0  0  0  0  0  0  0  0  0  0  0
   47.0980   30.1570   43.2070 C   0  0  0  0  0  0  0  0  0  0  0  0
   45.6300   31.2860   43.1710 S   0  0  0  0  0  0  0  0  0  0  0  0
   48.4710   32.9380   44.4260 H   0  0  0  0  0  0  0  0  0  0  0  0
   49.0590   30.5090   43.8280 H   0  0  0  0  0  0  0  0  0  0  0  0
   47.1120   29.0980   42.8830 H   0  0  0  0  0  0  0  0  0  0  0  0
  1 22  1  0  0  0  0
  2  1  2  0  0  0  0
  2  6  1  0  0  0  0
  3  2  1  0  0  0  0
  4  3  1  0  0  0  0
  4  5  2  0  0  0  0
  5  1  1  0  0  0  0
  7  3  1  0  0  0  0
  8  4  1  0  0  0  0
  9 10  1  0  0  0  0
  9  8  1  0  0  0  0
 11  9  2  0  0  0  0
 12 11  1  0  0  0  0
 12 18  1  0  0  0  0
 13 14  1  0  0  0  0
 13 12  2  0  0  0  0
 14 15  2  0  0  0  0
 15 17  1  0  0  0  0
 16 15  1  0  0  0  0
 18 17  2  0  0  0  0
 18  8  1  0  0  0  0
 19 20  1  0  0  0  0
 19 13  1  0  0  0  0
 21 19  1  0  0  0  0
 22 25  1  0  0  0  0
 23 22  2  0  0  0  0
 24 29  1  0  0  0  0
 25 24  2  0  0  0  0
 25 26  1  0  0  0  0
 26 27  2  0  0  0  0
 27 28  1  0  0  0  0
 28 31  1  0  0  0  0
 29 28  2  0  0  0  0
 30 24  1  0  0  0  0
 32 33  2  0  0  0  0
 32 26  1  0  0  0  0
 33 37  1  0  0  0  0
 34 38  1  0  0  0  0
 34 33  1  0  0  0  0
 35 34  2  0  0  0  0
 36 35  1  0  0  0  0
 36 32  1  0  0  0  0
 39 35  1  0  0  0  0
M  END
>  <minimizedAffinity>
-6.1586132

>  <minimizedRMSD>
0.597767889

$$$$
