
 OpenBabel03252509023D

 53 56  0  0  1  0  0  0  0  0999 V2000
   46.7300   34.3570   43.4730 N   0  0  0  0  0  0  0  0  0  0  0  0
   46.4740   34.9540   42.2130 C   0  0  0  0  0  0  0  0  0  0  0  0
   45.0180   34.9710   41.8200 C   0  0  0  0  0  0  0  0  0  0  0  0
   44.0620   35.1540   42.9840 C   0  0  0  0  0  0  0  0  0  0  0  0
   44.8210   35.3850   44.2810 C   0  0  0  0  0  0  0  0  0  0  0  0
   45.7360   34.0970   44.3840 C   0  0  2  0  0  0  0  0  0  0  0  0
   46.8290   36.0220   42.2960 H   0  0  0  0  0  0  0  0  0  0  0  0
   47.0270   34.5310   41.3630 H   0  0  0  0  0  0  0  0  0  0  0  0
   44.8680   35.8650   41.1540 H   0  0  0  0  0  0  0  0  0  0  0  0
   44.7600   34.1000   41.1860 H   0  0  0  0  0  0  0  0  0  0  0  0
   43.5170   34.1910   43.0950 H   0  0  0  0  0  0  0  0  0  0  0  0
   43.3120   35.9450   42.7950 H   0  0  0  0  0  0  0  0  0  0  0  0
   45.4690   36.2580   44.1920 H   0  0  0  0  0  0  0  0  0  0  0  0
   44.1140   35.3800   45.1110 H   0  0  0  0  0  0  0  0  0  0  0  0
   45.0740   33.2270   44.2010 H   0  0  0  0  0  0  0  0  0  0  0  0
   47.9380   33.5710   43.5230 C   0  0  0  0  0  0  0  0  0  0  0  0
   48.1430   33.3770   44.6110 H   0  0  0  0  0  0  0  0  0  0  0  0
   48.7650   34.2160   43.1560 H   0  0  0  0  0  0  0  0  0  0  0  0
   47.7150   32.3300   42.7390 C   0  0  0  0  0  0  0  0  0  0  0  0
   47.5780   31.4680   43.4080 H   0  0  0  0  0  0  0  0  0  0  0  0
   46.8150   32.4170   42.0660 H   0  0  0  0  0  0  0  0  0  0  0  0
   51.2160   32.1590   41.4030 C   0  0  0  0  0  0  0  0  0  0  0  0
   50.1180   32.3670   42.2600 C   0  0  0  0  0  0  0  0  0  0  0  0
   48.8550   32.1030   41.8210 C   0  0  0  0  0  0  0  0  0  0  0  0
   48.7200   31.6520   40.5760 N   0  0  0  0  0  0  0  0  0  0  0  0
   49.7530   31.4480   39.7460 C   0  0  0  0  0  0  0  0  0  0  0  0
   51.0120   31.6980   40.1470 N   0  0  0  0  0  0  0  0  0  0  0  0
   52.2130   32.3710   41.7600 H   0  0  0  0  0  0  0  0  0  0  0  0
   50.3620   32.7390   43.2540 H   0  0  0  0  0  0  0  0  0  0  0  0
   49.4280   31.0800   38.7850 H   0  0  0  0  0  0  0  0  0  0  0  0
   46.1550   34.1890   45.6990 O   0  0  0  0  0  0  0  0  0  0  0  0
   45.6440   31.5800   45.5880 O   0  0  0  0  0  0  0  0  0  0  0  0
   46.0570   32.7200   46.5150 P   0  0  2  0  0  0  0  0  0  0  0  0
   44.7440   32.8790   47.6000 O   0  0  0  0  0  0  0  0  0  0  0  0
   45.0610   33.2980   48.4410 H   0  0  0  0  0  0  0  0  0  0  0  0
   47.4180   32.3640   47.3970 O   0  0  0  0  0  0  0  0  0  0  0  0
   47.7180   31.0180   47.2650 C   0  0  0  0  0  0  0  0  0  0  0  0
   48.1440   30.7480   46.2960 H   0  0  0  0  0  0  0  0  0  0  0  0
   46.7760   30.4370   47.3990 H   0  0  0  0  0  0  0  0  0  0  0  0
   48.5830   30.6550   48.3790 N   0  0  0  0  0  0  0  0  0  0  0  0
   48.9920   31.6120   49.2520 C   0  0  0  0  0  0  0  0  0  0  0  0
   48.7560   32.6840   49.2490 H   0  0  0  0  0  0  0  0  0  0  0  0
   49.7830   31.0510   50.2010 N   0  0  0  0  0  0  0  0  0  0  0  0
   49.8720   29.7210   49.9190 C   0  0  0  0  0  0  0  0  0  0  0  0
   50.4980   28.6110   50.4630 C   0  0  0  0  0  0  0  0  0  0  0  0
   50.3410   27.4140   49.8700 N   0  0  0  0  0  0  0  0  0  0  0  0
   49.6040   27.2400   48.7740 C   0  0  0  0  0  0  0  0  0  0  0  0
   49.5770   26.2280   48.4230 H   0  0  0  0  0  0  0  0  0  0  0  0
   48.9800   28.2820   48.2110 N   0  0  0  0  0  0  0  0  0  0  0  0
   49.1120   29.4910   48.7710 C   0  0  0  0  0  0  0  0  0  0  0  0
   51.2750   28.8240   51.6280 N   0  0  0  0  0  0  0  0  0  0  0  0
   51.0280   28.9050   52.6520 H   0  0  0  0  0  0  0  0  0  0  0  0
   52.2670   28.9660   51.8930 H   0  0  0  0  0  0  0  0  0  0  0  0
  1 16  1  0  0  0  0
  1  6  1  0  0  0  0
  2  7  1  0  0  0  0
  2  1  1  0  0  0  0
  3  2  1  0  0  0  0
  3  4  1  0  0  0  0
  4 11  1  0  0  0  0
  4  5  1  0  0  0  0
  5  6  1  0  0  0  0
  5 14  1  0  0  0  0
  6 15  1  6  0  0  0
  6 31  1  0  0  0  0
  8  2  1  0  0  0  0
  9  3  1  0  0  0  0
 10  3  1  0  0  0  0
 12  4  1  0  0  0  0
 13  5  1  0  0  0  0
 16 17  1  0  0  0  0
 18 16  1  0  0  0  0
 19 20  1  0  0  0  0
 19 16  1  0  0  0  0
 21 19  1  0  0  0  0
 22 28  1  0  0  0  0
 22 23  1  0  0  0  0
 23 29  1  0  0  0  0
 24 23  2  0  0  0  0
 24 19  1  0  0  0  0
 25 24  1  0  0  0  0
 26 27  1  0  0  0  0
 26 25  2  0  0  0  0
 27 22  2  0  0  0  0
 30 26  1  0  0  0  0
 31 33  1  0  0  0  0
 33 32  2  6  0  0  0
 33 36  1  0  0  0  0
 33 34  1  0  0  0  0
 34 35  1  0  0  0  0
 37 36  1  0  0  0  0
 37 39  1  0  0  0  0
 37 40  1  0  0  0  0
 38 37  1  0  0  0  0
 40 50  1  0  0  0  0
 40 41  1  0  0  0  0
 41 43  2  0  0  0  0
 42 41  1  0  0  0  0
 44 43  1  0  0  0  0
 44 45  1  0  0  0  0
 45 51  1  0  0  0  0
 46 45  2  0  0  0  0
 47 46  1  0  0  0  0
 48 47  1  0  0  0  0
 49 50  1  0  0  0  0
 49 47  2  0  0  0  0
 50 44  2  0  0  0  0
 51 53  1  0  0  0  0
 51 52  1  0  0  0  0
M  END
>  <minimizedAffinity>
-5.5294652

>  <minimizedRMSD>
3.13655925

$$$$
