
 OpenBabel03242518433D

 24 26  0  0  0  0  0  0  0  0999 V2000
   36.9080   30.5470   41.2170 C   0  0  0  0  0  0  0  0  0  0  0  0
   37.2900   29.2940   41.7220 C   0  0  0  0  0  0  0  0  0  0  0  0
   38.6270   28.8960   41.4760 C   0  0  0  0  0  0  0  0  0  0  0  0
   39.4460   29.7160   40.7890 N   0  0  0  0  0  0  0  0  0  0  0  0
   39.0260   30.9130   40.3250 C   0  0  0  0  0  0  0  0  0  0  0  0
   37.7590   31.3240   40.5400 N   0  0  0  0  0  0  0  0  0  0  0  0
   36.6450   28.6240   42.2750 H   0  0  0  0  0  0  0  0  0  0  0  0
   39.0340   27.9740   41.8060 H   0  0  0  0  0  0  0  0  0  0  0  0
   39.8260   31.8350   39.5930 N   0  0  0  0  0  0  0  0  0  0  0  0
   39.8010   33.1670   39.8080 C   0  0  0  0  0  0  0  0  0  0  0  0
   39.2360   33.7780   40.5040 H   0  0  0  0  0  0  0  0  0  0  0  0
   40.6590   33.8180   38.9770 N   0  0  0  0  0  0  0  0  0  0  0  0
   41.2490   32.8780   38.2070 C   0  0  0  0  0  0  0  0  0  0  0  0
   42.1840   32.9140   37.2040 C   0  0  0  0  0  0  0  0  0  0  0  0
   42.5500   31.7560   36.6470 N   0  0  0  0  0  0  0  0  0  0  0  0
   42.0240   30.5830   37.0470 C   0  0  0  0  0  0  0  0  0  0  0  0
   42.3760   29.6810   36.5400 H   0  0  0  0  0  0  0  0  0  0  0  0
   41.1040   30.4970   38.0260 N   0  0  0  0  0  0  0  0  0  0  0  0
   40.7250   31.6470   38.5970 C   0  0  0  0  0  0  0  0  0  0  0  0
   42.7020   34.1590   36.8220 N   0  0  0  0  0  0  0  0  0  0  0  0
   43.1890   34.4490   35.9500 H   0  0  0  0  0  0  0  0  0  0  0  0
   42.6490   34.9980   37.4210 H   0  0  0  0  0  0  0  0  0  0  0  0
   35.6140   30.9450   41.4480 O   0  0  0  0  0  0  0  0  0  0  0  0
   35.1850   31.7600   41.0550 H   0  0  0  0  0  0  0  0  0  0  0  0
  1 23  1  0  0  0  0
  1  2  1  0  0  0  0
  2  7  1  0  0  0  0
  3  2  2  0  0  0  0
  3  8  1  0  0  0  0
  4  3  1  0  0  0  0
  5  6  1  0  0  0  0
  5  4  2  0  0  0  0
  6  1  2  0  0  0  0
  9 10  1  0  0  0  0
  9  5  1  0  0  0  0
 10 11  1  0  0  0  0
 12 10  2  0  0  0  0
 13 19  1  0  0  0  0
 13 12  1  0  0  0  0
 14 13  2  0  0  0  0
 15 16  2  0  0  0  0
 15 14  1  0  0  0  0
 16 18  1  0  0  0  0
 17 16  1  0  0  0  0
 18 19  2  0  0  0  0
 19  9  1  0  0  0  0
 20 14  1  0  0  0  0
 20 22  1  0  0  0  0
 21 20  1  0  0  0  0
 24 23  1  0  0  0  0
M  END
>  <minimizedAffinity>
-5.82767725

$$$$

 OpenBabel03242518433D

 24 26  0  0  0  0  0  0  0  0999 V2000
   42.2570   32.9620   37.2280 C   0  0  0  0  0  0  0  0  0  0  0  0
   43.2730   31.9940   37.2560 C   0  0  0  0  0  0  0  0  0  0  0  0
   42.9530   30.7620   37.8790 C   0  0  0  0  0  0  0  0  0  0  0  0
   41.7240   30.5840   38.4010 N   0  0  0  0  0  0  0  0  0  0  0  0
   40.7830   31.5510   38.3460 C   0  0  0  0  0  0  0  0  0  0  0  0
   41.0530   32.7370   37.7600 N   0  0  0  0  0  0  0  0  0  0  0  0
   44.2650   32.1210   36.8420 H   0  0  0  0  0  0  0  0  0  0  0  0
   43.6350   29.9540   37.9630 H   0  0  0  0  0  0  0  0  0  0  0  0
   39.4640   31.4430   38.8720 N   0  0  0  0  0  0  0  0  0  0  0  0
   38.3720   31.8990   38.2240 C   0  0  0  0  0  0  0  0  0  0  0  0
   38.2520   32.3960   37.2670 H   0  0  0  0  0  0  0  0  0  0  0  0
   37.2400   31.6700   38.9430 N   0  0  0  0  0  0  0  0  0  0  0  0
   37.6170   31.0510   40.0830 C   0  0  0  0  0  0  0  0  0  0  0  0
   36.9430   30.5770   41.1800 C   0  0  0  0  0  0  0  0  0  0  0  0
   37.6570   30.0020   42.1520 N   0  0  0  0  0  0  0  0  0  0  0  0
   38.9960   29.8850   42.0700 C   0  0  0  0  0  0  0  0  0  0  0  0
   39.5050   29.4010   42.9080 H   0  0  0  0  0  0  0  0  0  0  0  0
   39.7000   30.3340   41.0150 N   0  0  0  0  0  0  0  0  0  0  0  0
   39.0030   30.9130   40.0300 C   0  0  0  0  0  0  0  0  0  0  0  0
   35.5500   30.7230   41.2190 N   0  0  0  0  0  0  0  0  0  0  0  0
   34.8900   30.6910   42.0230 H   0  0  0  0  0  0  0  0  0  0  0  0
   34.9780   30.8920   40.3770 H   0  0  0  0  0  0  0  0  0  0  0  0
   42.5540   34.1610   36.6260 O   0  0  0  0  0  0  0  0  0  0  0  0
   41.9620   34.9690   36.6320 H   0  0  0  0  0  0  0  0  0  0  0  0
  1  2  2  0  0  0  0
  1  6  1  0  0  0  0
  2  3  1  0  0  0  0
  3  8  1  0  0  0  0
  3  4  2  0  0  0  0
  5  4  1  0  0  0  0
  5  9  1  0  0  0  0
  6  5  2  0  0  0  0
  7  2  1  0  0  0  0
  9 19  1  0  0  0  0
 10  9  1  0  0  0  0
 10 12  2  0  0  0  0
 11 10  1  0  0  0  0
 12 13  1  0  0  0  0
 13 14  1  0  0  0  0
 14 20  1  0  0  0  0
 14 15  2  0  0  0  0
 16 15  1  0  0  0  0
 16 17  1  0  0  0  0
 18 16  2  0  0  0  0
 19 13  2  0  0  0  0
 19 18  1  0  0  0  0
 20 21  1  0  0  0  0
 22 20  1  0  0  0  0
 23 24  1  0  0  0  0
 23  1  1  0  0  0  0
M  END
>  <minimizedAffinity>
-5.62477493

$$$$

 OpenBabel03242518433D

 24 26  0  0  0  0  0  0  0  0999 V2000
   38.5840   24.6610   42.2710 C   0  0  0  0  0  0  0  0  0  0  0  0
   39.6590   24.5500   43.1670 C   0  0  0  0  0  0  0  0  0  0  0  0
   40.1790   25.7650   43.6800 C   0  0  0  0  0  0  0  0  0  0  0  0
   39.6320   26.9340   43.2940 N   0  0  0  0  0  0  0  0  0  0  0  0
   38.5970   26.9820   42.4280 C   0  0  0  0  0  0  0  0  0  0  0  0
   38.0760   25.8450   41.9190 N   0  0  0  0  0  0  0  0  0  0  0  0
   40.1090   23.6200   43.4870 H   0  0  0  0  0  0  0  0  0  0  0  0
   40.9880   25.8130   44.3630 H   0  0  0  0  0  0  0  0  0  0  0  0
   37.9640   28.1730   41.9710 N   0  0  0  0  0  0  0  0  0  0  0  0
   36.6260   28.2940   41.8390 C   0  0  0  0  0  0  0  0  0  0  0  0
   35.8140   27.5990   42.0260 H   0  0  0  0  0  0  0  0  0  0  0  0
   36.2840   29.5310   41.3870 N   0  0  0  0  0  0  0  0  0  0  0  0
   37.4340   30.2210   41.2240 C   0  0  0  0  0  0  0  0  0  0  0  0
   37.7330   31.4920   40.8030 C   0  0  0  0  0  0  0  0  0  0  0  0
   39.0190   31.8520   40.7650 N   0  0  0  0  0  0  0  0  0  0  0  0
   40.0010   31.0030   41.1260 C   0  0  0  0  0  0  0  0  0  0  0  0
   41.0270   31.3760   41.0660 H   0  0  0  0  0  0  0  0  0  0  0  0
   39.7570   29.7480   41.5450 N   0  0  0  0  0  0  0  0  0  0  0  0
   38.4740   29.3680   41.5900 C   0  0  0  0  0  0  0  0  0  0  0  0
   36.6770   32.3370   40.4390 N   0  0  0  0  0  0  0  0  0  0  0  0
   36.6730   33.2020   39.8600 H   0  0  0  0  0  0  0  0  0  0  0  0
   35.7010   32.1770   40.7330 H   0  0  0  0  0  0  0  0  0  0  0  0
   38.0700   23.4910   41.7660 O   0  0  0  0  0  0  0  0  0  0  0  0
   37.3790   23.4310   41.0430 H   0  0  0  0  0  0  0  0  0  0  0  0
  1  2  1  0  0  0  0
  2  7  1  0  0  0  0
  2  3  2  0  0  0  0
  3  8  1  0  0  0  0
  4  3  1  0  0  0  0
  5  4  2  0  0  0  0
  6  1  2  0  0  0  0
  6  5  1  0  0  0  0
  9  5  1  0  0  0  0
 10  9  1  0  0  0  0
 10 11  1  0  0  0  0
 12 10  2  0  0  0  0
 13 12  1  0  0  0  0
 13 19  1  0  0  0  0
 14 13  2  0  0  0  0
 15 14  1  0  0  0  0
 15 16  2  0  0  0  0
 16 18  1  0  0  0  0
 17 16  1  0  0  0  0
 18 19  2  0  0  0  0
 19  9  1  0  0  0  0
 20 22  1  0  0  0  0
 20 14  1  0  0  0  0
 21 20  1  0  0  0  0
 23  1  1  0  0  0  0
 24 23  1  0  0  0  0
M  END
>  <minimizedAffinity>
-5.47977877

$$$$

 OpenBabel03242518433D

 24 26  0  0  0  0  0  0  0  0999 V2000
   38.0930   26.1580   42.2090 C   0  0  0  0  0  0  0  0  0  0  0  0
   39.1480   26.0270   43.1270 C   0  0  0  0  0  0  0  0  0  0  0  0
   39.7780   27.2280   43.5390 C   0  0  0  0  0  0  0  0  0  0  0  0
   39.3460   28.4040   43.0450 N   0  0  0  0  0  0  0  0  0  0  0  0
   38.3250   28.4720   42.1630 C   0  0  0  0  0  0  0  0  0  0  0  0
   37.7030   27.3490   41.7480 N   0  0  0  0  0  0  0  0  0  0  0  0
   39.5060   25.0900   43.5330 H   0  0  0  0  0  0  0  0  0  0  0  0
   40.5840   27.2600   44.2270 H   0  0  0  0  0  0  0  0  0  0  0  0
   37.8110   29.6730   41.5950 N   0  0  0  0  0  0  0  0  0  0  0  0
   36.4920   29.9070   41.4340 C   0  0  0  0  0  0  0  0  0  0  0  0
   35.6160   29.3100   41.6690 H   0  0  0  0  0  0  0  0  0  0  0  0
   36.2710   31.1250   40.8710 N   0  0  0  0  0  0  0  0  0  0  0  0
   37.4820   31.6880   40.6650 C   0  0  0  0  0  0  0  0  0  0  0  0
   37.9030   32.8830   40.1390 C   0  0  0  0  0  0  0  0  0  0  0  0
   39.2170   33.1160   40.0880 N   0  0  0  0  0  0  0  0  0  0  0  0
   40.1120   32.2140   40.5360 C   0  0  0  0  0  0  0  0  0  0  0  0
   41.1690   32.4820   40.4580 H   0  0  0  0  0  0  0  0  0  0  0  0
   39.7470   31.0290   41.0590 N   0  0  0  0  0  0  0  0  0  0  0  0
   38.4350   30.7770   41.1190 C   0  0  0  0  0  0  0  0  0  0  0  0
   36.9340   33.7880   39.6870 N   0  0  0  0  0  0  0  0  0  0  0  0
   37.0150   34.5950   39.0350 H   0  0  0  0  0  0  0  0  0  0  0  0
   35.9450   33.7470   39.9800 H   0  0  0  0  0  0  0  0  0  0  0  0
   37.4740   25.0010   41.8010 O   0  0  0  0  0  0  0  0  0  0  0  0
   36.7850   24.9440   41.0760 H   0  0  0  0  0  0  0  0  0  0  0  0
  1  2  1  0  0  0  0
  2  7  1  0  0  0  0
  2  3  2  0  0  0  0
  3  8  1  0  0  0  0
  4  3  1  0  0  0  0
  5  4  2  0  0  0  0
  6  5  1  0  0  0  0
  6  1  2  0  0  0  0
  9  5  1  0  0  0  0
 10  9  1  0  0  0  0
 10 11  1  0  0  0  0
 12 10  2  0  0  0  0
 13 12  1  0  0  0  0
 13 19  1  0  0  0  0
 14 13  2  0  0  0  0
 15 14  1  0  0  0  0
 15 16  2  0  0  0  0
 16 18  1  0  0  0  0
 17 16  1  0  0  0  0
 18 19  2  0  0  0  0
 19  9  1  0  0  0  0
 20 22  1  0  0  0  0
 20 14  1  0  0  0  0
 21 20  1  0  0  0  0
 23  1  1  0  0  0  0
 24 23  1  0  0  0  0
M  END
>  <minimizedAffinity>
-5.42784834

$$$$

 OpenBabel03242518433D

 24 26  0  0  0  0  0  0  0  0999 V2000
   42.0330   26.0990   43.1120 C   0  0  0  0  0  0  0  0  0  0  0  0
   43.2080   26.8180   43.3820 C   0  0  0  0  0  0  0  0  0  0  0  0
   43.0920   28.2310   43.3990 C   0  0  0  0  0  0  0  0  0  0  0  0
   41.8940   28.7990   43.1630 N   0  0  0  0  0  0  0  0  0  0  0  0
   40.7950   28.0580   42.9090 C   0  0  0  0  0  0  0  0  0  0  0  0
   40.8680   26.7100   42.8840 N   0  0  0  0  0  0  0  0  0  0  0  0
   44.1770   26.3770   43.5740 H   0  0  0  0  0  0  0  0  0  0  0  0
   43.9060   28.8830   43.5910 H   0  0  0  0  0  0  0  0  0  0  0  0
   39.4950   28.5800   42.6500 N   0  0  0  0  0  0  0  0  0  0  0  0
   38.3690   28.0450   43.1660 C   0  0  0  0  0  0  0  0  0  0  0  0
   38.2040   27.1940   43.8190 H   0  0  0  0  0  0  0  0  0  0  0  0
   37.2660   28.7320   42.7640 N   0  0  0  0  0  0  0  0  0  0  0  0
   37.6980   29.7360   41.9680 C   0  0  0  0  0  0  0  0  0  0  0  0
   37.0720   30.7430   41.2780 C   0  0  0  0  0  0  0  0  0  0  0  0
   37.8340   31.5840   40.5720 N   0  0  0  0  0  0  0  0  0  0  0  0
   39.1740   31.4570   40.5300 C   0  0  0  0  0  0  0  0  0  0  0  0
   39.7240   32.1850   39.9290 H   0  0  0  0  0  0  0  0  0  0  0  0
   39.8310   30.4850   41.1900 N   0  0  0  0  0  0  0  0  0  0  0  0
   39.0860   29.6330   41.9030 C   0  0  0  0  0  0  0  0  0  0  0  0
   35.6760   30.8340   41.3530 N   0  0  0  0  0  0  0  0  0  0  0  0
   34.9960   31.3170   40.7310 H   0  0  0  0  0  0  0  0  0  0  0  0
   35.1230   30.3880   42.1020 H   0  0  0  0  0  0  0  0  0  0  0  0
   42.1320   24.7290   43.0930 O   0  0  0  0  0  0  0  0  0  0  0  0
   41.4010   24.1040   42.8110 H   0  0  0  0  0  0  0  0  0  0  0  0
  1  2  1  0  0  0  0
  2  3  2  0  0  0  0
  2  7  1  0  0  0  0
  3  8  1  0  0  0  0
  4  3  1  0  0  0  0
  5  4  2  0  0  0  0
  6  5  1  0  0  0  0
  6  1  2  0  0  0  0
  9  5  1  0  0  0  0
  9 10  1  0  0  0  0
 10 11  1  0  0  0  0
 12 10  2  0  0  0  0
 13 12  1  0  0  0  0
 14 20  1  0  0  0  0
 14 13  2  0  0  0  0
 15 14  1  0  0  0  0
 16 15  2  0  0  0  0
 16 18  1  0  0  0  0
 17 16  1  0  0  0  0
 18 19  2  0  0  0  0
 19 13  1  0  0  0  0
 19  9  1  0  0  0  0
 20 22  1  0  0  0  0
 21 20  1  0  0  0  0
 23  1  1  0  0  0  0
 24 23  1  0  0  0  0
M  END
>  <minimizedAffinity>
-5.24320269

$$$$

 OpenBabel03242518433D

 24 26  0  0  0  0  0  0  0  0999 V2000
   38.5070   31.3240   40.8500 C   0  0  0  0  0  0  0  0  0  0  0  0
   37.1590   31.6700   40.6720 C   0  0  0  0  0  0  0  0  0  0  0  0
   36.2030   30.6860   41.0280 C   0  0  0  0  0  0  0  0  0  0  0  0
   36.6230   29.5000   41.5090 N   0  0  0  0  0  0  0  0  0  0  0  0
   37.9350   29.2190   41.6610 C   0  0  0  0  0  0  0  0  0  0  0  0
   38.8730   30.1320   41.3310 N   0  0  0  0  0  0  0  0  0  0  0  0
   36.8060   32.6170   40.2870 H   0  0  0  0  0  0  0  0  0  0  0  0
   35.1560   30.8270   40.9400 H   0  0  0  0  0  0  0  0  0  0  0  0
   38.4590   27.9930   42.1600 N   0  0  0  0  0  0  0  0  0  0  0  0
   39.4920   27.9300   43.0260 C   0  0  0  0  0  0  0  0  0  0  0  0
   40.0950   28.7030   43.4920 H   0  0  0  0  0  0  0  0  0  0  0  0
   39.7930   26.6420   43.3430 N   0  0  0  0  0  0  0  0  0  0  0  0
   38.9300   25.8580   42.6610 C   0  0  0  0  0  0  0  0  0  0  0  0
   38.7400   24.5020   42.5700 C   0  0  0  0  0  0  0  0  0  0  0  0
   37.7610   24.0600   41.7760 N   0  0  0  0  0  0  0  0  0  0  0  0
   36.9800   24.9080   41.0790 C   0  0  0  0  0  0  0  0  0  0  0  0
   36.2020   24.4650   40.4520 H   0  0  0  0  0  0  0  0  0  0  0  0
   37.1290   26.2440   41.1360 N   0  0  0  0  0  0  0  0  0  0  0  0
   38.1040   26.7070   41.9280 C   0  0  0  0  0  0  0  0  0  0  0  0
   39.5780   23.6610   43.3140 N   0  0  0  0  0  0  0  0  0  0  0  0
   39.7920   22.6490   43.2010 H   0  0  0  0  0  0  0  0  0  0  0  0
   40.1240   23.9870   44.1270 H   0  0  0  0  0  0  0  0  0  0  0  0
   39.4450   32.2680   40.5080 O   0  0  0  0  0  0  0  0  0  0  0  0
   40.4340   32.1140   40.4860 H   0  0  0  0  0  0  0  0  0  0  0  0
  1  6  1  0  0  0  0
  2  1  2  0  0  0  0
  2  3  1  0  0  0  0
  3  4  2  0  0  0  0
  4  5  1  0  0  0  0
  5  9  1  0  0  0  0
  6  5  2  0  0  0  0
  7  2  1  0  0  0  0
  8  3  1  0  0  0  0
  9 10  1  0  0  0  0
 10 12  2  0  0  0  0
 10 11  1  0  0  0  0
 13 12  1  0  0  0  0
 14 13  1  0  0  0  0
 14 20  1  0  0  0  0
 15 14  2  0  0  0  0
 16 18  2  0  0  0  0
 16 15  1  0  0  0  0
 17 16  1  0  0  0  0
 18 19  1  0  0  0  0
 19  9  1  0  0  0  0
 19 13  2  0  0  0  0
 20 22  1  0  0  0  0
 21 20  1  0  0  0  0
 23  1  1  0  0  0  0
 24 23  1  0  0  0  0
M  END
>  <minimizedAffinity>
-5.23518801

$$$$

 OpenBabel03242518433D

 24 26  0  0  0  0  0  0  0  0999 V2000
   37.3400   26.8030   42.1110 C   0  0  0  0  0  0  0  0  0  0  0  0
   37.2730   27.3090   43.4190 C   0  0  0  0  0  0  0  0  0  0  0  0
   37.5210   28.6950   43.5720 C   0  0  0  0  0  0  0  0  0  0  0  0
   37.8010   29.4410   42.4860 N   0  0  0  0  0  0  0  0  0  0  0  0
   37.8530   28.9020   41.2490 C   0  0  0  0  0  0  0  0  0  0  0  0
   37.6220   27.5850   41.0660 N   0  0  0  0  0  0  0  0  0  0  0  0
   37.0500   26.7230   44.3010 H   0  0  0  0  0  0  0  0  0  0  0  0
   37.5000   29.1950   44.5080 H   0  0  0  0  0  0  0  0  0  0  0  0
   38.1410   29.6200   40.0530 N   0  0  0  0  0  0  0  0  0  0  0  0
   37.4770   29.4230   38.8960 C   0  0  0  0  0  0  0  0  0  0  0  0
   36.6640   28.7530   38.6310 H   0  0  0  0  0  0  0  0  0  0  0  0
   37.9470   30.2350   37.9110 N   0  0  0  0  0  0  0  0  0  0  0  0
   38.9410   30.9730   38.4520 C   0  0  0  0  0  0  0  0  0  0  0  0
   39.7790   31.9450   37.9700 C   0  0  0  0  0  0  0  0  0  0  0  0
   40.6710   32.4770   38.8110 N   0  0  0  0  0  0  0  0  0  0  0  0
   40.7550   32.0780   40.0940 C   0  0  0  0  0  0  0  0  0  0  0  0
   41.5120   32.5620   40.7170 H   0  0  0  0  0  0  0  0  0  0  0  0
   39.9550   31.1270   40.6130 N   0  0  0  0  0  0  0  0  0  0  0  0
   39.0550   30.5830   39.7860 C   0  0  0  0  0  0  0  0  0  0  0  0
   39.6530   32.3260   36.6270 N   0  0  0  0  0  0  0  0  0  0  0  0
   40.3210   32.8170   35.9990 H   0  0  0  0  0  0  0  0  0  0  0  0
   38.8060   32.1420   36.0670 H   0  0  0  0  0  0  0  0  0  0  0  0
   37.1010   25.4600   41.9480 O   0  0  0  0  0  0  0  0  0  0  0  0
   37.2210   24.9550   41.0920 H   0  0  0  0  0  0  0  0  0  0  0  0
  1  2  1  0  0  0  0
  2  3  2  0  0  0  0
  2  7  1  0  0  0  0
  3  8  1  0  0  0  0
  4  3  1  0  0  0  0
  5  4  2  0  0  0  0
  6  5  1  0  0  0  0
  6  1  2  0  0  0  0
  9  5  1  0  0  0  0
 10  9  1  0  0  0  0
 11 10  1  0  0  0  0
 12 13  1  0  0  0  0
 12 10  2  0  0  0  0
 13 19  1  0  0  0  0
 14 13  2  0  0  0  0
 14 15  1  0  0  0  0
 15 16  2  0  0  0  0
 16 18  1  0  0  0  0
 16 17  1  0  0  0  0
 19  9  1  0  0  0  0
 19 18  2  0  0  0  0
 20 14  1  0  0  0  0
 21 20  1  0  0  0  0
 22 20  1  0  0  0  0
 23  1  1  0  0  0  0
 24 23  1  0  0  0  0
M  END
>  <minimizedAffinity>
-5.17373276

$$$$

 OpenBabel03242518433D

 24 26  0  0  0  0  0  0  0  0999 V2000
   37.2440   25.3390   41.0030 C   0  0  0  0  0  0  0  0  0  0  0  0
   38.1710   24.9190   41.9700 C   0  0  0  0  0  0  0  0  0  0  0  0
   38.8360   25.9410   42.6920 C   0  0  0  0  0  0  0  0  0  0  0  0
   38.5550   27.2300   42.4240 N   0  0  0  0  0  0  0  0  0  0  0  0
   37.6520   27.5790   41.4820 C   0  0  0  0  0  0  0  0  0  0  0  0
   37.0010   26.6320   40.7750 N   0  0  0  0  0  0  0  0  0  0  0  0
   38.4080   23.8880   42.1970 H   0  0  0  0  0  0  0  0  0  0  0  0
   39.5560   25.7510   43.4470 H   0  0  0  0  0  0  0  0  0  0  0  0
   37.2990   28.9150   41.1390 N   0  0  0  0  0  0  0  0  0  0  0  0
   36.0290   29.3060   40.9030 C   0  0  0  0  0  0  0  0  0  0  0  0
   35.0900   28.7620   40.9160 H   0  0  0  0  0  0  0  0  0  0  0  0
   35.9680   30.6300   40.5980 N   0  0  0  0  0  0  0  0  0  0  0  0
   37.2330   31.1010   40.6390 C   0  0  0  0  0  0  0  0  0  0  0  0
   37.8010   32.3320   40.4280 C   0  0  0  0  0  0  0  0  0  0  0  0
   39.1260   32.4410   40.5590 N   0  0  0  0  0  0  0  0  0  0  0  0
   39.8920   31.3830   40.8860 C   0  0  0  0  0  0  0  0  0  0  0  0
   40.9680   31.5560   40.9730 H   0  0  0  0  0  0  0  0  0  0  0  0
   39.3810   30.1560   41.1020 N   0  0  0  0  0  0  0  0  0  0  0  0
   38.0550   30.0270   40.9770 C   0  0  0  0  0  0  0  0  0  0  0  0
   36.9620   33.4020   40.0890 N   0  0  0  0  0  0  0  0  0  0  0  0
   37.1800   34.3140   39.6380 H   0  0  0  0  0  0  0  0  0  0  0  0
   35.9450   33.3980   40.2670 H   0  0  0  0  0  0  0  0  0  0  0  0
   36.5920   24.3580   40.2960 O   0  0  0  0  0  0  0  0  0  0  0  0
   35.9910   24.5190   39.5110 H   0  0  0  0  0  0  0  0  0  0  0  0
  1  2  1  0  0  0  0
  2  7  1  0  0  0  0
  2  3  2  0  0  0  0
  3  8  1  0  0  0  0
  4  3  1  0  0  0  0
  5  4  2  0  0  0  0
  6  1  2  0  0  0  0
  6  5  1  0  0  0  0
  9  5  1  0  0  0  0
 10 11  1  0  0  0  0
 10  9  1  0  0  0  0
 12 13  1  0  0  0  0
 12 10  2  0  0  0  0
 13 19  1  0  0  0  0
 14 15  1  0  0  0  0
 14 13  2  0  0  0  0
 15 16  2  0  0  0  0
 16 17  1  0  0  0  0
 16 18  1  0  0  0  0
 19 18  2  0  0  0  0
 19  9  1  0  0  0  0
 20 22  1  0  0  0  0
 20 14  1  0  0  0  0
 21 20  1  0  0  0  0
 23  1  1  0  0  0  0
 24 23  1  0  0  0  0
M  END
>  <minimizedAffinity>
-5.06342173

$$$$

 OpenBabel03242518433D

 24 26  0  0  0  0  0  0  0  0999 V2000
   37.3280   31.4780   35.9840 C   0  0  0  0  0  0  0  0  0  0  0  0
   36.6590   30.6340   35.0840 C   0  0  0  0  0  0  0  0  0  0  0  0
   35.9620   29.5360   35.6480 C   0  0  0  0  0  0  0  0  0  0  0  0
   35.9740   29.3610   36.9830 N   0  0  0  0  0  0  0  0  0  0  0  0
   36.6340   30.2050   37.8040 C   0  0  0  0  0  0  0  0  0  0  0  0
   37.3090   31.2610   37.3020 N   0  0  0  0  0  0  0  0  0  0  0  0
   36.6400   30.7610   34.0090 H   0  0  0  0  0  0  0  0  0  0  0  0
   35.4200   28.8290   35.0730 H   0  0  0  0  0  0  0  0  0  0  0  0
   36.6950   30.0900   39.2220 N   0  0  0  0  0  0  0  0  0  0  0  0
   36.5870   31.1470   40.0540 C   0  0  0  0  0  0  0  0  0  0  0  0
   36.4460   32.2060   39.8650 H   0  0  0  0  0  0  0  0  0  0  0  0
   36.6780   30.7630   41.3560 N   0  0  0  0  0  0  0  0  0  0  0  0
   36.8490   29.4230   41.3590 C   0  0  0  0  0  0  0  0  0  0  0  0
   37.0010   28.4820   42.3450 C   0  0  0  0  0  0  0  0  0  0  0  0
   37.1510   27.2070   41.9760 N   0  0  0  0  0  0  0  0  0  0  0  0
   37.1560   26.8430   40.6790 C   0  0  0  0  0  0  0  0  0  0  0  0
   37.2840   25.7800   40.4610 H   0  0  0  0  0  0  0  0  0  0  0  0
   37.0110   27.7300   39.6770 N   0  0  0  0  0  0  0  0  0  0  0  0
   36.8590   29.0130   40.0270 C   0  0  0  0  0  0  0  0  0  0  0  0
   36.9900   28.9090   43.6800 N   0  0  0  0  0  0  0  0  0  0  0  0
   37.3420   28.4440   44.5410 H   0  0  0  0  0  0  0  0  0  0  0  0
   36.5950   29.8160   43.9770 H   0  0  0  0  0  0  0  0  0  0  0  0
   38.0080   32.5460   35.4510 O   0  0  0  0  0  0  0  0  0  0  0  0
   38.6090   33.1600   35.9660 H   0  0  0  0  0  0  0  0  0  0  0  0
  1  6  1  0  0  0  0
  2  3  1  0  0  0  0
  2  1  2  0  0  0  0
  3  4  2  0  0  0  0
  4  5  1  0  0  0  0
  5  9  1  0  0  0  0
  6  5  2  0  0  0  0
  7  2  1  0  0  0  0
  8  3  1  0  0  0  0
  9 19  1  0  0  0  0
  9 10  1  0  0  0  0
 10 12  2  0  0  0  0
 11 10  1  0  0  0  0
 12 13  1  0  0  0  0
 13 14  1  0  0  0  0
 14 20  1  0  0  0  0
 15 14  2  0  0  0  0
 16 15  1  0  0  0  0
 17 16  1  0  0  0  0
 18 19  1  0  0  0  0
 18 16  2  0  0  0  0
 19 13  2  0  0  0  0
 20 22  1  0  0  0  0
 20 21  1  0  0  0  0
 23 24  1  0  0  0  0
 23  1  1  0  0  0  0
M  END
>  <minimizedAffinity>
-4.99184704

$$$$
